
 OpenBabel03272508573D

 39 42  0  0  1  0  0  0  0  0999 V2000
   38.4020   31.8670   44.5470 C   0  0  0  0  0  0  0  0  0  0  0  0
   37.2940   32.4400   44.4290 O   0  0  0  0  0  0  0  0  0  0  0  0
   38.9520   31.6000   45.8520 N   0  0  0  0  0  0  0  0  0  0  0  0
   39.9450   31.3360   46.0080 H   0  0  0  0  0  0  0  0  0  0  0  0
   39.1830   31.4470   43.3620 C   0  0  0  0  0  0  0  0  0  0  0  0
   40.1620   30.5060   43.5160 C   0  0  0  0  0  0  0  0  0  0  0  0
   40.8700   30.1420   42.3820 C   0  0  0  0  0  0  0  0  0  0  0  0
   40.5580   30.7320   41.1930 C   0  0  0  0  0  0  0  0  0  0  0  0
   39.5700   31.6840   41.0280 C   0  0  0  0  0  0  0  0  0  0  0  0
   38.9120   32.0040   42.1570 N   0  0  0  0  0  0  0  0  0  0  0  0
   40.4170   30.0330   44.4470 H   0  0  0  0  0  0  0  0  0  0  0  0
   41.6460   29.4030   42.4700 H   0  0  0  0  0  0  0  0  0  0  0  0
   41.1390   30.4160   40.3290 H   0  0  0  0  0  0  0  0  0  0  0  0
   39.2700   32.2910   39.7370 C   0  0  0  0  0  0  0  0  0  0  0  0
   38.5320   33.3040   39.7090 O   0  0  0  0  0  0  0  0  0  0  0  0
   39.8150   31.7310   38.5030 C   0  0  0  0  0  0  0  0  0  0  0  0
   39.1970   30.7600   37.7440 C   0  0  0  0  0  0  0  0  0  0  0  0
   38.2540   30.2460   37.8860 H   0  0  0  0  0  0  0  0  0  0  0  0
   40.0200   30.4980   36.6670 C   0  0  0  0  0  0  0  0  0  0  0  0
   39.9480   29.8240   35.8250 H   0  0  0  0  0  0  0  0  0  0  0  0
   41.1210   31.3460   36.8340 C   0  0  0  0  0  0  0  0  0  0  0  0
   42.0280   31.4920   36.2300 H   0  0  0  0  0  0  0  0  0  0  0  0
   40.9460   32.0530   37.9390 O   0  0  0  0  0  0  0  0  0  0  0  0
   38.4320   31.1020   48.2300 C   0  0  2  0  0  0  0  0  0  0  0  0
   38.6630   32.5680   48.1350 C   0  0  0  0  0  0  0  0  0  0  0  0
   38.0720   31.7070   46.9890 C   0  0  1  0  0  0  0  0  0  0  0  0
   39.3630   30.5010   48.3280 H   0  0  0  0  0  0  0  0  0  0  0  0
   39.6880   32.9300   48.0250 H   0  0  0  0  0  0  0  0  0  0  0  0
   37.9640   33.2180   48.6750 H   0  0  0  0  0  0  0  0  0  0  0  0
   36.9980   31.9360   46.7820 H   0  0  0  0  0  0  0  0  0  0  0  0
   35.0540   30.2360   49.5240 C   0  0  0  0  0  0  0  0  0  0  0  0
   35.3760   29.5550   50.7500 C   0  0  0  0  0  0  0  0  0  0  0  0
   36.7710   29.4240   51.0990 C   0  0  0  0  0  0  0  0  0  0  0  0
   37.7300   29.9400   50.2680 N   0  0  0  0  0  0  0  0  0  0  0  0
   37.3490   30.5660   49.1350 C   0  0  0  0  0  0  0  0  0  0  0  0
   36.0270   30.7300   48.7370 N   0  0  0  0  0  0  0  0  0  0  0  0
   34.0010   30.3180   49.2930 H   0  0  0  0  0  0  0  0  0  0  0  0
   34.6270   29.1550   51.3920 H   0  0  0  0  0  0  0  0  0  0  0  0
   37.0140   28.9130   52.0170 H   0  0  0  0  0  0  0  0  0  0  0  0
  1  3  1  0  0  0  0
  2  1  2  0  0  0  0
  3  4  1  0  0  0  0
  3 26  1  0  0  0  0
  5  6  1  0  0  0  0
  5  1  1  0  0  0  0
  6 11  1  0  0  0  0
  7 12  1  0  0  0  0
  7  6  2  0  0  0  0
  8  7  1  0  0  0  0
  9  8  2  0  0  0  0
  9 10  1  0  0  0  0
 10  5  2  0  0  0  0
 13  8  1  0  0  0  0
 14  9  1  0  0  0  0
 15 14  2  0  0  0  0
 16 14  1  0  0  0  0
 17 18  1  0  0  0  0
 17 16  2  0  0  0  0
 19 21  2  0  0  0  0
 19 17  1  0  0  0  0
 20 19  1  0  0  0  0
 21 23  1  0  0  0  0
 22 21  1  0  0  0  0
 23 16  1  0  0  0  0
 24 27  1  6  0  0  0
 24 35  1  0  0  0  0
 25 24  1  0  0  0  0
 25 29  1  0  0  0  0
 26 30  1  6  0  0  0
 26 25  1  0  0  0  0
 26 24  1  0  0  0  0
 28 25  1  0  0  0  0
 31 32  1  0  0  0  0
 32 33  2  0  0  0  0
 32 38  1  0  0  0  0
 33 39  1  0  0  0  0
 34 33  1  0  0  0  0
 35 34  2  0  0  0  0
 36 35  1  0  0  0  0
 36 31  2  0  0  0  0
 37 31  1  0  0  0  0
M  END
>  <minimizedAffinity>
-4.95014811

>  <minimizedRMSD>
0.659860253

$$$$
