
 OpenBabel03272508573D

 39 42  0  0  1  0  0  0  0  0999 V2000
   38.3610   31.8760   44.5390 C   0  0  0  0  0  0  0  0  0  0  0  0
   37.2300   32.4020   44.4220 O   0  0  0  0  0  0  0  0  0  0  0  0
   38.9340   31.6540   45.8430 N   0  0  0  0  0  0  0  0  0  0  0  0
   39.9380   31.4320   45.9930 H   0  0  0  0  0  0  0  0  0  0  0  0
   39.1480   31.4680   43.3540 C   0  0  0  0  0  0  0  0  0  0  0  0
   40.1310   30.5320   43.5040 C   0  0  0  0  0  0  0  0  0  0  0  0
   40.8450   30.1790   42.3690 C   0  0  0  0  0  0  0  0  0  0  0  0
   40.5310   30.7740   41.1840 C   0  0  0  0  0  0  0  0  0  0  0  0
   39.5390   31.7210   41.0220 C   0  0  0  0  0  0  0  0  0  0  0  0
   38.8760   32.0300   42.1510 N   0  0  0  0  0  0  0  0  0  0  0  0
   40.3880   30.0550   44.4330 H   0  0  0  0  0  0  0  0  0  0  0  0
   41.6250   29.4440   42.4550 H   0  0  0  0  0  0  0  0  0  0  0  0
   41.1170   30.4660   40.3190 H   0  0  0  0  0  0  0  0  0  0  0  0
   39.2380   32.3340   39.7340 C   0  0  0  0  0  0  0  0  0  0  0  0
   38.6640   33.4480   39.7200 O   0  0  0  0  0  0  0  0  0  0  0  0
   39.5960   31.6650   38.4860 C   0  0  0  0  0  0  0  0  0  0  0  0
   40.6410   32.0430   37.6670 C   0  0  0  0  0  0  0  0  0  0  0  0
   41.3580   32.8460   37.7650 H   0  0  0  0  0  0  0  0  0  0  0  0
   40.6530   31.1720   36.5960 C   0  0  0  0  0  0  0  0  0  0  0  0
   41.2820   31.0830   35.7210 H   0  0  0  0  0  0  0  0  0  0  0  0
   39.5910   30.2920   36.8270 C   0  0  0  0  0  0  0  0  0  0  0  0
   39.2140   29.4350   36.2490 H   0  0  0  0  0  0  0  0  0  0  0  0
   39.0000   30.6320   37.9600 O   0  0  0  0  0  0  0  0  0  0  0  0
   38.4290   31.1240   48.2170 C   0  0  2  0  0  0  0  0  0  0  0  0
   38.6580   32.5910   48.1400 C   0  0  0  0  0  0  0  0  0  0  0  0
   38.0600   31.7440   46.9860 C   0  0  1  0  0  0  0  0  0  0  0  0
   39.3610   30.5230   48.3010 H   0  0  0  0  0  0  0  0  0  0  0  0
   39.6810   32.9560   48.0280 H   0  0  0  0  0  0  0  0  0  0  0  0
   37.9620   33.2330   48.6920 H   0  0  0  0  0  0  0  0  0  0  0  0
   36.9850   31.9750   46.7890 H   0  0  0  0  0  0  0  0  0  0  0  0
   35.0660   30.1630   49.4830 C   0  0  0  0  0  0  0  0  0  0  0  0
   35.3920   29.5380   50.7370 C   0  0  0  0  0  0  0  0  0  0  0  0
   36.7850   29.4770   51.1140 C   0  0  0  0  0  0  0  0  0  0  0  0
   37.7370   30.0040   50.2820 N   0  0  0  0  0  0  0  0  0  0  0  0
   37.3520   30.5750   49.1210 C   0  0  0  0  0  0  0  0  0  0  0  0
   36.0320   30.6700   48.6960 N   0  0  0  0  0  0  0  0  0  0  0  0
   34.0150   30.1940   49.2310 H   0  0  0  0  0  0  0  0  0  0  0  0
   34.6490   29.1300   51.3800 H   0  0  0  0  0  0  0  0  0  0  0  0
   37.0320   29.0080   52.0530 H   0  0  0  0  0  0  0  0  0  0  0  0
  1  3  1  0  0  0  0
  2  1  2  0  0  0  0
  3  4  1  0  0  0  0
  3 26  1  0  0  0  0
  5  6  1  0  0  0  0
  5  1  1  0  0  0  0
  6 11  1  0  0  0  0
  7 12  1  0  0  0  0
  7  6  2  0  0  0  0
  8  7  1  0  0  0  0
  9  8  2  0  0  0  0
  9 10  1  0  0  0  0
 10  5  2  0  0  0  0
 13  8  1  0  0  0  0
 14  9  1  0  0  0  0
 15 14  2  0  0  0  0
 16 14  1  0  0  0  0
 17 18  1  0  0  0  0
 17 16  2  0  0  0  0
 19 21  2  0  0  0  0
 19 17  1  0  0  0  0
 20 19  1  0  0  0  0
 21 23  1  0  0  0  0
 22 21  1  0  0  0  0
 23 16  1  0  0  0  0
 24 27  1  6  0  0  0
 24 35  1  0  0  0  0
 25 24  1  0  0  0  0
 25 29  1  0  0  0  0
 26 30  1  6  0  0  0
 26 25  1  0  0  0  0
 26 24  1  0  0  0  0
 28 25  1  0  0  0  0
 31 32  1  0  0  0  0
 32 33  2  0  0  0  0
 32 38  1  0  0  0  0
 33 39  1  0  0  0  0
 34 33  1  0  0  0  0
 35 34  2  0  0  0  0
 36 35  1  0  0  0  0
 36 31  2  0  0  0  0
 37 31  1  0  0  0  0
M  END
>  <minimizedAffinity>
-4.94761658

>  <minimizedRMSD>
0.368827313

$$$$
