
 OpenBabel03272508573D

 39 42  0  0  1  0  0  0  0  0999 V2000
   38.3410   31.8910   44.5930 C   0  0  0  0  0  0  0  0  0  0  0  0
   37.1850   32.3600   44.4770 O   0  0  0  0  0  0  0  0  0  0  0  0
   38.9390   31.7350   45.8950 N   0  0  0  0  0  0  0  0  0  0  0  0
   39.9550   31.5650   46.0380 H   0  0  0  0  0  0  0  0  0  0  0  0
   39.1310   31.4860   43.4090 C   0  0  0  0  0  0  0  0  0  0  0  0
   40.1190   30.5550   43.5630 C   0  0  0  0  0  0  0  0  0  0  0  0
   40.8360   30.2040   42.4290 C   0  0  0  0  0  0  0  0  0  0  0  0
   40.5220   30.7960   41.2420 C   0  0  0  0  0  0  0  0  0  0  0  0
   39.5250   31.7380   41.0780 C   0  0  0  0  0  0  0  0  0  0  0  0
   38.8590   32.0450   42.2060 N   0  0  0  0  0  0  0  0  0  0  0  0
   40.3760   30.0800   44.4920 H   0  0  0  0  0  0  0  0  0  0  0  0
   41.6190   29.4730   42.5180 H   0  0  0  0  0  0  0  0  0  0  0  0
   41.1100   30.4900   40.3790 H   0  0  0  0  0  0  0  0  0  0  0  0
   39.2230   32.3480   39.7890 C   0  0  0  0  0  0  0  0  0  0  0  0
   38.6130   33.4430   39.7720 O   0  0  0  0  0  0  0  0  0  0  0  0
   39.6190   31.6970   38.5430 C   0  0  0  0  0  0  0  0  0  0  0  0
   40.6740   32.1000   37.7510 C   0  0  0  0  0  0  0  0  0  0  0  0
   41.3750   32.9160   37.8700 H   0  0  0  0  0  0  0  0  0  0  0  0
   40.7270   31.2400   36.6730 C   0  0  0  0  0  0  0  0  0  0  0  0
   41.3760   31.1700   35.8100 H   0  0  0  0  0  0  0  0  0  0  0  0
   39.6760   30.3380   36.8730 C   0  0  0  0  0  0  0  0  0  0  0  0
   39.3260   29.4810   36.2800 H   0  0  0  0  0  0  0  0  0  0  0  0
   39.0550   30.6570   37.9960 O   0  0  0  0  0  0  0  0  0  0  0  0
   38.4410   31.1610   48.2600 C   0  0  2  0  0  0  0  0  0  0  0  0
   38.7010   32.6240   48.2150 C   0  0  0  0  0  0  0  0  0  0  0  0
   38.0770   31.8180   47.0470 C   0  0  1  0  0  0  0  0  0  0  0  0
   39.3600   30.5380   48.3230 H   0  0  0  0  0  0  0  0  0  0  0  0
   39.7320   32.9690   48.1040 H   0  0  0  0  0  0  0  0  0  0  0  0
   38.0240   33.2680   48.7880 H   0  0  0  0  0  0  0  0  0  0  0  0
   37.0050   32.0770   46.8640 H   0  0  0  0  0  0  0  0  0  0  0  0
   35.0670   30.2380   49.5260 C   0  0  0  0  0  0  0  0  0  0  0  0
   35.3880   29.5850   50.7670 C   0  0  0  0  0  0  0  0  0  0  0  0
   36.7810   29.4910   51.1360 C   0  0  0  0  0  0  0  0  0  0  0  0
   37.7390   30.0160   50.3080 N   0  0  0  0  0  0  0  0  0  0  0  0
   37.3590   30.6150   49.1600 C   0  0  0  0  0  0  0  0  0  0  0  0
   36.0380   30.7420   48.7440 N   0  0  0  0  0  0  0  0  0  0  0  0
   34.0150   30.2920   49.2800 H   0  0  0  0  0  0  0  0  0  0  0  0
   34.6410   29.1780   51.4060 H   0  0  0  0  0  0  0  0  0  0  0  0
   37.0250   29.0010   52.0650 H   0  0  0  0  0  0  0  0  0  0  0  0
  1  3  1  0  0  0  0
  2  1  2  0  0  0  0
  3  4  1  0  0  0  0
  3 26  1  0  0  0  0
  5  6  1  0  0  0  0
  5  1  1  0  0  0  0
  6 11  1  0  0  0  0
  7 12  1  0  0  0  0
  7  6  2  0  0  0  0
  8  7  1  0  0  0  0
  9  8  2  0  0  0  0
  9 10  1  0  0  0  0
 10  5  2  0  0  0  0
 13  8  1  0  0  0  0
 14  9  1  0  0  0  0
 15 14  2  0  0  0  0
 16 14  1  0  0  0  0
 17 18  1  0  0  0  0
 17 16  2  0  0  0  0
 19 21  2  0  0  0  0
 19 17  1  0  0  0  0
 20 19  1  0  0  0  0
 21 23  1  0  0  0  0
 22 21  1  0  0  0  0
 23 16  1  0  0  0  0
 24 27  1  6  0  0  0
 24 35  1  0  0  0  0
 25 24  1  0  0  0  0
 25 29  1  0  0  0  0
 26 30  1  6  0  0  0
 26 25  1  0  0  0  0
 26 24  1  0  0  0  0
 28 25  1  0  0  0  0
 31 32  1  0  0  0  0
 32 33  2  0  0  0  0
 32 38  1  0  0  0  0
 33 39  1  0  0  0  0
 34 33  1  0  0  0  0
 35 34  2  0  0  0  0
 36 35  1  0  0  0  0
 36 31  2  0  0  0  0
 37 31  1  0  0  0  0
M  END
>  <minimizedAffinity>
-4.94114637

>  <minimizedRMSD>
0.574839354

$$$$
