
 OpenBabel03272508573D

 39 42  0  0  1  0  0  0  0  0999 V2000
   38.3380   31.8850   44.5760 C   0  0  0  0  0  0  0  0  0  0  0  0
   37.1760   32.3370   44.4600 O   0  0  0  0  0  0  0  0  0  0  0  0
   38.9420   31.7440   45.8770 N   0  0  0  0  0  0  0  0  0  0  0  0
   39.9600   31.5890   46.0190 H   0  0  0  0  0  0  0  0  0  0  0  0
   39.1300   31.4820   43.3930 C   0  0  0  0  0  0  0  0  0  0  0  0
   40.1190   30.5510   43.5460 C   0  0  0  0  0  0  0  0  0  0  0  0
   40.8370   30.2020   42.4140 C   0  0  0  0  0  0  0  0  0  0  0  0
   40.5240   30.7960   41.2270 C   0  0  0  0  0  0  0  0  0  0  0  0
   39.5270   31.7370   41.0630 C   0  0  0  0  0  0  0  0  0  0  0  0
   38.8590   32.0420   42.1900 N   0  0  0  0  0  0  0  0  0  0  0  0
   40.3750   30.0750   44.4760 H   0  0  0  0  0  0  0  0  0  0  0  0
   41.6210   29.4720   42.5020 H   0  0  0  0  0  0  0  0  0  0  0  0
   41.1140   30.4920   40.3640 H   0  0  0  0  0  0  0  0  0  0  0  0
   39.2260   32.3480   39.7730 C   0  0  0  0  0  0  0  0  0  0  0  0
   38.6120   33.4410   39.7580 O   0  0  0  0  0  0  0  0  0  0  0  0
   39.6290   31.7020   38.5280 C   0  0  0  0  0  0  0  0  0  0  0  0
   40.6860   32.1100   37.7410 C   0  0  0  0  0  0  0  0  0  0  0  0
   41.3860   32.9270   37.8650 H   0  0  0  0  0  0  0  0  0  0  0  0
   40.7440   31.2540   36.6590 C   0  0  0  0  0  0  0  0  0  0  0  0
   41.3970   31.1900   35.7990 H   0  0  0  0  0  0  0  0  0  0  0  0
   39.6940   30.3510   36.8520 C   0  0  0  0  0  0  0  0  0  0  0  0
   39.3490   29.4940   36.2540 H   0  0  0  0  0  0  0  0  0  0  0  0
   39.0680   30.6640   37.9740 O   0  0  0  0  0  0  0  0  0  0  0  0
   38.4480   31.1650   48.2410 C   0  0  2  0  0  0  0  0  0  0  0  0
   38.7080   32.6280   48.2000 C   0  0  0  0  0  0  0  0  0  0  0  0
   38.0820   31.8250   47.0310 C   0  0  1  0  0  0  0  0  0  0  0  0
   39.3680   30.5410   48.3010 H   0  0  0  0  0  0  0  0  0  0  0  0
   39.7390   32.9730   48.0880 H   0  0  0  0  0  0  0  0  0  0  0  0
   38.0320   33.2700   48.7760 H   0  0  0  0  0  0  0  0  0  0  0  0
   37.0100   32.0840   46.8510 H   0  0  0  0  0  0  0  0  0  0  0  0
   35.0760   30.2510   49.5200 C   0  0  0  0  0  0  0  0  0  0  0  0
   35.4010   29.5810   50.7510 C   0  0  0  0  0  0  0  0  0  0  0  0
   36.7950   29.4720   51.1080 C   0  0  0  0  0  0  0  0  0  0  0  0
   37.7520   30.0000   50.2800 N   0  0  0  0  0  0  0  0  0  0  0  0
   37.3680   30.6160   49.1420 C   0  0  0  0  0  0  0  0  0  0  0  0
   36.0460   30.7580   48.7370 N   0  0  0  0  0  0  0  0  0  0  0  0
   34.0230   30.3160   49.2820 H   0  0  0  0  0  0  0  0  0  0  0  0
   34.6540   29.1720   51.3900 H   0  0  0  0  0  0  0  0  0  0  0  0
   37.0410   28.9690   52.0300 H   0  0  0  0  0  0  0  0  0  0  0  0
  1  3  1  0  0  0  0
  2  1  2  0  0  0  0
  3  4  1  0  0  0  0
  3 26  1  0  0  0  0
  5  6  1  0  0  0  0
  5  1  1  0  0  0  0
  6 11  1  0  0  0  0
  7 12  1  0  0  0  0
  7  6  2  0  0  0  0
  8  7  1  0  0  0  0
  9  8  2  0  0  0  0
  9 10  1  0  0  0  0
 10  5  2  0  0  0  0
 13  8  1  0  0  0  0
 14  9  1  0  0  0  0
 15 14  2  0  0  0  0
 16 14  1  0  0  0  0
 17 18  1  0  0  0  0
 17 16  2  0  0  0  0
 19 21  2  0  0  0  0
 19 17  1  0  0  0  0
 20 19  1  0  0  0  0
 21 23  1  0  0  0  0
 22 21  1  0  0  0  0
 23 16  1  0  0  0  0
 24 27  1  6  0  0  0
 24 35  1  0  0  0  0
 25 24  1  0  0  0  0
 25 29  1  0  0  0  0
 26 30  1  6  0  0  0
 26 25  1  0  0  0  0
 26 24  1  0  0  0  0
 28 25  1  0  0  0  0
 31 32  1  0  0  0  0
 32 33  2  0  0  0  0
 32 38  1  0  0  0  0
 33 39  1  0  0  0  0
 34 33  1  0  0  0  0
 35 34  2  0  0  0  0
 36 35  1  0  0  0  0
 36 31  2  0  0  0  0
 37 31  1  0  0  0  0
M  END
>  <minimizedAffinity>
-4.94325447

>  <minimizedRMSD>
0.526921332

$$$$
