
 OpenBabel03272508563D

 39 42  0  0  1  0  0  0  0  0999 V2000
   38.3420   31.8890   44.5840 C   0  0  0  0  0  0  0  0  0  0  0  0
   37.1850   32.3550   44.4680 O   0  0  0  0  0  0  0  0  0  0  0  0
   38.9410   31.7350   45.8850 N   0  0  0  0  0  0  0  0  0  0  0  0
   39.9580   31.5680   46.0280 H   0  0  0  0  0  0  0  0  0  0  0  0
   39.1320   31.4840   43.4000 C   0  0  0  0  0  0  0  0  0  0  0  0
   40.1210   30.5530   43.5530 C   0  0  0  0  0  0  0  0  0  0  0  0
   40.8370   30.2020   42.4200 C   0  0  0  0  0  0  0  0  0  0  0  0
   40.5230   30.7960   41.2330 C   0  0  0  0  0  0  0  0  0  0  0  0
   39.5260   31.7370   41.0690 C   0  0  0  0  0  0  0  0  0  0  0  0
   38.8600   32.0440   42.1970 N   0  0  0  0  0  0  0  0  0  0  0  0
   40.3780   30.0780   44.4830 H   0  0  0  0  0  0  0  0  0  0  0  0
   41.6210   29.4720   42.5080 H   0  0  0  0  0  0  0  0  0  0  0  0
   41.1120   30.4900   40.3700 H   0  0  0  0  0  0  0  0  0  0  0  0
   39.2240   32.3480   39.7800 C   0  0  0  0  0  0  0  0  0  0  0  0
   38.6120   33.4420   39.7640 O   0  0  0  0  0  0  0  0  0  0  0  0
   39.6250   31.7000   38.5340 C   0  0  0  0  0  0  0  0  0  0  0  0
   40.6820   32.1060   37.7460 C   0  0  0  0  0  0  0  0  0  0  0  0
   41.3820   32.9220   37.8680 H   0  0  0  0  0  0  0  0  0  0  0  0
   40.7380   31.2470   36.6650 C   0  0  0  0  0  0  0  0  0  0  0  0
   41.3900   31.1800   35.8060 H   0  0  0  0  0  0  0  0  0  0  0  0
   39.6870   30.3450   36.8600 C   0  0  0  0  0  0  0  0  0  0  0  0
   39.3410   29.4880   36.2650 H   0  0  0  0  0  0  0  0  0  0  0  0
   39.0620   30.6600   37.9830 O   0  0  0  0  0  0  0  0  0  0  0  0
   38.4450   31.1620   48.2510 C   0  0  2  0  0  0  0  0  0  0  0  0
   38.7040   32.6250   48.2050 C   0  0  0  0  0  0  0  0  0  0  0  0
   38.0800   31.8180   47.0380 C   0  0  1  0  0  0  0  0  0  0  0  0
   39.3650   30.5390   48.3130 H   0  0  0  0  0  0  0  0  0  0  0  0
   39.7340   32.9710   48.0940 H   0  0  0  0  0  0  0  0  0  0  0  0
   38.0260   33.2680   48.7780 H   0  0  0  0  0  0  0  0  0  0  0  0
   37.0080   32.0760   46.8550 H   0  0  0  0  0  0  0  0  0  0  0  0
   35.0720   30.2480   49.5260 C   0  0  0  0  0  0  0  0  0  0  0  0
   35.3960   29.5820   50.7600 C   0  0  0  0  0  0  0  0  0  0  0  0
   36.7900   29.4770   51.1200 C   0  0  0  0  0  0  0  0  0  0  0  0
   37.7470   30.0040   50.2920 N   0  0  0  0  0  0  0  0  0  0  0  0
   37.3640   30.6140   49.1520 C   0  0  0  0  0  0  0  0  0  0  0  0
   36.0420   30.7530   48.7430 N   0  0  0  0  0  0  0  0  0  0  0  0
   34.0190   30.3110   49.2860 H   0  0  0  0  0  0  0  0  0  0  0  0
   34.6490   29.1750   51.3990 H   0  0  0  0  0  0  0  0  0  0  0  0
   37.0350   28.9780   52.0440 H   0  0  0  0  0  0  0  0  0  0  0  0
  1  3  1  0  0  0  0
  2  1  2  0  0  0  0
  3  4  1  0  0  0  0
  3 26  1  0  0  0  0
  5  6  1  0  0  0  0
  5  1  1  0  0  0  0
  6 11  1  0  0  0  0
  7 12  1  0  0  0  0
  7  6  2  0  0  0  0
  8  7  1  0  0  0  0
  9  8  2  0  0  0  0
  9 10  1  0  0  0  0
 10  5  2  0  0  0  0
 13  8  1  0  0  0  0
 14  9  1  0  0  0  0
 15 14  2  0  0  0  0
 16 14  1  0  0  0  0
 17 18  1  0  0  0  0
 17 16  2  0  0  0  0
 19 21  2  0  0  0  0
 19 17  1  0  0  0  0
 20 19  1  0  0  0  0
 21 23  1  0  0  0  0
 22 21  1  0  0  0  0
 23 16  1  0  0  0  0
 24 27  1  6  0  0  0
 24 35  1  0  0  0  0
 25 24  1  0  0  0  0
 25 29  1  0  0  0  0
 26 30  1  6  0  0  0
 26 25  1  0  0  0  0
 26 24  1  0  0  0  0
 28 25  1  0  0  0  0
 31 32  1  0  0  0  0
 32 33  2  0  0  0  0
 32 38  1  0  0  0  0
 33 39  1  0  0  0  0
 34 33  1  0  0  0  0
 35 34  2  0  0  0  0
 36 35  1  0  0  0  0
 36 31  2  0  0  0  0
 37 31  1  0  0  0  0
M  END
>  <minimizedAffinity>
-4.94412708

>  <minimizedRMSD>
0.521738708

$$$$
