
 OpenBabel03272508573D

 39 42  0  0  1  0  0  0  0  0999 V2000
   38.3770   31.8640   44.5900 C   0  0  0  0  0  0  0  0  0  0  0  0
   37.2400   32.3760   44.4650 O   0  0  0  0  0  0  0  0  0  0  0  0
   38.9510   31.6680   45.8980 N   0  0  0  0  0  0  0  0  0  0  0  0
   39.9570   31.4600   46.0520 H   0  0  0  0  0  0  0  0  0  0  0  0
   39.1680   31.4450   43.4120 C   0  0  0  0  0  0  0  0  0  0  0  0
   40.1540   30.5130   43.5770 C   0  0  0  0  0  0  0  0  0  0  0  0
   40.8720   30.1490   42.4480 C   0  0  0  0  0  0  0  0  0  0  0  0
   40.5600   30.7300   41.2550 C   0  0  0  0  0  0  0  0  0  0  0  0
   39.5650   31.6710   41.0790 C   0  0  0  0  0  0  0  0  0  0  0  0
   38.8980   31.9920   42.2030 N   0  0  0  0  0  0  0  0  0  0  0  0
   40.4090   30.0480   44.5120 H   0  0  0  0  0  0  0  0  0  0  0  0
   41.6540   29.4180   42.5450 H   0  0  0  0  0  0  0  0  0  0  0  0
   41.1490   30.4140   40.3960 H   0  0  0  0  0  0  0  0  0  0  0  0
   39.2660   32.2680   39.7830 C   0  0  0  0  0  0  0  0  0  0  0  0
   38.5400   33.2900   39.7470 O   0  0  0  0  0  0  0  0  0  0  0  0
   39.7980   31.6890   38.5530 C   0  0  0  0  0  0  0  0  0  0  0  0
   39.1780   30.6960   37.8220 C   0  0  0  0  0  0  0  0  0  0  0  0
   38.2420   30.1770   37.9870 H   0  0  0  0  0  0  0  0  0  0  0  0
   39.9870   30.4210   36.7380 C   0  0  0  0  0  0  0  0  0  0  0  0
   39.9090   29.7300   35.9110 H   0  0  0  0  0  0  0  0  0  0  0  0
   41.0820   31.2820   36.8720 C   0  0  0  0  0  0  0  0  0  0  0  0
   41.9790   31.4250   36.2520 H   0  0  0  0  0  0  0  0  0  0  0  0
   40.9160   32.0090   37.9650 O   0  0  0  0  0  0  0  0  0  0  0  0
   38.4330   31.1410   48.2690 C   0  0  2  0  0  0  0  0  0  0  0  0
   38.6820   32.6050   48.1960 C   0  0  0  0  0  0  0  0  0  0  0  0
   38.0760   31.7690   47.0400 C   0  0  1  0  0  0  0  0  0  0  0  0
   39.3570   30.5270   48.3550 H   0  0  0  0  0  0  0  0  0  0  0  0
   39.7110   32.9560   48.0880 H   0  0  0  0  0  0  0  0  0  0  0  0
   37.9940   33.2550   48.7490 H   0  0  0  0  0  0  0  0  0  0  0  0
   37.0050   32.0150   46.8410 H   0  0  0  0  0  0  0  0  0  0  0  0
   35.0520   30.2370   49.5320 C   0  0  0  0  0  0  0  0  0  0  0  0
   35.3680   29.5920   50.7790 C   0  0  0  0  0  0  0  0  0  0  0  0
   36.7600   29.4980   51.1530 C   0  0  0  0  0  0  0  0  0  0  0  0
   37.7220   30.0140   50.3240 N   0  0  0  0  0  0  0  0  0  0  0  0
   37.3470   30.6050   49.1710 C   0  0  0  0  0  0  0  0  0  0  0  0
   36.0280   30.7320   48.7490 N   0  0  0  0  0  0  0  0  0  0  0  0
   34.0020   30.2920   49.2820 H   0  0  0  0  0  0  0  0  0  0  0  0
   34.6170   29.1930   51.4190 H   0  0  0  0  0  0  0  0  0  0  0  0
   36.9990   29.0150   52.0870 H   0  0  0  0  0  0  0  0  0  0  0  0
  1  3  1  0  0  0  0
  2  1  2  0  0  0  0
  3  4  1  0  0  0  0
  3 26  1  0  0  0  0
  5  6  1  0  0  0  0
  5  1  1  0  0  0  0
  6 11  1  0  0  0  0
  7 12  1  0  0  0  0
  7  6  2  0  0  0  0
  8  7  1  0  0  0  0
  9  8  2  0  0  0  0
  9 10  1  0  0  0  0
 10  5  2  0  0  0  0
 13  8  1  0  0  0  0
 14  9  1  0  0  0  0
 15 14  2  0  0  0  0
 16 14  1  0  0  0  0
 17 18  1  0  0  0  0
 17 16  2  0  0  0  0
 19 21  2  0  0  0  0
 19 17  1  0  0  0  0
 20 19  1  0  0  0  0
 21 23  1  0  0  0  0
 22 21  1  0  0  0  0
 23 16  1  0  0  0  0
 24 27  1  6  0  0  0
 24 35  1  0  0  0  0
 25 24  1  0  0  0  0
 25 29  1  0  0  0  0
 26 30  1  6  0  0  0
 26 25  1  0  0  0  0
 26 24  1  0  0  0  0
 28 25  1  0  0  0  0
 31 32  1  0  0  0  0
 32 33  2  0  0  0  0
 32 38  1  0  0  0  0
 33 39  1  0  0  0  0
 34 33  1  0  0  0  0
 35 34  2  0  0  0  0
 36 35  1  0  0  0  0
 36 31  2  0  0  0  0
 37 31  1  0  0  0  0
M  END
>  <minimizedAffinity>
-4.95850849

>  <minimizedRMSD>
0.606751978

$$$$
