
 OpenBabel03272504173D

 31 32  0  0  0  0  0  0  0  0999 V2000
   33.9270   29.4180   45.0070 O   0  0  0  0  0  0  0  0  0  0  0  0
   33.7540   29.5390   46.5050 P   0  0  1  0  0  0  0  0  0  0  0  0
   33.1820   31.0580   46.9320 O   0  0  0  0  0  0  0  0  0  0  0  0
   33.9610   31.6850   46.7950 H   0  0  0  0  0  0  0  0  0  0  0  0
   32.6370   28.3980   47.1330 O   0  0  0  0  0  0  0  0  0  0  0  0
   31.6440   27.8330   46.3410 C   0  0  0  0  0  0  0  0  0  0  0  0
   30.3980   28.3880   46.0670 C   0  0  0  0  0  0  0  0  0  0  0  0
   29.5300   27.6680   45.2450 C   0  0  0  0  0  0  0  0  0  0  0  0
   29.9160   26.4640   44.7430 N   0  0  0  0  0  0  0  0  0  0  0  0
   31.1550   25.9610   45.0430 C   0  0  0  0  0  0  0  0  0  0  0  0
   32.0180   26.6350   45.8360 N   0  0  0  0  0  0  0  0  0  0  0  0
   28.5810   28.1380   45.0620 H   0  0  0  0  0  0  0  0  0  0  0  0
   31.4110   24.9970   44.6160 H   0  0  0  0  0  0  0  0  0  0  0  0
   30.1680   29.6340   46.6660 N   0  0  0  0  0  0  0  0  0  0  0  0
   29.8910   30.5590   46.2230 H   0  0  0  0  0  0  0  0  0  0  0  0
   30.2460   29.8070   47.6800 H   0  0  0  0  0  0  0  0  0  0  0  0
   35.2930   29.2560   47.1770 O   0  0  0  0  0  0  0  0  0  0  0  0
   35.6730   30.3140   49.2940 C   0  0  0  0  0  0  0  0  0  0  0  0
   35.9830   30.1800   47.9360 C   0  0  0  0  0  0  0  0  0  0  0  0
   36.9800   31.0170   47.4880 C   0  0  0  0  0  0  0  0  0  0  0  0
   37.2520   30.9510   46.4580 H   0  0  0  0  0  0  0  0  0  0  0  0
   37.6370   31.9210   48.2830 C   0  0  0  0  0  0  0  0  0  0  0  0
   38.4210   32.5580   47.8630 H   0  0  0  0  0  0  0  0  0  0  0  0
   37.3040   32.0220   49.6080 C   0  0  0  0  0  0  0  0  0  0  0  0
   36.3160   31.2110   50.1080 C   0  0  0  0  0  0  0  0  0  0  0  0
   34.6630   28.1480   49.7220 N   0  0  0  0  0  0  0  0  0  0  0  0
   34.6230   29.4530   49.8290 C   0  0  0  0  0  0  0  0  0  0  0  0
   33.4430   29.8500   50.5180 N   0  0  0  0  0  0  0  0  0  0  0  0
   33.8620   27.6510   50.1410 H   0  0  0  0  0  0  0  0  0  0  0  0
   32.6430   29.8560   49.8200 H   0  0  0  0  0  0  0  0  0  0  0  0
   33.1330   30.1300   51.4720 H   0  0  0  0  0  0  0  0  0  0  0  0
  2  1  2  6  0  0  0
  2  3  1  0  0  0  0
  2  5  1  0  0  0  0
  2 17  1  0  0  0  0
  4  3  1  0  0  0  0
  6  5  1  0  0  0  0
  7  6  1  0  0  0  0
  7 14  1  0  0  0  0
  8  7  2  0  0  0  0
  9 10  2  0  0  0  0
  9  8  1  0  0  0  0
 10 11  1  0  0  0  0
 11  6  2  0  0  0  0
 12  8  1  0  0  0  0
 13 10  1  0  0  0  0
 14 16  1  0  0  0  0
 15 14  1  0  0  0  0
 17 19  1  0  0  0  0
 18 27  1  0  0  0  0
 18 25  1  0  0  0  0
 19 18  2  0  0  0  0
 20 19  1  0  0  0  0
 20 22  2  0  0  0  0
 21 20  1  0  0  0  0
 22 24  1  0  0  0  0
 23 22  1  0  0  0  0
 24 25  2  0  0  0  0
 26 27  2  0  0  0  0
 26 29  1  0  0  0  0
 27 28  1  0  0  0  0
 28 31  1  0  0  0  0
 30 28  1  0  0  0  0
M  END
>  <minimizedAffinity>
-4.9092021

>  <minimizedRMSD>
6.53751802

$$$$
