
     RDKit          3D

 33 34  0  0  0  0  0  0  0  0999 V2000
   35.9466   30.7937   49.6255 C   0  0  0  0  0  0  0  0  0  0  0  0
   36.2177   29.8946   50.6527 C   0  0  0  0  0  0  0  0  0  0  0  0
   37.5027   29.8948   51.1970 C   0  0  0  0  0  0  0  0  0  0  0  0
   38.4404   30.7568   50.7196 N   0  0  0  0  0  0  0  0  0  0  0  0
   38.1231   31.6228   49.7064 C   0  0  0  0  0  0  0  0  0  0  0  0
   36.8873   31.6474   49.1578 N   0  0  0  0  0  0  0  0  0  0  0  0
   35.1367   29.0822   51.0189 N   0  0  0  0  0  0  0  0  0  0  0  0
   34.7337   30.9403   48.9628 O   0  0  0  0  0  0  0  0  0  0  0  0
   35.5309   30.0887   46.5404 O   0  0  0  0  0  0  0  0  0  0  0  0
   34.3813   30.0751   47.5230 P   0  0  1  0  0  0  0  0  0  0  0  0
   33.9938   28.5094   47.9857 O   0  0  0  0  0  0  0  0  0  0  0  0
   33.0727   30.8153   46.7221 O   0  0  0  0  0  0  0  0  0  0  0  0
   37.6633   29.1835   51.9869 H   0  0  0  0  0  0  0  0  0  0  0  0
   38.9093   32.2884   49.3641 H   0  0  0  0  0  0  0  0  0  0  0  0
   35.0687   28.0235   51.0641 H   0  0  0  0  0  0  0  0  0  0  0  0
   34.2156   29.4456   51.3076 H   0  0  0  0  0  0  0  0  0  0  0  0
   33.5422   28.0966   47.1832 H   0  0  0  0  0  0  0  0  0  0  0  0
   34.3547   29.6610   44.8364 N   0  0  0  0  0  0  0  0  0  0  0  0
   34.8094   30.8671   44.5998 C   0  0  0  0  0  0  0  0  0  0  0  0
   36.0999   30.7942   44.0056 N   0  0  0  0  0  0  0  0  0  0  0  0
   34.0471   32.0674   44.9253 C   0  0  0  0  0  0  0  0  0  0  0  0
   33.1724   31.9968   46.0163 C   0  0  0  0  0  0  0  0  0  0  0  0
   32.4805   33.1587   46.2759 C   0  0  0  0  0  0  0  0  0  0  0  0
   31.8011   33.1533   47.0988 H   0  0  0  0  0  0  0  0  0  0  0  0
   32.6146   34.3108   45.5432 C   0  0  0  0  0  0  0  0  0  0  0  0
   32.0336   35.2001   45.8039 H   0  0  0  0  0  0  0  0  0  0  0  0
   33.4812   34.3389   44.4829 C   0  0  0  0  0  0  0  0  0  0  0  0
   34.1971   33.2080   44.1789 C   0  0  0  0  0  0  0  0  0  0  0  0
   34.9873   28.8941   44.5612 H   0  0  0  0  0  0  0  0  0  0  0  0
   36.8094   30.6501   44.7811 H   0  0  0  0  0  0  0  0  0  0  0  0
   36.5487   30.8378   43.0668 H   0  0  0  0  0  0  0  0  0  0  0  0
   33.6058   35.2237   43.8940 H   0  0  0  0  0  0  0  0  0  0  0  0
   34.9047   33.1709   43.3432 H   0  0  0  0  0  0  0  0  0  0  0  0
  1  2  2  0
  2  7  1  0
  2  3  1  0
  4  3  2  0
  5  4  1  0
  6  1  1  0
  6  5  2  0
  8  1  1  0
  9 10  2  0
 10 11  1  1
 10  8  1  0
 12 10  1  0
  3 13  1  0
  5 14  1  0
  7 15  1  0
  7 16  1  0
 11 17  1  0
 18 19  2  3
 19 20  1  0
 19 21  1  0
 21 22  2  0
 22 23  1  0
 23 24  1  0
 23 25  2  0
 25 26  1  0
 25 27  1  0
 27 28  2  0
 28 21  1  0
 18 29  1  0
 20 30  1  0
 20 31  1  0
 27 32  1  0
 28 33  1  0
 12 22  1  0
M  ISO  5  13  14  14  14  17   3  24  15  26  16
M  END
>  <DihAtoms>  (1) 
9,11,21,20

>  <DihDeg>  (1) 
179.98748910546027

$$$$
