
 OpenBabel03272501443D

 39 40  0  0  0  0  0  0  0  0999 V2000
   35.3970   28.8590   48.8950 C   0  0  0  0  0  0  0  0  0  0  0  0
   35.6210   29.8850   47.9250 C   0  0  0  0  0  0  0  0  0  0  0  0
   34.9430   29.7900   46.7190 C   0  0  0  0  0  0  0  0  0  0  0  0
   34.1130   28.7390   46.5220 N   0  0  0  0  0  0  0  0  0  0  0  0
   33.9140   27.7840   47.4430 C   0  0  0  0  0  0  0  0  0  0  0  0
   34.5580   27.8520   48.6230 N   0  0  0  0  0  0  0  0  0  0  0  0
   35.8320   28.7630   49.8780 H   0  0  0  0  0  0  0  0  0  0  0  0
   35.1250   30.5620   46.0140 H   0  0  0  0  0  0  0  0  0  0  0  0
   36.4600   31.3690   49.6480 C   0  0  0  0  0  0  0  0  0  0  0  0
   36.5370   30.9210   48.3350 C   0  0  0  0  0  0  0  0  0  0  0  0
   37.4850   31.5140   47.5350 C   0  0  0  0  0  0  0  0  0  0  0  0
   38.3190   32.5100   48.0210 C   0  0  0  0  0  0  0  0  0  0  0  0
   39.2990   33.2490   47.4970 N   0  0  0  0  0  0  0  0  0  0  0  0
   39.7870   34.0820   48.4050 C   0  0  0  0  0  0  0  0  0  0  0  0
   39.1190   33.9000   49.5690 N   0  0  0  0  0  0  0  0  0  0  0  0
   38.2170   32.9340   49.3340 C   0  0  0  0  0  0  0  0  0  0  0  0
   37.2790   32.3580   50.1520 C   0  0  0  0  0  0  0  0  0  0  0  0
   35.7620   31.0060   50.4130 H   0  0  0  0  0  0  0  0  0  0  0  0
   37.5610   31.1760   46.5020 H   0  0  0  0  0  0  0  0  0  0  0  0
   39.5790   33.1180   46.4860 H   0  0  0  0  0  0  0  0  0  0  0  0
   40.5990   34.7570   48.1290 H   0  0  0  0  0  0  0  0  0  0  0  0
   37.2310   32.7210   51.1840 H   0  0  0  0  0  0  0  0  0  0  0  0
   32.9820   26.6390   47.1810 C   0  0  0  0  0  0  0  0  0  0  0  0
   32.4590   26.3600   48.1450 H   0  0  0  0  0  0  0  0  0  0  0  0
   32.1620   26.9880   46.5330 H   0  0  0  0  0  0  0  0  0  0  0  0
   34.1510   25.4100   45.3440 C   0  0  0  0  0  0  0  0  0  0  0  0
   33.7280   25.5000   46.6470 C   0  0  0  0  0  0  0  0  0  0  0  0
   34.0400   24.4680   47.4980 C   0  0  0  0  0  0  0  0  0  0  0  0
   33.7230   24.5000   48.5420 H   0  0  0  0  0  0  0  0  0  0  0  0
   34.7530   23.4130   46.9960 C   0  0  0  0  0  0  0  0  0  0  0  0
   35.0230   22.5770   47.6250 H   0  0  0  0  0  0  0  0  0  0  0  0
   35.1820   23.3140   45.6920 C   0  0  0  0  0  3  0  0  0  0  0  0
   34.8780   24.3380   44.8260 C   0  0  0  0  0  3  0  0  0  0  0  0
   33.0130   27.1300   43.6890 N   0  0  0  0  0  0  0  0  0  0  0  0
   33.8380   26.4420   44.3830 C   0  0  0  0  0  3  0  0  0  0  0  0
   34.9050   27.1920   43.8260 N   0  0  0  0  0  1  0  0  0  0  0  0
   31.9910   26.9720   43.7250 H   0  0  0  0  0  0  0  0  0  0  0  0
   35.9200   27.3220   44.0100 H   0  0  0  0  0 15  0  0  0  0  0  0
   35.6690   27.7370   43.4180 H   0  0  0  0  0  0  0  0  0  0  0  0
  1  7  1  0  0  0  0
  2 10  1  0  0  0  0
  2  1  2  0  0  0  0
  3  2  1  0  0  0  0
  4  3  2  0  0  0  0
  4  5  1  0  0  0  0
  5  6  2  0  0  0  0
  6  1  1  0  0  0  0
  8  3  1  0  0  0  0
  9 17  1  0  0  0  0
  9 18  1  0  0  0  0
 10  9  2  0  0  0  0
 11 12  2  0  0  0  0
 11 10  1  0  0  0  0
 12 16  1  0  0  0  0
 13 12  1  0  0  0  0
 13 14  1  0  0  0  0
 14 15  2  0  0  0  0
 16 15  1  0  0  0  0
 16 17  2  0  0  0  0
 17 22  1  0  0  0  0
 19 11  1  0  0  0  0
 20 13  1  0  0  0  0
 21 14  1  0  0  0  0
 23  5  1  0  0  0  0
 23 24  1  0  0  0  0
 25 23  1  0  0  0  0
 26 27  1  0  0  0  0
 27 23  1  0  0  0  0
 27 28  2  0  0  0  0
 28 29  1  0  0  0  0
 30 28  1  0  0  0  0
 30 31  1  0  0  0  0
 32 30  2  0  0  0  0
 33 26  2  0  0  0  0
 33 32  1  0  0  0  0
 34 37  1  0  0  0  0
 34 35  2  0  0  0  0
 35 26  1  0  0  0  0
 39 36  1  0  0  0  0
M  END
>  <minimizedAffinity>
-5.82557535

>  <minimizedRMSD>
2.06408167

$$$$
