
 OpenBabel03272504393D

 47 49  0  0  0  0  0  0  0  0999 V2000
   34.9030   29.4460   48.9010 C   0  0  0  0  0  0  0  0  0  0  0  0
   35.8060   29.5160   49.5430 H   0  0  0  0  0  0  0  0  0  0  0  0
   34.2360   30.2680   49.3010 H   0  0  0  0  0  0  0  0  0  0  0  0
   37.6430   30.5270   48.5530 Cl  0  0  0  0  0  0  0  0  0  0  0  0
   36.4920   30.3360   47.2330 C   0  0  0  0  0  0  0  0  0  0  0  0
   36.8590   30.7020   45.9720 C   0  0  0  0  0  0  0  0  0  0  0  0
   35.9750   30.5580   44.9390 C   0  0  0  0  0  0  0  0  0  0  0  0
   34.7180   30.0410   45.1980 C   0  0  0  0  0  0  0  0  0  0  0  0
   34.3930   29.6820   46.5070 C   0  0  0  0  0  0  0  0  0  0  0  0
   35.2580   29.8170   47.5500 C   0  0  0  0  0  0  0  0  0  0  0  0
   36.3070   30.8630   43.9390 H   0  0  0  0  0  0  0  0  0  0  0  0
   34.1020   29.9720   44.3080 H   0  0  0  0  0  0  0  0  0  0  0  0
   33.4260   29.3220   46.4950 H   0  0  0  0  0  0  0  0  0  0  0  0
   39.8630   32.8480   45.9920 C   0  0  0  0  0  0  0  0  0  0  0  0
   40.7200   32.1250   45.1120 C   0  0  0  0  0  0  0  0  0  0  0  0
   40.2310   30.9390   44.5540 C   0  0  0  0  0  0  0  0  0  0  0  0
   38.9750   30.5310   44.8710 N   0  0  0  0  0  0  0  0  0  0  0  0
   38.1870   31.2460   45.7140 C   0  0  0  0  0  0  0  0  0  0  0  0
   38.6350   32.3810   46.2560 N   0  0  0  0  0  0  0  0  0  0  0  0
   40.2340   33.7720   46.4300 H   0  0  0  0  0  0  0  0  0  0  0  0
   41.7030   32.5330   44.9230 H   0  0  0  0  0  0  0  0  0  0  0  0
   41.1010   30.2430   43.6860 N   0  0  0  0  0  0  0  0  0  0  0  0
   41.9500   29.9490   44.2300 H   0  0  0  0  0  0  0  0  0  0  0  0
   40.6530   30.2160   42.7400 H   0  0  0  0  0  0  0  0  0  0  0  0
   34.2540   28.1620   49.1440 C   0  0  0  0  0  0  0  0  0  0  0  0
   34.3300   27.5420   48.2030 H   0  0  0  0  0  0  0  0  0  0  0  0
   34.7780   27.5450   49.9140 H   0  0  0  0  0  0  0  0  0  0  0  0
   32.9360   28.3120   49.4920 O   0  0  0  0  0  0  0  0  0  0  0  0
   32.6330   26.5420   47.5690 O   0  0  0  0  0  0  0  0  0  0  0  0
   31.9340   27.6450   48.3280 P   0  0  2  0  0  0  0  0  0  0  0  0
   31.4820   28.9270   47.2800 O   0  0  0  0  0  0  0  0  0  0  0  0
   31.1370   29.6290   47.8880 H   0  0  0  0  0  0  0  0  0  0  0  0
   30.5200   27.0430   48.9770 O   0  0  0  0  0  0  0  0  0  0  0  0
   28.3640   27.8850   48.9230 C   0  0  0  0  0  0  0  0  0  0  0  0
   29.3380   27.1550   48.2540 C   0  0  0  0  0  0  0  0  0  0  0  0
   29.0620   26.6380   47.0060 C   0  0  0  0  0  0  0  0  0  0  0  0
   29.8540   26.0920   46.5540 H   0  0  0  0  0  0  0  0  0  0  0  0
   27.8280   26.8410   46.4220 C   0  0  0  0  0  0  0  0  0  0  0  0
   27.6250   26.4300   45.4450 H   0  0  0  0  0  0  0  0  0  0  0  0
   26.8360   27.5660   47.0700 C   0  0  0  0  0  0  0  0  0  0  0  0
   27.1370   28.0720   48.3150 C   0  0  0  0  0  0  0  0  0  0  0  0
   28.6360   29.7420   50.3640 N   0  0  0  0  0  0  0  0  0  0  0  0
   28.5580   28.4760   50.2510 C   0  0  0  0  0  0  0  0  0  0  0  0
   28.6430   27.5320   51.3390 N   0  0  0  0  0  0  0  0  0  0  0  0
   28.7710   30.2390   51.2490 H   0  0  0  0  0  0  0  0  0  0  0  0
   29.3440   26.8950   51.7500 H   0  0  0  0  0  0  0  0  0  0  0  0
   27.7830   27.4120   51.9150 H   0  0  0  0  0  0  0  0  0  0  0  0
  1 25  1  0  0  0  0
  1  3  1  0  0  0  0
  1  2  1  0  0  0  0
  5 10  1  0  0  0  0
  5  4  1  0  0  0  0
  6  5  2  0  0  0  0
  7  8  2  0  0  0  0
  7  6  1  0  0  0  0
  8  9  1  0  0  0  0
  9 10  2  0  0  0  0
 10  1  1  0  0  0  0
 11  7  1  0  0  0  0
 12  8  1  0  0  0  0
 13  9  1  0  0  0  0
 14 19  1  0  0  0  0
 14 20  1  0  0  0  0
 15 14  2  0  0  0  0
 16 17  2  0  0  0  0
 16 15  1  0  0  0  0
 17 18  1  0  0  0  0
 18  6  1  0  0  0  0
 18 19  2  0  0  0  0
 21 15  1  0  0  0  0
 22 23  1  0  0  0  0
 22 16  1  0  0  0  0
 24 22  1  0  0  0  0
 25 28  1  0  0  0  0
 25 27  1  0  0  0  0
 26 25  1  0  0  0  0
 30 29  2  6  0  0  0
 30 33  1  0  0  0  0
 30 28  1  0  0  0  0
 31 32  1  0  0  0  0
 31 30  1  0  0  0  0
 34 43  1  0  0  0  0
 35 34  2  0  0  0  0
 35 33  1  0  0  0  0
 36 35  1  0  0  0  0
 37 36  1  0  0  0  0
 38 36  2  0  0  0  0
 38 40  1  0  0  0  0
 39 38  1  0  0  0  0
 40 41  2  0  0  0  0
 41 34  1  0  0  0  0
 42 45  1  0  0  0  0
 43 42  2  0  0  0  0
 43 44  1  0  0  0  0
 44 46  1  0  0  0  0
 44 47  1  0  0  0  0
M  END
>  <minimizedAffinity>
-6.89767981

>  <minimizedRMSD>
1.2946744

$$$$
