
 OpenBabel03272503303D

 39 41  0  0  1  0  0  0  0  0999 V2000
   33.6410   29.2580   47.4520 C   0  0  0  0  0  0  0  0  0  0  0  0
   33.8310   30.1880   46.4260 C   0  0  0  0  0  0  0  0  0  0  0  0
   32.7490   30.3760   45.5620 C   0  0  0  0  0  0  0  0  0  0  0  0
   31.6090   29.6390   45.7980 N   0  0  0  0  0  0  0  0  0  0  0  0
   31.4740   28.7590   46.7950 C   0  0  0  0  0  0  0  0  0  0  0  0
   32.5090   28.5730   47.6280 N   0  0  0  0  0  0  0  0  0  0  0  0
   34.7400   30.7440   46.2750 H   0  0  0  0  0  0  0  0  0  0  0  0
   32.7930   31.0730   44.7340 H   0  0  0  0  0  0  0  0  0  0  0  0
   34.7610   29.0640   48.3450 N   0  0  0  0  0  0  0  0  0  0  0  0
   36.1220   29.4770   48.1350 C   0  0  0  0  0  0  0  0  0  0  0  0
   36.6290   29.6690   49.5530 C   0  0  2  0  0  0  0  0  0  0  0  0
   35.4370   29.4520   50.4620 C   0  0  0  0  0  0  0  0  0  0  0  0
   34.7140   28.4070   49.6300 C   0  0  0  0  0  0  0  0  0  0  0  0
   36.1560   30.4680   47.6140 H   0  0  0  0  0  0  0  0  0  0  0  0
   36.7120   28.7020   47.5840 H   0  0  0  0  0  0  0  0  0  0  0  0
   37.3870   28.8940   49.7400 H   0  0  0  0  0  0  0  0  0  0  0  0
   35.7080   28.9810   51.4250 H   0  0  0  0  0  0  0  0  0  0  0  0
   34.8080   30.3440   50.5780 H   0  0  0  0  0  0  0  0  0  0  0  0
   33.6610   28.3830   49.9750 H   0  0  0  0  0  0  0  0  0  0  0  0
   35.2170   27.4370   49.6650 H   0  0  0  0  0  0  0  0  0  0  0  0
   37.2610   31.0150   49.7600 C   0  0  0  0  0  0  0  0  0  0  0  0
   36.3350   31.7880   50.4420 F   0  0  0  0  0  0  0  0  0  0  0  0
   37.4110   31.5920   48.5140 F   0  0  0  0  0  0  0  0  0  0  0  0
   38.4580   30.9710   50.4020 F   0  0  0  0  0  0  0  0  0  0  0  0
   29.9710   27.8610   47.0150 S   0  0  0  0  0  0  0  0  0  0  0  0
   28.4820   28.9820   49.0690 C   0  0  0  0  0  0  0  0  0  0  0  0
   28.6700   28.8960   47.6980 C   0  0  0  0  0  0  0  0  0  0  0  0
   27.8910   29.5800   46.7890 C   0  0  0  0  0  0  0  0  0  0  0  0
   28.0170   29.5300   45.7210 H   0  0  0  0  0  0  0  0  0  0  0  0
   26.8870   30.3780   47.3360 C   0  0  0  0  0  0  0  0  0  0  0  0
   26.2420   30.9410   46.6780 H   0  0  0  0  0  0  0  0  0  0  0  0
   26.6690   30.4900   48.6890 C   0  0  0  0  0  3  0  0  0  0  0  0
   27.4770   29.7830   49.5550 C   0  0  0  0  0  3  0  0  0  0  0  0
   30.6000   28.5350   50.2330 N   0  0  0  0  0  0  0  0  0  0  0  0
   29.3910   28.1940   49.9050 C   0  0  0  0  0  0  0  0  0  0  0  0
   28.9810   26.9570   50.4260 N   0  0  0  0  0  0  0  0  0  0  0  0
   30.9710   29.4520   49.8750 H   0  0  0  0  0  0  0  0  0  0  0  0
   28.6200   26.0330   50.6830 H   0  0  0  0  0  0  0  0  0  0  0  0
   29.1960   26.5940   51.3840 H   0  0  0  0  0  0  0  0  0  0  0  0
  1  6  1  0  0  0  0
  1  9  1  0  0  0  0
  2  1  2  0  0  0  0
  3  4  2  0  0  0  0
  3  2  1  0  0  0  0
  4  5  1  0  0  0  0
  5 25  1  0  0  0  0
  5  6  2  0  0  0  0
  7  2  1  0  0  0  0
  8  3  1  0  0  0  0
  9 13  1  0  0  0  0
 10  9  1  0  0  0  0
 10 11  1  0  0  0  0
 11 16  1  1  0  0  0
 11 21  1  0  0  0  0
 11 12  1  0  0  0  0
 12 18  1  0  0  0  0
 12 17  1  0  0  0  0
 13 20  1  0  0  0  0
 13 19  1  0  0  0  0
 13 12  1  0  0  0  0
 14 10  1  0  0  0  0
 15 10  1  0  0  0  0
 21 24  1  0  0  0  0
 21 22  1  0  0  0  0
 23 21  1  0  0  0  0
 25 27  1  0  0  0  0
 26 33  1  0  0  0  0
 26 35  1  0  0  0  0
 27 26  2  0  0  0  0
 28 30  2  0  0  0  0
 28 27  1  0  0  0  0
 29 28  1  0  0  0  0
 30 32  1  0  0  0  0
 31 30  1  0  0  0  0
 32 33  2  0  0  0  0
 35 34  2  0  0  0  0
 35 36  1  0  0  0  0
 36 38  1  0  0  0  0
 36 39  1  0  0  0  0
 37 34  1  0  0  0  0
M  END
>  <minimizedAffinity>
-6.73090982

>  <minimizedRMSD>
4.31196594

$$$$
