REMARK  Name = 
REMARK  4 active torsions:
REMARK  status: ('A' for Active; 'I' for Inactive)
REMARK    1  A    between atoms: C_3  and  C_12
REMARK    2  A    between atoms: C_9  and  O_14
REMARK    3  A    between atoms: O_14  and  C_25
REMARK    4  A    between atoms: C_22  and  C_24
REMARK                            x       y       z     vdW  Elec       q    Type
REMARK                         _______ _______ _______ _____ _____    ______ ____
ROOT
ATOM      1  C   UNL     1      37.864  33.236  49.451  0.00  0.00    +0.000 A 
ATOM      2  C   UNL     1      38.907  33.274  48.477  0.00  0.00    +0.000 A 
ATOM      3  C   UNL     1      38.942  32.232  47.574  0.00  0.00    +0.000 A 
ATOM      4  N   UNL     1      38.011  31.244  47.648  0.00  0.00    +0.000 NA
ATOM      5  C   UNL     1      37.043  31.240  48.576  0.00  0.00    +0.000 A 
ATOM      6  N   UNL     1      36.954  32.248  49.504  0.00  0.00    +0.000 NA
ATOM      7  H   UNL     1      37.764  34.023  50.205  0.00  0.00    +0.000 HD
ATOM      8  H   UNL     1      39.709  32.252  46.840  0.00  0.00    +0.000 HD
ENDROOT
BRANCH   5  11
ATOM      9 BR   UNL     1      37.274  29.442  51.110  0.00  0.00    +0.000 Br
ATOM     10  C   UNL     1      36.000  29.319  49.716  0.00  0.00    +0.000 A 
ATOM     11  C   UNL     1      36.034  30.189  48.665  0.00  0.00    +0.000 A 
ATOM     12  C   UNL     1      35.061  30.036  47.675  0.00  0.00    +0.000 A 
ATOM     13  C   UNL     1      34.080  29.070  47.694  0.00  0.00    +0.000 A 
ATOM     14  C   UNL     1      34.096  28.208  48.794  0.00  0.00    +0.000 A 
ATOM     15  C   UNL     1      35.061  28.346  49.794  0.00  0.00    +0.000 A 
ATOM     16  H   UNL     1      35.078  30.726  46.831  0.00  0.00    +0.000 HD
ATOM     17  H   UNL     1      33.373  29.022  46.895  0.00  0.00    +0.000 HD
ATOM     18  H   UNL     1      33.335  27.436  48.837  0.00  0.00    +0.000 HD
ATOM     19  H   UNL     1      34.967  27.611  50.601  0.00  0.00    +0.000 HD
ENDBRANCH   5  11
BRANCH   2  20
ATOM     20  O   UNL     1      39.760  34.340  48.537  0.00  0.00    +0.000 OA
BRANCH  20  22
ATOM     21  C   UNL     1      42.175  34.427  49.292  0.00  0.00    +0.000 A 
ATOM     22  C   UNL     1      40.822  34.608  49.304  0.00  0.00    +0.000 A 
ATOM     23  C   UNL     1      40.352  35.273  50.448  0.00  0.00    +0.000 A 
ATOM     24  H   UNL     1      39.329  35.561  50.742  0.00  0.00    +0.000 HD
ATOM     25  C   UNL     1      41.227  35.694  51.458  0.00  0.00    +0.000 A 
ATOM     26  H   UNL     1      40.958  36.210  52.368  0.00  0.00    +0.000 HD
ATOM     27  C   UNL     1      42.582  35.470  51.365  0.00  0.00    +0.000 A 
ATOM     28  C   UNL     1      43.071  34.821  50.256  0.00  0.00    +0.000 A 
BRANCH  21  30
ATOM     29  N   UNL     1      43.858  34.131  47.694  0.00  0.00    +0.000 NA
ATOM     30  C   UNL     1      42.702  33.737  48.140  0.00  0.00    +0.000 C 
ATOM     31  N   UNL     1      42.627  32.766  47.153  0.00  0.00    +0.000 N 
ATOM     32  H   UNL     1      44.387  34.910  48.133  0.00  0.00    +0.000 HD
ATOM     33  H   UNL     1      42.908  31.751  47.280  0.00  0.00    +0.000 HD
ATOM     34  H   UNL     1      42.317  32.793  46.179  0.00  0.00    +0.000 HD
ENDBRANCH  21  30
ENDBRANCH  20  22
ENDBRANCH   2  20
TORSDOF 4
