REMARK  Name = 
REMARK  5 active torsions:
REMARK  status: ('A' for Active; 'I' for Inactive)
REMARK    1  A    between atoms: N_1  and  C_6
REMARK    2  A    between atoms: C_3  and  C_13
REMARK    3  A    between atoms: C_10  and  S_12
REMARK    4  A    between atoms: S_12  and  C_30
REMARK    5  A    between atoms: C_27  and  C_29
REMARK                            x       y       z     vdW  Elec       q    Type
REMARK                         _______ _______ _______ _____ _____    ______ ____
ROOT
ATOM      1  C   UNL     1      35.281  29.544  47.926  0.00  0.00    +0.000 A 
ATOM      2  C   UNL     1      35.238  30.010  46.609  0.00  0.00    +0.000 A 
ATOM      3  C   UNL     1      34.097  29.671  45.877  0.00  0.00    +0.000 A 
ATOM      4  N   UNL     1      33.132  28.920  46.511  0.00  0.00    +0.000 NA
ATOM      5  C   UNL     1      33.218  28.496  47.776  0.00  0.00    +0.000 A 
ATOM      6  N   UNL     1      34.311  28.818  48.485  0.00  0.00    +0.000 NA
ATOM      7  H   UNL     1      36.015  30.595  46.150  0.00  0.00    +0.000 HD
ATOM      8  H   UNL     1      33.965  29.982  44.848  0.00  0.00    +0.000 HD
ENDROOT
BRANCH   1   9
ATOM      9  N   UNL     1      36.462  29.895  48.683  0.00  0.00    +0.000 N 
ATOM     10  C   UNL     1      37.590  30.660  48.228  0.00  0.00    +0.000 C 
ATOM     11  C   UNL     1      38.103  31.285  49.513  0.00  0.00    +0.000 C 
ATOM     12  C   UNL     1      37.117  30.898  50.595  0.00  0.00    +0.000 C 
ATOM     13  C   UNL     1      36.725  29.533  50.056  0.00  0.00    +0.000 C 
ATOM     14  H   UNL     1      37.258  31.484  47.546  0.00  0.00    +0.000 HD
ATOM     15  H   UNL     1      38.364  30.012  47.743  0.00  0.00    +0.000 HD
ATOM     16  H   UNL     1      39.086  30.840  49.727  0.00  0.00    +0.000 HD
ATOM     17  H   UNL     1      37.595  30.741  51.579  0.00  0.00    +0.000 HD
ATOM     18  H   UNL     1      36.237  31.553  50.640  0.00  0.00    +0.000 HD
ATOM     19  H   UNL     1      35.766  29.252  50.536  0.00  0.00    +0.000 HD
ATOM     20  H   UNL     1      37.522  28.796  50.188  0.00  0.00    +0.000 HD
BRANCH  11  21
ATOM     21  C   UNL     1      38.266  32.773  49.402  0.00  0.00    +0.000 C 
ATOM     22  F   UNL     1      37.101  33.338  49.896  0.00  0.00    +0.000 F 
ATOM     23  F   UNL     1      38.310  33.081  48.056  0.00  0.00    +0.000 F 
ATOM     24  F   UNL     1      39.371  33.257  50.029  0.00  0.00    +0.000 F 
ENDBRANCH  11  21
ENDBRANCH   1   9
BRANCH   5  25
ATOM     25  S   UNL     1      31.927  27.537  48.501  0.00  0.00    +0.000 S 
BRANCH  25  27
ATOM     26  C   UNL     1      31.424  25.080  47.317  0.00  0.00    +0.000 A 
ATOM     27  C   UNL     1      32.181  25.776  48.248  0.00  0.00    +0.000 A 
ATOM     28  C   UNL     1      33.153  25.180  49.022  0.00  0.00    +0.000 A 
ATOM     29  H   UNL     1      33.753  25.698  49.750  0.00  0.00    +0.000 HD
ATOM     30  C   UNL     1      33.337  23.814  48.812  0.00  0.00    +0.000 A 
ATOM     31  H   UNL     1      34.084  23.286  49.386  0.00  0.00    +0.000 HD
ATOM     32  C   UNL     1      32.608  23.088  47.899  0.00  0.00    +0.000 A 
ATOM     33  C   UNL     1      31.646  23.734  47.150  0.00  0.00    +0.000 A 
BRANCH  26  35
ATOM     34  N   UNL     1      30.029  25.603  45.362  0.00  0.00    +0.000 NA
ATOM     35  C   UNL     1      30.429  25.854  46.572  0.00  0.00    +0.000 C 
ATOM     36  N   UNL     1      29.818  26.974  47.158  0.00  0.00    +0.000 N 
ATOM     37  H   UNL     1      30.448  24.776  44.863  0.00  0.00    +0.000 HD
ATOM     38  H   UNL     1      29.498  27.820  47.639  0.00  0.00    +0.000 HD
ATOM     39  H   UNL     1      28.811  27.243  47.062  0.00  0.00    +0.000 HD
ENDBRANCH  26  35
ENDBRANCH  25  27
ENDBRANCH   5  25
TORSDOF 5
