
     RDKit          3D

 36 38  0  0  0  0  0  0  0  0999 V2000
   36.9751   31.4196   48.5842 N   0  0  0  0  0  0  0  0  0  0  0  0
   37.1633   32.1620   49.6692 C   0  0  0  0  0  0  0  0  0  0  0  0
   38.1540   33.1429   49.6782 C   0  0  0  0  0  0  0  0  0  0  0  0
   38.8764   33.2552   48.5098 C   0  0  0  0  0  0  0  0  0  0  0  0
   39.7786   34.1411   48.5027 O   0  0  0  0  0  0  0  0  0  0  0  0
   38.7153   32.5285   47.4034 N   0  0  0  0  0  0  0  0  0  0  0  0
   37.7351   31.5894   47.4560 C   0  0  0  0  0  0  0  0  0  0  0  0
   37.5765   30.8872   46.3936 O   0  0  0  0  0  0  0  0  0  0  0  0
   36.1593   29.2544   49.3182 C   0  0  0  0  0  0  0  0  0  0  0  0
   35.9875   30.4052   48.5032 C   0  0  0  0  0  0  0  0  0  0  0  0
   34.8717   30.4537   47.6773 C   0  0  0  0  0  0  0  0  0  0  0  0
   34.0025   29.3992   47.6898 N   0  0  0  0  0  0  0  0  0  0  0  0
   34.1768   28.3314   48.4552 C   0  0  0  0  0  0  0  0  0  0  0  0
   35.2694   28.2457   49.2884 N   0  0  0  0  0  0  0  0  0  0  0  0
   33.3126   27.2575   48.4778 O   0  0  0  0  0  0  0  0  0  0  0  0
   36.5318   31.9706   50.5089 H   0  0  0  0  0  0  0  0  0  0  0  0
   38.3107   33.7439   50.5486 H   0  0  0  0  0  0  0  0  0  0  0  0
   39.2974   32.6734   46.5680 H   0  0  0  0  0  0  0  0  0  0  0  0
   37.0355   29.2272   49.9612 H   0  0  0  0  0  0  0  0  0  0  0  0
   34.7494   31.3262   47.0662 H   0  0  0  0  0  0  0  0  0  0  0  0
   32.9229   24.8960   45.0755 N   0  0  0  0  0  0  0  0  0  0  0  0
   33.1653   25.9317   45.8468 C   0  0  0  0  0  0  0  0  0  0  0  0
   34.5503   25.7685   45.6468 N   0  0  0  0  0  0  0  0  0  0  0  0
   32.0574   26.6280   46.4365 C   0  0  0  0  0  0  0  0  0  0  0  0
   32.2186   27.2045   47.6744 C   0  0  0  0  0  0  0  0  0  0  0  0
   31.0968   27.8406   48.2136 C   0  0  0  0  0  0  0  0  0  0  0  0
   31.0719   28.3429   49.1893 H   0  0  0  0  0  0  0  0  0  0  0  0
   29.9250   27.8532   47.4901 C   0  0  0  0  0  0  0  0  0  0  0  0
   29.0463   28.3352   47.8795 H   0  0  0  0  0  0  0  0  0  0  0  0
   29.8067   27.2681   46.2597 C   0  0  0  0  0  0  0  0  0  0  0  0
   30.8832   26.6452   45.7192 C   0  0  0  0  0  0  0  0  0  0  0  0
   31.9842   24.5479   44.8637 H   0  0  0  0  0  0  0  0  0  0  0  0
   35.1914   25.1740   46.2534 H   0  0  0  0  0  0  0  0  0  0  0  0
   35.1147   26.2239   44.8679 H   0  0  0  0  0  0  0  0  0  0  0  0
   28.8638   27.3007   45.7207 H   0  0  0  0  0  0  0  0  0  0  0  0
   30.7913   26.1840   44.7474 H   0  0  0  0  0  0  0  0  0  0  0  0
  1  2  1  0
  2  3  2  0
  4  5  2  0
  4  3  1  0
  6  7  1  0
  6  4  1  0
  7  1  1  0
  8  7  2  0
 10  1  1  0
 10  9  2  0
 11 12  2  0
 11 10  1  0
 12 13  1  0
 13 15  1  0
 13 14  2  0
 14  9  1  0
  2 16  1  0
  3 17  1  0
  6 18  1  0
  9 19  1  0
 11 20  1  0
 21 22  2  3
 22 23  1  0
 22 24  1  0
 24 25  2  0
 25 26  1  0
 26 27  1  0
 26 28  2  0
 28 29  1  0
 28 30  1  0
 30 31  2  0
 31 24  1  0
 21 32  1  0
 23 33  1  0
 23 34  1  0
 30 35  1  0
 31 36  1  0
 15 25  1  0
M  ISO  7  16  14  17  14  18   9  19  14  20  14  27  15  29  16
M  END
>  <DihAtoms>  (1) 
12,14,24,23

>  <DihDeg>  (1) 
64.15965552606403

$$$$
