REMARK  Name = 
REMARK  6 active torsions:
REMARK  status: ('A' for Active; 'I' for Inactive)
REMARK    1  A    between atoms: C_1  and  C_4
REMARK    2  A    between atoms: C_2  and  C_11
REMARK    3  A    between atoms: C_10  and  O_15
REMARK    4  A    between atoms: C_14  and  O_16
REMARK    5  A    between atoms: O_16  and  C_34
REMARK    6  A    between atoms: C_31  and  C_33
REMARK                            x       y       z     vdW  Elec       q    Type
REMARK                         _______ _______ _______ _____ _____    ______ ____
ROOT
ATOM      1  C   UNL     1      33.964  29.083  47.379  0.00  0.00    +0.000 C 
ATOM      2  C   UNL     1      34.746  28.276  48.409  0.00  0.00    +0.000 C 
ATOM      3  O   UNL     1      33.870  28.065  49.440  0.00  0.00    +0.000 OA
ATOM      4  C   UNL     1      32.575  28.144  49.005  0.00  0.00    +0.000 C 
ATOM      5  C   UNL     1      32.605  28.386  47.506  0.00  0.00    +0.000 C 
ATOM      6  H   UNL     1      33.836  30.129  47.675  0.00  0.00    +0.000 HD
ATOM      7  H   UNL     1      35.026  27.331  47.904  0.00  0.00    +0.000 HD
ATOM      8  H   UNL     1      32.053  27.168  49.127  0.00  0.00    +0.000 HD
ATOM      9  H   UNL     1      32.079  28.991  49.489  0.00  0.00    +0.000 HD
ATOM     10  H   UNL     1      32.726  27.442  46.947  0.00  0.00    +0.000 HD
ENDROOT
BRANCH   2  12
ATOM     11  C   UNL     1      35.815  30.541  49.068  0.00  0.00    +0.000 C 
ATOM     12  C   UNL     1      35.908  29.119  48.836  0.00  0.00    +0.000 C 
ATOM     13  C   UNL     1      36.068  29.588  50.245  0.00  0.00    +0.000 C 
ATOM     14  H   UNL     1      34.919  31.147  49.270  0.00  0.00    +0.000 HD
ATOM     15  H   UNL     1      36.859  28.776  48.331  0.00  0.00    +0.000 HD
ATOM     16  H   UNL     1      37.072  29.550  50.700  0.00  0.00    +0.000 HD
ATOM     17  H   UNL     1      35.266  29.403  50.973  0.00  0.00    +0.000 HD
BRANCH  11  18
ATOM     18  C   UNL     1      37.010  31.448  48.818  0.00  0.00    +0.000 A 
ATOM     19  C   UNL     1      37.177  32.535  49.700  0.00  0.00    +0.000 A 
ATOM     20  C   UNL     1      38.268  33.348  49.409  0.00  0.00    +0.000 A 
ATOM     21  N   UNL     1      39.089  33.085  48.346  0.00  0.00    +0.000 NA
ATOM     22  C   UNL     1      38.877  32.033  47.541  0.00  0.00    +0.000 A 
ATOM     23  N   UNL     1      37.831  31.192  47.762  0.00  0.00    +0.000 NA
ATOM     24  H   UNL     1      36.502  32.684  50.510  0.00  0.00    +0.000 HD
ATOM     25  H   UNL     1      38.386  34.178  50.092  0.00  0.00    +0.000 HD
ATOM     26  H   UNL     1      39.560  31.875  46.717  0.00  0.00    +0.000 HD
ENDBRANCH  11  18
ENDBRANCH   2  12
BRANCH   1  27
ATOM     27  O   UNL     1      34.460  28.965  46.097  0.00  0.00    +0.000 OA
ATOM     28  H   UNL     1      35.069  28.195  45.990  0.00  0.00    +0.000 HD
ENDBRANCH   1  27
BRANCH   5  29
ATOM     29  O   UNL     1      31.584  29.165  47.062  0.00  0.00    +0.000 OA
BRANCH  29  31
ATOM     30  C   UNL     1      31.155  29.547  44.886  0.00  0.00    +0.000 A 
ATOM     31  C   UNL     1      30.784  28.787  46.004  0.00  0.00    +0.000 A 
ATOM     32  C   UNL     1      29.765  27.875  45.836  0.00  0.00    +0.000 A 
ATOM     33  H   UNL     1      29.567  27.351  46.758  0.00  0.00    +0.000 HD
ATOM     34  C   UNL     1      29.144  27.724  44.619  0.00  0.00    +0.000 A 
ATOM     35  H   UNL     1      28.358  26.983  44.596  0.00  0.00    +0.000 HD
ATOM     36  C   UNL     1      29.494  28.462  43.509  0.00  0.00    +0.000 A 
ATOM     37  C   UNL     1      30.512  29.382  43.652  0.00  0.00    +0.000 A 
BRANCH  30  39
ATOM     38  N   UNL     1      32.929  30.909  43.771  0.00  0.00    +0.000 NA
ATOM     39  C   UNL     1      32.207  30.580  44.807  0.00  0.00    +0.000 C 
ATOM     40  N   UNL     1      32.617  31.408  45.879  0.00  0.00    +0.000 N 
ATOM     41  H   UNL     1      32.760  30.387  42.864  0.00  0.00    +0.000 HD
ATOM     42  H   UNL     1      33.389  31.108  46.535  0.00  0.00    +0.000 HD
ATOM     43  H   UNL     1      32.344  32.335  46.249  0.00  0.00    +0.000 HD
ENDBRANCH  30  39
ENDBRANCH  29  31
ENDBRANCH   5  29
TORSDOF 6
