
     RDKit          3D

 36 38  0  0  0  0  0  0  0  0999 V2000
   36.9751   31.4196   48.5842 N   0  0  0  0  0  0  0  0  0  0  0  0
   37.1633   32.1620   49.6692 C   0  0  0  0  0  0  0  0  0  0  0  0
   38.1540   33.1429   49.6782 C   0  0  0  0  0  0  0  0  0  0  0  0
   38.8764   33.2552   48.5098 C   0  0  0  0  0  0  0  0  0  0  0  0
   39.7786   34.1411   48.5027 O   0  0  0  0  0  0  0  0  0  0  0  0
   38.7153   32.5285   47.4034 N   0  0  0  0  0  0  0  0  0  0  0  0
   37.7351   31.5894   47.4560 C   0  0  0  0  0  0  0  0  0  0  0  0
   37.5765   30.8872   46.3936 O   0  0  0  0  0  0  0  0  0  0  0  0
   36.1593   29.2544   49.3182 C   0  0  0  0  0  0  0  0  0  0  0  0
   35.9875   30.4052   48.5032 C   0  0  0  0  0  0  0  0  0  0  0  0
   34.8717   30.4537   47.6773 C   0  0  0  0  0  0  0  0  0  0  0  0
   34.0025   29.3992   47.6898 N   0  0  0  0  0  0  0  0  0  0  0  0
   34.1768   28.3314   48.4552 C   0  0  0  0  0  0  0  0  0  0  0  0
   35.2694   28.2457   49.2884 N   0  0  0  0  0  0  0  0  0  0  0  0
   33.3126   27.2575   48.4778 O   0  0  0  0  0  0  0  0  0  0  0  0
   36.5318   31.9706   50.5089 H   0  0  0  0  0  0  0  0  0  0  0  0
   38.3107   33.7439   50.5486 H   0  0  0  0  0  0  0  0  0  0  0  0
   39.2974   32.6734   46.5680 H   0  0  0  0  0  0  0  0  0  0  0  0
   37.0355   29.2272   49.9612 H   0  0  0  0  0  0  0  0  0  0  0  0
   34.7494   31.3262   47.0662 H   0  0  0  0  0  0  0  0  0  0  0  0
   30.1009   24.6534   48.9342 N   0  0  0  0  0  0  0  0  0  0  0  0
   31.2407   25.1583   48.5187 C   0  0  0  0  0  0  0  0  0  0  0  0
   31.9499   24.2166   49.2902 N   0  0  0  0  0  0  0  0  0  0  0  0
   31.2136   26.2684   47.6093 C   0  0  0  0  0  0  0  0  0  0  0  0
   32.2186   27.2045   47.6744 C   0  0  0  0  0  0  0  0  0  0  0  0
   32.1230   28.2805   46.7872 C   0  0  0  0  0  0  0  0  0  0  0  0
   32.8464   29.1035   46.7228 H   0  0  0  0  0  0  0  0  0  0  0  0
   31.0543   28.3373   45.9204 C   0  0  0  0  0  0  0  0  0  0  0  0
   30.9548   29.1527   45.2267 H   0  0  0  0  0  0  0  0  0  0  0  0
   30.0750   27.3833   45.8868 C   0  0  0  0  0  0  0  0  0  0  0  0
   30.1489   26.3317   46.7398 C   0  0  0  0  0  0  0  0  0  0  0  0
   29.1826   25.0031   48.6487 H   0  0  0  0  0  0  0  0  0  0  0  0
   32.2607   24.3593   50.2979 H   0  0  0  0  0  0  0  0  0  0  0  0
   32.2590   23.2560   48.9524 H   0  0  0  0  0  0  0  0  0  0  0  0
   29.2480   27.4649   45.1868 H   0  0  0  0  0  0  0  0  0  0  0  0
   29.3770   25.5773   46.7133 H   0  0  0  0  0  0  0  0  0  0  0  0
  1  2  1  0
  2  3  2  0
  4  5  2  0
  4  3  1  0
  6  7  1  0
  6  4  1  0
  7  1  1  0
  8  7  2  0
 10  1  1  0
 10  9  2  0
 11 12  2  0
 11 10  1  0
 12 13  1  0
 13 15  1  0
 13 14  2  0
 14  9  1  0
  2 16  1  0
  3 17  1  0
  6 18  1  0
  9 19  1  0
 11 20  1  0
 21 22  2  3
 22 23  1  0
 22 24  1  0
 24 25  2  0
 25 26  1  0
 26 27  1  0
 26 28  2  0
 28 29  1  0
 28 30  1  0
 30 31  2  0
 31 24  1  0
 21 32  1  0
 23 33  1  0
 23 34  1  0
 30 35  1  0
 31 36  1  0
 15 25  1  0
M  ISO  7  16  14  17  14  18   9  19  14  20  14  27  15  29  16
M  END
>  <DihAtoms>  (1) 
12,14,24,23

>  <DihDeg>  (1) 
64.15965552606403

$$$$
