
     RDKit          3D

 38 40  0  0  0  0  0  0  0  0999 V2000
   37.9809   30.5020   47.1703 C   0  0  0  0  0  0  0  0  0  0  0  0
   38.9764   31.2423   46.4454 C   0  0  0  0  0  0  0  0  0  0  0  0
   39.2519   32.5495   46.7406 C   0  0  0  0  0  0  0  0  0  0  0  0
   40.2282   33.2649   46.0115 C   0  0  0  0  0  0  0  0  0  0  0  0
   40.8621   32.5514   45.0051 N   0  0  0  0  0  0  0  0  0  0  0  0
   40.5539   31.2596   44.7534 C   0  0  0  0  0  0  0  0  0  0  0  0
   39.6101   30.6064   45.4751 N   0  0  0  0  0  0  0  0  0  0  0  0
   37.1351   31.2192   48.1522 C   0  0  0  0  0  0  0  0  0  0  0  0
   37.2584   30.6969   49.5326 C   0  0  0  0  0  0  0  0  0  0  0  0
   36.3247   29.8130   50.0458 C   0  0  0  0  0  0  0  0  0  0  0  0
   36.6950   29.5000   51.3278 C   0  0  0  0  0  0  0  0  0  0  0  0
   37.8262   30.1828   51.5744 N   0  0  0  0  0  0  0  0  0  0  0  0
   38.1271   30.8719   50.5047 N   0  0  0  0  0  0  0  0  0  0  0  0
   38.5273   29.6991   47.7555 H   0  0  0  0  0  0  0  0  0  0  0  0
   37.3795   29.8798   46.4389 H   0  0  0  0  0  0  0  0  0  0  0  0
   38.8290   33.1920   47.4926 H   0  0  0  0  0  0  0  0  0  0  0  0
   40.5182   34.2897   46.1626 H   0  0  0  0  0  0  0  0  0  0  0  0
   41.1048   30.7690   43.9380 H   0  0  0  0  0  0  0  0  0  0  0  0
   36.0688   31.1102   47.7783 H   0  0  0  0  0  0  0  0  0  0  0  0
   37.2429   32.3105   48.2186 H   0  0  0  0  0  0  0  0  0  0  0  0
   35.4257   29.3964   49.5676 H   0  0  0  0  0  0  0  0  0  0  0  0
   36.1967   28.8483   52.0054 H   0  0  0  0  0  0  0  0  0  0  0  0
   39.4443   32.1674   51.2196 N   0  0  0  0  0  0  0  0  0  0  0  0
   40.2719   31.6238   52.0577 C   0  0  0  0  0  0  0  0  0  0  0  0
   41.7102   31.7041   52.1395 N   0  0  0  0  0  0  0  0  0  0  0  0
   39.7028   30.7864   53.1059 C   0  0  0  0  0  0  0  0  0  0  0  0
   38.5215   30.1087   52.8303 C   0  0  0  0  0  0  0  0  0  0  0  0
   37.9873   29.3169   53.8276 C   0  0  0  0  0  0  0  0  0  0  0  0
   37.0591   28.7606   53.6661 H   0  0  0  0  0  0  0  0  0  0  0  0
   38.5313   29.1406   55.0839 C   0  0  0  0  0  0  0  0  0  0  0  0
   38.0703   28.5074   55.8286 H   0  0  0  0  0  0  0  0  0  0  0  0
   39.7159   29.8284   55.3414 C   0  0  0  0  0  0  0  0  0  0  0  0
   40.2626   30.6236   54.3557 C   0  0  0  0  0  0  0  0  0  0  0  0
   39.7454   32.7800   50.4377 H   0  0  0  0  0  0  0  0  0  0  0  0
   42.1797   30.7742   51.9430 H   0  0  0  0  0  0  0  0  0  0  0  0
   42.1894   32.6028   52.3703 H   0  0  0  0  0  0  0  0  0  0  0  0
   40.2091   29.7477   56.2975 H   0  0  0  0  0  0  0  0  0  0  0  0
   41.1904   31.1949   54.4821 H   0  0  0  0  0  0  0  0  0  0  0  0
  1  8  1  0
  2  3  2  0
  2  1  1  0
  4  3  1  0
  5  4  2  0
  6  5  1  0
  6  7  2  0
  7  2  1  0
  8  9  1  0
  9 10  1  0
  9 13  2  0
 10 11  2  0
 11 12  1  0
 13 12  1  0
  1 14  1  0
  1 15  1  0
  3 16  1  0
  4 17  1  0
  6 18  1  0
  8 19  1  0
  8 20  1  0
 10 21  1  0
 11 22  1  0
 23 24  2  3
 24 25  1  0
 24 26  1  0
 26 27  2  0
 27 28  1  0
 28 29  1  0
 28 30  2  0
 30 31  1  0
 30 32  1  0
 32 33  2  0
 33 26  1  0
 23 34  1  0
 25 35  1  0
 25 36  1  0
 32 37  1  0
 33 38  1  0
 12 27  1  0
M  ISO  8  14   8  15   8  16  14  17  14  18  14  19   8  20   8  21  14
M  ISO  3  22  14  29  15  31  16
M  END
>  <DihAtoms>  (1) 
10,11,26,25

>  <DihDeg>  (1) 
-121.04107897866005

$$$$
