
 OpenBabel03272504403D

 47 49  0  0  0  0  0  0  0  0999 V2000
   38.7340   25.7710   31.9410 C   0  0  0  0  0  0  0  0  0  0  0  0
   39.3690   25.0860   32.5410 H   0  0  0  0  0  0  0  0  0  0  0  0
   39.2740   25.8220   30.9480 H   0  0  0  0  0  0  0  0  0  0  0  0
   38.6250   22.8660   32.5280 Cl  0  0  0  0  0  0  0  0  0  0  0  0
   37.2580   23.7920   31.9130 C   0  0  0  0  0  0  0  0  0  0  0  0
   36.0730   23.1580   31.6840 C   0  0  0  0  0  0  0  0  0  0  0  0
   35.0050   23.8660   31.2080 C   0  0  0  0  0  0  0  0  0  0  0  0
   35.1500   25.2200   30.9660 C   0  0  0  0  0  0  0  0  0  0  0  0
   36.3850   25.8200   31.2180 C   0  0  0  0  0  0  0  0  0  0  0  0
   37.4610   25.1340   31.6920 C   0  0  0  0  0  0  0  0  0  0  0  0
   34.0680   23.3200   31.0370 H   0  0  0  0  0  0  0  0  0  0  0  0
   34.2420   25.6790   30.5910 H   0  0  0  0  0  0  0  0  0  0  0  0
   36.2940   26.8200   30.9790 H   0  0  0  0  0  0  0  0  0  0  0  0
   35.5000   19.9050   33.3340 C   0  0  0  0  0  0  0  0  0  0  0  0
   35.7180   19.0080   32.2490 C   0  0  0  0  0  0  0  0  0  0  0  0
   36.0490   19.5550   31.0050 C   0  0  0  0  0  0  0  0  0  0  0  0
   36.1490   20.9050   30.8870 N   0  0  0  0  0  0  0  0  0  0  0  0
   35.9340   21.7300   31.9430 C   0  0  0  0  0  0  0  0  0  0  0  0
   35.6180   21.2260   33.1380 N   0  0  0  0  0  0  0  0  0  0  0  0
   35.2420   19.4880   34.3050 H   0  0  0  0  0  0  0  0  0  0  0  0
   35.6140   17.9490   32.4460 H   0  0  0  0  0  0  0  0  0  0  0  0
   36.2590   18.6430   29.9480 N   0  0  0  0  0  0  0  0  0  0  0  0
   35.3640   18.1200   29.7760 H   0  0  0  0  0  0  0  0  0  0  0  0
   37.2520   18.7450   29.6310 H   0  0  0  0  0  0  0  0  0  0  0  0
   38.7660   27.0950   32.5550 C   0  0  0  0  0  0  0  0  0  0  0  0
   39.3290   27.7920   31.8660 H   0  0  0  0  0  0  0  0  0  0  0  0
   37.7560   27.5630   32.6410 H   0  0  0  0  0  0  0  0  0  0  0  0
   39.3720   27.0750   33.7840 O   0  0  0  0  0  0  0  0  0  0  0  0
   36.8800   27.2320   34.6120 O   0  0  0  0  0  0  0  0  0  0  0  0
   38.2580   26.7470   34.9910 P   0  0  2  0  0  0  0  0  0  0  0  0
   38.8250   27.5340   36.4070 O   0  0  0  0  0  0  0  0  0  0  0  0
   39.7620   27.2260   36.5000 H   0  0  0  0  0  0  0  0  0  0  0  0
   38.1780   25.1200   35.3550 O   0  0  0  0  0  0  0  0  0  0  0  0
   39.2040   23.6100   36.7780 C   0  0  0  0  0  0  0  0  0  0  0  0
   39.3460   24.4360   35.6710 C   0  0  0  0  0  0  0  0  0  0  0  0
   40.5620   24.5010   35.0220 C   0  0  0  0  0  0  0  0  0  0  0  0
   40.5960   25.1530   34.1830 H   0  0  0  0  0  0  0  0  0  0  0  0
   41.6320   23.7510   35.4670 C   0  0  0  0  0  0  0  0  0  0  0  0
   42.5780   23.8110   34.9500 H   0  0  0  0  0  0  0  0  0  0  0  0
   41.5180   22.9180   36.5720 C   0  0  0  0  0  3  0  0  0  0  0  0
   40.2940   22.8710   37.2020 C   0  0  0  0  0  3  0  0  0  0  0  0
   37.7480   24.2290   38.5370 N   0  0  0  0  0  0  0  0  0  0  0  0
   37.9570   23.4710   37.5350 C   0  0  0  0  0  0  0  0  0  0  0  0
   37.0540   22.4530   37.0550 N   0  0  0  0  0  0  0  0  0  0  0  0
   36.9080   24.2010   39.1220 H   0  0  0  0  0  0  0  0  0  0  0  0
   36.9560   21.4270   37.1070 H   0  0  0  0  0  0  0  0  0  0  0  0
   36.2480   22.7840   36.4830 H   0  0  0  0  0  0  0  0  0  0  0  0
  1  2  1  0  0  0  0
  1 25  1  0  0  0  0
  3  1  1  0  0  0  0
  5  4  1  0  0  0  0
  6  5  2  0  0  0  0
  6 18  1  0  0  0  0
  7  6  1  0  0  0  0
  8  7  2  0  0  0  0
  8  9  1  0  0  0  0
  9 10  2  0  0  0  0
 10  5  1  0  0  0  0
 10  1  1  0  0  0  0
 11  7  1  0  0  0  0
 12  8  1  0  0  0  0
 13  9  1  0  0  0  0
 14 20  1  0  0  0  0
 15 21  1  0  0  0  0
 15 14  2  0  0  0  0
 16 15  1  0  0  0  0
 17 16  2  0  0  0  0
 17 18  1  0  0  0  0
 18 19  2  0  0  0  0
 19 14  1  0  0  0  0
 22 16  1  0  0  0  0
 23 22  1  0  0  0  0
 24 22  1  0  0  0  0
 25 27  1  0  0  0  0
 25 28  1  0  0  0  0
 26 25  1  0  0  0  0
 28 30  1  0  0  0  0
 30 29  2  6  0  0  0
 30 33  1  0  0  0  0
 30 31  1  0  0  0  0
 31 32  1  0  0  0  0
 33 35  1  0  0  0  0
 34 41  1  0  0  0  0
 34 43  1  0  0  0  0
 35 34  2  0  0  0  0
 36 38  2  0  0  0  0
 36 35  1  0  0  0  0
 37 36  1  0  0  0  0
 38 40  1  0  0  0  0
 39 38  1  0  0  0  0
 40 41  2  0  0  0  0
 42 45  1  0  0  0  0
 43 42  2  0  0  0  0
 44 46  1  0  0  0  0
 44 43  1  0  0  0  0
 47 44  1  0  0  0  0
M  END
>  <minimizedAffinity>
-6.70462132

$$$$

 OpenBabel03272504403D

 47 49  0  0  0  0  0  0  0  0999 V2000
   37.2260   28.0160   33.5000 C   0  0  0  0  0  0  0  0  0  0  0  0
   38.1070   28.4850   33.9850 H   0  0  0  0  0  0  0  0  0  0  0  0
   37.2910   28.3830   32.4310 H   0  0  0  0  0  0  0  0  0  0  0  0
   38.9300   26.9010   35.6560 Cl  0  0  0  0  0  0  0  0  0  0  0  0
   38.1860   25.9240   34.3930 C   0  0  0  0  0  0  0  0  0  0  0  0
   38.3940   24.5770   34.3850 C   0  0  0  0  0  0  0  0  0  0  0  0
   37.8210   23.8070   33.4110 C   0  0  0  0  0  0  0  0  0  0  0  0
   37.0380   24.4160   32.4470 C   0  0  0  0  0  0  0  0  0  0  0  0
   36.8570   25.7990   32.5010 C   0  0  0  0  0  0  0  0  0  0  0  0
   37.4180   26.5840   33.4620 C   0  0  0  0  0  0  0  0  0  0  0  0
   38.0110   22.7260   33.4380 H   0  0  0  0  0  0  0  0  0  0  0  0
   36.6360   23.7130   31.7260 H   0  0  0  0  0  0  0  0  0  0  0  0
   36.2510   26.0600   31.7080 H   0  0  0  0  0  0  0  0  0  0  0  0
   41.2440   23.0920   36.2020 C   0  0  0  0  0  0  0  0  0  0  0  0
   40.6290   22.7540   37.4420 C   0  0  0  0  0  0  0  0  0  0  0  0
   39.2720   23.0490   37.6000 C   0  0  0  0  0  0  0  0  0  0  0  0
   38.6040   23.6390   36.5750 N   0  0  0  0  0  0  0  0  0  0  0  0
   39.2220   23.9470   35.4060 C   0  0  0  0  0  0  0  0  0  0  0  0
   40.5170   23.6720   35.2370 N   0  0  0  0  0  0  0  0  0  0  0  0
   42.3000   22.8650   36.0700 H   0  0  0  0  0  0  0  0  0  0  0  0
   41.2480   22.2860   38.1970 H   0  0  0  0  0  0  0  0  0  0  0  0
   38.6880   22.7040   38.8390 N   0  0  0  0  0  0  0  0  0  0  0  0
   39.1680   23.2510   39.5970 H   0  0  0  0  0  0  0  0  0  0  0  0
   37.9400   21.9960   38.6520 H   0  0  0  0  0  0  0  0  0  0  0  0
   36.0140   28.5610   34.1030 C   0  0  0  0  0  0  0  0  0  0  0  0
   35.2750   27.7170   34.2390 H   0  0  0  0  0  0  0  0  0  0  0  0
   36.1740   28.9450   35.1400 H   0  0  0  0  0  0  0  0  0  0  0  0
   35.4530   29.5440   33.3290 O   0  0  0  0  0  0  0  0  0  0  0  0
   36.0440   32.1070   33.3410 O   0  0  0  0  0  0  0  0  0  0  0  0
   35.4150   31.0010   34.1530 P   0  0  2  0  0  0  0  0  0  0  0  0
   36.2630   30.7530   35.6250 O   0  0  0  0  0  0  0  0  0  0  0  0
   35.8390   29.9490   36.0190 H   0  0  0  0  0  0  0  0  0  0  0  0
   33.8640   31.4530   34.5720 O   0  0  0  0  0  0  0  0  0  0  0  0
   32.9020   31.0300   36.6350 C   0  0  0  0  0  0  0  0  0  0  0  0
   33.0860   30.5870   35.3310 C   0  0  0  0  0  0  0  0  0  0  0  0
   32.5150   29.3970   34.9310 C   0  0  0  0  0  0  0  0  0  0  0  0
   32.6970   29.1220   33.9210 H   0  0  0  0  0  0  0  0  0  0  0  0
   31.7640   28.6490   35.8160 C   0  0  0  0  0  0  0  0  0  0  0  0
   31.3230   27.7200   35.4900 H   0  0  0  0  0  0  0  0  0  0  0  0
   31.5650   29.0680   37.1250 C   0  0  0  0  0  3  0  0  0  0  0  0
   32.1460   30.2600   37.5000 C   0  0  0  0  0  3  0  0  0  0  0  0
   34.6500   32.2780   37.6280 N   0  0  0  0  0  0  0  0  0  0  0  0
   33.4660   32.2780   37.1580 C   0  0  0  0  0  0  0  0  0  0  0  0
   32.5960   33.4260   37.0840 N   0  0  0  0  0  0  0  0  0  0  0  0
   35.1220   33.1010   38.0140 H   0  0  0  0  0  0  0  0  0  0  0  0
   31.7930   33.8160   37.6030 H   0  0  0  0  0  0  0  0  0  0  0  0
   32.7770   34.0940   36.3040 H   0  0  0  0  0  0  0  0  0  0  0  0
  1  2  1  0  0  0  0
  1 25  1  0  0  0  0
  3  1  1  0  0  0  0
  5  4  1  0  0  0  0
  6  5  1  0  0  0  0
  6 18  1  0  0  0  0
  7 11  1  0  0  0  0
  7  6  2  0  0  0  0
  8  9  2  0  0  0  0
  8  7  1  0  0  0  0
  9 10  1  0  0  0  0
 10  1  1  0  0  0  0
 10  5  2  0  0  0  0
 12  8  1  0  0  0  0
 13  9  1  0  0  0  0
 14 15  1  0  0  0  0
 15 16  2  0  0  0  0
 15 21  1  0  0  0  0
 16 22  1  0  0  0  0
 17 16  1  0  0  0  0
 18 17  2  0  0  0  0
 19 18  1  0  0  0  0
 19 14  2  0  0  0  0
 20 14  1  0  0  0  0
 22 23  1  0  0  0  0
 24 22  1  0  0  0  0
 25 26  1  0  0  0  0
 25 27  1  0  0  0  0
 28 25  1  0  0  0  0
 28 30  1  0  0  0  0
 30 29  2  6  0  0  0
 30 33  1  0  0  0  0
 30 31  1  0  0  0  0
 31 32  1  0  0  0  0
 33 35  1  0  0  0  0
 34 43  1  0  0  0  0
 34 41  1  0  0  0  0
 35 34  2  0  0  0  0
 36 35  1  0  0  0  0
 36 38  2  0  0  0  0
 37 36  1  0  0  0  0
 38 40  1  0  0  0  0
 39 38  1  0  0  0  0
 40 41  2  0  0  0  0
 42 45  1  0  0  0  0
 43 42  2  0  0  0  0
 44 43  1  0  0  0  0
 44 46  1  0  0  0  0
 47 44  1  0  0  0  0
M  END
>  <minimizedAffinity>
-6.44178152

$$$$

 OpenBabel03272504403D

 47 49  0  0  0  0  0  0  0  0999 V2000
   39.4930   26.7730   31.9080 C   0  0  0  0  0  0  0  0  0  0  0  0
   40.1860   27.2220   32.6500 H   0  0  0  0  0  0  0  0  0  0  0  0
   40.1740   26.5000   31.0480 H   0  0  0  0  0  0  0  0  0  0  0  0
   39.7190   26.4540   34.8480 Cl  0  0  0  0  0  0  0  0  0  0  0  0
   39.0130   25.2400   33.7840 C   0  0  0  0  0  0  0  0  0  0  0  0
   38.5390   24.0810   34.3200 C   0  0  0  0  0  0  0  0  0  0  0  0
   37.9870   23.1310   33.5050 C   0  0  0  0  0  0  0  0  0  0  0  0
   37.9220   23.3700   32.1440 C   0  0  0  0  0  0  0  0  0  0  0  0
   38.4220   24.5750   31.6470 C   0  0  0  0  0  0  0  0  0  0  0  0
   38.9750   25.5340   32.4410 C   0  0  0  0  0  0  0  0  0  0  0  0
   37.6170   22.2110   33.9730 H   0  0  0  0  0  0  0  0  0  0  0  0
   37.4680   22.5530   31.5950 H   0  0  0  0  0  0  0  0  0  0  0  0
   38.2840   24.5660   30.6240 H   0  0  0  0  0  0  0  0  0  0  0  0
   37.9180   24.1880   37.9580 C   0  0  0  0  0  0  0  0  0  0  0  0
   38.9010   23.2710   38.4290 C   0  0  0  0  0  0  0  0  0  0  0  0
   39.7300   22.6600   37.4830 C   0  0  0  0  0  0  0  0  0  0  0  0
   39.5630   22.9620   36.1690 N   0  0  0  0  0  0  0  0  0  0  0  0
   38.6150   23.8410   35.7560 C   0  0  0  0  0  0  0  0  0  0  0  0
   37.8150   24.4360   36.6440 N   0  0  0  0  0  0  0  0  0  0  0  0
   37.2690   24.6700   38.6870 H   0  0  0  0  0  0  0  0  0  0  0  0
   38.9540   23.0980   39.4950 H   0  0  0  0  0  0  0  0  0  0  0  0
   40.6950   21.7560   37.9770 N   0  0  0  0  0  0  0  0  0  0  0  0
   40.1970   20.9590   38.4470 H   0  0  0  0  0  0  0  0  0  0  0  0
   41.6410   22.1360   37.7360 H   0  0  0  0  0  0  0  0  0  0  0  0
   38.5630   27.8030   31.4550 C   0  0  0  0  0  0  0  0  0  0  0  0
   39.1290   28.7770   31.3660 H   0  0  0  0  0  0  0  0  0  0  0  0
   38.1780   27.6230   30.4220 H   0  0  0  0  0  0  0  0  0  0  0  0
   37.5100   27.9590   32.3190 O   0  0  0  0  0  0  0  0  0  0  0  0
   35.5940   26.3750   31.4590 O   0  0  0  0  0  0  0  0  0  0  0  0
   36.0510   27.8130   31.5110 P   0  0  2  0  0  0  0  0  0  0  0  0
   36.3010   28.4420   29.9340 O   0  0  0  0  0  0  0  0  0  0  0  0
   36.6950   29.3370   30.0870 H   0  0  0  0  0  0  0  0  0  0  0  0
   34.8470   28.7390   32.2030 O   0  0  0  0  0  0  0  0  0  0  0  0
   35.1200   31.0150   32.5240 C   0  0  0  0  0  0  0  0  0  0  0  0
   35.1940   29.7490   33.0920 C   0  0  0  0  0  0  0  0  0  0  0  0
   35.5810   29.6170   34.4090 C   0  0  0  0  0  0  0  0  0  0  0  0
   35.6140   28.6200   34.7760 H   0  0  0  0  0  0  0  0  0  0  0  0
   35.8950   30.7320   35.1610 C   0  0  0  0  0  0  0  0  0  0  0  0
   36.1970   30.6140   36.1900 H   0  0  0  0  0  0  0  0  0  0  0  0
   35.8310   32.0080   34.6180 C   0  0  0  0  0  3  0  0  0  0  0  0
   35.4410   32.1130   33.3010 C   0  0  0  0  0  3  0  0  0  0  0  0
   33.4810   31.2880   30.8390 N   0  0  0  0  0  0  0  0  0  0  0  0
   34.7200   31.2620   31.1360 C   0  0  0  0  0  0  0  0  0  0  0  0
   35.8060   31.4600   30.2070 N   0  0  0  0  0  0  0  0  0  0  0  0
   33.1130   31.4530   29.8980 H   0  0  0  0  0  0  0  0  0  0  0  0
   36.4880   30.8840   29.6880 H   0  0  0  0  0  0  0  0  0  0  0  0
   36.0140   32.4470   29.9430 H   0  0  0  0  0  0  0  0  0  0  0  0
  1 10  1  0  0  0  0
  1  2  1  0  0  0  0
  3  1  1  0  0  0  0
  5  6  1  0  0  0  0
  5  4  1  0  0  0  0
  6 18  1  0  0  0  0
  7 11  1  0  0  0  0
  7  6  2  0  0  0  0
  8  7  1  0  0  0  0
  9  8  2  0  0  0  0
  9 10  1  0  0  0  0
 10  5  2  0  0  0  0
 12  8  1  0  0  0  0
 13  9  1  0  0  0  0
 14 15  1  0  0  0  0
 14 20  1  0  0  0  0
 15 21  1  0  0  0  0
 16 22  1  0  0  0  0
 16 15  2  0  0  0  0
 17 16  1  0  0  0  0
 18 17  2  0  0  0  0
 18 19  1  0  0  0  0
 19 14  2  0  0  0  0
 22 23  1  0  0  0  0
 24 22  1  0  0  0  0
 25  1  1  0  0  0  0
 25 28  1  0  0  0  0
 26 25  1  0  0  0  0
 27 25  1  0  0  0  0
 30 29  2  6  0  0  0
 30 33  1  0  0  0  0
 30 28  1  0  0  0  0
 31 32  1  0  0  0  0
 31 30  1  0  0  0  0
 33 35  1  0  0  0  0
 34 35  2  0  0  0  0
 34 41  1  0  0  0  0
 35 36  1  0  0  0  0
 36 37  1  0  0  0  0
 36 38  2  0  0  0  0
 38 39  1  0  0  0  0
 40 38  1  0  0  0  0
 41 40  2  0  0  0  0
 42 43  2  0  0  0  0
 43 34  1  0  0  0  0
 44 43  1  0  0  0  0
 45 42  1  0  0  0  0
 46 44  1  0  0  0  0
 47 44  1  0  0  0  0
M  END
>  <minimizedAffinity>
-6.32628632

$$$$

 OpenBabel03272504403D

 47 49  0  0  0  0  0  0  0  0999 V2000
   36.9790   27.7870   33.4520 C   0  0  0  0  0  0  0  0  0  0  0  0
   36.2550   27.9790   34.2720 H   0  0  0  0  0  0  0  0  0  0  0  0
   37.9170   28.3110   33.8060 H   0  0  0  0  0  0  0  0  0  0  0  0
   38.6850   26.7840   35.6610 Cl  0  0  0  0  0  0  0  0  0  0  0  0
   38.0600   25.7640   34.3660 C   0  0  0  0  0  0  0  0  0  0  0  0
   38.3680   24.4370   34.3570 C   0  0  0  0  0  0  0  0  0  0  0  0
   37.8890   23.6350   33.3580 C   0  0  0  0  0  0  0  0  0  0  0  0
   37.0980   24.1930   32.3710 C   0  0  0  0  0  0  0  0  0  0  0  0
   36.8120   25.5580   32.4270 C   0  0  0  0  0  0  0  0  0  0  0  0
   37.2790   26.3740   33.4130 C   0  0  0  0  0  0  0  0  0  0  0  0
   38.1590   22.5720   33.3850 H   0  0  0  0  0  0  0  0  0  0  0  0
   36.7750   23.4680   31.6320 H   0  0  0  0  0  0  0  0  0  0  0  0
   36.2160   25.7810   31.6140 H   0  0  0  0  0  0  0  0  0  0  0  0
   41.2450   23.0960   36.2440 C   0  0  0  0  0  0  0  0  0  0  0  0
   40.6260   22.7680   37.4850 C   0  0  0  0  0  0  0  0  0  0  0  0
   39.2570   23.0200   37.6190 C   0  0  0  0  0  0  0  0  0  0  0  0
   38.5820   23.5610   36.5720 N   0  0  0  0  0  0  0  0  0  0  0  0
   39.2040   23.8620   35.4040 C   0  0  0  0  0  0  0  0  0  0  0  0
   40.5100   23.6270   35.2560 N   0  0  0  0  0  0  0  0  0  0  0  0
   42.3090   22.9030   36.1300 H   0  0  0  0  0  0  0  0  0  0  0  0
   41.2510   22.3400   38.2580 H   0  0  0  0  0  0  0  0  0  0  0  0
   38.6710   22.6850   38.8590 N   0  0  0  0  0  0  0  0  0  0  0  0
   39.1220   23.2670   39.6100 H   0  0  0  0  0  0  0  0  0  0  0  0
   37.9490   21.9480   38.6820 H   0  0  0  0  0  0  0  0  0  0  0  0
   36.5030   28.4540   32.2440 C   0  0  0  0  0  0  0  0  0  0  0  0
   36.9500   29.4910   32.2110 H   0  0  0  0  0  0  0  0  0  0  0  0
   36.8720   27.9750   31.3050 H   0  0  0  0  0  0  0  0  0  0  0  0
   35.1350   28.5410   32.2110 O   0  0  0  0  0  0  0  0  0  0  0  0
   33.2940   30.3960   32.5080 O   0  0  0  0  0  0  0  0  0  0  0  0
   34.6040   29.8860   33.0560 P   0  0  2  0  0  0  0  0  0  0  0  0
   35.8390   31.0700   32.9130 O   0  0  0  0  0  0  0  0  0  0  0  0
   36.6620   30.6000   33.1970 H   0  0  0  0  0  0  0  0  0  0  0  0
   34.4270   29.5820   34.6870 O   0  0  0  0  0  0  0  0  0  0  0  0
   32.9760   30.7560   36.0560 C   0  0  0  0  0  0  0  0  0  0  0  0
   34.2700   30.6490   35.5640 C   0  0  0  0  0  0  0  0  0  0  0  0
   35.2280   31.5570   35.9660 C   0  0  0  0  0  0  0  0  0  0  0  0
   36.1950   31.4130   35.5500 H   0  0  0  0  0  0  0  0  0  0  0  0
   34.9050   32.5670   36.8500 C   0  0  0  0  0  0  0  0  0  0  0  0
   35.6640   33.2710   37.1560 H   0  0  0  0  0  0  0  0  0  0  0  0
   33.6190   32.6980   37.3560 C   0  0  0  0  0  3  0  0  0  0  0  0
   32.6820   31.7780   36.9400 C   0  0  0  0  0  3  0  0  0  0  0  0
   31.1080   30.1540   34.7330 N   0  0  0  0  0  0  0  0  0  0  0  0
   31.8880   29.8430   35.6910 C   0  0  0  0  0  0  0  0  0  0  0  0
   31.8050   28.6380   36.4800 N   0  0  0  0  0  0  0  0  0  0  0  0
   30.3250   29.5790   34.4120 H   0  0  0  0  0  0  0  0  0  0  0  0
   31.4550   28.3500   37.4080 H   0  0  0  0  0  0  0  0  0  0  0  0
   32.1910   27.7740   36.0440 H   0  0  0  0  0  0  0  0  0  0  0  0
  1  3  1  0  0  0  0
  1  2  1  0  0  0  0
  5  4  1  0  0  0  0
  6  5  1  0  0  0  0
  6 18  1  0  0  0  0
  7 11  1  0  0  0  0
  7  6  2  0  0  0  0
  8  9  2  0  0  0  0
  8  7  1  0  0  0  0
  9 10  1  0  0  0  0
 10  1  1  0  0  0  0
 10  5  2  0  0  0  0
 12  8  1  0  0  0  0
 13  9  1  0  0  0  0
 14 15  1  0  0  0  0
 15 16  2  0  0  0  0
 15 21  1  0  0  0  0
 16 22  1  0  0  0  0
 17 16  1  0  0  0  0
 18 17  2  0  0  0  0
 19 18  1  0  0  0  0
 19 14  2  0  0  0  0
 20 14  1  0  0  0  0
 22 23  1  0  0  0  0
 24 22  1  0  0  0  0
 25  1  1  0  0  0  0
 26 25  1  0  0  0  0
 27 25  1  0  0  0  0
 28 25  1  0  0  0  0
 28 30  1  0  0  0  0
 30 29  2  6  0  0  0
 30 33  1  0  0  0  0
 31 30  1  0  0  0  0
 31 32  1  0  0  0  0
 33 35  1  0  0  0  0
 34 41  1  0  0  0  0
 35 36  1  0  0  0  0
 35 34  2  0  0  0  0
 36 38  2  0  0  0  0
 37 36  1  0  0  0  0
 38 39  1  0  0  0  0
 38 40  1  0  0  0  0
 41 40  2  0  0  0  0
 42 43  2  0  0  0  0
 43 34  1  0  0  0  0
 43 44  1  0  0  0  0
 44 46  1  0  0  0  0
 45 42  1  0  0  0  0
 47 44  1  0  0  0  0
M  END
>  <minimizedAffinity>
-6.30202436

$$$$

 OpenBabel03272504403D

 47 49  0  0  0  0  0  0  0  0999 V2000
   36.9530   27.8330   33.5450 C   0  0  0  0  0  0  0  0  0  0  0  0
   36.5770   28.0740   34.5620 H   0  0  0  0  0  0  0  0  0  0  0  0
   37.9400   28.3850   33.4970 H   0  0  0  0  0  0  0  0  0  0  0  0
   38.6680   26.7990   35.7320 Cl  0  0  0  0  0  0  0  0  0  0  0  0
   38.0460   25.7990   34.4210 C   0  0  0  0  0  0  0  0  0  0  0  0
   38.3600   24.4740   34.3890 C   0  0  0  0  0  0  0  0  0  0  0  0
   37.8820   23.6880   33.3770 C   0  0  0  0  0  0  0  0  0  0  0  0
   37.0860   24.2590   32.4010 C   0  0  0  0  0  0  0  0  0  0  0  0
   36.7950   25.6220   32.4820 C   0  0  0  0  0  0  0  0  0  0  0  0
   37.2600   26.4220   33.4810 C   0  0  0  0  0  0  0  0  0  0  0  0
   38.1560   22.6250   33.3850 H   0  0  0  0  0  0  0  0  0  0  0  0
   36.7640   23.5460   31.6500 H   0  0  0  0  0  0  0  0  0  0  0  0
   36.1950   25.8560   31.6740 H   0  0  0  0  0  0  0  0  0  0  0  0
   41.2430   23.1000   36.2400 C   0  0  0  0  0  0  0  0  0  0  0  0
   40.6330   22.7630   37.4830 C   0  0  0  0  0  0  0  0  0  0  0  0
   39.2660   23.0200   37.6300 C   0  0  0  0  0  0  0  0  0  0  0  0
   38.5860   23.5750   36.5930 N   0  0  0  0  0  0  0  0  0  0  0  0
   39.2010   23.8840   35.4230 C   0  0  0  0  0  0  0  0  0  0  0  0
   40.5040   23.6450   35.2630 N   0  0  0  0  0  0  0  0  0  0  0  0
   42.3060   22.9030   36.1160 H   0  0  0  0  0  0  0  0  0  0  0  0
   41.2610   22.3250   38.2470 H   0  0  0  0  0  0  0  0  0  0  0  0
   38.6870   22.6770   38.8710 N   0  0  0  0  0  0  0  0  0  0  0  0
   39.1470   23.2490   39.6240 H   0  0  0  0  0  0  0  0  0  0  0  0
   37.9600   21.9450   38.6920 H   0  0  0  0  0  0  0  0  0  0  0  0
   36.0470   28.4160   32.5620 C   0  0  0  0  0  0  0  0  0  0  0  0
   36.6510   29.0720   31.8670 H   0  0  0  0  0  0  0  0  0  0  0  0
   35.5900   27.6570   31.8810 H   0  0  0  0  0  0  0  0  0  0  0  0
   35.0580   29.1600   33.1530 O   0  0  0  0  0  0  0  0  0  0  0  0
   33.8560   30.7320   31.4200 O   0  0  0  0  0  0  0  0  0  0  0  0
   34.9560   30.6780   32.4530 P   0  0  2  0  0  0  0  0  0  0  0  0
   36.4870   30.9930   31.7450 O   0  0  0  0  0  0  0  0  0  0  0  0
   37.1340   30.8280   32.4770 H   0  0  0  0  0  0  0  0  0  0  0  0
   34.6990   31.8810   33.5810 O   0  0  0  0  0  0  0  0  0  0  0  0
   36.2510   32.7700   35.0500 C   0  0  0  0  0  0  0  0  0  0  0  0
   35.6820   32.8410   33.7850 C   0  0  0  0  0  0  0  0  0  0  0  0
   36.1180   33.8030   32.8970 C   0  0  0  0  0  0  0  0  0  0  0  0
   35.6380   33.7970   31.9480 H   0  0  0  0  0  0  0  0  0  0  0  0
   37.1120   34.6900   33.2590 C   0  0  0  0  0  0  0  0  0  0  0  0
   37.4430   35.4380   32.5550 H   0  0  0  0  0  0  0  0  0  0  0  0
   37.6970   34.6420   34.5180 C   0  0  0  0  0  3  0  0  0  0  0  0
   37.2450   33.6720   35.3850 C   0  0  0  0  0  3  0  0  0  0  0  0
   35.1620   32.1650   37.0620 N   0  0  0  0  0  0  0  0  0  0  0  0
   35.8590   31.7880   36.0640 C   0  0  0  0  0  0  0  0  0  0  0  0
   36.3150   30.4400   35.8260 N   0  0  0  0  0  0  0  0  0  0  0  0
   34.8460   31.5490   37.8160 H   0  0  0  0  0  0  0  0  0  0  0  0
   37.1840   29.8930   35.9320 H   0  0  0  0  0  0  0  0  0  0  0  0
   35.6120   29.7780   35.4320 H   0  0  0  0  0  0  0  0  0  0  0  0
  1  2  1  0  0  0  0
  3  1  1  0  0  0  0
  5  4  1  0  0  0  0
  6  5  1  0  0  0  0
  6 18  1  0  0  0  0
  7 11  1  0  0  0  0
  7  6  2  0  0  0  0
  8  9  2  0  0  0  0
  8  7  1  0  0  0  0
  9 10  1  0  0  0  0
 10  1  1  0  0  0  0
 10  5  2  0  0  0  0
 12  8  1  0  0  0  0
 13  9  1  0  0  0  0
 14 15  1  0  0  0  0
 15 16  2  0  0  0  0
 15 21  1  0  0  0  0
 16 22  1  0  0  0  0
 17 16  1  0  0  0  0
 18 17  2  0  0  0  0
 19 18  1  0  0  0  0
 19 14  2  0  0  0  0
 20 14  1  0  0  0  0
 22 23  1  0  0  0  0
 24 22  1  0  0  0  0
 25 28  1  0  0  0  0
 25  1  1  0  0  0  0
 26 25  1  0  0  0  0
 27 25  1  0  0  0  0
 30 29  2  6  0  0  0
 30 28  1  0  0  0  0
 30 33  1  0  0  0  0
 31 30  1  0  0  0  0
 31 32  1  0  0  0  0
 33 35  1  0  0  0  0
 34 41  1  0  0  0  0
 34 43  1  0  0  0  0
 35 34  2  0  0  0  0
 36 38  2  0  0  0  0
 36 35  1  0  0  0  0
 37 36  1  0  0  0  0
 38 40  1  0  0  0  0
 39 38  1  0  0  0  0
 40 41  2  0  0  0  0
 42 45  1  0  0  0  0
 43 42  2  0  0  0  0
 44 46  1  0  0  0  0
 44 43  1  0  0  0  0
 47 44  1  0  0  0  0
M  END
>  <minimizedAffinity>
-6.21405602

$$$$

 OpenBabel03272504403D

 47 49  0  0  0  0  0  0  0  0999 V2000
   38.4250   26.1630   32.8410 C   0  0  0  0  0  0  0  0  0  0  0  0
   39.2700   26.0570   32.1300 H   0  0  0  0  0  0  0  0  0  0  0  0
   38.9330   26.4710   33.8040 H   0  0  0  0  0  0  0  0  0  0  0  0
   36.7580   27.3760   34.9740 Cl  0  0  0  0  0  0  0  0  0  0  0  0
   36.7720   27.9380   33.3040 C   0  0  0  0  0  0  0  0  0  0  0  0
   35.9780   28.9870   32.9490 C   0  0  0  0  0  0  0  0  0  0  0  0
   35.9800   29.4330   31.6560 C   0  0  0  0  0  0  0  0  0  0  0  0
   36.7940   28.8060   30.7300 C   0  0  0  0  0  0  0  0  0  0  0  0
   37.5880   27.7360   31.1470 C   0  0  0  0  0  0  0  0  0  0  0  0
   37.6000   27.2760   32.4290 C   0  0  0  0  0  0  0  0  0  0  0  0
   35.3270   30.2800   31.4090 H   0  0  0  0  0  0  0  0  0  0  0  0
   36.7160   29.2400   29.7400 H   0  0  0  0  0  0  0  0  0  0  0  0
   38.1160   27.4070   30.3230 H   0  0  0  0  0  0  0  0  0  0  0  0
   33.0650   30.0210   34.9680 C   0  0  0  0  0  0  0  0  0  0  0  0
   33.6670   30.9650   35.8500 C   0  0  0  0  0  0  0  0  0  0  0  0
   35.0390   31.2030   35.7140 C   0  0  0  0  0  0  0  0  0  0  0  0
   35.7310   30.5320   34.7570 N   0  0  0  0  0  0  0  0  0  0  0  0
   35.1240   29.6390   33.9340 C   0  0  0  0  0  0  0  0  0  0  0  0
   33.8160   29.3990   34.0480 N   0  0  0  0  0  0  0  0  0  0  0  0
   31.9990   29.8290   35.0670 H   0  0  0  0  0  0  0  0  0  0  0  0
   33.0300   31.4460   36.5790 H   0  0  0  0  0  0  0  0  0  0  0  0
   35.6090   32.1420   36.6010 N   0  0  0  0  0  0  0  0  0  0  0  0
   35.4990   31.7830   37.5830 H   0  0  0  0  0  0  0  0  0  0  0  0
   35.9820   32.9350   36.0290 H   0  0  0  0  0  0  0  0  0  0  0  0
   37.8130   24.8520   33.0390 C   0  0  0  0  0  0  0  0  0  0  0  0
   37.2320   24.8740   34.0070 H   0  0  0  0  0  0  0  0  0  0  0  0
   37.0420   24.6070   32.2690 H   0  0  0  0  0  0  0  0  0  0  0  0
   38.7500   23.8520   33.0870 O   0  0  0  0  0  0  0  0  0  0  0  0
   37.5190   22.0720   34.5810 O   0  0  0  0  0  0  0  0  0  0  0  0
   38.6770   23.0390   34.5490 P   0  0  2  0  0  0  0  0  0  0  0  0
   38.5180   24.2380   35.7670 O   0  0  0  0  0  0  0  0  0  0  0  0
   39.2600   24.8680   35.5880 H   0  0  0  0  0  0  0  0  0  0  0  0
   40.0850   22.2080   34.8840 O   0  0  0  0  0  0  0  0  0  0  0  0
   41.7600   22.7620   36.3830 C   0  0  0  0  0  0  0  0  0  0  0  0
   41.2600   22.9200   35.0960 C   0  0  0  0  0  0  0  0  0  0  0  0
   41.9330   23.7210   34.1990 C   0  0  0  0  0  0  0  0  0  0  0  0
   41.4930   23.7950   33.2340 H   0  0  0  0  0  0  0  0  0  0  0  0
   43.0970   24.3640   34.5720 C   0  0  0  0  0  0  0  0  0  0  0  0
   43.6140   24.9890   33.8590 H   0  0  0  0  0  0  0  0  0  0  0  0
   43.6180   24.2250   35.8510 C   0  0  0  0  0  3  0  0  0  0  0  0
   42.9270   23.4190   36.7290 C   0  0  0  0  0  3  0  0  0  0  0  0
   40.0330   22.3310   37.9410 N   0  0  0  0  0  0  0  0  0  0  0  0
   41.1200   21.9340   37.4090 C   0  0  0  0  0  0  0  0  0  0  0  0
   41.8070   20.7060   37.7270 N   0  0  0  0  0  0  0  0  0  0  0  0
   39.5190   21.8180   38.6640 H   0  0  0  0  0  0  0  0  0  0  0  0
   42.6210   20.4040   38.2870 H   0  0  0  0  0  0  0  0  0  0  0  0
   41.4220   19.8370   37.2990 H   0  0  0  0  0  0  0  0  0  0  0  0
  1 25  1  0  0  0  0
  1  3  1  0  0  0  0
  2  1  1  0  0  0  0
  5  4  1  0  0  0  0
  6  5  1  0  0  0  0
  6 18  1  0  0  0  0
  7  6  2  0  0  0  0
  8  9  2  0  0  0  0
  8  7  1  0  0  0  0
  9 10  1  0  0  0  0
 10  1  1  0  0  0  0
 10  5  2  0  0  0  0
 11  7  1  0  0  0  0
 12  8  1  0  0  0  0
 13  9  1  0  0  0  0
 14 20  1  0  0  0  0
 14 15  1  0  0  0  0
 15 21  1  0  0  0  0
 16 15  2  0  0  0  0
 16 22  1  0  0  0  0
 17 16  1  0  0  0  0
 18 19  1  0  0  0  0
 18 17  2  0  0  0  0
 19 14  2  0  0  0  0
 22 23  1  0  0  0  0
 24 22  1  0  0  0  0
 25 28  1  0  0  0  0
 25 26  1  0  0  0  0
 27 25  1  0  0  0  0
 28 30  1  0  0  0  0
 30 29  2  1  0  0  0
 30 33  1  0  0  0  0
 30 31  1  0  0  0  0
 32 31  1  0  0  0  0
 33 35  1  0  0  0  0
 34 41  1  0  0  0  0
 34 43  1  0  0  0  0
 35 34  2  0  0  0  0
 36 38  2  0  0  0  0
 36 35  1  0  0  0  0
 37 36  1  0  0  0  0
 38 40  1  0  0  0  0
 39 38  1  0  0  0  0
 40 41  2  0  0  0  0
 42 45  1  0  0  0  0
 43 44  1  0  0  0  0
 43 42  2  0  0  0  0
 44 46  1  0  0  0  0
 47 44  1  0  0  0  0
M  END
>  <minimizedAffinity>
-6.17246056

$$$$

 OpenBabel03272504403D

 47 49  0  0  0  0  0  0  0  0999 V2000
   38.1950   26.5760   31.3780 C   0  0  0  0  0  0  0  0  0  0  0  0
   38.9230   27.1060   30.7290 H   0  0  0  0  0  0  0  0  0  0  0  0
   37.2500   26.5700   30.7550 H   0  0  0  0  0  0  0  0  0  0  0  0
   36.0170   24.6380   31.9260 Cl  0  0  0  0  0  0  0  0  0  0  0  0
   37.7140   24.1870   31.7800 C   0  0  0  0  0  0  0  0  0  0  0  0
   38.0700   22.8800   31.9250 C   0  0  0  0  0  0  0  0  0  0  0  0
   39.3840   22.5170   31.8120 C   0  0  0  0  0  0  0  0  0  0  0  0
   40.3300   23.4920   31.5520 C   0  0  0  0  0  0  0  0  0  0  0  0
   39.9120   24.8160   31.4110 C   0  0  0  0  0  0  0  0  0  0  0  0
   38.6090   25.1980   31.5200 C   0  0  0  0  0  0  0  0  0  0  0  0
   39.6310   21.4540   31.9360 H   0  0  0  0  0  0  0  0  0  0  0  0
   41.3360   23.0930   31.4830 H   0  0  0  0  0  0  0  0  0  0  0  0
   40.7520   25.3840   31.2230 H   0  0  0  0  0  0  0  0  0  0  0  0
   35.5150   20.2430   31.5410 C   0  0  0  0  0  0  0  0  0  0  0  0
   35.1860   19.9820   32.9030 C   0  0  0  0  0  0  0  0  0  0  0  0
   35.8520   20.7190   33.8880 C   0  0  0  0  0  0  0  0  0  0  0  0
   36.7750   21.6410   33.5080 N   0  0  0  0  0  0  0  0  0  0  0  0
   37.0630   21.8620   32.2000 C   0  0  0  0  0  0  0  0  0  0  0  0
   36.4360   21.1700   31.2460 N   0  0  0  0  0  0  0  0  0  0  0  0
   35.0010   19.6750   30.7680 H   0  0  0  0  0  0  0  0  0  0  0  0
   34.4370   19.2270   33.1020 H   0  0  0  0  0  0  0  0  0  0  0  0
   35.5080   20.4400   35.2290 N   0  0  0  0  0  0  0  0  0  0  0  0
   35.7530   19.4390   35.4350 H   0  0  0  0  0  0  0  0  0  0  0  0
   35.1020   21.3130   35.6410 H   0  0  0  0  0  0  0  0  0  0  0  0
   37.9590   27.3810   32.5720 C   0  0  0  0  0  0  0  0  0  0  0  0
   37.9820   28.4710   32.2750 H   0  0  0  0  0  0  0  0  0  0  0  0
   36.9370   27.2430   33.0000 H   0  0  0  0  0  0  0  0  0  0  0  0
   38.9010   27.1480   33.5410 O   0  0  0  0  0  0  0  0  0  0  0  0
   36.6880   26.8760   34.9370 O   0  0  0  0  0  0  0  0  0  0  0  0
   38.1780   26.6370   34.9620 P   0  0  2  0  0  0  0  0  0  0  0  0
   38.9260   27.5150   36.2330 O   0  0  0  0  0  0  0  0  0  0  0  0
   39.8950   27.3730   36.0910 H   0  0  0  0  0  0  0  0  0  0  0  0
   38.4620   25.0220   35.2730 O   0  0  0  0  0  0  0  0  0  0  0  0
   39.8910   23.5050   36.2790 C   0  0  0  0  0  0  0  0  0  0  0  0
   39.7710   24.5740   35.4010 C   0  0  0  0  0  0  0  0  0  0  0  0
   40.8950   25.0680   34.7730 C   0  0  0  0  0  0  0  0  0  0  0  0
   40.7280   25.8850   34.1150 H   0  0  0  0  0  0  0  0  0  0  0  0
   42.1330   24.5050   35.0130 C   0  0  0  0  0  0  0  0  0  0  0  0
   43.0050   24.9010   34.5140 H   0  0  0  0  0  0  0  0  0  0  0  0
   42.2820   23.4360   35.8860 C   0  0  0  0  0  3  0  0  0  0  0  0
   41.1440   22.9620   36.5000 C   0  0  0  0  0  3  0  0  0  0  0  0
   37.7970   22.4050   36.3310 N   0  0  0  0  0  0  0  0  0  0  0  0
   38.7600   22.9080   36.9960 C   0  0  0  0  0  0  0  0  0  0  0  0
   38.8510   22.9490   38.4350 N   0  0  0  0  0  0  0  0  0  0  0  0
   36.9690   21.9700   36.7480 H   0  0  0  0  0  0  0  0  0  0  0  0
   38.7030   23.6320   39.1950 H   0  0  0  0  0  0  0  0  0  0  0  0
   39.1470   22.0670   38.9040 H   0  0  0  0  0  0  0  0  0  0  0  0
  1 10  1  0  0  0  0
  1 25  1  0  0  0  0
  2  1  1  0  0  0  0
  3  1  1  0  0  0  0
  5  6  1  0  0  0  0
  5  4  1  0  0  0  0
  6 18  1  0  0  0  0
  7  6  2  0  0  0  0
  7 11  1  0  0  0  0
  8  7  1  0  0  0  0
  9 10  1  0  0  0  0
  9  8  2  0  0  0  0
 10  5  2  0  0  0  0
 12  8  1  0  0  0  0
 13  9  1  0  0  0  0
 14 15  1  0  0  0  0
 15 21  1  0  0  0  0
 15 16  2  0  0  0  0
 16 22  1  0  0  0  0
 17 16  1  0  0  0  0
 18 17  2  0  0  0  0
 19 14  2  0  0  0  0
 19 18  1  0  0  0  0
 20 14  1  0  0  0  0
 22 23  1  0  0  0  0
 22 24  1  0  0  0  0
 25 27  1  0  0  0  0
 25 28  1  0  0  0  0
 26 25  1  0  0  0  0
 28 30  1  0  0  0  0
 30 29  2  6  0  0  0
 30 33  1  0  0  0  0
 30 31  1  0  0  0  0
 32 31  1  0  0  0  0
 33 35  1  0  0  0  0
 34 41  1  0  0  0  0
 34 43  1  0  0  0  0
 35 34  2  0  0  0  0
 36 38  2  0  0  0  0
 36 35  1  0  0  0  0
 37 36  1  0  0  0  0
 38 40  1  0  0  0  0
 39 38  1  0  0  0  0
 40 41  2  0  0  0  0
 42 45  1  0  0  0  0
 42 43  2  0  0  0  0
 43 44  1  0  0  0  0
 44 47  1  0  0  0  0
 44 46  1  0  0  0  0
M  END
>  <minimizedAffinity>
-6.14916945

$$$$

 OpenBabel03272504403D

 47 49  0  0  0  0  0  0  0  0999 V2000
   39.3420   25.6370   31.0420 C   0  0  0  0  0  0  0  0  0  0  0  0
   39.9680   24.7490   30.8160 H   0  0  0  0  0  0  0  0  0  0  0  0
   39.4190   26.2560   30.0980 H   0  0  0  0  0  0  0  0  0  0  0  0
   38.9240   22.7770   31.7070 Cl  0  0  0  0  0  0  0  0  0  0  0  0
   37.6110   23.9260   31.4570 C   0  0  0  0  0  0  0  0  0  0  0  0
   36.3220   23.4980   31.5690 C   0  0  0  0  0  0  0  0  0  0  0  0
   35.2940   24.3800   31.3780 C   0  0  0  0  0  0  0  0  0  0  0  0
   35.5880   25.6960   31.0730 C   0  0  0  0  0  0  0  0  0  0  0  0
   36.9250   26.0830   30.9720 C   0  0  0  0  0  0  0  0  0  0  0  0
   37.9630   25.2210   31.1580 C   0  0  0  0  0  0  0  0  0  0  0  0
   34.2700   23.9970   31.4760 H   0  0  0  0  0  0  0  0  0  0  0  0
   34.6990   26.3050   30.9440 H   0  0  0  0  0  0  0  0  0  0  0  0
   36.9370   27.0890   30.7410 H   0  0  0  0  0  0  0  0  0  0  0  0
   35.6180   19.8830   31.3030 C   0  0  0  0  0  0  0  0  0  0  0  0
   35.4670   19.5340   32.6760 C   0  0  0  0  0  0  0  0  0  0  0  0
   35.6120   20.5480   33.6280 C   0  0  0  0  0  0  0  0  0  0  0  0
   35.8890   21.8100   33.2070 N   0  0  0  0  0  0  0  0  0  0  0  0
   36.0270   22.1070   31.8900 C   0  0  0  0  0  0  0  0  0  0  0  0
   35.8910   21.1520   30.9670 N   0  0  0  0  0  0  0  0  0  0  0  0
   35.5070   19.1000   30.5560 H   0  0  0  0  0  0  0  0  0  0  0  0
   35.2470   18.5010   32.9090 H   0  0  0  0  0  0  0  0  0  0  0  0
   35.4580   20.1750   34.9810 N   0  0  0  0  0  0  0  0  0  0  0  0
   36.2060   19.4770   35.2220 H   0  0  0  0  0  0  0  0  0  0  0  0
   34.6370   20.7000   35.3650 H   0  0  0  0  0  0  0  0  0  0  0  0
   39.9610   26.3790   32.1350 C   0  0  0  0  0  0  0  0  0  0  0  0
   40.0890   27.4530   31.8080 H   0  0  0  0  0  0  0  0  0  0  0  0
   39.3110   26.4520   33.0400 H   0  0  0  0  0  0  0  0  0  0  0  0
   41.1800   25.8560   32.4840 O   0  0  0  0  0  0  0  0  0  0  0  0
   41.6960   25.8250   35.0630 O   0  0  0  0  0  0  0  0  0  0  0  0
   41.0790   25.0310   33.9380 P   0  0  2  0  0  0  0  0  0  0  0  0
   41.8980   23.5390   33.7100 O   0  0  0  0  0  0  0  0  0  0  0  0
   41.4870   23.1570   32.8940 H   0  0  0  0  0  0  0  0  0  0  0  0
   39.5060   24.6500   34.3430 O   0  0  0  0  0  0  0  0  0  0  0  0
   38.4290   25.2340   36.3070 C   0  0  0  0  0  0  0  0  0  0  0  0
   39.2100   24.2910   35.6530 C   0  0  0  0  0  0  0  0  0  0  0  0
   39.6000   23.1490   36.3220 C   0  0  0  0  0  0  0  0  0  0  0  0
   40.1950   22.4720   35.7590 H   0  0  0  0  0  0  0  0  0  0  0  0
   39.2180   22.9420   37.6320 C   0  0  0  0  0  0  0  0  0  0  0  0
   39.5300   22.0440   38.1440 H   0  0  0  0  0  0  0  0  0  0  0  0
   38.4380   23.8690   38.3100 C   0  0  0  0  0  3  0  0  0  0  0  0
   38.0620   25.0010   37.6200 C   0  0  0  0  0  3  0  0  0  0  0  0
   37.0970   26.4230   34.7540 N   0  0  0  0  0  0  0  0  0  0  0  0
   37.9630   26.4780   35.6860 C   0  0  0  0  0  0  0  0  0  0  0  0
   38.5510   27.6860   36.2100 N   0  0  0  0  0  0  0  0  0  0  0  0
   36.7180   27.2380   34.2650 H   0  0  0  0  0  0  0  0  0  0  0  0
   39.4330   28.2150   36.1170 H   0  0  0  0  0  0  0  0  0  0  0  0
   37.9690   28.2290   36.8840 H   0  0  0  0  0  0  0  0  0  0  0  0
  1 10  1  0  0  0  0
  1 25  1  0  0  0  0
  2  1  1  0  0  0  0
  3  1  1  0  0  0  0
  5  6  1  0  0  0  0
  5  4  1  0  0  0  0
  6 18  1  0  0  0  0
  7 11  1  0  0  0  0
  7  6  2  0  0  0  0
  8  7  1  0  0  0  0
  9  8  2  0  0  0  0
  9 10  1  0  0  0  0
 10  5  2  0  0  0  0
 12  8  1  0  0  0  0
 13  9  1  0  0  0  0
 14 15  1  0  0  0  0
 15 21  1  0  0  0  0
 15 16  2  0  0  0  0
 16 22  1  0  0  0  0
 17 16  1  0  0  0  0
 18 17  2  0  0  0  0
 19 14  2  0  0  0  0
 19 18  1  0  0  0  0
 20 14  1  0  0  0  0
 22 23  1  0  0  0  0
 22 24  1  0  0  0  0
 25 28  1  0  0  0  0
 25 27  1  0  0  0  0
 26 25  1  0  0  0  0
 28 30  1  0  0  0  0
 30 33  1  0  0  0  0
 30 29  2  1  0  0  0
 31 30  1  0  0  0  0
 32 31  1  0  0  0  0
 33 35  1  0  0  0  0
 34 41  1  0  0  0  0
 35 34  2  0  0  0  0
 35 36  1  0  0  0  0
 36 38  2  0  0  0  0
 37 36  1  0  0  0  0
 38 39  1  0  0  0  0
 38 40  1  0  0  0  0
 41 40  2  0  0  0  0
 42 43  2  0  0  0  0
 43 44  1  0  0  0  0
 43 34  1  0  0  0  0
 44 47  1  0  0  0  0
 45 42  1  0  0  0  0
 46 44  1  0  0  0  0
M  END
>  <minimizedAffinity>
-6.14735222

$$$$

 OpenBabel03272504403D

 47 49  0  0  0  0  0  0  0  0999 V2000
   36.7870   24.8160   31.1850 C   0  0  0  0  0  0  0  0  0  0  0  0
   37.7800   25.3120   31.2000 H   0  0  0  0  0  0  0  0  0  0  0  0
   36.7100   24.4190   30.1280 H   0  0  0  0  0  0  0  0  0  0  0  0
   38.9100   24.8570   33.2550 Cl  0  0  0  0  0  0  0  0  0  0  0  0
   37.7540   23.5400   33.0660 C   0  0  0  0  0  0  0  0  0  0  0  0
   37.8220   22.4690   33.9060 C   0  0  0  0  0  0  0  0  0  0  0  0
   36.9300   21.4420   33.7690 C   0  0  0  0  0  0  0  0  0  0  0  0
   35.9710   21.5130   32.7750 C   0  0  0  0  0  0  0  0  0  0  0  0
   35.9450   22.6320   31.9420 C   0  0  0  0  0  0  0  0  0  0  0  0
   36.8240   23.6660   32.0610 C   0  0  0  0  0  0  0  0  0  0  0  0
   37.0170   20.5970   34.4640 H   0  0  0  0  0  0  0  0  0  0  0  0
   35.3190   20.6470   32.7580 H   0  0  0  0  0  0  0  0  0  0  0  0
   35.1690   22.5000   31.2750 H   0  0  0  0  0  0  0  0  0  0  0  0
   41.0220   22.0590   35.7020 C   0  0  0  0  0  0  0  0  0  0  0  0
   40.6190   22.3330   37.0410 C   0  0  0  0  0  0  0  0  0  0  0  0
   39.2740   22.6450   37.2670 C   0  0  0  0  0  0  0  0  0  0  0  0
   38.4190   22.6730   36.2120 N   0  0  0  0  0  0  0  0  0  0  0  0
   38.8380   22.4070   34.9490 C   0  0  0  0  0  0  0  0  0  0  0  0
   40.1170   22.1060   34.7130 N   0  0  0  0  0  0  0  0  0  0  0  0
   42.0650   21.8150   35.5160 H   0  0  0  0  0  0  0  0  0  0  0  0
   41.3760   22.2850   37.8110 H   0  0  0  0  0  0  0  0  0  0  0  0
   38.9030   22.9120   38.6030 N   0  0  0  0  0  0  0  0  0  0  0  0
   39.4300   23.7590   38.9330 H   0  0  0  0  0  0  0  0  0  0  0  0
   38.2040   22.1880   38.8900 H   0  0  0  0  0  0  0  0  0  0  0  0
   35.7550   25.8290   31.3770 C   0  0  0  0  0  0  0  0  0  0  0  0
   34.7550   25.3720   31.1170 H   0  0  0  0  0  0  0  0  0  0  0  0
   35.6360   26.1400   32.4430 H   0  0  0  0  0  0  0  0  0  0  0  0
   35.9720   26.9350   30.5960 O   0  0  0  0  0  0  0  0  0  0  0  0
   36.4200   29.5250   30.6950 O   0  0  0  0  0  0  0  0  0  0  0  0
   36.2280   28.2920   31.5430 P   0  0  2  0  0  0  0  0  0  0  0  0
   37.6210   27.9690   32.4930 O   0  0  0  0  0  0  0  0  0  0  0  0
   37.4290   27.0960   32.9190 H   0  0  0  0  0  0  0  0  0  0  0  0
   34.9780   28.5630   32.6150 O   0  0  0  0  0  0  0  0  0  0  0  0
   34.2150   30.6760   33.1730 C   0  0  0  0  0  0  0  0  0  0  0  0
   35.0630   29.6270   33.5050 C   0  0  0  0  0  0  0  0  0  0  0  0
   35.8680   29.7300   34.6200 C   0  0  0  0  0  0  0  0  0  0  0  0
   36.4900   28.8900   34.8120 H   0  0  0  0  0  0  0  0  0  0  0  0
   35.8330   30.8660   35.4040 C   0  0  0  0  0  0  0  0  0  0  0  0
   36.4680   30.9340   36.2750 H   0  0  0  0  0  0  0  0  0  0  0  0
   34.9950   31.9290   35.0960 C   0  0  0  0  0  3  0  0  0  0  0  0
   34.2010   31.8010   33.9770 C   0  0  0  0  0  3  0  0  0  0  0  0
   33.7360   31.1370   30.9020 N   0  0  0  0  0  0  0  0  0  0  0  0
   33.3220   30.6640   32.0110 C   0  0  0  0  0  0  0  0  0  0  0  0
   32.0160   30.0970   32.2420 N   0  0  0  0  0  0  0  0  0  0  0  0
   33.1810   31.1700   30.0420 H   0  0  0  0  0  0  0  0  0  0  0  0
   31.1190   30.3820   32.6660 H   0  0  0  0  0  0  0  0  0  0  0  0
   31.8720   29.1190   31.9090 H   0  0  0  0  0  0  0  0  0  0  0  0
  1  2  1  0  0  0  0
  1 25  1  0  0  0  0
  1 10  1  0  0  0  0
  3  1  1  0  0  0  0
  5  4  1  0  0  0  0
  5  6  1  0  0  0  0
  6 18  1  0  0  0  0
  7  6  2  0  0  0  0
  7 11  1  0  0  0  0
  8  7  1  0  0  0  0
  9 10  1  0  0  0  0
  9  8  2  0  0  0  0
 10  5  2  0  0  0  0
 12  8  1  0  0  0  0
 13  9  1  0  0  0  0
 14 15  1  0  0  0  0
 15 16  2  0  0  0  0
 15 21  1  0  0  0  0
 16 22  1  0  0  0  0
 17 16  1  0  0  0  0
 18 17  2  0  0  0  0
 19 18  1  0  0  0  0
 19 14  2  0  0  0  0
 20 14  1  0  0  0  0
 22 24  1  0  0  0  0
 22 23  1  0  0  0  0
 25 27  1  0  0  0  0
 26 25  1  0  0  0  0
 28 25  1  0  0  0  0
 28 30  1  0  0  0  0
 30 29  2  6  0  0  0
 30 31  1  0  0  0  0
 30 33  1  0  0  0  0
 31 32  1  0  0  0  0
 33 35  1  0  0  0  0
 34 35  2  0  0  0  0
 34 41  1  0  0  0  0
 35 36  1  0  0  0  0
 36 37  1  0  0  0  0
 36 38  2  0  0  0  0
 38 39  1  0  0  0  0
 40 38  1  0  0  0  0
 41 40  2  0  0  0  0
 42 43  2  0  0  0  0
 43 44  1  0  0  0  0
 43 34  1  0  0  0  0
 44 46  1  0  0  0  0
 45 42  1  0  0  0  0
 47 44  1  0  0  0  0
M  END
>  <minimizedAffinity>
-6.12679529

$$$$
