
 OpenBabel03272508273D

 43 46  0  0  1  0  0  0  0  0999 V2000
   34.0310   28.9990   47.3640 C   0  0  2  0  0  0  0  0  0  0  0  0
   34.7750   28.2370   48.4540 C   0  0  2  0  0  0  0  0  0  0  0  0
   33.8740   28.1000   49.4750 O   0  0  0  0  0  0  0  0  0  0  0  0
   32.5900   28.1790   49.0080 C   0  0  0  0  0  0  0  0  0  0  0  0
   32.6560   28.3360   47.4990 C   0  0  1  0  0  0  0  0  0  0  0  0
   33.9180   30.0630   47.5980 H   0  0  0  0  0  0  0  0  0  0  0  0
   35.0470   27.2600   48.0080 H   0  0  0  0  0  0  0  0  0  0  0  0
   32.0460   27.2210   49.1730 H   0  0  0  0  0  0  0  0  0  0  0  0
   32.1010   29.0610   49.4340 H   0  0  0  0  0  0  0  0  0  0  0  0
   32.7700   27.3600   46.9960 H   0  0  0  0  0  0  0  0  0  0  0  0
   35.8500   30.4980   49.1170 C   0  0  1  0  0  0  0  0  0  0  0  0
   35.9450   29.0800   48.8590 C   0  0  1  0  0  0  0  0  0  0  0  0
   36.1450   29.5270   50.2700 C   0  0  0  0  0  0  0  0  0  0  0  0
   34.9570   31.0940   49.3560 H   0  0  0  0  0  0  0  0  0  0  0  0
   36.8820   28.7520   48.3190 H   0  0  0  0  0  0  0  0  0  0  0  0
   37.1630   29.4890   50.6930 H   0  0  0  0  0  0  0  0  0  0  0  0
   35.3670   29.3250   51.0190 H   0  0  0  0  0  0  0  0  0  0  0  0
   37.0310   31.4170   48.8450 C   0  0  0  0  0  0  0  0  0  0  0  0
   37.1990   32.5090   49.7200 C   0  0  0  0  0  0  0  0  0  0  0  0
   38.2770   33.3330   49.4100 C   0  0  0  0  0  0  0  0  0  0  0  0
   39.0850   33.0740   48.3360 N   0  0  0  0  0  0  0  0  0  0  0  0
   38.8720   32.0170   47.5380 C   0  0  0  0  0  0  0  0  0  0  0  0
   37.8390   31.1650   47.7780 N   0  0  0  0  0  0  0  0  0  0  0  0
   36.5350   32.6540   50.5400 H   0  0  0  0  0  0  0  0  0  0  0  0
   38.3960   34.1670   50.0880 H   0  0  0  0  0  0  0  0  0  0  0  0
   39.5450   31.8630   46.7050 H   0  0  0  0  0  0  0  0  0  0  0  0
   34.5510   28.8010   46.1010 O   0  0  0  0  0  0  0  0  0  0  0  0
   35.1470   28.0150   46.0500 H   0  0  0  0  0  0  0  0  0  0  0  0
   31.6600   29.1080   46.9910 O   0  0  0  0  0  0  0  0  0  0  0  0
   31.1540   29.6360   44.8620 C   0  0  0  0  0  0  0  0  0  0  0  0
   30.9200   28.7160   45.8950 C   0  0  0  0  0  0  0  0  0  0  0  0
   30.0590   27.6750   45.6280 C   0  0  0  0  0  0  0  0  0  0  0  0
   29.9560   27.0360   46.4900 H   0  0  0  0  0  0  0  0  0  0  0  0
   29.4570   27.5510   44.3990 C   0  0  0  0  0  0  0  0  0  0  0  0
   28.7990   26.7000   44.2960 H   0  0  0  0  0  0  0  0  0  0  0  0
   29.6730   28.4440   43.3720 C   0  0  0  0  0  3  0  0  0  0  0  0
   30.5330   29.4960   43.6140 C   0  0  0  0  0  3  0  0  0  0  0  0
   32.7960   31.2810   43.9450 N   0  0  0  0  0  0  0  0  0  0  0  0
   32.0270   30.8260   44.8950 C   0  0  0  0  0  0  0  0  0  0  0  0
   32.1750   31.6970   46.0010 N   0  0  0  0  0  0  0  0  0  0  0  0
   32.8160   30.7490   43.0270 H   0  0  0  0  0  0  0  0  0  0  0  0
   32.9080   31.5160   46.7410 H   0  0  0  0  0  0  0  0  0  0  0  0
   31.7160   32.5610   46.3340 H   0  0  0  0  0  0  0  0  0  0  0  0
  1  5  1  0  0  0  0
  1  6  1  1  0  0  0
  1  2  1  0  0  0  0
  2  7  1  6  0  0  0
  2 12  1  0  0  0  0
  2  3  1  0  0  0  0
  4  8  1  0  0  0  0
  4  9  1  0  0  0  0
  4  3  1  0  0  0  0
  5 10  1  6  0  0  0
  5  4  1  0  0  0  0
 11 14  1  6  0  0  0
 11 13  1  0  0  0  0
 12 15  1  6  0  0  0
 12 11  1  0  0  0  0
 12 13  1  0  0  0  0
 13 16  1  0  0  0  0
 13 17  1  0  0  0  0
 18 11  1  0  0  0  0
 18 19  1  0  0  0  0
 19 24  1  0  0  0  0
 20 19  2  0  0  0  0
 20 25  1  0  0  0  0
 21 20  1  0  0  0  0
 22 23  1  0  0  0  0
 22 21  2  0  0  0  0
 23 18  2  0  0  0  0
 26 22  1  0  0  0  0
 27  1  1  0  0  0  0
 28 27  1  0  0  0  0
 29  5  1  0  0  0  0
 30 39  1  0  0  0  0
 30 31  1  0  0  0  0
 31 29  1  0  0  0  0
 32 31  2  0  0  0  0
 32 33  1  0  0  0  0
 34 32  1  0  0  0  0
 35 34  1  0  0  0  0
 36 37  1  0  0  0  0
 36 34  2  0  0  0  0
 37 30  2  0  0  0  0
 38 39  2  0  0  0  0
 39 40  1  0  0  0  0
 40 43  1  0  0  0  0
 40 42  1  0  0  0  0
 41 38  1  0  0  0  0
M  END
>  <minimizedAffinity>
-5.06343746

>  <minimizedRMSD>
0.218580857

$$$$
