REMARK  Name = 
REMARK  7 active torsions:
REMARK  status: ('A' for Active; 'I' for Inactive)
REMARK    1  A    between atoms: C_1  and  C_4
REMARK    2  A    between atoms: C_3  and  O_11
REMARK    3  A    between atoms: O_11  and  P_13
REMARK    4  A    between atoms: P_13  and  O_14
REMARK    5  A    between atoms: P_13  and  O_15
REMARK    6  A    between atoms: O_15  and  C_29
REMARK    7  A    between atoms: C_26  and  C_28
REMARK                            x       y       z     vdW  Elec       q    Type
REMARK                         _______ _______ _______ _____ _____    ______ ____
ROOT
ATOM      1  O   UNL     1      36.588  29.307  49.450  0.00  0.00    +0.000 OA
ENDROOT
BRANCH   1   4
ATOM      2  C   UNL     1      36.999  31.557  48.674  0.00  0.00    +0.000 C 
ATOM      3  C   UNL     1      36.226  30.914  47.641  0.00  0.00    +0.000 C 
ATOM      4  C   UNL     1      37.181  30.120  48.473  0.00  0.00    +0.000 C 
ATOM      5  H   UNL     1      36.550  31.831  49.693  0.00  0.00    +0.000 HD
ATOM      6  H   UNL     1      35.197  31.168  47.798  0.00  0.00    +0.000 HD
ATOM      7  H   UNL     1      36.539  31.101  46.593  0.00  0.00    +0.000 HD
ATOM      8  H   UNL     1      37.878  29.598  47.849  0.00  0.00    +0.000 HD
BRANCH   2   9
ATOM      9  C   UNL     1      38.155  32.449  48.328  0.00  0.00    +0.000 A 
ATOM     10  C   UNL     1      38.542  33.375  49.329  0.00  0.00    +0.000 A 
ATOM     11  C   UNL     1      39.597  34.179  48.988  0.00  0.00    +0.000 A 
ATOM     12  N   UNL     1      40.195  34.053  47.758  0.00  0.00    +0.000 NA
ATOM     13  C   UNL     1      39.789  33.157  46.841  0.00  0.00    +0.000 A 
ATOM     14  N   UNL     1      38.736  32.335  47.145  0.00  0.00    +0.000 NA
ATOM     15  N   UNL     1      40.391  33.028  45.575  0.00  0.00    +0.000 N 
ATOM     16  H   UNL     1      38.071  33.474  50.296  0.00  0.00    +0.000 HD
ATOM     17  H   UNL     1      39.938  34.907  49.716  0.00  0.00    +0.000 HD
ATOM     18  H   UNL     1      40.980  32.288  45.140  0.00  0.00    +0.000 HD
ATOM     19  H   UNL     1      40.087  33.929  45.126  0.00  0.00    +0.000 HD
ENDBRANCH   2   9
ENDBRANCH   1   4
BRANCH   1  21
ATOM     20  O   UNL     1      34.607  27.673  49.689  0.00  0.00    +0.000 OA
ATOM     21  P   UNL     1      35.010  28.959  49.045  0.00  0.00    +0.000 P 
BRANCH  21  22
ATOM     22  O   UNL     1      33.964  30.157  49.715  0.00  0.00    +0.000 OA
ATOM     23  H   UNL     1      33.810  29.936  50.677  0.00  0.00    +0.000 HD
ENDBRANCH  21  22
BRANCH  21  24
ATOM     24  O   UNL     1      34.873  28.945  47.362  0.00  0.00    +0.000 OA
BRANCH  24  26
ATOM     25  C   UNL     1      33.571  28.037  45.658  0.00  0.00    +0.000 A 
ATOM     26  C   UNL     1      33.647  28.950  46.709  0.00  0.00    +0.000 A 
ATOM     27  C   UNL     1      32.563  29.750  47.013  0.00  0.00    +0.000 A 
ATOM     28  H   UNL     1      32.700  30.429  47.839  0.00  0.00    +0.000 HD
ATOM     29  C   UNL     1      31.398  29.651  46.277  0.00  0.00    +0.000 A 
ATOM     30  H   UNL     1      30.559  30.297  46.543  0.00  0.00    +0.000 HD
ATOM     31  C   UNL     1      31.336  28.739  45.235  0.00  0.00    +0.000 A 
ATOM     32  C   UNL     1      32.404  27.945  44.928  0.00  0.00    +0.000 A 
BRANCH  25  34
ATOM     33  N   UNL     1      34.952  26.692  44.108  0.00  0.00    +0.000 NA
ATOM     34  C   UNL     1      34.668  27.161  45.277  0.00  0.00    +0.000 C 
ATOM     35  N   UNL     1      35.545  26.759  46.291  0.00  0.00    +0.000 N 
ATOM     36  H   UNL     1      34.392  26.899  43.245  0.00  0.00    +0.000 HD
ATOM     37  H   UNL     1      36.202  26.466  47.037  0.00  0.00    +0.000 HD
ATOM     38  H   UNL     1      35.020  26.167  46.953  0.00  0.00    +0.000 HD
ENDBRANCH  25  34
ENDBRANCH  24  26
ENDBRANCH  21  24
ENDBRANCH   1  21
TORSDOF 7
