
 OpenBabel03272508273D

 43 46  0  0  1  0  0  0  0  0999 V2000
   33.9620   29.0430   47.3580 C   0  0  2  0  0  0  0  0  0  0  0  0
   34.7450   28.2430   48.3930 C   0  0  2  0  0  0  0  0  0  0  0  0
   33.8670   28.0310   49.4230 O   0  0  0  0  0  0  0  0  0  0  0  0
   32.5730   28.1030   48.9840 C   0  0  0  0  0  0  0  0  0  0  0  0
   32.6060   28.3400   47.4840 C   0  0  1  0  0  0  0  0  0  0  0  0
   33.8290   30.0890   47.6500 H   0  0  0  0  0  0  0  0  0  0  0  0
   35.0310   27.2970   47.8920 H   0  0  0  0  0  0  0  0  0  0  0  0
   32.0550   27.1250   49.1080 H   0  0  0  0  0  0  0  0  0  0  0  0
   32.0720   28.9490   49.4630 H   0  0  0  0  0  0  0  0  0  0  0  0
   32.7330   27.3950   46.9290 H   0  0  0  0  0  0  0  0  0  0  0  0
   35.8020   30.5150   49.0450 C   0  0  1  0  0  0  0  0  0  0  0  0
   35.9020   29.0930   48.8210 C   0  0  1  0  0  0  0  0  0  0  0  0
   36.0540   29.5690   50.2280 C   0  0  0  0  0  0  0  0  0  0  0  0
   34.9030   31.1190   49.2410 H   0  0  0  0  0  0  0  0  0  0  0  0
   36.8560   28.7510   48.3210 H   0  0  0  0  0  0  0  0  0  0  0  0
   37.0570   29.5370   50.6870 H   0  0  0  0  0  0  0  0  0  0  0  0
   35.2500   29.3850   50.9540 H   0  0  0  0  0  0  0  0  0  0  0  0
   36.9950   31.4260   48.7960 C   0  0  0  0  0  0  0  0  0  0  0  0
   37.1770   32.4940   49.6970 C   0  0  0  0  0  0  0  0  0  0  0  0
   38.2650   33.3120   49.4060 C   0  0  0  0  0  0  0  0  0  0  0  0
   39.0690   33.0700   48.3250 N   0  0  0  0  0  0  0  0  0  0  0  0
   38.8420   32.0350   47.5020 C   0  0  0  0  0  0  0  0  0  0  0  0
   37.7990   31.1910   47.7220 N   0  0  0  0  0  0  0  0  0  0  0  0
   36.5150   32.6270   50.5210 H   0  0  0  0  0  0  0  0  0  0  0  0
   38.3950   34.1270   50.1040 H   0  0  0  0  0  0  0  0  0  0  0  0
   39.5120   31.8930   46.6640 H   0  0  0  0  0  0  0  0  0  0  0  0
   34.4620   28.9230   46.0780 O   0  0  0  0  0  0  0  0  0  0  0  0
   35.0750   28.1550   45.9760 H   0  0  0  0  0  0  0  0  0  0  0  0
   31.5830   29.1130   47.0340 O   0  0  0  0  0  0  0  0  0  0  0  0
   30.3050   29.1730   45.1820 C   0  0  0  0  0  0  0  0  0  0  0  0
   30.4640   28.5690   46.4380 C   0  0  0  0  0  0  0  0  0  0  0  0
   29.5370   27.6180   46.8010 C   0  0  0  0  0  0  0  0  0  0  0  0
   29.7590   27.2250   47.7810 H   0  0  0  0  0  0  0  0  0  0  0  0
   28.5020   27.2810   45.9610 C   0  0  0  0  0  0  0  0  0  0  0  0
   27.8320   26.5240   46.3430 H   0  0  0  0  0  0  0  0  0  0  0  0
   28.3290   27.8620   44.7250 C   0  0  0  0  0  3  0  0  0  0  0  0
   29.2460   28.8190   44.3380 C   0  0  0  0  0  3  0  0  0  0  0  0
   31.5440   30.2930   43.3230 N   0  0  0  0  0  0  0  0  0  0  0  0
   31.1570   30.2100   44.5670 C   0  0  0  0  0  0  0  0  0  0  0  0
   31.7100   31.3200   45.2490 N   0  0  0  0  0  0  0  0  0  0  0  0
   31.2220   29.5370   42.6530 H   0  0  0  0  0  0  0  0  0  0  0  0
   32.6550   31.2560   45.7170 H   0  0  0  0  0  0  0  0  0  0  0  0
   31.4190   32.2930   45.4450 H   0  0  0  0  0  0  0  0  0  0  0  0
  1  5  1  0  0  0  0
  1  6  1  1  0  0  0
  1  2  1  0  0  0  0
  2  7  1  6  0  0  0
  2 12  1  0  0  0  0
  2  3  1  0  0  0  0
  4  8  1  0  0  0  0
  4  3  1  0  0  0  0
  4  9  1  0  0  0  0
  5 10  1  6  0  0  0
  5  4  1  0  0  0  0
 11 14  1  6  0  0  0
 11 13  1  0  0  0  0
 12 15  1  6  0  0  0
 12 11  1  0  0  0  0
 12 13  1  0  0  0  0
 13 16  1  0  0  0  0
 13 17  1  0  0  0  0
 18 11  1  0  0  0  0
 18 19  1  0  0  0  0
 19 24  1  0  0  0  0
 20 19  2  0  0  0  0
 20 25  1  0  0  0  0
 21 20  1  0  0  0  0
 22 23  1  0  0  0  0
 22 21  2  0  0  0  0
 23 18  2  0  0  0  0
 26 22  1  0  0  0  0
 27  1  1  0  0  0  0
 28 27  1  0  0  0  0
 29  5  1  0  0  0  0
 30 31  1  0  0  0  0
 31 32  2  0  0  0  0
 31 29  1  0  0  0  0
 32 33  1  0  0  0  0
 34 35  1  0  0  0  0
 34 32  1  0  0  0  0
 36 34  2  0  0  0  0
 37 36  1  0  0  0  0
 37 30  2  0  0  0  0
 38 39  2  0  0  0  0
 39 30  1  0  0  0  0
 39 40  1  0  0  0  0
 40 43  1  0  0  0  0
 40 42  1  0  0  0  0
 41 38  1  0  0  0  0
M  END
>  <minimizedAffinity>
-5.01350164

>  <minimizedRMSD>
1.04152846

$$$$
