
 OpenBabel03272504573D

 38 40  0  0  1  0  0  0  0  0999 V2000
   36.6170   29.2410   49.2920 O   0  0  0  0  0  0  0  0  0  0  0  0
   37.0200   31.5180   48.5950 C   0  0  1  0  0  0  0  0  0  0  0  0
   36.2580   30.9060   47.5360 C   0  0  0  0  0  0  0  0  0  0  0  0
   37.2120   30.0900   48.3470 C   0  0  2  0  0  0  0  0  0  0  0  0
   36.5630   31.7550   49.6200 H   0  0  0  0  0  0  0  0  0  0  0  0
   35.2260   31.1490   47.6950 H   0  0  0  0  0  0  0  0  0  0  0  0
   36.5760   31.1300   46.4970 H   0  0  0  0  0  0  0  0  0  0  0  0
   37.9160   29.5930   47.7110 H   0  0  0  0  0  0  0  0  0  0  0  0
   38.1740   32.4270   48.2870 C   0  0  0  0  0  0  0  0  0  0  0  0
   38.5130   33.3600   49.3000 C   0  0  0  0  0  0  0  0  0  0  0  0
   39.5660   34.1800   48.9930 C   0  0  0  0  0  0  0  0  0  0  0  0
   40.2070   34.0620   47.7840 N   0  0  0  0  0  0  0  0  0  0  0  0
   39.8450   33.1600   46.8550 C   0  0  0  0  0  0  0  0  0  0  0  0
   38.7950   32.3220   47.1240 N   0  0  0  0  0  0  0  0  0  0  0  0
   40.4910   33.0390   45.6090 N   0  0  0  0  0  0  0  0  0  0  0  0
   38.0080   33.4520   50.2500 H   0  0  0  0  0  0  0  0  0  0  0  0
   39.8720   34.9130   49.7310 H   0  0  0  0  0  0  0  0  0  0  0  0
   41.1050   32.3080   45.1950 H   0  0  0  0  0  0  0  0  0  0  0  0
   40.1880   33.9350   45.1500 H   0  0  0  0  0  0  0  0  0  0  0  0
   34.4940   27.8380   49.7140 O   0  0  0  0  0  0  0  0  0  0  0  0
   35.0050   29.0100   48.9420 P   0  0  1  0  0  0  0  0  0  0  0  0
   34.0920   30.3630   49.5020 O   0  0  0  0  0  0  0  0  0  0  0  0
   33.9380   30.2530   50.4830 H   0  0  0  0  0  0  0  0  0  0  0  0
   34.8320   28.8470   47.2700 O   0  0  0  0  0  0  0  0  0  0  0  0
   33.0760   27.8490   46.1100 C   0  0  0  0  0  0  0  0  0  0  0  0
   33.6180   29.0280   46.6200 C   0  0  0  0  0  0  0  0  0  0  0  0
   32.9510   30.2270   46.4550 C   0  0  0  0  0  0  0  0  0  0  0  0
   33.4340   31.0930   46.8780 H   0  0  0  0  0  0  0  0  0  0  0  0
   31.7450   30.2640   45.7830 C   0  0  0  0  0  0  0  0  0  0  0  0
   31.2420   31.2260   45.6700 H   0  0  0  0  0  0  0  0  0  0  0  0
   31.2170   29.0840   45.2820 C   0  0  0  0  0  3  0  0  0  0  0  0
   31.8710   27.8950   45.4400 C   0  0  0  0  0  3  0  0  0  0  0  0
   34.3160   25.8540   45.3350 N   0  0  0  0  0  0  0  0  0  0  0  0
   33.7170   26.5500   46.2430 C   0  0  0  0  0  0  0  0  0  0  0  0
   33.6970   25.9550   47.5090 N   0  0  0  0  0  0  0  0  0  0  0  0
   34.4150   26.1600   44.3360 H   0  0  0  0  0  0  0  0  0  0  0  0
   33.6920   25.5150   48.4480 H   0  0  0  0  0  0  0  0  0  0  0  0
   32.7170   25.7340   47.7440 H   0  0  0  0  0  0  0  0  0  0  0  0
  2  5  1  1  0  0  0
  3  6  1  0  0  0  0
  3  4  1  0  0  0  0
  3  2  1  0  0  0  0
  4  8  1  6  0  0  0
  4  2  1  0  0  0  0
  4  1  1  0  0  0  0
  7  3  1  0  0  0  0
  9  2  1  0  0  0  0
  9 10  1  0  0  0  0
 10 16  1  0  0  0  0
 11 10  2  0  0  0  0
 11 17  1  0  0  0  0
 12 11  1  0  0  0  0
 13 14  1  0  0  0  0
 13 12  2  0  0  0  0
 14  9  2  0  0  0  0
 15 13  1  0  0  0  0
 18 15  1  0  0  0  0
 19 15  1  0  0  0  0
 21  1  1  0  0  0  0
 21 22  1  0  0  0  0
 21 20  2  1  0  0  0
 22 23  1  0  0  0  0
 24 21  1  0  0  0  0
 25 34  1  0  0  0  0
 25 26  1  0  0  0  0
 26 24  1  0  0  0  0
 27 26  2  0  0  0  0
 27 28  1  0  0  0  0
 29 27  1  0  0  0  0
 30 29  1  0  0  0  0
 31 32  1  0  0  0  0
 31 29  2  0  0  0  0
 32 25  2  0  0  0  0
 33 34  2  0  0  0  0
 34 35  1  0  0  0  0
 35 38  1  0  0  0  0
 35 37  1  0  0  0  0
 36 33  1  0  0  0  0
M  END
>  <minimizedAffinity>
-4.85246086

>  <minimizedRMSD>
0.743017435

$$$$
