
 OpenBabel03272504573D

 38 40  0  0  1  0  0  0  0  0999 V2000
   34.3200   27.8050   48.6470 O   0  0  0  0  0  0  0  0  0  0  0  0
   36.1520   29.1140   49.5200 C   0  0  1  0  0  0  0  0  0  0  0  0
   35.1220   29.1490   50.5280 C   0  0  0  0  0  0  0  0  0  0  0  0
   34.7590   29.0650   49.0800 C   0  0  2  0  0  0  0  0  0  0  0  0
   36.7480   28.1620   49.2870 H   0  0  0  0  0  0  0  0  0  0  0  0
   35.3410   28.3840   51.2450 H   0  0  0  0  0  0  0  0  0  0  0  0
   34.9340   30.1270   51.0160 H   0  0  0  0  0  0  0  0  0  0  0  0
   34.0960   29.8630   48.8130 H   0  0  0  0  0  0  0  0  0  0  0  0
   36.9360   30.3470   49.1770 C   0  0  0  0  0  0  0  0  0  0  0  0
   36.6430   31.5000   49.9480 C   0  0  0  0  0  0  0  0  0  0  0  0
   37.3690   32.6120   49.6140 C   0  0  0  0  0  0  0  0  0  0  0  0
   38.2970   32.5550   48.6030 N   0  0  0  0  0  0  0  0  0  0  0  0
   38.5390   31.4350   47.9000 C   0  0  0  0  0  0  0  0  0  0  0  0
   37.8310   30.3010   48.2040 N   0  0  0  0  0  0  0  0  0  0  0  0
   39.4810   31.3710   46.8570 N   0  0  0  0  0  0  0  0  0  0  0  0
   35.9120   31.5440   50.7420 H   0  0  0  0  0  0  0  0  0  0  0  0
   37.1870   33.5240   50.1710 H   0  0  0  0  0  0  0  0  0  0  0  0
   40.4030   30.8970   46.7590 H   0  0  0  0  0  0  0  0  0  0  0  0
   39.0050   31.9660   46.1320 H   0  0  0  0  0  0  0  0  0  0  0  0
   32.1920   26.4330   48.1560 O   0  0  0  0  0  0  0  0  0  0  0  0
   32.6860   27.8330   48.3220 P   0  0  1  0  0  0  0  0  0  0  0  0
   31.8370   28.4620   49.6870 O   0  0  0  0  0  0  0  0  0  0  0  0
   31.7340   27.7290   50.3570 H   0  0  0  0  0  0  0  0  0  0  0  0
   32.4180   28.8100   46.9710 O   0  0  0  0  0  0  0  0  0  0  0  0
   31.1380   30.1220   45.5360 C   0  0  0  0  0  0  0  0  0  0  0  0
   31.1450   29.1390   46.5240 C   0  0  0  0  0  0  0  0  0  0  0  0
   29.9580   28.5900   46.9650 C   0  0  0  0  0  0  0  0  0  0  0  0
   30.0460   27.8350   47.7290 H   0  0  0  0  0  0  0  0  0  0  0  0
   28.7550   29.0120   46.4300 C   0  0  0  0  0  0  0  0  0  0  0  0
   27.8340   28.5590   46.8000 H   0  0  0  0  0  0  0  0  0  0  0  0
   28.7630   29.9910   45.4480 C   0  0  0  0  0  3  0  0  0  0  0  0
   29.9340   30.5390   45.0070 C   0  0  0  0  0  3  0  0  0  0  0  0
   32.6290   32.0050   44.9410 N   0  0  0  0  0  0  0  0  0  0  0  0
   32.3460   30.7480   45.0200 C   0  0  0  0  0  0  0  0  0  0  0  0
   33.3490   29.8990   44.5390 N   0  0  0  0  0  0  0  0  0  0  0  0
   31.9820   32.7690   45.2600 H   0  0  0  0  0  0  0  0  0  0  0  0
   34.0970   29.2720   44.1890 H   0  0  0  0  0  0  0  0  0  0  0  0
   32.9850   29.4150   43.7030 H   0  0  0  0  0  0  0  0  0  0  0  0
  1  4  1  0  0  0  0
  2  5  1  6  0  0  0
  2  3  1  0  0  0  0
  3  7  1  0  0  0  0
  3  6  1  0  0  0  0
  4  8  1  6  0  0  0
  4  2  1  0  0  0  0
  4  3  1  0  0  0  0
  9  2  1  0  0  0  0
  9 10  1  0  0  0  0
 10 16  1  0  0  0  0
 11 10  2  0  0  0  0
 11 17  1  0  0  0  0
 12 11  1  0  0  0  0
 13 14  1  0  0  0  0
 13 12  2  0  0  0  0
 14  9  2  0  0  0  0
 15 13  1  0  0  0  0
 18 15  1  0  0  0  0
 19 15  1  0  0  0  0
 21 20  2  6  0  0  0
 21  1  1  0  0  0  0
 21 22  1  0  0  0  0
 22 23  1  0  0  0  0
 24 21  1  0  0  0  0
 25 26  1  0  0  0  0
 26 27  2  0  0  0  0
 26 24  1  0  0  0  0
 27 28  1  0  0  0  0
 29 30  1  0  0  0  0
 29 27  1  0  0  0  0
 31 29  2  0  0  0  0
 32 31  1  0  0  0  0
 32 25  2  0  0  0  0
 33 34  2  0  0  0  0
 33 36  1  0  0  0  0
 34 25  1  0  0  0  0
 35 34  1  0  0  0  0
 37 35  1  0  0  0  0
 38 35  1  0  0  0  0
M  END
>  <minimizedAffinity>
-5.63248444

>  <minimizedRMSD>
2.6989994

$$$$
