
 OpenBabel03272510103D

 33 35  0  0  0  0  0  0  0  0999 V2000
   37.7400   31.0890   47.9200 C   0  0  0  0  0  0  0  0  0  0  0  0
   38.7910   31.9420   47.7990 C   0  0  0  0  0  0  0  0  0  0  0  0
   39.2170   32.4790   46.6030 C   0  0  0  0  0  0  0  0  0  0  0  0
   38.5660   32.1570   45.4430 C   0  0  0  0  0  0  0  0  0  0  0  0
   37.4890   31.2790   45.5790 C   0  0  0  0  0  0  0  0  0  0  0  0
   37.1050   30.7770   46.7640 N   0  0  0  0  0  0  0  0  0  0  0  0
   39.3400   32.2280   48.6950 H   0  0  0  0  0  0  0  0  0  0  0  0
   40.0530   33.1600   46.4960 H   0  0  0  0  0  0  0  0  0  0  0  0
   36.9190   30.9740   44.7000 H   0  0  0  0  0  0  0  0  0  0  0  0
   37.9160   30.7970   50.4210 C   0  0  0  0  0  0  0  0  0  0  0  0
   37.2960   30.5260   49.1780 C   0  0  0  0  0  0  0  0  0  0  0  0
   36.2030   29.6720   49.1850 C   0  0  0  0  0  0  0  0  0  0  0  0
   35.7840   29.1410   50.3750 N   0  0  0  0  0  0  0  0  0  0  0  0
   36.4010   29.4260   51.5280 C   0  0  0  0  0  0  0  0  0  0  0  0
   37.4700   30.2530   51.5680 N   0  0  0  0  0  0  0  0  0  0  0  0
   38.7640   31.4670   50.3690 H   0  0  0  0  0  0  0  0  0  0  0  0
   35.6910   29.4310   48.2630 H   0  0  0  0  0  0  0  0  0  0  0  0
   36.0290   28.9780   52.4440 H   0  0  0  0  0  0  0  0  0  0  0  0
   38.8560   32.6010   44.1560 O   0  0  0  0  0  0  0  0  0  0  0  0
   38.5450   31.5150   42.0940 C   0  0  0  0  0  0  0  0  0  0  0  0
   39.3410   31.6970   43.2260 C   0  0  0  0  0  0  0  0  0  0  0  0
   40.5010   30.9680   43.2890 C   0  0  0  0  0  0  0  0  0  0  0  0
   41.0990   31.1250   44.1710 H   0  0  0  0  0  0  0  0  0  0  0  0
   40.8590   30.1050   42.2910 C   0  0  0  0  0  0  0  0  0  0  0  0
   41.7860   29.5310   42.3540 H   0  0  0  0  0  0  0  0  0  0  0  0
   40.0620   29.9300   41.1680 C   0  0  0  0  0  3  0  0  0  0  0  0
   38.8880   30.6510   41.0780 C   0  0  0  0  0  3  0  0  0  0  0  0
   36.9040   33.4220   42.2900 N   0  0  0  0  0  0  0  0  0  0  0  0
   37.2840   32.2440   41.9230 C   0  0  0  0  0  0  0  0  0  0  0  0
   36.1850   31.6440   41.2380 N   0  0  0  0  0  0  0  0  0  0  0  0
   37.5110   34.0790   42.8110 H   0  0  0  0  0  0  0  0  0  0  0  0
   35.4380   30.9360   41.3670 H   0  0  0  0  0  0  0  0  0  0  0  0
   35.7810   31.7810   40.2770 H   0  0  0  0  0  0  0  0  0  0  0  0
  1 11  1  0  0  0  0
  2  1  1  0  0  0  0
  2  7  1  0  0  0  0
  3  2  2  0  0  0  0
  4  5  2  0  0  0  0
  4  3  1  0  0  0  0
  5  6  1  0  0  0  0
  6  1  2  0  0  0  0
  8  3  1  0  0  0  0
  9  5  1  0  0  0  0
 10 15  1  0  0  0  0
 11 12  1  0  0  0  0
 11 10  2  0  0  0  0
 12 13  2  0  0  0  0
 13 14  1  0  0  0  0
 14 15  2  0  0  0  0
 14 18  1  0  0  0  0
 16 10  1  0  0  0  0
 17 12  1  0  0  0  0
 19  4  1  0  0  0  0
 20 21  1  0  0  0  0
 21 22  2  0  0  0  0
 21 19  1  0  0  0  0
 22 23  1  0  0  0  0
 24 25  1  0  0  0  0
 24 22  1  0  0  0  0
 26 24  2  0  0  0  0
 27 26  1  0  0  0  0
 27 20  2  0  0  0  0
 28 31  1  0  0  0  0
 29 20  1  0  0  0  0
 29 28  2  0  0  0  0
 30 32  1  0  0  0  0
 30 29  1  0  0  0  0
 33 30  1  0  0  0  0
M  END
>  <minimizedAffinity>
-5.41760683

>  <minimizedRMSD>
3.92447114

$$$$
