
 OpenBabel03272500003D

 34 36  0  0  0  0  0  0  0  0999 V2000
   34.8340   29.3890   46.5290 C   0  0  0  0  0  0  0  0  0  0  0  0
   35.3280   29.7920   45.2520 C   0  0  0  0  0  0  0  0  0  0  0  0
   34.7220   29.2240   44.1510 C   0  0  0  0  0  0  0  0  0  0  0  0
   33.7110   28.3310   44.3240 N   0  0  0  0  0  0  0  0  0  0  0  0
   33.2700   27.9750   45.5400 C   0  0  0  0  0  0  0  0  0  0  0  0
   33.8320   28.5040   46.6750 N   0  0  0  0  0  0  0  0  0  0  0  0
   35.2590   29.7910   47.4540 H   0  0  0  0  0  0  0  0  0  0  0  0
   35.0760   29.5210   43.1950 H   0  0  0  0  0  0  0  0  0  0  0  0
   32.1490   27.8920   48.4460 Br  0  0  0  0  0  0  0  0  0  0  0  0
   31.5850   26.8680   46.9580 C   0  0  0  0  0  0  0  0  0  0  0  0
   32.1830   27.0220   45.7410 C   0  0  0  0  0  0  0  0  0  0  0  0
   31.7120   26.2310   44.6910 C   0  0  0  0  0  0  0  0  0  0  0  0
   30.6910   25.3140   44.8070 C   0  0  0  0  0  0  0  0  0  0  0  0
   30.1180   25.1990   46.0770 C   0  0  0  0  0  0  0  0  0  0  0  0
   30.5760   25.9820   47.1390 C   0  0  0  0  0  0  0  0  0  0  0  0
   32.1810   26.3460   43.7140 H   0  0  0  0  0  0  0  0  0  0  0  0
   30.3910   24.7480   43.9520 H   0  0  0  0  0  0  0  0  0  0  0  0
   29.3110   24.4850   46.2000 H   0  0  0  0  0  0  0  0  0  0  0  0
   30.0460   25.7990   48.0810 H   0  0  0  0  0  0  0  0  0  0  0  0
   36.3470   30.7020   45.2520 O   0  0  0  0  0  0  0  0  0  0  0  0
   38.8470   31.0900   45.1310 C   0  0  0  0  0  0  0  0  0  0  0  0
   37.5990   30.6600   44.7820 C   0  0  0  0  0  0  0  0  0  0  0  0
   37.5650   29.9520   43.5700 C   0  0  0  0  0  0  0  0  0  0  0  0
   36.7210   29.4870   43.0330 H   0  0  0  0  0  0  0  0  0  0  0  0
   38.7280   29.7300   42.8210 C   0  0  0  0  0  0  0  0  0  0  0  0
   38.7990   29.2010   41.8830 H   0  0  0  0  0  0  0  0  0  0  0  0
   39.9490   30.2010   43.2490 C   0  0  0  0  0  3  0  0  0  0  0  0
   40.0130   30.8980   44.4310 C   0  0  0  0  0  3  0  0  0  0  0  0
   40.0660   31.8090   46.9950 N   0  0  0  0  0  0  0  0  0  0  0  0
   38.9280   31.8330   46.3650 C   0  0  0  0  0  0  0  0  0  0  0  0
   38.3810   32.6550   47.3390 N   0  0  0  0  0  0  0  0  0  0  0  0
   40.8850   31.2780   46.6400 H   0  0  0  0  0  0  0  0  0  0  0  0
   38.3240   33.7130   47.2750 H   0  0  0  0  0  0  0  0  0  0  0  0
   37.9520   32.4610   48.2460 H   0  0  0  0  0  0  0  0  0  0  0  0
  1  6  1  0  0  0  0
  1  7  1  0  0  0  0
  2  1  2  0  0  0  0
  3  4  2  0  0  0  0
  3  2  1  0  0  0  0
  4  5  1  0  0  0  0
  5 11  1  0  0  0  0
  5  6  2  0  0  0  0
  8  3  1  0  0  0  0
 10 15  1  0  0  0  0
 10  9  1  0  0  0  0
 11 10  2  0  0  0  0
 12 13  2  0  0  0  0
 12 11  1  0  0  0  0
 13 14  1  0  0  0  0
 14 18  1  0  0  0  0
 14 15  2  0  0  0  0
 15 19  1  0  0  0  0
 16 12  1  0  0  0  0
 17 13  1  0  0  0  0
 20  2  1  0  0  0  0
 21 30  1  0  0  0  0
 22 21  1  0  0  0  0
 22 20  1  0  0  0  0
 23 22  2  0  0  0  0
 24 23  1  0  0  0  0
 25 27  2  0  0  0  0
 25 23  1  0  0  0  0
 26 25  1  0  0  0  0
 27 28  1  0  0  0  0
 28 21  2  0  0  0  0
 30 29  2  0  0  0  0
 30 31  1  0  0  0  0
 31 34  1  0  0  0  0
 32 29  1  0  0  0  0
 33 31  1  0  0  0  0
M  END
>  <minimizedAffinity>
-3.47591734

>  <minimizedRMSD>
6.54956102

$$$$
