
     RDKit          3D

 36 38  0  0  0  0  0  0  0  0999 V2000
   36.9751   31.4196   48.5842 N   0  0  0  0  0  0  0  0  0  0  0  0
   37.1633   32.1620   49.6692 C   0  0  0  0  0  0  0  0  0  0  0  0
   38.1540   33.1429   49.6782 C   0  0  0  0  0  0  0  0  0  0  0  0
   38.8764   33.2552   48.5098 C   0  0  0  0  0  0  0  0  0  0  0  0
   39.7786   34.1411   48.5027 O   0  0  0  0  0  0  0  0  0  0  0  0
   38.7153   32.5285   47.4034 N   0  0  0  0  0  0  0  0  0  0  0  0
   37.7351   31.5894   47.4560 C   0  0  0  0  0  0  0  0  0  0  0  0
   37.5765   30.8872   46.3936 O   0  0  0  0  0  0  0  0  0  0  0  0
   36.1593   29.2544   49.3182 C   0  0  0  0  0  0  0  0  0  0  0  0
   35.9875   30.4052   48.5032 C   0  0  0  0  0  0  0  0  0  0  0  0
   34.8717   30.4537   47.6773 C   0  0  0  0  0  0  0  0  0  0  0  0
   34.0025   29.3992   47.6898 N   0  0  0  0  0  0  0  0  0  0  0  0
   34.1768   28.3314   48.4552 C   0  0  0  0  0  0  0  0  0  0  0  0
   35.2694   28.2457   49.2884 N   0  0  0  0  0  0  0  0  0  0  0  0
   33.3126   27.2575   48.4778 O   0  0  0  0  0  0  0  0  0  0  0  0
   36.5318   31.9706   50.5089 H   0  0  0  0  0  0  0  0  0  0  0  0
   38.3107   33.7439   50.5486 H   0  0  0  0  0  0  0  0  0  0  0  0
   39.2974   32.6734   46.5680 H   0  0  0  0  0  0  0  0  0  0  0  0
   37.0355   29.2272   49.9612 H   0  0  0  0  0  0  0  0  0  0  0  0
   34.7494   31.3262   47.0662 H   0  0  0  0  0  0  0  0  0  0  0  0
   29.3836   27.8717   49.6986 N   0  0  0  0  0  0  0  0  0  0  0  0
   30.5048   27.2640   49.3819 C   0  0  0  0  0  0  0  0  0  0  0  0
   30.7499   26.9874   50.7414 N   0  0  0  0  0  0  0  0  0  0  0  0
   30.8826   27.1885   47.9993 C   0  0  0  0  0  0  0  0  0  0  0  0
   32.2186   27.2045   47.6744 C   0  0  0  0  0  0  0  0  0  0  0  0
   32.5265   27.1617   46.3116 C   0  0  0  0  0  0  0  0  0  0  0  0
   33.5442   27.1690   45.9003 H   0  0  0  0  0  0  0  0  0  0  0  0
   31.4984   27.1062   45.3969 C   0  0  0  0  0  0  0  0  0  0  0  0
   31.7051   27.0721   44.3423 H   0  0  0  0  0  0  0  0  0  0  0  0
   30.1806   27.0909   45.7622 C   0  0  0  0  0  0  0  0  0  0  0  0
   29.8607   27.1324   47.0794 C   0  0  0  0  0  0  0  0  0  0  0  0
   28.7529   28.3003   49.0163 H   0  0  0  0  0  0  0  0  0  0  0  0
   31.2875   27.6190   51.4082 H   0  0  0  0  0  0  0  0  0  0  0  0
   30.4286   26.1133   51.2564 H   0  0  0  0  0  0  0  0  0  0  0  0
   29.3989   27.0460   45.0090 H   0  0  0  0  0  0  0  0  0  0  0  0
   28.8208   27.1190   47.3691 H   0  0  0  0  0  0  0  0  0  0  0  0
  1  2  1  0
  2  3  2  0
  4  5  2  0
  4  3  1  0
  6  7  1  0
  6  4  1  0
  7  1  1  0
  8  7  2  0
 10  1  1  0
 10  9  2  0
 11 12  2  0
 11 10  1  0
 12 13  1  0
 13 15  1  0
 13 14  2  0
 14  9  1  0
  2 16  1  0
  3 17  1  0
  6 18  1  0
  9 19  1  0
 11 20  1  0
 21 22  2  3
 22 23  1  0
 22 24  1  0
 24 25  2  0
 25 26  1  0
 26 27  1  0
 26 28  2  0
 28 29  1  0
 28 30  1  0
 30 31  2  0
 31 24  1  0
 21 32  1  0
 23 33  1  0
 23 34  1  0
 30 35  1  0
 31 36  1  0
 15 25  1  0
M  ISO  7  16  14  17  14  18   9  19  14  20  14  27  15  29  16
M  END
>  <DihAtoms>  (1) 
12,14,24,23

>  <DihDeg>  (1) 
64.15965552606403

$$$$
