
     RDKit          3D

 33 35  0  0  0  0  0  0  0  0999 V2000
   37.5209   31.4071   49.3232 C   0  0  0  0  0  0  0  0  0  0  0  0
   38.1612   32.6452   49.4017 C   0  0  0  0  0  0  0  0  0  0  0  0
   38.9478   32.9763   48.3144 C   0  0  0  0  0  0  0  0  0  0  0  0
   39.0670   32.1157   47.2424 N   0  0  0  0  0  0  0  0  0  0  0  0
   38.4245   30.9287   47.2182 C   0  0  0  0  0  0  0  0  0  0  0  0
   37.6368   30.5566   48.2681 N   0  0  0  0  0  0  0  0  0  0  0  0
   36.6326   31.0376   50.4935 C   0  0  1  0  0  0  0  0  0  0  0  0
   36.1451   29.6747   50.6503 C   0  0  2  0  0  0  0  0  0  0  0  0
   37.3388   30.1052   51.4832 C   0  0  0  0  0  0  0  0  0  0  0  0
   36.4014   28.7409   49.6841 O   0  0  0  0  0  0  0  0  0  0  0  0
   38.0314   33.2789   50.2656 H   0  0  0  0  0  0  0  0  0  0  0  0
   39.4592   33.9288   48.3428 H   0  0  0  0  0  0  0  0  0  0  0  0
   38.5453   30.2837   46.3580 H   0  0  0  0  0  0  0  0  0  0  0  0
   36.1706   31.9515   50.9451 H   0  0  0  0  0  0  0  0  0  0  0  0
   35.1854   29.5672   51.2331 H   0  0  0  0  0  0  0  0  0  0  0  0
   37.1425   30.3446   52.5270 H   0  0  0  0  0  0  0  0  0  0  0  0
   38.3287   29.7201   51.2391 H   0  0  0  0  0  0  0  0  0  0  0  0
   35.6718   28.6623   46.4974 N   0  0  0  0  0  0  0  0  0  0  0  0
   34.6125   28.6661   47.2412 C   0  0  0  0  0  0  0  0  0  0  0  0
   33.5799   29.6530   47.0864 N   0  0  0  0  0  0  0  0  0  0  0  0
   34.7820   27.5361   48.1304 C   0  0  0  0  0  0  0  0  0  0  0  0
   35.6429   27.7367   49.1801 C   0  0  0  0  0  0  0  0  0  0  0  0
   35.8352   26.6191   50.0095 C   0  0  0  0  0  0  0  0  0  0  0  0
   36.4646   26.5059   50.9090 H   0  0  0  0  0  0  0  0  0  0  0  0
   35.1947   25.3983   49.7798 C   0  0  0  0  0  0  0  0  0  0  0  0
   35.2881   24.4970   50.3660 H   0  0  0  0  0  0  0  0  0  0  0  0
   34.3427   25.2727   48.7063 C   0  0  0  0  0  0  0  0  0  0  0  0
   34.1415   26.3496   47.8838 C   0  0  0  0  0  0  0  0  0  0  0  0
   35.8683   29.3404   45.7522 H   0  0  0  0  0  0  0  0  0  0  0  0
   33.2624   29.8079   46.0914 H   0  0  0  0  0  0  0  0  0  0  0  0
   33.0949   30.2376   47.7860 H   0  0  0  0  0  0  0  0  0  0  0  0
   33.8051   24.3580   48.4577 H   0  0  0  0  0  0  0  0  0  0  0  0
   33.4954   26.3232   47.0342 H   0  0  0  0  0  0  0  0  0  0  0  0
  1  2  2  0
  1  7  1  0
  3  2  1  0
  4  3  2  0
  5  4  1  0
  5  6  2  0
  6  1  1  0
  7  8  1  0
  7  9  1  0
  8  9  1  0
 10  8  1  0
  2 11  1  0
  3 12  1  0
  5 13  1  0
  7 14  1  1
  8 15  1  1
  9 16  1  0
  9 17  1  0
 18 19  2  3
 19 20  1  0
 19 21  1  0
 21 22  2  0
 22 23  1  0
 23 24  1  0
 23 25  2  0
 25 26  1  0
 25 27  1  0
 27 28  2  0
 28 21  1  0
 18 29  1  0
 20 30  1  0
 20 31  1  0
 27 32  1  0
 28 33  1  0
 10 22  1  0
M  ISO  8  11  14  12  14  13  14  14  13  15  13  16  13  17  13  24  15
M  ISO  1  26  16
M  END
>  <DihAtoms>  (1) 
7,9,21,20

>  <DihDeg>  (1) 
3.344288116283759

$$$$
