
 OpenBabel03272510103D

 33 35  0  0  0  0  0  0  0  0999 V2000
   37.7410   31.0890   47.9200 C   0  0  0  0  0  0  0  0  0  0  0  0
   38.7920   31.9420   47.8000 C   0  0  0  0  0  0  0  0  0  0  0  0
   39.2180   32.4790   46.6030 C   0  0  0  0  0  0  0  0  0  0  0  0
   38.5670   32.1570   45.4430 C   0  0  0  0  0  0  0  0  0  0  0  0
   37.4900   31.2800   45.5790 C   0  0  0  0  0  0  0  0  0  0  0  0
   37.1060   30.7770   46.7650 N   0  0  0  0  0  0  0  0  0  0  0  0
   39.3410   32.2280   48.6960 H   0  0  0  0  0  0  0  0  0  0  0  0
   40.0540   33.1600   46.4960 H   0  0  0  0  0  0  0  0  0  0  0  0
   36.9190   30.9740   44.7000 H   0  0  0  0  0  0  0  0  0  0  0  0
   37.9160   30.7970   50.4210 C   0  0  0  0  0  0  0  0  0  0  0  0
   37.2970   30.5260   49.1780 C   0  0  0  0  0  0  0  0  0  0  0  0
   36.2040   29.6710   49.1850 C   0  0  0  0  0  0  0  0  0  0  0  0
   35.7850   29.1400   50.3740 N   0  0  0  0  0  0  0  0  0  0  0  0
   36.4010   29.4260   51.5280 C   0  0  0  0  0  0  0  0  0  0  0  0
   37.4700   30.2530   51.5680 N   0  0  0  0  0  0  0  0  0  0  0  0
   38.7630   31.4680   50.3700 H   0  0  0  0  0  0  0  0  0  0  0  0
   35.6920   29.4300   48.2630 H   0  0  0  0  0  0  0  0  0  0  0  0
   36.0300   28.9780   52.4440 H   0  0  0  0  0  0  0  0  0  0  0  0
   38.8560   32.6010   44.1560 O   0  0  0  0  0  0  0  0  0  0  0  0
   38.5460   31.5150   42.0940 C   0  0  0  0  0  0  0  0  0  0  0  0
   39.3410   31.6970   43.2260 C   0  0  0  0  0  0  0  0  0  0  0  0
   40.5010   30.9680   43.2890 C   0  0  0  0  0  0  0  0  0  0  0  0
   41.0990   31.1250   44.1700 H   0  0  0  0  0  0  0  0  0  0  0  0
   40.8600   30.1060   42.2920 C   0  0  0  0  0  0  0  0  0  0  0  0
   41.7860   29.5310   42.3540 H   0  0  0  0  0  0  0  0  0  0  0  0
   40.0620   29.9300   41.1690 C   0  0  0  0  0  3  0  0  0  0  0  0
   38.8880   30.6510   41.0770 C   0  0  0  0  0  3  0  0  0  0  0  0
   36.9040   33.4220   42.2910 N   0  0  0  0  0  0  0  0  0  0  0  0
   37.2840   32.2440   41.9250 C   0  0  0  0  0  0  0  0  0  0  0  0
   36.1860   31.6440   41.2370 N   0  0  0  0  0  0  0  0  0  0  0  0
   37.5110   34.0790   42.8120 H   0  0  0  0  0  0  0  0  0  0  0  0
   35.4390   30.9370   41.3670 H   0  0  0  0  0  0  0  0  0  0  0  0
   35.7820   31.7820   40.2760 H   0  0  0  0  0  0  0  0  0  0  0  0
  1 11  1  0  0  0  0
  2  1  1  0  0  0  0
  2  7  1  0  0  0  0
  3  2  2  0  0  0  0
  4  5  2  0  0  0  0
  4  3  1  0  0  0  0
  5  6  1  0  0  0  0
  6  1  2  0  0  0  0
  8  3  1  0  0  0  0
  9  5  1  0  0  0  0
 10 15  1  0  0  0  0
 11 12  1  0  0  0  0
 11 10  2  0  0  0  0
 12 13  2  0  0  0  0
 13 14  1  0  0  0  0
 14 15  2  0  0  0  0
 14 18  1  0  0  0  0
 16 10  1  0  0  0  0
 17 12  1  0  0  0  0
 19  4  1  0  0  0  0
 20 21  1  0  0  0  0
 21 22  2  0  0  0  0
 21 19  1  0  0  0  0
 22 23  1  0  0  0  0
 24 25  1  0  0  0  0
 24 22  1  0  0  0  0
 26 24  2  0  0  0  0
 27 26  1  0  0  0  0
 27 20  2  0  0  0  0
 28 31  1  0  0  0  0
 29 20  1  0  0  0  0
 29 28  2  0  0  0  0
 30 32  1  0  0  0  0
 30 29  1  0  0  0  0
 33 30  1  0  0  0  0
M  END
>  <minimizedAffinity>
-5.4175005

>  <minimizedRMSD>
3.84999537

$$$$
