
 OpenBabel03272503313D

 39 41  0  0  1  0  0  0  0  0999 V2000
   36.4730   23.9640   31.7580 C   0  0  0  0  0  0  0  0  0  0  0  0
   35.3020   24.1390   31.0150 C   0  0  0  0  0  0  0  0  0  0  0  0
   34.8730   25.4580   30.8500 C   0  0  0  0  0  0  0  0  0  0  0  0
   35.6330   26.4530   31.4250 N   0  0  0  0  0  0  0  0  0  0  0  0
   36.7490   26.2360   32.1290 C   0  0  0  0  0  0  0  0  0  0  0  0
   37.1660   24.9710   32.2920 N   0  0  0  0  0  0  0  0  0  0  0  0
   34.7360   23.3330   30.5830 H   0  0  0  0  0  0  0  0  0  0  0  0
   33.9780   25.7030   30.2920 H   0  0  0  0  0  0  0  0  0  0  0  0
   36.9160   22.5980   31.9290 N   0  0  0  0  0  0  0  0  0  0  0  0
   36.8130   21.7940   33.1160 C   0  0  0  0  0  0  0  0  0  0  0  0
   36.7460   20.3850   32.5530 C   0  0  2  0  0  0  0  0  0  0  0  0
   36.6980   20.5330   31.0460 C   0  0  0  0  0  0  0  0  0  0  0  0
   37.5520   21.7830   30.9220 C   0  0  0  0  0  0  0  0  0  0  0  0
   35.8520   22.0030   33.6510 H   0  0  0  0  0  0  0  0  0  0  0  0
   37.6970   21.9310   33.7890 H   0  0  0  0  0  0  0  0  0  0  0  0
   37.6710   19.8680   32.8480 H   0  0  0  0  0  0  0  0  0  0  0  0
   37.2230   19.7190   30.5150 H   0  0  0  0  0  0  0  0  0  0  0  0
   35.6900   20.7250   30.6580 H   0  0  0  0  0  0  0  0  0  0  0  0
   37.3450   22.2270   29.9270 H   0  0  0  0  0  0  0  0  0  0  0  0
   38.6100   21.5760   31.1050 H   0  0  0  0  0  0  0  0  0  0  0  0
   35.5750   19.6100   33.0830 C   0  0  0  0  0  0  0  0  0  0  0  0
   34.4650   20.0300   32.3680 F   0  0  0  0  0  0  0  0  0  0  0  0
   35.3750   20.0130   34.3890 F   0  0  0  0  0  0  0  0  0  0  0  0
   35.7340   18.2610   33.0280 F   0  0  0  0  0  0  0  0  0  0  0  0
   37.6550   27.5790   32.8280 S   0  0  0  0  0  0  0  0  0  0  0  0
   39.7540   26.6980   34.4120 C   0  0  0  0  0  0  0  0  0  0  0  0
   39.3650   27.1320   33.1540 C   0  0  0  0  0  0  0  0  0  0  0  0
   40.2400   27.2470   32.0960 C   0  0  0  0  0  0  0  0  0  0  0  0
   39.9640   27.5800   31.1100 H   0  0  0  0  0  0  0  0  0  0  0  0
   41.5630   26.8950   32.3660 C   0  0  0  0  0  0  0  0  0  0  0  0
   42.2990   26.9620   31.5800 H   0  0  0  0  0  0  0  0  0  0  0  0
   41.9890   26.4610   33.5990 C   0  0  0  0  0  3  0  0  0  0  0  0
   41.0700   26.3640   34.6250 C   0  0  0  0  0  3  0  0  0  0  0  0
   37.8570   25.6580   35.5790 N   0  0  0  0  0  0  0  0  0  0  0  0
   38.7070   26.6290   35.4330 C   0  0  0  0  0  0  0  0  0  0  0  0
   38.5550   27.6690   36.3650 N   0  0  0  0  0  0  0  0  0  0  0  0
   37.9140   24.8450   34.9120 H   0  0  0  0  0  0  0  0  0  0  0  0
   38.4730   28.5150   36.9380 H   0  0  0  0  0  0  0  0  0  0  0  0
   38.3300   27.5550   37.3810 H   0  0  0  0  0  0  0  0  0  0  0  0
  1  9  1  0  0  0  0
  1  6  1  0  0  0  0
  2  1  2  0  0  0  0
  3  2  1  0  0  0  0
  3  4  2  0  0  0  0
  4  5  1  0  0  0  0
  5  6  2  0  0  0  0
  5 25  1  0  0  0  0
  7  2  1  0  0  0  0
  8  3  1  0  0  0  0
  9 10  1  0  0  0  0
 10 14  1  0  0  0  0
 10 15  1  0  0  0  0
 11 16  1  1  0  0  0
 11 21  1  0  0  0  0
 11 10  1  0  0  0  0
 12 11  1  0  0  0  0
 13 12  1  0  0  0  0
 13 20  1  0  0  0  0
 13  9  1  0  0  0  0
 17 12  1  0  0  0  0
 18 12  1  0  0  0  0
 19 13  1  0  0  0  0
 21 23  1  0  0  0  0
 22 21  1  0  0  0  0
 24 21  1  0  0  0  0
 25 27  1  0  0  0  0
 26 33  1  0  0  0  0
 26 35  1  0  0  0  0
 27 26  2  0  0  0  0
 28 30  2  0  0  0  0
 28 27  1  0  0  0  0
 29 28  1  0  0  0  0
 30 32  1  0  0  0  0
 31 30  1  0  0  0  0
 32 33  2  0  0  0  0
 35 34  2  0  0  0  0
 35 36  1  0  0  0  0
 36 38  1  0  0  0  0
 36 39  1  0  0  0  0
 37 34  1  0  0  0  0
M  END
>  <minimizedAffinity>
-6.28117657

$$$$

 OpenBabel03272503313D

 39 41  0  0  1  0  0  0  0  0999 V2000
   38.3290   22.8730   31.5960 C   0  0  0  0  0  0  0  0  0  0  0  0
   38.0720   23.6380   30.4560 C   0  0  0  0  0  0  0  0  0  0  0  0
   38.4980   24.9690   30.5030 C   0  0  0  0  0  0  0  0  0  0  0  0
   39.1240   25.3980   31.6520 N   0  0  0  0  0  0  0  0  0  0  0  0
   39.3480   24.6260   32.7210 C   0  0  0  0  0  0  0  0  0  0  0  0
   38.9420   23.3480   32.6820 N   0  0  0  0  0  0  0  0  0  0  0  0
   37.5790   23.2640   29.5760 H   0  0  0  0  0  0  0  0  0  0  0  0
   38.3470   25.6470   29.6720 H   0  0  0  0  0  0  0  0  0  0  0  0
   37.8890   21.4970   31.5470 N   0  0  0  0  0  0  0  0  0  0  0  0
   37.6310   20.6260   32.6610 C   0  0  0  0  0  0  0  0  0  0  0  0
   36.5910   19.6730   32.1000 C   0  0  2  0  0  0  0  0  0  0  0  0
   36.2580   20.1790   30.7120 C   0  0  0  0  0  0  0  0  0  0  0  0
   37.6240   20.7360   30.3490 C   0  0  0  0  0  0  0  0  0  0  0  0
   37.1650   21.1950   33.5060 H   0  0  0  0  0  0  0  0  0  0  0  0
   38.5560   20.0860   32.9900 H   0  0  0  0  0  0  0  0  0  0  0  0
   37.0570   18.6790   32.0330 H   0  0  0  0  0  0  0  0  0  0  0  0
   36.0310   19.3660   29.9990 H   0  0  0  0  0  0  0  0  0  0  0  0
   35.5100   20.9820   30.7070 H   0  0  0  0  0  0  0  0  0  0  0  0
   37.4780   21.4430   29.5070 H   0  0  0  0  0  0  0  0  0  0  0  0
   38.3480   19.9430   30.1430 H   0  0  0  0  0  0  0  0  0  0  0  0
   35.3740   19.5730   32.9730 C   0  0  0  0  0  0  0  0  0  0  0  0
   35.1220   18.2220   33.1500 F   0  0  0  0  0  0  0  0  0  0  0  0
   34.3100   20.0780   32.2510 F   0  0  0  0  0  0  0  0  0  0  0  0
   35.4880   20.2290   34.1590 F   0  0  0  0  0  0  0  0  0  0  0  0
   40.1590   25.2690   34.1490 S   0  0  0  0  0  0  0  0  0  0  0  0
   38.5350   25.2190   36.3970 C   0  0  0  0  0  0  0  0  0  0  0  0
   39.5080   24.5550   35.6650 C   0  0  0  0  0  0  0  0  0  0  0  0
   40.0280   23.3350   36.0390 C   0  0  0  0  0  0  0  0  0  0  0  0
   40.7820   22.8000   35.4890 H   0  0  0  0  0  0  0  0  0  0  0  0
   39.5110   22.7960   37.2170 C   0  0  0  0  0  0  0  0  0  0  0  0
   39.8750   21.8420   37.5660 H   0  0  0  0  0  0  0  0  0  0  0  0
   38.5470   23.4220   37.9720 C   0  0  0  0  0  3  0  0  0  0  0  0
   38.0600   24.6430   37.5510 C   0  0  0  0  0  3  0  0  0  0  0  0
   38.5780   27.6670   36.1820 N   0  0  0  0  0  0  0  0  0  0  0  0
   38.0840   26.5080   35.8690 C   0  0  0  0  0  0  0  0  0  0  0  0
   37.0320   26.5660   34.9410 N   0  0  0  0  0  0  0  0  0  0  0  0
   39.3720   27.6970   36.8750 H   0  0  0  0  0  0  0  0  0  0  0  0
   36.2030   26.5050   34.3400 H   0  0  0  0  0  0  0  0  0  0  0  0
   36.9790   27.2010   34.1100 H   0  0  0  0  0  0  0  0  0  0  0  0
  1  6  1  0  0  0  0
  2  3  1  0  0  0  0
  2  1  2  0  0  0  0
  3  4  2  0  0  0  0
  4  5  1  0  0  0  0
  5 25  1  0  0  0  0
  6  5  2  0  0  0  0
  7  2  1  0  0  0  0
  8  3  1  0  0  0  0
  9  1  1  0  0  0  0
  9 10  1  0  0  0  0
 10 15  1  0  0  0  0
 10 14  1  0  0  0  0
 11 16  1  6  0  0  0
 11 10  1  0  0  0  0
 11 21  1  0  0  0  0
 12 11  1  0  0  0  0
 13 12  1  0  0  0  0
 13  9  1  0  0  0  0
 17 12  1  0  0  0  0
 18 12  1  0  0  0  0
 19 13  1  0  0  0  0
 20 13  1  0  0  0  0
 21 22  1  0  0  0  0
 21 24  1  0  0  0  0
 23 21  1  0  0  0  0
 25 27  1  0  0  0  0
 26 33  1  0  0  0  0
 27 28  1  0  0  0  0
 27 26  2  0  0  0  0
 28 30  2  0  0  0  0
 29 28  1  0  0  0  0
 30 31  1  0  0  0  0
 30 32  1  0  0  0  0
 33 32  2  0  0  0  0
 34 37  1  0  0  0  0
 35 34  2  0  0  0  0
 35 26  1  0  0  0  0
 36 35  1  0  0  0  0
 38 36  1  0  0  0  0
 39 36  1  0  0  0  0
M  END
>  <minimizedAffinity>
-6.10680389

$$$$

 OpenBabel03272503313D

 39 41  0  0  1  0  0  0  0  0999 V2000
   37.2840   23.5650   32.5310 C   0  0  0  0  0  0  0  0  0  0  0  0
   36.7450   24.5590   31.7100 C   0  0  0  0  0  0  0  0  0  0  0  0
   36.8840   25.8720   32.1670 C   0  0  0  0  0  0  0  0  0  0  0  0
   37.5300   26.0650   33.3680 N   0  0  0  0  0  0  0  0  0  0  0  0
   38.0300   25.0800   34.1200 C   0  0  0  0  0  0  0  0  0  0  0  0
   37.9010   23.8160   33.6870 N   0  0  0  0  0  0  0  0  0  0  0  0
   36.2460   24.3660   30.7770 H   0  0  0  0  0  0  0  0  0  0  0  0
   36.5010   26.7160   31.6060 H   0  0  0  0  0  0  0  0  0  0  0  0
   37.1400   22.2060   32.0570 N   0  0  0  0  0  0  0  0  0  0  0  0
   37.0650   21.0120   32.8530 C   0  0  0  0  0  0  0  0  0  0  0  0
   36.2490   20.0820   31.9730 C   0  0  2  0  0  0  0  0  0  0  0  0
   35.8240   20.9000   30.7720 C   0  0  0  0  0  0  0  0  0  0  0  0
   37.0460   21.7980   30.6760 C   0  0  0  0  0  0  0  0  0  0  0  0
   36.4860   21.2020   33.7940 H   0  0  0  0  0  0  0  0  0  0  0  0
   38.0800   20.5930   33.0720 H   0  0  0  0  0  0  0  0  0  0  0  0
   36.9120   19.2650   31.6530 H   0  0  0  0  0  0  0  0  0  0  0  0
   35.7750   20.3070   29.8410 H   0  0  0  0  0  0  0  0  0  0  0  0
   34.9250   21.5040   30.9490 H   0  0  0  0  0  0  0  0  0  0  0  0
   36.7600   22.6790   30.0670 H   0  0  0  0  0  0  0  0  0  0  0  0
   37.9200   21.2610   30.2990 H   0  0  0  0  0  0  0  0  0  0  0  0
   35.0750   19.4900   32.6980 C   0  0  0  0  0  0  0  0  0  0  0  0
   33.9430   20.1050   32.1890 F   0  0  0  0  0  0  0  0  0  0  0  0
   35.1720   19.8780   34.0200 F   0  0  0  0  0  0  0  0  0  0  0  0
   34.9990   18.1350   32.6120 F   0  0  0  0  0  0  0  0  0  0  0  0
   38.8430   25.4270   35.6470 S   0  0  0  0  0  0  0  0  0  0  0  0
   39.6230   23.2200   37.1330 C   0  0  0  0  0  0  0  0  0  0  0  0
   39.9640   24.1060   36.1220 C   0  0  0  0  0  0  0  0  0  0  0  0
   41.1550   24.0350   35.4320 C   0  0  0  0  0  0  0  0  0  0  0  0
   41.4420   24.7090   34.6440 H   0  0  0  0  0  0  0  0  0  0  0  0
   42.0130   23.0040   35.8140 C   0  0  0  0  0  0  0  0  0  0  0  0
   42.9620   22.8920   35.3120 H   0  0  0  0  0  0  0  0  0  0  0  0
   41.7120   22.1050   36.8100 C   0  0  0  0  0  3  0  0  0  0  0  0
   40.5060   22.2220   37.4710 C   0  0  0  0  0  3  0  0  0  0  0  0
   38.0760   24.2700   38.7290 N   0  0  0  0  0  0  0  0  0  0  0  0
   38.3230   23.4260   37.7730 C   0  0  0  0  0  0  0  0  0  0  0  0
   37.2050   22.6800   37.3650 N   0  0  0  0  0  0  0  0  0  0  0  0
   38.8720   24.8630   39.0840 H   0  0  0  0  0  0  0  0  0  0  0  0
   36.4780   22.0260   37.0560 H   0  0  0  0  0  0  0  0  0  0  0  0
   36.2280   23.0430   37.2640 H   0  0  0  0  0  0  0  0  0  0  0  0
  1  6  1  0  0  0  0
  2  3  1  0  0  0  0
  2  1  2  0  0  0  0
  3  4  2  0  0  0  0
  4  5  1  0  0  0  0
  5 25  1  0  0  0  0
  6  5  2  0  0  0  0
  7  2  1  0  0  0  0
  8  3  1  0  0  0  0
  9  1  1  0  0  0  0
  9 10  1  0  0  0  0
 10 15  1  0  0  0  0
 10 14  1  0  0  0  0
 11 16  1  6  0  0  0
 11 21  1  0  0  0  0
 11 10  1  0  0  0  0
 12 18  1  0  0  0  0
 12 11  1  0  0  0  0
 13 12  1  0  0  0  0
 13  9  1  0  0  0  0
 17 12  1  0  0  0  0
 19 13  1  0  0  0  0
 20 13  1  0  0  0  0
 21 23  1  0  0  0  0
 22 21  1  0  0  0  0
 24 21  1  0  0  0  0
 25 27  1  0  0  0  0
 26 33  1  0  0  0  0
 26 35  1  0  0  0  0
 27 26  2  0  0  0  0
 28 30  2  0  0  0  0
 28 27  1  0  0  0  0
 29 28  1  0  0  0  0
 30 32  1  0  0  0  0
 31 30  1  0  0  0  0
 32 33  2  0  0  0  0
 34 37  1  0  0  0  0
 35 34  2  0  0  0  0
 36 35  1  0  0  0  0
 38 36  1  0  0  0  0
 39 36  1  0  0  0  0
M  END
>  <minimizedAffinity>
-5.88327599

$$$$

 OpenBabel03272503313D

 39 41  0  0  1  0  0  0  0  0999 V2000
   38.4440   22.5660   33.0400 C   0  0  0  0  0  0  0  0  0  0  0  0
   38.8840   21.9020   34.1880 C   0  0  0  0  0  0  0  0  0  0  0  0
   39.6350   22.6640   35.0870 C   0  0  0  0  0  0  0  0  0  0  0  0
   39.8680   23.9830   34.7650 N   0  0  0  0  0  0  0  0  0  0  0  0
   39.4250   24.5760   33.6520 C   0  0  0  0  0  0  0  0  0  0  0  0
   38.7040   23.8500   32.7840 N   0  0  0  0  0  0  0  0  0  0  0  0
   38.6800   20.8680   34.4030 H   0  0  0  0  0  0  0  0  0  0  0  0
   40.0240   22.2450   36.0070 H   0  0  0  0  0  0  0  0  0  0  0  0
   37.6680   21.7760   32.1110 N   0  0  0  0  0  0  0  0  0  0  0  0
   37.3940   20.3680   32.1850 C   0  0  0  0  0  0  0  0  0  0  0  0
   36.0660   20.2520   31.4580 C   0  0  2  0  0  0  0  0  0  0  0  0
   35.6380   21.6670   31.1310 C   0  0  0  0  0  0  0  0  0  0  0  0
   37.0170   22.2700   30.9200 C   0  0  0  0  0  0  0  0  0  0  0  0
   37.2400   20.0510   33.2480 H   0  0  0  0  0  0  0  0  0  0  0  0
   38.1940   19.7620   31.6880 H   0  0  0  0  0  0  0  0  0  0  0  0
   36.2460   19.6920   30.5280 H   0  0  0  0  0  0  0  0  0  0  0  0
   35.0930   21.7430   30.1720 H   0  0  0  0  0  0  0  0  0  0  0  0
   35.1280   22.1730   31.9610 H   0  0  0  0  0  0  0  0  0  0  0  0
   36.9120   23.3700   31.0060 H   0  0  0  0  0  0  0  0  0  0  0  0
   37.4700   21.9370   29.9820 H   0  0  0  0  0  0  0  0  0  0  0  0
   35.0330   19.5210   32.2640 C   0  0  0  0  0  0  0  0  0  0  0  0
   35.2910   19.8080   33.5950 F   0  0  0  0  0  0  0  0  0  0  0  0
   35.2690   18.1690   32.1030 F   0  0  0  0  0  0  0  0  0  0  0  0
   33.7510   19.8160   31.9190 F   0  0  0  0  0  0  0  0  0  0  0  0
   39.7770   26.2740   33.3270 S   0  0  0  0  0  0  0  0  0  0  0  0
   37.4740   27.5420   34.2060 C   0  0  0  0  0  0  0  0  0  0  0  0
   38.2750   27.2390   33.1170 C   0  0  0  0  0  0  0  0  0  0  0  0
   37.9830   27.6440   31.8330 C   0  0  0  0  0  0  0  0  0  0  0  0
   38.5890   27.4220   30.9720 H   0  0  0  0  0  0  0  0  0  0  0  0
   36.8140   28.3920   31.6880 C   0  0  0  0  0  0  0  0  0  0  0  0
   36.5280   28.7410   30.7080 H   0  0  0  0  0  0  0  0  0  0  0  0
   35.9920   28.7140   32.7420 C   0  0  0  0  0  3  0  0  0  0  0  0
   36.3320   28.2820   34.0090 C   0  0  0  0  0  3  0  0  0  0  0  0
   38.7080   27.6630   36.3280 N   0  0  0  0  0  0  0  0  0  0  0  0
   37.9180   27.0390   35.5070 C   0  0  0  0  0  0  0  0  0  0  0  0
   37.4900   25.7830   35.9660 N   0  0  0  0  0  0  0  0  0  0  0  0
   39.0680   28.6120   36.0460 H   0  0  0  0  0  0  0  0  0  0  0  0
   37.1940   24.8220   36.1670 H   0  0  0  0  0  0  0  0  0  0  0  0
   37.2240   25.5470   36.9510 H   0  0  0  0  0  0  0  0  0  0  0  0
  1  2  1  0  0  0  0
  2  7  1  0  0  0  0
  2  3  2  0  0  0  0
  3  8  1  0  0  0  0
  4  3  1  0  0  0  0
  5  4  2  0  0  0  0
  6  1  2  0  0  0  0
  6  5  1  0  0  0  0
  9 10  1  0  0  0  0
  9  1  1  0  0  0  0
 10 14  1  0  0  0  0
 11 16  1  6  0  0  0
 11 10  1  0  0  0  0
 11 21  1  0  0  0  0
 12 11  1  0  0  0  0
 12 18  1  0  0  0  0
 13 19  1  0  0  0  0
 13 12  1  0  0  0  0
 13  9  1  0  0  0  0
 15 10  1  0  0  0  0
 17 12  1  0  0  0  0
 20 13  1  0  0  0  0
 21 22  1  0  0  0  0
 23 21  1  0  0  0  0
 24 21  1  0  0  0  0
 25  5  1  0  0  0  0
 26 35  1  0  0  0  0
 27 25  1  0  0  0  0
 27 26  2  0  0  0  0
 28 27  1  0  0  0  0
 29 28  1  0  0  0  0
 30 28  2  0  0  0  0
 30 32  1  0  0  0  0
 31 30  1  0  0  0  0
 32 33  2  0  0  0  0
 33 26  1  0  0  0  0
 35 36  1  0  0  0  0
 35 34  2  0  0  0  0
 36 38  1  0  0  0  0
 36 39  1  0  0  0  0
 37 34  1  0  0  0  0
M  END
>  <minimizedAffinity>
-5.79548073

$$$$

 OpenBabel03272503313D

 39 41  0  0  1  0  0  0  0  0999 V2000
   37.1870   27.3190   34.1420 C   0  0  0  0  0  0  0  0  0  0  0  0
   37.6870   27.6310   35.4090 C   0  0  0  0  0  0  0  0  0  0  0  0
   38.5960   26.7180   35.9510 C   0  0  0  0  0  0  0  0  0  0  0  0
   38.9120   25.6100   35.1960 N   0  0  0  0  0  0  0  0  0  0  0  0
   38.4070   25.3530   33.9850 C   0  0  0  0  0  0  0  0  0  0  0  0
   37.5340   26.2260   33.4600 N   0  0  0  0  0  0  0  0  0  0  0  0
   37.4130   28.5090   35.9670 H   0  0  0  0  0  0  0  0  0  0  0  0
   39.0420   26.8660   36.9260 H   0  0  0  0  0  0  0  0  0  0  0  0
   36.2470   28.2640   33.5830 N   0  0  0  0  0  0  0  0  0  0  0  0
   35.3730   29.1500   34.3020 C   0  0  0  0  0  0  0  0  0  0  0  0
   35.1980   30.3010   33.3280 C   0  0  2  0  0  0  0  0  0  0  0  0
   36.1110   30.0070   32.1560 C   0  0  0  0  0  0  0  0  0  0  0  0
   36.0110   28.4910   32.1760 C   0  0  0  0  0  0  0  0  0  0  0  0
   35.8800   29.5430   35.2200 H   0  0  0  0  0  0  0  0  0  0  0  0
   34.3960   28.6620   34.5490 H   0  0  0  0  0  0  0  0  0  0  0  0
   34.1500   30.2950   32.9950 H   0  0  0  0  0  0  0  0  0  0  0  0
   35.7000   30.3530   31.1900 H   0  0  0  0  0  0  0  0  0  0  0  0
   37.1500   30.3190   32.3220 H   0  0  0  0  0  0  0  0  0  0  0  0
   36.8760   28.0960   31.6060 H   0  0  0  0  0  0  0  0  0  0  0  0
   35.0410   28.1400   31.8140 H   0  0  0  0  0  0  0  0  0  0  0  0
   35.4930   31.6330   33.9540 C   0  0  0  0  0  0  0  0  0  0  0  0
   36.4100   32.2650   33.1290 F   0  0  0  0  0  0  0  0  0  0  0  0
   36.1440   31.3890   35.1480 F   0  0  0  0  0  0  0  0  0  0  0  0
   34.3910   32.3990   34.1700 F   0  0  0  0  0  0  0  0  0  0  0  0
   38.8750   23.9040   33.0950 S   0  0  0  0  0  0  0  0  0  0  0  0
   36.7250   22.9980   31.5970 C   0  0  0  0  0  0  0  0  0  0  0  0
   37.4640   22.8420   32.7590 C   0  0  0  0  0  0  0  0  0  0  0  0
   37.1760   21.8890   33.7110 C   0  0  0  0  0  0  0  0  0  0  0  0
   37.7340   21.7470   34.6200 H   0  0  0  0  0  0  0  0  0  0  0  0
   36.0780   21.0730   33.4340 C   0  0  0  0  0  0  0  0  0  0  0  0
   35.7980   20.3060   34.1390 H   0  0  0  0  0  0  0  0  0  0  0  0
   35.3190   21.1950   32.2940 C   0  0  0  0  0  3  0  0  0  0  0  0
   35.6520   22.1680   31.3730 C   0  0  0  0  0  3  0  0  0  0  0  0
   38.1340   23.9680   29.8320 N   0  0  0  0  0  0  0  0  0  0  0  0
   37.1570   24.0560   30.6830 C   0  0  0  0  0  0  0  0  0  0  0  0
   36.5010   25.2980   30.6750 N   0  0  0  0  0  0  0  0  0  0  0  0
   38.6710   23.0620   29.7860 H   0  0  0  0  0  0  0  0  0  0  0  0
   36.0160   26.1910   30.8090 H   0  0  0  0  0  0  0  0  0  0  0  0
   36.2740   25.8670   29.8260 H   0  0  0  0  0  0  0  0  0  0  0  0
  1  2  1  0  0  0  0
  2  3  2  0  0  0  0
  2  7  1  0  0  0  0
  3  8  1  0  0  0  0
  4  3  1  0  0  0  0
  5  4  2  0  0  0  0
  6  5  1  0  0  0  0
  6  1  2  0  0  0  0
  9  1  1  0  0  0  0
  9 10  1  0  0  0  0
 10 15  1  0  0  0  0
 10 14  1  0  0  0  0
 11 16  1  6  0  0  0
 11 21  1  0  0  0  0
 11 10  1  0  0  0  0
 12 13  1  0  0  0  0
 12 18  1  0  0  0  0
 12 11  1  0  0  0  0
 13  9  1  0  0  0  0
 17 12  1  0  0  0  0
 19 13  1  0  0  0  0
 20 13  1  0  0  0  0
 21 24  1  0  0  0  0
 21 23  1  0  0  0  0
 22 21  1  0  0  0  0
 25  5  1  0  0  0  0
 26 27  1  0  0  0  0
 27 25  1  0  0  0  0
 27 28  2  0  0  0  0
 28 29  1  0  0  0  0
 30 28  1  0  0  0  0
 30 31  1  0  0  0  0
 32 30  2  0  0  0  0
 33 26  2  0  0  0  0
 33 32  1  0  0  0  0
 34 35  2  0  0  0  0
 35 26  1  0  0  0  0
 36 35  1  0  0  0  0
 36 38  1  0  0  0  0
 37 34  1  0  0  0  0
 39 36  1  0  0  0  0
M  END
>  <minimizedAffinity>
-5.78749084

$$$$

 OpenBabel03272503313D

 39 41  0  0  1  0  0  0  0  0999 V2000
   36.9830   28.0030   33.5570 C   0  0  0  0  0  0  0  0  0  0  0  0
   37.0580   28.1580   32.1700 C   0  0  0  0  0  0  0  0  0  0  0  0
   35.9770   28.8070   31.5680 C   0  0  0  0  0  0  0  0  0  0  0  0
   34.9510   29.2300   32.3850 N   0  0  0  0  0  0  0  0  0  0  0  0
   34.9240   29.0580   33.7100 C   0  0  0  0  0  0  0  0  0  0  0  0
   35.9590   28.4360   34.2950 N   0  0  0  0  0  0  0  0  0  0  0  0
   37.8780   27.8120   31.5680 H   0  0  0  0  0  0  0  0  0  0  0  0
   35.9360   28.9780   30.5000 H   0  0  0  0  0  0  0  0  0  0  0  0
   38.1020   27.3310   34.1800 N   0  0  0  0  0  0  0  0  0  0  0  0
   38.2810   27.0550   35.5790 C   0  0  0  0  0  0  0  0  0  0  0  0
   39.1510   25.8110   35.5600 C   0  0  2  0  0  0  0  0  0  0  0  0
   39.2920   25.4160   34.1050 C   0  0  0  0  0  0  0  0  0  0  0  0
   39.2610   26.8070   33.4960 C   0  0  0  0  0  0  0  0  0  0  0  0
   37.3030   26.7910   36.0570 H   0  0  0  0  0  0  0  0  0  0  0  0
   38.7810   27.9050   36.1100 H   0  0  0  0  0  0  0  0  0  0  0  0
   40.1330   26.0890   35.9690 H   0  0  0  0  0  0  0  0  0  0  0  0
   40.2780   24.9740   33.8720 H   0  0  0  0  0  0  0  0  0  0  0  0
   38.4500   24.8200   33.7300 H   0  0  0  0  0  0  0  0  0  0  0  0
   39.0130   26.6910   32.4220 H   0  0  0  0  0  0  0  0  0  0  0  0
   40.1870   27.3570   33.6830 H   0  0  0  0  0  0  0  0  0  0  0  0
   38.5830   24.7010   36.3950 C   0  0  0  0  0  0  0  0  0  0  0  0
   39.6020   23.7800   36.5790 F   0  0  0  0  0  0  0  0  0  0  0  0
   37.6170   24.0690   35.6350 F   0  0  0  0  0  0  0  0  0  0  0  0
   38.0510   25.1130   37.5770 F   0  0  0  0  0  0  0  0  0  0  0  0
   33.5630   29.6370   34.6720 S   0  0  0  0  0  0  0  0  0  0  0  0
   33.1640   31.5200   36.6680 C   0  0  0  0  0  0  0  0  0  0  0  0
   34.0070   31.0680   35.6640 C   0  0  0  0  0  0  0  0  0  0  0  0
   35.2100   31.6700   35.3660 C   0  0  0  0  0  0  0  0  0  0  0  0
   35.8810   31.3390   34.5930 H   0  0  0  0  0  0  0  0  0  0  0  0
   35.5390   32.7790   36.1450 C   0  0  0  0  0  0  0  0  0  0  0  0
   36.4680   33.2970   35.9630 H   0  0  0  0  0  0  0  0  0  0  0  0
   34.7310   33.2590   37.1490 C   0  0  0  0  0  3  0  0  0  0  0  0
   33.5350   32.6180   37.4060 C   0  0  0  0  0  3  0  0  0  0  0  0
   30.7980   31.0020   36.2490 N   0  0  0  0  0  0  0  0  0  0  0  0
   31.9200   30.7740   36.8630 C   0  0  0  0  0  0  0  0  0  0  0  0
   31.8660   29.7100   37.7770 N   0  0  0  0  0  0  0  0  0  0  0  0
   30.7670   31.7890   35.5480 H   0  0  0  0  0  0  0  0  0  0  0  0
   31.9090   29.0130   38.5280 H   0  0  0  0  0  0  0  0  0  0  0  0
   31.3560   28.8060   37.6380 H   0  0  0  0  0  0  0  0  0  0  0  0
  1  9  1  0  0  0  0
  1  6  1  0  0  0  0
  2  1  2  0  0  0  0
  3  2  1  0  0  0  0
  3  4  2  0  0  0  0
  4  5  1  0  0  0  0
  5  6  2  0  0  0  0
  5 25  1  0  0  0  0
  7  2  1  0  0  0  0
  8  3  1  0  0  0  0
  9 10  1  0  0  0  0
 10 14  1  0  0  0  0
 10 15  1  0  0  0  0
 11 10  1  0  0  0  0
 11 16  1  1  0  0  0
 11 21  1  0  0  0  0
 12 11  1  0  0  0  0
 13 20  1  0  0  0  0
 13 12  1  0  0  0  0
 13  9  1  0  0  0  0
 17 12  1  0  0  0  0
 18 12  1  0  0  0  0
 19 13  1  0  0  0  0
 21 22  1  0  0  0  0
 21 24  1  0  0  0  0
 23 21  1  0  0  0  0
 25 27  1  0  0  0  0
 26 35  1  0  0  0  0
 26 33  1  0  0  0  0
 27 26  2  0  0  0  0
 28 27  1  0  0  0  0
 28 30  2  0  0  0  0
 29 28  1  0  0  0  0
 30 32  1  0  0  0  0
 31 30  1  0  0  0  0
 32 33  2  0  0  0  0
 34 35  2  0  0  0  0
 35 36  1  0  0  0  0
 36 38  1  0  0  0  0
 37 34  1  0  0  0  0
 39 36  1  0  0  0  0
M  END
>  <minimizedAffinity>
-5.75502634

$$$$

 OpenBabel03272503313D

 39 41  0  0  1  0  0  0  0  0999 V2000
   37.0820   24.2950   32.0240 C   0  0  0  0  0  0  0  0  0  0  0  0
   36.0630   23.4270   31.6200 C   0  0  0  0  0  0  0  0  0  0  0  0
   36.0940   22.1460   32.1770 C   0  0  0  0  0  0  0  0  0  0  0  0
   37.1100   21.8590   33.0620 N   0  0  0  0  0  0  0  0  0  0  0  0
   38.0650   22.7240   33.4180 C   0  0  0  0  0  0  0  0  0  0  0  0
   38.0420   23.9560   32.8870 N   0  0  0  0  0  0  0  0  0  0  0  0
   35.2860   23.6900   30.9250 H   0  0  0  0  0  0  0  0  0  0  0  0
   35.3510   21.3970   31.9310 H   0  0  0  0  0  0  0  0  0  0  0  0
   37.0490   25.6200   31.4470 N   0  0  0  0  0  0  0  0  0  0  0  0
   35.9150   26.4960   31.3470 C   0  0  0  0  0  0  0  0  0  0  0  0
   36.5600   27.8710   31.3520 C   0  0  2  0  0  0  0  0  0  0  0  0
   38.0400   27.6430   31.5800 C   0  0  0  0  0  0  0  0  0  0  0  0
   38.1710   26.3130   30.8570 C   0  0  0  0  0  0  0  0  0  0  0  0
   35.2690   26.4100   32.2570 H   0  0  0  0  0  0  0  0  0  0  0  0
   35.3310   26.3150   30.4090 H   0  0  0  0  0  0  0  0  0  0  0  0
   36.3990   28.3150   30.3580 H   0  0  0  0  0  0  0  0  0  0  0  0
   38.6760   28.3730   31.0480 H   0  0  0  0  0  0  0  0  0  0  0  0
   38.3070   27.5250   32.6380 H   0  0  0  0  0  0  0  0  0  0  0  0
   39.1060   25.8360   31.2120 H   0  0  0  0  0  0  0  0  0  0  0  0
   38.1140   26.4300   29.7710 H   0  0  0  0  0  0  0  0  0  0  0  0
   35.9620   28.7810   32.3840 C   0  0  0  0  0  0  0  0  0  0  0  0
   36.4480   30.0530   32.1220 F   0  0  0  0  0  0  0  0  0  0  0  0
   36.4820   28.4090   33.6090 F   0  0  0  0  0  0  0  0  0  0  0  0
   34.6040   28.7550   32.4250 F   0  0  0  0  0  0  0  0  0  0  0  0
   39.3270   22.2620   34.5610 S   0  0  0  0  0  0  0  0  0  0  0  0
   39.9240   22.7500   37.2240 C   0  0  0  0  0  0  0  0  0  0  0  0
   38.9720   22.8490   36.2220 C   0  0  0  0  0  0  0  0  0  0  0  0
   37.7210   23.3900   36.4250 C   0  0  0  0  0  0  0  0  0  0  0  0
   36.9650   23.4790   35.6640 H   0  0  0  0  0  0  0  0  0  0  0  0
   37.4620   23.8400   37.7190 C   0  0  0  0  0  0  0  0  0  0  0  0
   36.5000   24.2750   37.9460 H   0  0  0  0  0  0  0  0  0  0  0  0
   38.3780   23.7600   38.7410 C   0  0  0  0  0  3  0  0  0  0  0  0
   39.6170   23.2090   38.4830 C   0  0  0  0  0  3  0  0  0  0  0  0
   41.5520   20.9160   37.0600 N   0  0  0  0  0  0  0  0  0  0  0  0
   41.2070   22.1510   36.8520 C   0  0  0  0  0  0  0  0  0  0  0  0
   42.1910   22.9210   36.2130 N   0  0  0  0  0  0  0  0  0  0  0  0
   40.8600   20.2810   37.5370 H   0  0  0  0  0  0  0  0  0  0  0  0
   42.8710   23.5890   35.8330 H   0  0  0  0  0  0  0  0  0  0  0  0
   42.8140   22.6000   35.4350 H   0  0  0  0  0  0  0  0  0  0  0  0
  1  6  1  0  0  0  0
  2  1  2  0  0  0  0
  2  3  1  0  0  0  0
  3  4  2  0  0  0  0
  4  5  1  0  0  0  0
  5 25  1  0  0  0  0
  6  5  2  0  0  0  0
  7  2  1  0  0  0  0
  8  3  1  0  0  0  0
  9  1  1  0  0  0  0
 10 11  1  0  0  0  0
 10  9  1  0  0  0  0
 10 14  1  0  0  0  0
 11 16  1  6  0  0  0
 11 12  1  0  0  0  0
 11 21  1  0  0  0  0
 12 18  1  0  0  0  0
 13 19  1  0  0  0  0
 13  9  1  0  0  0  0
 13 12  1  0  0  0  0
 15 10  1  0  0  0  0
 17 12  1  0  0  0  0
 20 13  1  0  0  0  0
 21 24  1  0  0  0  0
 21 23  1  0  0  0  0
 22 21  1  0  0  0  0
 25 27  1  0  0  0  0
 26 33  1  0  0  0  0
 27 28  1  0  0  0  0
 27 26  2  0  0  0  0
 28 30  2  0  0  0  0
 29 28  1  0  0  0  0
 30 31  1  0  0  0  0
 30 32  1  0  0  0  0
 33 32  2  0  0  0  0
 34 37  1  0  0  0  0
 35 34  2  0  0  0  0
 35 26  1  0  0  0  0
 36 35  1  0  0  0  0
 38 36  1  0  0  0  0
 39 36  1  0  0  0  0
M  END
>  <minimizedAffinity>
-5.75450325

$$$$

 OpenBabel03272503313D

 39 41  0  0  1  0  0  0  0  0999 V2000
   37.8340   23.0530   35.3540 C   0  0  0  0  0  0  0  0  0  0  0  0
   37.6720   22.5970   36.6650 C   0  0  0  0  0  0  0  0  0  0  0  0
   37.8210   23.5580   37.6690 C   0  0  0  0  0  0  0  0  0  0  0  0
   38.1090   24.8470   37.2810 N   0  0  0  0  0  0  0  0  0  0  0  0
   38.2550   25.2360   36.0100 C   0  0  0  0  0  0  0  0  0  0  0  0
   38.1130   24.3190   35.0410 N   0  0  0  0  0  0  0  0  0  0  0  0
   37.4480   21.5780   36.9270 H   0  0  0  0  0  0  0  0  0  0  0  0
   37.7170   23.3090   38.7180 H   0  0  0  0  0  0  0  0  0  0  0  0
   37.6790   22.0580   34.3150 N   0  0  0  0  0  0  0  0  0  0  0  0
   36.5400   21.2140   34.0840 C   0  0  0  0  0  0  0  0  0  0  0  0
   36.6230   20.9520   32.5900 C   0  0  2  0  0  0  0  0  0  0  0  0
   37.7720   21.7950   32.0760 C   0  0  0  0  0  0  0  0  0  0  0  0
   38.6590   21.7290   33.3070 C   0  0  0  0  0  0  0  0  0  0  0  0
   35.5900   21.7690   34.2890 H   0  0  0  0  0  0  0  0  0  0  0  0
   36.5980   20.2650   34.6760 H   0  0  0  0  0  0  0  0  0  0  0  0
   36.8530   19.8850   32.4550 H   0  0  0  0  0  0  0  0  0  0  0  0
   38.3210   21.3150   31.2460 H   0  0  0  0  0  0  0  0  0  0  0  0
   37.4920   22.8360   31.8680 H   0  0  0  0  0  0  0  0  0  0  0  0
   39.3850   22.5640   33.2350 H   0  0  0  0  0  0  0  0  0  0  0  0
   39.1230   20.7460   33.4260 H   0  0  0  0  0  0  0  0  0  0  0  0
   35.3360   21.2580   31.8820 C   0  0  0  0  0  0  0  0  0  0  0  0
   35.5880   21.1260   30.5260 F   0  0  0  0  0  0  0  0  0  0  0  0
   35.0550   22.5930   32.1000 F   0  0  0  0  0  0  0  0  0  0  0  0
   34.2880   20.4880   32.2810 F   0  0  0  0  0  0  0  0  0  0  0  0
   38.6240   26.9150   35.6120 S   0  0  0  0  0  0  0  0  0  0  0  0
   38.9610   27.1360   32.8680 C   0  0  0  0  0  0  0  0  0  0  0  0
   39.5890   27.0460   34.1010 C   0  0  0  0  0  0  0  0  0  0  0  0
   40.9590   27.0500   34.2490 C   0  0  0  0  0  0  0  0  0  0  0  0
   41.4700   26.9820   35.1930 H   0  0  0  0  0  0  0  0  0  0  0  0
   41.6920   27.1520   33.0660 C   0  0  0  0  0  0  0  0  0  0  0  0
   42.7700   27.1620   33.1120 H   0  0  0  0  0  0  0  0  0  0  0  0
   41.1080   27.2440   31.8250 C   0  0  0  0  0  3  0  0  0  0  0  0
   39.7310   27.2350   31.7340 C   0  0  0  0  0  3  0  0  0  0  0  0
   36.7300   28.1580   33.0080 N   0  0  0  0  0  0  0  0  0  0  0  0
   37.4980   27.1190   32.8760 C   0  0  0  0  0  0  0  0  0  0  0  0
   36.8020   25.9070   32.7330 N   0  0  0  0  0  0  0  0  0  0  0  0
   37.1870   29.1010   33.1200 H   0  0  0  0  0  0  0  0  0  0  0  0
   36.3940   24.9670   32.7100 H   0  0  0  0  0  0  0  0  0  0  0  0
   35.9250   25.7640   32.1780 H   0  0  0  0  0  0  0  0  0  0  0  0
  1  2  1  0  0  0  0
  2  7  1  0  0  0  0
  2  3  2  0  0  0  0
  3  8  1  0  0  0  0
  4  3  1  0  0  0  0
  5  4  2  0  0  0  0
  6  1  2  0  0  0  0
  6  5  1  0  0  0  0
  9  1  1  0  0  0  0
 10 14  1  0  0  0  0
 10  9  1  0  0  0  0
 10 15  1  0  0  0  0
 11 16  1  6  0  0  0
 11 10  1  0  0  0  0
 12 11  1  0  0  0  0
 12 13  1  0  0  0  0
 13 20  1  0  0  0  0
 13  9  1  0  0  0  0
 17 12  1  0  0  0  0
 18 12  1  0  0  0  0
 19 13  1  0  0  0  0
 21 23  1  0  0  0  0
 21 24  1  0  0  0  0
 21 11  1  0  0  0  0
 22 21  1  0  0  0  0
 25  5  1  0  0  0  0
 26 35  1  0  0  0  0
 26 27  1  0  0  0  0
 27 28  2  0  0  0  0
 27 25  1  0  0  0  0
 28 29  1  0  0  0  0
 30 31  1  0  0  0  0
 30 28  1  0  0  0  0
 32 30  2  0  0  0  0
 33 32  1  0  0  0  0
 33 26  2  0  0  0  0
 34 37  1  0  0  0  0
 35 34  2  0  0  0  0
 36 35  1  0  0  0  0
 38 36  1  0  0  0  0
 39 36  1  0  0  0  0
M  END
>  <minimizedAffinity>
-5.75193739

$$$$

 OpenBabel03272503313D

 39 41  0  0  1  0  0  0  0  0999 V2000
   38.1470   25.1650   35.4870 C   0  0  0  0  0  0  0  0  0  0  0  0
   38.3930   26.3380   36.2050 C   0  0  0  0  0  0  0  0  0  0  0  0
   38.0880   27.5330   35.5480 C   0  0  0  0  0  0  0  0  0  0  0  0
   37.5790   27.4470   34.2700 N   0  0  0  0  0  0  0  0  0  0  0  0
   37.3610   26.2980   33.6230 C   0  0  0  0  0  0  0  0  0  0  0  0
   37.6510   25.1470   34.2480 N   0  0  0  0  0  0  0  0  0  0  0  0
   38.7920   26.3630   37.2030 H   0  0  0  0  0  0  0  0  0  0  0  0
   38.2420   28.4980   36.0150 H   0  0  0  0  0  0  0  0  0  0  0  0
   38.4620   23.9290   36.1670 N   0  0  0  0  0  0  0  0  0  0  0  0
   39.2680   22.8460   35.6730 C   0  0  0  0  0  0  0  0  0  0  0  0
   39.8150   22.2350   36.9500 C   0  0  2  0  0  0  0  0  0  0  0  0
   39.3490   23.1270   38.0810 C   0  0  0  0  0  0  0  0  0  0  0  0
   38.0170   23.5530   37.4880 C   0  0  0  0  0  0  0  0  0  0  0  0
   40.1300   23.2380   35.0740 H   0  0  0  0  0  0  0  0  0  0  0  0
   38.6610   22.1100   35.0870 H   0  0  0  0  0  0  0  0  0  0  0  0
   39.3690   21.2350   37.0550 H   0  0  0  0  0  0  0  0  0  0  0  0
   39.1350   22.5700   39.0110 H   0  0  0  0  0  0  0  0  0  0  0  0
   39.9890   24.0050   38.2390 H   0  0  0  0  0  0  0  0  0  0  0  0
   37.6950   24.4680   38.0250 H   0  0  0  0  0  0  0  0  0  0  0  0
   37.2820   22.7430   37.5080 H   0  0  0  0  0  0  0  0  0  0  0  0
   41.3090   22.0910   36.9230 C   0  0  0  0  0  0  0  0  0  0  0  0
   41.6240   21.4490   35.7350 F   0  0  0  0  0  0  0  0  0  0  0  0
   41.6560   21.2230   37.9400 F   0  0  0  0  0  0  0  0  0  0  0  0
   41.9810   23.2650   37.0590 F   0  0  0  0  0  0  0  0  0  0  0  0
   36.7050   26.2910   31.9850 S   0  0  0  0  0  0  0  0  0  0  0  0
   37.9670   28.1890   30.4050 C   0  0  0  0  0  0  0  0  0  0  0  0
   36.8650   27.8970   31.1950 C   0  0  0  0  0  0  0  0  0  0  0  0
   35.8450   28.7950   31.4210 C   0  0  0  0  0  0  0  0  0  0  0  0
   34.9800   28.5930   32.0280 H   0  0  0  0  0  0  0  0  0  0  0  0
   35.9850   30.0360   30.8000 C   0  0  0  0  0  0  0  0  0  0  0  0
   35.2210   30.7860   30.9360 H   0  0  0  0  0  0  0  0  0  0  0  0
   37.0620   30.3650   30.0100 C   0  0  0  0  0  3  0  0  0  0  0  0
   38.0570   29.4280   29.8160 C   0  0  0  0  0  3  0  0  0  0  0  0
   38.9670   26.2110   29.3430 N   0  0  0  0  0  0  0  0  0  0  0  0
   38.9670   27.1300   30.2610 C   0  0  0  0  0  0  0  0  0  0  0  0
   40.0450   27.0440   31.1570 N   0  0  0  0  0  0  0  0  0  0  0  0
   38.1860   26.2160   28.6360 H   0  0  0  0  0  0  0  0  0  0  0  0
   40.7390   27.0170   31.9120 H   0  0  0  0  0  0  0  0  0  0  0  0
   41.0330   26.8020   30.9090 H   0  0  0  0  0  0  0  0  0  0  0  0
  1  9  1  0  0  0  0
  1  2  1  0  0  0  0
  2  7  1  0  0  0  0
  3  8  1  0  0  0  0
  3  2  2  0  0  0  0
  4  3  1  0  0  0  0
  5  6  1  0  0  0  0
  5  4  2  0  0  0  0
  6  1  2  0  0  0  0
  9 13  1  0  0  0  0
 10  9  1  0  0  0  0
 10 11  1  0  0  0  0
 11 16  1  1  0  0  0
 11 12  1  0  0  0  0
 12 18  1  0  0  0  0
 12 17  1  0  0  0  0
 13 20  1  0  0  0  0
 13 19  1  0  0  0  0
 13 12  1  0  0  0  0
 14 10  1  0  0  0  0
 15 10  1  0  0  0  0
 21 11  1  0  0  0  0
 21 24  1  0  0  0  0
 21 23  1  0  0  0  0
 22 21  1  0  0  0  0
 25  5  1  0  0  0  0
 26 27  1  0  0  0  0
 27 28  2  0  0  0  0
 27 25  1  0  0  0  0
 28 29  1  0  0  0  0
 30 31  1  0  0  0  0
 30 28  1  0  0  0  0
 32 30  2  0  0  0  0
 33 32  1  0  0  0  0
 33 26  2  0  0  0  0
 34 35  2  0  0  0  0
 35 26  1  0  0  0  0
 35 36  1  0  0  0  0
 36 38  1  0  0  0  0
 37 34  1  0  0  0  0
 39 36  1  0  0  0  0
M  END
>  <minimizedAffinity>
-5.7502389

$$$$
