REMARK  Name = 
REMARK  5 active torsions:
REMARK  status: ('A' for Active; 'I' for Inactive)
REMARK    1  A    between atoms: C_1  and  C_2
REMARK    2  A    between atoms: C_1  and  C_8
REMARK    3  A    between atoms: C_8  and  C_9
REMARK    4  A    between atoms: N_12  and  C_27
REMARK    5  A    between atoms: C_24  and  C_26
REMARK                            x       y       z     vdW  Elec       q    Type
REMARK                         _______ _______ _______ _____ _____    ______ ____
ROOT
ATOM      1  C   UNL     1      37.258  30.697  49.533  0.00  0.00    +0.000 A 
ATOM      2  C   UNL     1      36.325  29.813  50.046  0.00  0.00    +0.000 A 
ATOM      3  C   UNL     1      36.695  29.500  51.328  0.00  0.00    +0.000 A 
ATOM      4  N   UNL     1      37.826  30.183  51.574  0.00  0.00    +0.000 N 
ATOM      5  N   UNL     1      38.127  30.872  50.505  0.00  0.00    +0.000 NA
ATOM      6  H   UNL     1      35.426  29.396  49.568  0.00  0.00    +0.000 HD
ATOM      7  H   UNL     1      36.197  28.848  52.005  0.00  0.00    +0.000 HD
ENDROOT
BRANCH   4   9
ATOM      8  C   UNL     1      39.703  30.786  53.106  0.00  0.00    +0.000 A 
ATOM      9  C   UNL     1      38.522  30.109  52.830  0.00  0.00    +0.000 A 
ATOM     10  C   UNL     1      37.987  29.317  53.828  0.00  0.00    +0.000 A 
ATOM     11  H   UNL     1      37.059  28.761  53.666  0.00  0.00    +0.000 HD
ATOM     12  C   UNL     1      38.531  29.141  55.084  0.00  0.00    +0.000 A 
ATOM     13  H   UNL     1      38.070  28.507  55.829  0.00  0.00    +0.000 HD
ATOM     14  C   UNL     1      39.716  29.828  55.341  0.00  0.00    +0.000 A 
ATOM     15  C   UNL     1      40.263  30.624  54.356  0.00  0.00    +0.000 A 
BRANCH   8  17
ATOM     16  N   UNL     1      39.444  32.167  51.220  0.00  0.00    +0.000 NA
ATOM     17  C   UNL     1      40.272  31.624  52.058  0.00  0.00    +0.000 C 
ATOM     18  N   UNL     1      41.710  31.704  52.139  0.00  0.00    +0.000 N 
ATOM     19  H   UNL     1      39.745  32.780  50.438  0.00  0.00    +0.000 HD
ATOM     20  H   UNL     1      42.180  30.774  51.943  0.00  0.00    +0.000 HD
ATOM     21  H   UNL     1      42.189  32.603  52.370  0.00  0.00    +0.000 HD
ENDBRANCH   8  17
ENDBRANCH   4   9
BRANCH   1  22
ATOM     22  C   UNL     1      37.135  31.219  48.152  0.00  0.00    +0.000 C 
ATOM     23  H   UNL     1      36.069  31.110  47.778  0.00  0.00    +0.000 HD
ATOM     24  H   UNL     1      37.243  32.310  48.219  0.00  0.00    +0.000 HD
BRANCH  22  25
ATOM     25  C   UNL     1      37.981  30.502  47.170  0.00  0.00    +0.000 C 
ATOM     26  H   UNL     1      38.527  29.699  47.755  0.00  0.00    +0.000 HD
ATOM     27  H   UNL     1      37.380  29.880  46.439  0.00  0.00    +0.000 HD
BRANCH  25  28
ATOM     28  C   UNL     1      38.976  31.242  46.445  0.00  0.00    +0.000 A 
ATOM     29  C   UNL     1      39.252  32.550  46.741  0.00  0.00    +0.000 A 
ATOM     30  C   UNL     1      40.228  33.265  46.011  0.00  0.00    +0.000 A 
ATOM     31  N   UNL     1      40.862  32.551  45.005  0.00  0.00    +0.000 NA
ATOM     32  C   UNL     1      40.554  31.260  44.753  0.00  0.00    +0.000 A 
ATOM     33  N   UNL     1      39.610  30.606  45.475  0.00  0.00    +0.000 NA
ATOM     34  H   UNL     1      38.829  33.192  47.493  0.00  0.00    +0.000 HD
ATOM     35  H   UNL     1      40.518  34.290  46.163  0.00  0.00    +0.000 HD
ATOM     36  H   UNL     1      41.105  30.769  43.938  0.00  0.00    +0.000 HD
ENDBRANCH  25  28
ENDBRANCH  22  25
ENDBRANCH   1  22
TORSDOF 5
