
 OpenBabel03272500063D

 34 36  0  0  0  0  0  0  0  0999 V2000
   38.1750   24.3030   33.3920 C   0  0  0  0  0  0  0  0  0  0  0  0
   38.4680   24.7140   34.7200 C   0  0  0  0  0  0  0  0  0  0  0  0
   37.9010   25.8990   35.1720 C   0  0  0  0  0  0  0  0  0  0  0  0
   37.0950   26.6040   34.3210 N   0  0  0  0  0  0  0  0  0  0  0  0
   36.8320   26.2070   33.0840 C   0  0  0  0  0  0  0  0  0  0  0  0
   37.3740   25.0380   32.6010 N   0  0  0  0  0  0  0  0  0  0  0  0
   38.6230   23.3740   33.0500 H   0  0  0  0  0  0  0  0  0  0  0  0
   38.1260   26.2020   36.1750 H   0  0  0  0  0  0  0  0  0  0  0  0
   39.3290   23.8890   35.4880 N   0  0  0  0  0  0  0  0  0  0  0  0
   40.6530   23.9740   35.4310 C   0  0  0  0  0  0  0  0  0  0  0  0
   41.4390   23.1300   36.2150 C   0  0  0  0  0  0  0  0  0  0  0  0
   40.7380   22.2490   37.0090 C   0  0  0  0  0  0  0  0  0  0  0  0
   41.4370   21.4770   37.7260 O   0  0  0  0  0  0  0  0  0  0  0  0
   39.4120   22.1360   37.0910 N   0  0  0  0  0  0  0  0  0  0  0  0
   38.7010   22.9860   36.3050 C   0  0  0  0  0  0  0  0  0  0  0  0
   37.4240   22.8810   36.3810 O   0  0  0  0  0  0  0  0  0  0  0  0
   41.0700   24.7030   34.7710 H   0  0  0  0  0  0  0  0  0  0  0  0
   42.5060   23.1940   36.1740 H   0  0  0  0  0  0  0  0  0  0  0  0
   38.9610   21.4510   37.7110 H   0  0  0  0  0  0  0  0  0  0  0  0
   36.0250   26.9060   32.2130 O   0  0  0  0  0  0  0  0  0  0  0  0
   36.6590   29.0140   31.0750 C   0  0  0  0  0  0  0  0  0  0  0  0
   36.1140   28.2560   32.0840 C   0  0  0  0  0  0  0  0  0  0  0  0
   35.5530   28.9590   33.1530 C   0  0  0  0  0  0  0  0  0  0  0  0
   35.0810   28.4940   34.0290 H   0  0  0  0  0  0  0  0  0  0  0  0
   35.5830   30.3360   33.1360 C   0  0  0  0  0  0  0  0  0  0  0  0
   35.1600   30.9030   33.9460 H   0  0  0  0  0  0  0  0  0  0  0  0
   36.1370   31.0530   32.1120 C   0  0  0  0  0  3  0  0  0  0  0  0
   36.6850   30.3900   31.0630 C   0  0  0  0  0  3  0  0  0  0  0  0
   37.8810   27.2260   30.1170 N   0  0  0  0  0  0  0  0  0  0  0  0
   37.2210   28.3480   29.9330 C   0  0  0  0  0  0  0  0  0  0  0  0
   37.4570   28.2710   28.5460 N   0  0  0  0  0  0  0  0  0  0  0  0
   38.0230   26.7890   31.0300 H   0  0  0  0  0  0  0  0  0  0  0  0
   38.2960   28.6900   28.0440 H   0  0  0  0  0  0  0  0  0  0  0  0
   36.8220   27.7890   27.8420 H   0  0  0  0  0  0  0  0  0  0  0  0
  1  2  1  0  0  0  0
  2  3  2  0  0  0  0
  2  9  1  0  0  0  0
  3  8  1  0  0  0  0
  4  3  1  0  0  0  0
  5  4  2  0  0  0  0
  6  5  1  0  0  0  0
  6  1  2  0  0  0  0
  7  1  1  0  0  0  0
  9 15  1  0  0  0  0
 10  9  1  0  0  0  0
 10 11  2  0  0  0  0
 11 12  1  0  0  0  0
 12 14  1  0  0  0  0
 12 13  2  0  0  0  0
 14 19  1  0  0  0  0
 15 16  2  0  0  0  0
 15 14  1  0  0  0  0
 17 10  1  0  0  0  0
 18 11  1  0  0  0  0
 20  5  1  0  0  0  0
 21 22  1  0  0  0  0
 22 20  1  0  0  0  0
 22 23  2  0  0  0  0
 23 24  1  0  0  0  0
 25 23  1  0  0  0  0
 25 26  1  0  0  0  0
 27 25  2  0  0  0  0
 28 21  2  0  0  0  0
 28 27  1  0  0  0  0
 29 32  1  0  0  0  0
 30 29  2  0  0  0  0
 30 21  1  0  0  0  0
 31 30  1  0  0  0  0
 33 31  1  0  0  0  0
 34 31  1  0  0  0  0
M  END
>  <minimizedAffinity>
-5.97240734

$$$$

 OpenBabel03272500063D

 34 36  0  0  0  0  0  0  0  0999 V2000
   38.3600   26.1440   33.2640 C   0  0  0  0  0  0  0  0  0  0  0  0
   37.9650   25.7480   31.9580 C   0  0  0  0  0  0  0  0  0  0  0  0
   37.5940   24.4230   31.7660 C   0  0  0  0  0  0  0  0  0  0  0  0
   37.6290   23.5730   32.8370 N   0  0  0  0  0  0  0  0  0  0  0  0
   38.0020   23.9570   34.0490 C   0  0  0  0  0  0  0  0  0  0  0  0
   38.3740   25.2620   34.2800 N   0  0  0  0  0  0  0  0  0  0  0  0
   38.6470   27.1830   33.4020 H   0  0  0  0  0  0  0  0  0  0  0  0
   37.2970   24.1330   30.7790 H   0  0  0  0  0  0  0  0  0  0  0  0
   37.9860   26.7340   30.9390 N   0  0  0  0  0  0  0  0  0  0  0  0
   39.0970   27.1020   30.3110 C   0  0  0  0  0  0  0  0  0  0  0  0
   39.0440   28.0790   29.3180 C   0  0  0  0  0  0  0  0  0  0  0  0
   37.7900   28.5930   29.0700 C   0  0  0  0  0  0  0  0  0  0  0  0
   37.7260   29.4810   28.1710 O   0  0  0  0  0  0  0  0  0  0  0  0
   36.6550   28.2480   29.6790 N   0  0  0  0  0  0  0  0  0  0  0  0
   36.7710   27.2910   30.6360 C   0  0  0  0  0  0  0  0  0  0  0  0
   35.6810   26.9550   31.2240 O   0  0  0  0  0  0  0  0  0  0  0  0
   40.0060   26.6220   30.6020 H   0  0  0  0  0  0  0  0  0  0  0  0
   39.9360   28.3800   28.8090 H   0  0  0  0  0  0  0  0  0  0  0  0
   35.7540   28.6790   29.4350 H   0  0  0  0  0  0  0  0  0  0  0  0
   38.0460   23.1140   35.1380 O   0  0  0  0  0  0  0  0  0  0  0  0
   39.5960   22.8850   37.0580 C   0  0  0  0  0  0  0  0  0  0  0  0
   39.2190   22.7840   35.7390 C   0  0  0  0  0  0  0  0  0  0  0  0
   40.1700   22.2600   34.8610 C   0  0  0  0  0  0  0  0  0  0  0  0
   40.0150   22.1180   33.7830 H   0  0  0  0  0  0  0  0  0  0  0  0
   41.4010   21.8880   35.3550 C   0  0  0  0  0  0  0  0  0  0  0  0
   42.1530   21.4820   34.7020 H   0  0  0  0  0  0  0  0  0  0  0  0
   41.7370   22.0060   36.6750 C   0  0  0  0  0  3  0  0  0  0  0  0
   40.8270   22.5110   37.5450 C   0  0  0  0  0  3  0  0  0  0  0  0
   38.3330   22.6340   39.0450 N   0  0  0  0  0  0  0  0  0  0  0  0
   38.6480   23.3860   38.0140 C   0  0  0  0  0  0  0  0  0  0  0  0
   37.7740   24.3930   38.4680 N   0  0  0  0  0  0  0  0  0  0  0  0
   38.7240   21.7050   39.2160 H   0  0  0  0  0  0  0  0  0  0  0  0
   36.7460   24.4750   38.2070 H   0  0  0  0  0  0  0  0  0  0  0  0
   38.0420   25.1880   39.1220 H   0  0  0  0  0  0  0  0  0  0  0  0
  1  7  1  0  0  0  0
  1  6  1  0  0  0  0
  2  1  2  0  0  0  0
  3  2  1  0  0  0  0
  3  4  2  0  0  0  0
  4  5  1  0  0  0  0
  5  6  2  0  0  0  0
  5 20  1  0  0  0  0
  8  3  1  0  0  0  0
  9  2  1  0  0  0  0
 10 17  1  0  0  0  0
 10  9  1  0  0  0  0
 11 10  2  0  0  0  0
 12 11  1  0  0  0  0
 12 14  1  0  0  0  0
 13 12  2  0  0  0  0
 14 15  1  0  0  0  0
 15  9  1  0  0  0  0
 15 16  2  0  0  0  0
 18 11  1  0  0  0  0
 19 14  1  0  0  0  0
 20 22  1  0  0  0  0
 21 28  1  0  0  0  0
 21 30  1  0  0  0  0
 22 21  2  0  0  0  0
 23 25  2  0  0  0  0
 23 22  1  0  0  0  0
 24 23  1  0  0  0  0
 25 27  1  0  0  0  0
 26 25  1  0  0  0  0
 27 28  2  0  0  0  0
 29 32  1  0  0  0  0
 30 31  1  0  0  0  0
 30 29  2  0  0  0  0
 31 34  1  0  0  0  0
 33 31  1  0  0  0  0
M  END
>  <minimizedAffinity>
-5.84669685

$$$$

 OpenBabel03272500063D

 34 36  0  0  0  0  0  0  0  0999 V2000
   35.7420   25.9940   30.9280 C   0  0  0  0  0  0  0  0  0  0  0  0
   36.2910   26.9900   31.7780 C   0  0  0  0  0  0  0  0  0  0  0  0
   37.2910   26.6090   32.6630 C   0  0  0  0  0  0  0  0  0  0  0  0
   37.6930   25.3010   32.6710 N   0  0  0  0  0  0  0  0  0  0  0  0
   37.1690   24.3830   31.8720 C   0  0  0  0  0  0  0  0  0  0  0  0
   36.1770   24.7220   30.9810 N   0  0  0  0  0  0  0  0  0  0  0  0
   34.9610   26.3040   30.2380 H   0  0  0  0  0  0  0  0  0  0  0  0
   37.7010   27.3670   33.3000 H   0  0  0  0  0  0  0  0  0  0  0  0
   35.7710   28.3060   31.6690 N   0  0  0  0  0  0  0  0  0  0  0  0
   34.8610   28.7950   32.5030 C   0  0  0  0  0  0  0  0  0  0  0  0
   34.3940   30.0990   32.3360 C   0  0  0  0  0  0  0  0  0  0  0  0
   34.9440   30.7850   31.2750 C   0  0  0  0  0  0  0  0  0  0  0  0
   34.5300   31.9690   31.1110 O   0  0  0  0  0  0  0  0  0  0  0  0
   35.8580   30.3260   30.4190 N   0  0  0  0  0  0  0  0  0  0  0  0
   36.2740   29.0510   30.6340 C   0  0  0  0  0  0  0  0  0  0  0  0
   37.1540   28.6050   29.8140 O   0  0  0  0  0  0  0  0  0  0  0  0
   34.5180   28.1550   33.2850 H   0  0  0  0  0  0  0  0  0  0  0  0
   33.6610   30.4990   33.0040 H   0  0  0  0  0  0  0  0  0  0  0  0
   36.2210   30.9030   29.6500 H   0  0  0  0  0  0  0  0  0  0  0  0
   37.5590   23.0610   31.8690 O   0  0  0  0  0  0  0  0  0  0  0  0
   36.8150   21.6740   33.7830 C   0  0  0  0  0  0  0  0  0  0  0  0
   36.8180   22.0960   32.4740 C   0  0  0  0  0  0  0  0  0  0  0  0
   35.9270   21.4510   31.6130 C   0  0  0  0  0  0  0  0  0  0  0  0
   35.8150   21.6790   30.5450 H   0  0  0  0  0  0  0  0  0  0  0  0
   35.1200   20.4520   32.1120 C   0  0  0  0  0  0  0  0  0  0  0  0
   34.4260   19.9390   31.4710 H   0  0  0  0  0  0  0  0  0  0  0  0
   35.1490   20.0610   33.4220 C   0  0  0  0  0  3  0  0  0  0  0  0
   36.0060   20.6750   34.2750 C   0  0  0  0  0  3  0  0  0  0  0  0
   37.7200   21.8820   35.9610 N   0  0  0  0  0  0  0  0  0  0  0  0
   37.6850   22.3220   34.7230 C   0  0  0  0  0  0  0  0  0  0  0  0
   38.6380   23.3110   35.0380 N   0  0  0  0  0  0  0  0  0  0  0  0
   37.1610   21.0970   36.3040 H   0  0  0  0  0  0  0  0  0  0  0  0
   38.4110   24.2910   35.3870 H   0  0  0  0  0  0  0  0  0  0  0  0
   39.6920   23.1940   34.9610 H   0  0  0  0  0  0  0  0  0  0  0  0
  1  6  2  0  0  0  0
  1  2  1  0  0  0  0
  2  3  2  0  0  0  0
  3  4  1  0  0  0  0
  3  8  1  0  0  0  0
  5  4  2  0  0  0  0
  6  5  1  0  0  0  0
  7  1  1  0  0  0  0
  9  2  1  0  0  0  0
  9 10  1  0  0  0  0
 10 17  1  0  0  0  0
 11 10  2  0  0  0  0
 11 18  1  0  0  0  0
 12 11  1  0  0  0  0
 13 12  2  0  0  0  0
 14 15  1  0  0  0  0
 14 12  1  0  0  0  0
 15  9  1  0  0  0  0
 16 15  2  0  0  0  0
 19 14  1  0  0  0  0
 20  5  1  0  0  0  0
 20 22  1  0  0  0  0
 21 28  1  0  0  0  0
 21 30  1  0  0  0  0
 22 21  2  0  0  0  0
 23 25  2  0  0  0  0
 23 22  1  0  0  0  0
 24 23  1  0  0  0  0
 25 27  1  0  0  0  0
 26 25  1  0  0  0  0
 27 28  2  0  0  0  0
 29 32  1  0  0  0  0
 30 31  1  0  0  0  0
 30 29  2  0  0  0  0
 31 33  1  0  0  0  0
 34 31  1  0  0  0  0
M  END
>  <minimizedAffinity>
-5.48504066

$$$$

 OpenBabel03272500063D

 34 36  0  0  0  0  0  0  0  0999 V2000
   36.4490   28.9370   31.1240 C   0  0  0  0  0  0  0  0  0  0  0  0
   36.6770   27.8780   32.0430 C   0  0  0  0  0  0  0  0  0  0  0  0
   36.3920   28.1090   33.3820 C   0  0  0  0  0  0  0  0  0  0  0  0
   35.9080   29.3350   33.7450 N   0  0  0  0  0  0  0  0  0  0  0  0
   35.7020   30.3140   32.8760 C   0  0  0  0  0  0  0  0  0  0  0  0
   35.9720   30.1240   31.5400 N   0  0  0  0  0  0  0  0  0  0  0  0
   36.6760   28.7450   30.0780 H   0  0  0  0  0  0  0  0  0  0  0  0
   36.5660   27.3040   34.0690 H   0  0  0  0  0  0  0  0  0  0  0  0
   37.1920   26.6610   31.5270 N   0  0  0  0  0  0  0  0  0  0  0  0
   38.4920   26.4090   31.4280 C   0  0  0  0  0  0  0  0  0  0  0  0
   38.9270   25.1890   30.9100 C   0  0  0  0  0  0  0  0  0  0  0  0
   37.9240   24.3230   30.5340 C   0  0  0  0  0  0  0  0  0  0  0  0
   38.3040   23.2120   30.0620 O   0  0  0  0  0  0  0  0  0  0  0  0
   36.6120   24.5420   30.6180 N   0  0  0  0  0  0  0  0  0  0  0  0
   36.2500   25.7470   31.1310 C   0  0  0  0  0  0  0  0  0  0  0  0
   34.9880   25.9620   31.2160 O   0  0  0  0  0  0  0  0  0  0  0  0
   39.1650   27.1700   31.7580 H   0  0  0  0  0  0  0  0  0  0  0  0
   39.9730   24.9800   30.8290 H   0  0  0  0  0  0  0  0  0  0  0  0
   35.9220   23.8420   30.3150 H   0  0  0  0  0  0  0  0  0  0  0  0
   35.2190   31.5560   33.2250 O   0  0  0  0  0  0  0  0  0  0  0  0
   36.4010   32.9480   34.9000 C   0  0  0  0  0  0  0  0  0  0  0  0
   36.0450   32.5560   33.6320 C   0  0  0  0  0  0  0  0  0  0  0  0
   36.6100   33.2790   32.5780 C   0  0  0  0  0  0  0  0  0  0  0  0
   36.4220   33.0830   31.5140 H   0  0  0  0  0  0  0  0  0  0  0  0
   37.4670   34.3190   32.8650 C   0  0  0  0  0  0  0  0  0  0  0  0
   37.9150   34.8930   32.0740 H   0  0  0  0  0  0  0  0  0  0  0  0
   37.7940   34.6780   34.1430 C   0  0  0  0  0  3  0  0  0  0  0  0
   37.2580   33.9880   35.1810 C   0  0  0  0  0  3  0  0  0  0  0  0
   36.2900   30.9890   36.2260 N   0  0  0  0  0  0  0  0  0  0  0  0
   35.8790   32.2210   36.0230 C   0  0  0  0  0  0  0  0  0  0  0  0
   35.0480   32.1410   37.1580 N   0  0  0  0  0  0  0  0  0  0  0  0
   36.9680   30.5070   35.6310 H   0  0  0  0  0  0  0  0  0  0  0  0
   34.0370   31.8090   37.1550 H   0  0  0  0  0  0  0  0  0  0  0  0
   35.3350   32.4060   38.1470 H   0  0  0  0  0  0  0  0  0  0  0  0
  1  6  2  0  0  0  0
  1  2  1  0  0  0  0
  2  3  2  0  0  0  0
  3  4  1  0  0  0  0
  3  8  1  0  0  0  0
  5 20  1  0  0  0  0
  5  4  2  0  0  0  0
  6  5  1  0  0  0  0
  7  1  1  0  0  0  0
  9  2  1  0  0  0  0
 10  9  1  0  0  0  0
 10 17  1  0  0  0  0
 11 10  2  0  0  0  0
 12 14  1  0  0  0  0
 12 11  1  0  0  0  0
 13 12  2  0  0  0  0
 14 15  1  0  0  0  0
 15 16  2  0  0  0  0
 15  9  1  0  0  0  0
 18 11  1  0  0  0  0
 19 14  1  0  0  0  0
 20 22  1  0  0  0  0
 21 28  1  0  0  0  0
 21 30  1  0  0  0  0
 22 21  2  0  0  0  0
 23 25  2  0  0  0  0
 23 22  1  0  0  0  0
 24 23  1  0  0  0  0
 25 27  1  0  0  0  0
 26 25  1  0  0  0  0
 27 28  2  0  0  0  0
 30 29  2  0  0  0  0
 30 31  1  0  0  0  0
 31 34  1  0  0  0  0
 32 29  1  0  0  0  0
 33 31  1  0  0  0  0
M  END
>  <minimizedAffinity>
-5.4828434

$$$$

 OpenBabel03272500063D

 34 36  0  0  0  0  0  0  0  0999 V2000
   38.0360   23.9910   33.3380 C   0  0  0  0  0  0  0  0  0  0  0  0
   38.4670   24.5510   34.5710 C   0  0  0  0  0  0  0  0  0  0  0  0
   38.0350   25.8310   34.8880 C   0  0  0  0  0  0  0  0  0  0  0  0
   37.2210   26.4850   34.0040 N   0  0  0  0  0  0  0  0  0  0  0  0
   36.8290   25.9500   32.8560 C   0  0  0  0  0  0  0  0  0  0  0  0
   37.2350   24.6830   32.5070 N   0  0  0  0  0  0  0  0  0  0  0  0
   38.3800   22.9880   33.1000 H   0  0  0  0  0  0  0  0  0  0  0  0
   38.3630   26.2460   35.8200 H   0  0  0  0  0  0  0  0  0  0  0  0
   39.3190   23.7620   35.3870 N   0  0  0  0  0  0  0  0  0  0  0  0
   40.6420   23.7780   35.2780 C   0  0  0  0  0  0  0  0  0  0  0  0
   41.4190   22.9760   36.1140 C   0  0  0  0  0  0  0  0  0  0  0  0
   40.7090   22.2100   37.0130 C   0  0  0  0  0  0  0  0  0  0  0  0
   41.4000   21.4770   37.7790 O   0  0  0  0  0  0  0  0  0  0  0  0
   39.3830   22.1690   37.1490 N   0  0  0  0  0  0  0  0  0  0  0  0
   38.6820   22.9720   36.3070 C   0  0  0  0  0  0  0  0  0  0  0  0
   37.4060   22.9370   36.4360 O   0  0  0  0  0  0  0  0  0  0  0  0
   41.0660   24.4200   34.5380 H   0  0  0  0  0  0  0  0  0  0  0  0
   42.4850   22.9850   36.0330 H   0  0  0  0  0  0  0  0  0  0  0  0
   38.9260   21.5680   37.8480 H   0  0  0  0  0  0  0  0  0  0  0  0
   36.0130   26.5950   31.9530 O   0  0  0  0  0  0  0  0  0  0  0  0
   35.8890   29.0600   31.7300 C   0  0  0  0  0  0  0  0  0  0  0  0
   36.3470   27.8000   31.4220 C   0  0  0  0  0  0  0  0  0  0  0  0
   37.3100   27.7200   30.4120 C   0  0  0  0  0  0  0  0  0  0  0  0
   37.7690   26.7880   30.0580 H   0  0  0  0  0  0  0  0  0  0  0  0
   37.7300   28.8790   29.7970 C   0  0  0  0  0  0  0  0  0  0  0  0
   38.4690   28.8470   29.0160 H   0  0  0  0  0  0  0  0  0  0  0  0
   37.2480   30.1130   30.1320 C   0  0  0  0  0  3  0  0  0  0  0  0
   36.3140   30.2130   31.1110 C   0  0  0  0  0  3  0  0  0  0  0  0
   35.3070   29.0090   34.0240 N   0  0  0  0  0  0  0  0  0  0  0  0
   34.9240   29.2090   32.7820 C   0  0  0  0  0  0  0  0  0  0  0  0
   33.6160   29.4930   33.2210 N   0  0  0  0  0  0  0  0  0  0  0  0
   36.2590   28.7530   34.2950 H   0  0  0  0  0  0  0  0  0  0  0  0
   32.8400   28.7740   33.3390 H   0  0  0  0  0  0  0  0  0  0  0  0
   33.2530   30.4580   33.4810 H   0  0  0  0  0  0  0  0  0  0  0  0
  1  2  1  0  0  0  0
  2  3  2  0  0  0  0
  2  9  1  0  0  0  0
  3  8  1  0  0  0  0
  4  3  1  0  0  0  0
  5  4  2  0  0  0  0
  6  5  1  0  0  0  0
  6  1  2  0  0  0  0
  7  1  1  0  0  0  0
  9 15  1  0  0  0  0
 10  9  1  0  0  0  0
 10 11  2  0  0  0  0
 11 12  1  0  0  0  0
 12 14  1  0  0  0  0
 12 13  2  0  0  0  0
 14 19  1  0  0  0  0
 15 16  2  0  0  0  0
 15 14  1  0  0  0  0
 17 10  1  0  0  0  0
 18 11  1  0  0  0  0
 20  5  1  0  0  0  0
 21 30  1  0  0  0  0
 22 21  1  0  0  0  0
 22 20  1  0  0  0  0
 23 22  2  0  0  0  0
 24 23  1  0  0  0  0
 25 27  2  0  0  0  0
 25 23  1  0  0  0  0
 26 25  1  0  0  0  0
 27 28  1  0  0  0  0
 28 21  2  0  0  0  0
 29 32  1  0  0  0  0
 30 31  1  0  0  0  0
 30 29  2  0  0  0  0
 31 33  1  0  0  0  0
 31 34  1  0  0  0  0
M  END
>  <minimizedAffinity>
-5.45049524

$$$$

 OpenBabel03272500063D

 34 36  0  0  0  0  0  0  0  0999 V2000
   35.9170   29.0130   31.2250 C   0  0  0  0  0  0  0  0  0  0  0  0
   36.2330   28.0050   32.1750 C   0  0  0  0  0  0  0  0  0  0  0  0
   36.1670   28.3390   33.5210 C   0  0  0  0  0  0  0  0  0  0  0  0
   35.8040   29.6130   33.8610 N   0  0  0  0  0  0  0  0  0  0  0  0
   35.5130   30.5430   32.9630 C   0  0  0  0  0  0  0  0  0  0  0  0
   35.5650   30.2500   31.6190 N   0  0  0  0  0  0  0  0  0  0  0  0
   35.9710   28.7400   30.1740 H   0  0  0  0  0  0  0  0  0  0  0  0
   36.4070   27.5730   34.2310 H   0  0  0  0  0  0  0  0  0  0  0  0
   36.6050   26.7290   31.6780 N   0  0  0  0  0  0  0  0  0  0  0  0
   35.7230   25.7740   31.4050 C   0  0  0  0  0  0  0  0  0  0  0  0
   36.1600   24.5420   30.9190 C   0  0  0  0  0  0  0  0  0  0  0  0
   37.5240   24.4260   30.7620 C   0  0  0  0  0  0  0  0  0  0  0  0
   37.9360   23.3140   30.3220 O   0  0  0  0  0  0  0  0  0  0  0  0
   38.4370   25.3620   31.0270 N   0  0  0  0  0  0  0  0  0  0  0  0
   37.9500   26.5400   31.4960 C   0  0  0  0  0  0  0  0  0  0  0  0
   38.8240   27.4440   31.7510 O   0  0  0  0  0  0  0  0  0  0  0  0
   34.6920   25.9960   31.5720 H   0  0  0  0  0  0  0  0  0  0  0  0
   35.4560   23.7690   30.6960 H   0  0  0  0  0  0  0  0  0  0  0  0
   39.4420   25.1980   30.8820 H   0  0  0  0  0  0  0  0  0  0  0  0
   35.1490   31.8310   33.2880 O   0  0  0  0  0  0  0  0  0  0  0  0
   36.4500   33.0920   34.9780 C   0  0  0  0  0  0  0  0  0  0  0  0
   36.0600   32.7480   33.7050 C   0  0  0  0  0  0  0  0  0  0  0  0
   36.6870   33.4300   32.6600 C   0  0  0  0  0  0  0  0  0  0  0  0
   36.4830   33.2650   31.5930 H   0  0  0  0  0  0  0  0  0  0  0  0
   37.6330   34.3860   32.9580 C   0  0  0  0  0  0  0  0  0  0  0  0
   38.1310   34.9280   32.1740 H   0  0  0  0  0  0  0  0  0  0  0  0
   37.9920   34.6990   34.2400 C   0  0  0  0  0  3  0  0  0  0  0  0
   37.3960   34.0480   35.2700 C   0  0  0  0  0  3  0  0  0  0  0  0
   36.1750   31.1380   36.2870 N   0  0  0  0  0  0  0  0  0  0  0  0
   35.8650   32.4000   36.0930 C   0  0  0  0  0  0  0  0  0  0  0  0
   35.0250   32.3790   37.2240 N   0  0  0  0  0  0  0  0  0  0  0  0
   36.8140   30.6080   35.6910 H   0  0  0  0  0  0  0  0  0  0  0  0
   33.9900   32.1300   37.2130 H   0  0  0  0  0  0  0  0  0  0  0  0
   35.3270   32.6120   38.2160 H   0  0  0  0  0  0  0  0  0  0  0  0
  1  6  2  0  0  0  0
  1  2  1  0  0  0  0
  2  3  2  0  0  0  0
  3  4  1  0  0  0  0
  3  8  1  0  0  0  0
  5 20  1  0  0  0  0
  5  4  2  0  0  0  0
  6  5  1  0  0  0  0
  7  1  1  0  0  0  0
  9  2  1  0  0  0  0
 10 17  1  0  0  0  0
 10  9  1  0  0  0  0
 11 10  2  0  0  0  0
 12 11  1  0  0  0  0
 12 14  1  0  0  0  0
 13 12  2  0  0  0  0
 14 15  1  0  0  0  0
 15  9  1  0  0  0  0
 15 16  2  0  0  0  0
 18 11  1  0  0  0  0
 19 14  1  0  0  0  0
 20 22  1  0  0  0  0
 21 28  1  0  0  0  0
 21 30  1  0  0  0  0
 22 21  2  0  0  0  0
 23 25  2  0  0  0  0
 23 22  1  0  0  0  0
 24 23  1  0  0  0  0
 25 27  1  0  0  0  0
 26 25  1  0  0  0  0
 27 28  2  0  0  0  0
 30 29  2  0  0  0  0
 30 31  1  0  0  0  0
 31 34  1  0  0  0  0
 32 29  1  0  0  0  0
 33 31  1  0  0  0  0
M  END
>  <minimizedAffinity>
-5.43967247

$$$$

 OpenBabel03272500063D

 34 36  0  0  0  0  0  0  0  0999 V2000
   36.1860   24.2250   31.5610 C   0  0  0  0  0  0  0  0  0  0  0  0
   36.9280   23.2570   32.2900 C   0  0  0  0  0  0  0  0  0  0  0  0
   38.0030   23.7010   33.0490 C   0  0  0  0  0  0  0  0  0  0  0  0
   38.2910   25.0380   33.0560 N   0  0  0  0  0  0  0  0  0  0  0  0
   37.5900   25.9290   32.3690 C   0  0  0  0  0  0  0  0  0  0  0  0
   36.5170   25.5280   31.6070 N   0  0  0  0  0  0  0  0  0  0  0  0
   35.3460   23.8670   30.9720 H   0  0  0  0  0  0  0  0  0  0  0  0
   38.5570   22.9640   33.5960 H   0  0  0  0  0  0  0  0  0  0  0  0
   36.5220   21.9020   32.1820 N   0  0  0  0  0  0  0  0  0  0  0  0
   35.6080   21.3550   32.9750 C   0  0  0  0  0  0  0  0  0  0  0  0
   35.2580   20.0150   32.8120 C   0  0  0  0  0  0  0  0  0  0  0  0
   35.9220   19.3570   31.7990 C   0  0  0  0  0  0  0  0  0  0  0  0
   35.6140   18.1400   31.6390 O   0  0  0  0  0  0  0  0  0  0  0  0
   36.8430   19.8730   30.9860 N   0  0  0  0  0  0  0  0  0  0  0  0
   37.1410   21.1830   31.1930 C   0  0  0  0  0  0  0  0  0  0  0  0
   38.0260   21.6840   30.4120 O   0  0  0  0  0  0  0  0  0  0  0  0
   35.1700   21.9790   33.7220 H   0  0  0  0  0  0  0  0  0  0  0  0
   34.5220   19.5680   33.4470 H   0  0  0  0  0  0  0  0  0  0  0  0
   37.2950   19.3140   30.2500 H   0  0  0  0  0  0  0  0  0  0  0  0
   37.8690   27.2780   32.3620 O   0  0  0  0  0  0  0  0  0  0  0  0
   36.3190   29.0680   31.6310 C   0  0  0  0  0  0  0  0  0  0  0  0
   36.8950   28.2090   32.5370 C   0  0  0  0  0  0  0  0  0  0  0  0
   36.4200   28.2830   33.8490 C   0  0  0  0  0  0  0  0  0  0  0  0
   36.7810   27.6630   34.6800 H   0  0  0  0  0  0  0  0  0  0  0  0
   35.4300   29.1920   34.1510 C   0  0  0  0  0  0  0  0  0  0  0  0
   35.0460   29.2710   35.1520 H   0  0  0  0  0  0  0  0  0  0  0  0
   34.8840   30.0300   33.2180 C   0  0  0  0  0  3  0  0  0  0  0  0
   35.3300   29.9740   31.9380 C   0  0  0  0  0  3  0  0  0  0  0  0
   36.5940   27.8910   29.5950 N   0  0  0  0  0  0  0  0  0  0  0  0
   36.7420   29.0150   30.2590 C   0  0  0  0  0  0  0  0  0  0  0  0
   37.3050   29.6250   29.1210 N   0  0  0  0  0  0  0  0  0  0  0  0
   36.1910   27.0400   29.9940 H   0  0  0  0  0  0  0  0  0  0  0  0
   38.3430   29.6360   28.8820 H   0  0  0  0  0  0  0  0  0  0  0  0
   36.7600   30.1460   28.3720 H   0  0  0  0  0  0  0  0  0  0  0  0
  1  6  2  0  0  0  0
  1  2  1  0  0  0  0
  2  3  2  0  0  0  0
  3  4  1  0  0  0  0
  3  8  1  0  0  0  0
  5  4  2  0  0  0  0
  6  5  1  0  0  0  0
  7  1  1  0  0  0  0
  9  2  1  0  0  0  0
  9 10  1  0  0  0  0
 10 17  1  0  0  0  0
 11 10  2  0  0  0  0
 11 18  1  0  0  0  0
 12 11  1  0  0  0  0
 13 12  2  0  0  0  0
 14 15  1  0  0  0  0
 14 12  1  0  0  0  0
 15  9  1  0  0  0  0
 16 15  2  0  0  0  0
 19 14  1  0  0  0  0
 20  5  1  0  0  0  0
 20 22  1  0  0  0  0
 21 28  2  0  0  0  0
 21 22  1  0  0  0  0
 22 23  2  0  0  0  0
 23 25  1  0  0  0  0
 23 24  1  0  0  0  0
 25 26  1  0  0  0  0
 27 25  2  0  0  0  0
 28 27  1  0  0  0  0
 29 32  1  0  0  0  0
 29 30  2  0  0  0  0
 30 21  1  0  0  0  0
 31 30  1  0  0  0  0
 33 31  1  0  0  0  0
 34 31  1  0  0  0  0
M  END
>  <minimizedAffinity>
-5.4185605

$$$$

 OpenBabel03272500063D

 34 36  0  0  0  0  0  0  0  0999 V2000
   35.9640   29.1100   31.5150 C   0  0  0  0  0  0  0  0  0  0  0  0
   36.6680   28.1410   32.2810 C   0  0  0  0  0  0  0  0  0  0  0  0
   36.5200   28.1730   33.6610 C   0  0  0  0  0  0  0  0  0  0  0  0
   35.7100   29.1290   34.2100 N   0  0  0  0  0  0  0  0  0  0  0  0
   35.0620   30.0270   33.4820 C   0  0  0  0  0  0  0  0  0  0  0  0
   35.1820   30.0270   32.1120 N   0  0  0  0  0  0  0  0  0  0  0  0
   36.0870   29.0750   30.4360 H   0  0  0  0  0  0  0  0  0  0  0  0
   37.0540   27.4390   34.2310 H   0  0  0  0  0  0  0  0  0  0  0  0
   37.4820   27.2150   31.5790 N   0  0  0  0  0  0  0  0  0  0  0  0
   38.7690   27.4250   31.3320 C   0  0  0  0  0  0  0  0  0  0  0  0
   39.5090   26.4700   30.6350 C   0  0  0  0  0  0  0  0  0  0  0  0
   38.8040   25.3500   30.2520 C   0  0  0  0  0  0  0  0  0  0  0  0
   39.4610   24.4740   29.6190 O   0  0  0  0  0  0  0  0  0  0  0  0
   37.5130   25.1060   30.4810 N   0  0  0  0  0  0  0  0  0  0  0  0
   36.8460   26.0730   31.1650 C   0  0  0  0  0  0  0  0  0  0  0  0
   35.6040   25.8430   31.3890 O   0  0  0  0  0  0  0  0  0  0  0  0
   39.1940   28.3380   31.6860 H   0  0  0  0  0  0  0  0  0  0  0  0
   40.5470   26.6320   30.4340 H   0  0  0  0  0  0  0  0  0  0  0  0
   37.0560   24.2420   30.1620 H   0  0  0  0  0  0  0  0  0  0  0  0
   34.2450   30.9980   34.0190 O   0  0  0  0  0  0  0  0  0  0  0  0
   33.2900   31.0480   36.3050 C   0  0  0  0  0  0  0  0  0  0  0  0
   33.3220   30.7090   34.9730 C   0  0  0  0  0  0  0  0  0  0  0  0
   32.2460   29.9530   34.5000 C   0  0  0  0  0  0  0  0  0  0  0  0
   32.1310   29.6090   33.4630 H   0  0  0  0  0  0  0  0  0  0  0  0
   31.2440   29.5970   35.3750 C   0  0  0  0  0  0  0  0  0  0  0  0
   30.4050   29.0140   35.0390 H   0  0  0  0  0  0  0  0  0  0  0  0
   31.2510   29.9540   36.6950 C   0  0  0  0  0  3  0  0  0  0  0  0
   32.2850   30.6900   37.1740 C   0  0  0  0  0  3  0  0  0  0  0  0
   35.5890   31.5830   36.4910 N   0  0  0  0  0  0  0  0  0  0  0  0
   34.3510   31.8540   36.8410 C   0  0  0  0  0  0  0  0  0  0  0  0
   34.8020   32.9150   37.6500 N   0  0  0  0  0  0  0  0  0  0  0  0
   35.8510   30.8280   35.8530 H   0  0  0  0  0  0  0  0  0  0  0  0
   35.0670   32.8320   38.6770 H   0  0  0  0  0  0  0  0  0  0  0  0
   34.9250   33.9220   37.3280 H   0  0  0  0  0  0  0  0  0  0  0  0
  1  6  2  0  0  0  0
  1  2  1  0  0  0  0
  2  3  2  0  0  0  0
  3  4  1  0  0  0  0
  3  8  1  0  0  0  0
  5 20  1  0  0  0  0
  5  4  2  0  0  0  0
  6  5  1  0  0  0  0
  7  1  1  0  0  0  0
  9  2  1  0  0  0  0
 10  9  1  0  0  0  0
 10 17  1  0  0  0  0
 11 10  2  0  0  0  0
 12 14  1  0  0  0  0
 12 11  1  0  0  0  0
 13 12  2  0  0  0  0
 14 15  1  0  0  0  0
 15 16  2  0  0  0  0
 15  9  1  0  0  0  0
 18 11  1  0  0  0  0
 19 14  1  0  0  0  0
 20 22  1  0  0  0  0
 21 30  1  0  0  0  0
 21 28  1  0  0  0  0
 22 21  2  0  0  0  0
 23 22  1  0  0  0  0
 23 25  2  0  0  0  0
 24 23  1  0  0  0  0
 25 27  1  0  0  0  0
 26 25  1  0  0  0  0
 27 28  2  0  0  0  0
 29 30  2  0  0  0  0
 30 31  1  0  0  0  0
 31 33  1  0  0  0  0
 32 29  1  0  0  0  0
 34 31  1  0  0  0  0
M  END
>  <minimizedAffinity>
-5.39688683

$$$$

 OpenBabel03272500063D

 34 36  0  0  0  0  0  0  0  0999 V2000
   41.2330   25.2260   34.9000 C   0  0  0  0  0  0  0  0  0  0  0  0
   40.6620   23.9280   34.8100 C   0  0  0  0  0  0  0  0  0  0  0  0
   39.6280   23.7360   33.9030 C   0  0  0  0  0  0  0  0  0  0  0  0
   39.2160   24.7980   33.1470 N   0  0  0  0  0  0  0  0  0  0  0  0
   39.7580   26.0040   33.2430 C   0  0  0  0  0  0  0  0  0  0  0  0
   40.7850   26.2340   34.1300 N   0  0  0  0  0  0  0  0  0  0  0  0
   42.0410   25.3650   35.6130 H   0  0  0  0  0  0  0  0  0  0  0  0
   39.2030   22.7540   33.8410 H   0  0  0  0  0  0  0  0  0  0  0  0
   41.1820   22.9220   35.6640 N   0  0  0  0  0  0  0  0  0  0  0  0
   42.3240   22.2890   35.4240 C   0  0  0  0  0  0  0  0  0  0  0  0
   42.7760   21.3090   36.3070 C   0  0  0  0  0  0  0  0  0  0  0  0
   41.9600   21.0810   37.3940 C   0  0  0  0  0  0  0  0  0  0  0  0
   42.3580   20.1950   38.2040 O   0  0  0  0  0  0  0  0  0  0  0  0
   40.8090   21.6960   37.6670 N   0  0  0  0  0  0  0  0  0  0  0  0
   40.4220   22.6410   36.7700 C   0  0  0  0  0  0  0  0  0  0  0  0
   39.3160   23.2360   37.0280 O   0  0  0  0  0  0  0  0  0  0  0  0
   42.8610   22.5630   34.5420 H   0  0  0  0  0  0  0  0  0  0  0  0
   43.6960   20.7950   36.1200 H   0  0  0  0  0  0  0  0  0  0  0  0
   40.2550   21.4690   38.5020 H   0  0  0  0  0  0  0  0  0  0  0  0
   39.3520   27.0850   32.4920 O   0  0  0  0  0  0  0  0  0  0  0  0
   37.2720   27.7580   33.6580 C   0  0  0  0  0  0  0  0  0  0  0  0
   38.0860   27.5720   32.5660 C   0  0  0  0  0  0  0  0  0  0  0  0
   37.5530   27.9360   31.3260 C   0  0  0  0  0  0  0  0  0  0  0  0
   38.0810   27.8470   30.3680 H   0  0  0  0  0  0  0  0  0  0  0  0
   36.2730   28.4430   31.2720 C   0  0  0  0  0  0  0  0  0  0  0  0
   35.8370   28.7300   30.3320 H   0  0  0  0  0  0  0  0  0  0  0  0
   35.4950   28.6110   32.3840 C   0  0  0  0  0  3  0  0  0  0  0  0
   35.9940   28.2660   33.5970 C   0  0  0  0  0  3  0  0  0  0  0  0
   37.3990   26.3080   35.5250 N   0  0  0  0  0  0  0  0  0  0  0  0
   37.7770   27.4340   34.9620 C   0  0  0  0  0  0  0  0  0  0  0  0
   38.5660   27.7420   36.0880 N   0  0  0  0  0  0  0  0  0  0  0  0
   36.7610   25.6370   35.0900 H   0  0  0  0  0  0  0  0  0  0  0  0
   38.2320   28.2870   36.9390 H   0  0  0  0  0  0  0  0  0  0  0  0
   39.5860   27.4700   36.2140 H   0  0  0  0  0  0  0  0  0  0  0  0
  1  7  1  0  0  0  0
  2  1  1  0  0  0  0
  2  9  1  0  0  0  0
  3  2  2  0  0  0  0
  4  5  2  0  0  0  0
  4  3  1  0  0  0  0
  5  6  1  0  0  0  0
  6  1  2  0  0  0  0
  8  3  1  0  0  0  0
  9 15  1  0  0  0  0
 10  9  1  0  0  0  0
 10 11  2  0  0  0  0
 11 12  1  0  0  0  0
 12 14  1  0  0  0  0
 12 13  2  0  0  0  0
 14 19  1  0  0  0  0
 15 16  2  0  0  0  0
 15 14  1  0  0  0  0
 17 10  1  0  0  0  0
 18 11  1  0  0  0  0
 20 22  1  0  0  0  0
 20  5  1  0  0  0  0
 21 30  1  0  0  0  0
 22 21  2  0  0  0  0
 23 22  1  0  0  0  0
 24 23  1  0  0  0  0
 25 23  2  0  0  0  0
 25 27  1  0  0  0  0
 26 25  1  0  0  0  0
 27 28  2  0  0  0  0
 28 21  1  0  0  0  0
 30 29  2  0  0  0  0
 30 31  1  0  0  0  0
 31 34  1  0  0  0  0
 31 33  1  0  0  0  0
 32 29  1  0  0  0  0
M  END
>  <minimizedAffinity>
-5.38152361

$$$$
