
 OpenBabel03272503233D

 35 37  0  0  1  0  0  0  0  0999 V2000
   36.5220   29.5800   49.2510 N   0  0  0  0  0  0  0  0  0  0  0  0
   37.7890   30.0440   48.8930 C   0  0  2  0  0  0  0  0  0  0  0  0
   38.3440   30.6330   50.1830 C   0  0  0  0  0  0  0  0  0  0  0  0
   37.2470   30.5040   51.1950 C   0  0  0  0  0  0  0  0  0  0  0  0
   36.5880   29.2530   50.6900 C   0  0  0  0  0  0  0  0  0  0  0  0
   38.4050   29.0390   48.8450 H   0  0  0  0  0  0  0  0  0  0  0  0
   39.2160   30.0800   50.5820 H   0  0  0  0  0  0  0  0  0  0  0  0
   38.7090   31.6650   50.0510 H   0  0  0  0  0  0  0  0  0  0  0  0
   37.6600   30.2910   52.2240 H   0  0  0  0  0  0  0  0  0  0  0  0
   36.5470   31.3480   51.2620 H   0  0  0  0  0  0  0  0  0  0  0  0
   37.3040   28.4160   50.8330 H   0  0  0  0  0  0  0  0  0  0  0  0
   35.6040   29.0650   51.1100 H   0  0  0  0  0  0  0  0  0  0  0  0
   35.3500   29.3550   48.5070 C   0  0  0  0  0  0  0  0  0  0  0  0
   34.9190   30.4240   47.7470 C   0  0  0  0  0  0  0  0  0  0  0  0
   33.7970   30.3400   46.9310 C   0  0  0  0  0  0  0  0  0  0  0  0
   33.1600   29.1260   46.9380 N   0  0  0  0  0  0  0  0  0  0  0  0
   33.5870   28.0950   47.6780 C   0  0  0  0  0  0  0  0  0  0  0  0
   34.6910   28.2040   48.4730 N   0  0  0  0  0  0  0  0  0  0  0  0
   35.2520   31.4220   47.5880 H   0  0  0  0  0  0  0  0  0  0  0  0
   33.3250   31.0470   46.2880 H   0  0  0  0  0  0  0  0  0  0  0  0
   33.0450   27.1460   47.6510 H   0  0  0  0  0  0  0  0  0  0  0  0
   38.3750   32.1160   47.5370 C   0  0  0  0  0  0  0  0  0  0  0  0
   38.1740   30.7400   47.7200 C   0  0  0  0  0  0  0  0  0  0  0  0
   38.4280   30.0760   46.5060 C   0  0  0  0  0  0  0  0  0  0  0  0
   38.3120   28.9810   46.4860 H   0  0  0  0  0  0  0  0  0  0  0  0
   38.8050   30.6500   45.3410 C   0  0  0  0  0  0  0  0  0  0  0  0
   38.9780   30.0600   44.4540 H   0  0  0  0  0  0  0  0  0  0  0  0
   38.9700   32.0090   45.2800 C   0  0  0  0  0  3  0  0  0  0  0  0
   38.7570   32.7660   46.3850 C   0  0  0  0  0  3  0  0  0  0  0  0
   37.4950   33.4470   49.6470 N   0  0  0  0  0  0  0  0  0  0  0  0
   38.1420   32.9860   48.6680 C   0  0  0  0  0  0  0  0  0  0  0  0
   39.1440   33.9630   49.0320 N   0  0  0  0  0  0  0  0  0  0  0  0
   37.9410   34.2260   50.1910 H   0  0  0  0  0  0  0  0  0  0  0  0
   39.3180   34.8090   48.4140 H   0  0  0  0  0  0  0  0  0  0  0  0
   39.8980   34.4070   49.6000 H   0  0  0  0  0  0  0  0  0  0  0  0
  1  5  1  0  0  0  0
  2  6  1  6  0  0  0
  2  1  1  0  0  0  0
  2  3  1  0  0  0  0
  3  7  1  0  0  0  0
  3  4  1  0  0  0  0
  4 10  1  0  0  0  0
  4  9  1  0  0  0  0
  5 11  1  0  0  0  0
  5 12  1  0  0  0  0
  5  4  1  0  0  0  0
  8  3  1  0  0  0  0
 13  1  1  0  0  0  0
 14 13  2  0  0  0  0
 15 16  2  0  0  0  0
 15 14  1  0  0  0  0
 16 17  1  0  0  0  0
 17 18  2  0  0  0  0
 18 13  1  0  0  0  0
 19 14  1  0  0  0  0
 20 15  1  0  0  0  0
 21 17  1  0  0  0  0
 22 23  1  0  0  0  0
 22 31  1  0  0  0  0
 23  2  1  0  0  0  0
 24 23  2  0  0  0  0
 25 24  1  0  0  0  0
 26 24  1  0  0  0  0
 27 26  1  0  0  0  0
 28 26  2  0  0  0  0
 28 29  1  0  0  0  0
 29 22  2  0  0  0  0
 30 33  1  0  0  0  0
 31 32  1  0  0  0  0
 31 30  2  0  0  0  0
 32 35  1  0  0  0  0
 34 32  1  0  0  0  0
M  END
>  <minimizedAffinity>
-5.67479515

>  <minimizedRMSD>
1.09977484

$$$$
