
 OpenBabel03262523133D

 34 36  0  0  0  0  0  0  0  0999 V2000
   34.8540   29.3510   48.0970 C   0  0  0  0  0  0  0  0  0  0  0  0
   34.3990   28.7140   49.2380 C   0  0  0  0  0  0  0  0  0  0  0  0
   33.2230   28.0340   49.0660 C   0  0  0  0  0  0  0  0  0  0  0  0
   32.5480   27.9890   47.8540 C   0  0  0  0  0  0  0  0  0  0  0  0
   33.0730   28.6540   46.7660 C   0  0  0  0  0  0  0  0  0  0  0  0
   34.2270   29.3300   46.9070 N   0  0  0  0  0  0  0  0  0  0  0  0
   34.9600   28.7810   50.1460 H   0  0  0  0  0  0  0  0  0  0  0  0
   32.8890   27.5360   49.9960 H   0  0  0  0  0  0  0  0  0  0  0  0
   31.6640   27.4070   47.9570 H   0  0  0  0  0  0  0  0  0  0  0  0
   37.9790   30.8200   49.3790 C   0  0  0  0  0  0  0  0  0  0  0  0
   38.4550   31.5160   48.2630 C   0  0  0  0  0  0  0  0  0  0  0  0
   37.7090   31.4770   47.0940 C   0  0  0  0  0  0  0  0  0  0  0  0
   36.5610   30.7650   47.1070 N   0  0  0  0  0  0  0  0  0  0  0  0
   36.1050   30.1030   48.1640 C   0  0  0  0  0  0  0  0  0  0  0  0
   36.8460   30.1490   49.3020 N   0  0  0  0  0  0  0  0  0  0  0  0
   39.3870   32.0550   48.3630 H   0  0  0  0  0  0  0  0  0  0  0  0
   38.0720   32.0160   46.2200 H   0  0  0  0  0  0  0  0  0  0  0  0
   38.6650   30.7890   50.6370 N   0  0  0  0  0  0  0  0  0  0  0  0
   38.5060   31.2970   51.5300 H   0  0  0  0  0  0  0  0  0  0  0  0
   39.3960   30.0860   50.3890 H   0  0  0  0  0  0  0  0  0  0  0  0
   31.9080   29.6550   44.7910 C   0  0  0  0  0  0  0  0  0  0  0  0
   32.3120   28.5710   45.5320 C   0  0  0  0  0  0  0  0  0  0  0  0
   31.9150   27.3760   44.9850 C   0  0  0  0  0  0  0  0  0  0  0  0
   32.1430   26.4250   45.4280 H   0  0  0  0  0  0  0  0  0  0  0  0
   31.1930   27.2680   43.8190 C   0  0  0  0  0  0  0  0  0  0  0  0
   30.8900   26.3250   43.4030 H   0  0  0  0  0  0  0  0  0  0  0  0
   30.8170   28.3880   43.1180 C   0  0  0  0  0  3  0  0  0  0  0  0
   31.1890   29.6100   43.6250 C   0  0  0  0  0  3  0  0  0  0  0  0
   32.3270   31.9140   46.0870 N   0  0  0  0  0  0  0  0  0  0  0  0
   32.2080   31.0040   45.2190 C   0  0  0  0  0  0  0  0  0  0  0  0
   32.6240   32.0110   44.2730 N   0  0  0  0  0  0  0  0  0  0  0  0
   32.6310   32.8510   45.7570 H   0  0  0  0  0  0  0  0  0  0  0  0
   33.2570   32.6740   43.7890 H   0  0  0  0  0  0  0  0  0  0  0  0
   31.9630   32.4210   43.5710 H   0  0  0  0  0  0  0  0  0  0  0  0
  1 14  1  0  0  0  0
  1  2  1  0  0  0  0
  2  7  1  0  0  0  0
  3  2  2  0  0  0  0
  3  8  1  0  0  0  0
  4  9  1  0  0  0  0
  4  3  1  0  0  0  0
  5  6  1  0  0  0  0
  5  4  2  0  0  0  0
  6  1  2  0  0  0  0
 10 18  1  0  0  0  0
 11 16  1  0  0  0  0
 11 10  2  0  0  0  0
 12 13  2  0  0  0  0
 12 11  1  0  0  0  0
 13 14  1  0  0  0  0
 14 15  2  0  0  0  0
 15 10  1  0  0  0  0
 17 12  1  0  0  0  0
 18 19  1  0  0  0  0
 20 18  1  0  0  0  0
 21 30  1  0  0  0  0
 21 22  1  0  0  0  0
 22  5  1  0  0  0  0
 23 24  1  0  0  0  0
 23 22  2  0  0  0  0
 25 23  1  0  0  0  0
 26 25  1  0  0  0  0
 27 28  1  0  0  0  0
 27 25  2  0  0  0  0
 28 21  2  0  0  0  0
 30 29  2  0  0  0  0
 31 30  1  0  0  0  0
 32 29  1  0  0  0  0
 33 31  1  0  0  0  0
 34 31  1  0  0  0  0
M  END
>  <minimizedAffinity>
-5.2023859

>  <minimizedRMSD>
1.72025299

$$$$
