
     RDKit          3D

 48 52  0  0  0  0  0  0  0  0999 V2000
   37.5460   32.0455   48.5014 C   0  0  1  0  0  0  0  0  0  0  0  0
   38.7546   32.8131   48.8215 C   0  0  0  0  0  0  0  0  0  0  0  0
   38.9254   31.6446   47.9167 C   0  0  2  0  0  0  0  0  0  0  0  0
   39.2901   32.0996   46.5473 C   0  0  0  0  0  0  0  0  0  0  0  0
   39.7442   33.4205   46.5821 C   0  0  0  0  0  0  0  0  0  0  0  0
   40.2201   34.0402   45.4459 C   0  0  0  0  0  0  0  0  0  0  0  0
   40.2605   33.3598   44.2308 C   0  0  0  0  0  0  0  0  0  0  0  0
   39.8096   32.0603   44.2221 C   0  0  0  0  0  0  0  0  0  0  0  0
   39.7829   31.2752   43.0879 C   0  0  0  0  0  0  0  0  0  0  0  0
   39.3218   29.9722   43.0666 C   0  0  0  0  0  0  0  0  0  0  0  0
   38.8567   29.4076   44.2441 C   0  0  0  0  0  0  0  0  0  0  0  0
   38.8784   30.1805   45.3819 C   0  0  0  0  0  0  0  0  0  0  0  0
   39.3439   31.4686   45.3567 C   0  0  0  0  0  0  0  0  0  0  0  0
   35.2677   29.6102   50.2014 C   0  0  0  0  0  0  0  0  0  0  0  0
   35.7915   30.5063   49.2451 C   0  0  0  0  0  0  0  0  0  0  0  0
   37.0391   31.0756   49.5014 C   0  0  0  0  0  0  0  0  0  0  0  0
   37.6995   30.7471   50.6512 N   0  0  0  0  0  0  0  0  0  0  0  0
   37.1759   29.8896   51.5455 C   0  0  0  0  0  0  0  0  0  0  0  0
   35.9409   29.3143   51.3152 N   0  0  0  0  0  0  0  0  0  0  0  0
   36.8759   32.3618   47.7262 H   0  0  0  0  0  0  0  0  0  0  0  0
   39.1037   32.7107   49.8955 H   0  0  0  0  0  0  0  0  0  0  0  0
   38.6481   33.8683   48.5372 H   0  0  0  0  0  0  0  0  0  0  0  0
   39.0717   30.5866   48.0561 H   0  0  0  0  0  0  0  0  0  0  0  0
   39.8718   34.1944   47.3115 H   0  0  0  0  0  0  0  0  0  0  0  0
   40.6027   35.0393   45.2960 H   0  0  0  0  0  0  0  0  0  0  0  0
   40.6004   33.6923   43.2498 H   0  0  0  0  0  0  0  0  0  0  0  0
   40.1427   31.6927   42.1474 H   0  0  0  0  0  0  0  0  0  0  0  0
   39.3327   29.4182   42.1324 H   0  0  0  0  0  0  0  0  0  0  0  0
   38.4912   28.4093   44.2839 H   0  0  0  0  0  0  0  0  0  0  0  0
   38.5039   29.7140   46.3112 H   0  0  0  0  0  0  0  0  0  0  0  0
   34.2999   29.1815   49.9823 H   0  0  0  0  0  0  0  0  0  0  0  0
   35.2240   30.7271   48.3516 H   0  0  0  0  0  0  0  0  0  0  0  0
   39.6435   26.5032   51.8915 N   0  0  0  0  0  0  0  0  0  0  0  0
   39.2778   27.7673   51.7857 C   0  0  0  0  0  0  0  0  0  0  0  0
   39.6707   27.7402   50.4416 N   0  0  0  0  0  0  0  0  0  0  0  0
   38.7356   28.4571   52.9354 C   0  0  0  0  0  0  0  0  0  0  0  0
   37.7747   29.4118   52.7737 C   0  0  0  0  0  0  0  0  0  0  0  0
   37.3667   29.9117   54.0152 C   0  0  0  0  0  0  0  0  0  0  0  0
   36.5907   30.6943   54.0629 H   0  0  0  0  0  0  0  0  0  0  0  0
   37.8487   29.5162   55.2203 C   0  0  0  0  0  0  0  0  0  0  0  0
   37.4894   29.9447   56.1411 H   0  0  0  0  0  0  0  0  0  0  0  0
   38.8099   28.5578   55.3007 C   0  0  0  0  0  0  0  0  0  0  0  0
   39.2642   28.0146   54.1264 C   0  0  0  0  0  0  0  0  0  0  0  0
   40.0307   26.0472   51.0371 H   0  0  0  0  0  0  0  0  0  0  0  0
   40.6307   28.0107   50.0704 H   0  0  0  0  0  0  0  0  0  0  0  0
   39.0711   27.4538   49.6131 H   0  0  0  0  0  0  0  0  0  0  0  0
   39.1822   28.2555   56.2580 H   0  0  0  0  0  0  0  0  0  0  0  0
   40.0254   27.2561   54.2037 H   0  0  0  0  0  0  0  0  0  0  0  0
  1  2  1  0
  1 16  1  0
  3  1  1  0
  3  2  1  0
  4  5  2  0
  4  3  1  0
  6  5  1  0
  7  6  2  0
  8  7  1  0
  8 13  2  0
  9  8  1  0
 10  9  2  0
 10 11  1  0
 11 12  2  0
 13 12  1  0
 13  4  1  0
 14 19  2  0
 15 16  2  0
 15 14  1  0
 16 17  1  0
 17 18  2  0
 19 18  1  0
  1 20  1  6
  2 21  1  0
  2 22  1  0
  3 23  1  1
  5 24  1  0
  6 25  1  0
  7 26  1  0
  9 27  1  0
 10 28  1  0
 11 29  1  0
 12 30  1  0
 14 31  1  0
 15 32  1  0
 33 34  2  3
 34 35  1  0
 34 36  1  0
 36 37  2  0
 37 38  1  0
 38 39  1  0
 38 40  2  0
 40 41  1  0
 40 42  1  0
 42 43  2  0
 43 36  1  0
 33 44  1  0
 35 45  1  0
 35 46  1  0
 42 47  1  0
 43 48  1  0
 18 37  1  0
M  ISO  8  20  13  21  13  22  13  23  13  24  14  25  14  26  14  27  14
M  ISO  7  28  14  29  14  30  14  31  14  32  14  39  15  41  16
M  END
>  <DihAtoms>  (1) 
16,17,36,35

>  <DihDeg>  (1) 
-17.717467363315556

$$$$
