
     RDKit          3D

 25 26  0  0  0  0  0  0  0  0999 V2000
   37.2986   30.1842   51.4165 C   0  0  0  0  0  0  0  0  0  0  0  0
   38.0687   30.6806   50.3443 C   0  0  0  0  0  0  0  0  0  0  0  0
   37.6707   30.3382   49.0530 C   0  0  0  0  0  0  0  0  0  0  0  0
   36.5753   29.5543   48.9029 N   0  0  0  0  0  0  0  0  0  0  0  0
   35.8488   29.0870   49.9319 C   0  0  0  0  0  0  0  0  0  0  0  0
   36.2319   29.4168   51.1794 N   0  0  0  0  0  0  0  0  0  0  0  0
   37.6297   30.4641   52.3888 H   0  0  0  0  0  0  0  0  0  0  0  0
   38.9476   31.3075   50.4190 H   0  0  0  0  0  0  0  0  0  0  0  0
   38.1638   30.6459   48.1474 H   0  0  0  0  0  0  0  0  0  0  0  0
   33.7400   30.4329   52.3086 N   0  0  0  0  0  0  0  0  0  0  0  0
   33.4082   29.5572   51.4412 C   0  0  0  0  0  0  0  0  0  0  0  0
   32.2396   30.2773   51.7518 N   0  0  0  0  0  0  0  0  0  0  0  0
   33.5101   28.4670   50.5043 C   0  0  0  0  0  0  0  0  0  0  0  0
   34.6668   28.2411   49.7917 C   0  0  0  0  0  0  0  0  0  0  0  0
   34.6451   27.1614   48.9291 C   0  0  0  0  0  0  0  0  0  0  0  0
   35.5425   26.9501   48.3472 H   0  0  0  0  0  0  0  0  0  0  0  0
   33.5094   26.4163   48.8473 C   0  0  0  0  0  0  0  0  0  0  0  0
   33.5721   25.5907   48.1521 H   0  0  0  0  0  0  0  0  0  0  0  0
   32.3494   26.6393   49.5589 C   0  0  0  0  0  0  0  0  0  0  0  0
   32.3585   27.7132   50.4226 C   0  0  0  0  0  0  0  0  0  0  0  0
   32.9953   31.0937   52.6852 H   0  0  0  0  0  0  0  0  0  0  0  0
   31.4295   30.0952   51.1153 H   0  0  0  0  0  0  0  0  0  0  0  0
   31.2502   30.5138   51.5472 H   0  0  0  0  0  0  0  0  0  0  0  0
   31.4986   25.9850   49.4197 H   0  0  0  0  0  0  0  0  0  0  0  0
   31.4556   27.9001   50.9873 H   0  0  0  0  0  0  0  0  0  0  0  0
  2  1  2  0
  3  2  1  0
  4  3  2  0
  4  5  1  0
  5  6  2  0
  6  1  1  0
  1  7  1  0
  2  8  1  0
  3  9  1  0
 10 11  2  3
 11 12  1  0
 11 13  1  0
 13 14  2  0
 14 15  1  0
 15 16  1  0
 15 17  2  0
 17 18  1  0
 17 19  1  0
 19 20  2  0
 20 13  1  0
 10 21  1  0
 12 22  1  0
 12 23  1  0
 19 24  1  0
 20 25  1  0
  5 14  1  0
M  ISO  5   7  14   8  14   9  14  16  15  18  16
M  END
>  <DihAtoms>  (1) 
3,4,13,12

>  <DihDeg>  (1) 
0.21988659255471538

$$$$
