
     RDKit          3D

 47 50  0  0  0  0  0  0  0  0999 V2000
   34.9298   30.1618   47.5900 C   0  0  0  0  0  0  0  0  0  0  0  0
   36.2209   30.7304   47.4030 C   0  0  0  0  0  0  0  0  0  0  0  0
   36.7799   30.6590   46.1226 C   0  0  0  0  0  0  0  0  0  0  0  0
   36.0764   30.0547   45.1284 N   0  0  0  0  0  0  0  0  0  0  0  0
   34.8523   29.5259   45.3542 C   0  0  0  0  0  0  0  0  0  0  0  0
   34.2876   29.5789   46.5642 N   0  0  0  0  0  0  0  0  0  0  0  0
   38.0673   31.2265   45.8274 C   0  0  0  0  0  0  0  0  0  0  0  0
   38.1269   32.4498   45.1970 C   0  0  0  0  0  0  0  0  0  0  0  0
   39.3065   33.0848   44.8706 C   0  0  0  0  0  0  0  0  0  0  0  0
   40.4710   32.4160   45.2158 C   0  0  0  0  0  0  0  0  0  0  0  0
   40.4936   31.1821   45.8514 C   0  0  0  0  0  0  0  0  0  0  0  0
   39.2475   30.6074   46.1470 C   0  0  0  0  0  0  0  0  0  0  0  0
   36.8017   31.2712   48.5781 N   0  0  0  0  0  0  0  0  0  0  0  0
   37.5785   32.4845   48.9444 C   0  0  0  0  0  0  0  0  0  0  0  0
   38.7444   31.8714   49.7055 C   0  0  0  0  0  0  0  0  0  0  0  0
   38.1255   30.6969   50.4245 C   0  0  0  0  0  0  0  0  0  0  0  0
   36.7250   30.5865   49.8658 C   0  0  2  0  0  0  0  0  0  0  0  0
   34.4148   30.1745   48.5380 H   0  0  0  0  0  0  0  0  0  0  0  0
   34.2647   29.0346   44.5788 H   0  0  0  0  0  0  0  0  0  0  0  0
   37.2025   32.9711   44.9278 H   0  0  0  0  0  0  0  0  0  0  0  0
   39.3438   34.0459   44.3756 H   0  0  0  0  0  0  0  0  0  0  0  0
   41.4403   32.8442   44.9957 H   0  0  0  0  0  0  0  0  0  0  0  0
   41.4199   30.6848   46.1080 H   0  0  0  0  0  0  0  0  0  0  0  0
   39.2188   29.6487   46.6410 H   0  0  0  0  0  0  0  0  0  0  0  0
   36.9388   33.1148   49.5636 H   0  0  0  0  0  0  0  0  0  0  0  0
   37.8836   33.0230   48.0399 H   0  0  0  0  0  0  0  0  0  0  0  0
   39.1196   32.5636   50.4864 H   0  0  0  0  0  0  0  0  0  0  0  0
   39.5311   31.5664   48.9863 H   0  0  0  0  0  0  0  0  0  0  0  0
   38.1181   30.8263   51.5237 H   0  0  0  0  0  0  0  0  0  0  0  0
   38.7231   29.7639   50.2209 H   0  0  0  0  0  0  0  0  0  0  0  0
   36.0619   31.1897   50.5084 H   0  0  0  0  0  0  0  0  0  0  0  0
   35.3884   28.7820   53.3180 N   0  0  0  0  0  0  0  0  0  0  0  0
   36.1312   29.1225   52.3163 C   0  0  0  0  0  0  0  0  0  0  0  0
   36.9017   30.0984   52.9587 N   0  0  0  0  0  0  0  0  0  0  0  0
   36.0189   28.5228   50.9947 C   0  0  0  0  0  0  0  0  0  0  0  0
   36.2838   29.1821   49.7869 C   0  0  0  0  0  0  0  0  0  0  0  0
   36.1160   28.4202   48.6625 C   0  0  0  0  0  0  0  0  0  0  0  0
   36.3162   28.8880   47.7226 H   0  0  0  0  0  0  0  0  0  0  0  0
   35.7172   27.1012   48.6777 C   0  0  0  0  0  0  0  0  0  0  0  0
   35.6053   26.5594   47.7379 H   0  0  0  0  0  0  0  0  0  0  0  0
   35.4617   26.4725   49.8780 C   0  0  0  0  0  0  0  0  0  0  0  0
   35.6194   27.2052   51.0334 C   0  0  0  0  0  0  0  0  0  0  0  0
   35.4944   29.2231   54.2348 H   0  0  0  0  0  0  0  0  0  0  0  0
   37.8379   29.6177   53.0971 H   0  0  0  0  0  0  0  0  0  0  0  0
   36.6251   31.0643   53.2350 H   0  0  0  0  0  0  0  0  0  0  0  0
   35.1512   25.4382   49.8487 H   0  0  0  0  0  0  0  0  0  0  0  0
   35.4027   26.6509   51.9362 H   0  0  0  0  0  0  0  0  0  0  0  0
  2  1  2  0
  2 13  1  0
  3  2  1  0
  4  5  1  0
  4  3  2  0
  5  6  2  0
  6  1  1  0
  7  3  1  0
  7 12  1  0
  8  7  2  0
  9  8  1  0
  9 10  2  0
 10 11  1  0
 11 12  2  0
 13 14  1  0
 13 17  1  0
 14 15  1  0
 15 16  1  0
 17 16  1  0
  1 18  1  0
  5 19  1  0
  8 20  1  0
  9 21  1  0
 10 22  1  0
 11 23  1  0
 12 24  1  0
 14 25  1  0
 14 26  1  0
 15 27  1  0
 15 28  1  0
 16 29  1  0
 16 30  1  0
 17 31  1  1
 32 33  2  3
 33 34  1  0
 33 35  1  0
 35 36  2  0
 36 37  1  0
 37 38  1  0
 37 39  2  0
 39 40  1  0
 39 41  1  0
 41 42  2  0
 42 35  1  0
 32 43  1  0
 34 44  1  0
 34 45  1  0
 41 46  1  0
 42 47  1  0
 17 36  1  0
M  ISO  8  18  14  19  14  20  14  21  14  22  14  23  14  24  14  25  13
M  ISO  8  26  13  27  13  28  13  29  13  30  13  31  13  38  15  40  16
M  END
>  <DihAtoms>  (1) 
12,16,35,34

>  <DihDeg>  (1) 
-141.75864042068858

$$$$
