
 OpenBabel03262520233D

 37 39  0  0  0  0  0  0  0  0999 V2000
   34.8400   30.5140   44.1390 C   0  0  0  0  0  0  0  0  0  0  0  0
   33.4460   30.6570   44.0930 C   0  0  0  0  0  0  0  0  0  0  0  0
   32.5990   30.5270   45.1390 C   0  0  0  0  0  0  0  0  0  0  0  0
   33.0700   30.2350   46.3620 C   0  0  0  0  0  0  0  0  0  0  0  0
   34.4120   30.0890   46.4270 C   0  0  0  0  0  0  0  0  0  0  0  0
   35.1810   30.2290   45.3740 N   0  0  0  0  0  0  0  0  0  0  0  0
   32.9550   30.9040   43.1020 H   0  0  0  0  0  0  0  0  0  0  0  0
   31.4940   30.6660   44.9790 H   0  0  0  0  0  0  0  0  0  0  0  0
   32.3980   30.1660   47.1920 H   0  0  0  0  0  0  0  0  0  0  0  0
   35.0780   31.7890   42.1640 C   0  0  0  0  0  0  0  0  0  0  0  0
   35.6330   30.7290   42.9410 C   0  0  0  0  0  0  0  0  0  0  0  0
   36.7740   30.1420   42.4640 C   0  0  0  0  0  0  0  0  0  0  0  0
   37.2850   30.6230   41.2840 N   0  0  0  0  0  0  0  0  0  0  0  0
   36.7590   31.6140   40.5680 C   0  0  0  0  0  0  0  0  0  0  0  0
   35.6430   32.1900   41.0300 N   0  0  0  0  0  0  0  0  0  0  0  0
   37.4460   31.9720   39.4000 N   0  0  0  0  0  0  0  0  0  0  0  0
   34.1910   32.3390   42.4100 H   0  0  0  0  0  0  0  0  0  0  0  0
   36.7790   32.0340   38.5800 H   0  0  0  0  0  0  0  0  0  0  0  0
   38.4840   32.1490   39.3710 H   0  0  0  0  0  0  0  0  0  0  0  0
   37.3920   29.0500   43.2170 C   0  0  0  0  0  0  0  0  0  0  0  0
   36.4750   28.1460   43.4940 F   0  0  0  0  0  0  0  0  0  0  0  0
   38.4640   28.4560   42.5750 F   0  0  0  0  0  0  0  0  0  0  0  0
   37.9160   29.5210   44.4540 F   0  0  0  0  0  0  0  0  0  0  0  0
   34.8410   28.8800   48.6030 C   0  0  0  0  0  0  0  0  0  0  0  0
   35.1810   29.8160   47.6650 C   0  0  0  0  0  0  0  0  0  0  0  0
   36.3350   30.4900   47.9670 C   0  0  0  0  0  0  0  0  0  0  0  0
   36.7050   31.2630   47.2810 H   0  0  0  0  0  0  0  0  0  0  0  0
   37.1080   30.2860   49.0870 C   0  0  0  0  0  0  0  0  0  0  0  0
   38.0000   30.8520   49.2570 H   0  0  0  0  0  0  0  0  0  0  0  0
   36.7140   29.3330   50.0000 C   0  0  0  0  0  0  0  0  0  0  0  0
   35.5610   28.6230   49.7450 C   0  0  0  0  0  0  0  0  0  0  0  0
   34.0720   27.0120   47.5880 N   0  0  0  0  0  0  0  0  0  0  0  0
   33.7170   27.9780   48.4140 C   0  0  0  0  0  0  0  0  0  0  0  0
   32.5730   28.4050   49.1750 N   0  0  0  0  0  0  0  0  0  0  0  0
   33.3090   26.3140   47.3990 H   0  0  0  0  0  0  0  0  0  0  0  0
   32.1140   29.2830   48.8110 H   0  0  0  0  0  0  0  0  0  0  0  0
   32.2550   27.8470   50.0230 H   0  0  0  0  0  0  0  0  0  0  0  0
  1  6  1  0  0  0  0
  2  1  2  0  0  0  0
  2  3  1  0  0  0  0
  3  4  2  0  0  0  0
  4  5  1  0  0  0  0
  4  9  1  0  0  0  0
  5 25  1  0  0  0  0
  6  5  2  0  0  0  0
  7  2  1  0  0  0  0
  8  3  1  0  0  0  0
 10 17  1  0  0  0  0
 10 11  1  0  0  0  0
 11  1  1  0  0  0  0
 12 11  2  0  0  0  0
 12 20  1  0  0  0  0
 13 12  1  0  0  0  0
 14 15  1  0  0  0  0
 14 13  2  0  0  0  0
 15 10  2  0  0  0  0
 16 14  1  0  0  0  0
 18 16  1  0  0  0  0
 19 16  1  0  0  0  0
 20 21  1  0  0  0  0
 20 23  1  0  0  0  0
 22 20  1  0  0  0  0
 24 31  1  0  0  0  0
 25 26  1  0  0  0  0
 25 24  2  0  0  0  0
 26 28  2  0  0  0  0
 27 26  1  0  0  0  0
 28 29  1  0  0  0  0
 28 30  1  0  0  0  0
 31 30  2  0  0  0  0
 32 33  2  0  0  0  0
 33 24  1  0  0  0  0
 33 34  1  0  0  0  0
 34 37  1  0  0  0  0
 35 32  1  0  0  0  0
 36 34  1  0  0  0  0
M  END
>  <minimizedAffinity>
-5.23416662

>  <minimizedRMSD>
5.89322281

$$$$
