
     RDKit          3D

 36 38  0  0  0  0  0  0  0  0999 V2000
   37.5659   30.1925   50.7559 C   0  0  0  0  0  0  0  0  0  0  0  0
   38.2299   31.2132   50.0693 C   0  0  0  0  0  0  0  0  0  0  0  0
   37.7476   31.5918   48.8243 C   0  0  0  0  0  0  0  0  0  0  0  0
   36.6593   30.9458   48.3508 N   0  0  0  0  0  0  0  0  0  0  0  0
   36.0265   29.9759   49.0008 C   0  0  0  0  0  0  0  0  0  0  0  0
   36.5086   29.6148   50.2184 N   0  0  0  0  0  0  0  0  0  0  0  0
   34.8558   29.3224   48.4194 C   0  0  0  0  0  0  0  0  0  0  0  0
   34.4396   28.1116   48.9450 C   0  0  0  0  0  0  0  0  0  0  0  0
   33.3403   27.5827   48.3253 C   0  0  0  0  0  0  0  0  0  0  0  0
   32.6988   28.2059   47.2627 C   0  0  0  0  0  0  0  0  0  0  0  0
   33.1807   29.4135   46.8008 C   0  0  0  0  0  0  0  0  0  0  0  0
   34.2596   29.9553   47.3919 N   0  0  0  0  0  0  0  0  0  0  0  0
   37.9752   29.7194   52.0457 N   0  0  0  0  0  0  0  0  0  0  0  0
   39.0923   31.6634   50.5407 H   0  0  0  0  0  0  0  0  0  0  0  0
   38.2577   32.3860   48.2812 H   0  0  0  0  0  0  0  0  0  0  0  0
   34.9705   27.6760   49.7641 H   0  0  0  0  0  0  0  0  0  0  0  0
   33.0347   26.6164   48.7692 H   0  0  0  0  0  0  0  0  0  0  0  0
   31.8740   27.6153   46.9448 H   0  0  0  0  0  0  0  0  0  0  0  0
   37.6071   29.8984   53.0023 H   0  0  0  0  0  0  0  0  0  0  0  0
   38.7755   29.1240   51.7380 H   0  0  0  0  0  0  0  0  0  0  0  0
   35.6518   30.1319   44.5980 N   0  0  0  0  0  0  0  0  0  0  0  0
   34.4377   30.1594   44.2481 C   0  0  0  0  0  0  0  0  0  0  0  0
   34.9248   29.7756   42.9451 N   0  0  0  0  0  0  0  0  0  0  0  0
   33.0256   30.3568   44.4898 C   0  0  0  0  0  0  0  0  0  0  0  0
   32.4585   30.0117   45.6927 C   0  0  0  0  0  0  0  0  0  0  0  0
   31.1165   30.2937   45.7482 C   0  0  0  0  0  0  0  0  0  0  0  0
   30.5110   30.0905   46.6103 H   0  0  0  0  0  0  0  0  0  0  0  0
   30.4084   30.8605   44.7142 C   0  0  0  0  0  0  0  0  0  0  0  0
   29.3569   31.0763   44.7726 H   0  0  0  0  0  0  0  0  0  0  0  0
   31.0281   31.1854   43.5309 C   0  0  0  0  0  0  0  0  0  0  0  0
   32.3733   30.9225   43.4256 C   0  0  0  0  0  0  0  0  0  0  0  0
   36.3513   29.8768   43.8733 H   0  0  0  0  0  0  0  0  0  0  0  0
   35.3350   29.1699   42.2113 H   0  0  0  0  0  0  0  0  0  0  0  0
   34.9146   30.4356   42.1309 H   0  0  0  0  0  0  0  0  0  0  0  0
   30.4672   31.6290   42.7248 H   0  0  0  0  0  0  0  0  0  0  0  0
   32.8407   31.1855   42.4869 H   0  0  0  0  0  0  0  0  0  0  0  0
  1 13  1  0
  2  1  2  0
  3  2  1  0
  4  3  2  0
  4  5  1  0
  5  6  2  0
  6  1  1  0
  7  8  2  0
  7  5  1  0
  9  8  1  0
 10  9  2  0
 11 10  1  0
 11 12  2  0
 12  7  1  0
  2 14  1  0
  3 15  1  0
  8 16  1  0
  9 17  1  0
 10 18  1  0
 13 19  1  0
 13 20  1  0
 21 22  2  3
 22 23  1  0
 22 24  1  0
 24 25  2  0
 25 26  1  0
 26 27  1  0
 26 28  2  0
 28 29  1  0
 28 30  1  0
 30 31  2  0
 31 24  1  0
 21 32  1  0
 23 33  1  0
 23 34  1  0
 30 35  1  0
 31 36  1  0
 11 25  1  0
M  ISO  7  14  14  15  14  16  14  17  14  18  14  27  15  29  16
M  END
>  <DihAtoms>  (1) 
9,10,24,23

>  <DihDeg>  (1) 
176.63286802997635

$$$$
