
 OpenBabel03272509133D

 45 48  0  0  1  0  0  0  0  0999 V2000
   37.1010   31.7100   47.9220 N   0  0  0  0  0  0  0  0  0  0  0  0
   38.1290   32.7010   48.3320 C   0  0  0  0  0  0  0  0  0  0  0  0
   38.6440   32.0770   49.6210 C   0  0  0  0  0  0  0  0  0  0  0  0
   37.4170   31.4430   50.2290 C   0  0  0  0  0  0  0  0  0  0  0  0
   36.3490   31.5540   49.1640 C   0  0  2  0  0  0  0  0  0  0  0  0
   37.6280   33.6590   48.4840 H   0  0  0  0  0  0  0  0  0  0  0  0
   38.8960   32.7920   47.5550 H   0  0  0  0  0  0  0  0  0  0  0  0
   38.9890   32.8560   50.3310 H   0  0  0  0  0  0  0  0  0  0  0  0
   39.4330   31.3360   49.3780 H   0  0  0  0  0  0  0  0  0  0  0  0
   37.1070   31.9320   51.1710 H   0  0  0  0  0  0  0  0  0  0  0  0
   37.6290   30.3670   50.4860 H   0  0  0  0  0  0  0  0  0  0  0  0
   35.8090   32.5000   49.3310 H   0  0  0  0  0  0  0  0  0  0  0  0
   35.4900   30.3660   46.7770 C   0  0  0  0  0  0  0  0  0  0  0  0
   36.7670   30.9930   46.7450 C   0  0  0  0  0  0  0  0  0  0  0  0
   37.5510   30.8050   45.6020 C   0  0  0  0  0  0  0  0  0  0  0  0
   37.0660   30.0390   44.5880 N   0  0  0  0  0  0  0  0  0  0  0  0
   35.8460   29.4600   44.6650 C   0  0  0  0  0  0  0  0  0  0  0  0
   35.0710   29.6210   45.7410 N   0  0  0  0  0  0  0  0  0  0  0  0
   34.8120   30.4580   47.6120 H   0  0  0  0  0  0  0  0  0  0  0  0
   35.4320   28.8400   43.8710 H   0  0  0  0  0  0  0  0  0  0  0  0
   38.8440   31.4180   45.4630 C   0  0  0  0  0  0  0  0  0  0  0  0
   38.9250   32.6920   44.9460 C   0  0  0  0  0  0  0  0  0  0  0  0
   40.1110   33.3730   44.7740 C   0  0  0  0  0  0  0  0  0  0  0  0
   41.2600   32.6960   45.1550 C   0  0  0  0  0  0  0  0  0  0  0  0
   41.2610   31.4120   45.6820 C   0  0  0  0  0  0  0  0  0  0  0  0
   40.0090   30.7920   45.8240 C   0  0  0  0  0  0  0  0  0  0  0  0
   38.0130   33.2190   44.6480 H   0  0  0  0  0  0  0  0  0  0  0  0
   40.1660   34.3740   44.3670 H   0  0  0  0  0  0  0  0  0  0  0  0
   42.2330   33.1580   45.0530 H   0  0  0  0  0  0  0  0  0  0  0  0
   42.1750   30.9100   45.9710 H   0  0  0  0  0  0  0  0  0  0  0  0
   39.9640   29.7950   46.2310 H   0  0  0  0  0  0  0  0  0  0  0  0
   35.8920   29.2360   49.8370 C   0  0  0  0  0  0  0  0  0  0  0  0
   35.4410   30.3920   49.1870 C   0  0  0  0  0  0  0  0  0  0  0  0
   34.1960   30.2920   48.6260 C   0  0  0  0  0  0  0  0  0  0  0  0
   33.8220   31.1530   48.1150 H   0  0  0  0  0  0  0  0  0  0  0  0
   33.4170   29.1560   48.6770 C   0  0  0  0  0  0  0  0  0  0  0  0
   32.4340   29.1540   48.2050 H   0  0  0  0  0  0  0  0  0  0  0  0
   33.8810   28.0310   49.3230 C   0  0  0  0  0  3  0  0  0  0  0  0
   35.1300   28.0910   49.9010 C   0  0  0  0  0  3  0  0  0  0  0  0
   37.3610   29.3430   51.7600 N   0  0  0  0  0  0  0  0  0  0  0  0
   37.1800   29.1000   50.5030 C   0  0  0  0  0  0  0  0  0  0  0  0
   38.4910   28.7330   50.1770 N   0  0  0  0  0  0  0  0  0  0  0  0
   38.2800   29.2370   52.1970 H   0  0  0  0  0  0  0  0  0  0  0  0
   38.4310   27.6780   50.0770 H   0  0  0  0  0  0  0  0  0  0  0  0
   39.3250   29.3470   50.0610 H   0  0  0  0  0  0  0  0  0  0  0  0
  1  2  1  0  0  0  0
  1  5  1  0  0  0  0
  2  6  1  0  0  0  0
  2  3  1  0  0  0  0
  3  4  1  0  0  0  0
  3  8  1  0  0  0  0
  4 11  1  0  0  0  0
  4 10  1  0  0  0  0
  5 33  1  0  0  0  0
  5 12  1  1  0  0  0
  5  4  1  0  0  0  0
  7  2  1  0  0  0  0
  9  3  1  0  0  0  0
 13 19  1  0  0  0  0
 14 13  1  0  0  0  0
 14  1  1  0  0  0  0
 15 14  2  0  0  0  0
 16 17  2  0  0  0  0
 16 15  1  0  0  0  0
 17 18  1  0  0  0  0
 18 13  2  0  0  0  0
 20 17  1  0  0  0  0
 21 15  1  0  0  0  0
 21 26  1  0  0  0  0
 22 21  2  0  0  0  0
 23 22  1  0  0  0  0
 23 24  2  0  0  0  0
 24 25  1  0  0  0  0
 25 26  2  0  0  0  0
 25 30  1  0  0  0  0
 26 31  1  0  0  0  0
 27 22  1  0  0  0  0
 28 23  1  0  0  0  0
 29 24  1  0  0  0  0
 32 39  1  0  0  0  0
 32 41  1  0  0  0  0
 33 32  2  0  0  0  0
 34 36  2  0  0  0  0
 34 33  1  0  0  0  0
 35 34  1  0  0  0  0
 36 38  1  0  0  0  0
 37 36  1  0  0  0  0
 38 39  2  0  0  0  0
 40 43  1  0  0  0  0
 41 40  2  0  0  0  0
 42 41  1  0  0  0  0
 44 42  1  0  0  0  0
 45 42  1  0  0  0  0
M  END
>  <minimizedAffinity>
-5.67935658

>  <minimizedRMSD>
1.36867332

$$$$
