REMARK  Name = 
REMARK  2 active torsions:
REMARK  status: ('A' for Active; 'I' for Inactive)
REMARK    1  A    between atoms: C_2  and  C_14
REMARK    2  A    between atoms: C_11  and  C_13
REMARK                            x       y       z     vdW  Elec       q    Type
REMARK                         _______ _______ _______ _____ _____    ______ ____
ROOT
ATOM      1  C   UNL     1      39.737  32.285  49.652  0.00  0.00    +0.000 A 
ATOM      2  C   UNL     1      39.225  31.507  50.669  0.00  0.00    +0.000 A 
ATOM      3  C   UNL     1      39.779  31.490  51.932  0.00  0.00    +0.000 A 
ATOM      4  H   UNL     1      39.327  30.852  52.694  0.00  0.00    +0.000 HD
ATOM      5  C   UNL     1      40.882  32.269  52.208  0.00  0.00    +0.000 A 
ATOM      6  H   UNL     1      41.335  32.272  53.197  0.00  0.00    +0.000 HD
ATOM      7  C   UNL     1      41.401  33.053  51.191  0.00  0.00    +0.000 A 
ATOM      8  C   UNL     1      40.850  33.077  49.917  0.00  0.00    +0.000 A 
ENDROOT
BRANCH   2  10
ATOM      9  C   UNL     1      37.296  30.182  51.410  0.00  0.00    +0.000 A 
ATOM     10  C   UNL     1      38.068  30.680  50.351  0.00  0.00    +0.000 A 
ATOM     11  C   UNL     1      37.672  30.339  49.043  0.00  0.00    +0.000 A 
ATOM     12  N   UNL     1      36.577  29.554  48.880  0.00  0.00    +0.000 NA
ATOM     13  C   UNL     1      35.861  29.096  49.943  0.00  0.00    +0.000 A 
ATOM     14  N   UNL     1      36.220  29.409  51.201  0.00  0.00    +0.000 NA
ATOM     15  H   UNL     1      37.565  30.421  52.443  0.00  0.00    +0.000 HD
ATOM     16  H   UNL     1      38.268  30.718  48.230  0.00  0.00    +0.000 HD
ATOM     17  H   UNL     1      35.020  28.486  49.630  0.00  0.00    +0.000 HD
ENDBRANCH   2  10
BRANCH   1  19
ATOM     18  N   UNL     1      40.053  32.569  47.289  0.00  0.00    +0.000 NA
ATOM     19  C   UNL     1      39.230  32.396  48.290  0.00  0.00    +0.000 C 
ATOM     20  N   UNL     1      37.875  32.348  47.857  0.00  0.00    +0.000 N 
ATOM     21  H   UNL     1      41.074  32.630  47.403  0.00  0.00    +0.000 HD
ATOM     22  H   UNL     1      37.499  33.014  47.139  0.00  0.00    +0.000 HD
ATOM     23  H   UNL     1      36.874  32.083  47.739  0.00  0.00    +0.000 HD
ENDBRANCH   1  19
TORSDOF 2
