
     RDKit          3D

 37 39  0  0  0  0  0  0  0  0999 V2000
   36.1068   30.4585   49.9813 C   0  0  0  0  0  0  0  0  0  0  0  0
   38.2377   33.3802   49.1692 C   0  0  0  0  0  0  0  0  0  0  0  0
   39.0087   32.9290   48.0997 C   0  0  0  0  0  0  0  0  0  0  0  0
   38.7888   31.6118   47.6610 C   0  0  0  0  0  0  0  0  0  0  0  0
   37.8480   30.8697   48.3010 N   0  0  0  0  0  0  0  0  0  0  0  0
   37.1295   31.3705   49.3389 C   0  0  0  0  0  0  0  0  0  0  0  0
   37.3182   32.6179   49.7757 N   0  0  0  0  0  0  0  0  0  0  0  0
   36.1125   29.1337   49.3066 C   0  0  0  0  0  0  0  0  0  0  0  0
   34.8109   28.8391   48.6242 C   0  0  0  0  0  0  0  0  0  0  0  0
   34.5723   29.4115   47.3210 C   0  0  0  0  0  0  0  0  0  0  0  0
   32.9596   28.7816   46.9755 S   0  0  0  0  0  0  0  0  0  0  0  0
   32.8060   27.8456   48.5905 C   0  0  0  0  0  0  0  0  0  0  0  0
   33.8508   28.0988   49.1056 N   0  0  0  0  0  0  0  0  0  0  0  0
   35.1301   30.9413   49.9165 H   0  0  0  0  0  0  0  0  0  0  0  0
   36.3287   30.3614   51.0794 H   0  0  0  0  0  0  0  0  0  0  0  0
   38.3599   34.3744   49.5478 H   0  0  0  0  0  0  0  0  0  0  0  0
   39.7291   33.5948   47.6599 H   0  0  0  0  0  0  0  0  0  0  0  0
   39.3688   31.2401   46.8399 H   0  0  0  0  0  0  0  0  0  0  0  0
   36.3405   28.3471   50.0549 H   0  0  0  0  0  0  0  0  0  0  0  0
   36.9495   29.0562   48.5523 H   0  0  0  0  0  0  0  0  0  0  0  0
   35.2497   30.0477   46.7671 H   0  0  0  0  0  0  0  0  0  0  0  0
   31.9930   27.6066   45.5845 N   0  0  0  0  0  0  0  0  0  0  0  0
   31.0932   27.3235   46.4547 C   0  0  0  0  0  0  0  0  0  0  0  0
   30.0808   27.7193   45.5068 N   0  0  0  0  0  0  0  0  0  0  0  0
   30.7354   26.8547   47.7614 C   0  0  0  0  0  0  0  0  0  0  0  0
   31.5595   27.0949   48.8183 C   0  0  0  0  0  0  0  0  0  0  0  0
   31.1708   26.6176   50.0485 C   0  0  0  0  0  0  0  0  0  0  0  0
   31.8078   26.7950   50.9044 H   0  0  0  0  0  0  0  0  0  0  0  0
   30.0019   25.9366   50.1663 C   0  0  0  0  0  0  0  0  0  0  0  0
   29.7496   25.5863   51.1568 H   0  0  0  0  0  0  0  0  0  0  0  0
   29.1838   25.7036   49.0919 C   0  0  0  0  0  0  0  0  0  0  0  0
   29.5443   26.1679   47.8484 C   0  0  0  0  0  0  0  0  0  0  0  0
   31.7138   27.9667   44.6461 H   0  0  0  0  0  0  0  0  0  0  0  0
   29.6403   28.5860   45.0785 H   0  0  0  0  0  0  0  0  0  0  0  0
   29.5449   26.9390   45.0276 H   0  0  0  0  0  0  0  0  0  0  0  0
   28.2777   25.1581   49.2676 H   0  0  0  0  0  0  0  0  0  0  0  0
   28.9163   25.9969   46.9870 H   0  0  0  0  0  0  0  0  0  0  0  0
  2  7  2  0
  3  2  1  0
  4  3  2  0
  4  5  1  0
  5  6  2  0
  6  7  1  0
  6  1  1  0
  8  1  1  0
  9 13  1  0
  9  8  1  0
 10  9  2  0
 11 10  1  0
 11 12  1  0
 12 13  2  0
  1 14  1  0
  1 15  1  0
  2 16  1  0
  3 17  1  0
  4 18  1  0
  8 19  1  0
  8 20  1  0
 10 21  1  0
 22 23  2  3
 23 24  1  0
 23 25  1  0
 25 26  2  0
 26 27  1  0
 27 28  1  0
 27 29  2  0
 29 30  1  0
 29 31  1  0
 31 32  2  0
 32 25  1  0
 22 33  1  0
 24 34  1  0
 24 35  1  0
 31 36  1  0
 32 37  1  0
 12 26  1  0
M  ISO  8  14   8  15   8  16  14  17  14  18  14  19   8  20   8  21  14
M  ISO  2  28  15  30  16
M  END
>  <DihAtoms>  (1) 
10,11,25,24

>  <DihDeg>  (1) 
-179.88679876883268

$$$$
