
     RDKit          3D

 25 26  0  0  0  0  0  0  0  0999 V2000
   37.2962   30.1823   51.4105 C   0  0  0  0  0  0  0  0  0  0  0  0
   38.0680   30.6804   50.3508 C   0  0  0  0  0  0  0  0  0  0  0  0
   37.6723   30.3387   49.0427 C   0  0  0  0  0  0  0  0  0  0  0  0
   36.5768   29.5543   48.8801 N   0  0  0  0  0  0  0  0  0  0  0  0
   35.8608   29.0960   49.9432 C   0  0  0  0  0  0  0  0  0  0  0  0
   36.2200   29.4093   51.2008 N   0  0  0  0  0  0  0  0  0  0  0  0
   37.5653   30.4212   52.4430 H   0  0  0  0  0  0  0  0  0  0  0  0
   38.2680   30.7182   48.2302 H   0  0  0  0  0  0  0  0  0  0  0  0
   35.0202   28.4856   49.6300 H   0  0  0  0  0  0  0  0  0  0  0  0
   40.0526   32.5692   47.2891 N   0  0  0  0  0  0  0  0  0  0  0  0
   39.2303   32.3959   48.2897 C   0  0  0  0  0  0  0  0  0  0  0  0
   37.8754   32.3480   47.8566 N   0  0  0  0  0  0  0  0  0  0  0  0
   39.7367   32.2851   49.6518 C   0  0  0  0  0  0  0  0  0  0  0  0
   39.2251   31.5068   50.6688 C   0  0  0  0  0  0  0  0  0  0  0  0
   39.7789   31.4897   51.9325 C   0  0  0  0  0  0  0  0  0  0  0  0
   39.3273   30.8524   52.6945 H   0  0  0  0  0  0  0  0  0  0  0  0
   40.8815   32.2692   52.2083 C   0  0  0  0  0  0  0  0  0  0  0  0
   41.3354   32.2722   53.1975 H   0  0  0  0  0  0  0  0  0  0  0  0
   41.4005   33.0529   51.1911 C   0  0  0  0  0  0  0  0  0  0  0  0
   40.8504   33.0771   49.9169 C   0  0  0  0  0  0  0  0  0  0  0  0
   41.0738   32.6296   47.4032 H   0  0  0  0  0  0  0  0  0  0  0  0
   37.4987   33.0137   47.1386 H   0  0  0  0  0  0  0  0  0  0  0  0
   36.8742   32.0831   47.7389 H   0  0  0  0  0  0  0  0  0  0  0  0
   42.2616   33.6615   51.4057 H   0  0  0  0  0  0  0  0  0  0  0  0
   41.2990   33.7141   49.1507 H   0  0  0  0  0  0  0  0  0  0  0  0
  2  1  2  0
  3  2  1  0
  4  3  2  0
  4  5  1  0
  5  6  2  0
  6  1  1  0
  1  7  1  0
  3  8  1  0
  5  9  1  0
 10 11  2  3
 11 12  1  0
 11 13  1  0
 13 14  2  0
 14 15  1  0
 15 16  1  0
 15 17  2  0
 17 18  1  0
 17 19  1  0
 19 20  2  0
 20 13  1  0
 10 21  1  0
 12 22  1  0
 12 23  1  0
 19 24  1  0
 20 25  1  0
  2 14  1  0
M  ISO  5   7  14   8  14   9  14  16  15  18  16
M  END
>  <DihAtoms>  (1) 
0,1,13,12

>  <DihDeg>  (1) 
-132.12412199457964

$$$$
