
 OpenBabel03272506063D

 35 37  0  0  0  0  0  0  0  0999 V2000
   33.4640   28.3210   48.3680 C   0  0  0  0  0  0  0  0  0  0  0  0
   33.6150   28.9440   47.0750 C   0  0  0  0  0  0  0  0  0  0  0  0
   31.9490   28.9040   46.4930 S   0  0  0  0  0  0  0  0  0  0  0  0
   31.2660   28.0730   48.0260 C   0  0  0  0  0  0  0  0  0  0  0  0
   32.2530   27.9520   48.6840 N   0  0  0  0  0  0  0  0  0  0  0  0
   34.5380   29.3110   46.6450 H   0  0  0  0  0  0  0  0  0  0  0  0
   29.3500   26.7020   47.3870 C   0  0  0  0  0  0  0  0  0  0  0  0
   29.8200   27.7920   48.0540 C   0  0  0  0  0  0  0  0  0  0  0  0
   28.9050   28.5750   48.7180 C   0  0  0  0  0  0  0  0  0  0  0  0
   29.2530   29.4460   49.2560 H   0  0  0  0  0  0  0  0  0  0  0  0
   27.5890   28.2420   48.6880 C   0  0  0  0  0  0  0  0  0  0  0  0
   26.9170   28.8940   49.2280 H   0  0  0  0  0  0  0  0  0  0  0  0
   27.1320   27.1410   48.0110 C   0  0  0  0  0  3  0  0  0  0  0  0
   28.0220   26.3380   47.3370 C   0  0  0  0  0  3  0  0  0  0  0  0
   31.2020   24.9750   46.6970 N   0  0  0  0  0  0  0  0  0  0  0  0
   30.2600   25.8480   46.6830 C   0  0  0  0  0  0  0  0  0  0  0  0
   30.2760   25.8110   45.2410 N   0  0  0  0  0  0  0  0  0  0  0  0
   31.5840   24.6080   45.8000 H   0  0  0  0  0  0  0  0  0  0  0  0
   30.8430   26.1530   44.4090 H   0  0  0  0  0  0  0  0  0  0  0  0
   29.4880   25.2810   44.7690 H   0  0  0  0  0  0  0  0  0  0  0  0
   34.6800   28.1520   49.2270 C   0  0  0  0  0  0  0  0  0  0  0  0
   34.6070   27.2140   49.8160 H   0  0  0  0  0  0  0  0  0  0  0  0
   35.5820   27.9960   48.5620 H   0  0  0  0  0  0  0  0  0  0  0  0
   34.8780   29.2960   50.1550 C   0  0  0  0  0  0  0  0  0  0  0  0
   33.9760   29.9030   50.2450 H   0  0  0  0  0  0  0  0  0  0  0  0
   35.1160   28.9430   51.1960 H   0  0  0  0  0  0  0  0  0  0  0  0
   37.2090   32.1380   49.6810 C   0  0  0  0  0  0  0  0  0  0  0  0
   38.0570   31.6940   48.6690 C   0  0  0  0  0  0  0  0  0  0  0  0
   37.8200   30.4090   48.1520 C   0  0  0  0  0  0  0  0  0  0  0  0
   36.7890   29.6890   48.6660 N   0  0  0  0  0  0  0  0  0  0  0  0
   35.9990   30.1800   49.6540 C   0  0  0  0  0  0  0  0  0  0  0  0
   36.2010   31.3980   50.1640 N   0  0  0  0  0  0  0  0  0  0  0  0
   37.3390   33.1080   50.1150 H   0  0  0  0  0  0  0  0  0  0  0  0
   38.8460   32.3410   48.3300 H   0  0  0  0  0  0  0  0  0  0  0  0
   38.4580   30.0430   47.3720 H   0  0  0  0  0  0  0  0  0  0  0  0
  1  5  1  0  0  0  0
  1 21  1  0  0  0  0
  2  1  2  0  0  0  0
  3  2  1  0  0  0  0
  3  4  1  0  0  0  0
  4  8  1  0  0  0  0
  4  5  2  0  0  0  0
  6  2  1  0  0  0  0
  7  8  1  0  0  0  0
  8  9  2  0  0  0  0
  9 10  1  0  0  0  0
 11  9  1  0  0  0  0
 11 12  1  0  0  0  0
 13 11  2  0  0  0  0
 14  7  2  0  0  0  0
 14 13  1  0  0  0  0
 16 15  2  0  0  0  0
 16  7  1  0  0  0  0
 17 16  1  0  0  0  0
 18 15  1  0  0  0  0
 19 17  1  0  0  0  0
 20 17  1  0  0  0  0
 21 22  1  0  0  0  0
 21 24  1  0  0  0  0
 23 21  1  0  0  0  0
 24 25  1  0  0  0  0
 24 26  1  0  0  0  0
 27 33  1  0  0  0  0
 27 32  1  0  0  0  0
 28 27  2  0  0  0  0
 29 30  2  0  0  0  0
 29 28  1  0  0  0  0
 30 31  1  0  0  0  0
 31 24  1  0  0  0  0
 31 32  2  0  0  0  0
 34 28  1  0  0  0  0
 35 29  1  0  0  0  0
M  END
>  <minimizedAffinity>
-5.12618303

>  <minimizedRMSD>
2.00382209

$$$$
