
 OpenBabel03262520073D

 23 22  0  0  0  0  0  0  0  0999 V2000
   34.8060   29.5480   48.1560 C   0  0  0  0  0  0  0  0  0  0  0  0
   35.8470   30.2370   47.5750 C   0  0  0  0  0  0  0  0  0  0  0  0
   35.8680   30.2490   46.1920 C   0  0  0  0  0  0  0  0  0  0  0  0
   36.6760   30.7850   45.6950 H   0  0  0  0  0  0  0  0  0  0  0  0
   34.8820   29.5940   45.5210 C   0  0  0  0  0  0  0  0  0  0  0  0
   34.9690   29.6490   44.4450 H   0  0  0  0  0  0  0  0  0  0  0  0
   33.8380   28.9020   46.1000 C   0  0  0  0  0  3  0  0  0  0  0  0
   33.8060   28.8830   47.4780 C   0  0  0  0  0  3  0  0  0  0  0  0
   38.2700   30.8240   50.2440 C   0  0  0  0  0  0  0  0  0  0  0  0
   38.8080   32.0940   49.9460 C   0  0  0  0  0  0  0  0  0  0  0  0
   38.3260   32.7460   48.8120 C   0  0  0  0  0  0  0  0  0  0  0  0
   37.3750   32.1290   48.0690 N   0  0  0  0  0  0  0  0  0  0  0  0
   36.8700   30.9190   48.3630 C   0  0  0  0  0  0  0  0  0  0  0  0
   37.3340   30.2880   49.4570 N   0  0  0  0  0  0  0  0  0  0  0  0
   38.6600   30.3530   51.1160 H   0  0  0  0  0  0  0  0  0  0  0  0
   39.5650   32.6210   50.5110 H   0  0  0  0  0  0  0  0  0  0  0  0
   38.6450   33.7140   48.4680 H   0  0  0  0  0  0  0  0  0  0  0  0
   34.9620   29.2170   50.8100 N   0  0  0  0  0  2  0  0  0  0  0  0
   34.6760   29.4560   49.5880 C   0  0  0  0  0  2  0  0  0  0  0  0
   33.5520   29.8350   50.3450 N   0  0  0  0  0  1  0  0  0  0  0  0
   34.2390   29.4350   51.5600 H   0  0  0  0  0  0  0  0  0  0  0  0
   32.8300   30.3780   49.8170 H   0  0  0  0  0 15  0  0  0  0  0  0
   32.6310   30.3110   50.4090 H   0  0  0  0  0  0  0  0  0  0  0  0
  1 19  1  0  0  0  0
  2  1  1  0  0  0  0
  2 13  1  0  0  0  0
  3  2  2  0  0  0  0
  4  3  1  0  0  0  0
  5  7  2  0  0  0  0
  5  3  1  0  0  0  0
  6  5  1  0  0  0  0
  7  8  1  0  0  0  0
  8  1  2  0  0  0  0
  9 15  1  0  0  0  0
 10  9  1  0  0  0  0
 10 16  1  0  0  0  0
 11 10  2  0  0  0  0
 12 13  2  0  0  0  0
 12 11  1  0  0  0  0
 13 14  1  0  0  0  0
 14  9  2  0  0  0  0
 17 11  1  0  0  0  0
 18 21  1  0  0  0  0
 19 18  1  0  0  0  0
 20 23  1  0  0  0  0
M  END
>  <minimizedAffinity>
-4.65246534

>  <minimizedRMSD>
3.02551556

$$$$
