REMARK  Name = 
REMARK  2 active torsions:
REMARK  status: ('A' for Active; 'I' for Inactive)
REMARK    1  A    between atoms: C_2  and  C_26
REMARK    2  A    between atoms: C_23  and  C_25
REMARK                            x       y       z     vdW  Elec       q    Type
REMARK                         _______ _______ _______ _____ _____    ______ ____
ROOT
ATOM      1  C   UNL     1      38.100  33.139  49.498  0.00  0.00    +0.000 A 
ATOM      2  C   UNL     1      38.945  33.061  48.383  0.00  0.00    +0.000 A 
ATOM      3  C   UNL     1      38.708  32.051  47.450  0.00  0.00    +0.000 A 
ATOM      4  N   UNL     1      37.672  31.190  47.659  0.00  0.00    +0.000 NA
ATOM      5  C   UNL     1      36.879  31.293  48.739  0.00  0.00    +0.000 A 
ATOM      6  N   UNL     1      37.096  32.253  49.638  0.00  0.00    +0.000 NA
ATOM      7  N   UNL     1      35.809  30.355  48.898  0.00  0.00    +0.000 N 
ATOM      8  C   UNL     1      34.734  30.185  47.942  0.00  0.00    +0.000 C 
ATOM      9  C   UNL     1      34.019  28.955  48.374  0.00  0.00    +0.000 C 
ATOM     10  C   UNL     1      34.894  28.310  49.429  0.00  0.00    +0.000 C 
ATOM     11  C   UNL     1      35.646  29.447  50.029  0.00  0.00    +0.000 C 
ATOM     12  H   UNL     1      38.271  33.921  50.237  0.00  0.00    +0.000 HD
ATOM     13  H   UNL     1      39.362  32.004  46.596  0.00  0.00    +0.000 HD
ATOM     14  H   UNL     1      35.126  30.093  46.900  0.00  0.00    +0.000 HD
ATOM     15  H   UNL     1      34.042  31.056  48.000  0.00  0.00    +0.000 HD
ATOM     16  H   UNL     1      33.798  28.252  47.553  0.00  0.00    +0.000 HD
ATOM     17  H   UNL     1      33.063  29.229  48.908  0.00  0.00    +0.000 HD
ATOM     18  H   UNL     1      35.614  27.644  48.908  0.00  0.00    +0.000 HD
ATOM     19  H   UNL     1      34.258  27.773  50.171  0.00  0.00    +0.000 HD
ATOM     20  H   UNL     1      36.613  29.180  50.475  0.00  0.00    +0.000 HD
ATOM     21  H   UNL     1      34.999  29.939  50.791  0.00  0.00    +0.000 HD
ENDROOT
BRANCH   2  23
ATOM     22  C   UNL     1      41.162  33.599  47.692  0.00  0.00    +0.000 A 
ATOM     23  C   UNL     1      40.007  34.055  48.289  0.00  0.00    +0.000 A 
ATOM     24  C   UNL     1      39.919  35.357  48.731  0.00  0.00    +0.000 A 
ATOM     25  H   UNL     1      38.947  35.555  49.175  0.00  0.00    +0.000 HD
ATOM     26  C   UNL     1      40.954  36.252  48.602  0.00  0.00    +0.000 A 
ATOM     27  H   UNL     1      40.719  37.209  48.993  0.00  0.00    +0.000 HD
ATOM     28  C   UNL     1      42.110  35.800  48.005  0.00  0.00    +0.000 A 
ATOM     29  C   UNL     1      42.230  34.492  47.550  0.00  0.00    +0.000 A 
BRANCH  22  31
ATOM     30  N   UNL     1      42.253  32.086  46.131  0.00  0.00    +0.000 NA
ATOM     31  C   UNL     1      41.488  32.280  47.167  0.00  0.00    +0.000 C 
ATOM     32  N   UNL     1      41.101  31.006  47.609  0.00  0.00    +0.000 N 
ATOM     33  H   UNL     1      42.679  32.894  45.609  0.00  0.00    +0.000 HD
ATOM     34  H   UNL     1      40.498  30.218  47.905  0.00  0.00    +0.000 HD
ATOM     35  H   UNL     1      41.717  30.201  47.834  0.00  0.00    +0.000 HD
ENDBRANCH  22  31
ENDBRANCH   2  23
TORSDOF 2
