
 OpenBabel03272500263D

 39 41  0  0  0  0  0  0  0  0999 V2000
   39.7710   31.7800   44.9990 C   0  0  0  0  0  0  0  0  0  0  0  0
   39.4840   33.0410   44.5900 C   0  0  0  0  0  0  0  0  0  0  0  0
   39.4160   33.3730   43.2330 C   0  0  0  0  0  0  0  0  0  0  0  0
   39.6590   32.3340   42.3670 N   0  0  0  0  0  0  0  0  0  0  0  0
   39.9410   31.0920   42.7770 C   0  0  0  0  0  0  0  0  0  0  0  0
   39.9870   30.8590   44.0960 N   0  0  0  0  0  0  0  0  0  0  0  0
   39.2870   33.8960   45.2200 H   0  0  0  0  0  0  0  0  0  0  0  0
   39.1950   34.3470   42.8550 H   0  0  0  0  0  0  0  0  0  0  0  0
   39.1320   29.2980   41.3620 C   0  0  0  0  0  0  0  0  0  0  0  0
   40.2070   29.9460   41.9140 C   0  0  0  0  0  0  0  0  0  0  0  0
   41.4870   29.5070   41.6410 C   0  0  0  0  0  0  0  0  0  0  0  0
   42.3280   30.0090   42.0690 H   0  0  0  0  0  0  0  0  0  0  0  0
   41.6140   28.4160   40.8110 C   0  0  0  0  0  0  0  0  0  0  0  0
   42.6340   28.1130   40.6300 H   0  0  0  0  0  0  0  0  0  0  0  0
   40.5770   27.7130   40.2190 C   0  0  0  0  0  3  0  0  0  0  0  0
   39.3230   28.1930   40.5240 C   0  0  0  0  0  3  0  0  0  0  0  0
   36.8410   28.5980   41.5400 N   0  0  0  0  0  0  0  0  0  0  0  0
   37.7220   29.5730   41.5300 C   0  0  0  0  0  0  0  0  0  0  0  0
   36.7440   30.5720   41.7300 N   0  0  0  0  0  0  0  0  0  0  0  0
   35.8390   28.8130   41.6710 H   0  0  0  0  0  0  0  0  0  0  0  0
   36.7060   31.0390   42.6830 H   0  0  0  0  0  0  0  0  0  0  0  0
   36.0150   30.9610   41.0990 H   0  0  0  0  0  0  0  0  0  0  0  0
   39.8370   31.4600   46.3960 C   0  0  0  0  0  0  0  0  0  0  0  0
   40.9150   31.5730   46.7200 H   0  0  0  0  0  0  0  0  0  0  0  0
   39.6500   30.3540   46.5370 H   0  0  0  0  0  0  0  0  0  0  0  0
   38.9840   32.1550   47.3620 C   0  0  0  0  0  0  0  0  0  0  0  0
   38.3210   32.8790   46.8480 H   0  0  0  0  0  0  0  0  0  0  0  0
   39.5760   32.7900   48.0840 H   0  0  0  0  0  0  0  0  0  0  0  0
   38.1590   31.2750   48.2240 C   0  0  0  0  0  0  0  0  0  0  0  0
   37.0440   30.6380   47.7030 C   0  0  0  0  0  0  0  0  0  0  0  0
   36.4710   29.8950   48.7080 C   0  0  0  0  0  0  0  0  0  0  0  0
   37.2300   30.0900   49.7990 N   0  0  0  0  0  0  0  0  0  0  0  0
   38.2140   30.9040   49.4860 N   0  0  0  0  0  0  0  0  0  0  0  0
   36.6000   30.6390   46.7090 H   0  0  0  0  0  0  0  0  0  0  0  0
   35.5880   29.2710   48.6610 H   0  0  0  0  0  0  0  0  0  0  0  0
   37.0350   29.5150   51.1350 C   0  0  0  0  0  0  0  0  0  0  0  0
   37.8260   28.4090   51.2960 F   0  0  0  0  0  0  0  0  0  0  0  0
   35.7130   29.1710   51.3600 F   0  0  0  0  0  0  0  0  0  0  0  0
   37.4020   30.4320   52.1070 F   0  0  0  0  0  0  0  0  0  0  0  0
  1 23  1  0  0  0  0
  2  1  1  0  0  0  0
  2  7  1  0  0  0  0
  3  2  2  0  0  0  0
  4  5  2  0  0  0  0
  4  3  1  0  0  0  0
  5  6  1  0  0  0  0
  6  1  2  0  0  0  0
  8  3  1  0  0  0  0
  9 18  1  0  0  0  0
  9 10  1  0  0  0  0
 10  5  1  0  0  0  0
 11 10  2  0  0  0  0
 11 12  1  0  0  0  0
 13 11  1  0  0  0  0
 14 13  1  0  0  0  0
 15 16  1  0  0  0  0
 15 13  2  0  0  0  0
 16  9  2  0  0  0  0
 17 20  1  0  0  0  0
 18 17  2  0  0  0  0
 18 19  1  0  0  0  0
 19 21  1  0  0  0  0
 22 19  1  0  0  0  0
 23 25  1  0  0  0  0
 23 24  1  0  0  0  0
 23 26  1  0  0  0  0
 26 28  1  0  0  0  0
 26 29  1  0  0  0  0
 27 26  1  0  0  0  0
 29 33  2  0  0  0  0
 30 29  1  0  0  0  0
 30 31  2  0  0  0  0
 31 32  1  0  0  0  0
 32 36  1  0  0  0  0
 33 32  1  0  0  0  0
 34 30  1  0  0  0  0
 35 31  1  0  0  0  0
 36 37  1  0  0  0  0
 36 38  1  0  0  0  0
 36 39  1  0  0  0  0
M  END
>  <minimizedAffinity>
-5.91254663

>  <minimizedRMSD>
1.18751299

$$$$
