
 OpenBabel03272509333D

 46 50  0  0  1  0  0  0  0  0999 V2000
   33.4910   30.2870   46.4070 C   0  0  1  0  0  0  0  0  0  0  0  0
   33.2880   28.9530   46.9840 C   0  0  0  0  0  0  0  0  0  0  0  0
   34.6950   29.4110   46.8380 C   0  0  2  0  0  0  0  0  0  0  0  0
   33.4210   31.1700   47.0120 H   0  0  0  0  0  0  0  0  0  0  0  0
   32.9010   28.1800   46.2520 H   0  0  0  0  0  0  0  0  0  0  0  0
   32.6620   28.9950   47.8850 H   0  0  0  0  0  0  0  0  0  0  0  0
   35.4230   29.4000   46.0440 H   0  0  0  0  0  0  0  0  0  0  0  0
   35.3090   29.6330   48.1760 C   0  0  0  0  0  0  0  0  0  0  0  0
   34.6620   28.8560   49.1390 C   0  0  0  0  0  0  0  0  0  0  0  0
   35.1030   28.8250   50.4450 C   0  0  0  0  0  0  0  0  0  0  0  0
   36.2130   29.5710   50.8360 C   0  0  0  0  0  0  0  0  0  0  0  0
   36.8350   30.3270   49.8700 C   0  0  0  0  0  0  0  0  0  0  0  0
   37.9350   31.1220   50.1200 C   0  0  0  0  0  0  0  0  0  0  0  0
   38.5600   31.8930   49.1580 C   0  0  0  0  0  0  0  0  0  0  0  0
   38.0660   31.8780   47.8640 C   0  0  0  0  0  0  0  0  0  0  0  0
   36.9690   31.0910   47.6010 C   0  0  0  0  0  0  0  0  0  0  0  0
   36.3800   30.3420   48.5860 C   0  0  0  0  0  0  0  0  0  0  0  0
   33.8350   28.1750   49.1810 H   0  0  0  0  0  0  0  0  0  0  0  0
   34.7270   28.2890   51.3040 H   0  0  0  0  0  0  0  0  0  0  0  0
   36.6900   29.6640   51.8110 H   0  0  0  0  0  0  0  0  0  0  0  0
   38.3450   31.1520   51.1300 H   0  0  0  0  0  0  0  0  0  0  0  0
   39.4230   32.4930   49.4350 H   0  0  0  0  0  0  0  0  0  0  0  0
   38.5090   32.4530   47.0850 H   0  0  0  0  0  0  0  0  0  0  0  0
   36.5890   31.0910   46.5640 H   0  0  0  0  0  0  0  0  0  0  0  0
   32.2190   29.9030   42.9080 C   0  0  0  0  0  0  0  0  0  0  0  0
   32.3190   29.8010   44.3120 C   0  0  0  0  0  0  0  0  0  0  0  0
   33.3870   30.4450   44.9380 C   0  0  0  0  0  0  0  0  0  0  0  0
   34.2840   31.1420   44.1780 N   0  0  0  0  0  0  0  0  0  0  0  0
   34.1640   31.2210   42.8410 C   0  0  0  0  0  0  0  0  0  0  0  0
   33.1160   30.5910   42.1980 N   0  0  0  0  0  0  0  0  0  0  0  0
   31.3840   29.3960   42.4450 H   0  0  0  0  0  0  0  0  0  0  0  0
   31.5780   29.2370   44.8620 H   0  0  0  0  0  0  0  0  0  0  0  0
   35.1050   33.3070   41.7540 C   0  0  0  0  0  0  0  0  0  0  0  0
   35.0010   31.9570   41.9160 C   0  0  0  0  0  0  0  0  0  0  0  0
   35.8300   31.2900   41.0080 C   0  0  0  0  0  0  0  0  0  0  0  0
   35.8650   30.1870   41.0050 H   0  0  0  0  0  0  0  0  0  0  0  0
   36.6330   31.8850   40.0910 C   0  0  0  0  0  0  0  0  0  0  0  0
   37.2500   31.3080   39.4210 H   0  0  0  0  0  0  0  0  0  0  0  0
   36.6840   33.2400   39.9910 C   0  0  0  0  0  0  0  0  0  0  0  0
   35.8980   33.9690   40.8460 C   0  0  0  0  0  0  0  0  0  0  0  0
   33.9300   35.3690   42.0690 N   0  0  0  0  0  0  0  0  0  0  0  0
   34.3010   34.2010   42.5590 C   0  0  0  0  0  0  0  0  0  0  0  0
   33.6260   34.5140   43.7450 N   0  0  0  0  0  0  0  0  0  0  0  0
   33.3540   35.9820   42.6860 H   0  0  0  0  0  0  0  0  0  0  0  0
   34.0560   34.9820   44.5990 H   0  0  0  0  0  0  0  0  0  0  0  0
   32.6030   34.3250   43.9590 H   0  0  0  0  0  0  0  0  0  0  0  0
  1  3  1  0  0  0  0
  1  2  1  0  0  0  0
  1  4  1  1  0  0  0
  2  6  1  0  0  0  0
  3  7  1  6  0  0  0
  3  2  1  0  0  0  0
  3  8  1  0  0  0  0
  5  2  1  0  0  0  0
  8 17  2  0  0  0  0
  8  9  1  0  0  0  0
  9 18  1  0  0  0  0
  9 10  2  0  0  0  0
 10 11  1  0  0  0  0
 10 19  1  0  0  0  0
 11 20  1  0  0  0  0
 12 13  1  0  0  0  0
 12 11  2  0  0  0  0
 13 21  1  0  0  0  0
 14 22  1  0  0  0  0
 14 13  2  0  0  0  0
 15 14  1  0  0  0  0
 16 15  2  0  0  0  0
 16 17  1  0  0  0  0
 17 12  1  0  0  0  0
 23 15  1  0  0  0  0
 24 16  1  0  0  0  0
 25 26  1  0  0  0  0
 26 32  1  0  0  0  0
 26 27  2  0  0  0  0
 27  1  1  0  0  0  0
 28 27  1  0  0  0  0
 29 28  2  0  0  0  0
 30 29  1  0  0  0  0
 30 25  2  0  0  0  0
 31 25  1  0  0  0  0
 33 34  1  0  0  0  0
 33 42  1  0  0  0  0
 34 29  1  0  0  0  0
 35 34  2  0  0  0  0
 36 35  1  0  0  0  0
 37 35  1  0  0  0  0
 38 37  1  0  0  0  0
 39 37  2  0  0  0  0
 39 40  1  0  0  0  0
 40 33  2  0  0  0  0
 41 42  2  0  0  0  0
 41 44  1  0  0  0  0
 42 43  1  0  0  0  0
 43 46  1  0  0  0  0
 43 45  1  0  0  0  0
M  END
>  <minimizedAffinity>
-6.7931242

>  <minimizedRMSD>
9.44495773

$$$$
