
 OpenBabel03262520183D

 23 24  0  0  0  0  0  0  0  0999 V2000
   38.6320   25.7400   34.2830 C   0  0  0  0  0  0  0  0  0  0  0  0
   38.3230   24.4520   34.6240 C   0  0  0  0  0  0  0  0  0  0  0  0
   37.8780   23.6280   33.6190 C   0  0  0  0  0  0  0  0  0  0  0  0
   37.6170   22.6030   33.8150 H   0  0  0  0  0  0  0  0  0  0  0  0
   37.7440   24.0510   32.3430 C   0  0  0  0  0  0  0  0  0  0  0  0
   37.3880   23.3720   31.5700 H   0  0  0  0  0  0  0  0  0  0  0  0
   38.0440   25.3390   31.9570 C   0  0  0  0  0  3  0  0  0  0  0  0
   38.4880   26.1660   32.9560 C   0  0  0  0  0  3  0  0  0  0  0  0
   39.8500   22.8570   37.6310 C   0  0  0  0  0  0  0  0  0  0  0  0
   39.6140   23.3020   36.3140 C   0  0  0  0  0  0  0  0  0  0  0  0
   38.4780   24.0410   36.0060 C   0  0  0  0  0  0  0  0  0  0  0  0
   37.6660   24.2730   37.0530 N   0  0  0  0  0  0  0  0  0  0  0  0
   37.8710   23.8620   38.3060 C   0  0  0  0  0  0  0  0  0  0  0  0
   38.9790   23.1420   38.6000 N   0  0  0  0  0  0  0  0  0  0  0  0
   40.6930   22.2850   37.9620 H   0  0  0  0  0  0  0  0  0  0  0  0
   40.4140   22.9780   35.6850 H   0  0  0  0  0  0  0  0  0  0  0  0
   37.1150   24.1370   39.0280 H   0  0  0  0  0  0  0  0  0  0  0  0
   40.3870   27.1710   35.0700 N   0  0  0  0  0  0  0  0  0  0  0  0
   39.1280   26.7900   35.1190 C   0  0  0  0  0  0  0  0  0  0  0  0
   38.7440   27.6980   36.1280 N   0  0  0  0  0  0  0  0  0  0  0  0
   40.7180   27.9400   35.7070 H   0  0  0  0  0  0  0  0  0  0  0  0
   38.6660   28.7360   36.1300 H   0  0  0  0  0  0  0  0  0  0  0  0
   38.4410   27.5470   37.1370 H   0  0  0  0  0  0  0  0  0  0  0  0
  1  2  1  0  0  0  0
  1 19  1  0  0  0  0
  2 11  1  0  0  0  0
  3  4  1  0  0  0  0
  3  2  2  0  0  0  0
  5  3  1  0  0  0  0
  6  5  1  0  0  0  0
  7  5  2  0  0  0  0
  7  8  1  0  0  0  0
  8  1  2  0  0  0  0
  9 15  1  0  0  0  0
  9 14  1  0  0  0  0
 10  9  2  0  0  0  0
 11 10  1  0  0  0  0
 11 12  2  0  0  0  0
 12 13  1  0  0  0  0
 13 14  2  0  0  0  0
 13 17  1  0  0  0  0
 16 10  1  0  0  0  0
 18 19  2  0  0  0  0
 18 21  1  0  0  0  0
 19 20  1  0  0  0  0
 20 22  1  0  0  0  0
 20 23  1  0  0  0  0
M  END
>  <minimizedAffinity>
-4.5892992

$$$$

 OpenBabel03262520183D

 23 24  0  0  0  0  0  0  0  0999 V2000
   40.2930   22.8820   36.7600 C   0  0  0  0  0  0  0  0  0  0  0  0
   40.7160   23.6370   35.7010 C   0  0  0  0  0  0  0  0  0  0  0  0
   41.9900   23.4110   35.2410 C   0  0  0  0  0  0  0  0  0  0  0  0
   42.3890   23.9680   34.4110 H   0  0  0  0  0  0  0  0  0  0  0  0
   42.8060   22.4880   35.7940 C   0  0  0  0  0  0  0  0  0  0  0  0
   43.8110   22.3340   35.4040 H   0  0  0  0  0  0  0  0  0  0  0  0
   42.4210   21.7080   36.8620 C   0  0  0  0  0  3  0  0  0  0  0  0
   41.1500   21.9290   37.3260 C   0  0  0  0  0  3  0  0  0  0  0  0
   39.3940   26.9750   34.6870 C   0  0  0  0  0  0  0  0  0  0  0  0
   40.2100   25.9490   35.2060 C   0  0  0  0  0  0  0  0  0  0  0  0
   39.8090   24.6200   35.1390 C   0  0  0  0  0  0  0  0  0  0  0  0
   38.6140   24.4290   34.5520 N   0  0  0  0  0  0  0  0  0  0  0  0
   37.8270   25.3850   34.0540 C   0  0  0  0  0  0  0  0  0  0  0  0
   38.2220   26.6790   34.1230 N   0  0  0  0  0  0  0  0  0  0  0  0
   39.6180   28.0230   34.6930 H   0  0  0  0  0  0  0  0  0  0  0  0
   41.0980   26.3790   35.6140 H   0  0  0  0  0  0  0  0  0  0  0  0
   36.8960   25.0560   33.6150 H   0  0  0  0  0  0  0  0  0  0  0  0
   38.9290   22.9740   38.7290 N   0  0  0  0  0  0  0  0  0  0  0  0
   39.0220   22.9000   37.4190 C   0  0  0  0  0  0  0  0  0  0  0  0
   37.6330   22.8500   37.1800 N   0  0  0  0  0  0  0  0  0  0  0  0
   37.9770   22.9750   39.1790 H   0  0  0  0  0  0  0  0  0  0  0  0
   36.8840   23.5600   37.3130 H   0  0  0  0  0  0  0  0  0  0  0  0
   37.0080   22.0750   36.8060 H   0  0  0  0  0  0  0  0  0  0  0  0
  1  8  1  0  0  0  0
  1 19  1  0  0  0  0
  2  1  2  0  0  0  0
  3  2  1  0  0  0  0
  3  5  2  0  0  0  0
  4  3  1  0  0  0  0
  5  7  1  0  0  0  0
  6  5  1  0  0  0  0
  7  8  2  0  0  0  0
  9 15  1  0  0  0  0
  9 10  1  0  0  0  0
 10 16  1  0  0  0  0
 11 10  2  0  0  0  0
 11  2  1  0  0  0  0
 12 11  1  0  0  0  0
 13 14  1  0  0  0  0
 13 12  2  0  0  0  0
 14  9  2  0  0  0  0
 17 13  1  0  0  0  0
 18 21  1  0  0  0  0
 19 18  2  0  0  0  0
 20 22  1  0  0  0  0
 20 19  1  0  0  0  0
 23 20  1  0  0  0  0
M  END
>  <minimizedAffinity>
-4.52571011

$$$$

 OpenBabel03262520183D

 23 24  0  0  0  0  0  0  0  0999 V2000
   38.9680   24.3080   36.4610 C   0  0  0  0  0  0  0  0  0  0  0  0
   40.0840   24.2930   35.6720 C   0  0  0  0  0  0  0  0  0  0  0  0
   40.3040   25.3920   34.8780 C   0  0  0  0  0  0  0  0  0  0  0  0
   41.1630   25.4480   34.2320 H   0  0  0  0  0  0  0  0  0  0  0  0
   39.4680   26.4530   34.8620 C   0  0  0  0  0  0  0  0  0  0  0  0
   39.6720   27.3080   34.2210 H   0  0  0  0  0  0  0  0  0  0  0  0
   38.3330   26.5080   35.6410 C   0  0  0  0  0  3  0  0  0  0  0  0
   38.1070   25.4140   36.4350 C   0  0  0  0  0  3  0  0  0  0  0  0
   41.9530   21.2960   34.4700 C   0  0  0  0  0  0  0  0  0  0  0  0
   41.1270   22.4370   34.5250 C   0  0  0  0  0  0  0  0  0  0  0  0
   40.9530   23.1330   35.7160 C   0  0  0  0  0  0  0  0  0  0  0  0
   41.6290   22.6210   36.7610 N   0  0  0  0  0  0  0  0  0  0  0  0
   42.4150   21.5430   36.7310 C   0  0  0  0  0  0  0  0  0  0  0  0
   42.5800   20.8690   35.5680 N   0  0  0  0  0  0  0  0  0  0  0  0
   42.1470   20.6980   33.6020 H   0  0  0  0  0  0  0  0  0  0  0  0
   40.7160   22.6200   33.5570 H   0  0  0  0  0  0  0  0  0  0  0  0
   42.8840   21.2680   37.6650 H   0  0  0  0  0  0  0  0  0  0  0  0
   37.3940   22.6510   37.1860 N   0  0  0  0  0  0  0  0  0  0  0  0
   38.5140   23.3130   37.3850 C   0  0  0  0  0  0  0  0  0  0  0  0
   38.8360   22.6840   38.6060 N   0  0  0  0  0  0  0  0  0  0  0  0
   37.0870   21.9340   37.8920 H   0  0  0  0  0  0  0  0  0  0  0  0
   39.1110   21.7050   38.8260 H   0  0  0  0  0  0  0  0  0  0  0  0
   38.8770   23.0540   39.6020 H   0  0  0  0  0  0  0  0  0  0  0  0
  1 19  1  0  0  0  0
  2 11  1  0  0  0  0
  2  1  2  0  0  0  0
  3  2  1  0  0  0  0
  4  3  1  0  0  0  0
  5  3  2  0  0  0  0
  5  7  1  0  0  0  0
  6  5  1  0  0  0  0
  7  8  2  0  0  0  0
  8  1  1  0  0  0  0
  9 10  2  0  0  0  0
  9 14  1  0  0  0  0
 10 11  1  0  0  0  0
 11 12  2  0  0  0  0
 13 12  1  0  0  0  0
 13 17  1  0  0  0  0
 14 13  2  0  0  0  0
 15  9  1  0  0  0  0
 16 10  1  0  0  0  0
 18 19  2  0  0  0  0
 18 21  1  0  0  0  0
 19 20  1  0  0  0  0
 20 22  1  0  0  0  0
 20 23  1  0  0  0  0
M  END
>  <minimizedAffinity>
-4.44423628

$$$$

 OpenBabel03262520183D

 23 24  0  0  0  0  0  0  0  0999 V2000
   33.6670   30.3810   35.1360 C   0  0  0  0  0  0  0  0  0  0  0  0
   35.0210   30.4730   34.9650 C   0  0  0  0  0  0  0  0  0  0  0  0
   35.7020   31.3160   35.8090 C   0  0  0  0  0  0  0  0  0  0  0  0
   36.7680   31.4370   35.7320 H   0  0  0  0  0  0  0  0  0  0  0  0
   35.0820   32.0310   36.7730 C   0  0  0  0  0  0  0  0  0  0  0  0
   35.6520   32.6900   37.4260 H   0  0  0  0  0  0  0  0  0  0  0  0
   33.7210   31.9680   36.9780 C   0  0  0  0  0  3  0  0  0  0  0  0
   33.0350   31.1280   36.1390 C   0  0  0  0  0  3  0  0  0  0  0  0
   36.9270   27.6980   33.3580 C   0  0  0  0  0  0  0  0  0  0  0  0
   36.2900   28.5230   34.3080 C   0  0  0  0  0  0  0  0  0  0  0  0
   35.6460   29.6910   33.9160 C   0  0  0  0  0  0  0  0  0  0  0  0
   35.6940   29.9350   32.5940 N   0  0  0  0  0  0  0  0  0  0  0  0
   36.2910   29.1680   31.6790 C   0  0  0  0  0  0  0  0  0  0  0  0
   36.9180   28.0320   32.0670 N   0  0  0  0  0  0  0  0  0  0  0  0
   37.4460   26.7830   33.5650 H   0  0  0  0  0  0  0  0  0  0  0  0
   36.4040   28.0950   35.2790 H   0  0  0  0  0  0  0  0  0  0  0  0
   36.2360   29.5130   30.6570 H   0  0  0  0  0  0  0  0  0  0  0  0
   31.7750   28.9130   35.0330 N   0  0  0  0  0  0  0  0  0  0  0  0
   32.7290   29.5750   34.4150 C   0  0  0  0  0  0  0  0  0  0  0  0
   32.3860   29.1410   33.1170 N   0  0  0  0  0  0  0  0  0  0  0  0
   31.1090   28.3230   34.4700 H   0  0  0  0  0  0  0  0  0  0  0  0
   31.5550   29.3340   32.5220 H   0  0  0  0  0  0  0  0  0  0  0  0
   32.8910   28.5070   32.4280 H   0  0  0  0  0  0  0  0  0  0  0  0
  1  8  1  0  0  0  0
  2  1  2  0  0  0  0
  2  3  1  0  0  0  0
  3  5  2  0  0  0  0
  4  3  1  0  0  0  0
  5  7  1  0  0  0  0
  5  6  1  0  0  0  0
  8  7  2  0  0  0  0
  9 15  1  0  0  0  0
  9 10  1  0  0  0  0
 10 16  1  0  0  0  0
 11 10  2  0  0  0  0
 11  2  1  0  0  0  0
 12 11  1  0  0  0  0
 13 14  1  0  0  0  0
 13 12  2  0  0  0  0
 14  9  2  0  0  0  0
 17 13  1  0  0  0  0
 19 18  2  0  0  0  0
 19  1  1  0  0  0  0
 20 19  1  0  0  0  0
 21 18  1  0  0  0  0
 22 20  1  0  0  0  0
 23 20  1  0  0  0  0
M  END
>  <minimizedAffinity>
-4.38719749

$$$$

 OpenBabel03262520183D

 23 24  0  0  0  0  0  0  0  0999 V2000
   36.1720   28.2980   32.0190 C   0  0  0  0  0  0  0  0  0  0  0  0
   36.6940   27.8060   33.1840 C   0  0  0  0  0  0  0  0  0  0  0  0
   36.3700   28.4690   34.3430 C   0  0  0  0  0  0  0  0  0  0  0  0
   36.7440   28.1380   35.2960 H   0  0  0  0  0  0  0  0  0  0  0  0
   35.5720   29.5590   34.3550 C   0  0  0  0  0  0  0  0  0  0  0  0
   35.3340   30.0600   35.2920 H   0  0  0  0  0  0  0  0  0  0  0  0
   35.0260   30.0860   33.2050 C   0  0  0  0  0  3  0  0  0  0  0  0
   35.3470   29.4300   32.0440 C   0  0  0  0  0  3  0  0  0  0  0  0
   39.8300   25.7860   33.1410 C   0  0  0  0  0  0  0  0  0  0  0  0
   38.9200   26.8620   33.1900 C   0  0  0  0  0  0  0  0  0  0  0  0
   37.5490   26.6370   33.1260 C   0  0  0  0  0  0  0  0  0  0  0  0
   37.2040   25.3410   33.0160 N   0  0  0  0  0  0  0  0  0  0  0  0
   38.0480   24.3090   32.9680 C   0  0  0  0  0  0  0  0  0  0  0  0
   39.3820   24.5340   33.0300 N   0  0  0  0  0  0  0  0  0  0  0  0
   40.8980   25.8610   33.1840 H   0  0  0  0  0  0  0  0  0  0  0  0
   39.4610   27.7770   33.2780 H   0  0  0  0  0  0  0  0  0  0  0  0
   37.6010   23.3300   32.8780 H   0  0  0  0  0  0  0  0  0  0  0  0
   35.8560   26.6230   30.3340 N   0  0  0  0  0  0  0  0  0  0  0  0
   36.3330   27.7970   30.6880 C   0  0  0  0  0  0  0  0  0  0  0  0
   36.8930   28.1080   29.4310 N   0  0  0  0  0  0  0  0  0  0  0  0
   36.0020   26.2840   29.3480 H   0  0  0  0  0  0  0  0  0  0  0  0
   36.4530   28.3120   28.5110 H   0  0  0  0  0  0  0  0  0  0  0  0
   37.9030   28.2110   29.1130 H   0  0  0  0  0  0  0  0  0  0  0  0
  1  8  2  0  0  0  0
  1  2  1  0  0  0  0
  2  3  2  0  0  0  0
  3  5  1  0  0  0  0
  3  4  1  0  0  0  0
  5  6  1  0  0  0  0
  7  5  2  0  0  0  0
  8  7  1  0  0  0  0
  9 15  1  0  0  0  0
  9 10  1  0  0  0  0
 10 16  1  0  0  0  0
 11  2  1  0  0  0  0
 11 10  2  0  0  0  0
 12 11  1  0  0  0  0
 13 12  2  0  0  0  0
 13 14  1  0  0  0  0
 14  9  2  0  0  0  0
 17 13  1  0  0  0  0
 18 19  2  0  0  0  0
 19  1  1  0  0  0  0
 20 19  1  0  0  0  0
 21 18  1  0  0  0  0
 22 20  1  0  0  0  0
 23 20  1  0  0  0  0
M  END
>  <minimizedAffinity>
-4.34654903

$$$$

 OpenBabel03262520183D

 23 24  0  0  0  0  0  0  0  0999 V2000
   36.6060   27.3980   32.3140 C   0  0  0  0  0  0  0  0  0  0  0  0
   36.1430   28.3240   33.2080 C   0  0  0  0  0  0  0  0  0  0  0  0
   36.5620   28.2010   34.5100 C   0  0  0  0  0  0  0  0  0  0  0  0
   36.2380   28.8940   35.2670 H   0  0  0  0  0  0  0  0  0  0  0  0
   37.3970   27.2170   34.9120 C   0  0  0  0  0  0  0  0  0  0  0  0
   37.7100   27.1490   35.9520 H   0  0  0  0  0  0  0  0  0  0  0  0
   37.8860   26.2650   34.0450 C   0  0  0  0  0  3  0  0  0  0  0  0
   37.4700   26.3820   32.7430 C   0  0  0  0  0  3  0  0  0  0  0  0
   35.0430   31.6040   31.8110 C   0  0  0  0  0  0  0  0  0  0  0  0
   35.8340   30.5390   32.2890 C   0  0  0  0  0  0  0  0  0  0  0  0
   35.2460   29.3610   32.7360 C   0  0  0  0  0  0  0  0  0  0  0  0
   33.9020   29.3500   32.6660 N   0  0  0  0  0  0  0  0  0  0  0  0
   33.1360   30.3460   32.2170 C   0  0  0  0  0  0  0  0  0  0  0  0
   33.7140   31.4910   31.7840 N   0  0  0  0  0  0  0  0  0  0  0  0
   35.4050   32.5450   31.4480 H   0  0  0  0  0  0  0  0  0  0  0  0
   36.8640   30.8140   32.2340 H   0  0  0  0  0  0  0  0  0  0  0  0
   32.0690   30.1710   32.2300 H   0  0  0  0  0  0  0  0  0  0  0  0
   35.6280   26.3200   30.4100 N   0  0  0  0  0  0  0  0  0  0  0  0
   36.3440   27.3040   30.9100 C   0  0  0  0  0  0  0  0  0  0  0  0
   36.6000   27.9350   29.6750 N   0  0  0  0  0  0  0  0  0  0  0  0
   35.4640   26.2780   29.3710 H   0  0  0  0  0  0  0  0  0  0  0  0
   35.9720   28.4300   29.0090 H   0  0  0  0  0  0  0  0  0  0  0  0
   37.4980   28.0610   29.1190 H   0  0  0  0  0  0  0  0  0  0  0  0
  1  8  2  0  0  0  0
  1  2  1  0  0  0  0
  2  3  2  0  0  0  0
  3  5  1  0  0  0  0
  3  4  1  0  0  0  0
  5  6  1  0  0  0  0
  7  5  2  0  0  0  0
  8  7  1  0  0  0  0
  9 10  1  0  0  0  0
 10 11  2  0  0  0  0
 11  2  1  0  0  0  0
 12 11  1  0  0  0  0
 13 17  1  0  0  0  0
 13 12  2  0  0  0  0
 14  9  2  0  0  0  0
 14 13  1  0  0  0  0
 15  9  1  0  0  0  0
 16 10  1  0  0  0  0
 18 19  2  0  0  0  0
 19  1  1  0  0  0  0
 20 19  1  0  0  0  0
 21 18  1  0  0  0  0
 22 20  1  0  0  0  0
 23 20  1  0  0  0  0
M  END
>  <minimizedAffinity>
-4.33317089

$$$$

 OpenBabel03262520183D

 23 24  0  0  0  0  0  0  0  0999 V2000
   37.8170   25.3370   33.9900 C   0  0  0  0  0  0  0  0  0  0  0  0
   38.1890   25.6420   35.2700 C   0  0  0  0  0  0  0  0  0  0  0  0
   37.9360   26.9190   35.7080 C   0  0  0  0  0  0  0  0  0  0  0  0
   38.2020   27.2280   36.7030 H   0  0  0  0  0  0  0  0  0  0  0  0
   37.3450   27.8480   34.9250 C   0  0  0  0  0  0  0  0  0  0  0  0
   37.1580   28.8520   35.3040 H   0  0  0  0  0  0  0  0  0  0  0  0
   36.9550   27.5830   33.6310 C   0  0  0  0  0  3  0  0  0  0  0  0
   37.2050   26.3100   33.1880 C   0  0  0  0  0  3  0  0  0  0  0  0
   38.7340   23.2880   38.1120 C   0  0  0  0  0  0  0  0  0  0  0  0
   38.1910   24.2750   37.2640 C   0  0  0  0  0  0  0  0  0  0  0  0
   38.8240   24.6160   36.0740 C   0  0  0  0  0  0  0  0  0  0  0  0
   39.9570   23.9320   35.8330 N   0  0  0  0  0  0  0  0  0  0  0  0
   40.4880   22.9960   36.6220 C   0  0  0  0  0  0  0  0  0  0  0  0
   39.8670   22.6680   37.7800 N   0  0  0  0  0  0  0  0  0  0  0  0
   38.3190   22.9600   39.0440 H   0  0  0  0  0  0  0  0  0  0  0  0
   37.2910   24.6530   37.6960 H   0  0  0  0  0  0  0  0  0  0  0  0
   41.4070   22.5450   36.2760 H   0  0  0  0  0  0  0  0  0  0  0  0
   37.0290   23.6820   32.4450 N   0  0  0  0  0  0  0  0  0  0  0  0
   37.9460   24.0920   33.2950 C   0  0  0  0  0  0  0  0  0  0  0  0
   38.7840   22.9660   33.1530 N   0  0  0  0  0  0  0  0  0  0  0  0
   37.1530   22.7560   31.9600 H   0  0  0  0  0  0  0  0  0  0  0  0
   39.3550   22.6270   32.3530 H   0  0  0  0  0  0  0  0  0  0  0  0
   39.0390   22.1860   33.8300 H   0  0  0  0  0  0  0  0  0  0  0  0
  1  2  1  0  0  0  0
  2  3  2  0  0  0  0
  2 11  1  0  0  0  0
  3  4  1  0  0  0  0
  5  6  1  0  0  0  0
  5  3  1  0  0  0  0
  7  5  2  0  0  0  0
  8  7  1  0  0  0  0
  8  1  2  0  0  0  0
  9 15  1  0  0  0  0
 10 16  1  0  0  0  0
 10  9  2  0  0  0  0
 11 10  1  0  0  0  0
 12 11  2  0  0  0  0
 12 13  1  0  0  0  0
 13 14  2  0  0  0  0
 14  9  1  0  0  0  0
 17 13  1  0  0  0  0
 18 19  2  0  0  0  0
 19  1  1  0  0  0  0
 20 19  1  0  0  0  0
 20 23  1  0  0  0  0
 21 18  1  0  0  0  0
 22 20  1  0  0  0  0
M  END
>  <minimizedAffinity>
-4.2875495

$$$$

 OpenBabel03262520183D

 23 24  0  0  0  0  0  0  0  0999 V2000
   39.6920   26.9300   34.1340 C   0  0  0  0  0  0  0  0  0  0  0  0
   39.4240   27.0800   32.8010 C   0  0  0  0  0  0  0  0  0  0  0  0
   40.5000   27.2270   31.9600 C   0  0  0  0  0  0  0  0  0  0  0  0
   40.3640   27.3500   30.8990 H   0  0  0  0  0  0  0  0  0  0  0  0
   41.7750   27.2260   32.4080 C   0  0  0  0  0  0  0  0  0  0  0  0
   42.6050   27.3440   31.7130 H   0  0  0  0  0  0  0  0  0  0  0  0
   42.0880   27.0780   33.7410 C   0  0  0  0  0  3  0  0  0  0  0  0
   41.0180   26.9310   34.5860 C   0  0  0  0  0  3  0  0  0  0  0  0
   36.2080   25.7820   31.4270 C   0  0  0  0  0  0  0  0  0  0  0  0
   37.5420   25.8790   31.8760 C   0  0  0  0  0  0  0  0  0  0  0  0
   38.0420   27.0810   32.3630 C   0  0  0  0  0  0  0  0  0  0  0  0
   37.1560   28.0930   32.3600 N   0  0  0  0  0  0  0  0  0  0  0  0
   35.8910   28.0230   31.9400 C   0  0  0  0  0  0  0  0  0  0  0  0
   35.4090   26.8500   31.4650 N   0  0  0  0  0  0  0  0  0  0  0  0
   35.7370   24.9030   31.0370 H   0  0  0  0  0  0  0  0  0  0  0  0
   38.0190   24.9300   31.7670 H   0  0  0  0  0  0  0  0  0  0  0  0
   35.3150   28.9340   32.0060 H   0  0  0  0  0  0  0  0  0  0  0  0
   38.6630   27.6250   36.1840 N   0  0  0  0  0  0  0  0  0  0  0  0
   38.7710   26.7430   35.2140 C   0  0  0  0  0  0  0  0  0  0  0  0
   37.8050   25.8510   35.7240 N   0  0  0  0  0  0  0  0  0  0  0  0
   37.9820   27.4490   36.9670 H   0  0  0  0  0  0  0  0  0  0  0  0
   36.7750   25.9390   35.8360 H   0  0  0  0  0  0  0  0  0  0  0  0
   37.8920   24.8690   36.1230 H   0  0  0  0  0  0  0  0  0  0  0  0
  1  8  1  0  0  0  0
  1 19  1  0  0  0  0
  2  1  2  0  0  0  0
  3  5  2  0  0  0  0
  3  2  1  0  0  0  0
  4  3  1  0  0  0  0
  5  7  1  0  0  0  0
  6  5  1  0  0  0  0
  7  8  2  0  0  0  0
  9 14  2  0  0  0  0
  9 10  1  0  0  0  0
 10 11  2  0  0  0  0
 11  2  1  0  0  0  0
 12 11  1  0  0  0  0
 13 17  1  0  0  0  0
 13 12  2  0  0  0  0
 14 13  1  0  0  0  0
 15  9  1  0  0  0  0
 16 10  1  0  0  0  0
 18 21  1  0  0  0  0
 19 20  1  0  0  0  0
 19 18  2  0  0  0  0
 20 22  1  0  0  0  0
 20 23  1  0  0  0  0
M  END
>  <minimizedAffinity>
-4.28129864

$$$$

 OpenBabel03262520183D

 23 24  0  0  0  0  0  0  0  0999 V2000
   39.8470   23.9440   35.7360 C   0  0  0  0  0  0  0  0  0  0  0  0
   38.6770   24.5510   36.1050 C   0  0  0  0  0  0  0  0  0  0  0  0
   38.1640   24.2240   37.3360 C   0  0  0  0  0  0  0  0  0  0  0  0
   37.2480   24.6620   37.6910 H   0  0  0  0  0  0  0  0  0  0  0  0
   38.7710   23.3450   38.1630 C   0  0  0  0  0  0  0  0  0  0  0  0
   38.3370   23.1080   39.1330 H   0  0  0  0  0  0  0  0  0  0  0  0
   39.9490   22.7120   37.8310 C   0  0  0  0  0  3  0  0  0  0  0  0
   40.4660   23.0340   36.6030 C   0  0  0  0  0  3  0  0  0  0  0  0
   37.2720   27.7600   34.8240 C   0  0  0  0  0  0  0  0  0  0  0  0
   37.8680   26.7820   35.6460 C   0  0  0  0  0  0  0  0  0  0  0  0
   38.0560   25.4840   35.1850 C   0  0  0  0  0  0  0  0  0  0  0  0
   37.6280   25.2740   33.9270 N   0  0  0  0  0  0  0  0  0  0  0  0
   37.0620   26.1850   33.1330 C   0  0  0  0  0  0  0  0  0  0  0  0
   36.8800   27.4480   33.5880 N   0  0  0  0  0  0  0  0  0  0  0  0
   37.0860   28.7810   35.0910 H   0  0  0  0  0  0  0  0  0  0  0  0
   38.1110   27.2170   36.5900 H   0  0  0  0  0  0  0  0  0  0  0  0
   36.7750   25.8470   32.1470 H   0  0  0  0  0  0  0  0  0  0  0  0
   41.8380   24.5560   34.5510 N   0  0  0  0  0  0  0  0  0  0  0  0
   40.5990   24.1140   34.5310 C   0  0  0  0  0  0  0  0  0  0  0  0
   40.5170   23.9870   33.1280 N   0  0  0  0  0  0  0  0  0  0  0  0
   42.3570   24.6780   33.6440 H   0  0  0  0  0  0  0  0  0  0  0  0
   40.9960   23.3460   32.4640 H   0  0  0  0  0  0  0  0  0  0  0  0
   39.9450   24.5170   32.4030 H   0  0  0  0  0  0  0  0  0  0  0  0
  1  2  2  0  0  0  0
  1  8  1  0  0  0  0
  2  3  1  0  0  0  0
  3  4  1  0  0  0  0
  3  5  2  0  0  0  0
  5  6  1  0  0  0  0
  7  5  1  0  0  0  0
  8  7  2  0  0  0  0
  9 15  1  0  0  0  0
  9 10  1  0  0  0  0
 10 16  1  0  0  0  0
 11 10  2  0  0  0  0
 11  2  1  0  0  0  0
 12 11  1  0  0  0  0
 13 14  1  0  0  0  0
 13 12  2  0  0  0  0
 14  9  2  0  0  0  0
 17 13  1  0  0  0  0
 19 18  2  0  0  0  0
 19  1  1  0  0  0  0
 20 19  1  0  0  0  0
 21 18  1  0  0  0  0
 22 20  1  0  0  0  0
 23 20  1  0  0  0  0
M  END
>  <minimizedAffinity>
-4.26004696

$$$$
