
 OpenBabel03272508123D

 39 41  0  0  0  0  0  0  0  0999 V2000
   36.7390   29.3710   43.9590 Cl  0  0  0  0  0  0  0  0  0  0  0  0
   38.3850   29.8130   43.4780 C   0  0  0  0  0  0  0  0  0  0  0  0
   39.3380   30.3270   44.3440 C   0  0  0  0  0  0  0  0  0  0  0  0
   40.5940   30.6290   43.8230 C   0  0  0  0  0  0  0  0  0  0  0  0
   40.8670   30.4190   42.4920 C   0  0  0  0  0  0  0  0  0  0  0  0
   39.9320   29.9120   41.6290 C   0  0  0  0  0  0  0  0  0  0  0  0
   38.7020   29.6110   42.1210 C   0  0  0  0  0  0  0  0  0  0  0  0
   41.2720   31.0260   44.5750 H   0  0  0  0  0  0  0  0  0  0  0  0
   41.8790   30.6940   42.2110 H   0  0  0  0  0  0  0  0  0  0  0  0
   40.2150   29.7690   40.5830 H   0  0  0  0  0  0  0  0  0  0  0  0
   37.7870   27.6960   41.0600 C   0  0  0  0  0  0  0  0  0  0  0  0
   37.7260   29.0700   41.1730 C   0  0  0  0  0  0  0  0  0  0  0  0
   36.8050   29.7750   40.4260 C   0  0  0  0  0  0  0  0  0  0  0  0
   36.8320   30.8500   40.5810 H   0  0  0  0  0  0  0  0  0  0  0  0
   35.9490   29.1110   39.5710 C   0  0  0  0  0  0  0  0  0  0  0  0
   35.2430   29.7220   39.0060 H   0  0  0  0  0  0  0  0  0  0  0  0
   35.9800   27.7370   39.4320 C   0  0  0  0  0  3  0  0  0  0  0  0
   36.9120   27.0370   40.1900 C   0  0  0  0  0  3  0  0  0  0  0  0
   39.7990   26.2770   41.2950 N   0  0  0  0  0  0  0  0  0  0  0  0
   38.6530   26.7390   41.7280 C   0  0  0  0  0  0  0  0  0  0  0  0
   38.2980   26.1920   42.9910 N   0  0  0  0  0  0  0  0  0  0  0  0
   40.2070   26.5760   40.3830 H   0  0  0  0  0  0  0  0  0  0  0  0
   38.0300   25.7650   43.9000 H   0  0  0  0  0  0  0  0  0  0  0  0
   37.9620   25.2000   42.8090 H   0  0  0  0  0  0  0  0  0  0  0  0
   38.8720   30.4580   45.6110 O   0  0  0  0  0  0  0  0  0  0  0  0
   39.4190   32.5000   47.0980 O   0  0  0  0  0  0  0  0  0  0  0  0
   38.2880   31.8300   46.4020 P   0  0  1  0  0  0  0  0  0  0  0  0
   37.6940   32.8320   45.1550 O   0  0  0  0  0  0  0  0  0  0  0  0
   38.3270   33.5900   44.9900 H   0  0  0  0  0  0  0  0  0  0  0  0
   37.0160   31.3810   47.4240 O   0  0  0  0  0  0  0  0  0  0  0  0
   37.6090   30.5340   50.9670 C   0  0  0  0  0  0  0  0  0  0  0  0
   37.7000   31.2990   49.7980 C   0  0  0  0  0  0  0  0  0  0  0  0
   37.0620   30.8160   48.6540 C   0  0  0  0  0  0  0  0  0  0  0  0
   36.3860   29.6280   48.7340 N   0  0  0  0  0  0  0  0  0  0  0  0
   36.3290   28.9300   49.8820 C   0  0  0  0  0  0  0  0  0  0  0  0
   36.9420   29.3880   50.9980 N   0  0  0  0  0  0  0  0  0  0  0  0
   38.1530   31.0330   51.7810 H   0  0  0  0  0  0  0  0  0  0  0  0
   38.2130   32.2400   49.6640 H   0  0  0  0  0  0  0  0  0  0  0  0
   35.7960   27.9920   49.9490 H   0  0  0  0  0  0  0  0  0  0  0  0
  2  1  1  0  0  0  0
  2  3  1  0  0  0  0
  3 25  1  0  0  0  0
  4  3  2  0  0  0  0
  4  8  1  0  0  0  0
  5  4  1  0  0  0  0
  6  7  1  0  0  0  0
  6  5  2  0  0  0  0
  7  2  2  0  0  0  0
  9  5  1  0  0  0  0
 10  6  1  0  0  0  0
 11 12  1  0  0  0  0
 11 20  1  0  0  0  0
 12  7  1  0  0  0  0
 13 14  1  0  0  0  0
 13 12  2  0  0  0  0
 15 13  1  0  0  0  0
 16 15  1  0  0  0  0
 17 15  2  0  0  0  0
 17 18  1  0  0  0  0
 18 11  2  0  0  0  0
 19 20  2  0  0  0  0
 20 21  1  0  0  0  0
 21 23  1  0  0  0  0
 22 19  1  0  0  0  0
 24 21  1  0  0  0  0
 25 27  1  0  0  0  0
 27 26  2  1  0  0  0
 27 30  1  0  0  0  0
 28 27  1  0  0  0  0
 29 28  1  0  0  0  0
 30 33  1  0  0  0  0
 31 36  1  0  0  0  0
 31 37  1  0  0  0  0
 32 31  2  0  0  0  0
 33 34  2  0  0  0  0
 33 32  1  0  0  0  0
 34 35  1  0  0  0  0
 35 39  1  0  0  0  0
 35 36  2  0  0  0  0
 38 32  1  0  0  0  0
M  END
>  <minimizedAffinity>
-5.02905655

>  <minimizedRMSD>
1.34935725

$$$$
