REMARK  Name = 
REMARK  7 active torsions:
REMARK  status: ('A' for Active; 'I' for Inactive)
REMARK    1  A    between atoms: P_2  and  O_3
REMARK    2  A    between atoms: P_2  and  O_4
REMARK    3  A    between atoms: P_2  and  O_11
REMARK    4  A    between atoms: O_4  and  C_7
REMARK    5  A    between atoms: O_11  and  C_14
REMARK    6  A    between atoms: C_18  and  C_30
REMARK    7  A    between atoms: C_27  and  C_29
REMARK                            x       y       z     vdW  Elec       q    Type
REMARK                         _______ _______ _______ _____ _____    ______ ____
ROOT
ATOM      1 CL   UNL     1      36.623  29.444  44.037  0.00  0.00    +0.000 Cl
ATOM      2  C   UNL     1      38.262  29.831  43.490  0.00  0.00    +0.000 A 
ATOM      3  C   UNL     1      39.266  30.311  44.318  0.00  0.00    +0.000 A 
ATOM      4  C   UNL     1      40.510  30.572  43.747  0.00  0.00    +0.000 A 
ATOM      5  C   UNL     1      40.721  30.356  42.405  0.00  0.00    +0.000 A 
ATOM      6  C   UNL     1      39.736  29.883  41.580  0.00  0.00    +0.000 A 
ATOM      7  C   UNL     1      38.517  29.623  42.121  0.00  0.00    +0.000 A 
ATOM      8  H   UNL     1      41.230  30.944  44.471  0.00  0.00    +0.000 HD
ATOM      9  H   UNL     1      41.730  30.598  42.084  0.00  0.00    +0.000 HD
ATOM     10  H   UNL     1      39.971  29.734  40.524  0.00  0.00    +0.000 HD
ENDROOT
BRANCH   7  12
ATOM     11  C   UNL     1      36.539  30.066  40.887  0.00  0.00    +0.000 A 
ATOM     12  C   UNL     1      37.486  29.117  41.213  0.00  0.00    +0.000 A 
ATOM     13  C   UNL     1      37.387  27.846  40.685  0.00  0.00    +0.000 A 
ATOM     14  H   UNL     1      38.177  27.169  40.998  0.00  0.00    +0.000 HD
ATOM     15  C   UNL     1      36.348  27.525  39.837  0.00  0.00    +0.000 A 
ATOM     16  H   UNL     1      36.323  26.505  39.451  0.00  0.00    +0.000 HD
ATOM     17  C   UNL     1      35.380  28.448  39.487  0.00  0.00    +0.000 A 
ATOM     18  C   UNL     1      35.491  29.725  40.025  0.00  0.00    +0.000 A 
BRANCH  11  20
ATOM     19  N   UNL     1      35.319  32.142  41.455  0.00  0.00    +0.000 NA
ATOM     20  C   UNL     1      36.422  31.453  41.304  0.00  0.00    +0.000 C 
ATOM     21  N   UNL     1      37.578  32.225  41.599  0.00  0.00    +0.000 N 
ATOM     22  H   UNL     1      34.379  31.724  41.279  0.00  0.00    +0.000 HD
ATOM     23  H   UNL     1      38.421  32.805  41.787  0.00  0.00    +0.000 HD
ATOM     24  H   UNL     1      37.731  32.874  40.770  0.00  0.00    +0.000 HD
ENDBRANCH  11  20
ENDBRANCH   7  12
BRANCH   3  25
ATOM     25  O   UNL     1      38.857  30.454  45.603  0.00  0.00    +0.000 OA
BRANCH  25  27
ATOM     26  O   UNL     1      39.449  32.478  47.097  0.00  0.00    +0.000 OA
ATOM     27  P   UNL     1      38.302  31.832  46.404  0.00  0.00    +0.000 P 
BRANCH  27  28
ATOM     28  O   UNL     1      37.720  32.852  45.166  0.00  0.00    +0.000 OA
ATOM     29  H   UNL     1      38.366  33.599  45.001  0.00  0.00    +0.000 HD
ENDBRANCH  27  28
BRANCH  27  30
ATOM     30  O   UNL     1      37.028  31.401  47.431  0.00  0.00    +0.000 OA
BRANCH  30  33
ATOM     31  C   UNL     1      37.615  30.527  50.968  0.00  0.00    +0.000 A 
ATOM     32  C   UNL     1      37.711  31.299  49.804  0.00  0.00    +0.000 A 
ATOM     33  C   UNL     1      37.070  30.828  48.657  0.00  0.00    +0.000 A 
ATOM     34  N   UNL     1      36.386  29.644  48.729  0.00  0.00    +0.000 NA
ATOM     35  C   UNL     1      36.324  28.939  49.873  0.00  0.00    +0.000 A 
ATOM     36  N   UNL     1      36.941  29.386  50.992  0.00  0.00    +0.000 NA
ATOM     37  H   UNL     1      38.163  31.017  51.785  0.00  0.00    +0.000 HD
ATOM     38  H   UNL     1      38.231  32.238  49.676  0.00  0.00    +0.000 HD
ATOM     39  H   UNL     1      35.785  28.004  49.934  0.00  0.00    +0.000 HD
ENDBRANCH  30  33
ENDBRANCH  27  30
ENDBRANCH  25  27
ENDBRANCH   3  25
TORSDOF 7
