
 OpenBabel03272508123D

 39 41  0  0  0  0  0  0  0  0999 V2000
   36.7880   29.3130   44.0940 Cl  0  0  0  0  0  0  0  0  0  0  0  0
   38.4040   29.8000   43.5560 C   0  0  0  0  0  0  0  0  0  0  0  0
   39.3630   30.3630   44.3840 C   0  0  0  0  0  0  0  0  0  0  0  0
   40.5930   30.6960   43.8200 C   0  0  0  0  0  0  0  0  0  0  0  0
   40.8340   30.4680   42.4850 C   0  0  0  0  0  0  0  0  0  0  0  0
   39.8930   29.9130   41.6600 C   0  0  0  0  0  0  0  0  0  0  0  0
   38.6880   29.5820   42.1940 C   0  0  0  0  0  0  0  0  0  0  0  0
   41.2780   31.1310   44.5430 H   0  0  0  0  0  0  0  0  0  0  0  0
   41.8280   30.7720   42.1690 H   0  0  0  0  0  0  0  0  0  0  0  0
   40.1490   29.7590   40.6100 H   0  0  0  0  0  0  0  0  0  0  0  0
   37.8580   27.6270   41.1360 C   0  0  0  0  0  0  0  0  0  0  0  0
   37.7040   28.9890   41.2860 C   0  0  0  0  0  0  0  0  0  0  0  0
   36.6950   29.6400   40.6070 C   0  0  0  0  0  0  0  0  0  0  0  0
   36.6520   30.7100   40.7870 H   0  0  0  0  0  0  0  0  0  0  0  0
   35.8430   28.9330   39.7820 C   0  0  0  0  0  0  0  0  0  0  0  0
   35.0650   29.5030   39.2720 H   0  0  0  0  0  0  0  0  0  0  0  0
   35.9660   27.5680   39.6060 C   0  0  0  0  0  3  0  0  0  0  0  0
   36.9870   26.9230   40.2970 C   0  0  0  0  0  3  0  0  0  0  0  0
   39.9180   26.2580   41.1800 N   0  0  0  0  0  0  0  0  0  0  0  0
   38.8270   26.7230   41.7330 C   0  0  0  0  0  0  0  0  0  0  0  0
   38.6500   26.2370   43.0570 N   0  0  0  0  0  0  0  0  0  0  0  0
   40.1970   26.5160   40.2080 H   0  0  0  0  0  0  0  0  0  0  0  0
   38.5120   25.8540   44.0150 H   0  0  0  0  0  0  0  0  0  0  0  0
   38.3170   25.2310   42.9710 H   0  0  0  0  0  0  0  0  0  0  0  0
   38.9310   30.5040   45.6610 O   0  0  0  0  0  0  0  0  0  0  0  0
   39.4090   32.5630   47.1470 O   0  0  0  0  0  0  0  0  0  0  0  0
   38.3040   31.8650   46.4370 P   0  0  1  0  0  0  0  0  0  0  0  0
   37.7080   32.8500   45.1770 O   0  0  0  0  0  0  0  0  0  0  0  0
   38.3270   33.6210   45.0180 H   0  0  0  0  0  0  0  0  0  0  0  0
   37.0270   31.3930   47.4410 O   0  0  0  0  0  0  0  0  0  0  0  0
   37.6000   30.5300   50.9830 C   0  0  0  0  0  0  0  0  0  0  0  0
   37.6970   31.3000   49.8180 C   0  0  0  0  0  0  0  0  0  0  0  0
   37.0650   30.8230   48.6680 C   0  0  0  0  0  0  0  0  0  0  0  0
   36.3890   29.6340   48.7390 N   0  0  0  0  0  0  0  0  0  0  0  0
   36.3250   28.9320   49.8840 C   0  0  0  0  0  0  0  0  0  0  0  0
   36.9330   29.3850   51.0060 N   0  0  0  0  0  0  0  0  0  0  0  0
   38.1400   31.0250   51.8020 H   0  0  0  0  0  0  0  0  0  0  0  0
   38.2120   32.2420   49.6910 H   0  0  0  0  0  0  0  0  0  0  0  0
   35.7910   27.9930   49.9440 H   0  0  0  0  0  0  0  0  0  0  0  0
  2  1  1  0  0  0  0
  2  3  1  0  0  0  0
  3 25  1  0  0  0  0
  4  3  2  0  0  0  0
  4  8  1  0  0  0  0
  5  4  1  0  0  0  0
  6  7  1  0  0  0  0
  6  5  2  0  0  0  0
  7  2  2  0  0  0  0
  9  5  1  0  0  0  0
 10  6  1  0  0  0  0
 11 12  1  0  0  0  0
 11 20  1  0  0  0  0
 12  7  1  0  0  0  0
 13 14  1  0  0  0  0
 13 12  2  0  0  0  0
 15 13  1  0  0  0  0
 16 15  1  0  0  0  0
 17 15  2  0  0  0  0
 17 18  1  0  0  0  0
 18 11  2  0  0  0  0
 19 20  2  0  0  0  0
 20 21  1  0  0  0  0
 21 23  1  0  0  0  0
 22 19  1  0  0  0  0
 24 21  1  0  0  0  0
 25 27  1  0  0  0  0
 27 26  2  1  0  0  0
 27 30  1  0  0  0  0
 28 27  1  0  0  0  0
 29 28  1  0  0  0  0
 30 33  1  0  0  0  0
 31 36  1  0  0  0  0
 31 37  1  0  0  0  0
 32 31  2  0  0  0  0
 33 34  2  0  0  0  0
 33 32  1  0  0  0  0
 34 35  1  0  0  0  0
 35 39  1  0  0  0  0
 35 36  2  0  0  0  0
 38 32  1  0  0  0  0
M  END
>  <minimizedAffinity>
-5.05729818

>  <minimizedRMSD>
0.371269912

$$$$
