
 OpenBabel03272508123D

 39 41  0  0  0  0  0  0  0  0999 V2000
   36.7400   29.3700   43.9610 Cl  0  0  0  0  0  0  0  0  0  0  0  0
   38.3850   29.8130   43.4780 C   0  0  0  0  0  0  0  0  0  0  0  0
   39.3390   30.3290   44.3440 C   0  0  0  0  0  0  0  0  0  0  0  0
   40.5940   30.6320   43.8210 C   0  0  0  0  0  0  0  0  0  0  0  0
   40.8650   30.4220   42.4890 C   0  0  0  0  0  0  0  0  0  0  0  0
   39.9310   29.9140   41.6270 C   0  0  0  0  0  0  0  0  0  0  0  0
   38.7010   29.6120   42.1210 C   0  0  0  0  0  0  0  0  0  0  0  0
   41.2720   31.0300   44.5720 H   0  0  0  0  0  0  0  0  0  0  0  0
   41.8770   30.6980   42.2070 H   0  0  0  0  0  0  0  0  0  0  0  0
   40.2120   29.7720   40.5820 H   0  0  0  0  0  0  0  0  0  0  0  0
   37.7860   27.6970   41.0610 C   0  0  0  0  0  0  0  0  0  0  0  0
   37.7250   29.0700   41.1740 C   0  0  0  0  0  0  0  0  0  0  0  0
   36.8030   29.7740   40.4280 C   0  0  0  0  0  0  0  0  0  0  0  0
   36.8290   30.8490   40.5830 H   0  0  0  0  0  0  0  0  0  0  0  0
   35.9460   29.1110   39.5740 C   0  0  0  0  0  0  0  0  0  0  0  0
   35.2390   29.7220   39.0100 H   0  0  0  0  0  0  0  0  0  0  0  0
   35.9770   27.7350   39.4340 C   0  0  0  0  0  3  0  0  0  0  0  0
   36.9110   27.0370   40.1910 C   0  0  0  0  0  3  0  0  0  0  0  0
   39.8000   26.2780   41.2960 N   0  0  0  0  0  0  0  0  0  0  0  0
   38.6540   26.7400   41.7280 C   0  0  0  0  0  0  0  0  0  0  0  0
   38.2980   26.1920   42.9910 N   0  0  0  0  0  0  0  0  0  0  0  0
   40.2070   26.5790   40.3840 H   0  0  0  0  0  0  0  0  0  0  0  0
   38.0300   25.7640   43.9000 H   0  0  0  0  0  0  0  0  0  0  0  0
   37.9630   25.2000   42.8080 H   0  0  0  0  0  0  0  0  0  0  0  0
   38.8750   30.4590   45.6110 O   0  0  0  0  0  0  0  0  0  0  0  0
   39.4180   32.5010   47.0990 O   0  0  0  0  0  0  0  0  0  0  0  0
   38.2880   31.8290   46.4020 P   0  0  1  0  0  0  0  0  0  0  0  0
   37.6940   32.8320   45.1560 O   0  0  0  0  0  0  0  0  0  0  0  0
   38.3260   33.5910   44.9910 H   0  0  0  0  0  0  0  0  0  0  0  0
   37.0160   31.3780   47.4230 O   0  0  0  0  0  0  0  0  0  0  0  0
   37.6090   30.5340   50.9670 C   0  0  0  0  0  0  0  0  0  0  0  0
   37.7000   31.2980   49.7970 C   0  0  0  0  0  0  0  0  0  0  0  0
   37.0620   30.8150   48.6530 C   0  0  0  0  0  0  0  0  0  0  0  0
   36.3850   29.6270   48.7340 N   0  0  0  0  0  0  0  0  0  0  0  0
   36.3270   28.9300   49.8830 C   0  0  0  0  0  0  0  0  0  0  0  0
   36.9420   29.3890   50.9990 N   0  0  0  0  0  0  0  0  0  0  0  0
   38.1540   31.0330   51.7800 H   0  0  0  0  0  0  0  0  0  0  0  0
   38.2140   32.2390   49.6620 H   0  0  0  0  0  0  0  0  0  0  0  0
   35.7940   27.9920   49.9510 H   0  0  0  0  0  0  0  0  0  0  0  0
  2  1  1  0  0  0  0
  2  3  1  0  0  0  0
  3 25  1  0  0  0  0
  4  3  2  0  0  0  0
  4  8  1  0  0  0  0
  5  4  1  0  0  0  0
  6  7  1  0  0  0  0
  6  5  2  0  0  0  0
  7  2  2  0  0  0  0
  9  5  1  0  0  0  0
 10  6  1  0  0  0  0
 11 12  1  0  0  0  0
 11 20  1  0  0  0  0
 12  7  1  0  0  0  0
 13 14  1  0  0  0  0
 13 12  2  0  0  0  0
 15 13  1  0  0  0  0
 16 15  1  0  0  0  0
 17 15  2  0  0  0  0
 17 18  1  0  0  0  0
 18 11  2  0  0  0  0
 19 20  2  0  0  0  0
 20 21  1  0  0  0  0
 21 23  1  0  0  0  0
 22 19  1  0  0  0  0
 24 21  1  0  0  0  0
 25 27  1  0  0  0  0
 27 26  2  1  0  0  0
 27 30  1  0  0  0  0
 28 27  1  0  0  0  0
 29 28  1  0  0  0  0
 30 33  1  0  0  0  0
 31 36  1  0  0  0  0
 31 37  1  0  0  0  0
 32 31  2  0  0  0  0
 33 34  2  0  0  0  0
 33 32  1  0  0  0  0
 34 35  1  0  0  0  0
 35 39  1  0  0  0  0
 35 36  2  0  0  0  0
 38 32  1  0  0  0  0
M  END
>  <minimizedAffinity>
-5.02689648

>  <minimizedRMSD>
0.843935668

$$$$
