
 OpenBabel03272510073D

 35 37  0  0  0  0  0  0  0  0999 V2000
   38.3690   31.7630   46.3270 C   0  0  0  0  0  0  0  0  0  0  0  0
   37.7790   31.2540   45.1620 C   0  0  0  0  0  0  0  0  0  0  0  0
   36.6480   30.4480   45.2970 C   0  0  0  0  0  0  0  0  0  0  0  0
   36.1660   30.1920   46.5470 N   0  0  0  0  0  0  0  0  0  0  0  0
   36.7550   30.6970   47.6440 C   0  0  0  0  0  0  0  0  0  0  0  0
   37.8370   31.4670   47.5280 N   0  0  0  0  0  0  0  0  0  0  0  0
   36.1980   30.3880   48.9270 N   0  0  0  0  0  0  0  0  0  0  0  0
   34.8430   30.7180   49.3210 C   0  0  0  0  0  0  0  0  0  0  0  0
   34.6210   29.9920   50.5990 C   0  0  0  0  0  0  0  0  0  0  0  0
   35.7930   29.0450   50.7520 C   0  0  0  0  0  0  0  0  0  0  0  0
   36.9010   29.7060   50.0080 C   0  0  0  0  0  0  0  0  0  0  0  0
   39.2530   32.3930   46.2410 H   0  0  0  0  0  0  0  0  0  0  0  0
   36.2030   30.0670   44.3950 H   0  0  0  0  0  0  0  0  0  0  0  0
   34.1060   30.4160   48.5380 H   0  0  0  0  0  0  0  0  0  0  0  0
   34.7640   31.8150   49.4980 H   0  0  0  0  0  0  0  0  0  0  0  0
   33.6610   29.4520   50.6480 H   0  0  0  0  0  0  0  0  0  0  0  0
   34.7010   30.7070   51.4700 H   0  0  0  0  0  0  0  0  0  0  0  0
   35.5310   28.0990   50.2320 H   0  0  0  0  0  0  0  0  0  0  0  0
   36.0240   28.9010   51.8340 H   0  0  0  0  0  0  0  0  0  0  0  0
   37.6720   29.0250   49.6230 H   0  0  0  0  0  0  0  0  0  0  0  0
   37.3670   30.4720   50.6700 H   0  0  0  0  0  0  0  0  0  0  0  0
   38.6440   30.5550   43.0540 C   0  0  0  0  0  0  0  0  0  0  0  0
   38.4010   31.6190   43.8950 C   0  0  0  0  0  0  0  0  0  0  0  0
   38.7310   32.9000   43.5110 C   0  0  0  0  0  0  0  0  0  0  0  0
   38.4750   33.6190   44.2840 H   0  0  0  0  0  0  0  0  0  0  0  0
   39.3050   33.1810   42.2940 C   0  0  0  0  0  0  0  0  0  0  0  0
   39.4920   34.2160   42.1590 H   0  0  0  0  0  0  0  0  0  0  0  0
   39.5490   32.1200   41.4500 C   0  0  0  0  0  3  0  0  0  0  0  0
   39.2290   30.8160   41.8100 C   0  0  0  0  0  3  0  0  0  0  0  0
   37.2930   28.5380   42.8960 N   0  0  0  0  0  0  0  0  0  0  0  0
   38.3980   29.1320   43.2470 C   0  0  0  0  0  0  0  0  0  0  0  0
   39.2160   28.1370   43.8010 N   0  0  0  0  0  0  0  0  0  0  0  0
   36.5050   29.0730   42.4500 H   0  0  0  0  0  0  0  0  0  0  0  0
   39.8280   27.6390   44.4710 H   0  0  0  0  0  0  0  0  0  0  0  0
   39.4830   27.2280   43.3740 H   0  0  0  0  0  0  0  0  0  0  0  0
  1  6  1  0  0  0  0
  2  3  1  0  0  0  0
  2  1  2  0  0  0  0
  3  4  2  0  0  0  0
  4  5  1  0  0  0  0
  5  7  1  0  0  0  0
  6  5  2  0  0  0  0
  7  8  1  0  0  0  0
  7 11  1  0  0  0  0
  8 15  1  0  0  0  0
  8  9  1  0  0  0  0
  9 16  1  0  0  0  0
  9 10  1  0  0  0  0
  9 17  1  0  0  0  0
 10 19  1  0  0  0  0
 11 21  1  0  0  0  0
 11 10  1  0  0  0  0
 12  1  1  0  0  0  0
 13  3  1  0  0  0  0
 14  8  1  0  0  0  0
 18 10  1  0  0  0  0
 20 11  1  0  0  0  0
 22 31  1  0  0  0  0
 22 23  1  0  0  0  0
 23  2  1  0  0  0  0
 24 23  2  0  0  0  0
 24 25  1  0  0  0  0
 26 24  1  0  0  0  0
 27 26  1  0  0  0  0
 28 29  1  0  0  0  0
 28 26  2  0  0  0  0
 29 22  2  0  0  0  0
 30 31  2  0  0  0  0
 31 32  1  0  0  0  0
 32 34  1  0  0  0  0
 33 30  1  0  0  0  0
 35 32  1  0  0  0  0
M  END
>  <minimizedAffinity>
-4.5186429

>  <minimizedRMSD>
4.70372248

$$$$
