REMARK  Name = 
REMARK  4 active torsions:
REMARK  status: ('A' for Active; 'I' for Inactive)
REMARK    1  A    between atoms: C_1  and  N_13
REMARK    2  A    between atoms: C_5  and  C_7
REMARK    3  A    between atoms: C_11  and  C_25
REMARK    4  A    between atoms: C_22  and  C_24
REMARK                            x       y       z     vdW  Elec       q    Type
REMARK                         _______ _______ _______ _____ _____    ______ ____
ROOT
ATOM      1  C   UNL     1      34.856  29.322  48.419  0.00  0.00    +0.000 A 
ATOM      2  C   UNL     1      34.440  28.112  48.945  0.00  0.00    +0.000 A 
ATOM      3  C   UNL     1      33.340  27.583  48.325  0.00  0.00    +0.000 A 
ATOM      4  C   UNL     1      32.699  28.206  47.263  0.00  0.00    +0.000 A 
ATOM      5  C   UNL     1      33.181  29.413  46.801  0.00  0.00    +0.000 A 
ATOM      6  N   UNL     1      34.260  29.955  47.392  0.00  0.00    +0.000 NA
ATOM      7  H   UNL     1      34.971  27.676  49.764  0.00  0.00    +0.000 HD
ATOM      8  H   UNL     1      33.035  26.616  48.769  0.00  0.00    +0.000 HD
ATOM      9  H   UNL     1      31.874  27.615  46.945  0.00  0.00    +0.000 HD
ENDROOT
BRANCH   1  14
ATOM     10  C   UNL     1      37.566  30.192  50.756  0.00  0.00    +0.000 A 
ATOM     11  C   UNL     1      38.230  31.213  50.069  0.00  0.00    +0.000 A 
ATOM     12  C   UNL     1      37.748  31.592  48.824  0.00  0.00    +0.000 A 
ATOM     13  N   UNL     1      36.659  30.946  48.351  0.00  0.00    +0.000 NA
ATOM     14  C   UNL     1      36.026  29.976  49.001  0.00  0.00    +0.000 A 
ATOM     15  N   UNL     1      36.509  29.615  50.218  0.00  0.00    +0.000 NA
ATOM     16  H   UNL     1      39.092  31.663  50.541  0.00  0.00    +0.000 HD
ATOM     17  H   UNL     1      38.258  32.386  48.281  0.00  0.00    +0.000 HD
BRANCH  10  18
ATOM     18  N   UNL     1      37.975  29.719  52.046  0.00  0.00    +0.000 N 
ATOM     19  H   UNL     1      37.607  29.898  53.002  0.00  0.00    +0.000 HD
ATOM     20  H   UNL     1      38.776  29.124  51.738  0.00  0.00    +0.000 HD
ENDBRANCH  10  18
ENDBRANCH   1  14
BRANCH   5  22
ATOM     21  C   UNL     1      32.782  29.838  44.369  0.00  0.00    +0.000 A 
ATOM     22  C   UNL     1      32.459  30.012  45.693  0.00  0.00    +0.000 A 
ATOM     23  C   UNL     1      31.366  30.823  45.871  0.00  0.00    +0.000 A 
ATOM     24  H   UNL     1      30.971  31.068  46.838  0.00  0.00    +0.000 HD
ATOM     25  C   UNL     1      30.664  31.403  44.840  0.00  0.00    +0.000 A 
ATOM     26  H   UNL     1      29.810  32.037  44.996  0.00  0.00    +0.000 HD
ATOM     27  C   UNL     1      31.033  31.193  43.532  0.00  0.00    +0.000 A 
ATOM     28  C   UNL     1      32.122  30.388  43.301  0.00  0.00    +0.000 A 
BRANCH  21  30
ATOM     29  N   UNL     1      35.091  28.586  44.129  0.00  0.00    +0.000 NA
ATOM     30  C   UNL     1      33.919  29.035  43.979  0.00  0.00    +0.000 C 
ATOM     31  N   UNL     1      33.887  28.225  42.785  0.00  0.00    +0.000 N 
ATOM     32  H   UNL     1      35.444  27.923  43.410  0.00  0.00    +0.000 HD
ATOM     33  H   UNL     1      33.852  27.367  42.205  0.00  0.00    +0.000 HD
ATOM     34  H   UNL     1      33.902  28.648  41.826  0.00  0.00    +0.000 HD
ENDBRANCH  21  30
ENDBRANCH   5  22
TORSDOF 4
