
 OpenBabel03272503233D

 35 37  0  0  1  0  0  0  0  0999 V2000
   36.4520   29.7720   48.6050 N   0  0  0  0  0  0  0  0  0  0  0  0
   37.7020   30.2900   48.9510 C   0  0  2  0  0  0  0  0  0  0  0  0
   37.8530   29.9380   50.4250 C   0  0  0  0  0  0  0  0  0  0  0  0
   36.5680   29.2760   50.8180 C   0  0  0  0  0  0  0  0  0  0  0  0
   36.2090   28.6310   49.5110 C   0  0  0  0  0  0  0  0  0  0  0  0
   38.4300   29.4920   48.4740 H   0  0  0  0  0  0  0  0  0  0  0  0
   38.6630   29.2110   50.6250 H   0  0  0  0  0  0  0  0  0  0  0  0
   38.1100   30.8130   51.0420 H   0  0  0  0  0  0  0  0  0  0  0  0
   36.7430   28.4560   51.5760 H   0  0  0  0  0  0  0  0  0  0  0  0
   35.7750   29.9380   51.1900 H   0  0  0  0  0  0  0  0  0  0  0  0
   36.9660   27.8440   49.3070 H   0  0  0  0  0  0  0  0  0  0  0  0
   35.1830   28.2780   49.4530 H   0  0  0  0  0  0  0  0  0  0  0  0
   35.5320   30.1110   47.5970 C   0  0  0  0  0  0  0  0  0  0  0  0
   35.9940   29.9680   46.3040 C   0  0  0  0  0  0  0  0  0  0  0  0
   35.1870   30.2290   45.2030 C   0  0  0  0  0  0  0  0  0  0  0  0
   33.9100   30.6340   45.4980 N   0  0  0  0  0  0  0  0  0  0  0  0
   33.4720   30.7680   46.7570 C   0  0  0  0  0  0  0  0  0  0  0  0
   34.2860   30.5060   47.8200 N   0  0  0  0  0  0  0  0  0  0  0  0
   36.9130   29.6710   45.8580 H   0  0  0  0  0  0  0  0  0  0  0  0
   35.3680   30.1760   44.1540 H   0  0  0  0  0  0  0  0  0  0  0  0
   32.4450   31.0940   46.9410 H   0  0  0  0  0  0  0  0  0  0  0  0
   38.9450   31.8870   47.4080 C   0  0  0  0  0  0  0  0  0  0  0  0
   38.2710   31.5360   48.5870 C   0  0  0  0  0  0  0  0  0  0  0  0
   38.2160   32.6590   49.4320 C   0  0  0  0  0  0  0  0  0  0  0  0
   37.7150   32.5430   50.4060 H   0  0  0  0  0  0  0  0  0  0  0  0
   38.7210   33.8850   49.1720 C   0  0  0  0  0  0  0  0  0  0  0  0
   38.6330   34.6920   49.8820 H   0  0  0  0  0  0  0  0  0  0  0  0
   39.3620   34.1130   47.9810 C   0  0  0  0  0  3  0  0  0  0  0  0
   39.4820   33.1090   47.0760 C   0  0  0  0  0  3  0  0  0  0  0  0
   39.4230   29.7060   45.9860 N   0  0  0  0  0  0  0  0  0  0  0  0
   39.1300   30.8580   46.4090 C   0  0  0  0  0  0  0  0  0  0  0  0
   38.8650   31.1600   45.0200 N   0  0  0  0  0  0  0  0  0  0  0  0
   39.3430   29.5410   44.9540 H   0  0  0  0  0  0  0  0  0  0  0  0
   39.5120   31.8070   44.4790 H   0  0  0  0  0  0  0  0  0  0  0  0
   38.3680   31.1330   44.1010 H   0  0  0  0  0  0  0  0  0  0  0  0
  1  2  1  0  0  0  0
  1  5  1  0  0  0  0
  2  6  1  6  0  0  0
  2  3  1  0  0  0  0
  3  7  1  0  0  0  0
  3  4  1  0  0  0  0
  3  8  1  0  0  0  0
  4 10  1  0  0  0  0
  4  9  1  0  0  0  0
  5  4  1  0  0  0  0
 11  5  1  0  0  0  0
 12  5  1  0  0  0  0
 13 18  1  0  0  0  0
 13  1  1  0  0  0  0
 14 13  2  0  0  0  0
 15 16  2  0  0  0  0
 15 14  1  0  0  0  0
 16 17  1  0  0  0  0
 17 21  1  0  0  0  0
 17 18  2  0  0  0  0
 19 14  1  0  0  0  0
 20 15  1  0  0  0  0
 22 23  1  0  0  0  0
 23  2  1  0  0  0  0
 23 24  2  0  0  0  0
 24 25  1  0  0  0  0
 26 24  1  0  0  0  0
 26 27  1  0  0  0  0
 28 26  2  0  0  0  0
 29 22  2  0  0  0  0
 29 28  1  0  0  0  0
 30 31  2  0  0  0  0
 31 22  1  0  0  0  0
 32 31  1  0  0  0  0
 33 30  1  0  0  0  0
 34 32  1  0  0  0  0
 35 32  1  0  0  0  0
M  END
>  <minimizedAffinity>
-4.61048508

>  <minimizedRMSD>
2.0233624

$$$$
