
     RDKit          3D

 41 43  0  0  0  0  0  0  0  0999 V2000
   38.8313   32.2559   47.2897 C   0  0  0  0  0  0  0  0  0  0  0  0
   38.0661   31.3362   48.1650 C   0  0  0  0  0  0  0  0  0  0  0  0
   36.9703   30.6506   47.6642 C   0  0  0  0  0  0  0  0  0  0  0  0
   36.4522   29.8779   48.6768 C   0  0  0  0  0  0  0  0  0  0  0  0
   37.2249   30.1022   49.7517 N   0  0  0  0  0  0  0  0  0  0  0  0
   38.1637   30.9616   49.4226 N   0  0  0  0  0  0  0  0  0  0  0  0
   37.0851   29.5128   51.0885 C   0  0  0  0  0  0  0  0  0  0  0  0
   37.8600   28.3894   51.1963 F   0  0  0  0  0  0  0  0  0  0  0  0
   35.7688   29.1919   51.3746 F   0  0  0  0  0  0  0  0  0  0  0  0
   37.5185   30.4087   52.0527 F   0  0  0  0  0  0  0  0  0  0  0  0
   39.8448   31.6184   46.4483 C   0  0  0  0  0  0  0  0  0  0  0  0
   39.8099   31.7679   45.0219 C   0  0  0  0  0  0  0  0  0  0  0  0
   39.2492   32.8643   44.4531 C   0  0  0  0  0  0  0  0  0  0  0  0
   39.2061   33.0278   43.0652 C   0  0  0  0  0  0  0  0  0  0  0  0
   39.7687   32.0046   42.3411 N   0  0  0  0  0  0  0  0  0  0  0  0
   40.3204   30.9257   42.9069 C   0  0  0  0  0  0  0  0  0  0  0  0
   40.3201   30.8471   44.2445 N   0  0  0  0  0  0  0  0  0  0  0  0
   38.1204   32.8401   46.6716 H   0  0  0  0  0  0  0  0  0  0  0  0
   39.2721   33.0204   47.9951 H   0  0  0  0  0  0  0  0  0  0  0  0
   36.5050   30.6366   46.6797 H   0  0  0  0  0  0  0  0  0  0  0  0
   35.5976   29.2145   48.6450 H   0  0  0  0  0  0  0  0  0  0  0  0
   40.8672   31.9507   46.7995 H   0  0  0  0  0  0  0  0  0  0  0  0
   39.8366   30.5193   46.7106 H   0  0  0  0  0  0  0  0  0  0  0  0
   38.7947   33.6984   44.9680 H   0  0  0  0  0  0  0  0  0  0  0  0
   38.7776   33.8693   42.5654 H   0  0  0  0  0  0  0  0  0  0  0  0
   39.3928   30.2292   38.9317 N   0  0  0  0  0  0  0  0  0  0  0  0
   39.3399   30.0878   40.2383 C   0  0  0  0  0  0  0  0  0  0  0  0
   38.0525   30.6614   40.3322 N   0  0  0  0  0  0  0  0  0  0  0  0
   40.4339   29.4816   40.9644 C   0  0  0  0  0  0  0  0  0  0  0  0
   40.9315   29.8062   42.2000 C   0  0  0  0  0  0  0  0  0  0  0  0
   41.9796   29.0797   42.7305 C   0  0  0  0  0  0  0  0  0  0  0  0
   42.3701   29.3287   43.6926 H   0  0  0  0  0  0  0  0  0  0  0  0
   42.4762   28.0462   41.9686 C   0  0  0  0  0  0  0  0  0  0  0  0
   43.2935   27.5101   42.4283 H   0  0  0  0  0  0  0  0  0  0  0  0
   42.0261   27.6614   40.7160 C   0  0  0  0  0  0  0  0  0  0  0  0
   40.9812   28.4181   40.2349 C   0  0  0  0  0  0  0  0  0  0  0  0
   38.5973   30.6548   38.4299 H   0  0  0  0  0  0  0  0  0  0  0  0
   37.2396   30.0123   40.5457 H   0  0  0  0  0  0  0  0  0  0  0  0
   37.7238   31.6415   40.2292 H   0  0  0  0  0  0  0  0  0  0  0  0
   42.4734   26.8343   40.1820 H   0  0  0  0  0  0  0  0  0  0  0  0
   40.6516   28.0857   39.2431 H   0  0  0  0  0  0  0  0  0  0  0  0
  1  2  1  0
  2  6  2  0
  3  2  1  0
  3  4  2  0
  4  5  1  0
  5  7  1  0
  6  5  1  0
  7  8  1  0
  7  9  1  0
  7 10  1  0
 11  1  1  0
 12 11  1  0
 13 12  2  0
 14 13  1  0
 15 16  1  0
 15 14  2  0
 16 17  2  0
 17 12  1  0
  1 18  1  0
  1 19  1  0
  3 20  1  0
  4 21  1  0
 11 22  1  0
 11 23  1  0
 13 24  1  0
 14 25  1  0
 26 27  2  3
 27 28  1  0
 27 29  1  0
 29 30  2  0
 30 31  1  0
 31 32  1  0
 31 33  2  0
 33 34  1  0
 33 35  1  0
 35 36  2  0
 36 29  1  0
 26 37  1  0
 28 38  1  0
 28 39  1  0
 35 40  1  0
 36 41  1  0
 16 30  1  0
M  ISO  8  18   8  19   8  20  14  21  14  22   8  23   8  24  14  25  14
M  ISO  2  32  15  34  16
M  END
>  <DihAtoms>  (1) 
14,15,29,28

>  <DihDeg>  (1) 
-0.9677245295899018

$$$$
