REMARK  Name = 
REMARK  2 active torsions:
REMARK  status: ('A' for Active; 'I' for Inactive)
REMARK    1  A    between atoms: C_11  and  C_26
REMARK    2  A    between atoms: C_23  and  C_25
REMARK                            x       y       z     vdW  Elec       q    Type
REMARK                         _______ _______ _______ _____ _____    ______ ____
ROOT
ATOM      1  C   UNL     1      38.087  33.134  49.513  0.00  0.00    +0.000 A 
ATOM      2  C   UNL     1      38.931  33.072  48.399  0.00  0.00    +0.000 A 
ATOM      3  C   UNL     1      38.705  32.057  47.436  0.00  0.00    +0.000 A 
ATOM      4  N   UNL     1      37.680  31.204  47.653  0.00  0.00    +0.000 NA
ATOM      5  C   UNL     1      36.888  31.285  48.726  0.00  0.00    +0.000 A 
ATOM      6  N   UNL     1      37.097  32.243  49.639  0.00  0.00    +0.000 NA
ATOM      7  N   UNL     1      35.831  30.337  48.892  0.00  0.00    +0.000 N 
ATOM      8  C   UNL     1      34.769  30.145  47.916  0.00  0.00    +0.000 C 
ATOM      9  C   UNL     1      33.986  28.994  48.410  0.00  0.00    +0.000 C 
ATOM     10  C   UNL     1      34.877  28.318  49.442  0.00  0.00    +0.000 C 
ATOM     11  C   UNL     1      35.650  29.452  50.013  0.00  0.00    +0.000 C 
ATOM     12  H   UNL     1      38.214  33.894  50.285  0.00  0.00    +0.000 HD
ATOM     13  H   UNL     1      39.719  33.785  48.304  0.00  0.00    +0.000 HD
ATOM     14  H   UNL     1      39.354  32.001  46.570  0.00  0.00    +0.000 HD
ATOM     15  H   UNL     1      34.197  31.070  47.736  0.00  0.00    +0.000 HD
ATOM     16  H   UNL     1      35.273  29.842  46.954  0.00  0.00    +0.000 HD
ATOM     17  H   UNL     1      33.098  29.393  48.946  0.00  0.00    +0.000 HD
ATOM     18  H   UNL     1      33.647  28.274  47.644  0.00  0.00    +0.000 HD
ATOM     19  H   UNL     1      35.493  27.532  48.969  0.00  0.00    +0.000 HD
ATOM     20  H   UNL     1      34.196  27.868  50.193  0.00  0.00    +0.000 HD
ATOM     21  H   UNL     1      34.959  29.989  50.708  0.00  0.00    +0.000 HD
ENDROOT
BRANCH  11  23
ATOM     22  C   UNL     1      37.561  29.996  51.393  0.00  0.00    +0.000 A 
ATOM     23  C   UNL     1      36.882  29.021  50.680  0.00  0.00    +0.000 A 
ATOM     24  C   UNL     1      37.428  27.778  50.684  0.00  0.00    +0.000 A 
ATOM     25  H   UNL     1      36.932  27.007  50.152  0.00  0.00    +0.000 HD
ATOM     26  C   UNL     1      38.592  27.462  51.349  0.00  0.00    +0.000 A 
ATOM     27  H   UNL     1      38.987  26.449  51.320  0.00  0.00    +0.000 HD
ATOM     28  C   UNL     1      39.266  28.432  52.057  0.00  0.00    +0.000 A 
ATOM     29  C   UNL     1      38.728  29.702  52.066  0.00  0.00    +0.000 A 
BRANCH  22  31
ATOM     30  N   UNL     1      38.043  32.380  51.702  0.00  0.00    +0.000 NA
ATOM     31  C   UNL     1      37.189  31.396  51.544  0.00  0.00    +0.000 C 
ATOM     32  N   UNL     1      35.975  32.135  51.577  0.00  0.00    +0.000 N 
ATOM     33  H   UNL     1      37.620  33.326  51.796  0.00  0.00    +0.000 HD
ATOM     34  H   UNL     1      35.577  32.732  50.828  0.00  0.00    +0.000 HD
ATOM     35  H   UNL     1      35.571  31.949  52.518  0.00  0.00    +0.000 HD
ENDBRANCH  22  31
ENDBRANCH  11  23
TORSDOF 2
