
 OpenBabel03272509133D

 45 48  0  0  1  0  0  0  0  0999 V2000
   36.0310   30.7460   46.2790 N   0  0  0  0  0  0  0  0  0  0  0  0
   37.1900   31.6120   46.6150 C   0  0  0  0  0  0  0  0  0  0  0  0
   38.1150   30.6170   47.3000 C   0  0  0  0  0  0  0  0  0  0  0  0
   37.1720   29.7000   48.0390 C   0  0  0  0  0  0  0  0  0  0  0  0
   35.7900   30.0890   47.5610 C   0  0  2  0  0  0  0  0  0  0  0  0
   36.8360   32.4030   47.2780 H   0  0  0  0  0  0  0  0  0  0  0  0
   37.6150   32.0440   45.7010 H   0  0  0  0  0  0  0  0  0  0  0  0
   38.7430   31.1170   48.0660 H   0  0  0  0  0  0  0  0  0  0  0  0
   38.7140   30.0860   46.5320 H   0  0  0  0  0  0  0  0  0  0  0  0
   37.2630   29.7900   49.1380 H   0  0  0  0  0  0  0  0  0  0  0  0
   37.4050   28.6270   47.7890 H   0  0  0  0  0  0  0  0  0  0  0  0
   35.4050   30.8600   48.2480 H   0  0  0  0  0  0  0  0  0  0  0  0
   33.8440   30.6630   45.3180 C   0  0  0  0  0  0  0  0  0  0  0  0
   35.2420   30.4710   45.1330 C   0  0  0  0  0  0  0  0  0  0  0  0
   35.6720   30.0050   43.8870 C   0  0  0  0  0  0  0  0  0  0  0  0
   34.7470   29.7560   42.9200 N   0  0  0  0  0  0  0  0  0  0  0  0
   33.4280   29.9500   43.1430 C   0  0  0  0  0  0  0  0  0  0  0  0
   32.9830   30.3970   44.3220 N   0  0  0  0  0  0  0  0  0  0  0  0
   33.4180   31.0250   46.2410 H   0  0  0  0  0  0  0  0  0  0  0  0
   32.6640   29.7580   42.3910 H   0  0  0  0  0  0  0  0  0  0  0  0
   37.0650   29.8050   43.5930 C   0  0  0  0  0  0  0  0  0  0  0  0
   37.8350   30.8920   43.2430 C   0  0  0  0  0  0  0  0  0  0  0  0
   39.1790   30.8120   42.9460 C   0  0  0  0  0  0  0  0  0  0  0  0
   39.7420   29.5470   43.0160 C   0  0  0  0  0  0  0  0  0  0  0  0
   39.0340   28.4040   43.3610 C   0  0  0  0  0  0  0  0  0  0  0  0
   37.6700   28.5760   43.6490 C   0  0  0  0  0  0  0  0  0  0  0  0
   37.3820   31.8860   43.1890 H   0  0  0  0  0  0  0  0  0  0  0  0
   39.7760   31.6710   42.6710 H   0  0  0  0  0  0  0  0  0  0  0  0
   40.7910   29.3960   42.7980 H   0  0  0  0  0  0  0  0  0  0  0  0
   39.5020   27.4300   43.4080 H   0  0  0  0  0  0  0  0  0  0  0  0
   37.0820   27.7140   43.9220 H   0  0  0  0  0  0  0  0  0  0  0  0
   34.2570   28.5260   48.6740 C   0  0  0  0  0  0  0  0  0  0  0  0
   34.8950   28.9190   47.4900 C   0  0  0  0  0  0  0  0  0  0  0  0
   34.6170   28.1430   46.3980 C   0  0  0  0  0  0  0  0  0  0  0  0
   35.0910   28.4100   45.4780 H   0  0  0  0  0  0  0  0  0  0  0  0
   33.7780   27.0500   46.4220 C   0  0  0  0  0  0  0  0  0  0  0  0
   33.6060   26.4800   45.5080 H   0  0  0  0  0  0  0  0  0  0  0  0
   33.1610   26.6810   47.5980 C   0  0  0  0  0  3  0  0  0  0  0  0
   33.4160   27.4370   48.7220 C   0  0  0  0  0  3  0  0  0  0  0  0
   33.5070   29.9830   50.4570 N   0  0  0  0  0  0  0  0  0  0  0  0
   34.4000   29.1910   49.9610 C   0  0  0  0  0  0  0  0  0  0  0  0
   35.3340   29.2630   51.0010 N   0  0  0  0  0  0  0  0  0  0  0  0
   33.6380   30.4320   51.3660 H   0  0  0  0  0  0  0  0  0  0  0  0
   35.2210   28.3310   51.4960 H   0  0  0  0  0  0  0  0  0  0  0  0
   35.9830   30.0440   51.2360 H   0  0  0  0  0  0  0  0  0  0  0  0
  1  2  1  0  0  0  0
  1  5  1  0  0  0  0
  2  6  1  0  0  0  0
  2  3  1  0  0  0  0
  3  4  1  0  0  0  0
  3  8  1  0  0  0  0
  4 10  1  0  0  0  0
  5  4  1  0  0  0  0
  5 12  1  1  0  0  0
  7  2  1  0  0  0  0
  9  3  1  0  0  0  0
 11  4  1  0  0  0  0
 13 19  1  0  0  0  0
 14 13  1  0  0  0  0
 14  1  1  0  0  0  0
 15 14  2  0  0  0  0
 16 17  2  0  0  0  0
 16 15  1  0  0  0  0
 17 18  1  0  0  0  0
 18 13  2  0  0  0  0
 20 17  1  0  0  0  0
 21 26  1  0  0  0  0
 21 15  1  0  0  0  0
 22 21  2  0  0  0  0
 23 24  2  0  0  0  0
 23 22  1  0  0  0  0
 24 25  1  0  0  0  0
 25 30  1  0  0  0  0
 25 26  2  0  0  0  0
 26 31  1  0  0  0  0
 27 22  1  0  0  0  0
 28 23  1  0  0  0  0
 29 24  1  0  0  0  0
 32 39  1  0  0  0  0
 32 41  1  0  0  0  0
 33  5  1  0  0  0  0
 33 32  2  0  0  0  0
 34 36  2  0  0  0  0
 34 33  1  0  0  0  0
 35 34  1  0  0  0  0
 36 38  1  0  0  0  0
 37 36  1  0  0  0  0
 38 39  2  0  0  0  0
 40 43  1  0  0  0  0
 41 40  2  0  0  0  0
 41 42  1  0  0  0  0
 42 45  1  0  0  0  0
 42 44  1  0  0  0  0
M  END
>  <minimizedAffinity>
-3.54171395

>  <minimizedRMSD>
2.86128473

$$$$
