REMARK  Name = 
REMARK  4 active torsions:
REMARK  status: ('A' for Active; 'I' for Inactive)
REMARK    1  A    between atoms: C_1  and  C_16
REMARK    2  A    between atoms: C_3  and  C_4
REMARK    3  A    between atoms: C_18  and  C_37
REMARK    4  A    between atoms: C_34  and  C_36
REMARK                            x       y       z     vdW  Elec       q    Type
REMARK                         _______ _______ _______ _____ _____    ______ ____
ROOT
ATOM      1  C   UNL     1      37.546  32.045  48.501  0.00  0.00    +0.000 C 
ATOM      2  C   UNL     1      38.755  32.813  48.822  0.00  0.00    +0.000 C 
ATOM      3  C   UNL     1      38.925  31.645  47.917  0.00  0.00    +0.000 C 
ATOM      4  H   UNL     1      36.876  32.362  47.726  0.00  0.00    +0.000 HD
ATOM      5  H   UNL     1      39.104  32.711  49.895  0.00  0.00    +0.000 HD
ATOM      6  H   UNL     1      38.648  33.868  48.537  0.00  0.00    +0.000 HD
ATOM      7  H   UNL     1      39.072  30.587  48.056  0.00  0.00    +0.000 HD
ENDROOT
BRANCH   3   8
ATOM      8  C   UNL     1      39.290  32.100  46.547  0.00  0.00    +0.000 A 
ATOM      9  C   UNL     1      39.744  33.420  46.582  0.00  0.00    +0.000 A 
ATOM     10  C   UNL     1      40.220  34.040  45.446  0.00  0.00    +0.000 A 
ATOM     11  C   UNL     1      40.261  33.360  44.231  0.00  0.00    +0.000 A 
ATOM     12  C   UNL     1      39.810  32.060  44.222  0.00  0.00    +0.000 A 
ATOM     13  C   UNL     1      39.783  31.275  43.088  0.00  0.00    +0.000 A 
ATOM     14  C   UNL     1      39.322  29.972  43.067  0.00  0.00    +0.000 A 
ATOM     15  C   UNL     1      38.857  29.408  44.244  0.00  0.00    +0.000 A 
ATOM     16  C   UNL     1      38.878  30.180  45.382  0.00  0.00    +0.000 A 
ATOM     17  C   UNL     1      39.344  31.469  45.357  0.00  0.00    +0.000 A 
ATOM     18  H   UNL     1      39.872  34.194  47.312  0.00  0.00    +0.000 HD
ATOM     19  H   UNL     1      40.603  35.039  45.296  0.00  0.00    +0.000 HD
ATOM     20  H   UNL     1      40.600  33.692  43.250  0.00  0.00    +0.000 HD
ATOM     21  H   UNL     1      40.143  31.693  42.147  0.00  0.00    +0.000 HD
ATOM     22  H   UNL     1      39.333  29.418  42.132  0.00  0.00    +0.000 HD
ATOM     23  H   UNL     1      38.491  28.409  44.284  0.00  0.00    +0.000 HD
ATOM     24  H   UNL     1      38.504  29.714  46.311  0.00  0.00    +0.000 HD
ENDBRANCH   3   8
BRANCH   1  27
ATOM     25  C   UNL     1      35.268  29.610  50.201  0.00  0.00    +0.000 A 
ATOM     26  C   UNL     1      35.791  30.506  49.245  0.00  0.00    +0.000 A 
ATOM     27  C   UNL     1      37.039  31.076  49.501  0.00  0.00    +0.000 A 
ATOM     28  N   UNL     1      37.700  30.747  50.651  0.00  0.00    +0.000 NA
ATOM     29  C   UNL     1      37.176  29.890  51.545  0.00  0.00    +0.000 A 
ATOM     30  N   UNL     1      35.941  29.314  51.315  0.00  0.00    +0.000 NA
ATOM     31  H   UNL     1      34.300  29.181  49.982  0.00  0.00    +0.000 HD
ATOM     32  H   UNL     1      35.224  30.727  48.352  0.00  0.00    +0.000 HD
BRANCH  29  34
ATOM     33  C   UNL     1      38.911  28.674  52.934  0.00  0.00    +0.000 A 
ATOM     34  C   UNL     1      37.775  29.412  52.774  0.00  0.00    +0.000 A 
ATOM     35  C   UNL     1      37.175  29.664  54.012  0.00  0.00    +0.000 A 
ATOM     36  H   UNL     1      36.242  30.250  54.060  0.00  0.00    +0.000 HD
ATOM     37  C   UNL     1      37.644  29.244  55.214  0.00  0.00    +0.000 A 
ATOM     38  H   UNL     1      37.131  29.475  56.133  0.00  0.00    +0.000 HD
ATOM     39  C   UNL     1      38.786  28.512  55.294  0.00  0.00    +0.000 A 
ATOM     40  C   UNL     1      39.436  28.219  54.122  0.00  0.00    +0.000 A 
BRANCH  33  42
ATOM     41  N   UNL     1      40.308  27.096  51.798  0.00  0.00    +0.000 NA
ATOM     42  C   UNL     1      39.677  28.256  51.781  0.00  0.00    +0.000 C 
ATOM     43  N   UNL     1      40.163  28.471  50.486  0.00  0.00    +0.000 N 
ATOM     44  H   UNL     1      40.849  26.837  50.945  0.00  0.00    +0.000 HD
ATOM     45  H   UNL     1      41.063  28.982  50.238  0.00  0.00    +0.000 HD
ATOM     46  H   UNL     1      39.706  28.160  49.579  0.00  0.00    +0.000 HD
ENDBRANCH  33  42
ENDBRANCH  29  34
ENDBRANCH   1  27
TORSDOF 4
