REMARK  Name = 
REMARK  4 active torsions:
REMARK  status: ('A' for Active; 'I' for Inactive)
REMARK    1  A    between atoms: N_1  and  C_7
REMARK    2  A    between atoms: C_3  and  C_15
REMARK    3  A    between atoms: C_19  and  C_38
REMARK    4  A    between atoms: C_35  and  C_37
REMARK                            x       y       z     vdW  Elec       q    Type
REMARK                         _______ _______ _______ _____ _____    ______ ____
ROOT
ATOM      1 CL   UNL     1      38.252  32.719  48.445  0.00  0.00    +0.000 Cl
ATOM      2  C   UNL     1      37.667  31.293  49.302  0.00  0.00    +0.000 A 
ATOM      3  C   UNL     1      36.770  30.488  48.654  0.00  0.00    +0.000 A 
ATOM      4  C   UNL     1      36.210  29.328  49.212  0.00  0.00    +0.000 A 
ATOM      5  C   UNL     1      36.631  29.017  50.513  0.00  0.00    +0.000 A 
ATOM      6  C   UNL     1      37.547  29.829  51.180  0.00  0.00    +0.000 A 
ATOM      7  C   UNL     1      38.057  30.964  50.563  0.00  0.00    +0.000 A 
ATOM      8  H   UNL     1      35.521  28.561  48.955  0.00  0.00    +0.000 HD
ATOM      9  H   UNL     1      36.356  28.203  51.141  0.00  0.00    +0.000 HD
ATOM     10  H   UNL     1      37.934  29.678  52.177  0.00  0.00    +0.000 HD
ENDROOT
BRANCH   3  13
ATOM     11  N   UNL     1      34.628  30.051  45.659  0.00  0.00    +0.000 N 
ATOM     12  C   UNL     1      35.035  30.071  47.061  0.00  0.00    +0.000 C 
ATOM     13  C   UNL     1      36.269  30.809  47.328  0.00  0.00    +0.000 C 
ATOM     14  N   UNL     1      37.328  30.497  46.330  0.00  0.00    +0.000 NA
ATOM     15  C   UNL     1      36.755  30.773  44.995  0.00  0.00    +0.000 C 
ATOM     16  C   UNL     1      35.726  29.676  44.838  0.00  0.00    +0.000 C 
ATOM     17  H   UNL     1      34.188  30.391  47.662  0.00  0.00    +0.000 HD
ATOM     18  H   UNL     1      35.287  28.963  47.199  0.00  0.00    +0.000 HD
ATOM     19  H   UNL     1      36.216  31.904  47.197  0.00  0.00    +0.000 HD
ATOM     20  H   UNL     1      38.089  31.164  46.445  0.00  0.00    +0.000 HD
ATOM     21  H   UNL     1      37.531  30.784  44.231  0.00  0.00    +0.000 HD
ATOM     22  H   UNL     1      36.256  31.771  44.983  0.00  0.00    +0.000 HD
ATOM     23  H   UNL     1      36.208  28.723  45.152  0.00  0.00    +0.000 HD
ATOM     24  H   UNL     1      35.449  29.638  43.768  0.00  0.00    +0.000 HD
BRANCH  11  25
ATOM     25  C   UNL     1      33.309  30.354  45.239  0.00  0.00    +0.000 A 
ATOM     26  C   UNL     1      33.048  31.068  44.069  0.00  0.00    +0.000 A 
ATOM     27  C   UNL     1      31.724  31.319  43.726  0.00  0.00    +0.000 A 
ATOM     28  N   UNL     1      30.730  30.844  44.569  0.00  0.00    +0.000 NA
ATOM     29  C   UNL     1      31.040  30.158  45.690  0.00  0.00    +0.000 A 
ATOM     30  N   UNL     1      32.293  29.912  46.029  0.00  0.00    +0.000 NA
ATOM     31  H   UNL     1      33.870  31.408  43.460  0.00  0.00    +0.000 HD
ATOM     32  H   UNL     1      31.498  31.864  42.834  0.00  0.00    +0.000 HD
ATOM     33  H   UNL     1      30.234  29.809  46.315  0.00  0.00    +0.000 HD
ENDBRANCH  11  25
ENDBRANCH   3  13
BRANCH   7  35
ATOM     34  C   UNL     1      38.640  33.174  51.380  0.00  0.00    +0.000 A 
ATOM     35  C   UNL     1      39.015  31.854  51.203  0.00  0.00    +0.000 A 
ATOM     36  C   UNL     1      40.279  31.448  51.643  0.00  0.00    +0.000 A 
ATOM     37  H   UNL     1      40.534  30.404  51.485  0.00  0.00    +0.000 HD
ATOM     38  C   UNL     1      41.144  32.359  52.248  0.00  0.00    +0.000 A 
ATOM     39  H   UNL     1      42.108  32.027  52.578  0.00  0.00    +0.000 HD
ATOM     40  C   UNL     1      40.727  33.669  52.405  0.00  0.00    +0.000 A 
ATOM     41  C   UNL     1      39.475  34.114  51.980  0.00  0.00    +0.000 A 
BRANCH  34  43
ATOM     42  N   UNL     1      36.697  33.161  49.923  0.00  0.00    +0.000 NA
ATOM     43  C   UNL     1      37.338  33.669  50.947  0.00  0.00    +0.000 C 
ATOM     44  N   UNL     1      36.656  34.737  51.593  0.00  0.00    +0.000 N 
ATOM     45  H   UNL     1      35.770  33.624  49.735  0.00  0.00    +0.000 HD
ATOM     46  H   UNL     1      35.874  35.055  52.181  0.00  0.00    +0.000 HD
ATOM     47  H   UNL     1      37.299  35.525  51.288  0.00  0.00    +0.000 HD
ENDBRANCH  34  43
ENDBRANCH   7  35
TORSDOF 4
