
 OpenBabel03272503233D

 35 37  0  0  1  0  0  0  0  0999 V2000
   36.7730   29.9290   48.6640 N   0  0  0  0  0  0  0  0  0  0  0  0
   37.9660   30.5290   49.0740 C   0  0  2  0  0  0  0  0  0  0  0  0
   37.9930   30.3040   50.5790 C   0  0  0  0  0  0  0  0  0  0  0  0
   36.7020   29.6190   50.9120 C   0  0  0  0  0  0  0  0  0  0  0  0
   36.4900   28.8550   49.6370 C   0  0  0  0  0  0  0  0  0  0  0  0
   38.7630   29.7290   48.7320 H   0  0  0  0  0  0  0  0  0  0  0  0
   38.8080   29.6320   50.9110 H   0  0  0  0  0  0  0  0  0  0  0  0
   38.1590   31.2370   51.1410 H   0  0  0  0  0  0  0  0  0  0  0  0
   36.8380   28.8720   51.7480 H   0  0  0  0  0  0  0  0  0  0  0  0
   35.8550   30.2730   51.1550 H   0  0  0  0  0  0  0  0  0  0  0  0
   37.2910   28.0890   49.5680 H   0  0  0  0  0  0  0  0  0  0  0  0
   35.4870   28.4530   49.5190 H   0  0  0  0  0  0  0  0  0  0  0  0
   35.9370   30.1440   47.5530 C   0  0  0  0  0  0  0  0  0  0  0  0
   34.5930   30.2680   47.8420 C   0  0  0  0  0  0  0  0  0  0  0  0
   33.6490   30.5190   46.8530 C   0  0  0  0  0  0  0  0  0  0  0  0
   34.1530   30.6360   45.5820 N   0  0  0  0  0  0  0  0  0  0  0  0
   35.4590   30.5150   45.3140 C   0  0  0  0  0  0  0  0  0  0  0  0
   36.3640   30.2660   46.3040 N   0  0  0  0  0  0  0  0  0  0  0  0
   34.0020   30.2220   48.7260 H   0  0  0  0  0  0  0  0  0  0  0  0
   32.5910   30.6420   46.8870 H   0  0  0  0  0  0  0  0  0  0  0  0
   35.8120   30.6160   44.2840 H   0  0  0  0  0  0  0  0  0  0  0  0
   39.1150   32.0970   47.4330 C   0  0  0  0  0  0  0  0  0  0  0  0
   38.5190   31.7660   48.6580 C   0  0  0  0  0  0  0  0  0  0  0  0
   38.5300   32.8980   49.4930 C   0  0  0  0  0  0  0  0  0  0  0  0
   38.0950   32.7980   50.4980 H   0  0  0  0  0  0  0  0  0  0  0  0
   39.0270   34.1180   49.1840 C   0  0  0  0  0  0  0  0  0  0  0  0
   38.9930   34.9320   49.8900 H   0  0  0  0  0  0  0  0  0  0  0  0
   39.5880   34.3260   47.9500 C   0  0  0  0  0  3  0  0  0  0  0  0
   39.6390   33.3110   47.0520 C   0  0  0  0  0  3  0  0  0  0  0  0
   39.4500   29.8890   46.0130 N   0  0  0  0  0  0  0  0  0  0  0  0
   39.2240   31.0570   46.4360 C   0  0  0  0  0  0  0  0  0  0  0  0
   38.9400   31.3650   45.0510 N   0  0  0  0  0  0  0  0  0  0  0  0
   39.3360   29.7230   44.9820 H   0  0  0  0  0  0  0  0  0  0  0  0
   39.6040   31.9760   44.4910 H   0  0  0  0  0  0  0  0  0  0  0  0
   38.4190   31.3570   44.1470 H   0  0  0  0  0  0  0  0  0  0  0  0
  1  2  1  0  0  0  0
  1  5  1  0  0  0  0
  2  6  1  6  0  0  0
  2  3  1  0  0  0  0
  3  7  1  0  0  0  0
  3  4  1  0  0  0  0
  3  8  1  0  0  0  0
  4 10  1  0  0  0  0
  4  9  1  0  0  0  0
  5  4  1  0  0  0  0
 11  5  1  0  0  0  0
 12  5  1  0  0  0  0
 13 14  1  0  0  0  0
 13  1  1  0  0  0  0
 14 19  1  0  0  0  0
 15 20  1  0  0  0  0
 15 14  2  0  0  0  0
 16 15  1  0  0  0  0
 17 16  2  0  0  0  0
 17 18  1  0  0  0  0
 18 13  2  0  0  0  0
 21 17  1  0  0  0  0
 22 23  1  0  0  0  0
 23  2  1  0  0  0  0
 23 24  2  0  0  0  0
 24 25  1  0  0  0  0
 26 24  1  0  0  0  0
 26 27  1  0  0  0  0
 28 26  2  0  0  0  0
 29 22  2  0  0  0  0
 29 28  1  0  0  0  0
 30 31  2  0  0  0  0
 31 22  1  0  0  0  0
 32 31  1  0  0  0  0
 33 30  1  0  0  0  0
 34 32  1  0  0  0  0
 35 32  1  0  0  0  0
M  END
>  <minimizedAffinity>
-5.11226273

>  <minimizedRMSD>
2.52537274

$$$$
