REMARK  Name = 
REMARK  5 active torsions:
REMARK  status: ('A' for Active; 'I' for Inactive)
REMARK    1  A    between atoms: C_3  and  C_12
REMARK    2  A    between atoms: C_7  and  S_14
REMARK    3  A    between atoms: S_14  and  C_17
REMARK    4  A    between atoms: C_21  and  C_35
REMARK    5  A    between atoms: C_32  and  C_34
REMARK                            x       y       z     vdW  Elec       q    Type
REMARK                         _______ _______ _______ _____ _____    ______ ____
ROOT
ATOM      1 CL   UNL     1      33.755  29.172  44.468  0.00  0.00    +0.000 Cl
ATOM      2  C   UNL     1      33.783  27.953  45.729  0.00  0.00    +0.000 A 
ATOM      3  C   UNL     1      33.909  28.199  47.089  0.00  0.00    +0.000 A 
ATOM      4  C   UNL     1      33.916  27.154  47.970  0.00  0.00    +0.000 A 
ATOM      5  C   UNL     1      33.801  25.872  47.535  0.00  0.00    +0.000 A 
ATOM      6  C   UNL     1      33.671  25.562  46.185  0.00  0.00    +0.000 A 
ATOM      7  C   UNL     1      33.666  26.626  45.306  0.00  0.00    +0.000 A 
ATOM      8  H   UNL     1      34.019  27.460  49.004  0.00  0.00    +0.000 HD
ATOM      9  H   UNL     1      33.811  25.068  48.274  0.00  0.00    +0.000 HD
ATOM     10  H   UNL     1      33.583  24.538  45.876  0.00  0.00    +0.000 HD
ENDROOT
BRANCH   7  12
ATOM     11  C   UNL     1      34.501  25.689  43.102  0.00  0.00    +0.000 A 
ATOM     12  C   UNL     1      33.527  26.244  43.901  0.00  0.00    +0.000 A 
ATOM     13  C   UNL     1      32.268  26.487  43.366  0.00  0.00    +0.000 A 
ATOM     14  H   UNL     1      31.393  26.918  43.856  0.00  0.00    +0.000 HD
ATOM     15  C   UNL     1      32.010  26.169  42.043  0.00  0.00    +0.000 A 
ATOM     16  H   UNL     1      31.047  26.328  41.545  0.00  0.00    +0.000 HD
ATOM     17  C   UNL     1      32.970  25.611  41.223  0.00  0.00    +0.000 A 
ATOM     18  C   UNL     1      34.210  25.382  41.781  0.00  0.00    +0.000 A 
BRANCH  11  20
ATOM     19  N   UNL     1      35.850  25.211  44.985  0.00  0.00    +0.000 NA
ATOM     20  C   UNL     1      35.793  25.461  43.721  0.00  0.00    +0.000 C 
ATOM     21  N   UNL     1      36.928  25.535  42.855  0.00  0.00    +0.000 N 
ATOM     22  H   UNL     1      36.810  25.052  45.387  0.00  0.00    +0.000 HD
ATOM     23  H   UNL     1      36.858  24.593  42.383  0.00  0.00    +0.000 HD
ATOM     24  H   UNL     1      37.772  25.989  42.438  0.00  0.00    +0.000 HD
ENDBRANCH  11  20
ENDBRANCH   7  12
BRANCH   3  25
ATOM     25  S   UNL     1      34.050  29.936  47.501  0.00  0.00    +0.000 S 
BRANCH  25  32
ATOM     26 CL   UNL     1      36.394  30.904  45.701  0.00  0.00    +0.000 Cl
ATOM     27  C   UNL     1      36.684  30.759  47.403  0.00  0.00    +0.000 A 
ATOM     28  C   UNL     1      37.940  31.081  47.870  0.00  0.00    +0.000 A 
ATOM     29  C   UNL     1      38.175  30.966  49.232  0.00  0.00    +0.000 A 
ATOM     30  C   UNL     1      37.183  30.547  50.062  0.00  0.00    +0.000 A 
ATOM     31  C   UNL     1      35.930  30.235  49.531  0.00  0.00    +0.000 A 
ATOM     32  C   UNL     1      35.629  30.325  48.201  0.00  0.00    +0.000 A 
ATOM     33  H   UNL     1      39.163  31.219  49.599  0.00  0.00    +0.000 HD
ATOM     34  H   UNL     1      37.392  30.465  51.123  0.00  0.00    +0.000 HD
ATOM     35  H   UNL     1      35.156  29.903  50.217  0.00  0.00    +0.000 HD
BRANCH  28  40
ATOM     36  C   UNL     1      40.199  33.314  46.083  0.00  0.00    +0.000 A 
ATOM     37  C   UNL     1      40.910  32.464  45.213  0.00  0.00    +0.000 A 
ATOM     38  C   UNL     1      40.593  31.096  45.257  0.00  0.00    +0.000 A 
ATOM     39  N   UNL     1      39.630  30.669  46.122  0.00  0.00    +0.000 NA
ATOM     40  C   UNL     1      38.984  31.531  46.929  0.00  0.00    +0.000 A 
ATOM     41  N   UNL     1      39.267  32.834  46.907  0.00  0.00    +0.000 NA
ATOM     42  H   UNL     1      40.405  34.380  46.090  0.00  0.00    +0.000 HD
ATOM     43  H   UNL     1      41.668  32.870  44.547  0.00  0.00    +0.000 HD
ATOM     44  H   UNL     1      41.110  30.413  44.612  0.00  0.00    +0.000 HD
ENDBRANCH  28  40
ENDBRANCH  25  32
ENDBRANCH   3  25
TORSDOF 5
