
 OpenBabel03272505123D

 44 47  0  0  0  0  0  0  0  0999 V2000
   33.4580   29.0300   44.3740 Cl  0  0  0  0  0  0  0  0  0  0  0  0
   33.6120   27.8340   45.6480 C   0  0  0  0  0  0  0  0  0  0  0  0
   33.8560   28.1050   46.9870 C   0  0  0  0  0  0  0  0  0  0  0  0
   33.9530   27.0760   47.8810 C   0  0  0  0  0  0  0  0  0  0  0  0
   33.8130   25.7850   47.4800 C   0  0  0  0  0  0  0  0  0  0  0  0
   33.5660   25.4510   46.1520 C   0  0  0  0  0  0  0  0  0  0  0  0
   33.4710   26.4990   45.2600 C   0  0  0  0  0  0  0  0  0  0  0  0
   34.1450   27.4010   48.8970 H   0  0  0  0  0  0  0  0  0  0  0  0
   33.8970   24.9950   48.2280 H   0  0  0  0  0  0  0  0  0  0  0  0
   33.4610   24.4210   45.8700 H   0  0  0  0  0  0  0  0  0  0  0  0
   34.1540   25.8270   42.9110 C   0  0  0  0  0  0  0  0  0  0  0  0
   33.2110   26.0910   43.8790 C   0  0  0  0  0  0  0  0  0  0  0  0
   31.8630   25.9740   43.5640 C   0  0  0  0  0  0  0  0  0  0  0  0
   30.9970   26.1440   44.2070 H   0  0  0  0  0  0  0  0  0  0  0  0
   31.4850   25.5930   42.2860 C   0  0  0  0  0  0  0  0  0  0  0  0
   30.4470   25.4780   41.9570 H   0  0  0  0  0  0  0  0  0  0  0  0
   32.4120   25.3230   41.3000 C   0  0  0  0  0  3  0  0  0  0  0  0
   33.7420   25.4480   41.6410 C   0  0  0  0  0  3  0  0  0  0  0  0
   36.1580   24.9560   43.8140 N   0  0  0  0  0  0  0  0  0  0  0  0
   35.5420   25.9680   43.3040 C   0  0  0  0  0  0  0  0  0  0  0  0
   36.1310   27.2530   43.0880 N   0  0  0  0  0  0  0  0  0  0  0  0
   37.1640   25.1080   44.0840 H   0  0  0  0  0  0  0  0  0  0  0  0
   36.3090   27.2000   42.0490 H   0  0  0  0  0  0  0  0  0  0  0  0
   36.4760   28.1960   43.3770 H   0  0  0  0  0  0  0  0  0  0  0  0
   34.0160   29.8500   47.3550 S   0  0  0  0  0  0  0  0  0  0  0  0
   36.3700   30.8380   45.5800 Cl  0  0  0  0  0  0  0  0  0  0  0  0
   36.6490   30.6790   47.2830 C   0  0  0  0  0  0  0  0  0  0  0  0
   37.9010   30.9990   47.7610 C   0  0  0  0  0  0  0  0  0  0  0  0
   38.1270   30.8720   49.1240 C   0  0  0  0  0  0  0  0  0  0  0  0
   37.1300   30.4450   49.9430 C   0  0  0  0  0  0  0  0  0  0  0  0
   35.8810   30.1350   49.4010 C   0  0  0  0  0  0  0  0  0  0  0  0
   35.5890   30.2360   48.0700 C   0  0  0  0  0  0  0  0  0  0  0  0
   39.1120   31.1240   49.5000 H   0  0  0  0  0  0  0  0  0  0  0  0
   37.3320   30.3540   51.0050 H   0  0  0  0  0  0  0  0  0  0  0  0
   35.1030   29.7960   50.0790 H   0  0  0  0  0  0  0  0  0  0  0  0
   40.1660   33.2510   46.0070 C   0  0  0  0  0  0  0  0  0  0  0  0
   40.8870   32.4090   45.1360 C   0  0  0  0  0  0  0  0  0  0  0  0
   40.5730   31.0400   45.1680 C   0  0  0  0  0  0  0  0  0  0  0  0
   39.6050   30.6040   46.0230 N   0  0  0  0  0  0  0  0  0  0  0  0
   38.9510   31.4580   46.8310 C   0  0  0  0  0  0  0  0  0  0  0  0
   39.2300   32.7620   46.8200 N   0  0  0  0  0  0  0  0  0  0  0  0
   40.3690   34.3180   46.0230 H   0  0  0  0  0  0  0  0  0  0  0  0
   41.6480   32.8220   44.4790 H   0  0  0  0  0  0  0  0  0  0  0  0
   41.0970   30.3630   44.5220 H   0  0  0  0  0  0  0  0  0  0  0  0
  1  2  1  0  0  0  0
  2  3  1  0  0  0  0
  3 25  1  0  0  0  0
  3  4  2  0  0  0  0
  4  8  1  0  0  0  0
  5  4  1  0  0  0  0
  5  9  1  0  0  0  0
  6  5  2  0  0  0  0
  7  2  2  0  0  0  0
  7  6  1  0  0  0  0
 10  6  1  0  0  0  0
 11 20  1  0  0  0  0
 11 12  1  0  0  0  0
 12  7  1  0  0  0  0
 13 12  2  0  0  0  0
 13 14  1  0  0  0  0
 15 13  1  0  0  0  0
 16 15  1  0  0  0  0
 17 18  1  0  0  0  0
 17 15  2  0  0  0  0
 18 11  2  0  0  0  0
 19 22  1  0  0  0  0
 20 19  2  0  0  0  0
 21 20  1  0  0  0  0
 21 24  1  0  0  0  0
 23 21  1  0  0  0  0
 25 32  1  0  0  0  0
 26 27  1  0  0  0  0
 27 28  2  0  0  0  0
 27 32  1  0  0  0  0
 28 29  1  0  0  0  0
 29 33  1  0  0  0  0
 29 30  2  0  0  0  0
 30 34  1  0  0  0  0
 31 30  1  0  0  0  0
 31 35  1  0  0  0  0
 32 31  2  0  0  0  0
 36 42  1  0  0  0  0
 36 41  1  0  0  0  0
 37 38  1  0  0  0  0
 37 36  2  0  0  0  0
 38 39  2  0  0  0  0
 39 40  1  0  0  0  0
 40 28  1  0  0  0  0
 41 40  2  0  0  0  0
 43 37  1  0  0  0  0
 44 38  1  0  0  0  0
M  END
>  <minimizedAffinity>
-5.5066638

>  <minimizedRMSD>
0.424093097

$$$$
