
 OpenBabel03262523193D

 35 37  0  0  1  0  0  0  0  0999 V2000
   39.3720   32.1660   46.6290 C   0  0  0  0  0  0  0  0  0  0  0  0
   40.0430   31.1830   45.8930 C   0  0  0  0  0  0  0  0  0  0  0  0
   39.3270   30.0250   45.5010 C   0  0  0  0  0  0  0  0  0  0  0  0
   38.0280   29.9390   45.8630 N   0  0  0  0  0  0  0  0  0  0  0  0
   37.4100   30.8930   46.5660 C   0  0  0  0  0  0  0  0  0  0  0  0
   38.0820   31.9900   46.9390 N   0  0  0  0  0  0  0  0  0  0  0  0
   36.0360   30.7230   46.9220 N   0  0  0  0  0  0  0  0  0  0  0  0
   34.9760   30.5230   45.9460 C   0  0  0  0  0  0  0  0  0  0  0  0
   33.7580   30.2570   46.7380 C   0  0  0  0  0  0  0  0  0  0  0  0
   34.2560   29.9150   48.1350 C   0  0  0  0  0  0  0  0  0  0  0  0
   35.4960   30.7260   48.2570 C   0  0  1  0  0  0  0  0  0  0  0  0
   39.8730   33.0770   46.9570 H   0  0  0  0  0  0  0  0  0  0  0  0
   41.0720   31.3290   45.6490 H   0  0  0  0  0  0  0  0  0  0  0  0
   39.8390   29.2590   44.9320 H   0  0  0  0  0  0  0  0  0  0  0  0
   34.9070   31.3580   45.2290 H   0  0  0  0  0  0  0  0  0  0  0  0
   35.2390   29.5840   45.3790 H   0  0  0  0  0  0  0  0  0  0  0  0
   33.1870   31.2080   46.8110 H   0  0  0  0  0  0  0  0  0  0  0  0
   33.0890   29.4680   46.3500 H   0  0  0  0  0  0  0  0  0  0  0  0
   34.4060   28.8250   48.2380 H   0  0  0  0  0  0  0  0  0  0  0  0
   33.4710   30.2600   48.8380 H   0  0  0  0  0  0  0  0  0  0  0  0
   35.1700   31.7780   48.4440 H   0  0  0  0  0  0  0  0  0  0  0  0
   37.0190   31.1980   50.0760 C   0  0  0  0  0  0  0  0  0  0  0  0
   36.3980   30.2320   49.3010 C   0  0  0  0  0  0  0  0  0  0  0  0
   36.6860   28.9380   49.5990 C   0  0  0  0  0  0  0  0  0  0  0  0
   36.2260   28.1740   49.0280 H   0  0  0  0  0  0  0  0  0  0  0  0
   37.5460   28.5660   50.6100 C   0  0  0  0  0  0  0  0  0  0  0  0
   37.7440   27.5150   50.8070 H   0  0  0  0  0  0  0  0  0  0  0  0
   38.1620   29.5280   51.3790 C   0  0  0  0  0  3  0  0  0  0  0  0
   37.8830   30.8480   51.0930 C   0  0  0  0  0  3  0  0  0  0  0  0
   37.7690   33.4360   49.4120 N   0  0  0  0  0  0  0  0  0  0  0  0
   36.8800   32.6440   49.9610 C   0  0  0  0  0  0  0  0  0  0  0  0
   35.9040   33.6100   50.3280 N   0  0  0  0  0  0  0  0  0  0  0  0
   37.5230   34.4460   49.4060 H   0  0  0  0  0  0  0  0  0  0  0  0
   35.2310   34.0970   49.7070 H   0  0  0  0  0  0  0  0  0  0  0  0
   36.0100   33.7240   51.3570 H   0  0  0  0  0  0  0  0  0  0  0  0
  1  6  1  0  0  0  0
  1 12  1  0  0  0  0
  2  1  2  0  0  0  0
  3  4  2  0  0  0  0
  3  2  1  0  0  0  0
  4  5  1  0  0  0  0
  5  7  1  0  0  0  0
  5  6  2  0  0  0  0
  7 11  1  0  0  0  0
  8  9  1  0  0  0  0
  8  7  1  0  0  0  0
  9 17  1  0  0  0  0
  9 10  1  0  0  0  0
 10 19  1  0  0  0  0
 10 11  1  0  0  0  0
 10 20  1  0  0  0  0
 11 21  1  1  0  0  0
 11 23  1  0  0  0  0
 13  2  1  0  0  0  0
 14  3  1  0  0  0  0
 15  8  1  0  0  0  0
 16  8  1  0  0  0  0
 18  9  1  0  0  0  0
 22 29  1  0  0  0  0
 23 24  1  0  0  0  0
 23 22  2  0  0  0  0
 24 26  2  0  0  0  0
 25 24  1  0  0  0  0
 26 27  1  0  0  0  0
 26 28  1  0  0  0  0
 29 28  2  0  0  0  0
 30 31  2  0  0  0  0
 31 22  1  0  0  0  0
 31 32  1  0  0  0  0
 32 35  1  0  0  0  0
 33 30  1  0  0  0  0
 34 32  1  0  0  0  0
M  END
>  <minimizedAffinity>
-3.34884644

>  <minimizedRMSD>
2.21410847

$$$$
