
     RDKit          3D

 41 43  0  0  0  0  0  0  0  0999 V2000
   38.8313   32.2559   47.2897 C   0  0  0  0  0  0  0  0  0  0  0  0
   38.0661   31.3362   48.1650 C   0  0  0  0  0  0  0  0  0  0  0  0
   36.9703   30.6506   47.6642 C   0  0  0  0  0  0  0  0  0  0  0  0
   36.4522   29.8779   48.6768 C   0  0  0  0  0  0  0  0  0  0  0  0
   37.2249   30.1022   49.7517 N   0  0  0  0  0  0  0  0  0  0  0  0
   38.1637   30.9616   49.4226 N   0  0  0  0  0  0  0  0  0  0  0  0
   37.0851   29.5128   51.0885 C   0  0  0  0  0  0  0  0  0  0  0  0
   37.8600   28.3894   51.1963 F   0  0  0  0  0  0  0  0  0  0  0  0
   35.7688   29.1919   51.3746 F   0  0  0  0  0  0  0  0  0  0  0  0
   37.5185   30.4087   52.0527 F   0  0  0  0  0  0  0  0  0  0  0  0
   39.8448   31.6184   46.4483 C   0  0  0  0  0  0  0  0  0  0  0  0
   39.8099   31.7679   45.0219 C   0  0  0  0  0  0  0  0  0  0  0  0
   39.2492   32.8643   44.4531 C   0  0  0  0  0  0  0  0  0  0  0  0
   39.2061   33.0278   43.0652 C   0  0  0  0  0  0  0  0  0  0  0  0
   39.7687   32.0046   42.3411 N   0  0  0  0  0  0  0  0  0  0  0  0
   40.3204   30.9257   42.9069 C   0  0  0  0  0  0  0  0  0  0  0  0
   40.3201   30.8471   44.2445 N   0  0  0  0  0  0  0  0  0  0  0  0
   38.1204   32.8401   46.6716 H   0  0  0  0  0  0  0  0  0  0  0  0
   39.2721   33.0204   47.9951 H   0  0  0  0  0  0  0  0  0  0  0  0
   36.5050   30.6366   46.6797 H   0  0  0  0  0  0  0  0  0  0  0  0
   35.5976   29.2145   48.6450 H   0  0  0  0  0  0  0  0  0  0  0  0
   40.8672   31.9507   46.7995 H   0  0  0  0  0  0  0  0  0  0  0  0
   39.8366   30.5193   46.7106 H   0  0  0  0  0  0  0  0  0  0  0  0
   38.7947   33.6984   44.9680 H   0  0  0  0  0  0  0  0  0  0  0  0
   38.7776   33.8693   42.5654 H   0  0  0  0  0  0  0  0  0  0  0  0
   38.4749   27.2186   42.9060 N   0  0  0  0  0  0  0  0  0  0  0  0
   39.3174   28.1605   43.2710 C   0  0  0  0  0  0  0  0  0  0  0  0
   38.6817   28.3630   44.5161 N   0  0  0  0  0  0  0  0  0  0  0  0
   40.4083   28.5561   42.4080 C   0  0  0  0  0  0  0  0  0  0  0  0
   40.9315   29.8062   42.2000 C   0  0  0  0  0  0  0  0  0  0  0  0
   42.0010   29.9687   41.3412 C   0  0  0  0  0  0  0  0  0  0  0  0
   42.4119   30.9403   41.1764 H   0  0  0  0  0  0  0  0  0  0  0  0
   42.4915   28.8377   40.7285 C   0  0  0  0  0  0  0  0  0  0  0  0
   43.3270   29.0187   40.0682 H   0  0  0  0  0  0  0  0  0  0  0  0
   42.0156   27.5464   40.8892 C   0  0  0  0  0  0  0  0  0  0  0  0
   40.9504   27.4413   41.7551 C   0  0  0  0  0  0  0  0  0  0  0  0
   37.7088   26.9428   43.5404 H   0  0  0  0  0  0  0  0  0  0  0  0
   39.1830   28.0168   45.3859 H   0  0  0  0  0  0  0  0  0  0  0  0
   37.7754   28.8056   44.7650 H   0  0  0  0  0  0  0  0  0  0  0  0
   42.4598   26.7093   40.3682 H   0  0  0  0  0  0  0  0  0  0  0  0
   40.6006   26.4070   41.8575 H   0  0  0  0  0  0  0  0  0  0  0  0
  1  2  1  0
  2  6  2  0
  3  2  1  0
  3  4  2  0
  4  5  1  0
  5  7  1  0
  6  5  1  0
  7  8  1  0
  7  9  1  0
  7 10  1  0
 11  1  1  0
 12 11  1  0
 13 12  2  0
 14 13  1  0
 15 16  1  0
 15 14  2  0
 16 17  2  0
 17 12  1  0
  1 18  1  0
  1 19  1  0
  3 20  1  0
  4 21  1  0
 11 22  1  0
 11 23  1  0
 13 24  1  0
 14 25  1  0
 26 27  2  3
 27 28  1  0
 27 29  1  0
 29 30  2  0
 30 31  1  0
 31 32  1  0
 31 33  2  0
 33 34  1  0
 33 35  1  0
 35 36  2  0
 36 29  1  0
 26 37  1  0
 28 38  1  0
 28 39  1  0
 35 40  1  0
 36 41  1  0
 16 30  1  0
M  ISO  8  18   8  19   8  20  14  21  14  22   8  23   8  24  14  25  14
M  ISO  2  32  15  34  16
M  END
>  <DihAtoms>  (1) 
14,15,29,28

>  <DihDeg>  (1) 
-0.9677245295899018

$$$$
