
 OpenBabel03272503233D

 35 37  0  0  1  0  0  0  0  0999 V2000
   36.5230   29.5810   49.2500 N   0  0  0  0  0  0  0  0  0  0  0  0
   37.7900   30.0450   48.8920 C   0  0  2  0  0  0  0  0  0  0  0  0
   38.3450   30.6340   50.1820 C   0  0  0  0  0  0  0  0  0  0  0  0
   37.2470   30.5040   51.1940 C   0  0  0  0  0  0  0  0  0  0  0  0
   36.5890   29.2540   50.6890 C   0  0  0  0  0  0  0  0  0  0  0  0
   38.4060   29.0400   48.8440 H   0  0  0  0  0  0  0  0  0  0  0  0
   39.2170   30.0810   50.5810 H   0  0  0  0  0  0  0  0  0  0  0  0
   38.7100   31.6650   50.0510 H   0  0  0  0  0  0  0  0  0  0  0  0
   37.6610   30.2910   52.2230 H   0  0  0  0  0  0  0  0  0  0  0  0
   36.5480   31.3480   51.2610 H   0  0  0  0  0  0  0  0  0  0  0  0
   37.3050   28.4170   50.8320 H   0  0  0  0  0  0  0  0  0  0  0  0
   35.6040   29.0660   51.1080 H   0  0  0  0  0  0  0  0  0  0  0  0
   35.3510   29.3560   48.5050 C   0  0  0  0  0  0  0  0  0  0  0  0
   34.9200   30.4250   47.7460 C   0  0  0  0  0  0  0  0  0  0  0  0
   33.7990   30.3420   46.9300 C   0  0  0  0  0  0  0  0  0  0  0  0
   33.1610   29.1270   46.9360 N   0  0  0  0  0  0  0  0  0  0  0  0
   33.5890   28.0960   47.6760 C   0  0  0  0  0  0  0  0  0  0  0  0
   34.6920   28.2060   48.4700 N   0  0  0  0  0  0  0  0  0  0  0  0
   35.2530   31.4240   47.5880 H   0  0  0  0  0  0  0  0  0  0  0  0
   33.3260   31.0490   46.2860 H   0  0  0  0  0  0  0  0  0  0  0  0
   33.0470   27.1480   47.6480 H   0  0  0  0  0  0  0  0  0  0  0  0
   38.3770   32.1170   47.5360 C   0  0  0  0  0  0  0  0  0  0  0  0
   38.1760   30.7420   47.7190 C   0  0  0  0  0  0  0  0  0  0  0  0
   38.4290   30.0770   46.5060 C   0  0  0  0  0  0  0  0  0  0  0  0
   38.3150   28.9830   46.4850 H   0  0  0  0  0  0  0  0  0  0  0  0
   38.8060   30.6510   45.3390 C   0  0  0  0  0  0  0  0  0  0  0  0
   38.9790   30.0620   44.4540 H   0  0  0  0  0  0  0  0  0  0  0  0
   38.9720   32.0110   45.2800 C   0  0  0  0  0  3  0  0  0  0  0  0
   38.7570   32.7670   46.3860 C   0  0  0  0  0  3  0  0  0  0  0  0
   37.4950   33.4480   49.6460 N   0  0  0  0  0  0  0  0  0  0  0  0
   38.1430   32.9860   48.6670 C   0  0  0  0  0  0  0  0  0  0  0  0
   39.1450   33.9630   49.0330 N   0  0  0  0  0  0  0  0  0  0  0  0
   37.9410   34.2260   50.1910 H   0  0  0  0  0  0  0  0  0  0  0  0
   39.3190   34.8100   48.4150 H   0  0  0  0  0  0  0  0  0  0  0  0
   39.8990   34.4080   49.6020 H   0  0  0  0  0  0  0  0  0  0  0  0
  1  5  1  0  0  0  0
  2  6  1  6  0  0  0
  2  1  1  0  0  0  0
  2  3  1  0  0  0  0
  3  7  1  0  0  0  0
  3  4  1  0  0  0  0
  4 10  1  0  0  0  0
  4  9  1  0  0  0  0
  5 11  1  0  0  0  0
  5 12  1  0  0  0  0
  5  4  1  0  0  0  0
  8  3  1  0  0  0  0
 13  1  1  0  0  0  0
 14 13  2  0  0  0  0
 15 16  2  0  0  0  0
 15 14  1  0  0  0  0
 16 17  1  0  0  0  0
 17 18  2  0  0  0  0
 18 13  1  0  0  0  0
 19 14  1  0  0  0  0
 20 15  1  0  0  0  0
 21 17  1  0  0  0  0
 22 23  1  0  0  0  0
 22 31  1  0  0  0  0
 23  2  1  0  0  0  0
 24 23  2  0  0  0  0
 25 24  1  0  0  0  0
 26 24  1  0  0  0  0
 27 26  1  0  0  0  0
 28 26  2  0  0  0  0
 28 29  1  0  0  0  0
 29 22  2  0  0  0  0
 30 33  1  0  0  0  0
 31 32  1  0  0  0  0
 31 30  2  0  0  0  0
 32 35  1  0  0  0  0
 34 32  1  0  0  0  0
M  END
>  <minimizedAffinity>
-5.67230558

>  <minimizedRMSD>
1.00296021

$$$$
