
 OpenBabel03272503233D

 35 37  0  0  1  0  0  0  0  0999 V2000
   36.4530   29.7720   48.6050 N   0  0  0  0  0  0  0  0  0  0  0  0
   37.7030   30.2900   48.9500 C   0  0  2  0  0  0  0  0  0  0  0  0
   37.8540   29.9380   50.4240 C   0  0  0  0  0  0  0  0  0  0  0  0
   36.5680   29.2760   50.8180 C   0  0  0  0  0  0  0  0  0  0  0  0
   36.2090   28.6310   49.5110 C   0  0  0  0  0  0  0  0  0  0  0  0
   38.4300   29.4920   48.4740 H   0  0  0  0  0  0  0  0  0  0  0  0
   38.6640   29.2110   50.6250 H   0  0  0  0  0  0  0  0  0  0  0  0
   38.1110   30.8140   51.0420 H   0  0  0  0  0  0  0  0  0  0  0  0
   36.7440   28.4570   51.5760 H   0  0  0  0  0  0  0  0  0  0  0  0
   35.7760   29.9390   51.1900 H   0  0  0  0  0  0  0  0  0  0  0  0
   36.9660   27.8440   49.3070 H   0  0  0  0  0  0  0  0  0  0  0  0
   35.1830   28.2780   49.4540 H   0  0  0  0  0  0  0  0  0  0  0  0
   35.5320   30.1110   47.5970 C   0  0  0  0  0  0  0  0  0  0  0  0
   35.9940   29.9690   46.3040 C   0  0  0  0  0  0  0  0  0  0  0  0
   35.1880   30.2300   45.2030 C   0  0  0  0  0  0  0  0  0  0  0  0
   33.9110   30.6340   45.4980 N   0  0  0  0  0  0  0  0  0  0  0  0
   33.4720   30.7680   46.7570 C   0  0  0  0  0  0  0  0  0  0  0  0
   34.2860   30.5060   47.8200 N   0  0  0  0  0  0  0  0  0  0  0  0
   36.9140   29.6720   45.8580 H   0  0  0  0  0  0  0  0  0  0  0  0
   35.3690   30.1780   44.1540 H   0  0  0  0  0  0  0  0  0  0  0  0
   32.4460   31.0930   46.9410 H   0  0  0  0  0  0  0  0  0  0  0  0
   38.9460   31.8870   47.4070 C   0  0  0  0  0  0  0  0  0  0  0  0
   38.2720   31.5360   48.5860 C   0  0  0  0  0  0  0  0  0  0  0  0
   38.2160   32.6590   49.4310 C   0  0  0  0  0  0  0  0  0  0  0  0
   37.7150   32.5440   50.4050 H   0  0  0  0  0  0  0  0  0  0  0  0
   38.7230   33.8860   49.1710 C   0  0  0  0  0  0  0  0  0  0  0  0
   38.6340   34.6930   49.8810 H   0  0  0  0  0  0  0  0  0  0  0  0
   39.3620   34.1120   47.9800 C   0  0  0  0  0  3  0  0  0  0  0  0
   39.4830   33.1090   47.0760 C   0  0  0  0  0  3  0  0  0  0  0  0
   39.4230   29.7060   45.9860 N   0  0  0  0  0  0  0  0  0  0  0  0
   39.1310   30.8580   46.4080 C   0  0  0  0  0  0  0  0  0  0  0  0
   38.8660   31.1610   45.0190 N   0  0  0  0  0  0  0  0  0  0  0  0
   39.3430   29.5400   44.9530 H   0  0  0  0  0  0  0  0  0  0  0  0
   39.5140   31.8070   44.4780 H   0  0  0  0  0  0  0  0  0  0  0  0
   38.3690   31.1330   44.1010 H   0  0  0  0  0  0  0  0  0  0  0  0
  1  2  1  0  0  0  0
  1  5  1  0  0  0  0
  2  6  1  6  0  0  0
  2  3  1  0  0  0  0
  3  7  1  0  0  0  0
  3  4  1  0  0  0  0
  3  8  1  0  0  0  0
  4 10  1  0  0  0  0
  4  9  1  0  0  0  0
  5  4  1  0  0  0  0
 11  5  1  0  0  0  0
 12  5  1  0  0  0  0
 13 18  1  0  0  0  0
 13  1  1  0  0  0  0
 14 13  2  0  0  0  0
 15 16  2  0  0  0  0
 15 14  1  0  0  0  0
 16 17  1  0  0  0  0
 17 21  1  0  0  0  0
 17 18  2  0  0  0  0
 19 14  1  0  0  0  0
 20 15  1  0  0  0  0
 22 23  1  0  0  0  0
 23  2  1  0  0  0  0
 23 24  2  0  0  0  0
 24 25  1  0  0  0  0
 26 24  1  0  0  0  0
 26 27  1  0  0  0  0
 28 26  2  0  0  0  0
 29 22  2  0  0  0  0
 29 28  1  0  0  0  0
 30 31  2  0  0  0  0
 31 22  1  0  0  0  0
 32 31  1  0  0  0  0
 33 30  1  0  0  0  0
 34 32  1  0  0  0  0
 35 32  1  0  0  0  0
M  END
>  <minimizedAffinity>
-4.61043835

>  <minimizedRMSD>
1.97775829

$$$$
