REMARK  Name = 
REMARK  4 active torsions:
REMARK  status: ('A' for Active; 'I' for Inactive)
REMARK    1  A    between atoms: C_1  and  C_2
REMARK    2  A    between atoms: C_1  and  N_8
REMARK    3  A    between atoms: C_13  and  C_32
REMARK    4  A    between atoms: C_29  and  C_31
REMARK                            x       y       z     vdW  Elec       q    Type
REMARK                         _______ _______ _______ _____ _____    ______ ____
ROOT
ATOM      1  N   UNL     1      35.688  29.860  48.884  0.00  0.00    +0.000 NA
ATOM      2  C   UNL     1      35.281  30.952  49.750  0.00  0.00    +0.000 C 
ATOM      3  C   UNL     1      36.467  31.770  50.174  0.00  0.00    +0.000 C 
ATOM      4  C   UNL     1      37.562  30.816  50.592  0.00  0.00    +0.000 C 
ATOM      5  C   UNL     1      38.087  30.129  49.374  0.00  0.00    +0.000 C 
ATOM      6  C   UNL     1      36.969  30.042  48.356  0.00  0.00    +0.000 C 
ATOM      7  H   UNL     1      34.711  30.588  50.610  0.00  0.00    +0.000 HD
ATOM      8  H   UNL     1      34.621  31.635  49.166  0.00  0.00    +0.000 HD
ATOM      9  H   UNL     1      36.147  32.286  51.124  0.00  0.00    +0.000 HD
ATOM     10  H   UNL     1      36.779  32.547  49.470  0.00  0.00    +0.000 HD
ATOM     11  H   UNL     1      37.056  30.053  51.236  0.00  0.00    +0.000 HD
ATOM     12  H   UNL     1      38.362  31.306  51.189  0.00  0.00    +0.000 HD
ATOM     13  H   UNL     1      38.934  30.719  48.965  0.00  0.00    +0.000 HD
ATOM     14  H   UNL     1      38.468  29.159  49.683  0.00  0.00    +0.000 HD
ATOM     15  H   UNL     1      36.933  31.152  48.004  0.00  0.00    +0.000 HD
ENDROOT
BRANCH   6  17
ATOM     16  C   UNL     1      38.590  29.372  46.572  0.00  0.00    +0.000 A 
ATOM     17  C   UNL     1      37.296  29.322  47.127  0.00  0.00    +0.000 A 
ATOM     18  C   UNL     1      36.476  28.542  46.371  0.00  0.00    +0.000 A 
ATOM     19  H   UNL     1      35.467  28.388  46.650  0.00  0.00    +0.000 HD
ATOM     20  C   UNL     1      36.814  27.873  45.217  0.00  0.00    +0.000 A 
ATOM     21  H   UNL     1      36.117  27.262  44.653  0.00  0.00    +0.000 HD
ATOM     22  C   UNL     1      38.097  27.961  44.722  0.00  0.00    +0.000 A 
ATOM     23  C   UNL     1      38.994  28.725  45.417  0.00  0.00    +0.000 A 
BRANCH  16  25
ATOM     24  N   UNL     1      40.179  30.487  48.306  0.00  0.00    +0.000 NA
ATOM     25  C   UNL     1      39.670  30.119  47.185  0.00  0.00    +0.000 C 
ATOM     26  N   UNL     1      40.679  30.796  46.409  0.00  0.00    +0.000 N 
ATOM     27  H   UNL     1      41.034  31.072  48.370  0.00  0.00    +0.000 HD
ATOM     28  H   UNL     1      41.535  30.278  46.105  0.00  0.00    +0.000 HD
ATOM     29  H   UNL     1      40.613  31.813  46.117  0.00  0.00    +0.000 HD
ENDBRANCH  16  25
ENDBRANCH   6  17
BRANCH   1  30
ATOM     30  C   UNL     1      35.123  28.632  49.199  0.00  0.00    +0.000 C 
ATOM     31  H   UNL     1      34.429  28.827  50.103  0.00  0.00    +0.000 HD
ATOM     32  H   UNL     1      35.739  27.809  49.556  0.00  0.00    +0.000 HD
BRANCH  30  33
ATOM     33  C   UNL     1      34.193  28.146  48.170  0.00  0.00    +0.000 A 
ATOM     34  C   UNL     1      33.552  29.107  47.370  0.00  0.00    +0.000 A 
ATOM     35  C   UNL     1      32.641  28.688  46.391  0.00  0.00    +0.000 A 
ATOM     36  N   UNL     1      32.417  27.355  46.260  0.00  0.00    +0.000 NA
ATOM     37  C   UNL     1      33.036  26.446  47.032  0.00  0.00    +0.000 A 
ATOM     38  N   UNL     1      33.912  26.854  47.972  0.00  0.00    +0.000 NA
ATOM     39  H   UNL     1      33.711  30.174  47.451  0.00  0.00    +0.000 HD
ATOM     40  H   UNL     1      32.131  29.409  45.757  0.00  0.00    +0.000 HD
ATOM     41  H   UNL     1      32.823  25.390  46.888  0.00  0.00    +0.000 HD
ENDBRANCH  30  33
ENDBRANCH   1  30
TORSDOF 4
