
     RDKit          3D

 41 43  0  0  0  0  0  0  0  0999 V2000
   39.4493   32.4780   47.0974 O   0  0  0  0  0  0  0  0  0  0  0  0
   38.3022   31.8320   46.4041 P   0  0  2  0  0  0  0  0  0  0  0  0
   37.7201   32.8518   45.1658 O   0  0  0  0  0  0  0  0  0  0  0  0
   37.0281   31.4012   47.4310 O   0  0  0  0  0  0  0  0  0  0  0  0
   37.6154   30.5274   50.9685 C   0  0  0  0  0  0  0  0  0  0  0  0
   37.7109   31.2987   49.8043 C   0  0  0  0  0  0  0  0  0  0  0  0
   37.0703   30.8282   48.6568 C   0  0  0  0  0  0  0  0  0  0  0  0
   36.3860   29.6440   48.7287 N   0  0  0  0  0  0  0  0  0  0  0  0
   36.3243   28.9394   49.8735 C   0  0  0  0  0  0  0  0  0  0  0  0
   36.9414   29.3858   50.9922 N   0  0  0  0  0  0  0  0  0  0  0  0
   38.8573   30.4544   45.6028 O   0  0  0  0  0  0  0  0  0  0  0  0
   36.6228   29.4442   44.0370 Cl  0  0  0  0  0  0  0  0  0  0  0  0
   38.2621   29.8310   43.4899 C   0  0  0  0  0  0  0  0  0  0  0  0
   39.2662   30.3111   44.3179 C   0  0  0  0  0  0  0  0  0  0  0  0
   40.5099   30.5721   43.7469 C   0  0  0  0  0  0  0  0  0  0  0  0
   40.7209   30.3562   42.4047 C   0  0  0  0  0  0  0  0  0  0  0  0
   39.7361   29.8828   41.5802 C   0  0  0  0  0  0  0  0  0  0  0  0
   38.5167   29.6229   42.1212 C   0  0  0  0  0  0  0  0  0  0  0  0
   38.3661   33.5985   45.0009 H   0  0  0  0  0  0  0  0  0  0  0  0
   38.1635   31.0166   51.7853 H   0  0  0  0  0  0  0  0  0  0  0  0
   38.2313   32.2382   49.6757 H   0  0  0  0  0  0  0  0  0  0  0  0
   35.7848   28.0037   49.9344 H   0  0  0  0  0  0  0  0  0  0  0  0
   41.2295   30.9436   44.4715 H   0  0  0  0  0  0  0  0  0  0  0  0
   41.7295   30.5977   42.0845 H   0  0  0  0  0  0  0  0  0  0  0  0
   39.9708   29.7338   40.5236 H   0  0  0  0  0  0  0  0  0  0  0  0
   39.8251   27.0423   39.1806 N   0  0  0  0  0  0  0  0  0  0  0  0
   39.2667   27.5298   40.2596 C   0  0  0  0  0  0  0  0  0  0  0  0
   40.1140   27.4209   41.3958 N   0  0  0  0  0  0  0  0  0  0  0  0
   37.9458   28.1265   40.3707 C   0  0  0  0  0  0  0  0  0  0  0  0
   37.4861   29.1173   41.2127 C   0  0  0  0  0  0  0  0  0  0  0  0
   36.1699   29.5242   41.1319 C   0  0  0  0  0  0  0  0  0  0  0  0
   35.9002   30.3081   41.8336 H   0  0  0  0  0  0  0  0  0  0  0  0
   35.3184   28.9438   40.2148 C   0  0  0  0  0  0  0  0  0  0  0  0
   34.2895   29.3066   40.1976 H   0  0  0  0  0  0  0  0  0  0  0  0
   35.7420   27.9484   39.3544 C   0  0  0  0  0  0  0  0  0  0  0  0
   37.0703   27.5472   39.4457 C   0  0  0  0  0  0  0  0  0  0  0  0
   39.3372   27.0442   38.2586 H   0  0  0  0  0  0  0  0  0  0  0  0
   40.7275   27.3108   42.2288 H   0  0  0  0  0  0  0  0  0  0  0  0
   40.0859   26.4026   41.7003 H   0  0  0  0  0  0  0  0  0  0  0  0
   35.0387   27.5297   38.6591 H   0  0  0  0  0  0  0  0  0  0  0  0
   37.3116   26.7586   38.7291 H   0  0  0  0  0  0  0  0  0  0  0  0
  2  1  2  0
  2  4  1  1
  3  2  1  0
  4  7  1  0
  5 10  2  0
  6  5  1  0
  7  8  1  0
  7  6  2  0
  8  9  2  0
  9 10  1  0
 11  2  1  0
 13 12  1  0
 13 14  2  0
 14 11  1  0
 15 14  1  0
 16 15  2  0
 17 18  2  0
 17 16  1  0
 18 13  1  0
  3 19  1  0
  5 20  1  0
  6 21  1  0
  9 22  1  0
 15 23  1  0
 16 24  1  0
 17 25  1  0
 26 27  2  3
 27 28  1  0
 27 29  1  0
 29 30  2  0
 30 31  1  0
 31 32  1  0
 31 33  2  0
 33 34  1  0
 33 35  1  0
 35 36  2  0
 36 29  1  0
 26 37  1  0
 28 38  1  0
 28 39  1  0
 35 40  1  0
 36 41  1  0
 18 30  1  0
M  ISO  8  19   3  20  14  21  14  22  14  23  14  24  14  25  14  32  15
M  ISO  1  34  16
M  END
>  <DihAtoms>  (1) 
16,17,29,28

>  <DihDeg>  (1) 
-90.08748935441561

$$$$
