
 OpenBabel03272505123D

 44 47  0  0  0  0  0  0  0  0999 V2000
   33.7910   29.1910   44.5330 Cl  0  0  0  0  0  0  0  0  0  0  0  0
   33.8240   27.9750   45.7970 C   0  0  0  0  0  0  0  0  0  0  0  0
   33.9470   28.2250   47.1560 C   0  0  0  0  0  0  0  0  0  0  0  0
   33.9590   27.1820   48.0400 C   0  0  0  0  0  0  0  0  0  0  0  0
   33.8520   25.8980   47.6070 C   0  0  0  0  0  0  0  0  0  0  0  0
   33.7250   25.5840   46.2580 C   0  0  0  0  0  0  0  0  0  0  0  0
   33.7150   26.6460   45.3770 C   0  0  0  0  0  0  0  0  0  0  0  0
   34.0590   27.4900   49.0730 H   0  0  0  0  0  0  0  0  0  0  0  0
   33.8660   25.0960   48.3480 H   0  0  0  0  0  0  0  0  0  0  0  0
   33.6440   24.5590   45.9510 H   0  0  0  0  0  0  0  0  0  0  0  0
   32.4050   26.1240   43.2670 C   0  0  0  0  0  0  0  0  0  0  0  0
   33.5800   26.2610   43.9720 C   0  0  0  0  0  0  0  0  0  0  0  0
   34.7880   26.0190   43.3290 C   0  0  0  0  0  0  0  0  0  0  0  0
   35.8000   26.0810   43.7370 H   0  0  0  0  0  0  0  0  0  0  0  0
   34.7960   25.6460   41.9960 C   0  0  0  0  0  0  0  0  0  0  0  0
   35.7020   25.4370   41.4170 H   0  0  0  0  0  0  0  0  0  0  0  0
   33.6310   25.5030   41.2690 C   0  0  0  0  0  3  0  0  0  0  0  0
   32.4470   25.7500   41.9330 C   0  0  0  0  0  3  0  0  0  0  0  0
   30.7090   27.5920   44.0170 N   0  0  0  0  0  0  0  0  0  0  0  0
   31.1810   26.3920   43.9960 C   0  0  0  0  0  0  0  0  0  0  0  0
   30.5800   25.2710   44.6510 N   0  0  0  0  0  0  0  0  0  0  0  0
   29.8180   27.7340   44.5600 H   0  0  0  0  0  0  0  0  0  0  0  0
   30.1220   24.8010   43.8240 H   0  0  0  0  0  0  0  0  0  0  0  0
   30.3450   24.6700   45.4730 H   0  0  0  0  0  0  0  0  0  0  0  0
   34.0780   29.9630   47.5650 S   0  0  0  0  0  0  0  0  0  0  0  0
   36.4110   30.9050   45.7370 Cl  0  0  0  0  0  0  0  0  0  0  0  0
   36.7100   30.7890   47.4400 C   0  0  0  0  0  0  0  0  0  0  0  0
   37.9680   31.1200   47.8950 C   0  0  0  0  0  0  0  0  0  0  0  0
   38.2100   31.0280   49.2570 C   0  0  0  0  0  0  0  0  0  0  0  0
   37.2230   30.6210   50.0990 C   0  0  0  0  0  0  0  0  0  0  0  0
   35.9680   30.2980   49.5800 C   0  0  0  0  0  0  0  0  0  0  0  0
   35.6600   30.3660   48.2500 C   0  0  0  0  0  0  0  0  0  0  0  0
   39.2000   31.2880   49.6150 H   0  0  0  0  0  0  0  0  0  0  0  0
   37.4380   30.5560   51.1600 H   0  0  0  0  0  0  0  0  0  0  0  0
   35.1980   29.9760   50.2750 H   0  0  0  0  0  0  0  0  0  0  0  0
   40.2210   33.3260   46.0660 C   0  0  0  0  0  0  0  0  0  0  0  0
   40.9220   32.4640   45.2000 C   0  0  0  0  0  0  0  0  0  0  0  0
   40.6010   31.0970   45.2620 C   0  0  0  0  0  0  0  0  0  0  0  0
   39.6430   30.6830   46.1380 N   0  0  0  0  0  0  0  0  0  0  0  0
   39.0060   31.5560   46.9410 C   0  0  0  0  0  0  0  0  0  0  0  0
   39.2940   32.8580   46.9030 N   0  0  0  0  0  0  0  0  0  0  0  0
   40.4310   34.3910   46.0600 H   0  0  0  0  0  0  0  0  0  0  0  0
   41.6770   32.8600   44.5240 H   0  0  0  0  0  0  0  0  0  0  0  0
   41.1110   30.4060   44.6200 H   0  0  0  0  0  0  0  0  0  0  0  0
  1  2  1  0  0  0  0
  2  3  1  0  0  0  0
  3 25  1  0  0  0  0
  3  4  2  0  0  0  0
  4  8  1  0  0  0  0
  5  4  1  0  0  0  0
  5  9  1  0  0  0  0
  6  5  2  0  0  0  0
  7  2  2  0  0  0  0
  7  6  1  0  0  0  0
 10  6  1  0  0  0  0
 11 12  1  0  0  0  0
 11 20  1  0  0  0  0
 12  7  1  0  0  0  0
 13 14  1  0  0  0  0
 13 12  2  0  0  0  0
 15 13  1  0  0  0  0
 16 15  1  0  0  0  0
 17 18  1  0  0  0  0
 17 15  2  0  0  0  0
 18 11  2  0  0  0  0
 19 22  1  0  0  0  0
 20 19  2  0  0  0  0
 20 21  1  0  0  0  0
 21 24  1  0  0  0  0
 23 21  1  0  0  0  0
 25 32  1  0  0  0  0
 26 27  1  0  0  0  0
 27 28  2  0  0  0  0
 27 32  1  0  0  0  0
 28 29  1  0  0  0  0
 29 33  1  0  0  0  0
 29 30  2  0  0  0  0
 30 34  1  0  0  0  0
 31 30  1  0  0  0  0
 31 35  1  0  0  0  0
 32 31  2  0  0  0  0
 36 41  1  0  0  0  0
 37 38  1  0  0  0  0
 37 36  2  0  0  0  0
 38 39  2  0  0  0  0
 39 40  1  0  0  0  0
 40 28  1  0  0  0  0
 41 40  2  0  0  0  0
 42 36  1  0  0  0  0
 43 37  1  0  0  0  0
 44 38  1  0  0  0  0
M  END
>  <minimizedAffinity>
-5.56194258

>  <minimizedRMSD>
0.391489774

$$$$
