
 OpenBabel03272506073D

 35 37  0  0  0  0  0  0  0  0999 V2000
   33.8400   27.8860   48.4090 C   0  0  0  0  0  0  0  0  0  0  0  0
   33.9840   26.6350   47.7040 C   0  0  0  0  0  0  0  0  0  0  0  0
   32.5190   26.6420   46.7190 S   0  0  0  0  0  0  0  0  0  0  0  0
   31.9050   28.2910   47.3600 C   0  0  0  0  0  0  0  0  0  0  0  0
   32.7700   28.5780   48.1290 N   0  0  0  0  0  0  0  0  0  0  0  0
   34.8010   25.9330   47.8060 H   0  0  0  0  0  0  0  0  0  0  0  0
   30.6560   29.7530   45.8570 C   0  0  0  0  0  0  0  0  0  0  0  0
   30.6290   28.7910   46.8200 C   0  0  0  0  0  0  0  0  0  0  0  0
   29.3960   28.3420   47.2360 C   0  0  0  0  0  0  0  0  0  0  0  0
   29.3470   27.5780   48.0000 H   0  0  0  0  0  0  0  0  0  0  0  0
   28.2700   28.8630   46.6830 C   0  0  0  0  0  0  0  0  0  0  0  0
   27.3320   28.4720   47.0500 H   0  0  0  0  0  0  0  0  0  0  0  0
   28.3160   29.8300   45.7140 C   0  0  0  0  0  3  0  0  0  0  0  0
   29.5320   30.3010   45.2770 C   0  0  0  0  0  3  0  0  0  0  0  0
   32.9550   30.1170   44.6450 N   0  0  0  0  0  0  0  0  0  0  0  0
   31.9130   30.2520   45.3810 C   0  0  0  0  0  0  0  0  0  0  0  0
   32.4290   31.5170   45.8430 N   0  0  0  0  0  0  0  0  0  0  0  0
   33.6910   30.8560   44.6440 H   0  0  0  0  0  0  0  0  0  0  0  0
   33.1590   31.9240   46.5010 H   0  0  0  0  0  0  0  0  0  0  0  0
   31.9830   32.3910   45.4400 H   0  0  0  0  0  0  0  0  0  0  0  0
   34.9070   28.2850   49.3830 C   0  0  0  0  0  0  0  0  0  0  0  0
   34.8560   27.6480   50.2900 H   0  0  0  0  0  0  0  0  0  0  0  0
   35.9190   28.0560   48.9340 H   0  0  0  0  0  0  0  0  0  0  0  0
   34.7990   29.7130   49.7840 C   0  0  0  0  0  0  0  0  0  0  0  0
   33.9390   30.1990   49.3190 H   0  0  0  0  0  0  0  0  0  0  0  0
   34.6470   29.8160   50.8930 H   0  0  0  0  0  0  0  0  0  0  0  0
   37.5350   32.2040   49.5900 C   0  0  0  0  0  0  0  0  0  0  0  0
   38.3270   31.7330   48.5460 C   0  0  0  0  0  0  0  0  0  0  0  0
   37.9110   30.5510   47.9080 C   0  0  0  0  0  0  0  0  0  0  0  0
   36.7750   29.9500   48.3480 N   0  0  0  0  0  0  0  0  0  0  0  0
   36.0480   30.4610   49.3740 C   0  0  0  0  0  0  0  0  0  0  0  0
   36.4190   31.5830   49.9960 N   0  0  0  0  0  0  0  0  0  0  0  0
   37.8000   33.1000   50.1140 H   0  0  0  0  0  0  0  0  0  0  0  0
   39.2090   32.2820   48.2720 H   0  0  0  0  0  0  0  0  0  0  0  0
   38.5020   30.1660   47.1010 H   0  0  0  0  0  0  0  0  0  0  0  0
  1 21  1  0  0  0  0
  2  6  1  0  0  0  0
  2  1  2  0  0  0  0
  3  4  1  0  0  0  0
  3  2  1  0  0  0  0
  4  5  2  0  0  0  0
  5  1  1  0  0  0  0
  7  8  1  0  0  0  0
  8  9  2  0  0  0  0
  8  4  1  0  0  0  0
  9 10  1  0  0  0  0
 11 12  1  0  0  0  0
 11  9  1  0  0  0  0
 13 11  2  0  0  0  0
 14 13  1  0  0  0  0
 14  7  2  0  0  0  0
 15 16  2  0  0  0  0
 16 17  1  0  0  0  0
 16  7  1  0  0  0  0
 17 19  1  0  0  0  0
 18 15  1  0  0  0  0
 20 17  1  0  0  0  0
 21 24  1  0  0  0  0
 21 22  1  0  0  0  0
 23 21  1  0  0  0  0
 24 26  1  0  0  0  0
 25 24  1  0  0  0  0
 27 32  1  0  0  0  0
 27 33  1  0  0  0  0
 28 27  2  0  0  0  0
 29 30  2  0  0  0  0
 29 28  1  0  0  0  0
 30 31  1  0  0  0  0
 31 24  1  0  0  0  0
 31 32  2  0  0  0  0
 34 28  1  0  0  0  0
 35 29  1  0  0  0  0
M  END
>  <minimizedAffinity>
-4.80413723

>  <minimizedRMSD>
2.82281184

$$$$
