
 OpenBabel03272500463D

 37 40  0  0  1  0  0  0  0  0999 V2000
   36.4070   30.8220   48.4710 C   0  0  1  0  0  0  0  0  0  0  0  0
   37.6170   30.1980   49.1870 C   0  0  0  0  0  0  0  0  0  0  0  0
   37.7700   31.0000   47.9280 C   0  0  2  0  0  0  0  0  0  0  0  0
   35.9660   31.7520   48.8950 H   0  0  0  0  0  0  0  0  0  0  0  0
   37.8310   30.7170   50.1700 H   0  0  0  0  0  0  0  0  0  0  0  0
   37.7120   29.1040   49.1570 H   0  0  0  0  0  0  0  0  0  0  0  0
   38.0780   30.3820   47.0560 H   0  0  0  0  0  0  0  0  0  0  0  0
   39.4850   32.6600   47.1800 C   0  0  0  0  0  0  0  0  0  0  0  0
   38.5550   32.2340   48.0980 C   0  0  0  0  0  0  0  0  0  0  0  0
   38.3340   32.9430   49.2590 C   0  0  0  0  0  0  0  0  0  0  0  0
   37.6020   32.6170   49.9890 H   0  0  0  0  0  0  0  0  0  0  0  0
   39.0970   34.0910   49.4380 C   0  0  0  0  0  0  0  0  0  0  0  0
   38.9230   34.6540   50.3560 H   0  0  0  0  0  0  0  0  0  0  0  0
   40.0370   34.5320   48.5260 C   0  0  0  0  0  0  0  0  0  0  0  0
   40.2450   33.8080   47.3660 C   0  0  0  0  0  0  0  0  0  0  0  0
   39.3890   32.0420   44.6620 N   0  0  0  0  0  0  0  0  0  0  0  0
   39.7470   31.9890   45.9220 C   0  0  0  0  0  0  0  0  0  0  0  0
   40.6680   30.8960   45.8490 N   0  0  0  0  0  0  0  0  0  0  0  0
   39.8510   31.3290   44.0690 H   0  0  0  0  0  0  0  0  0  0  0  0
   41.6830   30.9660   46.0570 H   0  0  0  0  0  0  0  0  0  0  0  0
   40.4930   29.8800   45.5860 H   0  0  0  0  0  0  0  0  0  0  0  0
   34.1610   28.2130   47.4660 C   0  0  0  0  0  0  0  0  0  0  0  0
   34.1820   28.9890   46.3030 C   0  0  0  0  0  0  0  0  0  0  0  0
   35.0350   30.0750   46.5380 C   0  0  0  0  0  0  0  0  0  0  0  0
   35.4920   29.9340   47.7880 N   0  0  0  0  0  0  0  0  0  0  0  0
   34.9650   28.8370   48.3090 N   0  0  0  0  0  0  0  0  0  0  0  0
   33.6490   28.8160   45.3750 H   0  0  0  0  0  0  0  0  0  0  0  0
   35.2900   30.8830   45.8510 H   0  0  0  0  0  0  0  0  0  0  0  0
   33.8480   25.7520   47.1700 C   0  0  0  0  0  0  0  0  0  0  0  0
   33.3780   27.0070   47.5830 C   0  0  0  0  0  0  0  0  0  0  0  0
   32.1070   27.0560   48.1180 C   0  0  0  0  0  0  0  0  0  0  0  0
   31.3870   25.8950   48.2150 N   0  0  0  0  0  0  0  0  0  0  0  0
   31.8850   24.7150   47.8040 C   0  0  0  0  0  0  0  0  0  0  0  0
   33.1240   24.6320   47.2760 N   0  0  0  0  0  0  0  0  0  0  0  0
   34.8470   25.7060   46.7490 H   0  0  0  0  0  0  0  0  0  0  0  0
   31.6930   27.9780   48.4490 H   0  0  0  0  0  0  0  0  0  0  0  0
   31.1530   23.9180   47.9690 H   0  0  0  0  0  0  0  0  0  0  0  0
  1  4  1  1  0  0  0
  1  2  1  0  0  0  0
  2  5  1  0  0  0  0
  3  7  1  6  0  0  0
  3  9  1  0  0  0  0
  3  1  1  0  0  0  0
  3  2  1  0  0  0  0
  6  2  1  0  0  0  0
  8 15  2  0  0  0  0
  8  9  1  0  0  0  0
  9 10  2  0  0  0  0
 10 12  1  0  0  0  0
 10 11  1  0  0  0  0
 12 13  1  0  0  0  0
 14 12  2  0  0  0  0
 15 14  1  0  0  0  0
 16 17  2  0  0  0  0
 17  8  1  0  0  0  0
 18 17  1  0  0  0  0
 18 20  1  0  0  0  0
 19 16  1  0  0  0  0
 21 18  1  0  0  0  0
 22 30  1  0  0  0  0
 22 26  2  0  0  0  0
 23 24  2  0  0  0  0
 23 22  1  0  0  0  0
 24 25  1  0  0  0  0
 25 26  1  0  0  0  0
 25  1  1  0  0  0  0
 27 23  1  0  0  0  0
 28 24  1  0  0  0  0
 29 34  2  0  0  0  0
 29 30  1  0  0  0  0
 30 31  2  0  0  0  0
 31 32  1  0  0  0  0
 31 36  1  0  0  0  0
 33 37  1  0  0  0  0
 33 32  2  0  0  0  0
 34 33  1  0  0  0  0
 35 29  1  0  0  0  0
M  END
>  <minimizedAffinity>
-6.17322636

>  <minimizedRMSD>
4.31935883

$$$$
