
 OpenBabel03272510073D

 35 37  0  0  0  0  0  0  0  0999 V2000
   36.3950   31.1240   49.2920 C   0  0  0  0  0  0  0  0  0  0  0  0
   37.1250   31.4880   48.1530 C   0  0  0  0  0  0  0  0  0  0  0  0
   36.7970   30.8800   46.9410 C   0  0  0  0  0  0  0  0  0  0  0  0
   35.7860   29.9650   46.9150 N   0  0  0  0  0  0  0  0  0  0  0  0
   35.1040   29.6390   48.0250 C   0  0  0  0  0  0  0  0  0  0  0  0
   35.4090   30.2130   49.1900 N   0  0  0  0  0  0  0  0  0  0  0  0
   34.0540   28.6700   47.9280 N   0  0  0  0  0  0  0  0  0  0  0  0
   32.8900   28.8220   47.0790 C   0  0  0  0  0  0  0  0  0  0  0  0
   32.2210   27.4950   47.0940 C   0  0  0  0  0  0  0  0  0  0  0  0
   33.1950   26.5410   47.7540 C   0  0  0  0  0  0  0  0  0  0  0  0
   34.0030   27.4070   48.6570 C   0  0  0  0  0  0  0  0  0  0  0  0
   36.6380   31.5880   50.2470 H   0  0  0  0  0  0  0  0  0  0  0  0
   37.3630   31.1710   46.0730 H   0  0  0  0  0  0  0  0  0  0  0  0
   33.1770   29.1300   46.0440 H   0  0  0  0  0  0  0  0  0  0  0  0
   32.2080   29.5870   47.5150 H   0  0  0  0  0  0  0  0  0  0  0  0
   31.9190   27.1320   46.0970 H   0  0  0  0  0  0  0  0  0  0  0  0
   31.3220   27.5210   47.7770 H   0  0  0  0  0  0  0  0  0  0  0  0
   33.8600   26.1370   46.9620 H   0  0  0  0  0  0  0  0  0  0  0  0
   32.6350   25.7480   48.3030 H   0  0  0  0  0  0  0  0  0  0  0  0
   35.0090   27.0310   48.8830 H   0  0  0  0  0  0  0  0  0  0  0  0
   33.4350   27.5640   49.6030 H   0  0  0  0  0  0  0  0  0  0  0  0
   38.8650   32.7960   47.1820 C   0  0  0  0  0  0  0  0  0  0  0  0
   38.1730   32.4850   48.3330 C   0  0  0  0  0  0  0  0  0  0  0  0
   38.4860   33.1060   49.5220 C   0  0  0  0  0  0  0  0  0  0  0  0
   37.8500   32.7490   50.3280 H   0  0  0  0  0  0  0  0  0  0  0  0
   39.4800   34.0490   49.6240 C   0  0  0  0  0  0  0  0  0  0  0  0
   39.5880   34.4250   50.6090 H   0  0  0  0  0  0  0  0  0  0  0  0
   40.1730   34.3640   48.4760 C   0  0  0  0  0  0  0  0  0  0  0  0
   39.8820   33.7540   47.2610 C   0  0  0  0  0  0  0  0  0  0  0  0
   37.9220   32.7770   44.9410 N   0  0  0  0  0  0  0  0  0  0  0  0
   38.7240   32.2690   45.8320 C   0  0  0  0  0  0  0  0  0  0  0  0
   39.3620   31.1860   45.2090 N   0  0  0  0  0  0  0  0  0  0  0  0
   37.3200   33.6110   45.1610 H   0  0  0  0  0  0  0  0  0  0  0  0
   39.7090   30.2260   45.0390 H   0  0  0  0  0  0  0  0  0  0  0  0
   39.8750   31.1880   44.3080 H   0  0  0  0  0  0  0  0  0  0  0  0
  1 12  1  0  0  0  0
  2 23  1  0  0  0  0
  2  1  2  0  0  0  0
  3  2  1  0  0  0  0
  4  3  2  0  0  0  0
  4  5  1  0  0  0  0
  5  6  2  0  0  0  0
  6  1  1  0  0  0  0
  7  5  1  0  0  0  0
  7 11  1  0  0  0  0
  8  9  1  0  0  0  0
  8 15  1  0  0  0  0
  8  7  1  0  0  0  0
  9 10  1  0  0  0  0
  9 17  1  0  0  0  0
 10 19  1  0  0  0  0
 10 11  1  0  0  0  0
 11 20  1  0  0  0  0
 11 21  1  0  0  0  0
 13  3  1  0  0  0  0
 14  8  1  0  0  0  0
 16  9  1  0  0  0  0
 18 10  1  0  0  0  0
 22 29  2  0  0  0  0
 22 23  1  0  0  0  0
 23 24  2  0  0  0  0
 24 26  1  0  0  0  0
 24 25  1  0  0  0  0
 26 27  1  0  0  0  0
 28 26  2  0  0  0  0
 29 28  1  0  0  0  0
 30 33  1  0  0  0  0
 30 31  2  0  0  0  0
 31 22  1  0  0  0  0
 32 31  1  0  0  0  0
 34 32  1  0  0  0  0
 35 32  1  0  0  0  0
M  END
>  <minimizedAffinity>
-5.79739618

>  <minimizedRMSD>
2.60363126

$$$$
