
     RDKit          3D

 25 26  0  0  0  0  0  0  0  0999 V2000
   37.2962   30.1823   51.4105 C   0  0  0  0  0  0  0  0  0  0  0  0
   38.0680   30.6804   50.3508 C   0  0  0  0  0  0  0  0  0  0  0  0
   37.6723   30.3387   49.0427 C   0  0  0  0  0  0  0  0  0  0  0  0
   36.5768   29.5543   48.8801 N   0  0  0  0  0  0  0  0  0  0  0  0
   35.8608   29.0960   49.9432 C   0  0  0  0  0  0  0  0  0  0  0  0
   36.2200   29.4093   51.2008 N   0  0  0  0  0  0  0  0  0  0  0  0
   37.5653   30.4212   52.4430 H   0  0  0  0  0  0  0  0  0  0  0  0
   38.2680   30.7182   48.2302 H   0  0  0  0  0  0  0  0  0  0  0  0
   35.0202   28.4856   49.6300 H   0  0  0  0  0  0  0  0  0  0  0  0
   38.9229   33.8988   47.9443 N   0  0  0  0  0  0  0  0  0  0  0  0
   38.4567   33.2212   48.9597 C   0  0  0  0  0  0  0  0  0  0  0  0
   37.0383   33.1128   48.9148 N   0  0  0  0  0  0  0  0  0  0  0  0
   39.3614   32.6880   49.9703 C   0  0  0  0  0  0  0  0  0  0  0  0
   39.2251   31.5068   50.6688 C   0  0  0  0  0  0  0  0  0  0  0  0
   40.1400   31.1042   51.6200 C   0  0  0  0  0  0  0  0  0  0  0  0
   39.9757   30.1585   52.1387 H   0  0  0  0  0  0  0  0  0  0  0  0
   41.2346   31.8948   51.8960 C   0  0  0  0  0  0  0  0  0  0  0  0
   41.9695   31.5981   52.6420 H   0  0  0  0  0  0  0  0  0  0  0  0
   41.3777   33.0824   51.1976 C   0  0  0  0  0  0  0  0  0  0  0  0
   40.4627   33.4959   50.2392 C   0  0  0  0  0  0  0  0  0  0  0  0
   39.9256   34.0834   47.8030 H   0  0  0  0  0  0  0  0  0  0  0  0
   36.4275   33.9274   48.6619 H   0  0  0  0  0  0  0  0  0  0  0  0
   36.0635   32.7471   48.9633 H   0  0  0  0  0  0  0  0  0  0  0  0
   42.2323   33.6999   51.4124 H   0  0  0  0  0  0  0  0  0  0  0  0
   40.6229   34.4426   49.7175 H   0  0  0  0  0  0  0  0  0  0  0  0
  2  1  2  0
  3  2  1  0
  4  3  2  0
  4  5  1  0
  5  6  2  0
  6  1  1  0
  1  7  1  0
  3  8  1  0
  5  9  1  0
 10 11  2  3
 11 12  1  0
 11 13  1  0
 13 14  2  0
 14 15  1  0
 15 16  1  0
 15 17  2  0
 17 18  1  0
 17 19  1  0
 19 20  2  0
 20 13  1  0
 10 21  1  0
 12 22  1  0
 12 23  1  0
 19 24  1  0
 20 25  1  0
  2 14  1  0
M  ISO  5   7  14   8  14   9  14  16  15  18  16
M  END
>  <DihAtoms>  (1) 
0,1,13,12

>  <DihDeg>  (1) 
-132.12412199457964

$$$$
