
 OpenBabel03272508413D

 47 50  0  0  1  0  0  0  0  0999 V2000
   36.1680   30.7730   45.5670 Cl  0  0  0  0  0  0  0  0  0  0  0  0
   36.5090   30.3010   47.2320 C   0  0  0  0  0  0  0  0  0  0  0  0
   35.5250   29.6420   47.9180 C   0  0  0  0  0  0  0  0  0  0  0  0
   35.6460   29.2150   49.2490 C   0  0  0  0  0  0  0  0  0  0  0  0
   36.8720   29.5010   49.8680 C   0  0  0  0  0  0  0  0  0  0  0  0
   37.8810   30.1690   49.1770 C   0  0  0  0  0  0  0  0  0  0  0  0
   37.6870   30.5630   47.8600 C   0  0  0  0  0  0  0  0  0  0  0  0
   35.0720   28.7170   49.9920 H   0  0  0  0  0  0  0  0  0  0  0  0
   37.2020   29.2830   50.8560 H   0  0  0  0  0  0  0  0  0  0  0  0
   38.8560   30.4340   49.5600 H   0  0  0  0  0  0  0  0  0  0  0  0
   32.2170   27.9880   47.6420 N   0  0  0  0  0  0  0  0  0  0  0  0
   33.4000   28.5940   48.2470 C   0  0  0  0  0  0  0  0  0  0  0  0
   34.2230   29.3780   47.3270 C   0  0  2  0  0  0  0  0  0  0  0  0
   34.4220   28.6790   46.0280 N   0  0  0  0  0  0  0  0  0  0  0  0
   33.0770   28.3700   45.4970 C   0  0  0  0  0  0  0  0  0  0  0  0
   32.5760   27.3060   46.4470 C   0  0  0  0  0  0  0  0  0  0  0  0
   33.0930   29.1340   49.1390 H   0  0  0  0  0  0  0  0  0  0  0  0
   33.9960   27.6460   48.4830 H   0  0  0  0  0  0  0  0  0  0  0  0
   33.7760   30.3180   46.9590 H   0  0  0  0  0  0  0  0  0  0  0  0
   34.8340   29.3340   45.3670 H   0  0  0  0  0  0  0  0  0  0  0  0
   33.1300   28.0620   44.4530 H   0  0  0  0  0  0  0  0  0  0  0  0
   32.4200   29.2710   45.5490 H   0  0  0  0  0  0  0  0  0  0  0  0
   33.4020   26.5730   46.5880 H   0  0  0  0  0  0  0  0  0  0  0  0
   31.7040   26.8240   45.9680 H   0  0  0  0  0  0  0  0  0  0  0  0
   30.9260   28.0850   48.2170 C   0  0  0  0  0  0  0  0  0  0  0  0
   29.8190   28.5210   47.4880 C   0  0  0  0  0  0  0  0  0  0  0  0
   28.5860   28.5830   48.1280 C   0  0  0  0  0  0  0  0  0  0  0  0
   28.5220   28.2060   49.4610 N   0  0  0  0  0  0  0  0  0  0  0  0
   29.6270   27.7920   50.1190 C   0  0  0  0  0  0  0  0  0  0  0  0
   30.8050   27.7290   49.5250 N   0  0  0  0  0  0  0  0  0  0  0  0
   29.9400   28.7990   46.4540 H   0  0  0  0  0  0  0  0  0  0  0  0
   27.7220   28.9130   47.5900 H   0  0  0  0  0  0  0  0  0  0  0  0
   29.5290   27.5100   51.1550 H   0  0  0  0  0  0  0  0  0  0  0  0
   39.1110   32.5020   47.5400 C   0  0  0  0  0  0  0  0  0  0  0  0
   38.6990   31.2630   47.0820 C   0  0  0  0  0  0  0  0  0  0  0  0
   39.2680   30.7550   45.9100 C   0  0  0  0  0  0  0  0  0  0  0  0
   38.9170   29.7800   45.5850 H   0  0  0  0  0  0  0  0  0  0  0  0
   40.2340   31.4840   45.2180 C   0  0  0  0  0  0  0  0  0  0  0  0
   40.6580   31.0760   44.3220 H   0  0  0  0  0  0  0  0  0  0  0  0
   40.6170   32.7190   45.7130 C   0  0  0  0  0  0  0  0  0  0  0  0
   40.0730   33.2620   46.8770 C   0  0  0  0  0  0  0  0  0  0  0  0
   37.3180   33.4990   48.8390 N   0  0  0  0  0  0  0  0  0  0  0  0
   38.5620   33.0960   48.7540 C   0  0  0  0  0  0  0  0  0  0  0  0
   39.3220   33.2870   49.9410 N   0  0  0  0  0  0  0  0  0  0  0  0
   37.0710   33.9050   49.7790 H   0  0  0  0  0  0  0  0  0  0  0  0
   39.5140   33.0210   50.9160 H   0  0  0  0  0  0  0  0  0  0  0  0
   39.9520   34.0640   49.5860 H   0  0  0  0  0  0  0  0  0  0  0  0
  1  2  1  0  0  0  0
  2  7  2  0  0  0  0
  2  3  1  0  0  0  0
  3  4  2  0  0  0  0
  4  5  1  0  0  0  0
  4  8  1  0  0  0  0
  5  9  1  0  0  0  0
  6 10  1  0  0  0  0
  6  5  2  0  0  0  0
  7  6  1  0  0  0  0
 11 25  1  0  0  0  0
 11 12  1  0  0  0  0
 12 18  1  0  0  0  0
 12 17  1  0  0  0  0
 13 19  1  6  0  0  0
 13  3  1  0  0  0  0
 13 12  1  0  0  0  0
 14 13  1  0  0  0  0
 15 22  1  0  0  0  0
 15 14  1  0  0  0  0
 15 16  1  0  0  0  0
 16 23  1  0  0  0  0
 16 11  1  0  0  0  0
 20 14  1  0  0  0  0
 21 15  1  0  0  0  0
 24 16  1  0  0  0  0
 25 30  1  0  0  0  0
 26 27  1  0  0  0  0
 26 25  2  0  0  0  0
 27 28  2  0  0  0  0
 28 29  1  0  0  0  0
 29 33  1  0  0  0  0
 30 29  2  0  0  0  0
 31 26  1  0  0  0  0
 32 27  1  0  0  0  0
 34 43  1  0  0  0  0
 35 34  1  0  0  0  0
 35  7  1  0  0  0  0
 36 35  2  0  0  0  0
 37 36  1  0  0  0  0
 38 40  2  0  0  0  0
 38 36  1  0  0  0  0
 39 38  1  0  0  0  0
 40 41  1  0  0  0  0
 41 34  2  0  0  0  0
 42 45  1  0  0  0  0
 43 42  2  0  0  0  0
 43 44  1  0  0  0  0
 44 46  1  0  0  0  0
 47 44  1  0  0  0  0
M  END
>  <minimizedAffinity>
-6.57812452

>  <minimizedRMSD>
4.19711733

$$$$
