
 OpenBabel03272508123D

 39 41  0  0  0  0  0  0  0  0999 V2000
   36.7130   29.4450   44.1390 Cl  0  0  0  0  0  0  0  0  0  0  0  0
   38.3630   29.8230   43.6190 C   0  0  0  0  0  0  0  0  0  0  0  0
   39.3480   30.3230   44.4580 C   0  0  0  0  0  0  0  0  0  0  0  0
   40.6030   30.5740   43.9090 C   0  0  0  0  0  0  0  0  0  0  0  0
   40.8440   30.3310   42.5760 C   0  0  0  0  0  0  0  0  0  0  0  0
   39.8770   29.8390   41.7400 C   0  0  0  0  0  0  0  0  0  0  0  0
   38.6470   29.5880   42.2600 C   0  0  0  0  0  0  0  0  0  0  0  0
   41.3070   30.9630   44.6400 H   0  0  0  0  0  0  0  0  0  0  0  0
   41.8590   30.5680   42.2720 H   0  0  0  0  0  0  0  0  0  0  0  0
   40.1350   29.6680   40.6930 H   0  0  0  0  0  0  0  0  0  0  0  0
   36.8700   30.0480   40.7580 C   0  0  0  0  0  0  0  0  0  0  0  0
   37.6370   29.0610   41.3410 C   0  0  0  0  0  0  0  0  0  0  0  0
   37.4000   27.7390   41.0270 C   0  0  0  0  0  0  0  0  0  0  0  0
   38.0530   27.0340   41.5350 H   0  0  0  0  0  0  0  0  0  0  0  0
   36.4030   27.4040   40.1350 C   0  0  0  0  0  0  0  0  0  0  0  0
   36.2620   26.3420   39.9250 H   0  0  0  0  0  0  0  0  0  0  0  0
   35.6140   28.3640   39.5290 C   0  0  0  0  0  3  0  0  0  0  0  0
   35.8630   29.6940   39.8530 C   0  0  0  0  0  3  0  0  0  0  0  0
   36.2730   32.2100   41.8000 N   0  0  0  0  0  0  0  0  0  0  0  0
   36.9200   31.4910   40.9190 C   0  0  0  0  0  0  0  0  0  0  0  0
   37.7330   32.2910   40.0700 N   0  0  0  0  0  0  0  0  0  0  0  0
   35.6310   31.7790   42.5000 H   0  0  0  0  0  0  0  0  0  0  0  0
   38.3030   32.8850   39.4330 H   0  0  0  0  0  0  0  0  0  0  0  0
   37.0800   32.7630   39.3770 H   0  0  0  0  0  0  0  0  0  0  0  0
   38.9110   30.4920   45.7310 O   0  0  0  0  0  0  0  0  0  0  0  0
   39.4260   32.5710   47.1760 O   0  0  0  0  0  0  0  0  0  0  0  0
   38.3080   31.8770   46.4820 P   0  0  1  0  0  0  0  0  0  0  0  0
   37.7240   32.8470   45.2050 O   0  0  0  0  0  0  0  0  0  0  0  0
   38.3550   33.6050   45.0300 H   0  0  0  0  0  0  0  0  0  0  0  0
   37.0260   31.4440   47.4980 O   0  0  0  0  0  0  0  0  0  0  0  0
   37.5790   30.5170   51.0270 C   0  0  0  0  0  0  0  0  0  0  0  0
   37.6820   31.3080   49.8770 C   0  0  0  0  0  0  0  0  0  0  0  0
   37.0590   30.8510   48.7150 C   0  0  0  0  0  0  0  0  0  0  0  0
   36.3840   29.6610   48.7600 N   0  0  0  0  0  0  0  0  0  0  0  0
   36.3140   28.9370   49.8910 C   0  0  0  0  0  0  0  0  0  0  0  0
   36.9140   29.3700   51.0250 N   0  0  0  0  0  0  0  0  0  0  0  0
   38.1130   30.9970   51.8590 H   0  0  0  0  0  0  0  0  0  0  0  0
   38.1960   32.2530   49.7710 H   0  0  0  0  0  0  0  0  0  0  0  0
   35.7820   27.9960   49.9300 H   0  0  0  0  0  0  0  0  0  0  0  0
  2  1  1  0  0  0  0
  2  3  1  0  0  0  0
  3 25  1  0  0  0  0
  4  3  2  0  0  0  0
  4  8  1  0  0  0  0
  5  4  1  0  0  0  0
  6  7  1  0  0  0  0
  6  5  2  0  0  0  0
  7  2  2  0  0  0  0
  9  5  1  0  0  0  0
 10  6  1  0  0  0  0
 11 20  1  0  0  0  0
 11 12  1  0  0  0  0
 12  7  1  0  0  0  0
 13 12  2  0  0  0  0
 13 14  1  0  0  0  0
 15 13  1  0  0  0  0
 16 15  1  0  0  0  0
 17 18  1  0  0  0  0
 17 15  2  0  0  0  0
 18 11  2  0  0  0  0
 19 22  1  0  0  0  0
 20 19  2  0  0  0  0
 21 20  1  0  0  0  0
 23 21  1  0  0  0  0
 24 21  1  0  0  0  0
 25 27  1  0  0  0  0
 27 26  2  1  0  0  0
 27 30  1  0  0  0  0
 28 27  1  0  0  0  0
 29 28  1  0  0  0  0
 30 33  1  0  0  0  0
 31 37  1  0  0  0  0
 32 31  2  0  0  0  0
 33 34  2  0  0  0  0
 33 32  1  0  0  0  0
 34 35  1  0  0  0  0
 35 39  1  0  0  0  0
 35 36  2  0  0  0  0
 36 31  1  0  0  0  0
 38 32  1  0  0  0  0
M  END
>  <minimizedAffinity>
-4.82450199

>  <minimizedRMSD>
0.477710992

$$$$
