
 OpenBabel03272500273D

 39 41  0  0  0  0  0  0  0  0999 V2000
   39.8110   31.8300   45.0660 C   0  0  0  0  0  0  0  0  0  0  0  0
   39.5700   33.0790   44.5960 C   0  0  0  0  0  0  0  0  0  0  0  0
   39.5140   33.3480   43.2250 C   0  0  0  0  0  0  0  0  0  0  0  0
   39.7210   32.2610   42.4100 N   0  0  0  0  0  0  0  0  0  0  0  0
   39.9570   31.0310   42.8790 C   0  0  0  0  0  0  0  0  0  0  0  0
   39.9940   30.8590   44.2080 N   0  0  0  0  0  0  0  0  0  0  0  0
   39.4030   33.9690   45.1840 H   0  0  0  0  0  0  0  0  0  0  0  0
   39.3290   34.3100   42.8010 H   0  0  0  0  0  0  0  0  0  0  0  0
   39.1380   28.9610   41.9210 C   0  0  0  0  0  0  0  0  0  0  0  0
   40.1820   29.8360   42.0730 C   0  0  0  0  0  0  0  0  0  0  0  0
   41.3960   29.5690   41.4690 C   0  0  0  0  0  0  0  0  0  0  0  0
   42.2120   30.2470   41.5840 H   0  0  0  0  0  0  0  0  0  0  0  0
   41.4880   28.4110   40.7300 C   0  0  0  0  0  0  0  0  0  0  0  0
   42.4560   28.2490   40.2790 H   0  0  0  0  0  0  0  0  0  0  0  0
   40.4790   27.4820   40.5320 C   0  0  0  0  0  3  0  0  0  0  0  0
   39.2920   27.7970   41.1560 C   0  0  0  0  0  3  0  0  0  0  0  0
   36.7560   28.6910   41.7620 N   0  0  0  0  0  0  0  0  0  0  0  0
   37.8050   29.0320   42.4770 C   0  0  0  0  0  0  0  0  0  0  0  0
   37.0320   29.3390   43.6190 N   0  0  0  0  0  0  0  0  0  0  0  0
   35.8140   28.7390   42.1800 H   0  0  0  0  0  0  0  0  0  0  0  0
   37.0830   28.6700   44.4420 H   0  0  0  0  0  0  0  0  0  0  0  0
   36.3890   30.1290   43.8260 H   0  0  0  0  0  0  0  0  0  0  0  0
   39.8650   31.5740   46.4760 C   0  0  0  0  0  0  0  0  0  0  0  0
   40.9200   31.7890   46.8210 H   0  0  0  0  0  0  0  0  0  0  0  0
   39.7640   30.4640   46.6610 H   0  0  0  0  0  0  0  0  0  0  0  0
   38.9320   32.2360   47.3900 C   0  0  0  0  0  0  0  0  0  0  0  0
   38.2470   32.9060   46.8330 H   0  0  0  0  0  0  0  0  0  0  0  0
   39.4540   32.9240   48.1180 H   0  0  0  0  0  0  0  0  0  0  0  0
   38.1300   31.3270   48.2420 C   0  0  0  0  0  0  0  0  0  0  0  0
   37.0400   30.6560   47.7100 C   0  0  0  0  0  0  0  0  0  0  0  0
   36.4820   29.8900   48.7070 C   0  0  0  0  0  0  0  0  0  0  0  0
   37.2260   30.1050   49.8040 N   0  0  0  0  0  0  0  0  0  0  0  0
   38.1860   30.9520   49.5030 N   0  0  0  0  0  0  0  0  0  0  0  0
   36.6040   30.6470   46.7130 H   0  0  0  0  0  0  0  0  0  0  0  0
   35.6210   29.2390   48.6500 H   0  0  0  0  0  0  0  0  0  0  0  0
   37.0390   29.5190   51.1370 C   0  0  0  0  0  0  0  0  0  0  0  0
   37.8300   28.4100   51.2830 F   0  0  0  0  0  0  0  0  0  0  0  0
   35.7190   29.1740   51.3670 F   0  0  0  0  0  0  0  0  0  0  0  0
   37.4140   30.4260   52.1150 F   0  0  0  0  0  0  0  0  0  0  0  0
  1 23  1  0  0  0  0
  2  1  1  0  0  0  0
  2  7  1  0  0  0  0
  3  2  2  0  0  0  0
  4  5  2  0  0  0  0
  4  3  1  0  0  0  0
  5  6  1  0  0  0  0
  6  1  2  0  0  0  0
  8  3  1  0  0  0  0
  9 10  1  0  0  0  0
  9 18  1  0  0  0  0
 10  5  1  0  0  0  0
 11 12  1  0  0  0  0
 11 10  2  0  0  0  0
 13 11  1  0  0  0  0
 14 13  1  0  0  0  0
 15 13  2  0  0  0  0
 15 16  1  0  0  0  0
 16  9  2  0  0  0  0
 17 20  1  0  0  0  0
 17 18  2  0  0  0  0
 18 19  1  0  0  0  0
 19 22  1  0  0  0  0
 19 21  1  0  0  0  0
 23 25  1  0  0  0  0
 23 24  1  0  0  0  0
 23 26  1  0  0  0  0
 26 28  1  0  0  0  0
 26 29  1  0  0  0  0
 27 26  1  0  0  0  0
 29 33  2  0  0  0  0
 30 29  1  0  0  0  0
 30 31  2  0  0  0  0
 31 32  1  0  0  0  0
 32 36  1  0  0  0  0
 33 32  1  0  0  0  0
 34 30  1  0  0  0  0
 35 31  1  0  0  0  0
 36 37  1  0  0  0  0
 36 38  1  0  0  0  0
 36 39  1  0  0  0  0
M  END
>  <minimizedAffinity>
-6.0324688

>  <minimizedRMSD>
0.98932004

$$$$
