
 OpenBabel03272505003D

 31 34  0  0  0  0  0  0  0  0999 V2000
   37.9550   30.1460   47.0250 Cl  0  0  0  0  0  0  0  0  0  0  0  0
   38.4470   31.6430   47.7930 C   0  0  0  0  0  0  0  0  0  0  0  0
   37.9860   31.9120   49.0510 C   0  0  0  0  0  0  0  0  0  0  0  0
   38.4160   33.1170   49.6010 C   0  0  0  0  0  0  0  0  0  0  0  0
   39.2590   33.9660   48.8850 C   0  0  0  0  0  0  0  0  0  0  0  0
   39.6960   33.6500   47.6210 C   0  0  0  0  0  0  0  0  0  0  0  0
   39.2760   32.4620   47.0720 C   0  0  0  0  0  0  0  0  0  0  0  0
   38.1130   33.4360   50.5970 H   0  0  0  0  0  0  0  0  0  0  0  0
   39.5810   34.8970   49.3320 H   0  0  0  0  0  0  0  0  0  0  0  0
   40.3500   34.3230   47.0860 H   0  0  0  0  0  0  0  0  0  0  0  0
   39.7160   32.1040   45.7510 N   0  0  0  0  0  0  0  0  0  0  0  0
   40.9280   31.6240   45.4360 C   0  0  0  0  0  0  0  0  0  0  0  0
   41.7050   31.4600   46.1870 H   0  0  0  0  0  0  0  0  0  0  0  0
   40.9440   31.4170   44.1110 N   0  0  0  0  0  0  0  0  0  0  0  0
   39.7360   31.7730   43.6180 C   0  0  0  0  0  0  0  0  0  0  0  0
   39.2810   31.7360   42.2970 C   0  0  0  0  0  0  0  0  0  0  0  0
   39.9050   31.3890   41.4840 H   0  0  0  0  0  0  0  0  0  0  0  0
   38.0150   32.1630   42.1300 N   0  0  0  0  0  0  0  0  0  0  0  0
   37.2310   32.5950   43.1340 C   0  0  0  0  0  0  0  0  0  0  0  0
   36.2130   32.9380   42.9980 H   0  0  0  0  0  0  0  0  0  0  0  0
   37.6760   32.6310   44.4240 N   0  0  0  0  0  0  0  0  0  0  0  0
   38.9310   32.2200   44.6650 C   0  0  0  0  0  0  0  0  0  0  0  0
   37.5520   30.3730   50.9640 C   0  0  0  0  0  0  0  0  0  0  0  0
   37.1020   31.0360   49.8160 C   0  0  0  0  0  0  0  0  0  0  0  0
   35.7760   30.8430   49.4080 C   0  0  0  0  0  0  0  0  0  0  0  0
   34.9880   30.0180   50.1510 N   0  0  0  0  0  0  0  0  0  0  0  0
   35.4550   29.3920   51.2570 C   0  0  0  0  0  0  0  0  0  0  0  0
   36.7400   29.5720   51.6630 N   0  0  0  0  0  0  0  0  0  0  0  0
   38.5580   30.5040   51.2970 H   0  0  0  0  0  0  0  0  0  0  0  0
   35.4550   31.3610   48.5240 H   0  0  0  0  0  0  0  0  0  0  0  0
   34.6620   28.7930   51.6840 H   0  0  0  0  0  0  0  0  0  0  0  0
  1  2  1  0  0  0  0
  2  3  1  0  0  0  0
  3  4  2  0  0  0  0
  3 24  1  0  0  0  0
  4  8  1  0  0  0  0
  5  9  1  0  0  0  0
  5  4  1  0  0  0  0
  6  5  2  0  0  0  0
  7  6  1  0  0  0  0
  7  2  2  0  0  0  0
 10  6  1  0  0  0  0
 11  7  1  0  0  0  0
 12 11  1  0  0  0  0
 12 13  1  0  0  0  0
 14 12  2  0  0  0  0
 15 14  1  0  0  0  0
 15 22  1  0  0  0  0
 16 15  2  0  0  0  0
 17 16  1  0  0  0  0
 18 16  1  0  0  0  0
 18 19  2  0  0  0  0
 19 21  1  0  0  0  0
 20 19  1  0  0  0  0
 21 22  2  0  0  0  0
 22 11  1  0  0  0  0
 23 29  1  0  0  0  0
 23 28  1  0  0  0  0
 24 23  2  0  0  0  0
 25 24  1  0  0  0  0
 25 26  2  0  0  0  0
 26 27  1  0  0  0  0
 27 28  2  0  0  0  0
 27 31  1  0  0  0  0
 30 25  1  0  0  0  0
M  END
>  <minimizedAffinity>
-6.70783806

>  <minimizedRMSD>
0.899228275

$$$$
