
 OpenBabel03272505513D

 47 51  0  0  1  0  0  0  0  0999 V2000
   35.0820   29.6560   45.4320 N   0  0  2  0  0  0  0  0  0  0  0  0
   36.4050   30.2730   45.3240 C   0  0  0  0  0  0  0  0  0  0  0  0
   36.7110   30.3990   43.8500 C   0  0  0  0  0  0  0  0  0  0  0  0
   35.5680   29.7210   43.1950 C   0  0  0  0  0  0  0  0  0  0  0  0
   34.4180   29.8970   44.2010 C   0  0  1  0  0  0  0  0  0  0  0  0
   37.1710   29.7700   45.9110 H   0  0  0  0  0  0  0  0  0  0  0  0
   36.2490   31.3290   45.6950 H   0  0  0  0  0  0  0  0  0  0  0  0
   36.8780   31.4420   43.5180 H   0  0  0  0  0  0  0  0  0  0  0  0
   37.6350   29.8060   43.6710 H   0  0  0  0  0  0  0  0  0  0  0  0
   35.3650   30.2500   42.2380 H   0  0  0  0  0  0  0  0  0  0  0  0
   35.7300   28.6730   42.9410 H   0  0  0  0  0  0  0  0  0  0  0  0
   34.1220   30.9140   43.9650 H   0  0  0  0  0  0  0  0  0  0  0  0
   37.1250   29.2120   50.3630 C   0  0  0  0  0  0  0  0  0  0  0  0
   37.2820   30.5640   50.7050 C   0  0  0  0  0  0  0  0  0  0  0  0
   36.5250   31.4860   49.9890 C   0  0  0  0  0  0  0  0  0  0  0  0
   35.6940   31.0230   49.0170 N   0  0  0  0  0  0  0  0  0  0  0  0
   35.5790   29.7300   48.7300 C   0  0  0  0  0  0  0  0  0  0  0  0
   36.2910   28.8230   49.3980 N   0  0  0  0  0  0  0  0  0  0  0  0
   34.6910   29.3170   47.7060 N   0  0  0  0  0  0  0  0  0  0  0  0
   34.0590   28.0010   47.7240 C   0  0  0  0  0  0  0  0  0  0  0  0
   32.5780   28.1490   47.6090 C   0  0  0  0  0  0  0  0  0  0  0  0
   32.1050   29.3630   47.1740 N   0  0  0  0  0  0  0  0  0  0  0  0
   32.9260   30.2690   46.4080 C   0  0  0  0  0  0  0  0  0  0  0  0
   34.3610   30.1770   46.5830 C   0  0  2  0  0  0  0  0  0  0  0  0
   37.7420   28.5600   50.9600 H   0  0  0  0  0  0  0  0  0  0  0  0
   37.9070   30.9980   51.4470 H   0  0  0  0  0  0  0  0  0  0  0  0
   36.5570   32.5520   50.1580 H   0  0  0  0  0  0  0  0  0  0  0  0
   34.5360   27.3200   47.0220 H   0  0  0  0  0  0  0  0  0  0  0  0
   34.2980   27.5600   48.7420 H   0  0  0  0  0  0  0  0  0  0  0  0
   32.0880   27.8770   48.5660 H   0  0  0  0  0  0  0  0  0  0  0  0
   32.2420   27.3400   46.8980 H   0  0  0  0  0  0  0  0  0  0  0  0
   31.2220   29.7430   47.5220 H   0  0  0  0  0  0  0  0  0  0  0  0
   32.4510   30.3260   45.4430 H   0  0  0  0  0  0  0  0  0  0  0  0
   32.6200   31.2780   46.8630 H   0  0  0  0  0  0  0  0  0  0  0  0
   34.8400   31.1790   46.8080 H   0  0  0  0  0  0  0  0  0  0  0  0
   33.4820   28.8820   43.7620 N   0  0  0  0  0  0  0  0  0  0  0  0
   32.2720   28.9380   43.1240 C   0  0  0  0  0  0  0  0  0  0  0  0
   31.8630   29.9250   42.8670 H   0  0  0  0  0  0  0  0  0  0  0  0
   31.7970   27.6950   42.9280 N   0  0  0  0  0  0  0  0  0  0  0  0
   32.6920   26.8100   43.4370 C   0  0  0  0  0  0  0  0  0  0  0  0
   32.5700   25.4370   43.4310 C   0  0  0  0  0  0  0  0  0  0  0  0
   31.7110   24.9410   43.0010 H   0  0  0  0  0  0  0  0  0  0  0  0
   33.5930   24.7600   43.9970 N   0  0  0  0  0  0  0  0  0  0  0  0
   34.6330   25.4390   44.5130 C   0  0  0  0  0  0  0  0  0  0  0  0
   35.4600   24.8790   44.9710 H   0  0  0  0  0  0  0  0  0  0  0  0
   34.6890   26.7780   44.4860 N   0  0  0  0  0  0  0  0  0  0  0  0
   33.7360   27.5520   43.9520 C   0  0  0  0  0  0  0  0  0  0  0  0
  1  2  1  6  0  0  0
  1 24  1  0  0  0  0
  2  7  1  0  0  0  0
  2  6  1  0  0  0  0
  3  2  1  0  0  0  0
  4  3  1  0  0  0  0
  4  5  1  0  0  0  0
  5 12  1  6  0  0  0
  5  1  1  0  0  0  0
  8  3  1  0  0  0  0
  9  3  1  0  0  0  0
 10  4  1  0  0  0  0
 11  4  1  0  0  0  0
 13 14  1  0  0  0  0
 13 25  1  0  0  0  0
 14 26  1  0  0  0  0
 15 27  1  0  0  0  0
 15 14  2  0  0  0  0
 16 15  1  0  0  0  0
 17 16  2  0  0  0  0
 17 18  1  0  0  0  0
 18 13  2  0  0  0  0
 19 20  1  0  0  0  0
 19 17  1  0  0  0  0
 20 29  1  0  0  0  0
 21 20  1  0  0  0  0
 21 30  1  0  0  0  0
 22 32  1  0  0  0  0
 22 21  1  0  0  0  0
 23 24  1  0  0  0  0
 23 34  1  0  0  0  0
 23 22  1  0  0  0  0
 24 35  1  1  0  0  0
 24 19  1  0  0  0  0
 28 20  1  0  0  0  0
 31 21  1  0  0  0  0
 33 23  1  0  0  0  0
 36 47  1  0  0  0  0
 36  5  1  0  0  0  0
 37 36  1  0  0  0  0
 38 37  1  0  0  0  0
 39 37  2  0  0  0  0
 39 40  1  0  0  0  0
 40 47  1  0  0  0  0
 41 40  2  0  0  0  0
 41 43  1  0  0  0  0
 42 41  1  0  0  0  0
 43 44  2  0  0  0  0
 44 45  1  0  0  0  0
 46 44  1  0  0  0  0
 47 46  2  0  0  0  0
M  END
>  <minimizedAffinity>
-4.54357815

>  <minimizedRMSD>
1.02022588

$$$$
