
 OpenBabel03262521103D

 27 29  0  0  0  0  0  0  0  0999 V2000
   35.6040   29.9760   46.1690 O   0  0  0  0  0  0  0  0  0  0  0  0
   34.3430   29.7040   46.9840 P   0  0  1  0  0  0  0  0  0  0  0  0
   34.2190   28.0640   47.3660 O   0  0  0  0  0  0  0  0  0  0  0  0
   33.9030   27.9230   48.2890 H   0  0  0  0  0  0  0  0  0  0  0  0
   34.3590   30.5580   48.4800 O   0  0  0  0  0  0  0  0  0  0  0  0
   35.3830   30.4260   49.4030 C   0  0  0  0  0  0  0  0  0  0  0  0
   35.4550   29.4700   50.4300 C   0  0  0  0  0  0  0  0  0  0  0  0
   36.5610   29.4870   51.2630 C   0  0  0  0  0  0  0  0  0  0  0  0
   37.5330   30.4250   51.0590 N   0  0  0  0  0  0  0  0  0  0  0  0
   37.4340   31.3450   50.0470 C   0  0  0  0  0  0  0  0  0  0  0  0
   36.3540   31.3290   49.2330 N   0  0  0  0  0  0  0  0  0  0  0  0
   34.6130   28.7920   50.4710 H   0  0  0  0  0  0  0  0  0  0  0  0
   36.5920   28.7550   52.0310 H   0  0  0  0  0  0  0  0  0  0  0  0
   38.2530   32.0540   49.9550 H   0  0  0  0  0  0  0  0  0  0  0  0
   33.0520   30.2380   46.0460 O   0  0  0  0  0  0  0  0  0  0  0  0
   31.8700   28.4110   47.8790 H   0  0  0  0  0  0  0  0  0  0  0  0
   31.2920   28.9140   47.1950 N   0  0  0  0  0  0  0  0  0  0  0  0
   31.7570   29.8030   46.2820 C   0  0  0  0  0  0  0  0  0  0  0  0
   30.7070   30.2490   45.5700 N   0  0  0  0  0  0  0  0  0  0  0  0
   29.5880   29.6680   46.0050 C   0  0  0  0  0  0  0  0  0  0  0  0
   28.2350   29.6780   45.7280 C   0  0  0  0  0  0  0  0  0  0  0  0
   27.9090   30.3320   44.9240 H   0  0  0  0  0  0  0  0  0  0  0  0
   27.3680   28.9060   46.4290 N   0  0  0  0  0  0  0  0  0  0  0  0
   27.7850   28.1080   47.4140 C   0  0  0  0  0  0  0  0  0  0  0  0
   27.1340   27.4690   48.0080 H   0  0  0  0  0  0  0  0  0  0  0  0
   29.0970   28.0180   47.7740 N   0  0  0  0  0  0  0  0  0  0  0  0
   29.9390   28.8080   47.0480 C   0  0  0  0  0  0  0  0  0  0  0  0
  2  1  2  6  0  0  0
  2  3  1  0  0  0  0
  2  5  1  0  0  0  0
  3  4  1  0  0  0  0
  5  6  1  0  0  0  0
  6  7  1  0  0  0  0
  7 12  1  0  0  0  0
  7  8  2  0  0  0  0
  8 13  1  0  0  0  0
  9  8  1  0  0  0  0
 10  9  2  0  0  0  0
 11  6  2  0  0  0  0
 11 10  1  0  0  0  0
 14 10  1  0  0  0  0
 15 18  1  0  0  0  0
 15  2  1  0  0  0  0
 17 16  1  0  0  0  0
 18 17  1  0  0  0  0
 19 20  1  0  0  0  0
 19 18  2  0  0  0  0
 20 27  1  0  0  0  0
 21 20  2  0  0  0  0
 21 23  1  0  0  0  0
 22 21  1  0  0  0  0
 23 24  2  0  0  0  0
 24 26  1  0  0  0  0
 24 25  1  0  0  0  0
 27 17  1  0  0  0  0
 27 26  2  0  0  0  0
M  END
>  <minimizedAffinity>
-4.6202302

>  <minimizedRMSD>
2.38181043

$$$$
