
 OpenBabel03272503483D

 27 29  0  0  0  0  0  0  0  0999 V2000
   40.7030   26.7970   34.7300 O   0  0  0  0  0  0  0  0  0  0  0  0
   39.1910   26.7110   34.8070 P   0  0  2  0  0  0  0  0  0  0  0  0
   38.7240   27.6330   36.1450 O   0  0  0  0  0  0  0  0  0  0  0  0
   39.3690   27.5160   36.8850 H   0  0  0  0  0  0  0  0  0  0  0  0
   38.6490   25.0920   35.0180 O   0  0  0  0  0  0  0  0  0  0  0  0
   38.8080   24.4100   36.2230 C   0  0  0  0  0  0  0  0  0  0  0  0
   39.7470   23.3820   36.4510 C   0  0  0  0  0  0  0  0  0  0  0  0
   39.7760   22.8050   37.7080 C   0  0  0  0  0  0  0  0  0  0  0  0
   38.9080   23.2450   38.6690 N   0  0  0  0  0  0  0  0  0  0  0  0
   38.0210   24.2370   38.4060 C   0  0  0  0  0  0  0  0  0  0  0  0
   37.9650   24.8270   37.1780 N   0  0  0  0  0  0  0  0  0  0  0  0
   40.3780   23.1230   35.6120 H   0  0  0  0  0  0  0  0  0  0  0  0
   40.5000   22.0170   37.8740 H   0  0  0  0  0  0  0  0  0  0  0  0
   37.3390   24.5670   39.1960 H   0  0  0  0  0  0  0  0  0  0  0  0
   38.4560   27.2650   33.3890 O   0  0  0  0  0  0  0  0  0  0  0  0
   37.2020   28.5520   31.3370 H   0  0  0  0  0  0  0  0  0  0  0  0
   36.8340   28.5260   32.3100 N   0  0  0  0  0  0  0  0  0  0  0  0
   37.2650   27.9670   33.4710 C   0  0  0  0  0  0  0  0  0  0  0  0
   36.3550   28.2780   34.4210 N   0  0  0  0  0  0  0  0  0  0  0  0
   35.3670   29.0170   33.8750 C   0  0  0  0  0  0  0  0  0  0  0  0
   34.2420   29.5550   34.4450 C   0  0  0  0  0  0  0  0  0  0  0  0
   34.0290   29.4170   35.4930 H   0  0  0  0  0  0  0  0  0  0  0  0
   33.4080   30.2600   33.6700 N   0  0  0  0  0  0  0  0  0  0  0  0
   33.6720   30.4340   32.3630 C   0  0  0  0  0  0  0  0  0  0  0  0
   32.9770   31.0080   31.7670 H   0  0  0  0  0  0  0  0  0  0  0  0
   34.7880   29.9010   31.7940 N   0  0  0  0  0  0  0  0  0  0  0  0
   35.6680   29.1820   32.5170 C   0  0  0  0  0  0  0  0  0  0  0  0
  2  1  2  6  0  0  0
  2  5  1  0  0  0  0
  2  3  1  0  0  0  0
  3  4  1  0  0  0  0
  5  6  1  0  0  0  0
  6  7  2  0  0  0  0
  6 11  1  0  0  0  0
  7  8  1  0  0  0  0
  8 13  1  0  0  0  0
  8  9  2  0  0  0  0
 10  9  1  0  0  0  0
 10 14  1  0  0  0  0
 11 10  2  0  0  0  0
 12  7  1  0  0  0  0
 15 18  1  0  0  0  0
 15  2  1  0  0  0  0
 16 17  1  0  0  0  0
 17 27  1  0  0  0  0
 17 18  1  0  0  0  0
 18 19  2  0  0  0  0
 20 19  1  0  0  0  0
 20 21  1  0  0  0  0
 21 22  1  0  0  0  0
 23 21  2  0  0  0  0
 24 23  1  0  0  0  0
 25 24  1  0  0  0  0
 26 24  2  0  0  0  0
 26 27  1  0  0  0  0
 27 20  2  0  0  0  0
M  END
>  <minimizedAffinity>
-5.04405832

$$$$

 OpenBabel03272503483D

 27 29  0  0  0  0  0  0  0  0999 V2000
   39.8120   26.7740   35.2600 O   0  0  0  0  0  0  0  0  0  0  0  0
   38.3030   26.8770   35.1480 P   0  0  2  0  0  0  0  0  0  0  0  0
   37.8560   28.2980   35.9480 O   0  0  0  0  0  0  0  0  0  0  0  0
   38.4070   28.4230   36.7590 H   0  0  0  0  0  0  0  0  0  0  0  0
   37.5120   25.5390   35.8860 O   0  0  0  0  0  0  0  0  0  0  0  0
   38.1970   24.6180   36.6760 C   0  0  0  0  0  0  0  0  0  0  0  0
   38.0680   24.5010   38.0760 C   0  0  0  0  0  0  0  0  0  0  0  0
   38.8220   23.5310   38.7130 C   0  0  0  0  0  0  0  0  0  0  0  0
   39.6530   22.7340   37.9740 N   0  0  0  0  0  0  0  0  0  0  0  0
   39.7460   22.8820   36.6280 C   0  0  0  0  0  0  0  0  0  0  0  0
   39.0170   23.8270   35.9690 N   0  0  0  0  0  0  0  0  0  0  0  0
   37.3790   25.1890   38.5470 H   0  0  0  0  0  0  0  0  0  0  0  0
   38.7170   23.4490   39.7870 H   0  0  0  0  0  0  0  0  0  0  0  0
   40.4190   22.2280   36.0650 H   0  0  0  0  0  0  0  0  0  0  0  0
   37.7910   26.8870   33.5380 O   0  0  0  0  0  0  0  0  0  0  0  0
   39.1160   24.5060   33.6560 H   0  0  0  0  0  0  0  0  0  0  0  0
   38.2220   24.6410   33.1410 N   0  0  0  0  0  0  0  0  0  0  0  0
   37.3950   25.7010   32.9420 C   0  0  0  0  0  0  0  0  0  0  0  0
   36.3690   25.2640   32.1780 N   0  0  0  0  0  0  0  0  0  0  0  0
   36.5420   23.9550   31.8980 C   0  0  0  0  0  0  0  0  0  0  0  0
   35.7660   23.0940   31.1640 C   0  0  0  0  0  0  0  0  0  0  0  0
   34.8540   23.4290   30.6960 H   0  0  0  0  0  0  0  0  0  0  0  0
   36.1670   21.8230   31.0370 N   0  0  0  0  0  0  0  0  0  0  0  0
   37.3050   21.4050   31.6180 C   0  0  0  0  0  0  0  0  0  0  0  0
   37.5990   20.3710   31.4950 H   0  0  0  0  0  0  0  0  0  0  0  0
   38.0770   22.2550   32.3480 N   0  0  0  0  0  0  0  0  0  0  0  0
   37.7310   23.5460   32.5140 C   0  0  0  0  0  0  0  0  0  0  0  0
  2  1  2  1  0  0  0
  2  5  1  0  0  0  0
  2  3  1  0  0  0  0
  3  4  1  0  0  0  0
  5  6  1  0  0  0  0
  6  7  1  0  0  0  0
  7 12  1  0  0  0  0
  7  8  2  0  0  0  0
  8 13  1  0  0  0  0
  9  8  1  0  0  0  0
 10  9  2  0  0  0  0
 11 10  1  0  0  0  0
 11  6  2  0  0  0  0
 14 10  1  0  0  0  0
 15  2  1  0  0  0  0
 17 16  1  0  0  0  0
 18 17  1  0  0  0  0
 18 15  1  0  0  0  0
 19 18  2  0  0  0  0
 20 19  1  0  0  0  0
 20 27  1  0  0  0  0
 21 20  2  0  0  0  0
 22 21  1  0  0  0  0
 23 21  1  0  0  0  0
 23 24  2  0  0  0  0
 24 26  1  0  0  0  0
 25 24  1  0  0  0  0
 26 27  2  0  0  0  0
 27 17  1  0  0  0  0
M  END
>  <minimizedAffinity>
-4.96777773

$$$$

 OpenBabel03272503483D

 27 29  0  0  0  0  0  0  0  0999 V2000
   39.6580   27.2600   34.2030 O   0  0  0  0  0  0  0  0  0  0  0  0
   38.3770   26.8410   34.8980 P   0  0  2  0  0  0  0  0  0  0  0  0
   38.4510   27.4720   36.4660 O   0  0  0  0  0  0  0  0  0  0  0  0
   39.3730   27.4090   36.8180 H   0  0  0  0  0  0  0  0  0  0  0  0
   38.2230   25.1290   34.9850 O   0  0  0  0  0  0  0  0  0  0  0  0
   38.6140   24.4070   36.1110 C   0  0  0  0  0  0  0  0  0  0  0  0
   39.7130   23.5240   36.1630 C   0  0  0  0  0  0  0  0  0  0  0  0
   39.9660   22.8820   37.3620 C   0  0  0  0  0  0  0  0  0  0  0  0
   39.1550   23.1240   38.4380 N   0  0  0  0  0  0  0  0  0  0  0  0
   38.1090   23.9820   38.3430 C   0  0  0  0  0  0  0  0  0  0  0  0
   37.8310   24.6310   37.1760 N   0  0  0  0  0  0  0  0  0  0  0  0
   40.2770   23.4160   35.2470 H   0  0  0  0  0  0  0  0  0  0  0  0
   40.8110   22.2060   37.3920 H   0  0  0  0  0  0  0  0  0  0  0  0
   37.4800   24.1550   39.2210 H   0  0  0  0  0  0  0  0  0  0  0  0
   37.0070   27.3890   34.0760 O   0  0  0  0  0  0  0  0  0  0  0  0
   38.5260   26.3380   32.0700 H   0  0  0  0  0  0  0  0  0  0  0  0
   37.9570   27.2030   31.9670 N   0  0  0  0  0  0  0  0  0  0  0  0
   37.1410   27.9030   32.7970 C   0  0  0  0  0  0  0  0  0  0  0  0
   36.6730   28.9590   32.0940 N   0  0  0  0  0  0  0  0  0  0  0  0
   37.1810   28.9280   30.8440 C   0  0  0  0  0  0  0  0  0  0  0  0
   36.9910   29.7820   29.7880 C   0  0  0  0  0  0  0  0  0  0  0  0
   36.3500   30.6450   29.8780 H   0  0  0  0  0  0  0  0  0  0  0  0
   37.6220   29.5220   28.6350 N   0  0  0  0  0  0  0  0  0  0  0  0
   38.4220   28.4480   28.5220 C   0  0  0  0  0  0  0  0  0  0  0  0
   38.9150   28.2680   27.5760 H   0  0  0  0  0  0  0  0  0  0  0  0
   38.6120   27.5980   29.5670 N   0  0  0  0  0  0  0  0  0  0  0  0
   38.0080   27.8020   30.7540 C   0  0  0  0  0  0  0  0  0  0  0  0
  2  1  2  6  0  0  0
  2  5  1  0  0  0  0
  2  3  1  0  0  0  0
  3  4  1  0  0  0  0
  5  6  1  0  0  0  0
  6  7  2  0  0  0  0
  6 11  1  0  0  0  0
  7  8  1  0  0  0  0
  8 13  1  0  0  0  0
  8  9  2  0  0  0  0
 10  9  1  0  0  0  0
 10 14  1  0  0  0  0
 11 10  2  0  0  0  0
 12  7  1  0  0  0  0
 15  2  1  0  0  0  0
 17 16  1  0  0  0  0
 17 18  1  0  0  0  0
 18 15  1  0  0  0  0
 19 18  2  0  0  0  0
 20 19  1  0  0  0  0
 21 22  1  0  0  0  0
 21 20  2  0  0  0  0
 23 21  1  0  0  0  0
 24 23  2  0  0  0  0
 24 26  1  0  0  0  0
 25 24  1  0  0  0  0
 26 27  2  0  0  0  0
 27 20  1  0  0  0  0
 27 17  1  0  0  0  0
M  END
>  <minimizedAffinity>
-4.94247007

$$$$

 OpenBabel03272503483D

 27 29  0  0  0  0  0  0  0  0999 V2000
   36.9550   22.8580   37.2190 O   0  0  0  0  0  0  0  0  0  0  0  0
   38.3710   23.3610   37.0170 P   0  0  2  0  0  0  0  0  0  0  0  0
   39.2780   22.7790   38.3210 O   0  0  0  0  0  0  0  0  0  0  0  0
   38.7430   22.8100   39.1520 H   0  0  0  0  0  0  0  0  0  0  0  0
   38.4460   25.0800   36.9980 O   0  0  0  0  0  0  0  0  0  0  0  0
   38.4910   25.8050   35.8080 C   0  0  0  0  0  0  0  0  0  0  0  0
   39.6670   26.3070   35.2130 C   0  0  0  0  0  0  0  0  0  0  0  0
   39.5380   27.0090   34.0270 C   0  0  0  0  0  0  0  0  0  0  0  0
   38.2950   27.1880   33.4840 N   0  0  0  0  0  0  0  0  0  0  0  0
   37.1910   26.6860   34.0910 C   0  0  0  0  0  0  0  0  0  0  0  0
   37.2810   25.9900   35.2600 N   0  0  0  0  0  0  0  0  0  0  0  0
   40.5890   26.1010   35.7380 H   0  0  0  0  0  0  0  0  0  0  0  0
   40.4460   27.3910   33.5780 H   0  0  0  0  0  0  0  0  0  0  0  0
   36.2100   26.8450   33.6310 H   0  0  0  0  0  0  0  0  0  0  0  0
   39.0160   22.8520   35.5410 O   0  0  0  0  0  0  0  0  0  0  0  0
   37.0790   20.9310   35.5790 H   0  0  0  0  0  0  0  0  0  0  0  0
   37.2740   21.5350   34.7540 N   0  0  0  0  0  0  0  0  0  0  0  0
   38.1600   22.5330   34.4990 C   0  0  0  0  0  0  0  0  0  0  0  0
   37.9370   22.9460   33.2310 N   0  0  0  0  0  0  0  0  0  0  0  0
   36.9300   22.2260   32.6940 C   0  0  0  0  0  0  0  0  0  0  0  0
   36.3600   22.2890   31.4480 C   0  0  0  0  0  0  0  0  0  0  0  0
   36.7080   22.9970   30.7130 H   0  0  0  0  0  0  0  0  0  0  0  0
   35.3580   21.4490   31.1610 N   0  0  0  0  0  0  0  0  0  0  0  0
   34.9240   20.5650   32.0760 C   0  0  0  0  0  0  0  0  0  0  0  0
   34.1130   19.9010   31.8100 H   0  0  0  0  0  0  0  0  0  0  0  0
   35.4860   20.4990   33.3140 N   0  0  0  0  0  0  0  0  0  0  0  0
   36.4980   21.3160   33.6660 C   0  0  0  0  0  0  0  0  0  0  0  0
  2  1  2  1  0  0  0
  2  3  1  0  0  0  0
  3  4  1  0  0  0  0
  5  2  1  0  0  0  0
  6  5  1  0  0  0  0
  7 12  1  0  0  0  0
  7  6  2  0  0  0  0
  8  7  1  0  0  0  0
  9  8  2  0  0  0  0
  9 10  1  0  0  0  0
 10 11  2  0  0  0  0
 11  6  1  0  0  0  0
 13  8  1  0  0  0  0
 14 10  1  0  0  0  0
 15  2  1  0  0  0  0
 17 16  1  0  0  0  0
 18 17  1  0  0  0  0
 18 15  1  0  0  0  0
 19 18  2  0  0  0  0
 20 19  1  0  0  0  0
 20 27  1  0  0  0  0
 21 20  2  0  0  0  0
 22 21  1  0  0  0  0
 23 21  1  0  0  0  0
 23 24  2  0  0  0  0
 24 26  1  0  0  0  0
 25 24  1  0  0  0  0
 26 27  2  0  0  0  0
 27 17  1  0  0  0  0
M  END
>  <minimizedAffinity>
-4.88392401

$$$$

 OpenBabel03272503483D

 27 29  0  0  0  0  0  0  0  0999 V2000
   40.4290   27.4050   34.0220 O   0  0  0  0  0  0  0  0  0  0  0  0
   39.3330   26.6810   34.7790 P   0  0  2  0  0  0  0  0  0  0  0  0
   38.9230   27.6660   36.0910 O   0  0  0  0  0  0  0  0  0  0  0  0
   39.7320   28.0900   36.4680 H   0  0  0  0  0  0  0  0  0  0  0  0
   39.8590   25.1500   35.3630 O   0  0  0  0  0  0  0  0  0  0  0  0
   38.9600   24.1420   35.7080 C   0  0  0  0  0  0  0  0  0  0  0  0
   38.1750   24.1280   36.8800 C   0  0  0  0  0  0  0  0  0  0  0  0
   37.3300   23.0490   37.0740 C   0  0  0  0  0  0  0  0  0  0  0  0
   37.2880   22.0520   36.1390 N   0  0  0  0  0  0  0  0  0  0  0  0
   38.0610   22.1070   35.0260 C   0  0  0  0  0  0  0  0  0  0  0  0
   38.9040   23.1540   34.8030 N   0  0  0  0  0  0  0  0  0  0  0  0
   38.2970   24.9730   37.5430 H   0  0  0  0  0  0  0  0  0  0  0  0
   36.7310   23.0470   37.9760 H   0  0  0  0  0  0  0  0  0  0  0  0
   38.0040   21.2940   34.2950 H   0  0  0  0  0  0  0  0  0  0  0  0
   37.9920   26.3680   33.7990 O   0  0  0  0  0  0  0  0  0  0  0  0
   36.5400   27.8830   35.5420 H   0  0  0  0  0  0  0  0  0  0  0  0
   36.5210   28.0170   34.5090 N   0  0  0  0  0  0  0  0  0  0  0  0
   37.1370   27.4050   33.4650 C   0  0  0  0  0  0  0  0  0  0  0  0
   36.7130   28.0220   32.3390 N   0  0  0  0  0  0  0  0  0  0  0  0
   35.8460   29.0040   32.6640 C   0  0  0  0  0  0  0  0  0  0  0  0
   35.1650   29.8870   31.8640 C   0  0  0  0  0  0  0  0  0  0  0  0
   35.2790   29.8680   30.7920 H   0  0  0  0  0  0  0  0  0  0  0  0
   34.3520   30.7780   32.4450 N   0  0  0  0  0  0  0  0  0  0  0  0
   34.2090   30.8030   33.7810 C   0  0  0  0  0  0  0  0  0  0  0  0
   33.5440   31.5360   34.2170 H   0  0  0  0  0  0  0  0  0  0  0  0
   34.8830   29.9290   34.5780 N   0  0  0  0  0  0  0  0  0  0  0  0
   35.7160   29.0070   34.0570 C   0  0  0  0  0  0  0  0  0  0  0  0
  2  1  2  6  0  0  0
  2  5  1  0  0  0  0
  2  3  1  0  0  0  0
  3  4  1  0  0  0  0
  5  6  1  0  0  0  0
  6  7  1  0  0  0  0
  7  8  2  0  0  0  0
  7 12  1  0  0  0  0
  8 13  1  0  0  0  0
  9  8  1  0  0  0  0
 10  9  2  0  0  0  0
 11 10  1  0  0  0  0
 11  6  2  0  0  0  0
 14 10  1  0  0  0  0
 15  2  1  0  0  0  0
 17 16  1  0  0  0  0
 18 15  1  0  0  0  0
 18 17  1  0  0  0  0
 19 20  1  0  0  0  0
 19 18  2  0  0  0  0
 20 27  1  0  0  0  0
 21 23  1  0  0  0  0
 21 20  2  0  0  0  0
 22 21  1  0  0  0  0
 23 24  2  0  0  0  0
 24 25  1  0  0  0  0
 24 26  1  0  0  0  0
 27 17  1  0  0  0  0
 27 26  2  0  0  0  0
M  END
>  <minimizedAffinity>
-4.70925093

$$$$

 OpenBabel03272503483D

 27 29  0  0  0  0  0  0  0  0999 V2000
   37.8700   25.4750   32.1050 O   0  0  0  0  0  0  0  0  0  0  0  0
   37.7790   24.0400   31.6230 P   0  0  2  0  0  0  0  0  0  0  0  0
   38.0060   24.0800   29.9480 O   0  0  0  0  0  0  0  0  0  0  0  0
   37.5590   24.8720   29.5600 H   0  0  0  0  0  0  0  0  0  0  0  0
   36.2460   23.3410   31.9710 O   0  0  0  0  0  0  0  0  0  0  0  0
   35.9980   21.9800   31.8010 C   0  0  0  0  0  0  0  0  0  0  0  0
   35.1350   21.2100   32.6090 C   0  0  0  0  0  0  0  0  0  0  0  0
   35.0000   19.8670   32.3070 C   0  0  0  0  0  0  0  0  0  0  0  0
   35.6960   19.3420   31.2530 N   0  0  0  0  0  0  0  0  0  0  0  0
   36.5150   20.1200   30.5020 C   0  0  0  0  0  0  0  0  0  0  0  0
   36.6720   21.4470   30.7720 N   0  0  0  0  0  0  0  0  0  0  0  0
   34.6410   21.7390   33.4130 H   0  0  0  0  0  0  0  0  0  0  0  0
   34.3350   19.2840   32.9320 H   0  0  0  0  0  0  0  0  0  0  0  0
   37.0580   19.6710   29.6650 H   0  0  0  0  0  0  0  0  0  0  0  0
   38.9220   23.0500   32.3770 O   0  0  0  0  0  0  0  0  0  0  0  0
   37.0900   24.0770   34.1190 H   0  0  0  0  0  0  0  0  0  0  0  0
   37.9800   23.6280   34.4190 N   0  0  0  0  0  0  0  0  0  0  0  0
   39.0220   23.0580   33.7590 C   0  0  0  0  0  0  0  0  0  0  0  0
   39.9030   22.6410   34.6960 N   0  0  0  0  0  0  0  0  0  0  0  0
   39.4290   22.9400   35.9240 C   0  0  0  0  0  0  0  0  0  0  0  0
   39.9710   22.7130   37.1630 C   0  0  0  0  0  0  0  0  0  0  0  0
   40.9250   22.2230   37.2720 H   0  0  0  0  0  0  0  0  0  0  0  0
   39.2870   23.1150   38.2420 N   0  0  0  0  0  0  0  0  0  0  0  0
   38.0980   23.7270   38.1080 C   0  0  0  0  0  0  0  0  0  0  0  0
   37.5730   24.0390   39.0010 H   0  0  0  0  0  0  0  0  0  0  0  0
   37.5570   23.9540   36.8800 N   0  0  0  0  0  0  0  0  0  0  0  0
   38.1940   23.5750   35.7550 C   0  0  0  0  0  0  0  0  0  0  0  0
  2  5  1  0  0  0  0
  2  1  2  1  0  0  0
  2 15  1  0  0  0  0
  3  2  1  0  0  0  0
  4  3  1  0  0  0  0
  6  5  1  0  0  0  0
  6  7  1  0  0  0  0
  7 12  1  0  0  0  0
  8  7  2  0  0  0  0
  8 13  1  0  0  0  0
  9  8  1  0  0  0  0
 10 11  1  0  0  0  0
 10  9  2  0  0  0  0
 11  6  2  0  0  0  0
 14 10  1  0  0  0  0
 15 18  1  0  0  0  0
 16 17  1  0  0  0  0
 17 27  1  0  0  0  0
 18 17  1  0  0  0  0
 18 19  2  0  0  0  0
 19 20  1  0  0  0  0
 20 21  1  0  0  0  0
 21 22  1  0  0  0  0
 21 23  2  0  0  0  0
 24 23  1  0  0  0  0
 24 25  1  0  0  0  0
 26 24  2  0  0  0  0
 27 20  2  0  0  0  0
 27 26  1  0  0  0  0
M  END
>  <minimizedAffinity>
-4.63141108

$$$$

 OpenBabel03272503483D

 27 29  0  0  0  0  0  0  0  0999 V2000
   36.6570   27.5010   34.9400 O   0  0  0  0  0  0  0  0  0  0  0  0
   37.8590   26.5770   34.9880 P   0  0  2  0  0  0  0  0  0  0  0  0
   39.1550   27.5030   35.5580 O   0  0  0  0  0  0  0  0  0  0  0  0
   39.1150   28.4170   35.1830 H   0  0  0  0  0  0  0  0  0  0  0  0
   38.2510   25.9520   33.4340 O   0  0  0  0  0  0  0  0  0  0  0  0
   37.3600   25.1650   32.7060 C   0  0  0  0  0  0  0  0  0  0  0  0
   36.2950   25.6640   31.9260 C   0  0  0  0  0  0  0  0  0  0  0  0
   35.4990   24.7460   31.2640 C   0  0  0  0  0  0  0  0  0  0  0  0
   35.7680   23.4110   31.3870 N   0  0  0  0  0  0  0  0  0  0  0  0
   36.8030   22.9760   32.1480 C   0  0  0  0  0  0  0  0  0  0  0  0
   37.6080   23.8520   32.8140 N   0  0  0  0  0  0  0  0  0  0  0  0
   36.1840   26.7390   31.9080 H   0  0  0  0  0  0  0  0  0  0  0  0
   34.6840   25.1380   30.6680 H   0  0  0  0  0  0  0  0  0  0  0  0
   36.9940   21.9010   32.2260 H   0  0  0  0  0  0  0  0  0  0  0  0
   37.5810   25.2330   35.9720 O   0  0  0  0  0  0  0  0  0  0  0  0
   39.8450   24.9280   34.4820 H   0  0  0  0  0  0  0  0  0  0  0  0
   39.6480   24.3820   35.3460 N   0  0  0  0  0  0  0  0  0  0  0  0
   38.6200   24.3560   36.2350 C   0  0  0  0  0  0  0  0  0  0  0  0
   38.9290   23.4280   37.1680 N   0  0  0  0  0  0  0  0  0  0  0  0
   40.1270   22.8790   36.8780 C   0  0  0  0  0  0  0  0  0  0  0  0
   40.8400   21.9070   37.5340 C   0  0  0  0  0  0  0  0  0  0  0  0
   40.4600   21.4500   38.4340 H   0  0  0  0  0  0  0  0  0  0  0  0
   42.0230   21.5340   37.0300 N   0  0  0  0  0  0  0  0  0  0  0  0
   42.4970   22.1010   35.9080 C   0  0  0  0  0  0  0  0  0  0  0  0
   43.4560   21.7760   35.5290 H   0  0  0  0  0  0  0  0  0  0  0  0
   41.7930   23.0660   35.2550 N   0  0  0  0  0  0  0  0  0  0  0  0
   40.5960   23.4860   35.7080 C   0  0  0  0  0  0  0  0  0  0  0  0
  2  1  2  6  0  0  0
  2  3  1  0  0  0  0
  2 15  1  0  0  0  0
  4  3  1  0  0  0  0
  5  2  1  0  0  0  0
  6 11  1  0  0  0  0
  6  5  1  0  0  0  0
  7  6  2  0  0  0  0
  8  9  2  0  0  0  0
  8  7  1  0  0  0  0
  9 10  1  0  0  0  0
 10 14  1  0  0  0  0
 10 11  2  0  0  0  0
 12  7  1  0  0  0  0
 13  8  1  0  0  0  0
 15 18  1  0  0  0  0
 16 17  1  0  0  0  0
 17 27  1  0  0  0  0
 17 18  1  0  0  0  0
 18 19  2  0  0  0  0
 20 19  1  0  0  0  0
 20 21  1  0  0  0  0
 21 22  1  0  0  0  0
 23 21  2  0  0  0  0
 24 23  1  0  0  0  0
 25 24  1  0  0  0  0
 26 27  1  0  0  0  0
 26 24  2  0  0  0  0
 27 20  2  0  0  0  0
M  END
>  <minimizedAffinity>
-4.62453222

$$$$

 OpenBabel03272503483D

 27 29  0  0  0  0  0  0  0  0999 V2000
   36.8520   29.4590   31.6430 O   0  0  0  0  0  0  0  0  0  0  0  0
   36.0120   28.3030   32.1510 P   0  0  2  0  0  0  0  0  0  0  0  0
   36.7860   27.7170   33.5360 O   0  0  0  0  0  0  0  0  0  0  0  0
   37.7670   27.7380   33.4160 H   0  0  0  0  0  0  0  0  0  0  0  0
   35.8920   27.0370   30.9920 O   0  0  0  0  0  0  0  0  0  0  0  0
   36.1420   25.7060   31.3210 C   0  0  0  0  0  0  0  0  0  0  0  0
   35.2300   24.6450   31.1410 C   0  0  0  0  0  0  0  0  0  0  0  0
   35.6340   23.3780   31.5220 C   0  0  0  0  0  0  0  0  0  0  0  0
   36.8840   23.2020   32.0500 N   0  0  0  0  0  0  0  0  0  0  0  0
   37.7290   24.2520   32.2050 C   0  0  0  0  0  0  0  0  0  0  0  0
   37.3630   25.5140   31.8410 N   0  0  0  0  0  0  0  0  0  0  0  0
   34.2730   24.9110   30.7140 H   0  0  0  0  0  0  0  0  0  0  0  0
   34.9270   22.5700   31.3800 H   0  0  0  0  0  0  0  0  0  0  0  0
   38.7220   24.0790   32.6310 H   0  0  0  0  0  0  0  0  0  0  0  0
   34.4250   28.7770   32.4850 O   0  0  0  0  0  0  0  0  0  0  0  0
   36.1720   30.4170   33.7900 H   0  0  0  0  0  0  0  0  0  0  0  0
   35.1920   30.2550   34.1020 N   0  0  0  0  0  0  0  0  0  0  0  0
   34.1610   29.5060   33.6330 C   0  0  0  0  0  0  0  0  0  0  0  0
   33.1180   29.6990   34.4720 N   0  0  0  0  0  0  0  0  0  0  0  0
   33.4810   30.5530   35.4520 C   0  0  0  0  0  0  0  0  0  0  0  0
   32.7640   31.0400   36.5150 C   0  0  0  0  0  0  0  0  0  0  0  0
   31.7380   30.7480   36.6750 H   0  0  0  0  0  0  0  0  0  0  0  0
   33.3670   31.8890   37.3560 N   0  0  0  0  0  0  0  0  0  0  0  0
   34.6450   32.2540   37.1590 C   0  0  0  0  0  0  0  0  0  0  0  0
   35.1010   32.9420   37.8580 H   0  0  0  0  0  0  0  0  0  0  0  0
   35.3600   31.7740   36.1040 N   0  0  0  0  0  0  0  0  0  0  0  0
   34.8130   30.9160   35.2220 C   0  0  0  0  0  0  0  0  0  0  0  0
  2  1  2  6  0  0  0
  2 15  1  0  0  0  0
  2  3  1  0  0  0  0
  4  3  1  0  0  0  0
  5  6  1  0  0  0  0
  5  2  1  0  0  0  0
  6 11  1  0  0  0  0
  7  6  2  0  0  0  0
  7  8  1  0  0  0  0
  8  9  2  0  0  0  0
  9 10  1  0  0  0  0
 10 14  1  0  0  0  0
 11 10  2  0  0  0  0
 12  7  1  0  0  0  0
 13  8  1  0  0  0  0
 15 18  1  0  0  0  0
 16 17  1  0  0  0  0
 17 27  1  0  0  0  0
 18 17  1  0  0  0  0
 18 19  2  0  0  0  0
 19 20  1  0  0  0  0
 20 21  1  0  0  0  0
 21 22  1  0  0  0  0
 21 23  2  0  0  0  0
 24 23  1  0  0  0  0
 24 25  1  0  0  0  0
 26 24  2  0  0  0  0
 27 20  2  0  0  0  0
 27 26  1  0  0  0  0
M  END
>  <minimizedAffinity>
-4.51738691

$$$$

 OpenBabel03272503483D

 27 29  0  0  0  0  0  0  0  0999 V2000
   39.3490   26.4470   34.3280 O   0  0  0  0  0  0  0  0  0  0  0  0
   38.0130   25.7790   34.0640 P   0  0  2  0  0  0  0  0  0  0  0  0
   36.8410   26.7300   34.8270 O   0  0  0  0  0  0  0  0  0  0  0  0
   37.1830   27.0670   35.6920 H   0  0  0  0  0  0  0  0  0  0  0  0
   37.9540   24.1840   34.7060 O   0  0  0  0  0  0  0  0  0  0  0  0
   38.2710   23.9090   36.0350 C   0  0  0  0  0  0  0  0  0  0  0  0
   37.4940   24.2990   37.1460 C   0  0  0  0  0  0  0  0  0  0  0  0
   37.9490   23.9460   38.4050 C   0  0  0  0  0  0  0  0  0  0  0  0
   39.1180   23.2440   38.5240 N   0  0  0  0  0  0  0  0  0  0  0  0
   39.8330   22.8900   37.4270 C   0  0  0  0  0  0  0  0  0  0  0  0
   39.4130   23.2220   36.1720 N   0  0  0  0  0  0  0  0  0  0  0  0
   36.5910   24.8500   36.9240 H   0  0  0  0  0  0  0  0  0  0  0  0
   37.3470   24.2490   39.2510 H   0  0  0  0  0  0  0  0  0  0  0  0
   40.7630   22.3280   37.5550 H   0  0  0  0  0  0  0  0  0  0  0  0
   37.7020   25.6260   32.4100 O   0  0  0  0  0  0  0  0  0  0  0  0
   36.6910   28.0260   33.2200 H   0  0  0  0  0  0  0  0  0  0  0  0
   37.0440   27.8460   32.2570 N   0  0  0  0  0  0  0  0  0  0  0  0
   37.5800   26.7660   31.6330 C   0  0  0  0  0  0  0  0  0  0  0  0
   37.8530   27.1390   30.3620 N   0  0  0  0  0  0  0  0  0  0  0  0
   37.4980   28.4280   30.1850 C   0  0  0  0  0  0  0  0  0  0  0  0
   37.5860   29.2290   29.0750 C   0  0  0  0  0  0  0  0  0  0  0  0
   37.9900   28.8530   28.1480 H   0  0  0  0  0  0  0  0  0  0  0  0
   37.1560   30.4940   29.1640 N   0  0  0  0  0  0  0  0  0  0  0  0
   36.6510   30.9640   30.3180 C   0  0  0  0  0  0  0  0  0  0  0  0
   36.3140   31.9910   30.3550 H   0  0  0  0  0  0  0  0  0  0  0  0
   36.5630   30.1730   31.4220 N   0  0  0  0  0  0  0  0  0  0  0  0
   36.9770   28.8910   31.3990 C   0  0  0  0  0  0  0  0  0  0  0  0
  2  1  2  1  0  0  0
  2  5  1  0  0  0  0
  2  3  1  0  0  0  0
  3  4  1  0  0  0  0
  5  6  1  0  0  0  0
  6 11  2  0  0  0  0
  6  7  1  0  0  0  0
  7  8  2  0  0  0  0
  8  9  1  0  0  0  0
  8 13  1  0  0  0  0
 10 14  1  0  0  0  0
 10  9  2  0  0  0  0
 11 10  1  0  0  0  0
 12  7  1  0  0  0  0
 15  2  1  0  0  0  0
 17 16  1  0  0  0  0
 18 17  1  0  0  0  0
 18 15  1  0  0  0  0
 19 18  2  0  0  0  0
 20 19  1  0  0  0  0
 20 27  1  0  0  0  0
 21 23  1  0  0  0  0
 21 20  2  0  0  0  0
 22 21  1  0  0  0  0
 23 24  2  0  0  0  0
 24 25  1  0  0  0  0
 24 26  1  0  0  0  0
 27 26  2  0  0  0  0
 27 17  1  0  0  0  0
M  END
>  <minimizedAffinity>
-4.39359379

$$$$
