
 OpenBabel03272507473D

 49 54  0  0  0  0  0  0  0  0999 V2000
   31.6450   27.4150   47.8730 N   0  0  0  0  0  0  0  0  0  0  0  0
   31.7120   27.8820   49.2140 C   0  0  0  0  0  0  0  0  0  0  0  0
   32.9040   28.6800   49.5840 C   0  0  0  0  0  0  0  0  0  0  0  0
   34.1820   28.2580   49.0100 C   0  0  0  0  0  0  0  0  0  0  0  0
   34.0250   27.6930   47.5870 C   0  0  0  0  0  0  0  0  0  0  0  0
   32.8600   26.6930   47.6210 C   0  0  0  0  0  0  0  0  0  0  0  0
   30.7840   28.4790   49.4420 H   0  0  0  0  0  0  0  0  0  0  0  0
   31.6750   26.9930   49.8790 H   0  0  0  0  0  0  0  0  0  0  0  0
   32.6580   29.6890   49.1120 H   0  0  0  0  0  0  0  0  0  0  0  0
   32.9250   28.8370   50.6700 H   0  0  0  0  0  0  0  0  0  0  0  0
   34.6620   27.4170   49.5760 H   0  0  0  0  0  0  0  0  0  0  0  0
   33.8180   28.4630   46.8460 H   0  0  0  0  0  0  0  0  0  0  0  0
   34.9330   27.0870   47.3610 H   0  0  0  0  0  0  0  0  0  0  0  0
   32.7600   26.2030   46.6430 H   0  0  0  0  0  0  0  0  0  0  0  0
   33.0660   25.8930   48.3580 H   0  0  0  0  0  0  0  0  0  0  0  0
   30.5910   27.5990   46.9220 C   0  0  0  0  0  0  0  0  0  0  0  0
   30.4250   26.8900   45.7370 C   0  0  0  0  0  0  0  0  0  0  0  0
   29.3300   27.2200   44.9460 C   0  0  0  0  0  0  0  0  0  0  0  0
   28.4870   28.2060   45.3640 N   0  0  0  0  0  0  0  0  0  0  0  0
   28.6750   28.8710   46.5130 C   0  0  0  0  0  0  0  0  0  0  0  0
   29.7200   28.5690   47.2840 N   0  0  0  0  0  0  0  0  0  0  0  0
   31.1750   26.1490   45.5550 H   0  0  0  0  0  0  0  0  0  0  0  0
   29.2380   26.6510   44.0420 H   0  0  0  0  0  0  0  0  0  0  0  0
   27.7530   29.8910   46.8880 N   0  0  0  0  0  0  0  0  0  0  0  0
   27.5730   31.1860   46.5640 C   0  0  0  0  0  0  0  0  0  0  0  0
   28.3080   31.5440   45.8380 H   0  0  0  0  0  0  0  0  0  0  0  0
   26.5180   31.6750   47.2410 N   0  0  0  0  0  0  0  0  0  0  0  0
   26.0290   30.6790   47.9990 C   0  0  0  0  0  0  0  0  0  0  0  0
   24.9490   30.7340   48.8550 C   0  0  0  0  0  0  0  0  0  0  0  0
   24.3750   31.6400   48.9910 H   0  0  0  0  0  0  0  0  0  0  0  0
   24.6200   29.5980   49.5340 N   0  0  0  0  0  0  0  0  0  0  0  0
   25.3680   28.5000   49.3270 C   0  0  0  0  0  0  0  0  0  0  0  0
   25.2110   27.5290   49.8060 H   0  0  0  0  0  0  0  0  0  0  0  0
   26.4350   28.4160   48.4930 N   0  0  0  0  0  0  0  0  0  0  0  0
   26.7980   29.5290   47.7940 C   0  0  0  0  0  0  0  0  0  0  0  0
   35.6120   29.9580   50.0530 C   0  0  0  0  0  0  0  0  0  0  0  0
   35.1950   29.3340   48.8880 C   0  0  0  0  0  0  0  0  0  0  0  0
   35.6430   29.6700   47.6380 C   0  0  0  0  0  0  0  0  0  0  0  0
   36.5740   30.7040   47.5460 C   0  0  0  0  0  0  0  0  0  0  0  0
   36.9910   31.3270   48.6940 C   0  0  0  0  0  0  0  0  0  0  0  0
   36.5350   30.9850   49.9640 C   0  0  0  0  0  0  0  0  0  0  0  0
   37.9200   32.3310   48.3890 O   0  0  0  0  0  0  0  0  0  0  0  0
   38.2940   32.0820   47.0420 C   0  0  0  0  0  0  0  0  0  0  0  0
   37.2500   31.3200   46.4890 O   0  0  0  0  0  0  0  0  0  0  0  0
   35.3410   29.7740   51.0820 H   0  0  0  0  0  0  0  0  0  0  0  0
   35.3010   29.1690   46.7700 H   0  0  0  0  0  0  0  0  0  0  0  0
   36.9160   31.5310   50.8440 H   0  0  0  0  0  0  0  0  0  0  0  0
   38.3700   33.0940   46.5550 H   0  0  0  0  0  0  0  0  0  0  0  0
   39.2800   31.5880   46.9510 H   0  0  0  0  0  0  0  0  0  0  0  0
  1  2  1  0  0  0  0
  2  7  1  0  0  0  0
  2  3  1  0  0  0  0
  2  8  1  0  0  0  0
  3 10  1  0  0  0  0
  4 11  1  0  0  0  0
  4  3  1  0  0  0  0
  5  6  1  0  0  0  0
  5  4  1  0  0  0  0
  6  1  1  0  0  0  0
  6 15  1  0  0  0  0
  9  3  1  0  0  0  0
 12  5  1  0  0  0  0
 13  5  1  0  0  0  0
 14  6  1  0  0  0  0
 16 21  1  0  0  0  0
 16  1  1  0  0  0  0
 17 16  2  0  0  0  0
 18 19  2  0  0  0  0
 18 17  1  0  0  0  0
 19 20  1  0  0  0  0
 20 24  1  0  0  0  0
 20 21  2  0  0  0  0
 22 17  1  0  0  0  0
 23 18  1  0  0  0  0
 24 35  1  0  0  0  0
 25 24  1  0  0  0  0
 25 27  2  0  0  0  0
 26 25  1  0  0  0  0
 27 28  1  0  0  0  0
 28 29  1  0  0  0  0
 29 30  1  0  0  0  0
 29 31  2  0  0  0  0
 32 31  1  0  0  0  0
 32 33  1  0  0  0  0
 34 32  2  0  0  0  0
 35 28  2  0  0  0  0
 35 34  1  0  0  0  0
 36 45  1  0  0  0  0
 37  4  1  0  0  0  0
 37 36  2  0  0  0  0
 38 37  1  0  0  0  0
 39 38  2  0  0  0  0
 39 40  1  0  0  0  0
 40 41  2  0  0  0  0
 41 36  1  0  0  0  0
 41 47  1  0  0  0  0
 42 40  1  0  0  0  0
 43 42  1  0  0  0  0
 44 43  1  0  0  0  0
 44 39  1  0  0  0  0
 46 38  1  0  0  0  0
 48 43  1  0  0  0  0
 49 43  1  0  0  0  0
M  END
>  <minimizedAffinity>
-7.29784632

>  <minimizedRMSD>
3.09326744

$$$$
