REMARK  Name = 
REMARK  3 active torsions:
REMARK  status: ('A' for Active; 'I' for Inactive)
REMARK    1  A    between atoms: N_1  and  C_11
REMARK    2  A    between atoms: C_3  and  C_15
REMARK    3  A    between atoms: N_6  and  C_21
REMARK                            x       y       z     vdW  Elec       q    Type
REMARK                         _______ _______ _______ _____ _____    ______ ____
ROOT
ATOM      1  N   UNL     1      37.368  31.058  47.141  0.00  0.00    +0.000 N 
ATOM      2  C   UNL     1      36.779  30.725  45.967  0.00  0.00    +0.000 A 
ATOM      3  C   UNL     1      37.242  31.201  44.746  0.00  0.00    +0.000 A 
ATOM      4  C   UNL     1      38.359  32.053  44.766  0.00  0.00    +0.000 A 
ATOM      5  O   UNL     1      38.809  32.506  43.690  0.00  0.00    +0.000 OA
ATOM      6  N   UNL     1      38.947  32.383  45.960  0.00  0.00    +0.000 N 
ATOM      7  C   UNL     1      38.412  31.864  47.061  0.00  0.00    +0.000 A 
ATOM      8  O   UNL     1      38.989  32.198  48.123  0.00  0.00    +0.000 OA
ATOM      9  H   UNL     1      35.915  30.066  45.947  0.00  0.00    +0.000 HD
ENDROOT
BRANCH   3  10
ATOM     10  C   UNL     1      36.644  30.873  43.468  0.00  0.00    +0.000 A 
ATOM     11  C   UNL     1      37.007  29.763  42.730  0.00  0.00    +0.000 A 
ATOM     12  C   UNL     1      36.465  29.411  41.509  0.00  0.00    +0.000 A 
ATOM     13  C   UNL     1      35.474  30.240  40.979  0.00  0.00    +0.000 A 
ATOM     14  C   UNL     1      35.141  31.340  41.748  0.00  0.00    +0.000 A 
ATOM     15  N   UNL     1      35.695  31.638  42.927  0.00  0.00    +0.000 NA
ATOM     16  H   UNL     1      37.786  29.126  43.164  0.00  0.00    +0.000 HD
ATOM     17  H   UNL     1      36.844  28.514  41.041  0.00  0.00    +0.000 HD
ATOM     18  H   UNL     1      35.052  29.977  40.039  0.00  0.00    +0.000 HD
ATOM     19  N   UNL     1      34.131  32.194  41.218  0.00  0.00    +0.000 N 
ATOM     20  C   UNL     1      34.340  33.523  40.978  0.00  0.00    +0.000 A 
ATOM     21  H   UNL     1      35.245  34.074  41.148  0.00  0.00    +0.000 HD
ATOM     22  N   UNL     1      33.247  34.145  40.475  0.00  0.00    +0.000 NA
ATOM     23  C   UNL     1      32.307  33.170  40.393  0.00  0.00    +0.000 A 
ATOM     24  C   UNL     1      31.001  33.093  39.982  0.00  0.00    +0.000 A 
ATOM     25  H   UNL     1      30.538  34.017  39.615  0.00  0.00    +0.000 HD
ATOM     26  N   UNL     1      30.294  31.942  40.017  0.00  0.00    +0.000 NA
ATOM     27  C   UNL     1      30.870  30.791  40.473  0.00  0.00    +0.000 A 
ATOM     28  H   UNL     1      30.207  29.938  40.454  0.00  0.00    +0.000 HD
ATOM     29  N   UNL     1      32.163  30.825  40.890  0.00  0.00    +0.000 NA
ATOM     30  C   UNL     1      32.853  31.982  40.848  0.00  0.00    +0.000 A 
ENDBRANCH   3  10
BRANCH   1  33
ATOM     31  C   UNL     1      37.240  29.483  50.509  0.00  0.00    +0.000 A 
ATOM     32  C   UNL     1      37.735  29.967  49.276  0.00  0.00    +0.000 A 
ATOM     33  C   UNL     1      36.895  30.573  48.366  0.00  0.00    +0.000 A 
ATOM     34  N   UNL     1      35.604  30.680  48.702  0.00  0.00    +0.000 NA
ATOM     35  C   UNL     1      35.088  30.227  49.879  0.00  0.00    +0.000 A 
ATOM     36  N   UNL     1      35.936  29.626  50.774  0.00  0.00    +0.000 NA
ATOM     37  H   UNL     1      37.902  29.008  51.222  0.00  0.00    +0.000 HD
ATOM     38  H   UNL     1      38.795  29.842  49.079  0.00  0.00    +0.000 HD
ATOM     39  H   UNL     1      34.044  30.385  50.000  0.00  0.00    +0.000 HD
ENDBRANCH   1  33
BRANCH   6  40
ATOM     40  C   UNL     1      40.097  33.262  45.968  0.00  0.00    +0.000 C 
ATOM     41  F   UNL     1      39.960  34.240  45.032  0.00  0.00    +0.000 F 
ATOM     42  F   UNL     1      41.291  32.606  45.685  0.00  0.00    +0.000 F 
ATOM     43  F   UNL     1      40.182  33.872  47.221  0.00  0.00    +0.000 F 
ENDBRANCH   6  40
TORSDOF 3
