
 OpenBabel03272501173D

 38 42  0  0  1  0  0  0  0  0999 V2000
   37.3500   25.6850   31.7900 C   0  0  0  0  0  0  0  0  0  0  0  0
   36.8390   26.6160   31.5470 H   0  0  0  0  0  0  0  0  0  0  0  0
   38.3770   25.7780   31.3320 H   0  0  0  0  0  0  0  0  0  0  0  0
   37.6130   25.4940   33.2450 C   0  0  0  0  0  0  0  0  0  0  0  0
   37.1840   26.4000   34.1990 C   0  0  0  0  0  0  0  0  0  0  0  0
   37.5410   26.0150   35.4310 N   0  0  0  0  0  0  0  0  0  0  0  0
   38.2070   24.8420   35.2470 C   0  0  0  0  0  0  0  0  0  0  0  0
   38.2430   24.5410   33.9350 N   0  0  0  0  0  0  0  0  0  0  0  0
   36.6250   27.3280   34.0280 H   0  0  0  0  0  0  0  0  0  0  0  0
   37.3580   26.4940   36.3440 H   0  0  0  0  0  0  0  0  0  0  0  0
   38.7760   24.0580   36.2930 N   0  0  0  0  0  0  0  0  0  0  0  0
   38.3790   24.0020   37.5630 C   0  0  0  0  0  0  0  0  0  0  0  0
   37.5360   24.5820   37.9390 H   0  0  0  0  0  0  0  0  0  0  0  0
   39.1730   23.1380   38.2560 N   0  0  0  0  0  0  0  0  0  0  0  0
   40.0890   22.6450   37.3930 C   0  0  0  0  0  0  0  0  0  0  0  0
   41.1160   21.7370   37.5980 C   0  0  0  0  0  0  0  0  0  0  0  0
   41.2920   21.3010   38.5640 H   0  0  0  0  0  0  0  0  0  0  0  0
   41.9150   21.3980   36.5450 N   0  0  0  0  0  0  0  0  0  0  0  0
   41.6580   21.9720   35.3430 C   0  0  0  0  0  0  0  0  0  0  0  0
   42.2090   21.7960   34.4210 H   0  0  0  0  0  0  0  0  0  0  0  0
   40.6420   22.8640   35.1580 N   0  0  0  0  0  0  0  0  0  0  0  0
   39.8280   23.2260   36.1800 C   0  0  0  0  0  0  0  0  0  0  0  0
   35.9580   23.5760   31.9440 C   0  0  1  0  0  0  0  0  0  0  0  0
   36.7280   24.4830   31.1540 C   0  0  1  0  0  0  0  0  0  0  0  0
   35.2560   24.4070   30.8510 C   0  0  0  0  0  0  0  0  0  0  0  0
   35.6250   23.8400   32.9820 H   0  0  0  0  0  0  0  0  0  0  0  0
   37.3500   24.0570   30.3340 H   0  0  0  0  0  0  0  0  0  0  0  0
   34.6310   25.2190   31.2140 H   0  0  0  0  0  0  0  0  0  0  0  0
   34.9020   23.8890   29.9410 H   0  0  0  0  0  0  0  0  0  0  0  0
   35.9060   22.0900   31.6340 C   0  0  0  0  0  0  0  0  0  0  0  0
   34.9240   21.3770   32.2980 C   0  0  0  0  0  0  0  0  0  0  0  0
   34.9110   19.9950   32.0170 C   0  0  0  0  0  0  0  0  0  0  0  0
   35.8190   19.4590   31.1470 N   0  0  0  0  0  0  0  0  0  0  0  0
   36.7690   20.2130   30.5180 C   0  0  0  0  0  0  0  0  0  0  0  0
   36.8060   21.5610   30.7730 N   0  0  0  0  0  0  0  0  0  0  0  0
   34.2320   21.8210   32.9690 H   0  0  0  0  0  0  0  0  0  0  0  0
   34.1820   19.3480   32.4850 H   0  0  0  0  0  0  0  0  0  0  0  0
   37.4770   19.7930   29.8390 H   0  0  0  0  0  0  0  0  0  0  0  0
  1  4  1  0  0  0  0
  2  1  1  0  0  0  0
  3  1  1  0  0  0  0
  4  8  1  0  0  0  0
  4  5  2  0  0  0  0
  5  6  1  0  0  0  0
  6 10  1  0  0  0  0
  7  6  1  0  0  0  0
  7 11  1  0  0  0  0
  8  7  2  0  0  0  0
  9  5  1  0  0  0  0
 11 12  1  0  0  0  0
 12 13  1  0  0  0  0
 12 14  2  0  0  0  0
 15 16  1  0  0  0  0
 15 14  1  0  0  0  0
 16 17  1  0  0  0  0
 18 16  2  0  0  0  0
 19 18  1  0  0  0  0
 20 19  1  0  0  0  0
 21 19  2  0  0  0  0
 21 22  1  0  0  0  0
 22 11  1  0  0  0  0
 22 15  2  0  0  0  0
 23 26  1  1  0  0  0
 24 27  1  6  0  0  0
 24  1  1  0  0  0  0
 24 23  1  0  0  0  0
 25 24  1  0  0  0  0
 25 28  1  0  0  0  0
 25 23  1  0  0  0  0
 29 25  1  0  0  0  0
 30 23  1  0  0  0  0
 30 31  1  0  0  0  0
 31 36  1  0  0  0  0
 32 31  2  0  0  0  0
 32 37  1  0  0  0  0
 33 32  1  0  0  0  0
 34 35  1  0  0  0  0
 34 33  2  0  0  0  0
 35 30  2  0  0  0  0
 38 34  1  0  0  0  0
M  END
>  <minimizedAffinity>
-5.98754072

$$$$

 OpenBabel03272501173D

 38 42  0  0  1  0  0  0  0  0999 V2000
   39.7030   24.7680   35.3970 C   0  0  0  0  0  0  0  0  0  0  0  0
   40.1060   24.8790   36.4030 H   0  0  0  0  0  0  0  0  0  0  0  0
   40.5890   24.5160   34.7450 H   0  0  0  0  0  0  0  0  0  0  0  0
   38.7830   23.6070   35.2300 C   0  0  0  0  0  0  0  0  0  0  0  0
   38.2730   22.9070   36.3100 C   0  0  0  0  0  0  0  0  0  0  0  0
   37.4760   21.9080   35.9100 N   0  0  0  0  0  0  0  0  0  0  0  0
   37.4840   21.9820   34.5500 C   0  0  0  0  0  0  0  0  0  0  0  0
   38.2690   23.0030   34.1570 N   0  0  0  0  0  0  0  0  0  0  0  0
   38.4630   23.0980   37.3740 H   0  0  0  0  0  0  0  0  0  0  0  0
   36.9530   21.2150   36.4960 H   0  0  0  0  0  0  0  0  0  0  0  0
   36.7660   21.1070   33.6850 N   0  0  0  0  0  0  0  0  0  0  0  0
   35.6410   20.4480   33.9600 C   0  0  0  0  0  0  0  0  0  0  0  0
   35.1410   20.5220   34.9250 H   0  0  0  0  0  0  0  0  0  0  0  0
   35.2620   19.7130   32.8770 N   0  0  0  0  0  0  0  0  0  0  0  0
   36.1760   19.9210   31.9020 C   0  0  0  0  0  0  0  0  0  0  0  0
   36.2460   19.4100   30.6160 C   0  0  0  0  0  0  0  0  0  0  0  0
   35.5020   18.7310   30.2430 H   0  0  0  0  0  0  0  0  0  0  0  0
   37.2870   19.7820   29.8170 N   0  0  0  0  0  0  0  0  0  0  0  0
   38.2050   20.6410   30.3280 C   0  0  0  0  0  0  0  0  0  0  0  0
   39.0820   21.0220   29.8070 H   0  0  0  0  0  0  0  0  0  0  0  0
   38.1200   21.1360   31.5970 N   0  0  0  0  0  0  0  0  0  0  0  0
   37.1010   20.7880   32.4210 C   0  0  0  0  0  0  0  0  0  0  0  0
   37.7820   26.3930   35.1180 C   0  0  1  0  0  0  0  0  0  0  0  0
   39.1370   26.0360   34.8410 C   0  0  1  0  0  0  0  0  0  0  0  0
   38.9220   27.2590   35.6900 C   0  0  0  0  0  0  0  0  0  0  0  0
   37.1860   25.8670   35.9080 H   0  0  0  0  0  0  0  0  0  0  0  0
   39.5440   26.2870   33.8350 H   0  0  0  0  0  0  0  0  0  0  0  0
   39.0900   27.1570   36.7590 H   0  0  0  0  0  0  0  0  0  0  0  0
   39.0850   28.2660   35.2650 H   0  0  0  0  0  0  0  0  0  0  0  0
   36.9400   27.1700   34.1200 C   0  0  0  0  0  0  0  0  0  0  0  0
   36.9210   26.6620   32.8330 C   0  0  0  0  0  0  0  0  0  0  0  0
   36.1550   27.4110   31.9170 C   0  0  0  0  0  0  0  0  0  0  0  0
   35.5040   28.5420   32.3240 N   0  0  0  0  0  0  0  0  0  0  0  0
   35.5580   28.9990   33.6110 C   0  0  0  0  0  0  0  0  0  0  0  0
   36.2960   28.2890   34.5250 N   0  0  0  0  0  0  0  0  0  0  0  0
   37.4370   25.7800   32.5460 H   0  0  0  0  0  0  0  0  0  0  0  0
   36.0750   27.0990   30.8850 H   0  0  0  0  0  0  0  0  0  0  0  0
   35.0490   29.8810   33.9280 H   0  0  0  0  0  0  0  0  0  0  0  0
  1  2  1  0  0  0  0
  3  1  1  0  0  0  0
  4  1  1  0  0  0  0
  4  5  2  0  0  0  0
  5  9  1  0  0  0  0
  6  5  1  0  0  0  0
  6 10  1  0  0  0  0
  7  6  1  0  0  0  0
  8  7  2  0  0  0  0
  8  4  1  0  0  0  0
 11 12  1  0  0  0  0
 11  7  1  0  0  0  0
 12 13  1  0  0  0  0
 14 12  2  0  0  0  0
 15 22  1  0  0  0  0
 15 14  1  0  0  0  0
 16 15  2  0  0  0  0
 17 16  1  0  0  0  0
 18 19  2  0  0  0  0
 18 16  1  0  0  0  0
 19 21  1  0  0  0  0
 20 19  1  0  0  0  0
 21 22  2  0  0  0  0
 22 11  1  0  0  0  0
 23 25  1  0  0  0  0
 23 26  1  1  0  0  0
 24 27  1  6  0  0  0
 24 23  1  0  0  0  0
 24  1  1  0  0  0  0
 24 25  1  0  0  0  0
 25 28  1  0  0  0  0
 29 25  1  0  0  0  0
 30 35  1  0  0  0  0
 30 23  1  0  0  0  0
 31 30  2  0  0  0  0
 32 33  2  0  0  0  0
 32 31  1  0  0  0  0
 33 34  1  0  0  0  0
 34 38  1  0  0  0  0
 34 35  2  0  0  0  0
 36 31  1  0  0  0  0
 37 32  1  0  0  0  0
M  END
>  <minimizedAffinity>
-5.90269804

$$$$

 OpenBabel03272501173D

 38 42  0  0  1  0  0  0  0  0999 V2000
   38.6120   26.8810   32.9890 C   0  0  0  0  0  0  0  0  0  0  0  0
   38.7650   26.0780   32.2680 H   0  0  0  0  0  0  0  0  0  0  0  0
   39.3540   27.6830   32.7060 H   0  0  0  0  0  0  0  0  0  0  0  0
   37.2860   27.5540   32.8820 C   0  0  0  0  0  0  0  0  0  0  0  0
   36.5130   27.4870   31.7360 C   0  0  0  0  0  0  0  0  0  0  0  0
   35.3700   28.1700   31.8790 N   0  0  0  0  0  0  0  0  0  0  0  0
   35.4260   28.6780   33.1420 C   0  0  0  0  0  0  0  0  0  0  0  0
   36.5770   28.3010   33.7310 N   0  0  0  0  0  0  0  0  0  0  0  0
   36.7530   26.9610   30.8040 H   0  0  0  0  0  0  0  0  0  0  0  0
   34.5940   28.2980   31.1880 H   0  0  0  0  0  0  0  0  0  0  0  0
   34.4130   29.4820   33.7390 N   0  0  0  0  0  0  0  0  0  0  0  0
   33.1110   29.4790   33.4560 C   0  0  0  0  0  0  0  0  0  0  0  0
   32.6790   28.8250   32.6990 H   0  0  0  0  0  0  0  0  0  0  0  0
   32.4670   30.3900   34.2400 N   0  0  0  0  0  0  0  0  0  0  0  0
   33.3940   30.9740   35.0320 C   0  0  0  0  0  0  0  0  0  0  0  0
   33.2560   31.9570   35.9980 C   0  0  0  0  0  0  0  0  0  0  0  0
   32.2970   32.3850   36.2260 H   0  0  0  0  0  0  0  0  0  0  0  0
   34.3650   32.3820   36.6690 N   0  0  0  0  0  0  0  0  0  0  0  0
   35.5560   31.8140   36.3500 C   0  0  0  0  0  0  0  0  0  0  0  0
   36.5180   32.0530   36.8000 H   0  0  0  0  0  0  0  0  0  0  0  0
   35.6750   30.8460   35.3950 N   0  0  0  0  0  0  0  0  0  0  0  0
   34.5960   30.3990   34.7080 C   0  0  0  0  0  0  0  0  0  0  0  0
   39.5080   25.2050   34.6610 C   0  0  1  0  0  0  0  0  0  0  0  0
   38.9490   26.4910   34.3920 C   0  0  1  0  0  0  0  0  0  0  0  0
   40.3640   26.4640   34.9010 C   0  0  0  0  0  0  0  0  0  0  0  0
   39.9010   24.5530   33.8370 H   0  0  0  0  0  0  0  0  0  0  0  0
   38.2400   26.9140   35.1410 H   0  0  0  0  0  0  0  0  0  0  0  0
   41.1560   26.6330   34.1750 H   0  0  0  0  0  0  0  0  0  0  0  0
   40.5870   26.7610   35.9420 H   0  0  0  0  0  0  0  0  0  0  0  0
   39.2290   24.4660   35.9580 C   0  0  0  0  0  0  0  0  0  0  0  0
   38.1220   24.9010   36.6650 C   0  0  0  0  0  0  0  0  0  0  0  0
   37.8960   24.2190   37.8790 C   0  0  0  0  0  0  0  0  0  0  0  0
   38.7360   23.2150   38.2740 N   0  0  0  0  0  0  0  0  0  0  0  0
   39.8160   22.8270   37.5330 C   0  0  0  0  0  0  0  0  0  0  0  0
   40.0610   23.4720   36.3480 N   0  0  0  0  0  0  0  0  0  0  0  0
   37.4880   25.6840   36.3330 H   0  0  0  0  0  0  0  0  0  0  0  0
   37.0570   24.4830   38.5070 H   0  0  0  0  0  0  0  0  0  0  0  0
   40.4710   22.0430   37.8430 H   0  0  0  0  0  0  0  0  0  0  0  0
  1 24  1  0  0  0  0
  2  1  1  0  0  0  0
  3  1  1  0  0  0  0
  4  1  1  0  0  0  0
  4  8  1  0  0  0  0
  5  6  1  0  0  0  0
  5  4  2  0  0  0  0
  6  7  1  0  0  0  0
  7  8  2  0  0  0  0
  7 11  1  0  0  0  0
  9  5  1  0  0  0  0
 10  6  1  0  0  0  0
 11 22  1  0  0  0  0
 12 11  1  0  0  0  0
 12 14  2  0  0  0  0
 13 12  1  0  0  0  0
 14 15  1  0  0  0  0
 15 16  1  0  0  0  0
 16 17  1  0  0  0  0
 16 18  2  0  0  0  0
 19 18  1  0  0  0  0
 19 20  1  0  0  0  0
 21 19  2  0  0  0  0
 22 15  2  0  0  0  0
 22 21  1  0  0  0  0
 23 26  1  6  0  0  0
 23 25  1  0  0  0  0
 23 30  1  0  0  0  0
 24 23  1  0  0  0  0
 24 25  1  0  0  0  0
 24 27  1  1  0  0  0
 25 29  1  0  0  0  0
 28 25  1  0  0  0  0
 30 35  2  0  0  0  0
 30 31  1  0  0  0  0
 31 32  2  0  0  0  0
 32 33  1  0  0  0  0
 32 37  1  0  0  0  0
 34 38  1  0  0  0  0
 34 33  2  0  0  0  0
 35 34  1  0  0  0  0
 36 31  1  0  0  0  0
M  END
>  <minimizedAffinity>
-5.84799051

$$$$

 OpenBabel03272501173D

 38 42  0  0  1  0  0  0  0  0999 V2000
   35.8630   29.4640   34.5460 C   0  0  0  0  0  0  0  0  0  0  0  0
   36.1980   29.9150   35.4800 H   0  0  0  0  0  0  0  0  0  0  0  0
   36.2310   30.1530   33.7310 H   0  0  0  0  0  0  0  0  0  0  0  0
   36.5060   28.1550   34.2350 C   0  0  0  0  0  0  0  0  0  0  0  0
   36.4440   27.5810   32.9770 C   0  0  0  0  0  0  0  0  0  0  0  0
   37.0910   26.4080   32.9450 N   0  0  0  0  0  0  0  0  0  0  0  0
   37.5690   26.2420   34.2090 C   0  0  0  0  0  0  0  0  0  0  0  0
   37.2120   27.2940   34.9710 N   0  0  0  0  0  0  0  0  0  0  0  0
   35.9460   27.9850   32.0870 H   0  0  0  0  0  0  0  0  0  0  0  0
   37.2140   25.7520   32.1380 H   0  0  0  0  0  0  0  0  0  0  0  0
   38.3310   25.1210   34.6480 N   0  0  0  0  0  0  0  0  0  0  0  0
   39.1180   24.3430   33.9060 C   0  0  0  0  0  0  0  0  0  0  0  0
   39.2580   24.5020   32.8380 H   0  0  0  0  0  0  0  0  0  0  0  0
   39.6770   23.3760   34.6870 N   0  0  0  0  0  0  0  0  0  0  0  0
   39.2250   23.5580   35.9490 C   0  0  0  0  0  0  0  0  0  0  0  0
   39.4920   22.8470   37.1070 C   0  0  0  0  0  0  0  0  0  0  0  0
   40.1510   21.9990   37.1030 H   0  0  0  0  0  0  0  0  0  0  0  0
   38.9000   23.2410   38.2720 N   0  0  0  0  0  0  0  0  0  0  0  0
   38.0740   24.3170   38.2320 C   0  0  0  0  0  0  0  0  0  0  0  0
   37.5370   24.7410   39.0790 H   0  0  0  0  0  0  0  0  0  0  0  0
   37.8220   25.0070   37.0820 N   0  0  0  0  0  0  0  0  0  0  0  0
   38.3910   24.6450   35.9050 C   0  0  0  0  0  0  0  0  0  0  0  0
   33.5620   30.3170   35.1660 C   0  0  1  0  0  0  0  0  0  0  0  0
   34.3760   29.4230   34.4050 C   0  0  1  0  0  0  0  0  0  0  0  0
   33.6130   30.4650   33.6330 C   0  0  0  0  0  0  0  0  0  0  0  0
   34.0040   31.1930   35.7100 H   0  0  0  0  0  0  0  0  0  0  0  0
   33.9860   28.3950   34.2240 H   0  0  0  0  0  0  0  0  0  0  0  0
   34.1740   31.3210   33.2670 H   0  0  0  0  0  0  0  0  0  0  0  0
   32.7220   30.1790   33.0450 H   0  0  0  0  0  0  0  0  0  0  0  0
   32.1740   29.9270   35.6430 C   0  0  0  0  0  0  0  0  0  0  0  0
   31.3560   30.9770   36.0200 C   0  0  0  0  0  0  0  0  0  0  0  0
   30.0820   30.5920   36.4840 C   0  0  0  0  0  0  0  0  0  0  0  0
   29.7350   29.2700   36.5330 N   0  0  0  0  0  0  0  0  0  0  0  0
   30.5860   28.2720   36.1460 C   0  0  0  0  0  0  0  0  0  0  0  0
   31.8330   28.6180   35.6910 N   0  0  0  0  0  0  0  0  0  0  0  0
   31.6530   31.9950   35.9700 H   0  0  0  0  0  0  0  0  0  0  0  0
   29.3670   31.3370   36.8030 H   0  0  0  0  0  0  0  0  0  0  0  0
   30.3140   27.2410   36.1850 H   0  0  0  0  0  0  0  0  0  0  0  0
  1  2  1  0  0  0  0
  3  1  1  0  0  0  0
  4  1  1  0  0  0  0
  4  8  1  0  0  0  0
  5  4  2  0  0  0  0
  6  5  1  0  0  0  0
  6  7  1  0  0  0  0
  7 11  1  0  0  0  0
  7  8  2  0  0  0  0
  9  5  1  0  0  0  0
 10  6  1  0  0  0  0
 11 22  1  0  0  0  0
 12 11  1  0  0  0  0
 12 14  2  0  0  0  0
 13 12  1  0  0  0  0
 14 15  1  0  0  0  0
 15 16  1  0  0  0  0
 16 18  2  0  0  0  0
 17 16  1  0  0  0  0
 19 18  1  0  0  0  0
 19 20  1  0  0  0  0
 21 19  2  0  0  0  0
 22 15  2  0  0  0  0
 22 21  1  0  0  0  0
 23 30  1  0  0  0  0
 23 26  1  1  0  0  0
 24 27  1  6  0  0  0
 24  1  1  0  0  0  0
 24 23  1  0  0  0  0
 25 24  1  0  0  0  0
 25 23  1  0  0  0  0
 28 25  1  0  0  0  0
 29 25  1  0  0  0  0
 30 35  2  0  0  0  0
 30 31  1  0  0  0  0
 31 32  2  0  0  0  0
 32 33  1  0  0  0  0
 32 37  1  0  0  0  0
 34 38  1  0  0  0  0
 34 33  2  0  0  0  0
 35 34  1  0  0  0  0
 36 31  1  0  0  0  0
M  END
>  <minimizedAffinity>
-5.50927067

$$$$

 OpenBabel03272501173D

 38 42  0  0  1  0  0  0  0  0999 V2000
   37.9750   25.2980   36.2250 C   0  0  0  0  0  0  0  0  0  0  0  0
   38.3100   25.8730   37.0880 H   0  0  0  0  0  0  0  0  0  0  0  0
   36.9900   24.8420   36.5330 H   0  0  0  0  0  0  0  0  0  0  0  0
   37.6370   26.1270   35.0320 C   0  0  0  0  0  0  0  0  0  0  0  0
   38.2040   25.8990   33.7900 C   0  0  0  0  0  0  0  0  0  0  0  0
   37.7480   26.7710   32.8800 N   0  0  0  0  0  0  0  0  0  0  0  0
   36.8780   27.5620   33.5650 C   0  0  0  0  0  0  0  0  0  0  0  0
   36.8200   27.1660   34.8510 N   0  0  0  0  0  0  0  0  0  0  0  0
   38.9340   25.1250   33.5250 H   0  0  0  0  0  0  0  0  0  0  0  0
   37.9940   26.8430   31.8650 H   0  0  0  0  0  0  0  0  0  0  0  0
   36.1430   28.6420   32.9970 N   0  0  0  0  0  0  0  0  0  0  0  0
   35.7630   28.7780   31.7270 C   0  0  0  0  0  0  0  0  0  0  0  0
   35.9920   28.0330   30.9660 H   0  0  0  0  0  0  0  0  0  0  0  0
   35.0790   29.9460   31.5730 N   0  0  0  0  0  0  0  0  0  0  0  0
   35.0320   30.5540   32.7800 C   0  0  0  0  0  0  0  0  0  0  0  0
   34.4570   31.7570   33.1550 C   0  0  0  0  0  0  0  0  0  0  0  0
   33.9420   32.3770   32.4440 H   0  0  0  0  0  0  0  0  0  0  0  0
   34.5500   32.1530   34.4580 N   0  0  0  0  0  0  0  0  0  0  0  0
   35.2080   31.3400   35.3230 C   0  0  0  0  0  0  0  0  0  0  0  0
   35.3600   31.5270   36.3840 H   0  0  0  0  0  0  0  0  0  0  0  0
   35.7700   30.1580   34.9360 N   0  0  0  0  0  0  0  0  0  0  0  0
   35.6980   29.7310   33.6510 C   0  0  0  0  0  0  0  0  0  0  0  0
   39.4360   23.3590   36.9400 C   0  0  1  0  0  0  0  0  0  0  0  0
   38.8710   24.1480   35.8930 C   0  0  1  0  0  0  0  0  0  0  0  0
   38.4100   22.7190   35.9840 C   0  0  0  0  0  0  0  0  0  0  0  0
   39.0690   23.4370   37.9970 H   0  0  0  0  0  0  0  0  0  0  0  0
   39.4940   24.3330   34.9880 H   0  0  0  0  0  0  0  0  0  0  0  0
   37.4260   22.5410   36.4110 H   0  0  0  0  0  0  0  0  0  0  0  0
   38.7660   21.9730   35.2510 H   0  0  0  0  0  0  0  0  0  0  0  0
   40.8040   22.7110   36.8040 C   0  0  0  0  0  0  0  0  0  0  0  0
   41.6930   23.3660   35.9710 C   0  0  0  0  0  0  0  0  0  0  0  0
   42.9470   22.7350   35.8380 C   0  0  0  0  0  0  0  0  0  0  0  0
   43.2080   21.5700   36.5050 N   0  0  0  0  0  0  0  0  0  0  0  0
   42.2890   20.9670   37.3180 C   0  0  0  0  0  0  0  0  0  0  0  0
   41.0600   21.5590   37.4660 N   0  0  0  0  0  0  0  0  0  0  0  0
   41.4620   24.2700   35.4650 H   0  0  0  0  0  0  0  0  0  0  0  0
   43.7130   23.1650   35.2090 H   0  0  0  0  0  0  0  0  0  0  0  0
   42.4940   20.0580   37.8380 H   0  0  0  0  0  0  0  0  0  0  0  0
  1  3  1  0  0  0  0
  1  2  1  0  0  0  0
  4  1  1  0  0  0  0
  5  4  2  0  0  0  0
  6  7  1  0  0  0  0
  6  5  1  0  0  0  0
  7  8  2  0  0  0  0
  8  4  1  0  0  0  0
  9  5  1  0  0  0  0
 10  6  1  0  0  0  0
 11  7  1  0  0  0  0
 11 22  1  0  0  0  0
 12 11  1  0  0  0  0
 13 12  1  0  0  0  0
 14 12  2  0  0  0  0
 14 15  1  0  0  0  0
 15 16  2  0  0  0  0
 15 22  1  0  0  0  0
 16 18  1  0  0  0  0
 17 16  1  0  0  0  0
 18 19  2  0  0  0  0
 19 20  1  0  0  0  0
 21 19  1  0  0  0  0
 22 21  2  0  0  0  0
 23 26  1  1  0  0  0
 24 27  1  6  0  0  0
 24 25  1  0  0  0  0
 24  1  1  0  0  0  0
 24 23  1  0  0  0  0
 25 28  1  0  0  0  0
 25 23  1  0  0  0  0
 29 25  1  0  0  0  0
 30 23  1  0  0  0  0
 30 35  1  0  0  0  0
 31 30  2  0  0  0  0
 32 31  1  0  0  0  0
 32 33  2  0  0  0  0
 33 34  1  0  0  0  0
 34 35  2  0  0  0  0
 34 38  1  0  0  0  0
 36 31  1  0  0  0  0
 37 32  1  0  0  0  0
M  END
>  <minimizedAffinity>
-5.36015415

$$$$

 OpenBabel03272501173D

 38 42  0  0  1  0  0  0  0  0999 V2000
   36.5770   28.6760   32.0700 C   0  0  0  0  0  0  0  0  0  0  0  0
   37.5390   29.1830   31.9920 H   0  0  0  0  0  0  0  0  0  0  0  0
   36.0480   28.8880   31.0950 H   0  0  0  0  0  0  0  0  0  0  0  0
   36.6710   27.1890   32.1210 C   0  0  0  0  0  0  0  0  0  0  0  0
   35.9680   26.3740   31.2500 C   0  0  0  0  0  0  0  0  0  0  0  0
   36.2120   25.0790   31.4930 N   0  0  0  0  0  0  0  0  0  0  0  0
   37.0860   25.0810   32.5370 C   0  0  0  0  0  0  0  0  0  0  0  0
   37.3530   26.3500   32.9030 N   0  0  0  0  0  0  0  0  0  0  0  0
   35.2870   26.6880   30.4500 H   0  0  0  0  0  0  0  0  0  0  0  0
   35.8270   24.2390   31.0010 H   0  0  0  0  0  0  0  0  0  0  0  0
   37.6310   23.9120   33.1420 N   0  0  0  0  0  0  0  0  0  0  0  0
   37.8240   22.7250   32.5690 C   0  0  0  0  0  0  0  0  0  0  0  0
   37.5680   22.5290   31.5280 H   0  0  0  0  0  0  0  0  0  0  0  0
   38.3650   21.8600   33.4730 N   0  0  0  0  0  0  0  0  0  0  0  0
   38.5130   22.5280   34.6390 C   0  0  0  0  0  0  0  0  0  0  0  0
   39.0150   22.1030   35.8580 C   0  0  0  0  0  0  0  0  0  0  0  0
   39.3680   21.0970   35.9970 H   0  0  0  0  0  0  0  0  0  0  0  0
   39.0580   22.9870   36.8970 N   0  0  0  0  0  0  0  0  0  0  0  0
   38.6030   24.2460   36.6780 C   0  0  0  0  0  0  0  0  0  0  0  0
   38.5770   25.0520   37.4100 H   0  0  0  0  0  0  0  0  0  0  0  0
   38.1120   24.6500   35.4700 N   0  0  0  0  0  0  0  0  0  0  0  0
   38.0520   23.8000   34.4150 C   0  0  0  0  0  0  0  0  0  0  0  0
   35.1740   30.5580   33.0170 C   0  0  1  0  0  0  0  0  0  0  0  0
   35.6970   29.2350   33.1410 C   0  0  1  0  0  0  0  0  0  0  0  0
   34.2070   29.3590   32.9730 C   0  0  0  0  0  0  0  0  0  0  0  0
   35.2250   31.1210   32.0480 H   0  0  0  0  0  0  0  0  0  0  0  0
   35.9790   28.8830   34.1600 H   0  0  0  0  0  0  0  0  0  0  0  0
   33.7970   29.1280   31.9930 H   0  0  0  0  0  0  0  0  0  0  0  0
   33.5350   29.1900   33.8340 H   0  0  0  0  0  0  0  0  0  0  0  0
   34.9190   31.4350   34.2310 C   0  0  0  0  0  0  0  0  0  0  0  0
   35.6410   31.1070   35.3650 C   0  0  0  0  0  0  0  0  0  0  0  0
   35.3700   31.9160   36.4880 C   0  0  0  0  0  0  0  0  0  0  0  0
   34.4590   32.9310   36.4040 N   0  0  0  0  0  0  0  0  0  0  0  0
   33.7740   33.2110   35.2540 C   0  0  0  0  0  0  0  0  0  0  0  0
   34.0160   32.4400   34.1460 N   0  0  0  0  0  0  0  0  0  0  0  0
   36.3420   30.3120   35.4000 H   0  0  0  0  0  0  0  0  0  0  0  0
   35.8810   31.7420   37.4240 H   0  0  0  0  0  0  0  0  0  0  0  0
   33.0630   34.0040   35.1900 H   0  0  0  0  0  0  0  0  0  0  0  0
  1  4  1  0  0  0  0
  1 24  1  0  0  0  0
  2  1  1  0  0  0  0
  3  1  1  0  0  0  0
  4  8  1  0  0  0  0
  5  6  1  0  0  0  0
  5  4  2  0  0  0  0
  6  7  1  0  0  0  0
  7  8  2  0  0  0  0
  7 11  1  0  0  0  0
  9  5  1  0  0  0  0
 10  6  1  0  0  0  0
 11 22  1  0  0  0  0
 12 11  1  0  0  0  0
 12 14  2  0  0  0  0
 13 12  1  0  0  0  0
 14 15  1  0  0  0  0
 15 16  1  0  0  0  0
 16 17  1  0  0  0  0
 16 18  2  0  0  0  0
 19 18  1  0  0  0  0
 19 20  1  0  0  0  0
 21 19  2  0  0  0  0
 22 15  2  0  0  0  0
 22 21  1  0  0  0  0
 23 26  1  6  0  0  0
 23 24  1  0  0  0  0
 23 30  1  0  0  0  0
 24 27  1  1  0  0  0
 25 23  1  0  0  0  0
 25 24  1  0  0  0  0
 25 29  1  0  0  0  0
 28 25  1  0  0  0  0
 30 31  1  0  0  0  0
 31 36  1  0  0  0  0
 31 32  2  0  0  0  0
 32 37  1  0  0  0  0
 33 32  1  0  0  0  0
 34 33  2  0  0  0  0
 35 30  2  0  0  0  0
 35 34  1  0  0  0  0
 38 34  1  0  0  0  0
M  END
>  <minimizedAffinity>
-5.35438013

$$$$

 OpenBabel03272501173D

 38 42  0  0  1  0  0  0  0  0999 V2000
   36.9720   28.6840   31.6540 C   0  0  0  0  0  0  0  0  0  0  0  0
   37.8580   29.1170   32.1180 H   0  0  0  0  0  0  0  0  0  0  0  0
   37.1130   28.8290   30.5440 H   0  0  0  0  0  0  0  0  0  0  0  0
   36.8550   27.2070   31.8200 C   0  0  0  0  0  0  0  0  0  0  0  0
   35.9520   26.4510   31.0940 C   0  0  0  0  0  0  0  0  0  0  0  0
   36.0320   25.1530   31.4180 N   0  0  0  0  0  0  0  0  0  0  0  0
   37.0060   25.0930   32.3670 C   0  0  0  0  0  0  0  0  0  0  0  0
   37.4910   26.3280   32.5980 N   0  0  0  0  0  0  0  0  0  0  0  0
   35.2390   26.8100   30.3410 H   0  0  0  0  0  0  0  0  0  0  0  0
   35.4780   24.3490   31.0380 H   0  0  0  0  0  0  0  0  0  0  0  0
   37.4400   23.8990   33.0110 N   0  0  0  0  0  0  0  0  0  0  0  0
   37.3960   22.6600   32.5240 C   0  0  0  0  0  0  0  0  0  0  0  0
   37.0020   22.4350   31.5330 H   0  0  0  0  0  0  0  0  0  0  0  0
   37.9030   21.7860   33.4390 N   0  0  0  0  0  0  0  0  0  0  0  0
   38.2730   22.5020   34.5250 C   0  0  0  0  0  0  0  0  0  0  0  0
   38.8390   22.0890   35.7200 C   0  0  0  0  0  0  0  0  0  0  0  0
   39.0560   21.0530   35.9070 H   0  0  0  0  0  0  0  0  0  0  0  0
   39.1220   23.0240   36.6720 N   0  0  0  0  0  0  0  0  0  0  0  0
   38.8320   24.3210   36.3940 C   0  0  0  0  0  0  0  0  0  0  0  0
   39.0020   25.1680   37.0560 H   0  0  0  0  0  0  0  0  0  0  0  0
   38.2740   24.7110   35.2120 N   0  0  0  0  0  0  0  0  0  0  0  0
   37.9780   23.8100   34.2420 C   0  0  0  0  0  0  0  0  0  0  0  0
   35.3040   29.5190   33.3660 C   0  0  1  0  0  0  0  0  0  0  0  0
   35.7080   29.4030   32.0010 C   0  0  1  0  0  0  0  0  0  0  0  0
   35.7080   30.7880   32.5900 C   0  0  0  0  0  0  0  0  0  0  0  0
   36.0040   29.2730   34.2080 H   0  0  0  0  0  0  0  0  0  0  0  0
   34.9110   29.2710   31.2340 H   0  0  0  0  0  0  0  0  0  0  0  0
   36.6710   31.2120   32.8610 H   0  0  0  0  0  0  0  0  0  0  0  0
   34.9190   31.5100   32.3120 H   0  0  0  0  0  0  0  0  0  0  0  0
   33.8390   29.5540   33.7670 C   0  0  0  0  0  0  0  0  0  0  0  0
   33.5810   30.0320   35.0400 C   0  0  0  0  0  0  0  0  0  0  0  0
   32.2190   30.0310   35.4020 C   0  0  0  0  0  0  0  0  0  0  0  0
   31.2710   29.5830   34.5240 N   0  0  0  0  0  0  0  0  0  0  0  0
   31.5850   29.1210   33.2770 C   0  0  0  0  0  0  0  0  0  0  0  0
   32.9030   29.1100   32.8970 N   0  0  0  0  0  0  0  0  0  0  0  0
   34.3390   30.3730   35.7000 H   0  0  0  0  0  0  0  0  0  0  0  0
   31.9110   30.3850   36.3750 H   0  0  0  0  0  0  0  0  0  0  0  0
   30.8440   28.7720   32.5920 H   0  0  0  0  0  0  0  0  0  0  0  0
  1  4  1  0  0  0  0
  1 24  1  0  0  0  0
  1  2  1  0  0  0  0
  3  1  1  0  0  0  0
  4  8  1  0  0  0  0
  5  6  1  0  0  0  0
  5  4  2  0  0  0  0
  6  7  1  0  0  0  0
  7  8  2  0  0  0  0
  7 11  1  0  0  0  0
  9  5  1  0  0  0  0
 10  6  1  0  0  0  0
 11 22  1  0  0  0  0
 12 11  1  0  0  0  0
 12 14  2  0  0  0  0
 13 12  1  0  0  0  0
 14 15  1  0  0  0  0
 15 16  1  0  0  0  0
 16 17  1  0  0  0  0
 16 18  2  0  0  0  0
 19 18  1  0  0  0  0
 19 20  1  0  0  0  0
 21 19  2  0  0  0  0
 22 15  2  0  0  0  0
 22 21  1  0  0  0  0
 23 30  1  0  0  0  0
 23 26  1  1  0  0  0
 24 27  1  6  0  0  0
 24 25  1  0  0  0  0
 24 23  1  0  0  0  0
 25 28  1  0  0  0  0
 25 23  1  0  0  0  0
 29 25  1  0  0  0  0
 30 31  1  0  0  0  0
 31 32  2  0  0  0  0
 31 36  1  0  0  0  0
 32 37  1  0  0  0  0
 33 32  1  0  0  0  0
 34 33  2  0  0  0  0
 35 34  1  0  0  0  0
 35 30  2  0  0  0  0
 38 34  1  0  0  0  0
M  END
>  <minimizedAffinity>
-5.34638262

$$$$

 OpenBabel03272501173D

 38 42  0  0  1  0  0  0  0  0999 V2000
   34.6050   29.7400   34.4620 C   0  0  0  0  0  0  0  0  0  0  0  0
   33.7120   29.7320   33.8370 H   0  0  0  0  0  0  0  0  0  0  0  0
   34.3020   29.2310   35.4230 H   0  0  0  0  0  0  0  0  0  0  0  0
   35.7240   28.9030   33.9410 C   0  0  0  0  0  0  0  0  0  0  0  0
   36.0790   28.8940   32.6040 C   0  0  0  0  0  0  0  0  0  0  0  0
   37.1080   28.0650   32.3790 N   0  0  0  0  0  0  0  0  0  0  0  0
   37.4050   27.5430   33.6010 C   0  0  0  0  0  0  0  0  0  0  0  0
   36.5700   28.0530   34.5270 N   0  0  0  0  0  0  0  0  0  0  0  0
   35.6170   29.4660   31.7900 H   0  0  0  0  0  0  0  0  0  0  0  0
   37.5900   27.8530   31.4740 H   0  0  0  0  0  0  0  0  0  0  0  0
   38.4450   26.6020   33.8520 N   0  0  0  0  0  0  0  0  0  0  0  0
   39.5700   26.4420   33.1570 C   0  0  0  0  0  0  0  0  0  0  0  0
   39.8100   27.0510   32.2850 H   0  0  0  0  0  0  0  0  0  0  0  0
   40.3120   25.4410   33.7060 N   0  0  0  0  0  0  0  0  0  0  0  0
   39.6300   24.9650   34.7720 C   0  0  0  0  0  0  0  0  0  0  0  0
   39.9500   23.9520   35.6620 C   0  0  0  0  0  0  0  0  0  0  0  0
   40.8670   23.3990   35.5720 H   0  0  0  0  0  0  0  0  0  0  0  0
   39.0770   23.6600   36.6690 N   0  0  0  0  0  0  0  0  0  0  0  0
   37.9320   24.3840   36.7460 C   0  0  0  0  0  0  0  0  0  0  0  0
   37.1490   24.2620   37.4920 H   0  0  0  0  0  0  0  0  0  0  0  0
   37.6310   25.3790   35.8610 N   0  0  0  0  0  0  0  0  0  0  0  0
   38.4730   25.6970   34.8470 C   0  0  0  0  0  0  0  0  0  0  0  0
   34.6570   31.6590   36.1110 C   0  0  1  0  0  0  0  0  0  0  0  0
   35.0460   31.1150   34.8500 C   0  0  1  0  0  0  0  0  0  0  0  0
   36.1450   31.3540   35.8480 C   0  0  0  0  0  0  0  0  0  0  0  0
   34.2080   31.0170   36.9140 H   0  0  0  0  0  0  0  0  0  0  0  0
   35.1060   31.8100   33.9810 H   0  0  0  0  0  0  0  0  0  0  0  0
   36.5400   30.4860   36.3700 H   0  0  0  0  0  0  0  0  0  0  0  0
   36.8420   32.2010   35.7150 H   0  0  0  0  0  0  0  0  0  0  0  0
   34.4190   33.1480   36.3010 C   0  0  0  0  0  0  0  0  0  0  0  0
   34.1810   33.5520   37.6020 C   0  0  0  0  0  0  0  0  0  0  0  0
   33.9360   34.9320   37.7530 C   0  0  0  0  0  0  0  0  0  0  0  0
   33.9480   35.7590   36.6640 N   0  0  0  0  0  0  0  0  0  0  0  0
   34.1900   35.3030   35.3980 C   0  0  0  0  0  0  0  0  0  0  0  0
   34.4310   33.9640   35.2210 N   0  0  0  0  0  0  0  0  0  0  0  0
   34.1780   32.8870   38.4290 H   0  0  0  0  0  0  0  0  0  0  0  0
   33.7380   35.3500   38.7300 H   0  0  0  0  0  0  0  0  0  0  0  0
   34.1990   35.9490   34.5490 H   0  0  0  0  0  0  0  0  0  0  0  0
  1 24  1  0  0  0  0
  1  3  1  0  0  0  0
  2  1  1  0  0  0  0
  4  1  1  0  0  0  0
  4  8  1  0  0  0  0
  5  4  2  0  0  0  0
  6  5  1  0  0  0  0
  6  7  1  0  0  0  0
  7 11  1  0  0  0  0
  7  8  2  0  0  0  0
  9  5  1  0  0  0  0
 10  6  1  0  0  0  0
 11 22  1  0  0  0  0
 12 14  2  0  0  0  0
 12 11  1  0  0  0  0
 13 12  1  0  0  0  0
 14 15  1  0  0  0  0
 15 22  2  0  0  0  0
 15 16  1  0  0  0  0
 16 18  2  0  0  0  0
 17 16  1  0  0  0  0
 18 19  1  0  0  0  0
 19 20  1  0  0  0  0
 21 19  2  0  0  0  0
 22 21  1  0  0  0  0
 23 30  1  0  0  0  0
 23 26  1  1  0  0  0
 24 27  1  6  0  0  0
 24 25  1  0  0  0  0
 24 23  1  0  0  0  0
 25 23  1  0  0  0  0
 25 28  1  0  0  0  0
 29 25  1  0  0  0  0
 30 31  1  0  0  0  0
 31 32  2  0  0  0  0
 31 36  1  0  0  0  0
 32 37  1  0  0  0  0
 33 32  1  0  0  0  0
 34 33  2  0  0  0  0
 35 34  1  0  0  0  0
 35 30  2  0  0  0  0
 38 34  1  0  0  0  0
M  END
>  <minimizedAffinity>
-5.29308319

$$$$

 OpenBabel03272501173D

 38 42  0  0  1  0  0  0  0  0999 V2000
   35.6550   27.5640   31.7720 C   0  0  0  0  0  0  0  0  0  0  0  0
   35.4690   27.5190   30.6990 H   0  0  0  0  0  0  0  0  0  0  0  0
   35.0090   26.7540   32.2220 H   0  0  0  0  0  0  0  0  0  0  0  0
   37.0420   27.1890   32.1690 C   0  0  0  0  0  0  0  0  0  0  0  0
   38.1560   27.6660   31.5000 C   0  0  0  0  0  0  0  0  0  0  0  0
   39.2870   27.1890   32.0370 N   0  0  0  0  0  0  0  0  0  0  0  0
   38.8750   26.3960   33.0650 C   0  0  0  0  0  0  0  0  0  0  0  0
   37.5300   26.4060   33.1330 N   0  0  0  0  0  0  0  0  0  0  0  0
   38.1730   28.3440   30.6390 H   0  0  0  0  0  0  0  0  0  0  0  0
   40.2760   27.3720   31.7470 H   0  0  0  0  0  0  0  0  0  0  0  0
   39.7440   25.6720   33.9310 N   0  0  0  0  0  0  0  0  0  0  0  0
   41.0000   25.9800   34.2520 C   0  0  0  0  0  0  0  0  0  0  0  0
   41.5040   26.8620   33.8590 H   0  0  0  0  0  0  0  0  0  0  0  0
   41.4990   25.0440   35.1080 N   0  0  0  0  0  0  0  0  0  0  0  0
   40.5270   24.1300   35.3250 C   0  0  0  0  0  0  0  0  0  0  0  0
   40.5290   22.9890   36.1100 C   0  0  0  0  0  0  0  0  0  0  0  0
   41.3960   22.7010   36.6760 H   0  0  0  0  0  0  0  0  0  0  0  0
   39.4020   22.2220   36.1600 N   0  0  0  0  0  0  0  0  0  0  0  0
   38.3290   22.6210   35.4310 C   0  0  0  0  0  0  0  0  0  0  0  0
   37.3690   22.1110   35.3750 H   0  0  0  0  0  0  0  0  0  0  0  0
   38.3430   23.7480   34.6620 N   0  0  0  0  0  0  0  0  0  0  0  0
   39.4450   24.5350   34.5870 C   0  0  0  0  0  0  0  0  0  0  0  0
   35.8570   29.3350   33.5690 C   0  0  1  0  0  0  0  0  0  0  0  0
   35.2020   28.8430   32.4000 C   0  0  1  0  0  0  0  0  0  0  0  0
   35.9710   30.1270   32.2510 C   0  0  0  0  0  0  0  0  0  0  0  0
   36.8350   28.9100   33.9160 H   0  0  0  0  0  0  0  0  0  0  0  0
   34.1010   28.9980   32.3180 H   0  0  0  0  0  0  0  0  0  0  0  0
   36.9380   30.0720   31.7590 H   0  0  0  0  0  0  0  0  0  0  0  0
   35.4350   31.0890   32.1650 H   0  0  0  0  0  0  0  0  0  0  0  0
   35.1120   30.1260   34.6310 C   0  0  0  0  0  0  0  0  0  0  0  0
   35.8900   30.9730   35.3990 C   0  0  0  0  0  0  0  0  0  0  0  0
   35.1840   31.6770   36.3960 C   0  0  0  0  0  0  0  0  0  0  0  0
   33.8370   31.4980   36.5450 N   0  0  0  0  0  0  0  0  0  0  0  0
   33.1170   30.6460   35.7550 C   0  0  0  0  0  0  0  0  0  0  0  0
   33.7780   29.9470   34.7770 N   0  0  0  0  0  0  0  0  0  0  0  0
   36.9360   31.0910   35.2600 H   0  0  0  0  0  0  0  0  0  0  0  0
   35.7000   32.3640   37.0500 H   0  0  0  0  0  0  0  0  0  0  0  0
   32.0660   30.5080   35.8720 H   0  0  0  0  0  0  0  0  0  0  0  0
  1  4  1  0  0  0  0
  1  3  1  0  0  0  0
  1 24  1  0  0  0  0
  2  1  1  0  0  0  0
  4  8  1  0  0  0  0
  5  6  1  0  0  0  0
  5  4  2  0  0  0  0
  6  7  1  0  0  0  0
  7  8  2  0  0  0  0
  7 11  1  0  0  0  0
  9  5  1  0  0  0  0
 10  6  1  0  0  0  0
 11 12  1  0  0  0  0
 11 22  1  0  0  0  0
 12 14  2  0  0  0  0
 13 12  1  0  0  0  0
 14 15  1  0  0  0  0
 15 16  1  0  0  0  0
 16 18  2  0  0  0  0
 16 17  1  0  0  0  0
 19 18  1  0  0  0  0
 20 19  1  0  0  0  0
 21 19  2  0  0  0  0
 22 21  1  0  0  0  0
 22 15  2  0  0  0  0
 23 26  1  1  0  0  0
 23 30  1  0  0  0  0
 24 27  1  1  0  0  0
 24 23  1  0  0  0  0
 25 24  1  0  0  0  0
 25 23  1  0  0  0  0
 28 25  1  0  0  0  0
 29 25  1  0  0  0  0
 30 35  2  0  0  0  0
 30 31  1  0  0  0  0
 31 32  2  0  0  0  0
 32 33  1  0  0  0  0
 32 37  1  0  0  0  0
 34 38  1  0  0  0  0
 34 33  2  0  0  0  0
 35 34  1  0  0  0  0
 36 31  1  0  0  0  0
M  END
>  <minimizedAffinity>
-5.28432083

$$$$
