
 OpenBabel03272505213D

 31 34  0  0  0  0  0  0  0  0999 V2000
   38.0480   31.7940   46.2730 Br  0  0  0  0  0  0  0  0  0  0  0  0
   36.7340   30.6670   45.4390 C   0  0  0  0  0  0  0  0  0  0  0  0
   35.8090   29.9940   46.2130 C   0  0  0  0  0  0  0  0  0  0  0  0
   34.8930   29.2050   45.5680 C   0  0  0  0  0  0  0  0  0  0  0  0
   34.9020   29.0920   44.1920 C   0  0  0  0  0  0  0  0  0  0  0  0
   35.8400   29.7740   43.4040 C   0  0  0  0  0  0  0  0  0  0  0  0
   36.7590   30.5680   44.0620 C   0  0  0  0  0  0  0  0  0  0  0  0
   34.1680   28.6770   46.1780 H   0  0  0  0  0  0  0  0  0  0  0  0
   34.1710   28.4640   43.6980 H   0  0  0  0  0  0  0  0  0  0  0  0
   35.8530   29.6900   42.3250 H   0  0  0  0  0  0  0  0  0  0  0  0
   37.7530   31.2980   43.3160 N   0  0  0  0  0  0  0  0  0  0  0  0
   39.0720   31.0710   43.3180 C   0  0  0  0  0  0  0  0  0  0  0  0
   39.5630   30.2970   43.8930 H   0  0  0  0  0  0  0  0  0  0  0  0
   39.6550   31.9780   42.4840 N   0  0  0  0  0  0  0  0  0  0  0  0
   38.6760   32.7330   41.9940 C   0  0  0  0  0  0  0  0  0  0  0  0
   38.7040   33.8070   41.0970 C   0  0  0  0  0  0  0  0  0  0  0  0
   39.6210   34.1820   40.6580 H   0  0  0  0  0  0  0  0  0  0  0  0
   37.5330   34.3870   40.7810 N   0  0  0  0  0  0  0  0  0  0  0  0
   36.3530   33.9990   41.2690 C   0  0  0  0  0  0  0  0  0  0  0  0
   35.3930   34.4340   41.0430 H   0  0  0  0  0  0  0  0  0  0  0  0
   36.3120   32.9650   42.1330 N   0  0  0  0  0  0  0  0  0  0  0  0
   37.4490   32.3280   42.5030 C   0  0  0  0  0  0  0  0  0  0  0  0
   37.1240   30.1670   49.7670 C   0  0  0  0  0  0  0  0  0  0  0  0
   37.0690   29.9840   48.3780 C   0  0  0  0  0  0  0  0  0  0  0  0
   35.8840   30.1810   47.6670 C   0  0  0  0  0  0  0  0  0  0  0  0
   34.8120   30.5520   48.4010 N   0  0  0  0  0  0  0  0  0  0  0  0
   34.8770   30.7260   49.7360 C   0  0  0  0  0  0  0  0  0  0  0  0
   36.0120   30.5350   50.4090 N   0  0  0  0  0  0  0  0  0  0  0  0
   38.1130   29.9690   50.1270 H   0  0  0  0  0  0  0  0  0  0  0  0
   37.9090   29.6840   47.7430 H   0  0  0  0  0  0  0  0  0  0  0  0
   33.9660   31.0260   50.2550 H   0  0  0  0  0  0  0  0  0  0  0  0
  2  3  1  0  0  0  0
  2  1  1  0  0  0  0
  3 25  1  0  0  0  0
  4  8  1  0  0  0  0
  4  3  2  0  0  0  0
  5  4  1  0  0  0  0
  6  7  1  0  0  0  0
  6  5  2  0  0  0  0
  7  2  2  0  0  0  0
  9  5  1  0  0  0  0
 10  6  1  0  0  0  0
 11 12  1  0  0  0  0
 11  7  1  0  0  0  0
 12 13  1  0  0  0  0
 14 12  2  0  0  0  0
 15 14  1  0  0  0  0
 15 22  1  0  0  0  0
 16 15  2  0  0  0  0
 17 16  1  0  0  0  0
 18 16  1  0  0  0  0
 18 19  2  0  0  0  0
 19 21  1  0  0  0  0
 20 19  1  0  0  0  0
 21 22  2  0  0  0  0
 22 11  1  0  0  0  0
 23 29  1  0  0  0  0
 23 28  1  0  0  0  0
 24 23  2  0  0  0  0
 25 24  1  0  0  0  0
 25 26  2  0  0  0  0
 26 27  1  0  0  0  0
 27 31  1  0  0  0  0
 27 28  2  0  0  0  0
 30 24  1  0  0  0  0
M  END
>  <minimizedAffinity>
-4.62576199

>  <minimizedRMSD>
5.44955349

$$$$
