
     RDKit          3D

 27 29  0  0  0  0  0  0  0  0999 V2000
   35.6480   30.4615   49.7455 C   0  0  0  0  0  0  0  0  0  0  0  0
   35.9691   29.4677   50.6688 C   0  0  0  0  0  0  0  0  0  0  0  0
   37.2314   29.5085   51.2572 C   0  0  0  0  0  0  0  0  0  0  0  0
   38.1016   30.5132   50.9104 N   0  0  0  0  0  0  0  0  0  0  0  0
   37.7454   31.4583   50.0073 C   0  0  0  0  0  0  0  0  0  0  0  0
   36.5240   31.4445   49.4183 N   0  0  0  0  0  0  0  0  0  0  0  0
   34.4444   30.5758   49.0665 O   0  0  0  0  0  0  0  0  0  0  0  0
   35.5032   30.1536   46.6457 O   0  0  0  0  0  0  0  0  0  0  0  0
   34.2353   30.0226   47.4699 P   0  0  0  0  0  0  0  0  0  0  0  0
   33.7435   28.3945   47.5923 O   0  0  0  0  0  0  0  0  0  0  0  0
   33.0560   30.9500   46.6750 O   0  0  0  0  0  0  0  0  0  0  0  0
   35.2235   28.7379   50.8650 H   0  0  0  0  0  0  0  0  0  0  0  0
   38.4591   32.2426   49.7534 H   0  0  0  0  0  0  0  0  0  0  0  0
   34.4112   27.8160   47.1081 H   0  0  0  0  0  0  0  0  0  0  0  0
   32.2144   30.8438   47.1834 H   0  0  0  0  0  0  0  0  0  0  0  0
   37.5605   28.4941   52.2002 N   0  0  0  0  0  0  0  0  0  0  0  0
   38.7915   28.1315   52.6335 C   0  0  0  0  0  0  0  0  0  0  0  0
   39.7136   28.5823   52.3066 H   0  0  0  0  0  0  0  0  0  0  0  0
   38.6244   27.1254   53.5262 N   0  0  0  0  0  0  0  0  0  0  0  0
   37.3115   26.8637   53.6488 C   0  0  0  0  0  0  0  0  0  0  0  0
   36.6364   25.9345   54.4282 C   0  0  0  0  0  0  0  0  0  0  0  0
   37.1663   25.2409   55.0994 H   0  0  0  0  0  0  0  0  0  0  0  0
   35.2810   25.9034   54.3392 N   0  0  0  0  0  0  0  0  0  0  0  0
   34.5977   26.7458   53.5207 C   0  0  0  0  0  0  0  0  0  0  0  0
   33.5265   26.7316   53.4410 H   0  0  0  0  0  0  0  0  0  0  0  0
   35.2752   27.6410   52.7720 N   0  0  0  0  0  0  0  0  0  0  0  0
   36.6084   27.7291   52.8078 C   0  0  0  0  0  0  0  0  0  0  0  0
  1  2  2  0
  2  3  1  0
  4  3  2  0
  5  4  1  0
  6  1  1  0
  6  5  2  0
  7  1  1  0
  8  9  2  0
  9 10  1  0
  9  7  1  0
 11  9  1  0
  2 12  1  0
  5 13  1  0
 10 14  1  0
 11 15  1  0
 16 17  1  0
 17 18  1  0
 17 19  2  0
 19 20  1  0
 20 21  2  0
 21 22  1  0
 21 23  1  0
 23 24  2  0
 24 25  1  0
 24 26  1  0
 26 27  2  0
 27 16  1  0
 27 20  1  0
  3 16  1  0
M  ISO  7  12  14  13  14  14   3  15   3  18  15  22  16  25  16
M  END
>  <DihAtoms>  (1) 
1,2,15,16

>  <DihDeg>  (1) 
116.89779777431562

$$$$
