
 OpenBabel03272506093D

 47 51  0  0  0  0  0  0  0  0999 V2000
   34.2500   28.0460   49.1870 C   0  0  0  0  0  0  0  0  0  0  0  0
   35.0960   27.9670   48.4730 H   0  0  0  0  0  0  0  0  0  0  0  0
   34.2700   27.1100   49.7990 H   0  0  0  0  0  0  0  0  0  0  0  0
   32.9400   28.1040   48.4350 C   0  0  0  0  0  0  0  0  0  0  0  0
   32.9400   28.6020   47.0750 C   0  0  0  0  0  0  0  0  0  0  0  0
   31.2170   28.4620   46.6810 S   0  0  0  0  0  0  0  0  0  0  0  0
   30.7240   27.7670   48.3610 C   0  0  0  0  0  0  0  0  0  0  0  0
   31.7860   27.7450   48.8970 N   0  0  0  0  0  0  0  0  0  0  0  0
   29.4290   27.3610   48.8840 N   0  0  0  0  0  0  0  0  0  0  0  0
   28.4780   26.9010   47.9250 C   0  0  0  0  0  0  0  0  0  0  0  0
   27.0810   26.8270   48.4300 C   0  0  0  0  0  0  0  0  0  0  0  0
   26.9040   27.4930   49.7220 N   0  0  0  0  0  0  0  0  0  0  0  0
   27.8670   26.8350   50.6070 C   0  0  0  0  0  0  0  0  0  0  0  0
   29.2030   27.4530   50.3070 C   0  0  0  0  0  0  0  0  0  0  0  0
   33.7630   28.9380   46.5280 H   0  0  0  0  0  0  0  0  0  0  0  0
   28.8090   25.9670   47.4190 H   0  0  0  0  0  0  0  0  0  0  0  0
   28.4710   27.6610   47.0880 H   0  0  0  0  0  0  0  0  0  0  0  0
   26.3280   27.3100   47.7580 H   0  0  0  0  0  0  0  0  0  0  0  0
   26.8040   25.7550   48.4940 H   0  0  0  0  0  0  0  0  0  0  0  0
   25.9610   27.1930   50.0840 H   0  0  0  0  0  0  0  0  0  0  0  0
   27.5830   26.8610   51.6580 H   0  0  0  0  0  0  0  0  0  0  0  0
   27.9490   25.7470   50.3290 H   0  0  0  0  0  0  0  0  0  0  0  0
   29.1410   28.5310   50.5770 H   0  0  0  0  0  0  0  0  0  0  0  0
   30.0460   26.9650   50.8370 H   0  0  0  0  0  0  0  0  0  0  0  0
   34.4170   29.2280   50.0780 C   0  0  0  0  0  0  0  0  0  0  0  0
   34.4660   28.9250   51.1420 H   0  0  0  0  0  0  0  0  0  0  0  0
   33.6120   29.9390   49.8510 H   0  0  0  0  0  0  0  0  0  0  0  0
   37.8030   30.6950   50.4980 C   0  0  0  0  0  0  0  0  0  0  0  0
   38.1520   31.0680   49.2100 C   0  0  0  0  0  0  0  0  0  0  0  0
   37.2230   30.8150   48.2020 C   0  0  0  0  0  0  0  0  0  0  0  0
   36.0420   30.2290   48.5070 N   0  0  0  0  0  0  0  0  0  0  0  0
   35.7620   29.8860   49.7920 C   0  0  0  0  0  0  0  0  0  0  0  0
   36.6310   30.1200   50.7550 N   0  0  0  0  0  0  0  0  0  0  0  0
   38.5700   30.9210   51.2270 H   0  0  0  0  0  0  0  0  0  0  0  0
   39.0520   31.5370   48.8420 H   0  0  0  0  0  0  0  0  0  0  0  0
   37.3300   31.0980   46.8000 N   0  0  0  0  0  0  0  0  0  0  0  0
   36.5620   30.6220   45.7790 C   0  0  0  0  0  0  0  0  0  0  0  0
   35.7420   29.9370   45.9500 H   0  0  0  0  0  0  0  0  0  0  0  0
   37.0510   31.1750   44.6430 N   0  0  0  0  0  0  0  0  0  0  0  0
   38.0930   31.9750   44.9260 C   0  0  0  0  0  0  0  0  0  0  0  0
   38.9560   32.7720   44.2020 C   0  0  0  0  0  0  0  0  0  0  0  0
   38.8310   32.8210   43.1260 H   0  0  0  0  0  0  0  0  0  0  0  0
   39.9410   33.4770   44.8310 N   0  0  0  0  0  0  0  0  0  0  0  0
   40.0880   33.4080   46.1800 C   0  0  0  0  0  0  0  0  0  0  0  0
   40.9050   34.0060   46.6110 H   0  0  0  0  0  0  0  0  0  0  0  0
   39.2660   32.6410   46.9210 N   0  0  0  0  0  0  0  0  0  0  0  0
   38.2810   31.9350   46.2980 C   0  0  0  0  0  0  0  0  0  0  0  0
  1  3  1  0  0  0  0
  1 25  1  0  0  0  0
  2  1  1  0  0  0  0
  4  8  1  0  0  0  0
  4  1  1  0  0  0  0
  5  4  2  0  0  0  0
  6  5  1  0  0  0  0
  6  7  1  0  0  0  0
  7  9  1  0  0  0  0
  7  8  2  0  0  0  0
  9 14  1  0  0  0  0
 10 11  1  0  0  0  0
 10  9  1  0  0  0  0
 11 19  1  0  0  0  0
 11 12  1  0  0  0  0
 12 20  1  0  0  0  0
 12 13  1  0  0  0  0
 13 21  1  0  0  0  0
 14 23  1  0  0  0  0
 14 13  1  0  0  0  0
 14 24  1  0  0  0  0
 15  5  1  0  0  0  0
 16 10  1  0  0  0  0
 17 10  1  0  0  0  0
 18 11  1  0  0  0  0
 22 13  1  0  0  0  0
 25 26  1  0  0  0  0
 27 25  1  0  0  0  0
 28 33  1  0  0  0  0
 28 34  1  0  0  0  0
 29 28  2  0  0  0  0
 30 31  2  0  0  0  0
 30 29  1  0  0  0  0
 31 32  1  0  0  0  0
 32 25  1  0  0  0  0
 32 33  2  0  0  0  0
 35 29  1  0  0  0  0
 36 30  1  0  0  0  0
 37 38  1  0  0  0  0
 37 36  1  0  0  0  0
 39 40  1  0  0  0  0
 39 37  2  0  0  0  0
 40 47  1  0  0  0  0
 41 43  1  0  0  0  0
 41 40  2  0  0  0  0
 42 41  1  0  0  0  0
 43 44  2  0  0  0  0
 44 45  1  0  0  0  0
 44 46  1  0  0  0  0
 47 36  1  0  0  0  0
 47 46  2  0  0  0  0
M  END
>  <minimizedAffinity>
-7.75398111

>  <minimizedRMSD>
1.75635767

$$$$
