
 OpenBabel03272509263D

 28 30  0  0  0  0  0  0  0  0999 V2000
   34.8010   29.1730   47.3680 C   0  0  0  0  0  0  0  0  0  0  0  0
   33.8640   28.5400   47.3810 H   0  0  0  0  0  0  0  0  0  0  0  0
   35.6100   28.4800   47.5830 H   0  0  0  0  0  0  0  0  0  0  0  0
   34.5570   30.2350   48.4120 C   0  0  0  0  0  0  0  0  0  0  0  0
   34.4150   31.1890   47.8490 H   0  0  0  0  0  0  0  0  0  0  0  0
   33.6110   29.9710   48.9610 H   0  0  0  0  0  0  0  0  0  0  0  0
   36.8850   29.6850   51.3280 C   0  0  0  0  0  0  0  0  0  0  0  0
   35.7820   29.5300   50.5040 C   0  0  0  0  0  0  0  0  0  0  0  0
   35.6700   30.2970   49.3700 C   0  0  0  0  0  0  0  0  0  0  0  0
   36.6760   31.1870   49.1170 N   0  0  0  0  0  0  0  0  0  0  0  0
   37.7490   31.3340   49.9250 C   0  0  0  0  0  0  0  0  0  0  0  0
   37.8540   30.5750   51.0420 N   0  0  0  0  0  0  0  0  0  0  0  0
   36.9050   29.0480   52.2020 H   0  0  0  0  0  0  0  0  0  0  0  0
   35.0120   28.8280   50.7250 H   0  0  0  0  0  0  0  0  0  0  0  0
   38.5130   32.0620   49.6640 H   0  0  0  0  0  0  0  0  0  0  0  0
   34.8320   29.9030   45.7130 S   0  0  0  0  0  0  0  0  0  0  0  0
   36.6010   32.0090   46.9730 H   0  0  0  0  0  0  0  0  0  0  0  0
   37.0150   31.4620   46.1930 N   0  0  0  0  0  0  0  0  0  0  0  0
   36.5040   30.4660   45.4260 C   0  0  0  0  0  0  0  0  0  0  0  0
   37.4260   30.0630   44.5300 N   0  0  0  0  0  0  0  0  0  0  0  0
   38.5620   30.7980   44.7000 C   0  0  0  0  0  0  0  0  0  0  0  0
   39.8050   30.8460   44.1040 C   0  0  0  0  0  0  0  0  0  0  0  0
   40.0010   30.1670   43.3000 H   0  0  0  0  0  0  0  0  0  0  0  0
   40.7580   31.7030   44.4960 N   0  0  0  0  0  0  0  0  0  0  0  0
   40.4700   32.5400   45.5130 C   0  0  0  0  0  0  0  0  0  0  0  0
   41.0800   33.3010   45.9840 H   0  0  0  0  0  0  0  0  0  0  0  0
   39.2610   32.5150   46.1150 N   0  0  0  0  0  0  0  0  0  0  0  0
   38.2760   31.6710   45.7540 C   0  0  0  0  0  0  0  0  0  0  0  0
  1  2  1  0  0  0  0
  1  3  1  0  0  0  0
  1  4  1  0  0  0  0
  4  6  1  0  0  0  0
  4  9  1  0  0  0  0
  5  4  1  0  0  0  0
  7 13  1  0  0  0  0
  8 14  1  0  0  0  0
  8  7  2  0  0  0  0
  9  8  1  0  0  0  0
 10  9  2  0  0  0  0
 10 11  1  0  0  0  0
 11 12  2  0  0  0  0
 12  7  1  0  0  0  0
 15 11  1  0  0  0  0
 16  1  1  0  0  0  0
 18 17  1  0  0  0  0
 19 16  1  0  0  0  0
 19 18  1  0  0  0  0
 20 21  1  0  0  0  0
 20 19  2  0  0  0  0
 21 28  1  0  0  0  0
 22 24  1  0  0  0  0
 22 21  2  0  0  0  0
 23 22  1  0  0  0  0
 24 25  2  0  0  0  0
 25 26  1  0  0  0  0
 25 27  1  0  0  0  0
 28 27  2  0  0  0  0
 28 18  1  0  0  0  0
M  END
>  <minimizedAffinity>
-4.79231596

>  <minimizedRMSD>
5.44840813

$$$$
