REMARK  Name = 
REMARK  2 active torsions:
REMARK  status: ('A' for Active; 'I' for Inactive)
REMARK    1  A    between atoms: C_3  and  C_9
REMARK    2  A    between atoms: C_13  and  N_20
REMARK                            x       y       z     vdW  Elec       q    Type
REMARK                         _______ _______ _______ _____ _____    ______ ____
ROOT
ATOM      1 BR   UNL     1      38.409  33.428  49.314  0.00  0.00    +0.000 Br
ATOM      2  C   UNL     1      38.856  32.431  47.733  0.00  0.00    +0.000 A 
ATOM      3  C   UNL     1      38.316  31.175  47.532  0.00  0.00    +0.000 A 
ATOM      4  C   UNL     1      38.667  30.508  46.388  0.00  0.00    +0.000 A 
ATOM      5  C   UNL     1      39.531  31.078  45.474  0.00  0.00    +0.000 A 
ATOM      6  C   UNL     1      40.080  32.352  45.676  0.00  0.00    +0.000 A 
ATOM      7  C   UNL     1      39.721  33.018  46.832  0.00  0.00    +0.000 A 
ATOM      8  H   UNL     1      38.242  29.522  46.232  0.00  0.00    +0.000 HD
ATOM      9  H   UNL     1      39.798  30.537  44.575  0.00  0.00    +0.000 HD
ATOM     10  H   UNL     1      40.758  32.805  44.964  0.00  0.00    +0.000 HD
ENDROOT
BRANCH   7  11
ATOM     11  N   UNL     1      40.247  34.332  47.105  0.00  0.00    +0.000 N 
ATOM     12  C   UNL     1      39.532  35.436  47.355  0.00  0.00    +0.000 A 
ATOM     13  H   UNL     1      38.451  35.477  47.382  0.00  0.00    +0.000 HD
ATOM     14  N   UNL     1      40.405  36.463  47.560  0.00  0.00    +0.000 NA
ATOM     15  C   UNL     1      41.628  35.958  47.430  0.00  0.00    +0.000 A 
ATOM     16  C   UNL     1      42.887  36.560  47.538  0.00  0.00    +0.000 A 
ATOM     17  H   UNL     1      43.019  37.612  47.761  0.00  0.00    +0.000 HD
ATOM     18  N   UNL     1      43.968  35.783  47.352  0.00  0.00    +0.000 NA
ATOM     19  C   UNL     1      43.910  34.479  47.073  0.00  0.00    +0.000 A 
ATOM     20  H   UNL     1      44.749  33.820  46.917  0.00  0.00    +0.000 HD
ATOM     21  N   UNL     1      42.704  33.887  46.967  0.00  0.00    +0.000 NA
ATOM     22  C   UNL     1      41.566  34.602  47.140  0.00  0.00    +0.000 A 
ENDBRANCH   7  11
BRANCH   3  25
ATOM     23  C   UNL     1      36.999  29.512  50.676  0.00  0.00    +0.000 A 
ATOM     24  C   UNL     1      37.879  29.999  49.700  0.00  0.00    +0.000 A 
ATOM     25  C   UNL     1      37.409  30.659  48.563  0.00  0.00    +0.000 A 
ATOM     26  N   UNL     1      36.067  30.791  48.473  0.00  0.00    +0.000 NA
ATOM     27  C   UNL     1      35.230  30.319  49.418  0.00  0.00    +0.000 A 
ATOM     28  N   UNL     1      35.687  29.689  50.501  0.00  0.00    +0.000 NA
ATOM     29  H   UNL     1      37.547  29.039  51.466  0.00  0.00    +0.000 HD
ATOM     30  H   UNL     1      38.971  29.915  49.730  0.00  0.00    +0.000 HD
ATOM     31  H   UNL     1      34.160  30.466  49.270  0.00  0.00    +0.000 HD
ENDBRANCH   3  25
TORSDOF 2
