
 OpenBabel03272505513D

 47 51  0  0  1  0  0  0  0  0999 V2000
   35.0770   29.6530   45.4280 N   0  0  2  0  0  0  0  0  0  0  0  0
   36.3990   30.2720   45.3180 C   0  0  0  0  0  0  0  0  0  0  0  0
   36.7040   30.3960   43.8430 C   0  0  0  0  0  0  0  0  0  0  0  0
   35.5610   29.7150   43.1910 C   0  0  0  0  0  0  0  0  0  0  0  0
   34.4110   29.8910   44.1980 C   0  0  1  0  0  0  0  0  0  0  0  0
   37.1670   29.7710   45.9050 H   0  0  0  0  0  0  0  0  0  0  0  0
   36.2430   31.3280   45.6870 H   0  0  0  0  0  0  0  0  0  0  0  0
   36.8680   31.4380   43.5090 H   0  0  0  0  0  0  0  0  0  0  0  0
   37.6280   29.8030   43.6650 H   0  0  0  0  0  0  0  0  0  0  0  0
   35.3560   30.2420   42.2340 H   0  0  0  0  0  0  0  0  0  0  0  0
   35.7240   28.6670   42.9380 H   0  0  0  0  0  0  0  0  0  0  0  0
   34.1140   30.9080   43.9600 H   0  0  0  0  0  0  0  0  0  0  0  0
   37.1210   29.2110   50.3590 C   0  0  0  0  0  0  0  0  0  0  0  0
   37.2800   30.5630   50.7000 C   0  0  0  0  0  0  0  0  0  0  0  0
   36.5230   31.4850   49.9840 C   0  0  0  0  0  0  0  0  0  0  0  0
   35.6910   31.0220   49.0130 N   0  0  0  0  0  0  0  0  0  0  0  0
   35.5760   29.7290   48.7270 C   0  0  0  0  0  0  0  0  0  0  0  0
   36.2870   28.8220   49.3950 N   0  0  0  0  0  0  0  0  0  0  0  0
   34.6870   29.3160   47.7030 N   0  0  0  0  0  0  0  0  0  0  0  0
   34.0540   28.0010   47.7230 C   0  0  0  0  0  0  0  0  0  0  0  0
   32.5730   28.1490   47.6080 C   0  0  0  0  0  0  0  0  0  0  0  0
   32.1000   29.3640   47.1720 N   0  0  0  0  0  0  0  0  0  0  0  0
   32.9230   30.2690   46.4050 C   0  0  0  0  0  0  0  0  0  0  0  0
   34.3580   30.1760   46.5800 C   0  0  2  0  0  0  0  0  0  0  0  0
   37.7380   28.5590   50.9560 H   0  0  0  0  0  0  0  0  0  0  0  0
   37.9050   30.9970   51.4420 H   0  0  0  0  0  0  0  0  0  0  0  0
   36.5560   32.5510   50.1530 H   0  0  0  0  0  0  0  0  0  0  0  0
   34.5310   27.3190   47.0200 H   0  0  0  0  0  0  0  0  0  0  0  0
   34.2930   27.5600   48.7400 H   0  0  0  0  0  0  0  0  0  0  0  0
   32.0830   27.8780   48.5650 H   0  0  0  0  0  0  0  0  0  0  0  0
   32.2360   27.3410   46.8970 H   0  0  0  0  0  0  0  0  0  0  0  0
   31.2180   29.7440   47.5200 H   0  0  0  0  0  0  0  0  0  0  0  0
   32.4470   30.3260   45.4400 H   0  0  0  0  0  0  0  0  0  0  0  0
   32.6170   31.2780   46.8590 H   0  0  0  0  0  0  0  0  0  0  0  0
   34.8370   31.1770   46.8040 H   0  0  0  0  0  0  0  0  0  0  0  0
   33.4760   28.8740   43.7620 N   0  0  0  0  0  0  0  0  0  0  0  0
   32.2650   28.9290   43.1270 C   0  0  0  0  0  0  0  0  0  0  0  0
   31.8540   29.9150   42.8690 H   0  0  0  0  0  0  0  0  0  0  0  0
   31.7910   27.6840   42.9330 N   0  0  0  0  0  0  0  0  0  0  0  0
   32.6890   26.8010   43.4390 C   0  0  0  0  0  0  0  0  0  0  0  0
   32.5690   25.4280   43.4350 C   0  0  0  0  0  0  0  0  0  0  0  0
   31.7100   24.9300   43.0080 H   0  0  0  0  0  0  0  0  0  0  0  0
   33.5960   24.7530   43.9990 N   0  0  0  0  0  0  0  0  0  0  0  0
   34.6340   25.4350   44.5130 C   0  0  0  0  0  0  0  0  0  0  0  0
   35.4650   24.8750   44.9700 H   0  0  0  0  0  0  0  0  0  0  0  0
   34.6880   26.7730   44.4830 N   0  0  0  0  0  0  0  0  0  0  0  0
   33.7330   27.5450   43.9520 C   0  0  0  0  0  0  0  0  0  0  0  0
  1  2  1  6  0  0  0
  1 24  1  0  0  0  0
  2  7  1  0  0  0  0
  2  6  1  0  0  0  0
  3  2  1  0  0  0  0
  4  3  1  0  0  0  0
  4  5  1  0  0  0  0
  5 12  1  6  0  0  0
  5  1  1  0  0  0  0
  8  3  1  0  0  0  0
  9  3  1  0  0  0  0
 10  4  1  0  0  0  0
 11  4  1  0  0  0  0
 13 14  1  0  0  0  0
 13 25  1  0  0  0  0
 14 26  1  0  0  0  0
 15 27  1  0  0  0  0
 15 14  2  0  0  0  0
 16 15  1  0  0  0  0
 17 16  2  0  0  0  0
 17 18  1  0  0  0  0
 18 13  2  0  0  0  0
 19 20  1  0  0  0  0
 19 17  1  0  0  0  0
 20 29  1  0  0  0  0
 21 20  1  0  0  0  0
 21 30  1  0  0  0  0
 22 32  1  0  0  0  0
 22 21  1  0  0  0  0
 23 24  1  0  0  0  0
 23 34  1  0  0  0  0
 23 22  1  0  0  0  0
 24 35  1  1  0  0  0
 24 19  1  0  0  0  0
 28 20  1  0  0  0  0
 31 21  1  0  0  0  0
 33 23  1  0  0  0  0
 36 47  1  0  0  0  0
 36  5  1  0  0  0  0
 37 36  1  0  0  0  0
 38 37  1  0  0  0  0
 39 37  2  0  0  0  0
 39 40  1  0  0  0  0
 40 47  1  0  0  0  0
 41 40  2  0  0  0  0
 41 43  1  0  0  0  0
 42 41  1  0  0  0  0
 43 44  2  0  0  0  0
 44 45  1  0  0  0  0
 46 44  1  0  0  0  0
 47 46  2  0  0  0  0
M  END
>  <minimizedAffinity>
-4.54078054

>  <minimizedRMSD>
0.759129345

$$$$
