
 OpenBabel03272510063D

 33 36  0  0  0  0  0  0  0  0999 V2000
   33.5800   28.3920   49.4600 C   0  0  0  0  0  0  0  0  0  0  0  0
   34.4000   29.3090   48.7700 C   0  0  0  0  0  0  0  0  0  0  0  0
   34.0250   29.6910   47.4700 C   0  0  0  0  0  0  0  0  0  0  0  0
   32.8930   29.1520   46.9550 N   0  0  0  0  0  0  0  0  0  0  0  0
   32.1250   28.2740   47.6360 C   0  0  0  0  0  0  0  0  0  0  0  0
   32.4710   27.9060   48.8690 N   0  0  0  0  0  0  0  0  0  0  0  0
   30.9450   27.7600   47.0020 N   0  0  0  0  0  0  0  0  0  0  0  0
   29.8560   28.6160   46.5280 C   0  0  0  0  0  0  0  0  0  0  0  0
   28.9780   27.7060   45.7590 C   0  0  0  0  0  0  0  0  0  0  0  0
   29.7420   26.4080   45.5980 C   0  0  0  0  0  0  0  0  0  0  0  0
   30.6780   26.3540   46.7530 C   0  0  0  0  0  0  0  0  0  0  0  0
   33.7980   28.0470   50.4620 H   0  0  0  0  0  0  0  0  0  0  0  0
   34.6430   30.3940   46.9270 H   0  0  0  0  0  0  0  0  0  0  0  0
   30.3270   29.3850   45.8820 H   0  0  0  0  0  0  0  0  0  0  0  0
   29.3980   29.0930   47.4150 H   0  0  0  0  0  0  0  0  0  0  0  0
   28.0690   27.4720   46.3520 H   0  0  0  0  0  0  0  0  0  0  0  0
   28.7200   28.1360   44.7740 H   0  0  0  0  0  0  0  0  0  0  0  0
   29.0420   25.5400   45.7050 H   0  0  0  0  0  0  0  0  0  0  0  0
   30.2240   26.3330   44.6080 H   0  0  0  0  0  0  0  0  0  0  0  0
   31.5870   25.7960   46.4550 H   0  0  0  0  0  0  0  0  0  0  0  0
   30.2290   25.8820   47.6460 H   0  0  0  0  0  0  0  0  0  0  0  0
   35.5550   29.8050   49.4040 N   0  0  0  0  0  0  0  0  0  0  0  0
   35.8130   29.5790   50.6910 C   0  0  0  0  0  0  0  0  0  0  0  0
   35.2710   29.0320   51.4560 H   0  0  0  0  0  0  0  0  0  0  0  0
   36.9890   30.1760   51.0210 N   0  0  0  0  0  0  0  0  0  0  0  0
   37.4600   30.7800   49.9150 C   0  0  0  0  0  0  0  0  0  0  0  0
   38.5760   31.5370   49.5870 C   0  0  0  0  0  0  0  0  0  0  0  0
   39.2630   31.7020   50.4040 H   0  0  0  0  0  0  0  0  0  0  0  0
   38.7860   32.0270   48.3450 N   0  0  0  0  0  0  0  0  0  0  0  0
   37.8780   31.7730   47.3820 C   0  0  0  0  0  0  0  0  0  0  0  0
   38.0380   32.1610   46.3900 H   0  0  0  0  0  0  0  0  0  0  0  0
   36.7590   31.0390   47.6320 N   0  0  0  0  0  0  0  0  0  0  0  0
   36.5440   30.5420   48.8840 C   0  0  0  0  0  0  0  0  0  0  0  0
  1 12  1  0  0  0  0
  2 22  1  0  0  0  0
  2  1  2  0  0  0  0
  3  2  1  0  0  0  0
  4  3  2  0  0  0  0
  4  5  1  0  0  0  0
  5  6  2  0  0  0  0
  6  1  1  0  0  0  0
  7  5  1  0  0  0  0
  8  7  1  0  0  0  0
  8 15  1  0  0  0  0
  9 16  1  0  0  0  0
  9  8  1  0  0  0  0
 10 18  1  0  0  0  0
 10  9  1  0  0  0  0
 10 11  1  0  0  0  0
 11  7  1  0  0  0  0
 11 21  1  0  0  0  0
 13  3  1  0  0  0  0
 14  8  1  0  0  0  0
 17  9  1  0  0  0  0
 19 10  1  0  0  0  0
 20 11  1  0  0  0  0
 22 23  1  0  0  0  0
 23 25  2  0  0  0  0
 23 24  1  0  0  0  0
 26 25  1  0  0  0  0
 27 26  1  0  0  0  0
 27 28  1  0  0  0  0
 29 27  2  0  0  0  0
 30 32  2  0  0  0  0
 30 29  1  0  0  0  0
 31 30  1  0  0  0  0
 32 33  1  0  0  0  0
 33 22  1  0  0  0  0
 33 26  2  0  0  0  0
M  END
>  <minimizedAffinity>
-4.971138

>  <minimizedRMSD>
6.21201944

$$$$
