
 OpenBabel03272507493D

 49 54  0  0  0  0  0  0  0  0999 V2000
   37.9730   26.8790   32.1120 N   0  0  0  0  0  0  0  0  0  0  0  0
   37.4380   27.6890   31.0720 C   0  0  0  0  0  0  0  0  0  0  0  0
   36.7480   28.9340   31.4830 C   0  0  0  0  0  0  0  0  0  0  0  0
   35.9320   28.8640   32.6950 C   0  0  0  0  0  0  0  0  0  0  0  0
   36.5290   27.9130   33.7470 C   0  0  0  0  0  0  0  0  0  0  0  0
   36.8970   26.6080   33.0240 C   0  0  0  0  0  0  0  0  0  0  0  0
   38.2620   27.9460   30.3460 H   0  0  0  0  0  0  0  0  0  0  0  0
   36.7140   27.0670   30.5040 H   0  0  0  0  0  0  0  0  0  0  0  0
   37.6310   29.6130   31.7290 H   0  0  0  0  0  0  0  0  0  0  0  0
   36.2400   29.3800   30.6190 H   0  0  0  0  0  0  0  0  0  0  0  0
   34.9080   28.4460   32.5120 H   0  0  0  0  0  0  0  0  0  0  0  0
   37.4150   28.3190   34.2320 H   0  0  0  0  0  0  0  0  0  0  0  0
   35.7150   27.6410   34.4580 H   0  0  0  0  0  0  0  0  0  0  0  0
   37.2560   25.8670   33.7510 H   0  0  0  0  0  0  0  0  0  0  0  0
   36.0010   26.1740   32.5420 H   0  0  0  0  0  0  0  0  0  0  0  0
   39.3120   26.3990   32.2610 C   0  0  0  0  0  0  0  0  0  0  0  0
   40.3800   26.6760   31.4130 C   0  0  0  0  0  0  0  0  0  0  0  0
   41.6100   26.1130   31.7340 C   0  0  0  0  0  0  0  0  0  0  0  0
   41.7070   25.3290   32.8450 N   0  0  0  0  0  0  0  0  0  0  0  0
   40.6590   25.0820   33.6430 C   0  0  0  0  0  0  0  0  0  0  0  0
   39.4710   25.6130   33.3500 N   0  0  0  0  0  0  0  0  0  0  0  0
   40.1350   27.3080   30.5850 H   0  0  0  0  0  0  0  0  0  0  0  0
   42.4060   26.3500   31.0560 H   0  0  0  0  0  0  0  0  0  0  0  0
   40.8330   24.2530   34.7890 N   0  0  0  0  0  0  0  0  0  0  0  0
   41.8380   23.5090   35.2900 C   0  0  0  0  0  0  0  0  0  0  0  0
   42.7380   23.5480   34.6710 H   0  0  0  0  0  0  0  0  0  0  0  0
   41.4350   22.9210   36.4310 N   0  0  0  0  0  0  0  0  0  0  0  0
   40.1630   23.2980   36.6500 C   0  0  0  0  0  0  0  0  0  0  0  0
   39.3560   22.9310   37.7070 C   0  0  0  0  0  0  0  0  0  0  0  0
   39.7030   22.2720   38.4890 H   0  0  0  0  0  0  0  0  0  0  0  0
   38.0860   23.4330   37.7380 N   0  0  0  0  0  0  0  0  0  0  0  0
   37.7060   24.2490   36.7390 C   0  0  0  0  0  0  0  0  0  0  0  0
   36.7210   24.7160   36.6440 H   0  0  0  0  0  0  0  0  0  0  0  0
   38.4780   24.6260   35.6890 N   0  0  0  0  0  0  0  0  0  0  0  0
   39.7530   24.1470   35.6190 C   0  0  0  0  0  0  0  0  0  0  0  0
   35.7700   31.3120   32.6360 C   0  0  0  0  0  0  0  0  0  0  0  0
   35.7550   30.1560   33.4000 C   0  0  0  0  0  0  0  0  0  0  0  0
   35.6110   30.1430   34.7620 C   0  0  0  0  0  0  0  0  0  0  0  0
   35.4750   31.3720   35.4060 C   0  0  0  0  0  0  0  0  0  0  0  0
   35.4890   32.5200   34.6570 C   0  0  0  0  0  0  0  0  0  0  0  0
   35.6350   32.5330   33.2720 C   0  0  0  0  0  0  0  0  0  0  0  0
   35.3400   33.6400   35.4860 O   0  0  0  0  0  0  0  0  0  0  0  0
   34.9110   33.1130   36.7330 C   0  0  0  0  0  0  0  0  0  0  0  0
   35.3100   31.7660   36.7370 O   0  0  0  0  0  0  0  0  0  0  0  0
   35.8630   31.4450   31.5680 H   0  0  0  0  0  0  0  0  0  0  0  0
   35.6040   29.2380   35.3120 H   0  0  0  0  0  0  0  0  0  0  0  0
   35.6370   33.4970   32.7360 H   0  0  0  0  0  0  0  0  0  0  0  0
   35.4570   33.7080   37.5180 H   0  0  0  0  0  0  0  0  0  0  0  0
   33.8260   33.2390   36.9070 H   0  0  0  0  0  0  0  0  0  0  0  0
  1 16  1  0  0  0  0
  1  6  1  0  0  0  0
  2  3  1  0  0  0  0
  2  1  1  0  0  0  0
  3  9  1  0  0  0  0
  3  4  1  0  0  0  0
  4 37  1  0  0  0  0
  4  5  1  0  0  0  0
  5 12  1  0  0  0  0
  5 13  1  0  0  0  0
  6  5  1  0  0  0  0
  6 14  1  0  0  0  0
  7  2  1  0  0  0  0
  8  2  1  0  0  0  0
 10  3  1  0  0  0  0
 11  4  1  0  0  0  0
 15  6  1  0  0  0  0
 16 21  1  0  0  0  0
 17 18  1  0  0  0  0
 17 16  2  0  0  0  0
 18 19  2  0  0  0  0
 19 20  1  0  0  0  0
 20 24  1  0  0  0  0
 21 20  2  0  0  0  0
 22 17  1  0  0  0  0
 23 18  1  0  0  0  0
 24 25  1  0  0  0  0
 24 35  1  0  0  0  0
 25 27  2  0  0  0  0
 26 25  1  0  0  0  0
 27 28  1  0  0  0  0
 28 29  1  0  0  0  0
 29 31  2  0  0  0  0
 29 30  1  0  0  0  0
 32 31  1  0  0  0  0
 33 32  1  0  0  0  0
 34 32  2  0  0  0  0
 35 34  1  0  0  0  0
 35 28  2  0  0  0  0
 36 41  2  0  0  0  0
 36 37  1  0  0  0  0
 37 38  2  0  0  0  0
 38 46  1  0  0  0  0
 38 39  1  0  0  0  0
 39 44  1  0  0  0  0
 40 39  2  0  0  0  0
 40 42  1  0  0  0  0
 41 40  1  0  0  0  0
 42 43  1  0  0  0  0
 43 44  1  0  0  0  0
 43 49  1  0  0  0  0
 43 48  1  0  0  0  0
 45 36  1  0  0  0  0
 47 41  1  0  0  0  0
M  END
>  <minimizedAffinity>
-6.66523314

$$$$

 OpenBabel03272507493D

 49 54  0  0  0  0  0  0  0  0999 V2000
   34.5790   29.4640   33.2650 N   0  0  0  0  0  0  0  0  0  0  0  0
   35.1520   28.8770   32.1040 C   0  0  0  0  0  0  0  0  0  0  0  0
   36.0730   27.7370   32.3180 C   0  0  0  0  0  0  0  0  0  0  0  0
   36.9640   27.8190   33.4750 C   0  0  0  0  0  0  0  0  0  0  0  0
   36.3060   28.5320   34.6700 C   0  0  0  0  0  0  0  0  0  0  0  0
   35.6650   29.8210   34.1330 C   0  0  0  0  0  0  0  0  0  0  0  0
   34.3260   28.5580   31.4060 H   0  0  0  0  0  0  0  0  0  0  0  0
   35.7120   29.6740   31.5690 H   0  0  0  0  0  0  0  0  0  0  0  0
   35.3400   26.8900   32.5360 H   0  0  0  0  0  0  0  0  0  0  0  0
   36.5750   27.4820   31.3760 H   0  0  0  0  0  0  0  0  0  0  0  0
   37.8850   28.4280   33.2790 H   0  0  0  0  0  0  0  0  0  0  0  0
   35.5440   27.9260   35.1570 H   0  0  0  0  0  0  0  0  0  0  0  0
   37.1190   28.8650   35.3550 H   0  0  0  0  0  0  0  0  0  0  0  0
   35.2490   30.4050   34.9640 H   0  0  0  0  0  0  0  0  0  0  0  0
   36.4330   30.4550   33.6500 H   0  0  0  0  0  0  0  0  0  0  0  0
   33.1950   29.6820   33.5550 C   0  0  0  0  0  0  0  0  0  0  0  0
   32.1270   28.9490   33.0480 C   0  0  0  0  0  0  0  0  0  0  0  0
   30.8500   29.3180   33.4550 C   0  0  0  0  0  0  0  0  0  0  0  0
   30.7100   30.3650   34.3180 N   0  0  0  0  0  0  0  0  0  0  0  0
   31.7590   31.0520   34.7900 C   0  0  0  0  0  0  0  0  0  0  0  0
   32.9920   30.7120   34.4090 N   0  0  0  0  0  0  0  0  0  0  0  0
   32.4080   28.1590   32.3820 H   0  0  0  0  0  0  0  0  0  0  0  0
   30.0550   28.7290   33.0430 H   0  0  0  0  0  0  0  0  0  0  0  0
   31.5390   32.1350   35.6890 N   0  0  0  0  0  0  0  0  0  0  0  0
   30.4570   32.7740   36.1720 C   0  0  0  0  0  0  0  0  0  0  0  0
   29.5190   32.3660   35.7840 H   0  0  0  0  0  0  0  0  0  0  0  0
   30.8490   33.7500   37.0110 N   0  0  0  0  0  0  0  0  0  0  0  0
   32.1930   33.7260   37.0550 C   0  0  0  0  0  0  0  0  0  0  0  0
   33.0170   34.5530   37.7890 C   0  0  0  0  0  0  0  0  0  0  0  0
   32.6240   35.3330   38.4250 H   0  0  0  0  0  0  0  0  0  0  0  0
   34.3640   34.3550   37.6890 N   0  0  0  0  0  0  0  0  0  0  0  0
   34.7990   33.3710   36.8830 C   0  0  0  0  0  0  0  0  0  0  0  0
   35.8480   33.1090   36.7130 H   0  0  0  0  0  0  0  0  0  0  0  0
   34.0120   32.5430   36.1500 N   0  0  0  0  0  0  0  0  0  0  0  0
   32.6600   32.7060   36.2210 C   0  0  0  0  0  0  0  0  0  0  0  0
   37.6150   25.4820   33.1000 C   0  0  0  0  0  0  0  0  0  0  0  0
   37.4140   26.5100   34.0080 C   0  0  0  0  0  0  0  0  0  0  0  0
   37.5810   26.3780   35.3610 C   0  0  0  0  0  0  0  0  0  0  0  0
   37.9770   25.1300   35.8410 C   0  0  0  0  0  0  0  0  0  0  0  0
   38.1770   24.1080   34.9500 C   0  0  0  0  0  0  0  0  0  0  0  0
   38.0070   24.2430   33.5740 C   0  0  0  0  0  0  0  0  0  0  0  0
   38.5680   22.9460   35.6270 O   0  0  0  0  0  0  0  0  0  0  0  0
   38.9080   23.3840   36.9340 C   0  0  0  0  0  0  0  0  0  0  0  0
   38.2460   24.6110   37.1110 O   0  0  0  0  0  0  0  0  0  0  0  0
   37.5260   25.4710   32.0240 H   0  0  0  0  0  0  0  0  0  0  0  0
   37.4180   27.1880   36.0230 H   0  0  0  0  0  0  0  0  0  0  0  0
   38.1880   23.3750   32.9170 H   0  0  0  0  0  0  0  0  0  0  0  0
   38.5110   22.5970   37.6320 H   0  0  0  0  0  0  0  0  0  0  0  0
   40.0000   23.4600   37.0940 H   0  0  0  0  0  0  0  0  0  0  0  0
  1 16  1  0  0  0  0
  1  6  1  0  0  0  0
  2  3  1  0  0  0  0
  2  1  1  0  0  0  0
  3  9  1  0  0  0  0
  3  4  1  0  0  0  0
  4 37  1  0  0  0  0
  4  5  1  0  0  0  0
  5 12  1  0  0  0  0
  5 13  1  0  0  0  0
  6  5  1  0  0  0  0
  6 14  1  0  0  0  0
  7  2  1  0  0  0  0
  8  2  1  0  0  0  0
 10  3  1  0  0  0  0
 11  4  1  0  0  0  0
 15  6  1  0  0  0  0
 16 21  1  0  0  0  0
 17 18  1  0  0  0  0
 17 16  2  0  0  0  0
 18 19  2  0  0  0  0
 19 20  1  0  0  0  0
 20 24  1  0  0  0  0
 21 20  2  0  0  0  0
 22 17  1  0  0  0  0
 23 18  1  0  0  0  0
 24 25  1  0  0  0  0
 24 35  1  0  0  0  0
 25 27  2  0  0  0  0
 26 25  1  0  0  0  0
 27 28  1  0  0  0  0
 28 29  1  0  0  0  0
 29 30  1  0  0  0  0
 31 29  2  0  0  0  0
 32 31  1  0  0  0  0
 33 32  1  0  0  0  0
 34 35  1  0  0  0  0
 34 32  2  0  0  0  0
 35 28  2  0  0  0  0
 36 41  2  0  0  0  0
 36 37  1  0  0  0  0
 37 38  2  0  0  0  0
 38 39  1  0  0  0  0
 38 46  1  0  0  0  0
 39 44  1  0  0  0  0
 40 42  1  0  0  0  0
 40 39  2  0  0  0  0
 41 40  1  0  0  0  0
 42 43  1  0  0  0  0
 43 49  1  0  0  0  0
 43 44  1  0  0  0  0
 43 48  1  0  0  0  0
 45 36  1  0  0  0  0
 47 41  1  0  0  0  0
M  END
>  <minimizedAffinity>
-6.52489567

$$$$

 OpenBabel03272507493D

 49 54  0  0  0  0  0  0  0  0999 V2000
   37.6220   27.3090   32.2770 N   0  0  0  0  0  0  0  0  0  0  0  0
   37.0080   28.1900   31.3450 C   0  0  0  0  0  0  0  0  0  0  0  0
   36.4330   29.4420   31.8890 C   0  0  0  0  0  0  0  0  0  0  0  0
   35.7650   29.3500   33.1870 C   0  0  0  0  0  0  0  0  0  0  0  0
   36.4360   28.3240   34.1180 C   0  0  0  0  0  0  0  0  0  0  0  0
   36.6520   27.0410   33.3000 C   0  0  0  0  0  0  0  0  0  0  0  0
   37.7510   28.4470   30.5360 H   0  0  0  0  0  0  0  0  0  0  0  0
   36.1920   27.6280   30.8430 H   0  0  0  0  0  0  0  0  0  0  0  0
   37.3710   30.0700   32.0550 H   0  0  0  0  0  0  0  0  0  0  0  0
   35.8480   29.9510   31.1130 H   0  0  0  0  0  0  0  0  0  0  0  0
   34.7070   28.9850   33.1120 H   0  0  0  0  0  0  0  0  0  0  0  0
   37.3920   28.6680   34.5080 H   0  0  0  0  0  0  0  0  0  0  0  0
   35.7010   28.0540   34.9100 H   0  0  0  0  0  0  0  0  0  0  0  0
   37.0580   26.2510   33.9460 H   0  0  0  0  0  0  0  0  0  0  0  0
   35.6840   26.6700   32.9120 H   0  0  0  0  0  0  0  0  0  0  0  0
   38.9450   26.7650   32.2420 C   0  0  0  0  0  0  0  0  0  0  0  0
   39.9210   27.0480   31.2920 C   0  0  0  0  0  0  0  0  0  0  0  0
   41.1510   26.4150   31.4350 C   0  0  0  0  0  0  0  0  0  0  0  0
   41.3360   25.5620   32.4820 N   0  0  0  0  0  0  0  0  0  0  0  0
   40.3750   25.3100   33.3820 C   0  0  0  0  0  0  0  0  0  0  0  0
   39.1880   25.9080   33.2600 N   0  0  0  0  0  0  0  0  0  0  0  0
   39.6150   27.7390   30.5340 H   0  0  0  0  0  0  0  0  0  0  0  0
   41.8760   26.6590   30.6830 H   0  0  0  0  0  0  0  0  0  0  0  0
   40.6380   24.4070   34.4520 N   0  0  0  0  0  0  0  0  0  0  0  0
   41.6560   23.5930   34.7900 C   0  0  0  0  0  0  0  0  0  0  0  0
   42.4810   23.6310   34.0730 H   0  0  0  0  0  0  0  0  0  0  0  0
   41.3570   22.9540   35.9360 N   0  0  0  0  0  0  0  0  0  0  0  0
   40.1390   23.3700   36.3230 C   0  0  0  0  0  0  0  0  0  0  0  0
   39.4410   22.9740   37.4440 C   0  0  0  0  0  0  0  0  0  0  0  0
   39.8430   22.2540   38.1430 H   0  0  0  0  0  0  0  0  0  0  0  0
   38.2090   23.5260   37.6510 N   0  0  0  0  0  0  0  0  0  0  0  0
   37.7580   24.4160   36.7500 C   0  0  0  0  0  0  0  0  0  0  0  0
   36.7920   24.9290   36.7970 H   0  0  0  0  0  0  0  0  0  0  0  0
   38.4210   24.8240   35.6390 N   0  0  0  0  0  0  0  0  0  0  0  0
   39.6560   24.2970   35.3950 C   0  0  0  0  0  0  0  0  0  0  0  0
   35.7880   30.5190   35.3450 C   0  0  0  0  0  0  0  0  0  0  0  0
   35.7360   30.6130   33.9630 C   0  0  0  0  0  0  0  0  0  0  0  0
   35.6360   31.7970   33.2810 C   0  0  0  0  0  0  0  0  0  0  0  0
   35.5820   32.9690   34.0340 C   0  0  0  0  0  0  0  0  0  0  0  0
   35.6320   32.8840   35.4010 C   0  0  0  0  0  0  0  0  0  0  0  0
   35.7340   31.6810   36.0940 C   0  0  0  0  0  0  0  0  0  0  0  0
   35.5640   34.1640   35.9670 O   0  0  0  0  0  0  0  0  0  0  0  0
   35.7950   35.0530   34.8840 C   0  0  0  0  0  0  0  0  0  0  0  0
   35.4830   34.3280   33.7210 O   0  0  0  0  0  0  0  0  0  0  0  0
   35.8770   29.6540   35.9860 H   0  0  0  0  0  0  0  0  0  0  0  0
   35.6000   31.8280   32.2240 H   0  0  0  0  0  0  0  0  0  0  0  0
   35.7700   31.6900   37.1970 H   0  0  0  0  0  0  0  0  0  0  0  0
   35.0850   35.9110   35.0390 H   0  0  0  0  0  0  0  0  0  0  0  0
   36.8230   35.4620   34.8710 H   0  0  0  0  0  0  0  0  0  0  0  0
  1  6  1  0  0  0  0
  2  3  1  0  0  0  0
  2  1  1  0  0  0  0
  3  9  1  0  0  0  0
  3  4  1  0  0  0  0
  4 37  1  0  0  0  0
  4  5  1  0  0  0  0
  5 12  1  0  0  0  0
  5 13  1  0  0  0  0
  6 14  1  0  0  0  0
  6  5  1  0  0  0  0
  7  2  1  0  0  0  0
  8  2  1  0  0  0  0
 10  3  1  0  0  0  0
 11  4  1  0  0  0  0
 15  6  1  0  0  0  0
 16  1  1  0  0  0  0
 16 21  1  0  0  0  0
 17 18  1  0  0  0  0
 17 16  2  0  0  0  0
 18 19  2  0  0  0  0
 19 20  1  0  0  0  0
 20 24  1  0  0  0  0
 21 20  2  0  0  0  0
 22 17  1  0  0  0  0
 23 18  1  0  0  0  0
 24 25  1  0  0  0  0
 24 35  1  0  0  0  0
 25 27  2  0  0  0  0
 26 25  1  0  0  0  0
 27 28  1  0  0  0  0
 28 29  1  0  0  0  0
 29 31  2  0  0  0  0
 29 30  1  0  0  0  0
 32 33  1  0  0  0  0
 32 31  1  0  0  0  0
 34 32  2  0  0  0  0
 35 34  1  0  0  0  0
 35 28  2  0  0  0  0
 36 45  1  0  0  0  0
 36 41  1  0  0  0  0
 37 36  2  0  0  0  0
 38 37  1  0  0  0  0
 38 39  2  0  0  0  0
 39 40  1  0  0  0  0
 40 42  1  0  0  0  0
 40 41  2  0  0  0  0
 41 47  1  0  0  0  0
 43 48  1  0  0  0  0
 43 42  1  0  0  0  0
 44 39  1  0  0  0  0
 44 43  1  0  0  0  0
 46 38  1  0  0  0  0
 49 43  1  0  0  0  0
M  END
>  <minimizedAffinity>
-6.52064085

$$$$

 OpenBabel03272507493D

 49 54  0  0  0  0  0  0  0  0999 V2000
   36.8150   27.7360   32.7570 N   0  0  0  0  0  0  0  0  0  0  0  0
   36.8840   28.3030   34.0580 C   0  0  0  0  0  0  0  0  0  0  0  0
   35.6400   28.9030   34.5930 C   0  0  0  0  0  0  0  0  0  0  0  0
   34.8020   29.6350   33.6430 C   0  0  0  0  0  0  0  0  0  0  0  0
   34.8320   29.0110   32.2360 C   0  0  0  0  0  0  0  0  0  0  0  0
   36.3050   28.7570   31.8840 C   0  0  0  0  0  0  0  0  0  0  0  0
   37.2560   27.5210   34.7810 H   0  0  0  0  0  0  0  0  0  0  0  0
   37.6640   29.0940   34.0370 H   0  0  0  0  0  0  0  0  0  0  0  0
   35.0490   27.9740   34.8930 H   0  0  0  0  0  0  0  0  0  0  0  0
   35.8580   29.4490   35.5200 H   0  0  0  0  0  0  0  0  0  0  0  0
   35.1470   30.6880   33.4720 H   0  0  0  0  0  0  0  0  0  0  0  0
   34.2790   28.0750   32.1760 H   0  0  0  0  0  0  0  0  0  0  0  0
   34.4820   29.7850   31.5160 H   0  0  0  0  0  0  0  0  0  0  0  0
   36.3840   28.3830   30.8540 H   0  0  0  0  0  0  0  0  0  0  0  0
   36.8760   29.7040   31.9230 H   0  0  0  0  0  0  0  0  0  0  0  0
   37.1740   26.4140   32.3460 C   0  0  0  0  0  0  0  0  0  0  0  0
   37.2640   25.9610   31.0330 C   0  0  0  0  0  0  0  0  0  0  0  0
   37.6320   24.6340   30.8420 C   0  0  0  0  0  0  0  0  0  0  0  0
   37.8820   23.8540   31.9320 N   0  0  0  0  0  0  0  0  0  0  0  0
   37.7860   24.3210   33.1850 C   0  0  0  0  0  0  0  0  0  0  0  0
   37.4330   25.5910   33.3880 N   0  0  0  0  0  0  0  0  0  0  0  0
   37.0350   26.6990   30.2930 H   0  0  0  0  0  0  0  0  0  0  0  0
   37.6910   24.3240   29.8170 H   0  0  0  0  0  0  0  0  0  0  0  0
   38.0620   23.4490   34.2780 N   0  0  0  0  0  0  0  0  0  0  0  0
   38.3330   22.1380   34.4130 C   0  0  0  0  0  0  0  0  0  0  0  0
   38.3460   21.6110   33.4550 H   0  0  0  0  0  0  0  0  0  0  0  0
   38.5140   21.8480   35.7150 N   0  0  0  0  0  0  0  0  0  0  0  0
   38.3540   22.9900   36.4070 C   0  0  0  0  0  0  0  0  0  0  0  0
   38.4500   23.1570   37.7730 C   0  0  0  0  0  0  0  0  0  0  0  0
   38.6750   22.3330   38.4340 H   0  0  0  0  0  0  0  0  0  0  0  0
   38.2500   24.4110   38.2730 N   0  0  0  0  0  0  0  0  0  0  0  0
   37.9730   25.4000   37.4040 C   0  0  0  0  0  0  0  0  0  0  0  0
   37.7910   26.4450   37.6730 H   0  0  0  0  0  0  0  0  0  0  0  0
   37.8720   25.2650   36.0580 N   0  0  0  0  0  0  0  0  0  0  0  0
   38.0640   24.0270   35.5170 C   0  0  0  0  0  0  0  0  0  0  0  0
   32.4460   29.2600   33.0650 C   0  0  0  0  0  0  0  0  0  0  0  0
   33.3650   29.7010   34.0040 C   0  0  0  0  0  0  0  0  0  0  0  0
   33.0220   30.2140   35.2270 C   0  0  0  0  0  0  0  0  0  0  0  0
   31.6640   30.2920   35.5330 C   0  0  0  0  0  0  0  0  0  0  0  0
   30.7480   29.8590   34.6090 C   0  0  0  0  0  0  0  0  0  0  0  0
   31.0980   29.3380   33.3660 C   0  0  0  0  0  0  0  0  0  0  0  0
   29.4480   30.0220   35.1040 O   0  0  0  0  0  0  0  0  0  0  0  0
   29.6160   30.2720   36.4920 C   0  0  0  0  0  0  0  0  0  0  0  0
   30.9340   30.7380   36.6390 O   0  0  0  0  0  0  0  0  0  0  0  0
   32.5960   28.8320   32.0850 H   0  0  0  0  0  0  0  0  0  0  0  0
   33.7540   30.5400   35.9190 H   0  0  0  0  0  0  0  0  0  0  0  0
   30.3050   29.0080   32.6730 H   0  0  0  0  0  0  0  0  0  0  0  0
   28.8660   31.0700   36.7500 H   0  0  0  0  0  0  0  0  0  0  0  0
   29.4020   29.3880   37.1210 H   0  0  0  0  0  0  0  0  0  0  0  0
  1  2  1  0  0  0  0
  2  3  1  0  0  0  0
  2  7  1  0  0  0  0
  3  9  1  0  0  0  0
  3 10  1  0  0  0  0
  4 37  1  0  0  0  0
  4  3  1  0  0  0  0
  5  4  1  0  0  0  0
  6 15  1  0  0  0  0
  6  5  1  0  0  0  0
  6  1  1  0  0  0  0
  8  2  1  0  0  0  0
 11  4  1  0  0  0  0
 12  5  1  0  0  0  0
 13  5  1  0  0  0  0
 14  6  1  0  0  0  0
 16  1  1  0  0  0  0
 16 21  1  0  0  0  0
 17 16  2  0  0  0  0
 18 17  1  0  0  0  0
 18 19  2  0  0  0  0
 19 20  1  0  0  0  0
 20 21  2  0  0  0  0
 20 24  1  0  0  0  0
 22 17  1  0  0  0  0
 23 18  1  0  0  0  0
 24 25  1  0  0  0  0
 24 35  1  0  0  0  0
 25 27  2  0  0  0  0
 26 25  1  0  0  0  0
 27 28  1  0  0  0  0
 28 29  1  0  0  0  0
 29 31  2  0  0  0  0
 29 30  1  0  0  0  0
 32 33  1  0  0  0  0
 32 31  1  0  0  0  0
 34 32  2  0  0  0  0
 35 34  1  0  0  0  0
 35 28  2  0  0  0  0
 36 41  2  0  0  0  0
 36 37  1  0  0  0  0
 37 38  2  0  0  0  0
 38 39  1  0  0  0  0
 38 46  1  0  0  0  0
 39 44  1  0  0  0  0
 40 42  1  0  0  0  0
 40 39  2  0  0  0  0
 41 40  1  0  0  0  0
 42 43  1  0  0  0  0
 43 44  1  0  0  0  0
 43 48  1  0  0  0  0
 43 49  1  0  0  0  0
 45 36  1  0  0  0  0
 47 41  1  0  0  0  0
M  END
>  <minimizedAffinity>
-6.4133687

$$$$

 OpenBabel03272507493D

 49 54  0  0  0  0  0  0  0  0999 V2000
   37.2800   25.3780   32.4220 N   0  0  0  0  0  0  0  0  0  0  0  0
   36.2520   25.4360   31.4420 C   0  0  0  0  0  0  0  0  0  0  0  0
   36.0570   26.7340   30.7550 C   0  0  0  0  0  0  0  0  0  0  0  0
   36.2030   27.9390   31.5720 C   0  0  0  0  0  0  0  0  0  0  0  0
   37.2790   27.7800   32.6600 C   0  0  0  0  0  0  0  0  0  0  0  0
   37.0240   26.4360   33.3590 C   0  0  0  0  0  0  0  0  0  0  0  0
   36.4330   24.6350   30.6700 H   0  0  0  0  0  0  0  0  0  0  0  0
   35.2970   25.1670   31.9430 H   0  0  0  0  0  0  0  0  0  0  0  0
   36.9290   26.7370   30.0210 H   0  0  0  0  0  0  0  0  0  0  0  0
   35.1390   26.7030   30.1530 H   0  0  0  0  0  0  0  0  0  0  0  0
   35.2770   28.1920   32.1520 H   0  0  0  0  0  0  0  0  0  0  0  0
   38.2920   27.7920   32.2600 H   0  0  0  0  0  0  0  0  0  0  0  0
   37.0950   28.5590   33.4350 H   0  0  0  0  0  0  0  0  0  0  0  0
   37.7220   26.3130   34.1980 H   0  0  0  0  0  0  0  0  0  0  0  0
   36.0040   26.4170   33.7870 H   0  0  0  0  0  0  0  0  0  0  0  0
   38.3750   24.4610   32.5030 C   0  0  0  0  0  0  0  0  0  0  0  0
   39.1210   23.9800   31.4320 C   0  0  0  0  0  0  0  0  0  0  0  0
   40.1510   23.0920   31.7210 C   0  0  0  0  0  0  0  0  0  0  0  0
   40.3750   22.7410   33.0190 N   0  0  0  0  0  0  0  0  0  0  0  0
   39.6380   23.2230   34.0300 C   0  0  0  0  0  0  0  0  0  0  0  0
   38.6450   24.0750   33.7710 N   0  0  0  0  0  0  0  0  0  0  0  0
   38.8150   24.3530   30.4770 H   0  0  0  0  0  0  0  0  0  0  0  0
   40.7010   22.7450   30.8690 H   0  0  0  0  0  0  0  0  0  0  0  0
   39.9290   22.8130   35.3640 N   0  0  0  0  0  0  0  0  0  0  0  0
   40.7650   21.9240   35.9320 C   0  0  0  0  0  0  0  0  0  0  0  0
   41.3670   21.3830   35.1970 H   0  0  0  0  0  0  0  0  0  0  0  0
   40.6140   21.9570   37.2690 N   0  0  0  0  0  0  0  0  0  0  0  0
   39.6740   22.8770   37.5450 C   0  0  0  0  0  0  0  0  0  0  0  0
   39.2020   23.2400   38.7890 C   0  0  0  0  0  0  0  0  0  0  0  0
   39.5750   22.7860   39.6960 H   0  0  0  0  0  0  0  0  0  0  0  0
   38.2380   24.2050   38.8450 N   0  0  0  0  0  0  0  0  0  0  0  0
   37.8100   24.7370   37.6860 C   0  0  0  0  0  0  0  0  0  0  0  0
   37.0450   25.5130   37.5910 H   0  0  0  0  0  0  0  0  0  0  0  0
   38.2550   24.3990   36.4490 N   0  0  0  0  0  0  0  0  0  0  0  0
   39.2180   23.4390   36.3490 C   0  0  0  0  0  0  0  0  0  0  0  0
   36.4150   30.3810   31.4450 C   0  0  0  0  0  0  0  0  0  0  0  0
   36.5920   29.1570   30.8200 C   0  0  0  0  0  0  0  0  0  0  0  0
   37.0790   29.0110   29.5480 C   0  0  0  0  0  0  0  0  0  0  0  0
   37.4120   30.1720   28.8510 C   0  0  0  0  0  0  0  0  0  0  0  0
   37.2390   31.3870   29.4620 C   0  0  0  0  0  0  0  0  0  0  0  0
   36.7440   31.5340   30.7550 C   0  0  0  0  0  0  0  0  0  0  0  0
   37.6280   32.4210   28.6000 O   0  0  0  0  0  0  0  0  0  0  0  0
   38.3460   31.7750   27.5600 C   0  0  0  0  0  0  0  0  0  0  0  0
   37.9230   30.4350   27.5770 O   0  0  0  0  0  0  0  0  0  0  0  0
   36.0540   30.6170   32.4360 H   0  0  0  0  0  0  0  0  0  0  0  0
   37.2010   28.0580   29.1050 H   0  0  0  0  0  0  0  0  0  0  0  0
   36.6320   32.5450   31.1820 H   0  0  0  0  0  0  0  0  0  0  0  0
   38.0370   32.2930   26.6100 H   0  0  0  0  0  0  0  0  0  0  0  0
   39.4430   31.8790   27.6610 H   0  0  0  0  0  0  0  0  0  0  0  0
  1 16  1  0  0  0  0
  1  6  1  0  0  0  0
  2  8  1  0  0  0  0
  2  1  1  0  0  0  0
  3  2  1  0  0  0  0
  3  4  1  0  0  0  0
  4 11  1  0  0  0  0
  4  5  1  0  0  0  0
  5  6  1  0  0  0  0
  5 13  1  0  0  0  0
  6 15  1  0  0  0  0
  6 14  1  0  0  0  0
  7  2  1  0  0  0  0
  9  3  1  0  0  0  0
 10  3  1  0  0  0  0
 12  5  1  0  0  0  0
 16 21  1  0  0  0  0
 17 18  1  0  0  0  0
 17 16  2  0  0  0  0
 18 19  2  0  0  0  0
 19 20  1  0  0  0  0
 20 24  1  0  0  0  0
 21 20  2  0  0  0  0
 22 17  1  0  0  0  0
 23 18  1  0  0  0  0
 24 25  1  0  0  0  0
 24 35  1  0  0  0  0
 25 27  2  0  0  0  0
 26 25  1  0  0  0  0
 27 28  1  0  0  0  0
 28 29  1  0  0  0  0
 29 31  2  0  0  0  0
 29 30  1  0  0  0  0
 32 31  1  0  0  0  0
 33 32  1  0  0  0  0
 34 32  2  0  0  0  0
 35 34  1  0  0  0  0
 35 28  2  0  0  0  0
 36 45  1  0  0  0  0
 37 36  1  0  0  0  0
 37  4  1  0  0  0  0
 38 37  2  0  0  0  0
 39 40  2  0  0  0  0
 39 38  1  0  0  0  0
 40 41  1  0  0  0  0
 41 47  1  0  0  0  0
 41 36  2  0  0  0  0
 42 40  1  0  0  0  0
 43 44  1  0  0  0  0
 43 49  1  0  0  0  0
 43 42  1  0  0  0  0
 44 39  1  0  0  0  0
 46 38  1  0  0  0  0
 48 43  1  0  0  0  0
M  END
>  <minimizedAffinity>
-6.33901739

$$$$

 OpenBabel03272507493D

 49 54  0  0  0  0  0  0  0  0999 V2000
   38.8280   24.9340   34.0310 N   0  0  0  0  0  0  0  0  0  0  0  0
   39.6910   25.9060   33.4560 C   0  0  0  0  0  0  0  0  0  0  0  0
   39.0570   27.1490   32.9570 C   0  0  0  0  0  0  0  0  0  0  0  0
   37.7580   27.0070   32.2990 C   0  0  0  0  0  0  0  0  0  0  0  0
   36.9070   25.8870   32.9240 C   0  0  0  0  0  0  0  0  0  0  0  0
   37.8100   24.6520   33.0590 C   0  0  0  0  0  0  0  0  0  0  0  0
   40.4920   26.1750   34.2020 H   0  0  0  0  0  0  0  0  0  0  0  0
   40.2160   25.4240   32.6040 H   0  0  0  0  0  0  0  0  0  0  0  0
   38.8650   27.7130   33.9290 H   0  0  0  0  0  0  0  0  0  0  0  0
   39.7900   27.7390   32.3910 H   0  0  0  0  0  0  0  0  0  0  0  0
   37.8410   26.7060   31.2220 H   0  0  0  0  0  0  0  0  0  0  0  0
   36.5090   26.1530   33.9020 H   0  0  0  0  0  0  0  0  0  0  0  0
   36.1230   25.6050   32.1840 H   0  0  0  0  0  0  0  0  0  0  0  0
   37.2240   23.8000   33.4290 H   0  0  0  0  0  0  0  0  0  0  0  0
   38.2070   24.3590   32.0680 H   0  0  0  0  0  0  0  0  0  0  0  0
   38.9180   24.3230   35.3220 C   0  0  0  0  0  0  0  0  0  0  0  0
   38.0820   24.5730   36.4050 C   0  0  0  0  0  0  0  0  0  0  0  0
   38.3340   23.8720   37.5790 C   0  0  0  0  0  0  0  0  0  0  0  0
   39.3730   22.9890   37.6100 N   0  0  0  0  0  0  0  0  0  0  0  0
   40.1610   22.7700   36.5480 C   0  0  0  0  0  0  0  0  0  0  0  0
   39.9340   23.4340   35.4140 N   0  0  0  0  0  0  0  0  0  0  0  0
   37.3150   25.2940   36.2160 H   0  0  0  0  0  0  0  0  0  0  0  0
   37.6680   24.0920   38.3900 H   0  0  0  0  0  0  0  0  0  0  0  0
   41.2290   21.8320   36.6520 N   0  0  0  0  0  0  0  0  0  0  0  0
   41.7680   21.1000   37.6450 C   0  0  0  0  0  0  0  0  0  0  0  0
   41.2700   21.2620   38.6040 H   0  0  0  0  0  0  0  0  0  0  0  0
   42.7870   20.3670   37.1590 N   0  0  0  0  0  0  0  0  0  0  0  0
   42.8890   20.6400   35.8470 C   0  0  0  0  0  0  0  0  0  0  0  0
   43.7990   20.1120   34.9550 C   0  0  0  0  0  0  0  0  0  0  0  0
   44.5460   19.3930   35.2590 H   0  0  0  0  0  0  0  0  0  0  0  0
   43.7270   20.5290   33.6560 N   0  0  0  0  0  0  0  0  0  0  0  0
   42.7790   21.4260   33.3330 C   0  0  0  0  0  0  0  0  0  0  0  0
   42.6150   21.8410   32.3340 H   0  0  0  0  0  0  0  0  0  0  0  0
   41.8730   21.9620   34.1890 N   0  0  0  0  0  0  0  0  0  0  0  0
   41.9090   21.5720   35.4960 C   0  0  0  0  0  0  0  0  0  0  0  0
   36.8290   28.9990   31.2070 C   0  0  0  0  0  0  0  0  0  0  0  0
   36.9010   28.2160   32.3490 C   0  0  0  0  0  0  0  0  0  0  0  0
   36.2500   28.5070   33.5180 C   0  0  0  0  0  0  0  0  0  0  0  0
   35.4720   29.6640   33.5490 C   0  0  0  0  0  0  0  0  0  0  0  0
   35.3960   30.4440   32.4240 C   0  0  0  0  0  0  0  0  0  0  0  0
   36.0580   30.1470   31.2360 C   0  0  0  0  0  0  0  0  0  0  0  0
   34.5710   31.5530   32.6590 O   0  0  0  0  0  0  0  0  0  0  0  0
   33.8910   31.2480   33.8680 C   0  0  0  0  0  0  0  0  0  0  0  0
   34.6800   30.2850   34.5190 O   0  0  0  0  0  0  0  0  0  0  0  0
   37.2820   28.8650   30.2360 H   0  0  0  0  0  0  0  0  0  0  0  0
   36.3290   27.8840   34.3700 H   0  0  0  0  0  0  0  0  0  0  0  0
   35.9490   30.8220   30.3700 H   0  0  0  0  0  0  0  0  0  0  0  0
   33.8550   32.2120   34.4470 H   0  0  0  0  0  0  0  0  0  0  0  0
   32.8500   30.9110   33.7060 H   0  0  0  0  0  0  0  0  0  0  0  0
  1 16  1  0  0  0  0
  2  1  1  0  0  0  0
  2  7  1  0  0  0  0
  3  2  1  0  0  0  0
  3  9  1  0  0  0  0
  4 37  1  0  0  0  0
  4  5  1  0  0  0  0
  4  3  1  0  0  0  0
  5  6  1  0  0  0  0
  5 12  1  0  0  0  0
  6 14  1  0  0  0  0
  6  1  1  0  0  0  0
  8  2  1  0  0  0  0
 10  3  1  0  0  0  0
 11  4  1  0  0  0  0
 13  5  1  0  0  0  0
 15  6  1  0  0  0  0
 16 21  2  0  0  0  0
 16 17  1  0  0  0  0
 17 18  2  0  0  0  0
 18 19  1  0  0  0  0
 18 23  1  0  0  0  0
 20 24  1  0  0  0  0
 20 19  2  0  0  0  0
 21 20  1  0  0  0  0
 22 17  1  0  0  0  0
 24 25  1  0  0  0  0
 25 26  1  0  0  0  0
 27 25  2  0  0  0  0
 28 27  1  0  0  0  0
 29 30  1  0  0  0  0
 29 28  2  0  0  0  0
 31 29  1  0  0  0  0
 32 31  2  0  0  0  0
 32 34  1  0  0  0  0
 33 32  1  0  0  0  0
 34 35  2  0  0  0  0
 35 28  1  0  0  0  0
 35 24  1  0  0  0  0
 36 41  2  0  0  0  0
 36 37  1  0  0  0  0
 37 38  2  0  0  0  0
 38 39  1  0  0  0  0
 38 46  1  0  0  0  0
 39 44  1  0  0  0  0
 40 42  1  0  0  0  0
 40 39  2  0  0  0  0
 41 40  1  0  0  0  0
 42 43  1  0  0  0  0
 43 48  1  0  0  0  0
 43 44  1  0  0  0  0
 45 36  1  0  0  0  0
 47 41  1  0  0  0  0
 49 43  1  0  0  0  0
M  END
>  <minimizedAffinity>
-6.32522869

$$$$

 OpenBabel03272507493D

 49 54  0  0  0  0  0  0  0  0999 V2000
   39.1960   26.3070   34.5420 N   0  0  0  0  0  0  0  0  0  0  0  0
   38.1770   25.8430   33.6660 C   0  0  0  0  0  0  0  0  0  0  0  0
   37.0760   26.7860   33.3630 C   0  0  0  0  0  0  0  0  0  0  0  0
   36.6100   27.6290   34.4640 C   0  0  0  0  0  0  0  0  0  0  0  0
   37.7510   28.0330   35.4140 C   0  0  0  0  0  0  0  0  0  0  0  0
   38.5440   26.7580   35.7390 C   0  0  0  0  0  0  0  0  0  0  0  0
   38.6480   25.5030   32.7000 H   0  0  0  0  0  0  0  0  0  0  0  0
   37.7320   24.9330   34.1250 H   0  0  0  0  0  0  0  0  0  0  0  0
   37.5750   27.4850   32.6130 H   0  0  0  0  0  0  0  0  0  0  0  0
   36.2770   26.2640   32.8210 H   0  0  0  0  0  0  0  0  0  0  0  0
   35.8780   27.1090   35.1360 H   0  0  0  0  0  0  0  0  0  0  0  0
   38.4200   28.7740   34.9810 H   0  0  0  0  0  0  0  0  0  0  0  0
   37.2920   28.3530   36.3770 H   0  0  0  0  0  0  0  0  0  0  0  0
   39.3240   26.9830   36.4780 H   0  0  0  0  0  0  0  0  0  0  0  0
   37.8780   26.0020   36.1980 H   0  0  0  0  0  0  0  0  0  0  0  0
   40.6090   26.3370   34.3190 C   0  0  0  0  0  0  0  0  0  0  0  0
   41.3150   27.3470   33.6730 C   0  0  0  0  0  0  0  0  0  0  0  0
   42.6910   27.1900   33.5590 C   0  0  0  0  0  0  0  0  0  0  0  0
   43.2720   26.0700   34.0770 N   0  0  0  0  0  0  0  0  0  0  0  0
   42.5640   25.1140   34.6940 C   0  0  0  0  0  0  0  0  0  0  0  0
   41.2420   25.2480   34.8130 N   0  0  0  0  0  0  0  0  0  0  0  0
   40.7090   28.1580   33.3250 H   0  0  0  0  0  0  0  0  0  0  0  0
   43.1980   27.9890   33.0560 H   0  0  0  0  0  0  0  0  0  0  0  0
   43.2380   23.9700   35.2120 N   0  0  0  0  0  0  0  0  0  0  0  0
   44.4990   23.5000   35.1710 C   0  0  0  0  0  0  0  0  0  0  0  0
   45.1710   24.1500   34.6040 H   0  0  0  0  0  0  0  0  0  0  0  0
   44.5690   22.3420   35.8520 N   0  0  0  0  0  0  0  0  0  0  0  0
   43.3390   22.0800   36.3280 C   0  0  0  0  0  0  0  0  0  0  0  0
   42.9520   20.9930   37.0840 C   0  0  0  0  0  0  0  0  0  0  0  0
   43.6500   20.2200   37.3710 H   0  0  0  0  0  0  0  0  0  0  0  0
   41.6430   20.9210   37.4660 N   0  0  0  0  0  0  0  0  0  0  0  0
   40.8180   21.9110   37.0800 C   0  0  0  0  0  0  0  0  0  0  0  0
   39.7520   21.9730   37.3160 H   0  0  0  0  0  0  0  0  0  0  0  0
   41.1710   22.9900   36.3370 N   0  0  0  0  0  0  0  0  0  0  0  0
   42.4700   23.1010   35.9340 C   0  0  0  0  0  0  0  0  0  0  0  0
   35.9250   29.9280   34.9820 C   0  0  0  0  0  0  0  0  0  0  0  0
   35.9850   28.9080   34.0460 C   0  0  0  0  0  0  0  0  0  0  0  0
   35.4820   29.0050   32.7760 C   0  0  0  0  0  0  0  0  0  0  0  0
   34.8740   30.2070   32.4160 C   0  0  0  0  0  0  0  0  0  0  0  0
   34.8090   31.2210   33.3370 C   0  0  0  0  0  0  0  0  0  0  0  0
   35.3220   31.1210   34.6280 C   0  0  0  0  0  0  0  0  0  0  0  0
   34.1650   32.3350   32.7830 O   0  0  0  0  0  0  0  0  0  0  0  0
   34.1250   32.0760   31.3880 C   0  0  0  0  0  0  0  0  0  0  0  0
   34.2610   30.6830   31.2540 O   0  0  0  0  0  0  0  0  0  0  0  0
   36.2920   29.9710   35.9970 H   0  0  0  0  0  0  0  0  0  0  0  0
   35.5470   28.2020   32.0890 H   0  0  0  0  0  0  0  0  0  0  0  0
   35.2340   31.9810   35.3140 H   0  0  0  0  0  0  0  0  0  0  0  0
   33.1130   32.4270   31.0430 H   0  0  0  0  0  0  0  0  0  0  0  0
   34.8900   32.6380   30.8210 H   0  0  0  0  0  0  0  0  0  0  0  0
  1  6  1  0  0  0  0
  2  8  1  0  0  0  0
  2  1  1  0  0  0  0
  3  2  1  0  0  0  0
  3  4  1  0  0  0  0
  4 11  1  0  0  0  0
  4  5  1  0  0  0  0
  5  6  1  0  0  0  0
  5 13  1  0  0  0  0
  6 15  1  0  0  0  0
  6 14  1  0  0  0  0
  7  2  1  0  0  0  0
  9  3  1  0  0  0  0
 10  3  1  0  0  0  0
 12  5  1  0  0  0  0
 16  1  1  0  0  0  0
 16 21  1  0  0  0  0
 17 16  2  0  0  0  0
 18 17  1  0  0  0  0
 18 19  2  0  0  0  0
 19 20  1  0  0  0  0
 20 21  2  0  0  0  0
 20 24  1  0  0  0  0
 22 17  1  0  0  0  0
 23 18  1  0  0  0  0
 24 35  1  0  0  0  0
 25 24  1  0  0  0  0
 25 27  2  0  0  0  0
 26 25  1  0  0  0  0
 27 28  1  0  0  0  0
 28 29  1  0  0  0  0
 29 30  1  0  0  0  0
 29 31  2  0  0  0  0
 32 33  1  0  0  0  0
 32 31  1  0  0  0  0
 34 32  2  0  0  0  0
 35 28  2  0  0  0  0
 35 34  1  0  0  0  0
 36 45  1  0  0  0  0
 37  4  1  0  0  0  0
 37 36  2  0  0  0  0
 38 37  1  0  0  0  0
 39 38  2  0  0  0  0
 39 40  1  0  0  0  0
 40 41  2  0  0  0  0
 41 36  1  0  0  0  0
 41 47  1  0  0  0  0
 42 40  1  0  0  0  0
 43 42  1  0  0  0  0
 44 43  1  0  0  0  0
 44 39  1  0  0  0  0
 46 38  1  0  0  0  0
 48 43  1  0  0  0  0
 49 43  1  0  0  0  0
M  END
>  <minimizedAffinity>
-6.24934673

$$$$

 OpenBabel03272507493D

 49 54  0  0  0  0  0  0  0  0999 V2000
   37.6210   25.9060   33.2460 N   0  0  0  0  0  0  0  0  0  0  0  0
   37.4280   26.1670   34.6300 C   0  0  0  0  0  0  0  0  0  0  0  0
   38.1190   25.2650   35.5810 C   0  0  0  0  0  0  0  0  0  0  0  0
   38.1790   23.8490   35.2200 C   0  0  0  0  0  0  0  0  0  0  0  0
   38.3120   23.6390   33.7010 C   0  0  0  0  0  0  0  0  0  0  0  0
   37.2620   24.5340   33.0250 C   0  0  0  0  0  0  0  0  0  0  0  0
   37.7260   27.2320   34.8490 H   0  0  0  0  0  0  0  0  0  0  0  0
   36.3370   26.1070   34.8320 H   0  0  0  0  0  0  0  0  0  0  0  0
   39.1890   25.6560   35.5290 H   0  0  0  0  0  0  0  0  0  0  0  0
   37.7640   25.4580   36.6020 H   0  0  0  0  0  0  0  0  0  0  0  0
   37.2450   23.2880   35.4830 H   0  0  0  0  0  0  0  0  0  0  0  0
   39.3000   23.8930   33.3230 H   0  0  0  0  0  0  0  0  0  0  0  0
   38.0020   22.5930   33.4760 H   0  0  0  0  0  0  0  0  0  0  0  0
   37.2650   24.3590   31.9410 H   0  0  0  0  0  0  0  0  0  0  0  0
   36.2490   24.2730   33.3870 H   0  0  0  0  0  0  0  0  0  0  0  0
   38.0780   26.8050   32.2310 C   0  0  0  0  0  0  0  0  0  0  0  0
   39.2580   26.6870   31.5040 C   0  0  0  0  0  0  0  0  0  0  0  0
   39.5230   27.6680   30.5550 C   0  0  0  0  0  0  0  0  0  0  0  0
   38.6280   28.6830   30.3880 N   0  0  0  0  0  0  0  0  0  0  0  0
   37.4980   28.7690   31.1040 C   0  0  0  0  0  0  0  0  0  0  0  0
   37.2280   27.8360   32.0190 N   0  0  0  0  0  0  0  0  0  0  0  0
   39.8510   25.8330   31.7580 H   0  0  0  0  0  0  0  0  0  0  0  0
   40.4410   27.5410   30.0170 H   0  0  0  0  0  0  0  0  0  0  0  0
   36.6070   29.8570   30.8760 N   0  0  0  0  0  0  0  0  0  0  0  0
   36.6330   30.9760   30.1270 C   0  0  0  0  0  0  0  0  0  0  0  0
   37.5590   31.0780   29.5560 H   0  0  0  0  0  0  0  0  0  0  0  0
   35.4870   31.6600   30.3030 N   0  0  0  0  0  0  0  0  0  0  0  0
   34.7330   30.9640   31.1710 C   0  0  0  0  0  0  0  0  0  0  0  0
   33.4780   31.2970   31.6380 C   0  0  0  0  0  0  0  0  0  0  0  0
   32.9720   32.1980   31.3220 H   0  0  0  0  0  0  0  0  0  0  0  0
   32.8830   30.4430   32.5210 N   0  0  0  0  0  0  0  0  0  0  0  0
   33.5590   29.3370   32.8800 C   0  0  0  0  0  0  0  0  0  0  0  0
   33.1980   28.5740   33.5780 H   0  0  0  0  0  0  0  0  0  0  0  0
   34.7920   28.9840   32.4390 N   0  0  0  0  0  0  0  0  0  0  0  0
   35.4220   29.8100   31.5540 C   0  0  0  0  0  0  0  0  0  0  0  0
   39.3940   23.0460   37.1950 C   0  0  0  0  0  0  0  0  0  0  0  0
   39.3160   23.1040   35.8130 C   0  0  0  0  0  0  0  0  0  0  0  0
   40.2360   22.5380   34.9710 C   0  0  0  0  0  0  0  0  0  0  0  0
   41.3110   21.8660   35.5510 C   0  0  0  0  0  0  0  0  0  0  0  0
   41.3960   21.8050   36.9190 C   0  0  0  0  0  0  0  0  0  0  0  0
   40.4600   22.3800   37.7740 C   0  0  0  0  0  0  0  0  0  0  0  0
   42.5410   21.0920   37.3000 O   0  0  0  0  0  0  0  0  0  0  0  0
   42.9780   20.4470   36.1130 C   0  0  0  0  0  0  0  0  0  0  0  0
   42.4200   21.1790   35.0510 O   0  0  0  0  0  0  0  0  0  0  0  0
   38.7310   23.4390   37.9520 H   0  0  0  0  0  0  0  0  0  0  0  0
   40.1410   22.6030   33.9180 H   0  0  0  0  0  0  0  0  0  0  0  0
   40.5940   22.2900   38.8650 H   0  0  0  0  0  0  0  0  0  0  0  0
   44.1010   20.5230   36.1220 H   0  0  0  0  0  0  0  0  0  0  0  0
   42.7120   19.3740   36.0810 H   0  0  0  0  0  0  0  0  0  0  0  0
  1  2  1  0  0  0  0
  2  8  1  0  0  0  0
  2  7  1  0  0  0  0
  2  3  1  0  0  0  0
  3 10  1  0  0  0  0
  4 11  1  0  0  0  0
  4  3  1  0  0  0  0
  4 37  1  0  0  0  0
  5  4  1  0  0  0  0
  6  1  1  0  0  0  0
  6 15  1  0  0  0  0
  6  5  1  0  0  0  0
  9  3  1  0  0  0  0
 12  5  1  0  0  0  0
 13  5  1  0  0  0  0
 14  6  1  0  0  0  0
 16  1  1  0  0  0  0
 17 22  1  0  0  0  0
 17 16  2  0  0  0  0
 18 17  1  0  0  0  0
 19 18  2  0  0  0  0
 19 20  1  0  0  0  0
 20 21  2  0  0  0  0
 21 16  1  0  0  0  0
 23 18  1  0  0  0  0
 24 20  1  0  0  0  0
 24 35  1  0  0  0  0
 25 27  2  0  0  0  0
 25 24  1  0  0  0  0
 26 25  1  0  0  0  0
 27 28  1  0  0  0  0
 28 35  2  0  0  0  0
 28 29  1  0  0  0  0
 29 31  2  0  0  0  0
 30 29  1  0  0  0  0
 31 32  1  0  0  0  0
 32 33  1  0  0  0  0
 34 32  2  0  0  0  0
 35 34  1  0  0  0  0
 36 41  1  0  0  0  0
 36 45  1  0  0  0  0
 37 36  2  0  0  0  0
 38 39  2  0  0  0  0
 38 37  1  0  0  0  0
 39 40  1  0  0  0  0
 40 42  1  0  0  0  0
 40 41  2  0  0  0  0
 41 47  1  0  0  0  0
 43 48  1  0  0  0  0
 43 42  1  0  0  0  0
 44 39  1  0  0  0  0
 44 43  1  0  0  0  0
 46 38  1  0  0  0  0
 49 43  1  0  0  0  0
M  END
>  <minimizedAffinity>
-6.19588041

$$$$

 OpenBabel03272507493D

 49 54  0  0  0  0  0  0  0  0999 V2000
   37.1230   27.1070   33.3270 N   0  0  0  0  0  0  0  0  0  0  0  0
   37.3400   27.4080   34.6990 C   0  0  0  0  0  0  0  0  0  0  0  0
   38.5820   26.8810   35.3110 C   0  0  0  0  0  0  0  0  0  0  0  0
   39.0020   25.5420   34.8970 C   0  0  0  0  0  0  0  0  0  0  0  0
   38.6700   25.2560   33.4220 C   0  0  0  0  0  0  0  0  0  0  0  0
   37.2110   25.6800   33.1940 C   0  0  0  0  0  0  0  0  0  0  0  0
   37.3050   28.5260   34.8400 H   0  0  0  0  0  0  0  0  0  0  0  0
   36.4770   27.0010   35.2700 H   0  0  0  0  0  0  0  0  0  0  0  0
   39.3620   27.6040   34.9000 H   0  0  0  0  0  0  0  0  0  0  0  0
   38.5550   27.0320   36.3980 H   0  0  0  0  0  0  0  0  0  0  0  0
   38.4720   24.7240   35.4500 H   0  0  0  0  0  0  0  0  0  0  0  0
   39.3150   25.7950   32.7300 H   0  0  0  0  0  0  0  0  0  0  0  0
   38.6860   24.1510   33.2800 H   0  0  0  0  0  0  0  0  0  0  0  0
   36.9030   25.4210   32.1720 H   0  0  0  0  0  0  0  0  0  0  0  0
   36.5420   25.1250   33.8790 H   0  0  0  0  0  0  0  0  0  0  0  0
   36.8620   28.0130   32.2510 C   0  0  0  0  0  0  0  0  0  0  0  0
   37.5960   28.1200   31.0740 C   0  0  0  0  0  0  0  0  0  0  0  0
   37.1780   29.0670   30.1460 C   0  0  0  0  0  0  0  0  0  0  0  0
   36.0870   29.8330   30.4320 N   0  0  0  0  0  0  0  0  0  0  0  0
   35.4000   29.7060   31.5760 C   0  0  0  0  0  0  0  0  0  0  0  0
   35.7880   28.8030   32.4780 N   0  0  0  0  0  0  0  0  0  0  0  0
   38.4240   27.4450   31.0060 H   0  0  0  0  0  0  0  0  0  0  0  0
   37.7690   29.1180   29.2530 H   0  0  0  0  0  0  0  0  0  0  0  0
   34.2690   30.5410   31.8080 N   0  0  0  0  0  0  0  0  0  0  0  0
   33.6980   31.5800   31.1710 C   0  0  0  0  0  0  0  0  0  0  0  0
   34.2270   31.8530   30.2530 H   0  0  0  0  0  0  0  0  0  0  0  0
   32.6190   31.9920   31.8610 N   0  0  0  0  0  0  0  0  0  0  0  0
   32.5090   31.2030   32.9440 C   0  0  0  0  0  0  0  0  0  0  0  0
   31.5460   31.2700   33.9290 C   0  0  0  0  0  0  0  0  0  0  0  0
   30.7540   32.0060   33.9050 H   0  0  0  0  0  0  0  0  0  0  0  0
   31.6190   30.3650   34.9490 N   0  0  0  0  0  0  0  0  0  0  0  0
   32.6250   29.4730   34.9280 C   0  0  0  0  0  0  0  0  0  0  0  0
   32.7990   28.6990   35.6820 H   0  0  0  0  0  0  0  0  0  0  0  0
   33.5850   29.3840   33.9750 N   0  0  0  0  0  0  0  0  0  0  0  0
   33.5480   30.2690   32.9370 C   0  0  0  0  0  0  0  0  0  0  0  0
   41.3260   26.2430   34.5350 C   0  0  0  0  0  0  0  0  0  0  0  0
   40.4560   25.2810   35.0230 C   0  0  0  0  0  0  0  0  0  0  0  0
   40.8610   24.1000   35.5870 C   0  0  0  0  0  0  0  0  0  0  0  0
   42.2330   23.8640   35.6680 C   0  0  0  0  0  0  0  0  0  0  0  0
   43.1000   24.8110   35.1870 C   0  0  0  0  0  0  0  0  0  0  0  0
   42.6870   26.0110   34.6140 C   0  0  0  0  0  0  0  0  0  0  0  0
   44.4240   24.3860   35.3600 O   0  0  0  0  0  0  0  0  0  0  0  0
   44.3390   23.2880   36.2560 C   0  0  0  0  0  0  0  0  0  0  0  0
   43.0180   22.8170   36.1590 O   0  0  0  0  0  0  0  0  0  0  0  0
   41.1270   27.2050   34.0860 H   0  0  0  0  0  0  0  0  0  0  0  0
   40.1660   23.3890   35.9490 H   0  0  0  0  0  0  0  0  0  0  0  0
   43.4440   26.7270   34.2490 H   0  0  0  0  0  0  0  0  0  0  0  0
   45.0770   22.5280   35.8770 H   0  0  0  0  0  0  0  0  0  0  0  0
   44.6240   23.5500   37.2920 H   0  0  0  0  0  0  0  0  0  0  0  0
  1  2  1  0  0  0  0
  2  7  1  0  0  0  0
  2  8  1  0  0  0  0
  2  3  1  0  0  0  0
  3 10  1  0  0  0  0
  4 37  1  0  0  0  0
  4  3  1  0  0  0  0
  4 11  1  0  0  0  0
  5  4  1  0  0  0  0
  6  1  1  0  0  0  0
  6  5  1  0  0  0  0
  6 15  1  0  0  0  0
  9  3  1  0  0  0  0
 12  5  1  0  0  0  0
 13  5  1  0  0  0  0
 14  6  1  0  0  0  0
 16 21  1  0  0  0  0
 16  1  1  0  0  0  0
 17 16  2  0  0  0  0
 18 19  2  0  0  0  0
 18 17  1  0  0  0  0
 19 20  1  0  0  0  0
 20 24  1  0  0  0  0
 20 21  2  0  0  0  0
 22 17  1  0  0  0  0
 23 18  1  0  0  0  0
 24 35  1  0  0  0  0
 25 24  1  0  0  0  0
 25 27  2  0  0  0  0
 26 25  1  0  0  0  0
 27 28  1  0  0  0  0
 28 29  1  0  0  0  0
 29 31  2  0  0  0  0
 30 29  1  0  0  0  0
 32 31  1  0  0  0  0
 32 33  1  0  0  0  0
 34 32  2  0  0  0  0
 35 28  2  0  0  0  0
 35 34  1  0  0  0  0
 36 41  2  0  0  0  0
 36 37  1  0  0  0  0
 37 38  2  0  0  0  0
 38 39  1  0  0  0  0
 38 46  1  0  0  0  0
 39 44  1  0  0  0  0
 40 42  1  0  0  0  0
 40 39  2  0  0  0  0
 41 40  1  0  0  0  0
 42 43  1  0  0  0  0
 43 49  1  0  0  0  0
 44 43  1  0  0  0  0
 45 36  1  0  0  0  0
 47 41  1  0  0  0  0
 48 43  1  0  0  0  0
M  END
>  <minimizedAffinity>
-6.1765871

$$$$
