REMARK  Name = 
REMARK  1 active torsions:
REMARK  status: ('A' for Active; 'I' for Inactive)
REMARK    1  A    between atoms: C_2  and  N_22
REMARK                            x       y       z     vdW  Elec       q    Type
REMARK                         _______ _______ _______ _____ _____    ______ ____
ROOT
ATOM      1  C   UNL     1      38.096  33.139  49.503  0.00  0.00    +0.000 A 
ATOM      2  C   UNL     1      38.940  33.065  48.375  0.00  0.00    +0.000 A 
ATOM      3  C   UNL     1      38.703  32.051  47.431  0.00  0.00    +0.000 A 
ATOM      4  N   UNL     1      37.674  31.200  47.662  0.00  0.00    +0.000 NA
ATOM      5  C   UNL     1      36.880  31.291  48.751  0.00  0.00    +0.000 A 
ATOM      6  N   UNL     1      37.096  32.249  49.652  0.00  0.00    +0.000 NA
ATOM      7  N   UNL     1      35.816  30.341  48.905  0.00  0.00    +0.000 N 
ATOM      8  C   UNL     1      34.746  30.175  47.920  0.00  0.00    +0.000 C 
ATOM      9  C   UNL     1      34.019  28.964  48.364  0.00  0.00    +0.000 C 
ATOM     10  C   UNL     1      34.869  28.326  49.443  0.00  0.00    +0.000 C 
ATOM     11  C   UNL     1      35.661  29.439  50.033  0.00  0.00    +0.000 C 
ATOM     12  H   UNL     1      38.211  33.888  50.275  0.00  0.00    +0.000 HD
ATOM     13  H   UNL     1      39.342  31.981  46.559  0.00  0.00    +0.000 HD
ATOM     14  H   UNL     1      35.247  30.026  46.942  0.00  0.00    +0.000 HD
ATOM     15  H   UNL     1      34.158  31.112  47.907  0.00  0.00    +0.000 HD
ATOM     16  H   UNL     1      33.060  29.256  48.841  0.00  0.00    +0.000 HD
ATOM     17  H   UNL     1      33.858  28.264  47.524  0.00  0.00    +0.000 HD
ATOM     18  H   UNL     1      34.212  27.927  50.257  0.00  0.00    +0.000 HD
ATOM     19  H   UNL     1      35.471  27.487  49.053  0.00  0.00    +0.000 HD
ATOM     20  H   UNL     1      36.630  29.041  50.394  0.00  0.00    +0.000 HD
ATOM     21  H   UNL     1      35.135  29.945  50.863  0.00  0.00    +0.000 HD
ENDROOT
BRANCH   2  22
ATOM     22  N   UNL     1      39.981  34.004  48.237  0.00  0.00    +0.000 N 
ATOM     23  C   UNL     1      40.031  34.867  47.223  0.00  0.00    +0.000 A 
ATOM     24  H   UNL     1      39.373  35.032  46.376  0.00  0.00    +0.000 HD
ATOM     25  N   UNL     1      41.139  35.643  47.353  0.00  0.00    +0.000 NA
ATOM     26  C   UNL     1      41.780  35.248  48.468  0.00  0.00    +0.000 A 
ATOM     27  C   UNL     1      42.935  35.619  49.142  0.00  0.00    +0.000 A 
ATOM     28  H   UNL     1      43.484  36.428  48.683  0.00  0.00    +0.000 HD
ATOM     29  N   UNL     1      43.340  35.017  50.282  0.00  0.00    +0.000 NA
ATOM     30  C   UNL     1      42.596  34.014  50.789  0.00  0.00    +0.000 A 
ATOM     31  H   UNL     1      42.913  33.529  51.698  0.00  0.00    +0.000 HD
ATOM     32  N   UNL     1      41.452  33.597  50.181  0.00  0.00    +0.000 NA
ATOM     33  C   UNL     1      41.040  34.203  49.031  0.00  0.00    +0.000 A 
ENDBRANCH   2  22
TORSDOF 1
