
     RDKit          3D

 47 51  0  0  0  0  0  0  0  0999 V2000
   34.8268   28.3655   49.4267 C   0  0  0  0  0  0  0  0  0  0  0  0
   33.5882   28.3063   48.5628 C   0  0  0  0  0  0  0  0  0  0  0  0
   33.6917   28.6860   47.1689 C   0  0  0  0  0  0  0  0  0  0  0  0
   32.0158   28.4416   46.6429 S   0  0  0  0  0  0  0  0  0  0  0  0
   31.4004   27.8716   48.3292 C   0  0  0  0  0  0  0  0  0  0  0  0
   32.4095   27.9399   48.9541 N   0  0  0  0  0  0  0  0  0  0  0  0
   30.0777   27.4592   48.7729 N   0  0  0  0  0  0  0  0  0  0  0  0
   29.2320   26.8797   47.7801 C   0  0  0  0  0  0  0  0  0  0  0  0
   27.7985   26.7919   48.1676 C   0  0  0  0  0  0  0  0  0  0  0  0
   27.4845   27.5568   49.3756 N   0  0  0  0  0  0  0  0  0  0  0  0
   28.3869   27.0173   50.3951 C   0  0  0  0  0  0  0  0  0  0  0  0
   29.7231   27.6619   50.1575 C   0  0  0  0  0  0  0  0  0  0  0  0
   34.9365   29.6768   50.1260 C   0  0  0  0  0  0  0  0  0  0  0  0
   37.5120   32.2899   49.5485 C   0  0  0  0  0  0  0  0  0  0  0  0
   38.2864   31.7567   48.5302 C   0  0  0  0  0  0  0  0  0  0  0  0
   37.9208   30.5015   48.0458 C   0  0  0  0  0  0  0  0  0  0  0  0
   36.8510   29.8632   48.5721 N   0  0  0  0  0  0  0  0  0  0  0  0
   36.1325   30.4416   49.5705 C   0  0  0  0  0  0  0  0  0  0  0  0
   36.4669   31.6287   50.0385 N   0  0  0  0  0  0  0  0  0  0  0  0
   35.7292   28.1691   48.8118 H   0  0  0  0  0  0  0  0  0  0  0  0
   34.7769   27.5417   50.1815 H   0  0  0  0  0  0  0  0  0  0  0  0
   34.5478   29.0076   46.6673 H   0  0  0  0  0  0  0  0  0  0  0  0
   29.6377   25.9213   47.3889 H   0  0  0  0  0  0  0  0  0  0  0  0
   29.2737   27.5652   46.8817 H   0  0  0  0  0  0  0  0  0  0  0  0
   27.0933   27.1844   47.3940 H   0  0  0  0  0  0  0  0  0  0  0  0
   27.5541   25.7179   48.3022 H   0  0  0  0  0  0  0  0  0  0  0  0
   26.5241   27.2504   49.6811 H   0  0  0  0  0  0  0  0  0  0  0  0
   28.0102   27.1205   51.4114 H   0  0  0  0  0  0  0  0  0  0  0  0
   28.5298   25.9143   50.2216 H   0  0  0  0  0  0  0  0  0  0  0  0
   29.6010   28.7557   50.3246 H   0  0  0  0  0  0  0  0  0  0  0  0
   30.5308   27.2565   50.7989 H   0  0  0  0  0  0  0  0  0  0  0  0
   35.1581   29.5395   51.2017 H   0  0  0  0  0  0  0  0  0  0  0  0
   34.0205   30.2462   49.9255 H   0  0  0  0  0  0  0  0  0  0  0  0
   37.8528   33.2641   49.8745 H   0  0  0  0  0  0  0  0  0  0  0  0
   39.1536   32.1617   48.0316 H   0  0  0  0  0  0  0  0  0  0  0  0
   38.5441   29.7321   47.0082 N   0  0  0  0  0  0  0  0  0  0  0  0
   39.8748   29.5698   46.7593 C   0  0  0  0  0  0  0  0  0  0  0  0
   40.6338   30.0427   47.3686 H   0  0  0  0  0  0  0  0  0  0  0  0
   39.9650   28.7575   45.6778 N   0  0  0  0  0  0  0  0  0  0  0  0
   38.7377   28.4139   45.2520 C   0  0  0  0  0  0  0  0  0  0  0  0
   38.2244   27.6370   44.2327 C   0  0  0  0  0  0  0  0  0  0  0  0
   38.9178   27.1447   43.5613 H   0  0  0  0  0  0  0  0  0  0  0  0
   36.8748   27.4970   44.0804 N   0  0  0  0  0  0  0  0  0  0  0  0
   36.0147   28.1192   44.9284 C   0  0  0  0  0  0  0  0  0  0  0  0
   34.9431   27.9567   44.7393 H   0  0  0  0  0  0  0  0  0  0  0  0
   36.4767   28.8857   45.9352 N   0  0  0  0  0  0  0  0  0  0  0  0
   37.8239   29.0286   46.0913 C   0  0  0  0  0  0  0  0  0  0  0  0
  1 13  1  0
  2  6  1  0
  2  1  1  0
  3  2  2  0
  4  3  1  0
  4  5  1  0
  5  7  1  0
  5  6  2  0
  7 12  1  0
  8  9  1  0
  8  7  1  0
  9 10  1  0
 10 11  1  0
 12 11  1  0
 14 19  2  0
 15 14  1  0
 16 15  2  0
 16 17  1  0
 17 18  2  0
 18 19  1  0
 18 13  1  0
  1 20  1  0
  1 21  1  0
  3 22  1  0
  8 23  1  0
  8 24  1  0
  9 25  1  0
  9 26  1  0
 10 27  1  0
 11 28  1  0
 11 29  1  0
 12 30  1  0
 12 31  1  0
 13 32  1  0
 13 33  1  0
 14 34  1  0
 15 35  1  0
 36 37  1  0
 37 38  1  0
 37 39  2  0
 39 40  1  0
 40 41  2  0
 41 42  1  0
 41 43  1  0
 43 44  2  0
 44 45  1  0
 44 46  1  0
 46 47  2  0
 47 36  1  0
 47 40  1  0
 16 36  1  0
M  ISO  8  20   8  21   8  22  14  23  13  24  13  25  13  26  13  27   5
M  ISO  8  28  13  29  13  30  13  31  13  32   8  33   8  34  14  35  14
M  ISO  3  38  15  42  16  45  16
M  END
>  <DihAtoms>  (1) 
14,15,35,36

>  <DihDeg>  (1) 
85.2035973236197

$$$$
