
 OpenBabel03262521103D

 27 29  0  0  0  0  0  0  0  0999 V2000
   35.5520   30.1270   46.5920 O   0  0  0  0  0  0  0  0  0  0  0  0
   34.2700   29.9430   47.4000 P   0  0  1  0  0  0  0  0  0  0  0  0
   33.8680   28.3080   47.5200 O   0  0  0  0  0  0  0  0  0  0  0  0
   33.5410   28.0740   48.4190 H   0  0  0  0  0  0  0  0  0  0  0  0
   34.4480   30.5260   49.0110 O   0  0  0  0  0  0  0  0  0  0  0  0
   35.6420   30.4370   49.7080 C   0  0  0  0  0  0  0  0  0  0  0  0
   35.9750   29.4570   50.6580 C   0  0  0  0  0  0  0  0  0  0  0  0
   37.2210   29.5250   51.2590 C   0  0  0  0  0  0  0  0  0  0  0  0
   38.0740   30.5340   50.9090 N   0  0  0  0  0  0  0  0  0  0  0  0
   37.7190   31.4760   49.9780 C   0  0  0  0  0  0  0  0  0  0  0  0
   36.5020   31.4100   49.3910 N   0  0  0  0  0  0  0  0  0  0  0  0
   35.2010   28.7220   50.8340 H   0  0  0  0  0  0  0  0  0  0  0  0
   37.4480   28.7740   51.9730 H   0  0  0  0  0  0  0  0  0  0  0  0
   38.4580   32.2420   49.7580 H   0  0  0  0  0  0  0  0  0  0  0  0
   33.0830   30.8350   46.6080 O   0  0  0  0  0  0  0  0  0  0  0  0
   30.3520   30.0430   46.6890 H   0  0  0  0  0  0  0  0  0  0  0  0
   30.9130   29.9020   45.8400 N   0  0  0  0  0  0  0  0  0  0  0  0
   32.2190   30.2430   45.7000 C   0  0  0  0  0  0  0  0  0  0  0  0
   32.6020   29.9040   44.4560 N   0  0  0  0  0  0  0  0  0  0  0  0
   31.5760   29.3560   43.8020 C   0  0  0  0  0  0  0  0  0  0  0  0
   31.3030   28.8200   42.5600 C   0  0  0  0  0  0  0  0  0  0  0  0
   32.1230   28.8060   41.8460 H   0  0  0  0  0  0  0  0  0  0  0  0
   30.0710   28.3380   42.2570 N   0  0  0  0  0  0  0  0  0  0  0  0
   29.0760   28.3640   43.1460 C   0  0  0  0  0  0  0  0  0  0  0  0
   28.0710   27.9930   42.9560 H   0  0  0  0  0  0  0  0  0  0  0  0
   29.2320   28.8700   44.4020 N   0  0  0  0  0  0  0  0  0  0  0  0
   30.4820   29.3440   44.6700 C   0  0  0  0  0  0  0  0  0  0  0  0
  2  1  2  6  0  0  0
  2  3  1  0  0  0  0
  2  5  1  0  0  0  0
  3  4  1  0  0  0  0
  5  6  1  0  0  0  0
  6  7  1  0  0  0  0
  7 12  1  0  0  0  0
  7  8  2  0  0  0  0
  8 13  1  0  0  0  0
  9  8  1  0  0  0  0
 10  9  2  0  0  0  0
 11  6  2  0  0  0  0
 11 10  1  0  0  0  0
 14 10  1  0  0  0  0
 15  2  1  0  0  0  0
 17 16  1  0  0  0  0
 18 17  1  0  0  0  0
 18 15  1  0  0  0  0
 19 18  2  0  0  0  0
 20 19  1  0  0  0  0
 20 27  1  0  0  0  0
 21 20  2  0  0  0  0
 22 21  1  0  0  0  0
 23 21  1  0  0  0  0
 23 24  2  0  0  0  0
 24 26  1  0  0  0  0
 25 24  1  0  0  0  0
 26 27  2  0  0  0  0
 27 17  1  0  0  0  0
M  END
>  <minimizedAffinity>
-3.83734488

>  <minimizedRMSD>
0.301524043

$$$$
