
 OpenBabel03262520283D

 23 25  0  0  0  0  0  0  0  0999 V2000
   37.8940   24.2320   38.3240 C   0  0  0  0  0  0  0  0  0  0  0  0
   38.7790   23.1660   38.5500 C   0  0  0  0  0  0  0  0  0  0  0  0
   39.6950   22.8830   37.5490 C   0  0  0  0  0  0  0  0  0  0  0  0
   39.7060   23.6290   36.4050 N   0  0  0  0  0  0  0  0  0  0  0  0
   38.8400   24.6410   36.2270 C   0  0  0  0  0  0  0  0  0  0  0  0
   37.9490   24.9340   37.1760 N   0  0  0  0  0  0  0  0  0  0  0  0
   40.5870   21.8000   37.7920 N   0  0  0  0  0  0  0  0  0  0  0  0
   37.1870   24.4340   39.1190 H   0  0  0  0  0  0  0  0  0  0  0  0
   38.7200   22.6110   39.4800 H   0  0  0  0  0  0  0  0  0  0  0  0
   41.2570   22.0630   38.5610 H   0  0  0  0  0  0  0  0  0  0  0  0
   40.3480   21.0390   37.1530 H   0  0  0  0  0  0  0  0  0  0  0  0
   38.8510   25.4220   35.0330 N   0  0  0  0  0  0  0  0  0  0  0  0
   37.8520   25.8550   34.2140 C   0  0  0  0  0  0  0  0  0  0  0  0
   36.8240   25.6200   34.4150 H   0  0  0  0  0  0  0  0  0  0  0  0
   38.3780   26.5670   33.2020 N   0  0  0  0  0  0  0  0  0  0  0  0
   39.7180   26.6120   33.3420 C   0  0  0  0  0  0  0  0  0  0  0  0
   40.7070   27.2110   32.5760 C   0  0  0  0  0  0  0  0  0  0  0  0
   40.4850   27.7780   31.6700 H   0  0  0  0  0  0  0  0  0  0  0  0
   42.0000   27.0710   32.9890 N   0  0  0  0  0  0  0  0  0  0  0  0
   42.2830   26.3720   34.1060 C   0  0  0  0  0  0  0  0  0  0  0  0
   43.2910   26.2180   34.4970 H   0  0  0  0  0  0  0  0  0  0  0  0
   41.3030   25.8000   34.8290 N   0  0  0  0  0  0  0  0  0  0  0  0
   40.0080   25.8950   34.4850 C   0  0  0  0  0  0  0  0  0  0  0  0
  1  2  1  0  0  0  0
  1  8  1  0  0  0  0
  2  9  1  0  0  0  0
  3  7  1  0  0  0  0
  3  2  2  0  0  0  0
  4  3  1  0  0  0  0
  5  4  2  0  0  0  0
  5  6  1  0  0  0  0
  6  1  2  0  0  0  0
  7 10  1  0  0  0  0
 11  7  1  0  0  0  0
 12  5  1  0  0  0  0
 13 14  1  0  0  0  0
 13 12  1  0  0  0  0
 15 16  1  0  0  0  0
 15 13  2  0  0  0  0
 16 23  1  0  0  0  0
 17 19  1  0  0  0  0
 17 16  2  0  0  0  0
 18 17  1  0  0  0  0
 19 20  2  0  0  0  0
 20 21  1  0  0  0  0
 20 22  1  0  0  0  0
 23 22  2  0  0  0  0
 23 12  1  0  0  0  0
M  END
>  <minimizedAffinity>
-4.86601019

$$$$

 OpenBabel03262520283D

 23 25  0  0  0  0  0  0  0  0999 V2000
   41.2980   22.6690   36.2790 C   0  0  0  0  0  0  0  0  0  0  0  0
   40.6500   22.6980   37.5240 C   0  0  0  0  0  0  0  0  0  0  0  0
   39.2680   22.8100   37.5140 C   0  0  0  0  0  0  0  0  0  0  0  0
   38.6000   22.8870   36.3250 N   0  0  0  0  0  0  0  0  0  0  0  0
   39.2590   22.8560   35.1550 C   0  0  0  0  0  0  0  0  0  0  0  0
   40.5880   22.7490   35.1370 N   0  0  0  0  0  0  0  0  0  0  0  0
   38.6250   22.8380   38.7840 N   0  0  0  0  0  0  0  0  0  0  0  0
   42.3770   22.5820   36.3110 H   0  0  0  0  0  0  0  0  0  0  0  0
   41.2380   22.6340   38.4330 H   0  0  0  0  0  0  0  0  0  0  0  0
   38.7130   21.8940   39.2430 H   0  0  0  0  0  0  0  0  0  0  0  0
   38.2390   23.7740   38.9260 H   0  0  0  0  0  0  0  0  0  0  0  0
   38.5610   22.9360   33.9120 N   0  0  0  0  0  0  0  0  0  0  0  0
   38.7850   23.6630   32.7830 C   0  0  0  0  0  0  0  0  0  0  0  0
   39.6190   24.3350   32.7080 H   0  0  0  0  0  0  0  0  0  0  0  0
   37.8340   23.3870   31.8740 N   0  0  0  0  0  0  0  0  0  0  0  0
   36.9780   22.4810   32.3910 C   0  0  0  0  0  0  0  0  0  0  0  0
   35.8450   21.8770   31.8670 C   0  0  0  0  0  0  0  0  0  0  0  0
   35.4770   22.0920   30.8620 H   0  0  0  0  0  0  0  0  0  0  0  0
   35.1810   20.9830   32.6560 N   0  0  0  0  0  0  0  0  0  0  0  0
   35.6290   20.7120   33.8980 C   0  0  0  0  0  0  0  0  0  0  0  0
   35.1510   20.0110   34.5850 H   0  0  0  0  0  0  0  0  0  0  0  0
   36.7310   21.3150   34.3810 N   0  0  0  0  0  0  0  0  0  0  0  0
   37.4370   22.2040   33.6620 C   0  0  0  0  0  0  0  0  0  0  0  0
  1  8  1  0  0  0  0
  1  2  1  0  0  0  0
  2  9  1  0  0  0  0
  3  2  2  0  0  0  0
  3  7  1  0  0  0  0
  4  3  1  0  0  0  0
  5  4  2  0  0  0  0
  6  5  1  0  0  0  0
  6  1  2  0  0  0  0
  7 11  1  0  0  0  0
  7 10  1  0  0  0  0
 12  5  1  0  0  0  0
 13 12  1  0  0  0  0
 14 13  1  0  0  0  0
 15 16  1  0  0  0  0
 15 13  2  0  0  0  0
 16 23  1  0  0  0  0
 17 16  2  0  0  0  0
 17 19  1  0  0  0  0
 18 17  1  0  0  0  0
 19 20  2  0  0  0  0
 20 22  1  0  0  0  0
 20 21  1  0  0  0  0
 23 12  1  0  0  0  0
 23 22  2  0  0  0  0
M  END
>  <minimizedAffinity>
-4.77039909

$$$$

 OpenBabel03262520283D

 23 25  0  0  0  0  0  0  0  0999 V2000
   37.8150   23.3790   38.0290 C   0  0  0  0  0  0  0  0  0  0  0  0
   39.2160   23.3010   38.0700 C   0  0  0  0  0  0  0  0  0  0  0  0
   39.8420   22.6300   37.0310 C   0  0  0  0  0  0  0  0  0  0  0  0
   39.0960   22.0810   36.0280 N   0  0  0  0  0  0  0  0  0  0  0  0
   37.7560   22.1780   36.0260 C   0  0  0  0  0  0  0  0  0  0  0  0
   37.1290   22.8180   37.0140 N   0  0  0  0  0  0  0  0  0  0  0  0
   41.2640   22.5600   37.0860 N   0  0  0  0  0  0  0  0  0  0  0  0
   37.3480   23.9060   38.8510 H   0  0  0  0  0  0  0  0  0  0  0  0
   39.7520   23.7580   38.8960 H   0  0  0  0  0  0  0  0  0  0  0  0
   41.6690   23.5200   36.9340 H   0  0  0  0  0  0  0  0  0  0  0  0
   41.5280   21.5880   37.2610 H   0  0  0  0  0  0  0  0  0  0  0  0
   36.9750   21.6040   34.9780 N   0  0  0  0  0  0  0  0  0  0  0  0
   35.8410   20.8520   34.9890 C   0  0  0  0  0  0  0  0  0  0  0  0
   35.3600   20.5810   35.9100 H   0  0  0  0  0  0  0  0  0  0  0  0
   35.4880   20.5510   33.7270 N   0  0  0  0  0  0  0  0  0  0  0  0
   36.3800   21.0980   32.8760 C   0  0  0  0  0  0  0  0  0  0  0  0
   36.4660   21.0810   31.4920 C   0  0  0  0  0  0  0  0  0  0  0  0
   35.7370   20.5640   30.8650 H   0  0  0  0  0  0  0  0  0  0  0  0
   37.5100   21.7440   30.9140 N   0  0  0  0  0  0  0  0  0  0  0  0
   38.4140   22.3850   31.6810 C   0  0  0  0  0  0  0  0  0  0  0  0
   39.2730   22.9340   31.2910 H   0  0  0  0  0  0  0  0  0  0  0  0
   38.3050   22.3830   33.0230 N   0  0  0  0  0  0  0  0  0  0  0  0
   37.3050   21.7540   33.6620 C   0  0  0  0  0  0  0  0  0  0  0  0
  1  2  1  0  0  0  0
  1  8  1  0  0  0  0
  2  9  1  0  0  0  0
  3  7  1  0  0  0  0
  3  2  2  0  0  0  0
  4  3  1  0  0  0  0
  5  4  2  0  0  0  0
  5  6  1  0  0  0  0
  6  1  2  0  0  0  0
  7 11  1  0  0  0  0
 10  7  1  0  0  0  0
 12 13  1  0  0  0  0
 12  5  1  0  0  0  0
 13 14  1  0  0  0  0
 15 13  2  0  0  0  0
 16 23  1  0  0  0  0
 16 15  1  0  0  0  0
 17 16  2  0  0  0  0
 18 17  1  0  0  0  0
 19 17  1  0  0  0  0
 19 20  2  0  0  0  0
 20 22  1  0  0  0  0
 21 20  1  0  0  0  0
 22 23  2  0  0  0  0
 23 12  1  0  0  0  0
M  END
>  <minimizedAffinity>
-4.68660545

$$$$

 OpenBabel03262520283D

 23 25  0  0  0  0  0  0  0  0999 V2000
   36.0770   20.7220   33.3050 C   0  0  0  0  0  0  0  0  0  0  0  0
   35.5240   20.4260   34.5600 C   0  0  0  0  0  0  0  0  0  0  0  0
   36.0730   21.0670   35.6590 C   0  0  0  0  0  0  0  0  0  0  0  0
   37.1090   21.9420   35.4900 N   0  0  0  0  0  0  0  0  0  0  0  0
   37.6100   22.1970   34.2700 C   0  0  0  0  0  0  0  0  0  0  0  0
   37.0980   21.5930   33.1960 N   0  0  0  0  0  0  0  0  0  0  0  0
   35.5020   20.7570   36.9270 N   0  0  0  0  0  0  0  0  0  0  0  0
   35.6320   20.2090   32.4610 H   0  0  0  0  0  0  0  0  0  0  0  0
   34.7020   19.7210   34.6290 H   0  0  0  0  0  0  0  0  0  0  0  0
   34.5250   21.1490   36.9760 H   0  0  0  0  0  0  0  0  0  0  0  0
   36.1910   20.2310   37.4680 H   0  0  0  0  0  0  0  0  0  0  0  0
   38.6910   23.1110   34.0910 N   0  0  0  0  0  0  0  0  0  0  0  0
   39.8380   23.0400   33.3610 C   0  0  0  0  0  0  0  0  0  0  0  0
   40.0710   22.1740   32.7700 H   0  0  0  0  0  0  0  0  0  0  0  0
   40.5450   24.1710   33.5230 N   0  0  0  0  0  0  0  0  0  0  0  0
   39.8770   24.9960   34.3550 C   0  0  0  0  0  0  0  0  0  0  0  0
   40.1730   26.2620   34.8360 C   0  0  0  0  0  0  0  0  0  0  0  0
   41.0850   26.7950   34.5620 H   0  0  0  0  0  0  0  0  0  0  0  0
   39.2750   26.8450   35.6820 N   0  0  0  0  0  0  0  0  0  0  0  0
   38.1460   26.1950   36.0250 C   0  0  0  0  0  0  0  0  0  0  0  0
   37.3840   26.5970   36.6950 H   0  0  0  0  0  0  0  0  0  0  0  0
   37.8850   24.9650   35.5440 N   0  0  0  0  0  0  0  0  0  0  0  0
   38.7210   24.3290   34.7070 C   0  0  0  0  0  0  0  0  0  0  0  0
  1  2  1  0  0  0  0
  2  9  1  0  0  0  0
  2  3  2  0  0  0  0
  3  7  1  0  0  0  0
  4  3  1  0  0  0  0
  5  4  2  0  0  0  0
  6  1  2  0  0  0  0
  6  5  1  0  0  0  0
  7 10  1  0  0  0  0
  7 11  1  0  0  0  0
  8  1  1  0  0  0  0
 12  5  1  0  0  0  0
 12 23  1  0  0  0  0
 13 15  2  0  0  0  0
 13 12  1  0  0  0  0
 14 13  1  0  0  0  0
 15 16  1  0  0  0  0
 16 23  2  0  0  0  0
 16 17  1  0  0  0  0
 17 19  2  0  0  0  0
 18 17  1  0  0  0  0
 19 20  1  0  0  0  0
 20 21  1  0  0  0  0
 22 20  2  0  0  0  0
 23 22  1  0  0  0  0
M  END
>  <minimizedAffinity>
-4.56256866

$$$$

 OpenBabel03262520283D

 23 25  0  0  0  0  0  0  0  0999 V2000
   40.8680   24.3300   35.2630 C   0  0  0  0  0  0  0  0  0  0  0  0
   40.3190   23.2050   35.9000 C   0  0  0  0  0  0  0  0  0  0  0  0
   38.9580   22.9940   35.7450 C   0  0  0  0  0  0  0  0  0  0  0  0
   38.2140   23.8640   35.0000 N   0  0  0  0  0  0  0  0  0  0  0  0
   38.7790   24.9300   34.4070 C   0  0  0  0  0  0  0  0  0  0  0  0
   40.0870   25.1550   34.5400 N   0  0  0  0  0  0  0  0  0  0  0  0
   38.4150   21.8490   36.3960 N   0  0  0  0  0  0  0  0  0  0  0  0
   41.9320   24.4750   35.3990 H   0  0  0  0  0  0  0  0  0  0  0  0
   40.9640   22.5520   36.4790 H   0  0  0  0  0  0  0  0  0  0  0  0
   38.7740   20.9770   35.9280 H   0  0  0  0  0  0  0  0  0  0  0  0
   37.8120   22.1700   37.1560 H   0  0  0  0  0  0  0  0  0  0  0  0
   38.0030   25.8390   33.6280 N   0  0  0  0  0  0  0  0  0  0  0  0
   37.9560   27.1990   33.5860 C   0  0  0  0  0  0  0  0  0  0  0  0
   38.5820   27.7980   34.2200 H   0  0  0  0  0  0  0  0  0  0  0  0
   37.0490   27.5900   32.6740 N   0  0  0  0  0  0  0  0  0  0  0  0
   36.4920   26.5000   32.1080 C   0  0  0  0  0  0  0  0  0  0  0  0
   35.5210   26.3630   31.1280 C   0  0  0  0  0  0  0  0  0  0  0  0
   35.0440   27.2200   30.6500 H   0  0  0  0  0  0  0  0  0  0  0  0
   35.1640   25.0970   30.7630 N   0  0  0  0  0  0  0  0  0  0  0  0
   35.7480   24.0330   31.3470 C   0  0  0  0  0  0  0  0  0  0  0  0
   35.5140   22.9940   31.1080 H   0  0  0  0  0  0  0  0  0  0  0  0
   36.6880   24.1960   32.2970 N   0  0  0  0  0  0  0  0  0  0  0  0
   37.0910   25.4110   32.7070 C   0  0  0  0  0  0  0  0  0  0  0  0
  1  8  1  0  0  0  0
  1  2  1  0  0  0  0
  2  9  1  0  0  0  0
  3  2  2  0  0  0  0
  3  7  1  0  0  0  0
  4  3  1  0  0  0  0
  5  6  1  0  0  0  0
  5  4  2  0  0  0  0
  6  1  2  0  0  0  0
  7 11  1  0  0  0  0
 10  7  1  0  0  0  0
 12  5  1  0  0  0  0
 13 12  1  0  0  0  0
 13 14  1  0  0  0  0
 15 13  2  0  0  0  0
 16 15  1  0  0  0  0
 16 23  1  0  0  0  0
 17 16  2  0  0  0  0
 18 17  1  0  0  0  0
 19 17  1  0  0  0  0
 19 20  2  0  0  0  0
 20 22  1  0  0  0  0
 21 20  1  0  0  0  0
 22 23  2  0  0  0  0
 23 12  1  0  0  0  0
M  END
>  <minimizedAffinity>
-4.51303816

$$$$

 OpenBabel03262520283D

 23 25  0  0  0  0  0  0  0  0999 V2000
   41.4510   22.6480   36.5730 C   0  0  0  0  0  0  0  0  0  0  0  0
   40.3640   22.3060   37.3930 C   0  0  0  0  0  0  0  0  0  0  0  0
   39.2190   23.0790   37.2790 C   0  0  0  0  0  0  0  0  0  0  0  0
   39.1860   24.1210   36.3960 N   0  0  0  0  0  0  0  0  0  0  0  0
   40.2490   24.4150   35.6290 C   0  0  0  0  0  0  0  0  0  0  0  0
   41.3630   23.6870   35.7200 N   0  0  0  0  0  0  0  0  0  0  0  0
   38.1250   22.7200   38.1170 N   0  0  0  0  0  0  0  0  0  0  0  0
   42.3340   22.0320   36.6800 H   0  0  0  0  0  0  0  0  0  0  0  0
   40.4540   21.4670   38.0750 H   0  0  0  0  0  0  0  0  0  0  0  0
   37.7330   21.7930   37.8050 H   0  0  0  0  0  0  0  0  0  0  0  0
   37.9990   23.4590   38.8120 H   0  0  0  0  0  0  0  0  0  0  0  0
   40.2150   25.5030   34.7060 N   0  0  0  0  0  0  0  0  0  0  0  0
   41.1030   26.4980   34.4320 C   0  0  0  0  0  0  0  0  0  0  0  0
   42.0390   26.5690   34.9530 H   0  0  0  0  0  0  0  0  0  0  0  0
   40.6060   27.2910   33.4680 N   0  0  0  0  0  0  0  0  0  0  0  0
   39.3930   26.8320   33.0970 C   0  0  0  0  0  0  0  0  0  0  0  0
   38.4810   27.2860   32.1570 C   0  0  0  0  0  0  0  0  0  0  0  0
   38.6640   28.1670   31.5400 H   0  0  0  0  0  0  0  0  0  0  0  0
   37.3170   26.5870   32.0150 N   0  0  0  0  0  0  0  0  0  0  0  0
   37.0830   25.4980   32.7720 C   0  0  0  0  0  0  0  0  0  0  0  0
   36.1780   24.8910   32.7140 H   0  0  0  0  0  0  0  0  0  0  0  0
   37.9870   25.0810   33.6790 N   0  0  0  0  0  0  0  0  0  0  0  0
   39.1550   25.7160   33.8740 C   0  0  0  0  0  0  0  0  0  0  0  0
  1  8  1  0  0  0  0
  1  2  1  0  0  0  0
  2  9  1  0  0  0  0
  3  2  2  0  0  0  0
  3  7  1  0  0  0  0
  4  3  1  0  0  0  0
  5  6  1  0  0  0  0
  5  4  2  0  0  0  0
  6  1  2  0  0  0  0
  7 11  1  0  0  0  0
 10  7  1  0  0  0  0
 12  5  1  0  0  0  0
 13 12  1  0  0  0  0
 13 14  1  0  0  0  0
 15 13  2  0  0  0  0
 16 15  1  0  0  0  0
 16 23  1  0  0  0  0
 17 16  2  0  0  0  0
 18 17  1  0  0  0  0
 19 17  1  0  0  0  0
 19 20  2  0  0  0  0
 20 22  1  0  0  0  0
 21 20  1  0  0  0  0
 22 23  2  0  0  0  0
 23 12  1  0  0  0  0
M  END
>  <minimizedAffinity>
-4.45258236

$$$$

 OpenBabel03262520283D

 23 25  0  0  0  0  0  0  0  0999 V2000
   35.2180   29.4880   32.5510 C   0  0  0  0  0  0  0  0  0  0  0  0
   35.5520   29.3310   31.1970 C   0  0  0  0  0  0  0  0  0  0  0  0
   36.5530   28.4210   30.8950 C   0  0  0  0  0  0  0  0  0  0  0  0
   37.1660   27.7250   31.8980 N   0  0  0  0  0  0  0  0  0  0  0  0
   36.8160   27.9060   33.1820 C   0  0  0  0  0  0  0  0  0  0  0  0
   35.8550   28.7760   33.4990 N   0  0  0  0  0  0  0  0  0  0  0  0
   36.8810   28.2720   29.5170 N   0  0  0  0  0  0  0  0  0  0  0  0
   34.4340   30.2040   32.7630 H   0  0  0  0  0  0  0  0  0  0  0  0
   35.0270   29.9140   30.4470 H   0  0  0  0  0  0  0  0  0  0  0  0
   36.0790   27.8110   29.0130 H   0  0  0  0  0  0  0  0  0  0  0  0
   37.8170   28.6530   29.3690 H   0  0  0  0  0  0  0  0  0  0  0  0
   37.4560   27.1790   34.2310 N   0  0  0  0  0  0  0  0  0  0  0  0
   37.9530   27.5640   35.4390 C   0  0  0  0  0  0  0  0  0  0  0  0
   37.9040   28.5860   35.7630 H   0  0  0  0  0  0  0  0  0  0  0  0
   38.4650   26.4960   36.0750 N   0  0  0  0  0  0  0  0  0  0  0  0
   38.3120   25.4040   35.2990 C   0  0  0  0  0  0  0  0  0  0  0  0
   38.6650   24.0770   35.4930 C   0  0  0  0  0  0  0  0  0  0  0  0
   39.1640   23.7280   36.3990 H   0  0  0  0  0  0  0  0  0  0  0  0
   38.3690   23.1900   34.4980 N   0  0  0  0  0  0  0  0  0  0  0  0
   37.7540   23.6120   33.3760 C   0  0  0  0  0  0  0  0  0  0  0  0
   37.4860   22.9630   32.5400 H   0  0  0  0  0  0  0  0  0  0  0  0
   37.4230   24.9070   33.2150 N   0  0  0  0  0  0  0  0  0  0  0  0
   37.6820   25.8360   34.1500 C   0  0  0  0  0  0  0  0  0  0  0  0
  1  8  1  0  0  0  0
  1  6  1  0  0  0  0
  2  1  2  0  0  0  0
  3  2  1  0  0  0  0
  3  4  2  0  0  0  0
  4  5  1  0  0  0  0
  5  6  2  0  0  0  0
  5 12  1  0  0  0  0
  7  3  1  0  0  0  0
  9  2  1  0  0  0  0
 10  7  1  0  0  0  0
 11  7  1  0  0  0  0
 12 13  1  0  0  0  0
 13 14  1  0  0  0  0
 13 15  2  0  0  0  0
 16 17  1  0  0  0  0
 16 15  1  0  0  0  0
 17 18  1  0  0  0  0
 19 17  2  0  0  0  0
 20 19  1  0  0  0  0
 21 20  1  0  0  0  0
 22 20  2  0  0  0  0
 22 23  1  0  0  0  0
 23 12  1  0  0  0  0
 23 16  2  0  0  0  0
M  END
>  <minimizedAffinity>
-4.44308758

$$$$

 OpenBabel03262520283D

 23 25  0  0  0  0  0  0  0  0999 V2000
   36.1070   28.7220   31.5890 C   0  0  0  0  0  0  0  0  0  0  0  0
   36.7690   28.2560   30.4420 C   0  0  0  0  0  0  0  0  0  0  0  0
   37.7850   27.3320   30.6310 C   0  0  0  0  0  0  0  0  0  0  0  0
   38.1020   26.9160   31.8930 N   0  0  0  0  0  0  0  0  0  0  0  0
   37.4430   27.3880   32.9650 C   0  0  0  0  0  0  0  0  0  0  0  0
   36.4610   28.2770   32.8100 N   0  0  0  0  0  0  0  0  0  0  0  0
   38.4480   26.8690   29.4590 N   0  0  0  0  0  0  0  0  0  0  0  0
   35.3180   29.4430   31.4170 H   0  0  0  0  0  0  0  0  0  0  0  0
   36.4710   28.6260   29.4670 H   0  0  0  0  0  0  0  0  0  0  0  0
   37.7860   26.2760   28.8930 H   0  0  0  0  0  0  0  0  0  0  0  0
   39.4030   27.2320   29.4670 H   0  0  0  0  0  0  0  0  0  0  0  0
   37.7720   26.9540   34.2840 N   0  0  0  0  0  0  0  0  0  0  0  0
   37.9580   27.6310   35.4510 C   0  0  0  0  0  0  0  0  0  0  0  0
   37.8610   28.6990   35.4970 H   0  0  0  0  0  0  0  0  0  0  0  0
   38.2580   26.7630   36.4320 N   0  0  0  0  0  0  0  0  0  0  0  0
   38.2730   25.5130   35.9280 C   0  0  0  0  0  0  0  0  0  0  0  0
   38.5240   24.2820   36.5160 C   0  0  0  0  0  0  0  0  0  0  0  0
   38.7650   24.1760   37.5750 H   0  0  0  0  0  0  0  0  0  0  0  0
   38.4620   23.1750   35.7200 N   0  0  0  0  0  0  0  0  0  0  0  0
   38.1660   23.2960   34.4120 C   0  0  0  0  0  0  0  0  0  0  0  0
   38.0990   22.4580   33.7150 H   0  0  0  0  0  0  0  0  0  0  0  0
   37.9280   24.5040   33.8670 N   0  0  0  0  0  0  0  0  0  0  0  0
   37.9700   25.6380   34.5870 C   0  0  0  0  0  0  0  0  0  0  0  0
  1  6  1  0  0  0  0
  2  3  1  0  0  0  0
  2  1  2  0  0  0  0
  3  4  2  0  0  0  0
  4  5  1  0  0  0  0
  5 12  1  0  0  0  0
  6  5  2  0  0  0  0
  7 11  1  0  0  0  0
  7  3  1  0  0  0  0
  8  1  1  0  0  0  0
  9  2  1  0  0  0  0
 10  7  1  0  0  0  0
 12 23  1  0  0  0  0
 12 13  1  0  0  0  0
 13 14  1  0  0  0  0
 13 15  2  0  0  0  0
 16 15  1  0  0  0  0
 16 17  1  0  0  0  0
 17 18  1  0  0  0  0
 19 17  2  0  0  0  0
 20 19  1  0  0  0  0
 21 20  1  0  0  0  0
 22 20  2  0  0  0  0
 22 23  1  0  0  0  0
 23 16  2  0  0  0  0
M  END
>  <minimizedAffinity>
-4.41878176

$$$$

 OpenBabel03262520283D

 23 25  0  0  0  0  0  0  0  0999 V2000
   37.7280   22.5980   31.1720 C   0  0  0  0  0  0  0  0  0  0  0  0
   36.4680   21.9960   31.3140 C   0  0  0  0  0  0  0  0  0  0  0  0
   36.1630   21.4550   32.5530 C   0  0  0  0  0  0  0  0  0  0  0  0
   37.0750   21.5220   33.5680 N   0  0  0  0  0  0  0  0  0  0  0  0
   38.2720   22.1060   33.3900 C   0  0  0  0  0  0  0  0  0  0  0  0
   38.5890   22.6350   32.2070 N   0  0  0  0  0  0  0  0  0  0  0  0
   34.8810   20.8480   32.6840 N   0  0  0  0  0  0  0  0  0  0  0  0
   37.9440   23.0130   30.1950 H   0  0  0  0  0  0  0  0  0  0  0  0
   35.7880   21.9750   30.4690 H   0  0  0  0  0  0  0  0  0  0  0  0
   34.1360   21.5910   32.6380 H   0  0  0  0  0  0  0  0  0  0  0  0
   35.0140   19.8410   32.7890 H   0  0  0  0  0  0  0  0  0  0  0  0
   39.2250   22.1770   34.4500 N   0  0  0  0  0  0  0  0  0  0  0  0
   40.5630   21.9280   34.4950 C   0  0  0  0  0  0  0  0  0  0  0  0
   41.1020   21.6140   33.6210 H   0  0  0  0  0  0  0  0  0  0  0  0
   41.0180   22.1390   35.7420 N   0  0  0  0  0  0  0  0  0  0  0  0
   39.9920   22.5270   36.5270 C   0  0  0  0  0  0  0  0  0  0  0  0
   39.9340   22.8620   37.8710 C   0  0  0  0  0  0  0  0  0  0  0  0
   40.8130   22.8470   38.5190 H   0  0  0  0  0  0  0  0  0  0  0  0
   38.7200   23.2200   38.3830 N   0  0  0  0  0  0  0  0  0  0  0  0
   37.6300   23.2410   37.5920 C   0  0  0  0  0  0  0  0  0  0  0  0
   36.6290   23.5160   37.9300 H   0  0  0  0  0  0  0  0  0  0  0  0
   37.7170   22.9100   36.2890 N   0  0  0  0  0  0  0  0  0  0  0  0
   38.8760   22.5480   35.7160 C   0  0  0  0  0  0  0  0  0  0  0  0
  1  2  2  0  0  0  0
  1  6  1  0  0  0  0
  2  3  1  0  0  0  0
  3  7  1  0  0  0  0
  3  4  2  0  0  0  0
  5  4  1  0  0  0  0
  5 12  1  0  0  0  0
  6  5  2  0  0  0  0
  7 11  1  0  0  0  0
  8  1  1  0  0  0  0
  9  2  1  0  0  0  0
 10  7  1  0  0  0  0
 12 13  1  0  0  0  0
 12 23  1  0  0  0  0
 13 15  2  0  0  0  0
 14 13  1  0  0  0  0
 15 16  1  0  0  0  0
 16 17  1  0  0  0  0
 17 19  2  0  0  0  0
 17 18  1  0  0  0  0
 20 21  1  0  0  0  0
 20 19  1  0  0  0  0
 22 20  2  0  0  0  0
 23 22  1  0  0  0  0
 23 16  2  0  0  0  0
M  END
>  <minimizedAffinity>
-4.36637259

$$$$
