
 OpenBabel03272507463D

 49 54  0  0  0  0  0  0  0  0999 V2000
   33.5470   29.3100   46.7670 N   0  0  0  0  0  0  0  0  0  0  0  0
   33.8670   28.9770   48.1120 C   0  0  0  0  0  0  0  0  0  0  0  0
   35.0190   29.6840   48.7190 C   0  0  0  0  0  0  0  0  0  0  0  0
   36.1710   29.9310   47.8510 C   0  0  0  0  0  0  0  0  0  0  0  0
   35.7560   30.2090   46.3950 C   0  0  0  0  0  0  0  0  0  0  0  0
   34.7440   29.1250   45.9960 C   0  0  0  0  0  0  0  0  0  0  0  0
   32.9560   29.1360   48.7570 H   0  0  0  0  0  0  0  0  0  0  0  0
   34.0780   27.8870   48.1450 H   0  0  0  0  0  0  0  0  0  0  0  0
   34.5650   30.7050   48.9470 H   0  0  0  0  0  0  0  0  0  0  0  0
   35.2690   29.2280   49.6850 H   0  0  0  0  0  0  0  0  0  0  0  0
   36.8540   29.0460   47.7660 H   0  0  0  0  0  0  0  0  0  0  0  0
   35.3040   31.1910   46.2640 H   0  0  0  0  0  0  0  0  0  0  0  0
   36.6480   30.0370   45.7510 H   0  0  0  0  0  0  0  0  0  0  0  0
   34.4770   29.2350   44.9360 H   0  0  0  0  0  0  0  0  0  0  0  0
   35.1970   28.1210   46.1070 H   0  0  0  0  0  0  0  0  0  0  0  0
   32.2910   29.7450   46.2370 C   0  0  0  0  0  0  0  0  0  0  0  0
   32.0840   30.8700   45.4450 C   0  0  0  0  0  0  0  0  0  0  0  0
   30.7820   31.1220   45.0260 C   0  0  0  0  0  0  0  0  0  0  0  0
   29.7890   30.2690   45.4070 N   0  0  0  0  0  0  0  0  0  0  0  0
   30.0220   29.1920   46.1720 C   0  0  0  0  0  0  0  0  0  0  0  0
   31.2650   28.9350   46.5830 N   0  0  0  0  0  0  0  0  0  0  0  0
   32.9690   31.4350   45.2370 H   0  0  0  0  0  0  0  0  0  0  0  0
   30.6640   31.9970   44.4180 H   0  0  0  0  0  0  0  0  0  0  0  0
   28.9360   28.3430   46.5320 N   0  0  0  0  0  0  0  0  0  0  0  0
   28.4480   27.1710   46.0850 C   0  0  0  0  0  0  0  0  0  0  0  0
   29.0190   26.7720   45.2420 H   0  0  0  0  0  0  0  0  0  0  0  0
   27.3760   26.8210   46.8190 N   0  0  0  0  0  0  0  0  0  0  0  0
   27.1880   27.7830   47.7380 C   0  0  0  0  0  0  0  0  0  0  0  0
   26.2020   27.8350   48.7020 C   0  0  0  0  0  0  0  0  0  0  0  0
   25.4570   27.0570   48.7980 H   0  0  0  0  0  0  0  0  0  0  0  0
   26.1920   28.9110   49.5420 N   0  0  0  0  0  0  0  0  0  0  0  0
   27.1420   29.8480   49.3760 C   0  0  0  0  0  0  0  0  0  0  0  0
   27.2460   30.7550   49.9800 H   0  0  0  0  0  0  0  0  0  0  0  0
   28.1220   29.8250   48.4400 N   0  0  0  0  0  0  0  0  0  0  0  0
   28.1690   28.7670   47.5790 C   0  0  0  0  0  0  0  0  0  0  0  0
   36.7870   31.6480   49.4920 C   0  0  0  0  0  0  0  0  0  0  0  0
   37.0070   31.0910   48.2420 C   0  0  0  0  0  0  0  0  0  0  0  0
   37.9280   31.5640   47.3450 C   0  0  0  0  0  0  0  0  0  0  0  0
   38.6830   32.6730   47.7250 C   0  0  0  0  0  0  0  0  0  0  0  0
   38.4710   33.2310   48.9590 C   0  0  0  0  0  0  0  0  0  0  0  0
   37.5350   32.7490   49.8700 C   0  0  0  0  0  0  0  0  0  0  0  0
   39.3230   34.3280   49.1470 O   0  0  0  0  0  0  0  0  0  0  0  0
   40.2850   34.2210   48.1080 C   0  0  0  0  0  0  0  0  0  0  0  0
   39.6890   33.4270   47.1140 O   0  0  0  0  0  0  0  0  0  0  0  0
   36.1060   31.3590   50.2780 H   0  0  0  0  0  0  0  0  0  0  0  0
   38.0670   31.1100   46.3990 H   0  0  0  0  0  0  0  0  0  0  0  0
   37.4200   33.2500   50.8470 H   0  0  0  0  0  0  0  0  0  0  0  0
   40.4600   35.2730   47.7470 H   0  0  0  0  0  0  0  0  0  0  0  0
   41.2540   33.8170   48.4560 H   0  0  0  0  0  0  0  0  0  0  0  0
  1  2  1  0  0  0  0
  2  8  1  0  0  0  0
  2  3  1  0  0  0  0
  2  7  1  0  0  0  0
  3  9  1  0  0  0  0
  3 10  1  0  0  0  0
  4 37  1  0  0  0  0
  4  3  1  0  0  0  0
  5  4  1  0  0  0  0
  6 15  1  0  0  0  0
  6  5  1  0  0  0  0
  6  1  1  0  0  0  0
 11  4  1  0  0  0  0
 12  5  1  0  0  0  0
 13  5  1  0  0  0  0
 14  6  1  0  0  0  0
 16 21  1  0  0  0  0
 16  1  1  0  0  0  0
 17 16  2  0  0  0  0
 18 19  2  0  0  0  0
 18 17  1  0  0  0  0
 19 20  1  0  0  0  0
 20 24  1  0  0  0  0
 20 21  2  0  0  0  0
 22 17  1  0  0  0  0
 23 18  1  0  0  0  0
 24 35  1  0  0  0  0
 25 24  1  0  0  0  0
 25 27  2  0  0  0  0
 26 25  1  0  0  0  0
 27 28  1  0  0  0  0
 28 29  1  0  0  0  0
 29 30  1  0  0  0  0
 29 31  2  0  0  0  0
 32 31  1  0  0  0  0
 32 33  1  0  0  0  0
 34 32  2  0  0  0  0
 35 28  2  0  0  0  0
 35 34  1  0  0  0  0
 36 41  1  0  0  0  0
 36 45  1  0  0  0  0
 37 36  2  0  0  0  0
 38 39  2  0  0  0  0
 38 37  1  0  0  0  0
 39 40  1  0  0  0  0
 40 42  1  0  0  0  0
 40 41  2  0  0  0  0
 41 47  1  0  0  0  0
 43 49  1  0  0  0  0
 43 42  1  0  0  0  0
 44 39  1  0  0  0  0
 44 43  1  0  0  0  0
 46 38  1  0  0  0  0
 48 43  1  0  0  0  0
M  END
>  <minimizedAffinity>
-7.54294634

>  <minimizedRMSD>
2.03049326

$$$$
