REMARK  Name = 
REMARK  4 active torsions:
REMARK  status: ('A' for Active; 'I' for Inactive)
REMARK    1  A    between atoms: C_1  and  C_6
REMARK    2  A    between atoms: C_3  and  C_11
REMARK    3  A    between atoms: C_10  and  O_15
REMARK    4  A    between atoms: O_15  and  C_31
REMARK                            x       y       z     vdW  Elec       q    Type
REMARK                         _______ _______ _______ _____ _____    ______ ____
ROOT
ATOM      1  C   UNL     1      37.964  31.764  45.551  0.00  0.00    +0.000 C 
ATOM      2  C   UNL     1      38.792  32.395  46.597  0.00  0.00    +0.000 C 
ATOM      3  C   UNL     1      40.223  32.176  46.076  0.00  0.00    +0.000 C 
ATOM      4  O   UNL     1      40.131  30.909  45.577  0.00  0.00    +0.000 OA
ATOM      5  C   UNL     1      38.890  30.697  45.003  0.00  0.00    +0.000 C 
ATOM      6  H   UNL     1      37.724  32.470  44.756  0.00  0.00    +0.000 HD
ATOM      7  H   UNL     1      38.644  33.485  46.569  0.00  0.00    +0.000 HD
ATOM      8  H   UNL     1      40.530  32.945  45.364  0.00  0.00    +0.000 HD
ATOM      9  H   UNL     1      40.865  32.147  46.992  0.00  0.00    +0.000 HD
ATOM     10  H   UNL     1      38.538  29.665  45.215  0.00  0.00    +0.000 HD
ATOM     11  H   UNL     1      38.931  30.754  43.887  0.00  0.00    +0.000 HD
ENDROOT
BRANCH   2  14
ATOM     12  C   UNL     1      37.507  32.296  48.857  0.00  0.00    +0.000 C 
ATOM     13  C   UNL     1      38.779  32.932  49.068  0.00  0.00    +0.000 C 
ATOM     14  C   UNL     1      38.683  31.828  47.996  0.00  0.00    +0.000 C 
ATOM     15  H   UNL     1      36.725  32.844  48.255  0.00  0.00    +0.000 HD
ATOM     16  H   UNL     1      39.012  33.953  48.774  0.00  0.00    +0.000 HD
ATOM     17  H   UNL     1      39.348  32.624  49.994  0.00  0.00    +0.000 HD
ATOM     18  H   UNL     1      39.161  30.874  48.219  0.00  0.00    +0.000 HD
BRANCH  12  21
ATOM     19  C   UNL     1      35.255  29.689  50.317  0.00  0.00    +0.000 A 
ATOM     20  C   UNL     1      35.726  30.679  49.458  0.00  0.00    +0.000 A 
ATOM     21  C   UNL     1      36.966  31.233  49.727  0.00  0.00    +0.000 A 
ATOM     22  N   UNL     1      37.666  30.779  50.824  0.00  0.00    +0.000 NA
ATOM     23  C   UNL     1      37.188  29.819  51.641  0.00  0.00    +0.000 A 
ATOM     24  N   UNL     1      35.962  29.259  51.389  0.00  0.00    +0.000 NA
ATOM     25  H   UNL     1      34.278  29.266  50.089  0.00  0.00    +0.000 HD
ATOM     26  H   UNL     1      35.111  30.977  48.620  0.00  0.00    +0.000 HD
ATOM     27  H   UNL     1      37.806  29.525  52.478  0.00  0.00    +0.000 HD
ENDBRANCH  12  21
ENDBRANCH   2  14
BRANCH   1  28
ATOM     28  O   UNL     1      36.795  31.197  46.025  0.00  0.00    +0.000 OA
BRANCH  28  31
ATOM     29  H   UNL     1      35.902  32.972  43.989  0.00  0.00    +0.000 HD
ATOM     30  N   UNL     1      35.219  32.409  44.518  0.00  0.00    +0.000 N 
ATOM     31  C   UNL     1      35.535  31.542  45.497  0.00  0.00    +0.000 A 
ATOM     32  N   UNL     1      34.359  31.019  45.923  0.00  0.00    +0.000 NA
ATOM     33  C   UNL     1      33.338  31.558  45.214  0.00  0.00    +0.000 A 
ATOM     34  C   UNL     1      31.988  31.355  45.270  0.00  0.00    +0.000 A 
ATOM     35  H   UNL     1      31.552  30.661  45.971  0.00  0.00    +0.000 HD
ATOM     36  N   UNL     1      31.199  32.036  44.436  0.00  0.00    +0.000 NA
ATOM     37  C   UNL     1      31.719  32.915  43.544  0.00  0.00    +0.000 A 
ATOM     38  H   UNL     1      30.986  33.397  42.933  0.00  0.00    +0.000 HD
ATOM     39  N   UNL     1      33.064  33.108  43.498  0.00  0.00    +0.000 NA
ATOM     40  C   UNL     1      33.902  32.443  44.322  0.00  0.00    +0.000 A 
ENDBRANCH  28  31
ENDBRANCH   1  28
TORSDOF 4
