
 OpenBabel03262521353D

 40 44  0  0  1  0  0  0  0  0999 V2000
   38.4310   31.4520   45.3630 C   0  0  1  0  0  0  0  0  0  0  0  0
   38.8100   32.4210   46.4090 C   0  0  2  0  0  0  0  0  0  0  0  0
   40.2610   32.7720   46.0380 C   0  0  0  0  0  0  0  0  0  0  0  0
   40.7390   31.5510   45.6600 O   0  0  0  0  0  0  0  0  0  0  0  0
   39.7620   30.8230   45.0050 C   0  0  0  0  0  0  0  0  0  0  0  0
   38.0260   31.9550   44.4850 H   0  0  0  0  0  0  0  0  0  0  0  0
   38.2460   33.3550   46.2620 H   0  0  0  0  0  0  0  0  0  0  0  0
   40.3200   33.5590   45.2820 H   0  0  0  0  0  0  0  0  0  0  0  0
   40.7490   33.0560   47.0040 H   0  0  0  0  0  0  0  0  0  0  0  0
   39.8260   29.7500   45.2860 H   0  0  0  0  0  0  0  0  0  0  0  0
   39.9090   30.8290   43.8960 H   0  0  0  0  0  0  0  0  0  0  0  0
   37.5700   32.3560   48.6950 C   0  0  1  0  0  0  0  0  0  0  0  0
   38.7840   33.1110   48.8420 C   0  0  0  0  0  0  0  0  0  0  0  0
   38.7700   31.9370   47.8430 C   0  0  2  0  0  0  0  0  0  0  0  0
   36.7350   32.7950   48.0750 H   0  0  0  0  0  0  0  0  0  0  0  0
   38.9230   34.1280   48.4800 H   0  0  0  0  0  0  0  0  0  0  0  0
   39.3900   32.9130   49.7740 H   0  0  0  0  0  0  0  0  0  0  0  0
   39.3330   31.0440   48.1160 H   0  0  0  0  0  0  0  0  0  0  0  0
   35.5500   29.7000   50.3880 C   0  0  0  0  0  0  0  0  0  0  0  0
   35.9190   30.6720   49.4610 C   0  0  0  0  0  0  0  0  0  0  0  0
   37.1360   31.3080   49.6400 C   0  0  0  0  0  0  0  0  0  0  0  0
   37.9140   30.9490   50.7190 N   0  0  0  0  0  0  0  0  0  0  0  0
   37.5340   30.0040   51.6030 C   0  0  0  0  0  0  0  0  0  0  0  0
   36.3320   29.3640   51.4410 N   0  0  0  0  0  0  0  0  0  0  0  0
   34.5890   29.2120   50.2300 H   0  0  0  0  0  0  0  0  0  0  0  0
   35.2470   30.8930   48.6430 H   0  0  0  0  0  0  0  0  0  0  0  0
   38.2080   29.7870   52.4200 H   0  0  0  0  0  0  0  0  0  0  0  0
   37.5350   30.4870   45.7880 O   0  0  0  0  0  0  0  0  0  0  0  0
   35.0210   30.1020   47.0630 H   0  0  0  0  0  0  0  0  0  0  0  0
   35.0630   30.2780   46.0480 N   0  0  0  0  0  0  0  0  0  0  0  0
   36.1960   30.4720   45.3500 C   0  0  0  0  0  0  0  0  0  0  0  0
   35.8110   30.6660   44.0630 N   0  0  0  0  0  0  0  0  0  0  0  0
   34.4610   30.5890   43.9780 C   0  0  0  0  0  0  0  0  0  0  0  0
   33.6120   30.7130   42.9140 C   0  0  0  0  0  0  0  0  0  0  0  0
   33.9800   30.9080   41.9190 H   0  0  0  0  0  0  0  0  0  0  0  0
   32.2990   30.5910   43.1210 N   0  0  0  0  0  0  0  0  0  0  0  0
   31.8070   30.3470   44.3610 C   0  0  0  0  0  0  0  0  0  0  0  0
   30.7410   30.2700   44.3960 H   0  0  0  0  0  0  0  0  0  0  0  0
   32.6620   30.2260   45.4100 N   0  0  0  0  0  0  0  0  0  0  0  0
   33.9980   30.3420   45.2500 C   0  0  0  0  0  0  0  0  0  0  0  0
  1  6  1  6  0  0  0
  1 28  1  0  0  0  0
  1  2  1  0  0  0  0
  2  7  1  6  0  0  0
  2 14  1  0  0  0  0
  3  2  1  0  0  0  0
  3  9  1  0  0  0  0
  4  3  1  0  0  0  0
  5 10  1  0  0  0  0
  5  1  1  0  0  0  0
  5  4  1  0  0  0  0
  8  3  1  0  0  0  0
 11  5  1  0  0  0  0
 12 15  1  6  0  0  0
 12 13  1  0  0  0  0
 12 21  1  0  0  0  0
 13 17  1  0  0  0  0
 14 18  1  1  0  0  0
 14 12  1  0  0  0  0
 14 13  1  0  0  0  0
 16 13  1  0  0  0  0
 19 24  1  0  0  0  0
 20 21  1  0  0  0  0
 20 19  2  0  0  0  0
 21 22  2  0  0  0  0
 22 23  1  0  0  0  0
 23 27  1  0  0  0  0
 24 23  2  0  0  0  0
 25 19  1  0  0  0  0
 26 20  1  0  0  0  0
 30 29  1  0  0  0  0
 31 28  1  0  0  0  0
 31 30  1  0  0  0  0
 32 31  2  0  0  0  0
 33 32  1  0  0  0  0
 33 40  1  0  0  0  0
 34 36  1  0  0  0  0
 34 33  2  0  0  0  0
 35 34  1  0  0  0  0
 36 37  2  0  0  0  0
 37 38  1  0  0  0  0
 37 39  1  0  0  0  0
 40 39  2  0  0  0  0
 40 30  1  0  0  0  0
M  END
>  <minimizedAffinity>
-5.80788612

>  <minimizedRMSD>
1.25213361

$$$$
