
 OpenBabel03272507013D

 49 53  0  0  1  0  0  0  0  0999 V2000
   33.4550   28.9850   48.8370 C   0  0  2  0  0  0  0  0  0  0  0  0
   34.2170   29.6470   47.7380 C   0  0  0  0  0  0  0  0  0  0  0  0
   35.6360   29.1720   47.6500 C   0  0  2  0  0  0  0  0  0  0  0  0
   36.4030   29.2920   48.9160 C   0  0  0  0  0  0  0  0  0  0  0  0
   35.5770   28.9590   50.1400 C   0  0  0  0  0  0  0  0  0  0  0  0
   34.3220   28.1880   49.7730 C   0  0  0  0  0  0  0  0  0  0  0  0
   32.8920   29.6960   49.5110 H   0  0  0  0  0  0  0  0  0  0  0  0
   34.0760   30.7080   47.9030 H   0  0  0  0  0  0  0  0  0  0  0  0
   33.8270   29.4290   46.7330 H   0  0  0  0  0  0  0  0  0  0  0  0
   35.5730   28.0960   47.3790 H   0  0  0  0  0  0  0  0  0  0  0  0
   36.9880   30.2280   49.0220 H   0  0  0  0  0  0  0  0  0  0  0  0
   37.1980   28.4870   48.8860 H   0  0  0  0  0  0  0  0  0  0  0  0
   35.2420   29.9260   50.5710 H   0  0  0  0  0  0  0  0  0  0  0  0
   36.1490   28.4540   50.9170 H   0  0  0  0  0  0  0  0  0  0  0  0
   33.7630   28.0120   50.7110 H   0  0  0  0  0  0  0  0  0  0  0  0
   34.6290   27.2230   49.3280 H   0  0  0  0  0  0  0  0  0  0  0  0
   36.2300   29.8620   46.5690 N   0  0  1  0  0  0  0  0  0  0  0  0
   35.3640   30.2310   45.4900 C   0  0  0  0  0  0  0  0  0  0  0  0
   36.3900   30.6470   44.4340 C   0  0  0  0  0  0  0  0  0  0  0  0
   37.3810   31.3890   45.3160 C   0  0  0  0  0  0  0  0  0  0  0  0
   37.2650   30.6900   46.6970 C   0  0  1  0  0  0  0  0  0  0  0  0
   34.7400   31.1190   45.7360 H   0  0  0  0  0  0  0  0  0  0  0  0
   34.8060   29.3850   45.0810 H   0  0  0  0  0  0  0  0  0  0  0  0
   35.8850   31.3250   43.7250 H   0  0  0  0  0  0  0  0  0  0  0  0
   36.8400   29.7560   43.9810 H   0  0  0  0  0  0  0  0  0  0  0  0
   38.4000   31.3580   44.9120 H   0  0  0  0  0  0  0  0  0  0  0  0
   37.0780   32.4280   45.3360 H   0  0  0  0  0  0  0  0  0  0  0  0
   38.1660   29.9760   46.6150 H   0  0  0  0  0  0  0  0  0  0  0  0
   37.6130   31.6250   47.6630 N   0  0  0  0  0  0  0  0  0  0  0  0
   37.0120   31.8000   48.8850 C   0  0  0  0  0  0  0  0  0  0  0  0
   36.1620   31.2630   49.3350 H   0  0  0  0  0  0  0  0  0  0  0  0
   37.5380   32.7540   49.6210 N   0  0  0  0  0  0  0  0  0  0  0  0
   38.5470   33.2810   48.9070 C   0  0  0  0  0  0  0  0  0  0  0  0
   39.4730   34.2960   49.1160 C   0  0  0  0  0  0  0  0  0  0  0  0
   39.4580   34.8520   50.0430 H   0  0  0  0  0  0  0  0  0  0  0  0
   40.3960   34.6160   48.1910 N   0  0  0  0  0  0  0  0  0  0  0  0
   40.4160   33.9260   47.0360 C   0  0  0  0  0  0  0  0  0  0  0  0
   41.0730   34.0240   46.1640 H   0  0  0  0  0  0  0  0  0  0  0  0
   39.5360   32.9610   46.8400 N   0  0  0  0  0  0  0  0  0  0  0  0
   38.5870   32.5890   47.7160 C   0  0  0  0  0  0  0  0  0  0  0  0
   32.4100   28.0800   48.3100 C   0  0  0  0  0  0  0  0  0  0  0  0
   32.6120   27.6690   46.9910 C   0  0  0  0  0  0  0  0  0  0  0  0
   31.6520   26.7990   46.4510 C   0  0  0  0  0  0  0  0  0  0  0  0
   30.5790   26.4020   47.2320 N   0  0  0  0  0  0  0  0  0  0  0  0
   30.4310   26.8380   48.5190 C   0  0  0  0  0  0  0  0  0  0  0  0
   31.3390   27.6560   49.0170 N   0  0  0  0  0  0  0  0  0  0  0  0
   33.2920   27.8110   46.1790 H   0  0  0  0  0  0  0  0  0  0  0  0
   31.5560   26.3370   45.5000 H   0  0  0  0  0  0  0  0  0  0  0  0
   29.6020   26.5320   49.1210 H   0  0  0  0  0  0  0  0  0  0  0  0
  1  7  1  1  0  0  0
  1  6  1  0  0  0  0
  2  8  1  0  0  0  0
  2  1  1  0  0  0  0
  3 10  1  6  0  0  0
  3  2  1  0  0  0  0
  3  4  1  0  0  0  0
  4 11  1  0  0  0  0
  4  5  1  0  0  0  0
  5 13  1  0  0  0  0
  5 14  1  0  0  0  0
  6  5  1  0  0  0  0
  6 15  1  0  0  0  0
  9  2  1  0  0  0  0
 12  4  1  0  0  0  0
 16  6  1  0  0  0  0
 17 18  1  1  0  0  0
 17 21  1  0  0  0  0
 17  3  1  0  0  0  0
 18 22  1  0  0  0  0
 19 20  1  0  0  0  0
 19 18  1  0  0  0  0
 20 27  1  0  0  0  0
 20 21  1  0  0  0  0
 21 28  1  1  0  0  0
 21 29  1  0  0  0  0
 23 18  1  0  0  0  0
 24 19  1  0  0  0  0
 25 19  1  0  0  0  0
 26 20  1  0  0  0  0
 29 40  1  0  0  0  0
 29 30  1  0  0  0  0
 30 31  1  0  0  0  0
 30 32  2  0  0  0  0
 33 34  1  0  0  0  0
 33 32  1  0  0  0  0
 34 35  1  0  0  0  0
 36 34  2  0  0  0  0
 37 36  1  0  0  0  0
 38 37  1  0  0  0  0
 39 37  2  0  0  0  0
 39 40  1  0  0  0  0
 40 33  2  0  0  0  0
 41  1  1  0  0  0  0
 41 46  1  0  0  0  0
 42 41  2  0  0  0  0
 43 42  1  0  0  0  0
 43 44  2  0  0  0  0
 44 45  1  0  0  0  0
 45 46  2  0  0  0  0
 45 49  1  0  0  0  0
 47 42  1  0  0  0  0
 48 43  1  0  0  0  0
M  END
>  <minimizedAffinity>
-5.03042412

>  <minimizedRMSD>
2.7140975

$$$$
