REMARK  Name = 
REMARK  0 active torsions:
REMARK  status: ('A' for Active; 'I' for Inactive)
REMARK                            x       y       z     vdW  Elec       q    Type
REMARK                         _______ _______ _______ _____ _____    ______ ____
ROOT
ATOM      1  C   UNL     1      37.308  30.215  51.423  0.00  0.00    +0.000 A 
ATOM      2  C   UNL     1      38.093  30.750  50.397  0.00  0.00    +0.000 A 
ATOM      3  C   UNL     1      37.740  30.420  49.067  0.00  0.00    +0.000 A 
ATOM      4  N   UNL     1      36.657  29.603  48.876  0.00  0.00    +0.000 NA
ATOM      5  C   UNL     1      35.942  29.120  49.899  0.00  0.00    +0.000 A 
ATOM      6  N   UNL     1      36.255  29.418  51.187  0.00  0.00    +0.000 NA
ATOM      7  N   UNL     1      34.847  28.286  49.552  0.00  0.00    +0.000 N 
ATOM      8  H   UNL     1      37.513  30.419  52.457  0.00  0.00    +0.000 HD
ATOM      9  H   UNL     1      38.933  31.388  50.620  0.00  0.00    +0.000 HD
ATOM     10  H   UNL     1      34.624  27.294  49.778  0.00  0.00    +0.000 HD
ATOM     11  H   UNL     1      34.118  28.769  48.946  0.00  0.00    +0.000 HD
ATOM     12  N   UNL     1      38.507  30.939  47.987  0.00  0.00    +0.000 N 
ATOM     13  C   UNL     1      39.710  31.520  48.255  0.00  0.00    +0.000 A 
ATOM     14  H   UNL     1      40.231  31.675  49.184  0.00  0.00    +0.000 HD
ATOM     15  N   UNL     1      40.286  31.949  47.118  0.00  0.00    +0.000 NA
ATOM     16  C   UNL     1      39.452  31.644  46.110  0.00  0.00    +0.000 A 
ATOM     17  C   UNL     1      39.407  31.785  44.722  0.00  0.00    +0.000 A 
ATOM     18  H   UNL     1      40.263  32.276  44.258  0.00  0.00    +0.000 HD
ATOM     19  N   UNL     1      38.342  31.325  44.035  0.00  0.00    +0.000 NA
ATOM     20  C   UNL     1      37.298  30.724  44.619  0.00  0.00    +0.000 A 
ATOM     21  H   UNL     1      36.531  30.413  43.952  0.00  0.00    +0.000 HD
ATOM     22  N   UNL     1      37.285  30.556  45.971  0.00  0.00    +0.000 NA
ATOM     23  C   UNL     1      38.349  31.018  46.652  0.00  0.00    +0.000 A 
ENDROOT
TORSDOF 0
