REMARK  Name = 
REMARK  0 active torsions:
REMARK  status: ('A' for Active; 'I' for Inactive)
REMARK                            x       y       z     vdW  Elec       q    Type
REMARK                         _______ _______ _______ _____ _____    ______ ____
ROOT
ATOM      1  C   UNL     1      37.308  30.215  51.423  0.00  0.00    +0.000 A 
ATOM      2  C   UNL     1      38.093  30.750  50.397  0.00  0.00    +0.000 A 
ATOM      3  C   UNL     1      37.740  30.420  49.067  0.00  0.00    +0.000 A 
ATOM      4  N   UNL     1      36.657  29.603  48.876  0.00  0.00    +0.000 NA
ATOM      5  C   UNL     1      35.942  29.120  49.899  0.00  0.00    +0.000 A 
ATOM      6  N   UNL     1      36.255  29.418  51.187  0.00  0.00    +0.000 NA
ATOM      7  N   UNL     1      34.847  28.286  49.552  0.00  0.00    +0.000 N 
ATOM      8  H   UNL     1      37.513  30.419  52.457  0.00  0.00    +0.000 HD
ATOM      9  H   UNL     1      38.933  31.388  50.620  0.00  0.00    +0.000 HD
ATOM     10  H   UNL     1      34.624  27.294  49.778  0.00  0.00    +0.000 HD
ATOM     11  H   UNL     1      34.118  28.769  48.946  0.00  0.00    +0.000 HD
ATOM     12  N   UNL     1      38.507  30.939  47.987  0.00  0.00    +0.000 N 
ATOM     13  C   UNL     1      39.327  32.003  48.215  0.00  0.00    +0.000 A 
ATOM     14  H   UNL     1      39.524  32.568  49.110  0.00  0.00    +0.000 HD
ATOM     15  N   UNL     1      39.967  32.352  47.085  0.00  0.00    +0.000 NA
ATOM     16  C   UNL     1      39.559  31.509  46.121  0.00  0.00    +0.000 A 
ATOM     17  C   UNL     1      39.797  31.293  44.763  0.00  0.00    +0.000 A 
ATOM     18  H   UNL     1      40.508  31.967  44.284  0.00  0.00    +0.000 HD
ATOM     19  N   UNL     1      39.159  30.294  44.120  0.00  0.00    +0.000 NA
ATOM     20  C   UNL     1      38.288  29.475  44.722  0.00  0.00    +0.000 A 
ATOM     21  H   UNL     1      37.862  28.734  44.091  0.00  0.00    +0.000 HD
ATOM     22  N   UNL     1      38.014  29.636  46.047  0.00  0.00    +0.000 NA
ATOM     23  C   UNL     1      38.653  30.634  46.683  0.00  0.00    +0.000 A 
ENDROOT
TORSDOF 0
