REMARK  Name = 
REMARK  6 active torsions:
REMARK  status: ('A' for Active; 'I' for Inactive)
REMARK    1  A    between atoms: P_2  and  O_3
REMARK    2  A    between atoms: P_2  and  O_4
REMARK    3  A    between atoms: P_2  and  O_11
REMARK    4  A    between atoms: O_4  and  C_7
REMARK    5  A    between atoms: O_11  and  C_14
REMARK    6  A    between atoms: C_18  and  N_26
REMARK                            x       y       z     vdW  Elec       q    Type
REMARK                         _______ _______ _______ _____ _____    ______ ____
ROOT
ATOM      1 CL   UNL     1      36.631  29.449  44.042  0.00  0.00    +0.000 Cl
ATOM      2  C   UNL     1      38.266  29.832  43.481  0.00  0.00    +0.000 A 
ATOM      3  C   UNL     1      39.275  30.315  44.314  0.00  0.00    +0.000 A 
ATOM      4  C   UNL     1      40.504  30.573  43.746  0.00  0.00    +0.000 A 
ATOM      5  C   UNL     1      40.716  30.357  42.404  0.00  0.00    +0.000 A 
ATOM      6  C   UNL     1      39.733  29.882  41.572  0.00  0.00    +0.000 A 
ATOM      7  C   UNL     1      38.506  29.621  42.121  0.00  0.00    +0.000 A 
ATOM      8  H   UNL     1      41.223  30.945  44.468  0.00  0.00    +0.000 HD
ATOM      9  H   UNL     1      41.707  30.581  42.022  0.00  0.00    +0.000 HD
ATOM     10  H   UNL     1      39.937  29.723  40.511  0.00  0.00    +0.000 HD
ENDROOT
BRANCH   7  11
ATOM     11  N   UNL     1      37.498  29.129  41.245  0.00  0.00    +0.000 N 
ATOM     12  C   UNL     1      36.884  29.812  40.250  0.00  0.00    +0.000 A 
ATOM     13  H   UNL     1      37.053  30.850  39.951  0.00  0.00    +0.000 HD
ATOM     14  N   UNL     1      35.978  29.040  39.616  0.00  0.00    +0.000 NA
ATOM     15  C   UNL     1      35.994  27.816  40.206  0.00  0.00    +0.000 A 
ATOM     16  C   UNL     1      35.324  26.616  40.032  0.00  0.00    +0.000 A 
ATOM     17  H   UNL     1      34.581  26.558  39.242  0.00  0.00    +0.000 HD
ATOM     18  N   UNL     1      35.615  25.562  40.843  0.00  0.00    +0.000 NA
ATOM     19  C   UNL     1      36.536  25.641  41.818  0.00  0.00    +0.000 A 
ATOM     20  H   UNL     1      36.775  24.806  42.471  0.00  0.00    +0.000 HD
ATOM     21  N   UNL     1      37.166  26.826  41.956  0.00  0.00    +0.000 NA
ATOM     22  C   UNL     1      36.942  27.901  41.208  0.00  0.00    +0.000 A 
ENDBRANCH   7  11
BRANCH   3  23
ATOM     23  O   UNL     1      38.860  30.459  45.606  0.00  0.00    +0.000 OA
BRANCH  23  25
ATOM     24  O   UNL     1      39.448  32.484  47.102  0.00  0.00    +0.000 OA
ATOM     25  P   UNL     1      38.311  31.818  46.406  0.00  0.00    +0.000 P 
BRANCH  25  26
ATOM     26  O   UNL     1      37.728  32.845  45.169  0.00  0.00    +0.000 OA
ATOM     27  H   UNL     1      38.371  33.585  45.038  0.00  0.00    +0.000 HD
ENDBRANCH  25  26
BRANCH  25  28
ATOM     28  O   UNL     1      37.025  31.392  47.431  0.00  0.00    +0.000 OA
BRANCH  28  31
ATOM     29  C   UNL     1      37.610  30.536  50.969  0.00  0.00    +0.000 A 
ATOM     30  C   UNL     1      37.709  31.308  49.806  0.00  0.00    +0.000 A 
ATOM     31  C   UNL     1      37.068  30.827  48.655  0.00  0.00    +0.000 A 
ATOM     32  N   UNL     1      36.390  29.643  48.732  0.00  0.00    +0.000 NA
ATOM     33  C   UNL     1      36.327  28.941  49.875  0.00  0.00    +0.000 A 
ATOM     34  N   UNL     1      36.931  29.378  50.992  0.00  0.00    +0.000 NA
ATOM     35  H   UNL     1      38.130  30.961  51.837  0.00  0.00    +0.000 HD
ATOM     36  H   UNL     1      38.219  32.231  49.687  0.00  0.00    +0.000 HD
ATOM     37  H   UNL     1      35.792  28.000  49.946  0.00  0.00    +0.000 HD
ENDBRANCH  28  31
ENDBRANCH  25  28
ENDBRANCH  23  25
ENDBRANCH   3  23
TORSDOF 6
