
 OpenBabel03272505253D

 34 37  0  0  0  0  0  0  0  0999 V2000
   37.4730   31.0750   46.9410 N   0  0  0  0  0  0  0  0  0  0  0  0
   36.9720   30.6490   45.7490 C   0  0  0  0  0  0  0  0  0  0  0  0
   37.4970   31.0660   44.5350 C   0  0  0  0  0  0  0  0  0  0  0  0
   38.5780   31.9550   44.5770 C   0  0  0  0  0  0  0  0  0  0  0  0
   39.0910   32.3630   43.5100 O   0  0  0  0  0  0  0  0  0  0  0  0
   39.0840   32.3850   45.7740 N   0  0  0  0  0  0  0  0  0  0  0  0
   38.4920   31.9130   46.8770 C   0  0  0  0  0  0  0  0  0  0  0  0
   38.9770   32.3260   47.9530 O   0  0  0  0  0  0  0  0  0  0  0  0
   36.1270   29.9540   45.7700 H   0  0  0  0  0  0  0  0  0  0  0  0
   36.9710   30.6190   43.2890 N   0  0  0  0  0  0  0  0  0  0  0  0
   35.9280   31.1590   42.6350 C   0  0  0  0  0  0  0  0  0  0  0  0
   35.3430   32.0100   42.9650 H   0  0  0  0  0  0  0  0  0  0  0  0
   35.6870   30.5140   41.5040 N   0  0  0  0  0  0  0  0  0  0  0  0
   36.5760   29.5130   41.3720 C   0  0  0  0  0  0  0  0  0  0  0  0
   36.7870   28.5480   40.4150 C   0  0  0  0  0  0  0  0  0  0  0  0
   36.1370   28.5220   39.5470 H   0  0  0  0  0  0  0  0  0  0  0  0
   37.7980   27.6910   40.6250 N   0  0  0  0  0  0  0  0  0  0  0  0
   38.5950   27.7430   41.7150 C   0  0  0  0  0  0  0  0  0  0  0  0
   39.4120   27.0170   41.8430 H   0  0  0  0  0  0  0  0  0  0  0  0
   38.3770   28.7040   42.6600 N   0  0  0  0  0  0  0  0  0  0  0  0
   37.3750   29.5980   42.5100 C   0  0  0  0  0  0  0  0  0  0  0  0
   37.1600   29.6570   50.3570 C   0  0  0  0  0  0  0  0  0  0  0  0
   37.7020   30.0830   49.1380 C   0  0  0  0  0  0  0  0  0  0  0  0
   36.9280   30.6430   48.1550 C   0  0  0  0  0  0  0  0  0  0  0  0
   35.5990   30.7750   48.3980 N   0  0  0  0  0  0  0  0  0  0  0  0
   35.0420   30.3690   49.5730 C   0  0  0  0  0  0  0  0  0  0  0  0
   35.8150   29.8140   50.5480 N   0  0  0  0  0  0  0  0  0  0  0  0
   37.6950   29.2150   51.1660 H   0  0  0  0  0  0  0  0  0  0  0  0
   38.7570   29.8870   49.1290 H   0  0  0  0  0  0  0  0  0  0  0  0
   33.9830   30.5250   49.6470 H   0  0  0  0  0  0  0  0  0  0  0  0
   40.2010   33.3030   45.8190 C   0  0  0  0  0  0  0  0  0  0  0  0
   40.0390   34.2740   44.8750 F   0  0  0  0  0  0  0  0  0  0  0  0
   41.4140   32.6900   45.5530 F   0  0  0  0  0  0  0  0  0  0  0  0
   40.2290   33.9180   47.0640 F   0  0  0  0  0  0  0  0  0  0  0  0
  1 24  1  0  0  0  0
  2  9  1  0  0  0  0
  2  1  1  0  0  0  0
  3  4  1  0  0  0  0
  3  2  2  0  0  0  0
  4  6  1  0  0  0  0
  5  4  2  0  0  0  0
  6 31  1  0  0  0  0
  6  7  1  0  0  0  0
  7  1  1  0  0  0  0
  7  8  2  0  0  0  0
 10  3  1  0  0  0  0
 11 12  1  0  0  0  0
 11 10  1  0  0  0  0
 13 11  2  0  0  0  0
 14 13  1  0  0  0  0
 14 21  1  0  0  0  0
 15 17  1  0  0  0  0
 15 14  2  0  0  0  0
 16 15  1  0  0  0  0
 17 18  2  0  0  0  0
 18 19  1  0  0  0  0
 18 20  1  0  0  0  0
 21 20  2  0  0  0  0
 21 10  1  0  0  0  0
 22 27  1  0  0  0  0
 22 28  1  0  0  0  0
 23 22  2  0  0  0  0
 24 25  2  0  0  0  0
 24 23  1  0  0  0  0
 25 26  1  0  0  0  0
 26 30  1  0  0  0  0
 26 27  2  0  0  0  0
 29 23  1  0  0  0  0
 31 34  1  0  0  0  0
 32 31  1  0  0  0  0
 33 31  1  0  0  0  0
M  END
>  <minimizedAffinity>
-6.25699615

>  <minimizedRMSD>
1.30759668

$$$$
