
 OpenBabel03272508093D

 27 29  0  0  0  0  0  0  0  0999 V2000
   38.9960   32.8350   48.1390 O   0  0  0  0  0  0  0  0  0  0  0  0
   38.6570   31.7840   47.1250 P   0  0  2  0  0  0  0  0  0  0  0  0
   37.6220   32.4480   45.9410 O   0  0  0  0  0  0  0  0  0  0  0  0
   37.6620   33.4260   45.9980 H   0  0  0  0  0  0  0  0  0  0  0  0
   38.0260   30.3680   47.7630 O   0  0  0  0  0  0  0  0  0  0  0  0
   37.3220   30.1990   51.3930 C   0  0  0  0  0  0  0  0  0  0  0  0
   38.0320   30.5390   50.2370 C   0  0  0  0  0  0  0  0  0  0  0  0
   37.5160   30.1520   49.0090 C   0  0  0  0  0  0  0  0  0  0  0  0
   36.3340   29.4540   48.9860 N   0  0  0  0  0  0  0  0  0  0  0  0
   35.6840   29.1480   50.1310 C   0  0  0  0  0  0  0  0  0  0  0  0
   36.1760   29.5190   51.3240 N   0  0  0  0  0  0  0  0  0  0  0  0
   37.7480   30.5130   52.3230 H   0  0  0  0  0  0  0  0  0  0  0  0
   38.9520   31.0770   50.1840 H   0  0  0  0  0  0  0  0  0  0  0  0
   34.7410   28.5890   50.0710 H   0  0  0  0  0  0  0  0  0  0  0  0
   40.0970   31.4090   46.3000 O   0  0  0  0  0  0  0  0  0  0  0  0
   41.8790   31.1810   44.1630 H   0  0  0  0  0  0  0  0  0  0  0  0
   40.9360   30.7460   44.0690 N   0  0  0  0  0  0  0  0  0  0  0  0
   39.9960   30.7980   45.0470 C   0  0  0  0  0  0  0  0  0  0  0  0
   38.9550   30.1240   44.5200 N   0  0  0  0  0  0  0  0  0  0  0  0
   39.2170   29.6770   43.2950 C   0  0  0  0  0  0  0  0  0  0  0  0
   38.5780   28.9590   42.3030 C   0  0  0  0  0  0  0  0  0  0  0  0
   37.5700   28.6240   42.4880 H   0  0  0  0  0  0  0  0  0  0  0  0
   39.1680   28.6750   41.1330 N   0  0  0  0  0  0  0  0  0  0  0  0
   40.4380   29.1010   40.9060 C   0  0  0  0  0  0  0  0  0  0  0  0
   40.9310   28.8730   39.9500 H   0  0  0  0  0  0  0  0  0  0  0  0
   41.1060   29.8040   41.8400 N   0  0  0  0  0  0  0  0  0  0  0  0
   40.4960   30.0800   43.0060 C   0  0  0  0  0  0  0  0  0  0  0  0
  2  5  1  0  0  0  0
  2  1  2  1  0  0  0
  3  4  1  0  0  0  0
  3  2  1  0  0  0  0
  5  8  1  0  0  0  0
  6 12  1  0  0  0  0
  7  6  2  0  0  0  0
  8  7  1  0  0  0  0
  9  8  2  0  0  0  0
  9 10  1  0  0  0  0
 10 11  2  0  0  0  0
 11  6  1  0  0  0  0
 13  7  1  0  0  0  0
 14 10  1  0  0  0  0
 15  2  1  0  0  0  0
 17 16  1  0  0  0  0
 17 18  1  0  0  0  0
 18 15  1  0  0  0  0
 19 18  2  0  0  0  0
 20 19  1  0  0  0  0
 21 22  1  0  0  0  0
 21 20  2  0  0  0  0
 23 21  1  0  0  0  0
 24 23  2  0  0  0  0
 24 26  1  0  0  0  0
 25 24  1  0  0  0  0
 26 27  2  0  0  0  0
 27 20  1  0  0  0  0
 27 17  1  0  0  0  0
M  END
>  <minimizedAffinity>
-5.73307323

>  <minimizedRMSD>
1.17810798

$$$$
