
 OpenBabel03262521533D

 26 28  0  0  0  0  0  0  0  0999 V2000
   37.9750   25.0640   35.4170 C   0  0  0  0  0  0  0  0  0  0  0  0
   37.0330   24.7710   34.9330 H   0  0  0  0  0  0  0  0  0  0  0  0
   38.8130   24.6940   34.7860 H   0  0  0  0  0  0  0  0  0  0  0  0
   38.1170   26.8630   35.5080 S   0  0  0  0  0  0  0  0  0  0  0  0
   37.0770   27.5720   34.2490 C   0  0  0  0  0  0  0  0  0  0  0  0
   37.2390   27.0720   32.9690 C   0  0  0  0  0  0  0  0  0  0  0  0
   36.4600   27.5800   31.9400 C   0  0  0  0  0  0  0  0  0  0  0  0
   35.5450   28.5770   32.2410 N   0  0  0  0  0  0  0  0  0  0  0  0
   35.4290   29.0240   33.4940 C   0  0  0  0  0  0  0  0  0  0  0  0
   36.1700   28.5430   34.4880 N   0  0  0  0  0  0  0  0  0  0  0  0
   37.9360   26.2920   32.6640 H   0  0  0  0  0  0  0  0  0  0  0  0
   36.5650   27.2070   30.9190 H   0  0  0  0  0  0  0  0  0  0  0  0
   34.7320   29.7990   33.7830 H   0  0  0  0  0  0  0  0  0  0  0  0
   38.1800   24.2750   37.0370 S   0  0  0  0  0  0  0  0  0  0  0  0
   39.8080   22.3930   38.9730 H   0  0  0  0  0  0  0  0  0  0  0  0
   40.1340   22.3740   38.0020 N   0  0  0  0  0  0  0  0  0  0  0  0
   39.5410   23.1200   37.0550 C   0  0  0  0  0  0  0  0  0  0  0  0
   40.1550   22.9210   35.8510 N   0  0  0  0  0  0  0  0  0  0  0  0
   41.1640   22.0290   36.0090 C   0  0  0  0  0  0  0  0  0  0  0  0
   42.0770   21.4870   35.1360 C   0  0  0  0  0  0  0  0  0  0  0  0
   42.0500   21.7860   34.0920 H   0  0  0  0  0  0  0  0  0  0  0  0
   42.9810   20.5940   35.6310 N   0  0  0  0  0  0  0  0  0  0  0  0
   42.9140   20.3080   36.9360 C   0  0  0  0  0  0  0  0  0  0  0  0
   43.6680   19.5820   37.2760 H   0  0  0  0  0  0  0  0  0  0  0  0
   42.0180   20.8370   37.8010 N   0  0  0  0  0  0  0  0  0  0  0  0
   41.0920   21.7370   37.3550 C   0  0  0  0  0  0  0  0  0  0  0  0
  1  4  1  0  0  0  0
  1 14  1  0  0  0  0
  2  1  1  0  0  0  0
  3  1  1  0  0  0  0
  5 10  1  0  0  0  0
  5  4  1  0  0  0  0
  6  5  2  0  0  0  0
  7  8  2  0  0  0  0
  7  6  1  0  0  0  0
  8  9  1  0  0  0  0
  9 13  1  0  0  0  0
  9 10  2  0  0  0  0
 11  6  1  0  0  0  0
 12  7  1  0  0  0  0
 14 17  1  0  0  0  0
 16 15  1  0  0  0  0
 17 16  1  0  0  0  0
 18 19  1  0  0  0  0
 18 17  2  0  0  0  0
 19 26  1  0  0  0  0
 20 22  1  0  0  0  0
 20 19  2  0  0  0  0
 21 20  1  0  0  0  0
 22 23  2  0  0  0  0
 23 24  1  0  0  0  0
 23 25  1  0  0  0  0
 26 25  2  0  0  0  0
 26 16  1  0  0  0  0
M  END
>  <minimizedAffinity>
-4.42920208

$$$$

 OpenBabel03262521533D

 26 28  0  0  0  0  0  0  0  0999 V2000
   38.0450   23.6960   33.3700 C   0  0  0  0  0  0  0  0  0  0  0  0
   38.8860   23.5580   32.6760 H   0  0  0  0  0  0  0  0  0  0  0  0
   37.1210   23.8250   32.7650 H   0  0  0  0  0  0  0  0  0  0  0  0
   37.8180   22.2290   34.4000 S   0  0  0  0  0  0  0  0  0  0  0  0
   38.2850   22.6370   36.0690 C   0  0  0  0  0  0  0  0  0  0  0  0
   39.6130   22.4290   36.3990 C   0  0  0  0  0  0  0  0  0  0  0  0
   40.0450   22.7260   37.6840 C   0  0  0  0  0  0  0  0  0  0  0  0
   39.1200   23.2210   38.5890 N   0  0  0  0  0  0  0  0  0  0  0  0
   37.8500   23.4030   38.2180 C   0  0  0  0  0  0  0  0  0  0  0  0
   37.4250   23.1220   36.9890 N   0  0  0  0  0  0  0  0  0  0  0  0
   40.3900   22.0440   35.7400 H   0  0  0  0  0  0  0  0  0  0  0  0
   41.0860   22.5720   37.9760 H   0  0  0  0  0  0  0  0  0  0  0  0
   37.0880   23.7860   38.8830 H   0  0  0  0  0  0  0  0  0  0  0  0
   38.2170   25.2090   34.3540 S   0  0  0  0  0  0  0  0  0  0  0  0
   37.1090   26.3290   31.6230 H   0  0  0  0  0  0  0  0  0  0  0  0
   36.8820   26.9100   32.4350 N   0  0  0  0  0  0  0  0  0  0  0  0
   37.2820   26.5670   33.6700 C   0  0  0  0  0  0  0  0  0  0  0  0
   36.8580   27.4990   34.5750 N   0  0  0  0  0  0  0  0  0  0  0  0
   36.1670   28.4670   33.9240 C   0  0  0  0  0  0  0  0  0  0  0  0
   35.5360   29.6120   34.3500 C   0  0  0  0  0  0  0  0  0  0  0  0
   35.5520   29.8590   35.4080 H   0  0  0  0  0  0  0  0  0  0  0  0
   34.9180   30.3860   33.4130 N   0  0  0  0  0  0  0  0  0  0  0  0
   34.9700   29.9750   32.1410 C   0  0  0  0  0  0  0  0  0  0  0  0
   34.4550   30.6400   31.4330 H   0  0  0  0  0  0  0  0  0  0  0  0
   35.5890   28.8500   31.7150 N   0  0  0  0  0  0  0  0  0  0  0  0
   36.2230   28.0410   32.6140 C   0  0  0  0  0  0  0  0  0  0  0  0
  1 14  1  0  0  0  0
  1  4  1  0  0  0  0
  2  1  1  0  0  0  0
  3  1  1  0  0  0  0
  4  5  1  0  0  0  0
  5  6  2  0  0  0  0
  5 10  1  0  0  0  0
  6  7  1  0  0  0  0
  7 12  1  0  0  0  0
  7  8  2  0  0  0  0
  9  8  1  0  0  0  0
  9 13  1  0  0  0  0
 10  9  2  0  0  0  0
 11  6  1  0  0  0  0
 15 16  1  0  0  0  0
 16 26  1  0  0  0  0
 16 17  1  0  0  0  0
 17 14  1  0  0  0  0
 17 18  2  0  0  0  0
 19 20  1  0  0  0  0
 19 18  1  0  0  0  0
 20 21  1  0  0  0  0
 22 20  2  0  0  0  0
 23 22  1  0  0  0  0
 24 23  1  0  0  0  0
 25 23  2  0  0  0  0
 25 26  1  0  0  0  0
 26 19  2  0  0  0  0
M  END
>  <minimizedAffinity>
-4.38789415

$$$$

 OpenBabel03262521533D

 26 28  0  0  0  0  0  0  0  0999 V2000
   36.3430   25.4040   31.9400 C   0  0  0  0  0  0  0  0  0  0  0  0
   35.9100   26.0520   31.1640 H   0  0  0  0  0  0  0  0  0  0  0  0
   35.5200   25.0840   32.6150 H   0  0  0  0  0  0  0  0  0  0  0  0
   37.0530   23.9130   31.2060 S   0  0  0  0  0  0  0  0  0  0  0  0
   36.4720   22.5040   32.1250 C   0  0  0  0  0  0  0  0  0  0  0  0
   35.4440   21.7800   31.5480 C   0  0  0  0  0  0  0  0  0  0  0  0
   34.9430   20.6680   32.2110 C   0  0  0  0  0  0  0  0  0  0  0  0
   35.4990   20.3300   33.4350 N   0  0  0  0  0  0  0  0  0  0  0  0
   36.4900   21.0630   33.9470 C   0  0  0  0  0  0  0  0  0  0  0  0
   36.9790   22.1300   33.3190 N   0  0  0  0  0  0  0  0  0  0  0  0
   34.9630   21.9890   30.5930 H   0  0  0  0  0  0  0  0  0  0  0  0
   34.1320   20.0770   31.7820 H   0  0  0  0  0  0  0  0  0  0  0  0
   36.9600   20.8430   34.8970 H   0  0  0  0  0  0  0  0  0  0  0  0
   37.5320   26.2920   32.9810 S   0  0  0  0  0  0  0  0  0  0  0  0
   39.6990   24.0660   33.5210 H   0  0  0  0  0  0  0  0  0  0  0  0
   39.1530   24.3250   34.3470 N   0  0  0  0  0  0  0  0  0  0  0  0
   38.1910   25.2600   34.2800 C   0  0  0  0  0  0  0  0  0  0  0  0
   37.6110   25.4230   35.5060 N   0  0  0  0  0  0  0  0  0  0  0  0
   38.2020   24.5840   36.3920 C   0  0  0  0  0  0  0  0  0  0  0  0
   38.0060   24.3500   37.7320 C   0  0  0  0  0  0  0  0  0  0  0  0
   37.2380   24.9120   38.2580 H   0  0  0  0  0  0  0  0  0  0  0  0
   38.7910   23.4150   38.3390 N   0  0  0  0  0  0  0  0  0  0  0  0
   39.7010   22.7900   37.5830 C   0  0  0  0  0  0  0  0  0  0  0  0
   40.3030   22.0470   38.1280 H   0  0  0  0  0  0  0  0  0  0  0  0
   39.9000   23.0140   36.2640 N   0  0  0  0  0  0  0  0  0  0  0  0
   39.1380   23.9400   35.6100 C   0  0  0  0  0  0  0  0  0  0  0  0
  1  3  1  0  0  0  0
  1 14  1  0  0  0  0
  2  1  1  0  0  0  0
  4  1  1  0  0  0  0
  4  5  1  0  0  0  0
  5 10  1  0  0  0  0
  6  5  2  0  0  0  0
  6  7  1  0  0  0  0
  7  8  2  0  0  0  0
  8  9  1  0  0  0  0
  9 13  1  0  0  0  0
 10  9  2  0  0  0  0
 11  6  1  0  0  0  0
 12  7  1  0  0  0  0
 14 17  1  0  0  0  0
 15 16  1  0  0  0  0
 16 26  1  0  0  0  0
 17 16  1  0  0  0  0
 17 18  2  0  0  0  0
 18 19  1  0  0  0  0
 19 20  1  0  0  0  0
 20 21  1  0  0  0  0
 20 22  2  0  0  0  0
 23 24  1  0  0  0  0
 23 22  1  0  0  0  0
 25 23  2  0  0  0  0
 26 25  1  0  0  0  0
 26 19  2  0  0  0  0
M  END
>  <minimizedAffinity>
-4.36948156

$$$$

 OpenBabel03262521533D

 26 28  0  0  0  0  0  0  0  0999 V2000
   38.3750   25.3090   31.5940 C   0  0  0  0  0  0  0  0  0  0  0  0
   39.0790   24.4780   31.7450 H   0  0  0  0  0  0  0  0  0  0  0  0
   38.7290   25.9020   30.7220 H   0  0  0  0  0  0  0  0  0  0  0  0
   36.7260   24.6870   31.1940 S   0  0  0  0  0  0  0  0  0  0  0  0
   36.5130   23.1110   31.9930 C   0  0  0  0  0  0  0  0  0  0  0  0
   35.4730   22.3250   31.5260 C   0  0  0  0  0  0  0  0  0  0  0  0
   35.2500   21.0840   32.1050 C   0  0  0  0  0  0  0  0  0  0  0  0
   36.0850   20.6820   33.1360 N   0  0  0  0  0  0  0  0  0  0  0  0
   37.0730   21.4790   33.5490 C   0  0  0  0  0  0  0  0  0  0  0  0
   37.2970   22.6710   33.0000 N   0  0  0  0  0  0  0  0  0  0  0  0
   34.7820   22.5790   30.7230 H   0  0  0  0  0  0  0  0  0  0  0  0
   34.4380   20.4410   31.7590 H   0  0  0  0  0  0  0  0  0  0  0  0
   37.7520   21.2140   34.3480 H   0  0  0  0  0  0  0  0  0  0  0  0
   38.3570   26.4500   33.0030 S   0  0  0  0  0  0  0  0  0  0  0  0
   36.8310   26.2260   35.7530 H   0  0  0  0  0  0  0  0  0  0  0  0
   37.6460   25.6110   35.6780 N   0  0  0  0  0  0  0  0  0  0  0  0
   38.4000   25.5890   34.5660 C   0  0  0  0  0  0  0  0  0  0  0  0
   39.4210   24.6920   34.7120 N   0  0  0  0  0  0  0  0  0  0  0  0
   39.3350   24.1160   35.9360 C   0  0  0  0  0  0  0  0  0  0  0  0
   40.0930   23.1670   36.5780 C   0  0  0  0  0  0  0  0  0  0  0  0
   40.9540   22.7460   36.0650 H   0  0  0  0  0  0  0  0  0  0  0  0
   39.7240   22.7980   37.8370 N   0  0  0  0  0  0  0  0  0  0  0  0
   38.6450   23.3900   38.3610 C   0  0  0  0  0  0  0  0  0  0  0  0
   38.3970   23.0530   39.3790 H   0  0  0  0  0  0  0  0  0  0  0  0
   37.8930   24.3250   37.7370 N   0  0  0  0  0  0  0  0  0  0  0  0
   38.2220   24.7290   36.4740 C   0  0  0  0  0  0  0  0  0  0  0  0
  1  2  1  0  0  0  0
  1 14  1  0  0  0  0
  3  1  1  0  0  0  0
  4  1  1  0  0  0  0
  4  5  1  0  0  0  0
  5 10  1  0  0  0  0
  6  5  2  0  0  0  0
  6  7  1  0  0  0  0
  7  8  2  0  0  0  0
  8  9  1  0  0  0  0
  9 13  1  0  0  0  0
 10  9  2  0  0  0  0
 11  6  1  0  0  0  0
 12  7  1  0  0  0  0
 14 17  1  0  0  0  0
 16 15  1  0  0  0  0
 16 26  1  0  0  0  0
 17 18  2  0  0  0  0
 17 16  1  0  0  0  0
 18 19  1  0  0  0  0
 19 26  2  0  0  0  0
 19 20  1  0  0  0  0
 20 22  2  0  0  0  0
 21 20  1  0  0  0  0
 22 23  1  0  0  0  0
 23 24  1  0  0  0  0
 25 23  2  0  0  0  0
 26 25  1  0  0  0  0
M  END
>  <minimizedAffinity>
-4.28851128

$$$$

 OpenBabel03262521533D

 26 28  0  0  0  0  0  0  0  0999 V2000
   37.8570   23.0920   33.1490 C   0  0  0  0  0  0  0  0  0  0  0  0
   38.7510   22.5360   32.8330 H   0  0  0  0  0  0  0  0  0  0  0  0
   37.2500   22.4230   33.7980 H   0  0  0  0  0  0  0  0  0  0  0  0
   38.3150   24.5350   34.1350 S   0  0  0  0  0  0  0  0  0  0  0  0
   38.6270   23.9990   35.8030 C   0  0  0  0  0  0  0  0  0  0  0  0
   37.7570   24.4730   36.7700 C   0  0  0  0  0  0  0  0  0  0  0  0
   37.9430   24.0950   38.0920 C   0  0  0  0  0  0  0  0  0  0  0  0
   39.0020   23.2520   38.3900 N   0  0  0  0  0  0  0  0  0  0  0  0
   39.8120   22.8240   37.4190 C   0  0  0  0  0  0  0  0  0  0  0  0
   39.6430   23.1800   36.1480 N   0  0  0  0  0  0  0  0  0  0  0  0
   36.9080   25.1360   36.6050 H   0  0  0  0  0  0  0  0  0  0  0  0
   37.2740   24.4530   38.8770 H   0  0  0  0  0  0  0  0  0  0  0  0
   40.6520   22.1660   37.5960 H   0  0  0  0  0  0  0  0  0  0  0  0
   36.7960   23.5270   31.7450 S   0  0  0  0  0  0  0  0  0  0  0  0
   38.4740   25.5180   29.9670 H   0  0  0  0  0  0  0  0  0  0  0  0
   37.7300   25.9680   30.5070 N   0  0  0  0  0  0  0  0  0  0  0  0
   36.9260   25.2540   31.3120 C   0  0  0  0  0  0  0  0  0  0  0  0
   36.0200   26.0780   31.9190 N   0  0  0  0  0  0  0  0  0  0  0  0
   36.2320   27.3510   31.5050 C   0  0  0  0  0  0  0  0  0  0  0  0
   35.6150   28.5440   31.7990 C   0  0  0  0  0  0  0  0  0  0  0  0
   34.7820   28.5490   32.4970 H   0  0  0  0  0  0  0  0  0  0  0  0
   36.0850   29.6720   31.1940 N   0  0  0  0  0  0  0  0  0  0  0  0
   37.1180   29.5360   30.3540 C   0  0  0  0  0  0  0  0  0  0  0  0
   37.4520   30.4800   29.8980 H   0  0  0  0  0  0  0  0  0  0  0  0
   37.7300   28.3670   30.0600 N   0  0  0  0  0  0  0  0  0  0  0  0
   37.2970   27.2080   30.6400 C   0  0  0  0  0  0  0  0  0  0  0  0
  1  3  1  0  0  0  0
  1  4  1  0  0  0  0
  2  1  1  0  0  0  0
  4  5  1  0  0  0  0
  5 10  2  0  0  0  0
  5  6  1  0  0  0  0
  6  7  2  0  0  0  0
  7  8  1  0  0  0  0
  7 12  1  0  0  0  0
  9 13  1  0  0  0  0
  9  8  2  0  0  0  0
 10  9  1  0  0  0  0
 11  6  1  0  0  0  0
 14  1  1  0  0  0  0
 15 16  1  0  0  0  0
 16 26  1  0  0  0  0
 16 17  1  0  0  0  0
 17 14  1  0  0  0  0
 17 18  2  0  0  0  0
 19 20  1  0  0  0  0
 19 18  1  0  0  0  0
 20 21  1  0  0  0  0
 22 20  2  0  0  0  0
 23 22  1  0  0  0  0
 24 23  1  0  0  0  0
 25 23  2  0  0  0  0
 25 26  1  0  0  0  0
 26 19  2  0  0  0  0
M  END
>  <minimizedAffinity>
-4.18946743

$$$$

 OpenBabel03262521533D

 26 28  0  0  0  0  0  0  0  0999 V2000
   37.7750   25.2020   33.5790 C   0  0  0  0  0  0  0  0  0  0  0  0
   37.7410   24.8500   32.5380 H   0  0  0  0  0  0  0  0  0  0  0  0
   37.0580   24.5910   34.1700 H   0  0  0  0  0  0  0  0  0  0  0  0
   39.4180   24.9450   34.2870 S   0  0  0  0  0  0  0  0  0  0  0  0
   39.2260   24.2420   35.9110 C   0  0  0  0  0  0  0  0  0  0  0  0
   38.1970   24.7550   36.6810 C   0  0  0  0  0  0  0  0  0  0  0  0
   37.9910   24.2520   37.9580 C   0  0  0  0  0  0  0  0  0  0  0  0
   38.8330   23.2490   38.4110 N   0  0  0  0  0  0  0  0  0  0  0  0
   39.8120   22.7900   37.6270 C   0  0  0  0  0  0  0  0  0  0  0  0
   40.0180   23.2650   36.4010 N   0  0  0  0  0  0  0  0  0  0  0  0
   37.5000   25.5400   36.3880 H   0  0  0  0  0  0  0  0  0  0  0  0
   37.1880   24.6370   38.5900 H   0  0  0  0  0  0  0  0  0  0  0  0
   40.4970   22.0100   37.9310 H   0  0  0  0  0  0  0  0  0  0  0  0
   37.2190   26.9200   33.7340 S   0  0  0  0  0  0  0  0  0  0  0  0
   36.0960   29.4580   32.2380 H   0  0  0  0  0  0  0  0  0  0  0  0
   36.7730   28.9180   31.6910 N   0  0  0  0  0  0  0  0  0  0  0  0
   37.3430   27.8090   32.1910 C   0  0  0  0  0  0  0  0  0  0  0  0
   38.2030   27.2730   31.2750 N   0  0  0  0  0  0  0  0  0  0  0  0
   38.1990   28.0410   30.1580 C   0  0  0  0  0  0  0  0  0  0  0  0
   38.8690   27.9550   28.9620 C   0  0  0  0  0  0  0  0  0  0  0  0
   39.5600   27.1310   28.8030 H   0  0  0  0  0  0  0  0  0  0  0  0
   38.6310   28.9170   28.0250 N   0  0  0  0  0  0  0  0  0  0  0  0
   37.7570   29.8810   28.3400 C   0  0  0  0  0  0  0  0  0  0  0  0
   37.6070   30.6270   27.5450 H   0  0  0  0  0  0  0  0  0  0  0  0
   37.0930   29.9720   29.5140 N   0  0  0  0  0  0  0  0  0  0  0  0
   37.2970   29.0330   30.4850 C   0  0  0  0  0  0  0  0  0  0  0  0
  1 14  1  0  0  0  0
  1  3  1  0  0  0  0
  1  4  1  0  0  0  0
  2  1  1  0  0  0  0
  4  5  1  0  0  0  0
  5 10  2  0  0  0  0
  5  6  1  0  0  0  0
  6  7  2  0  0  0  0
  7  8  1  0  0  0  0
  7 12  1  0  0  0  0
  9 13  1  0  0  0  0
  9  8  2  0  0  0  0
 10  9  1  0  0  0  0
 11  6  1  0  0  0  0
 16 17  1  0  0  0  0
 16 15  1  0  0  0  0
 17 14  1  0  0  0  0
 18 17  2  0  0  0  0
 19 26  1  0  0  0  0
 19 18  1  0  0  0  0
 20 19  2  0  0  0  0
 21 20  1  0  0  0  0
 22 23  2  0  0  0  0
 22 20  1  0  0  0  0
 23 25  1  0  0  0  0
 24 23  1  0  0  0  0
 25 26  2  0  0  0  0
 26 16  1  0  0  0  0
M  END
>  <minimizedAffinity>
-4.07218742

$$$$

 OpenBabel03262521533D

 26 28  0  0  0  0  0  0  0  0999 V2000
   36.7340   27.9530   32.3220 C   0  0  0  0  0  0  0  0  0  0  0  0
   36.7840   27.5960   33.3610 H   0  0  0  0  0  0  0  0  0  0  0  0
   37.7740   28.0360   31.9390 H   0  0  0  0  0  0  0  0  0  0  0  0
   35.8630   26.7640   31.2770 S   0  0  0  0  0  0  0  0  0  0  0  0
   36.3070   25.1230   31.8050 C   0  0  0  0  0  0  0  0  0  0  0  0
   35.5250   24.0910   31.3150 C   0  0  0  0  0  0  0  0  0  0  0  0
   35.8160   22.7860   31.6870 C   0  0  0  0  0  0  0  0  0  0  0  0
   36.8850   22.5710   32.5420 N   0  0  0  0  0  0  0  0  0  0  0  0
   37.6070   23.6030   32.9860 C   0  0  0  0  0  0  0  0  0  0  0  0
   37.3380   24.8580   32.6350 N   0  0  0  0  0  0  0  0  0  0  0  0
   34.6740   24.1900   30.6420 H   0  0  0  0  0  0  0  0  0  0  0  0
   35.2180   21.9510   31.3170 H   0  0  0  0  0  0  0  0  0  0  0  0
   38.4510   23.4910   33.6540 H   0  0  0  0  0  0  0  0  0  0  0  0
   36.0230   29.6170   32.2100 S   0  0  0  0  0  0  0  0  0  0  0  0
   33.2300   28.9230   33.4970 H   0  0  0  0  0  0  0  0  0  0  0  0
   33.7760   29.6050   34.0300 N   0  0  0  0  0  0  0  0  0  0  0  0
   34.9890   30.0030   33.6130 C   0  0  0  0  0  0  0  0  0  0  0  0
   35.5100   30.9120   34.4910 N   0  0  0  0  0  0  0  0  0  0  0  0
   34.6260   31.1120   35.4990 C   0  0  0  0  0  0  0  0  0  0  0  0
   34.6520   31.9060   36.6210 C   0  0  0  0  0  0  0  0  0  0  0  0
   35.5230   32.5310   36.8040 H   0  0  0  0  0  0  0  0  0  0  0  0
   33.5730   31.8710   37.4530 N   0  0  0  0  0  0  0  0  0  0  0  0
   32.5620   31.0620   37.1180 C   0  0  0  0  0  0  0  0  0  0  0  0
   31.7210   31.0770   37.8270 H   0  0  0  0  0  0  0  0  0  0  0  0
   32.5290   30.2780   36.0160 N   0  0  0  0  0  0  0  0  0  0  0  0
   33.5850   30.2770   35.1500 C   0  0  0  0  0  0  0  0  0  0  0  0
  1  2  1  0  0  0  0
  3  1  1  0  0  0  0
  4  5  1  0  0  0  0
  4  1  1  0  0  0  0
  5 10  1  0  0  0  0
  6  7  1  0  0  0  0
  6  5  2  0  0  0  0
  7  8  2  0  0  0  0
  8  9  1  0  0  0  0
  9 13  1  0  0  0  0
 10  9  2  0  0  0  0
 11  6  1  0  0  0  0
 12  7  1  0  0  0  0
 14  1  1  0  0  0  0
 14 17  1  0  0  0  0
 15 16  1  0  0  0  0
 16 26  1  0  0  0  0
 17 16  1  0  0  0  0
 17 18  2  0  0  0  0
 18 19  1  0  0  0  0
 19 20  1  0  0  0  0
 20 21  1  0  0  0  0
 20 22  2  0  0  0  0
 23 22  1  0  0  0  0
 23 24  1  0  0  0  0
 25 23  2  0  0  0  0
 26 19  2  0  0  0  0
 26 25  1  0  0  0  0
M  END
>  <minimizedAffinity>
-4.07191133

$$$$

 OpenBabel03262521533D

 26 28  0  0  0  0  0  0  0  0999 V2000
   41.0020   22.7440   33.9070 C   0  0  0  0  0  0  0  0  0  0  0  0
   40.7920   23.8160   33.7850 H   0  0  0  0  0  0  0  0  0  0  0  0
   41.9520   22.5190   33.3750 H   0  0  0  0  0  0  0  0  0  0  0  0
   41.2450   22.3330   35.6500 S   0  0  0  0  0  0  0  0  0  0  0  0
   39.9450   23.0990   36.5940 C   0  0  0  0  0  0  0  0  0  0  0  0
   39.1710   24.0290   35.9250 C   0  0  0  0  0  0  0  0  0  0  0  0
   38.1390   24.6650   36.6020 C   0  0  0  0  0  0  0  0  0  0  0  0
   37.9290   24.3370   37.9320 N   0  0  0  0  0  0  0  0  0  0  0  0
   38.7060   23.4320   38.5310 C   0  0  0  0  0  0  0  0  0  0  0  0
   39.6970   22.8160   37.8910 N   0  0  0  0  0  0  0  0  0  0  0  0
   39.2810   24.3330   34.8840 H   0  0  0  0  0  0  0  0  0  0  0  0
   37.5110   25.4040   36.1010 H   0  0  0  0  0  0  0  0  0  0  0  0
   38.5860   23.1390   39.5650 H   0  0  0  0  0  0  0  0  0  0  0  0
   39.7320   21.7110   33.1280 S   0  0  0  0  0  0  0  0  0  0  0  0
   36.6920   21.4710   32.3250 H   0  0  0  0  0  0  0  0  0  0  0  0
   37.0800   22.4120   32.2130 N   0  0  0  0  0  0  0  0  0  0  0  0
   38.3620   22.6770   32.5150 C   0  0  0  0  0  0  0  0  0  0  0  0
   38.6340   23.9950   32.2810 N   0  0  0  0  0  0  0  0  0  0  0  0
   37.5150   24.6050   31.8200 C   0  0  0  0  0  0  0  0  0  0  0  0
   37.2440   25.8980   31.4400 C   0  0  0  0  0  0  0  0  0  0  0  0
   38.0380   26.6390   31.4900 H   0  0  0  0  0  0  0  0  0  0  0  0
   35.9810   26.1870   31.0160 N   0  0  0  0  0  0  0  0  0  0  0  0
   35.0920   25.1880   30.9990 C   0  0  0  0  0  0  0  0  0  0  0  0
   34.0920   25.4830   30.6470 H   0  0  0  0  0  0  0  0  0  0  0  0
   35.3500   23.9140   31.3710 N   0  0  0  0  0  0  0  0  0  0  0  0
   36.6010   23.5720   31.8040 C   0  0  0  0  0  0  0  0  0  0  0  0
  1  4  1  0  0  0  0
  2  1  1  0  0  0  0
  3  1  1  0  0  0  0
  4  5  1  0  0  0  0
  5 10  1  0  0  0  0
  6  5  2  0  0  0  0
  6  7  1  0  0  0  0
  7  8  2  0  0  0  0
  8  9  1  0  0  0  0
  9 13  1  0  0  0  0
 10  9  2  0  0  0  0
 11  6  1  0  0  0  0
 12  7  1  0  0  0  0
 14  1  1  0  0  0  0
 16 15  1  0  0  0  0
 16 17  1  0  0  0  0
 17 14  1  0  0  0  0
 18 17  2  0  0  0  0
 19 18  1  0  0  0  0
 20 21  1  0  0  0  0
 20 19  2  0  0  0  0
 22 20  1  0  0  0  0
 23 22  2  0  0  0  0
 23 25  1  0  0  0  0
 24 23  1  0  0  0  0
 25 26  2  0  0  0  0
 26 19  1  0  0  0  0
 26 16  1  0  0  0  0
M  END
>  <minimizedAffinity>
-4.05022764

$$$$

 OpenBabel03262521533D

 26 28  0  0  0  0  0  0  0  0999 V2000
   37.3270   26.5970   32.6560 C   0  0  0  0  0  0  0  0  0  0  0  0
   38.0730   27.4050   32.6860 H   0  0  0  0  0  0  0  0  0  0  0  0
   36.8090   26.5740   33.6400 H   0  0  0  0  0  0  0  0  0  0  0  0
   36.0780   26.9270   31.3930 S   0  0  0  0  0  0  0  0  0  0  0  0
   36.4920   28.4550   30.5790 C   0  0  0  0  0  0  0  0  0  0  0  0
   36.0700   29.6150   31.2050 C   0  0  0  0  0  0  0  0  0  0  0  0
   36.3590   30.8410   30.6240 C   0  0  0  0  0  0  0  0  0  0  0  0
   37.0640   30.8520   29.4310 N   0  0  0  0  0  0  0  0  0  0  0  0
   37.4470   29.7030   28.8680 C   0  0  0  0  0  0  0  0  0  0  0  0
   37.1760   28.5210   29.4170 N   0  0  0  0  0  0  0  0  0  0  0  0
   35.5140   29.6780   32.1400 H   0  0  0  0  0  0  0  0  0  0  0  0
   36.0390   31.7740   31.0930 H   0  0  0  0  0  0  0  0  0  0  0  0
   37.9990   29.6540   27.9390 H   0  0  0  0  0  0  0  0  0  0  0  0
   38.0970   24.9690   32.4550 S   0  0  0  0  0  0  0  0  0  0  0  0
   40.3770   23.1730   33.6870 H   0  0  0  0  0  0  0  0  0  0  0  0
   39.7020   23.5190   34.3750 N   0  0  0  0  0  0  0  0  0  0  0  0
   38.6720   24.3000   34.0070 C   0  0  0  0  0  0  0  0  0  0  0  0
   37.9210   24.6280   35.0990 N   0  0  0  0  0  0  0  0  0  0  0  0
   38.4660   24.0560   36.2010 C   0  0  0  0  0  0  0  0  0  0  0  0
   38.1150   24.0680   37.5300 C   0  0  0  0  0  0  0  0  0  0  0  0
   37.2330   24.6240   37.8380 H   0  0  0  0  0  0  0  0  0  0  0  0
   38.8980   23.3720   38.4030 N   0  0  0  0  0  0  0  0  0  0  0  0
   39.9570   22.7260   37.9010 C   0  0  0  0  0  0  0  0  0  0  0  0
   40.5500   22.1840   38.6530 H   0  0  0  0  0  0  0  0  0  0  0  0
   40.3090   22.7100   36.5950 N   0  0  0  0  0  0  0  0  0  0  0  0
   39.5560   23.3910   35.6800 C   0  0  0  0  0  0  0  0  0  0  0  0
  1  2  1  0  0  0  0
  1  3  1  0  0  0  0
  4  1  1  0  0  0  0
  5  6  1  0  0  0  0
  5  4  1  0  0  0  0
  6 11  1  0  0  0  0
  7 12  1  0  0  0  0
  7  6  2  0  0  0  0
  8  7  1  0  0  0  0
  9 10  1  0  0  0  0
  9  8  2  0  0  0  0
 10  5  2  0  0  0  0
 13  9  1  0  0  0  0
 14  1  1  0  0  0  0
 14 17  1  0  0  0  0
 15 16  1  0  0  0  0
 16 26  1  0  0  0  0
 17 16  1  0  0  0  0
 17 18  2  0  0  0  0
 18 19  1  0  0  0  0
 19 20  1  0  0  0  0
 20 21  1  0  0  0  0
 20 22  2  0  0  0  0
 23 22  1  0  0  0  0
 23 24  1  0  0  0  0
 25 23  2  0  0  0  0
 26 19  2  0  0  0  0
 26 25  1  0  0  0  0
M  END
>  <minimizedAffinity>
-4.04419994

$$$$
