
     RDKit          3D

 49 53  0  0  0  0  0  0  0  0999 V2000
   35.3339   30.3876   49.9738 C   0  0  2  0  0  0  0  0  0  0  0  0
   36.2530   31.3773   49.4220 C   0  0  0  0  0  0  0  0  0  0  0  0
   37.7383   30.9030   49.4506 C   0  0  2  0  0  0  0  0  0  0  0  0
   38.2164   30.5781   50.7726 C   0  0  0  0  0  0  0  0  0  0  0  0
   37.1751   29.8757   51.6471 C   0  0  0  0  0  0  0  0  0  0  0  0
   36.0545   29.3291   50.8149 C   0  0  0  0  0  0  0  0  0  0  0  0
   38.5683   30.6176   46.6311 Cl  0  0  0  0  0  0  0  0  0  0  0  0
   38.9550   32.0267   47.5846 C   0  0  0  0  0  0  0  0  0  0  0  0
   38.4745   32.0701   48.8687 C   0  0  0  0  0  0  0  0  0  0  0  0
   38.7899   33.2350   49.5400 C   0  0  0  0  0  0  0  0  0  0  0  0
   39.5219   34.2633   48.9786 C   0  0  0  0  0  0  0  0  0  0  0  0
   39.9776   34.1421   47.6642 C   0  0  0  0  0  0  0  0  0  0  0  0
   39.6803   32.9819   46.9488 C   0  0  0  0  0  0  0  0  0  0  0  0
   40.1456   32.8579   45.6147 N   0  0  0  0  0  0  0  0  0  0  0  0
   34.5011   29.6670   49.0163 C   0  0  0  0  0  0  0  0  0  0  0  0
   34.5030   30.2163   47.7426 C   0  0  0  0  0  0  0  0  0  0  0  0
   33.7567   29.5935   46.7438 C   0  0  0  0  0  0  0  0  0  0  0  0
   33.0387   28.4398   47.0782 N   0  0  0  0  0  0  0  0  0  0  0  0
   33.0682   27.9485   48.3226 C   0  0  0  0  0  0  0  0  0  0  0  0
   33.7951   28.5744   49.2487 N   0  0  0  0  0  0  0  0  0  0  0  0
   34.6260   30.8619   50.7181 H   0  0  0  0  0  0  0  0  0  0  0  0
   36.1347   31.8241   48.4636 H   0  0  0  0  0  0  0  0  0  0  0  0
   36.3052   32.2541   50.1561 H   0  0  0  0  0  0  0  0  0  0  0  0
   37.8221   30.0664   48.7332 H   0  0  0  0  0  0  0  0  0  0  0  0
   39.1460   29.9774   50.6914 H   0  0  0  0  0  0  0  0  0  0  0  0
   38.5091   31.4788   51.3467 H   0  0  0  0  0  0  0  0  0  0  0  0
   37.6816   28.9945   52.0894 H   0  0  0  0  0  0  0  0  0  0  0  0
   36.8211   30.4939   52.4780 H   0  0  0  0  0  0  0  0  0  0  0  0
   36.4120   28.5247   50.1529 H   0  0  0  0  0  0  0  0  0  0  0  0
   35.3078   28.8781   51.4883 H   0  0  0  0  0  0  0  0  0  0  0  0
   38.4376   33.3395   50.5620 H   0  0  0  0  0  0  0  0  0  0  0  0
   39.7347   35.1463   49.5556 H   0  0  0  0  0  0  0  0  0  0  0  0
   40.5543   34.9223   47.1855 H   0  0  0  0  0  0  0  0  0  0  0  0
   40.6597   31.9384   45.5081 H   0  0  0  0  0  0  0  0  0  0  0  0
   40.0802   33.4571   44.7856 H   0  0  0  0  0  0  0  0  0  0  0  0
   34.9365   31.0563   47.2192 H   0  0  0  0  0  0  0  0  0  0  0  0
   33.5947   29.8061   45.7143 H   0  0  0  0  0  0  0  0  0  0  0  0
   32.3429   26.7767   48.6762 N   0  0  0  0  0  0  0  0  0  0  0  0
   31.4864   26.5196   49.6920 C   0  0  0  0  0  0  0  0  0  0  0  0
   31.2241   27.2628   50.4396 H   0  0  0  0  0  0  0  0  0  0  0  0
   31.0674   25.2344   49.5734 N   0  0  0  0  0  0  0  0  0  0  0  0
   31.6515   24.6845   48.4954 C   0  0  0  0  0  0  0  0  0  0  0  0
   31.6241   23.4383   47.8704 C   0  0  0  0  0  0  0  0  0  0  0  0
   31.0070   22.6599   48.2874 H   0  0  0  0  0  0  0  0  0  0  0  0
   32.3434   23.1751   46.7630 N   0  0  0  0  0  0  0  0  0  0  0  0
   33.1254   24.1331   46.2196 C   0  0  0  0  0  0  0  0  0  0  0  0
   33.7227   23.9591   45.3237 H   0  0  0  0  0  0  0  0  0  0  0  0
   33.1531   25.3269   46.8164 N   0  0  0  0  0  0  0  0  0  0  0  0
   32.4487   25.6405   47.9307 C   0  0  0  0  0  0  0  0  0  0  0  0
  1  6  1  0
  2  3  1  0
  2  1  1  0
  3  4  1  0
  4  5  1  0
  6  5  1  0
  7  8  1  0
  8  9  2  0
  9  3  1  0
  9 10  1  0
 11 10  2  0
 12 11  1  0
 13  8  1  0
 13 12  2  0
 14 13  1  0
 15 20  1  0
 15  1  1  0
 16 15  2  0
 17 18  2  0
 17 16  1  0
 18 19  1  0
 19 20  2  0
  1 21  1  1
  2 22  1  0
  2 23  1  0
  3 24  1  6
  4 25  1  0
  4 26  1  0
  5 27  1  0
  5 28  1  0
  6 29  1  0
  6 30  1  0
 10 31  1  0
 11 32  1  0
 12 33  1  0
 14 34  1  0
 14 35  1  0
 16 36  1  0
 17 37  1  0
 38 39  1  0
 39 40  1  0
 39 41  2  0
 41 42  1  0
 42 43  2  0
 43 44  1  0
 43 45  1  0
 45 46  2  0
 46 47  1  0
 46 48  1  0
 48 49  2  0
 49 38  1  0
 49 42  1  0
 19 38  1  0
M  ISO  8  21  13  22  13  23  13  24  13  25  13  26  13  27  13  28  13
M  ISO  8  29  13  30  13  31  14  32  14  33  14  36  14  37  14  40  15
M  ISO  2  44  16  47  16
M  END
>  <DihAtoms>  (1) 
17,18,37,38

>  <DihDeg>  (1) 
-144.6570602851359

$$$$
