
 OpenBabel03262522193D

 27 29  0  0  0  0  0  0  0  0999 V2000
   36.6250   27.5480   34.7550 O   0  0  0  0  0  0  0  0  0  0  0  0
   37.9340   26.8570   35.1300 P   0  0  1  0  0  0  0  0  0  0  0  0
   38.6650   27.7730   36.3660 O   0  0  0  0  0  0  0  0  0  0  0  0
   39.6240   27.5250   36.4650 H   0  0  0  0  0  0  0  0  0  0  0  0
   37.5480   25.3560   35.8160 O   0  0  0  0  0  0  0  0  0  0  0  0
   38.1340   24.0760   37.7480 C   0  0  0  0  0  0  0  0  0  0  0  0
   38.3980   24.4820   36.4330 C   0  0  0  0  0  0  0  0  0  0  0  0
   39.5380   23.9490   35.8300 C   0  0  0  0  0  0  0  0  0  0  0  0
   40.3280   23.0820   36.5230 N   0  0  0  0  0  0  0  0  0  0  0  0
   40.0210   22.7300   37.7910 C   0  0  0  0  0  0  0  0  0  0  0  0
   38.9310   23.2180   38.4120 N   0  0  0  0  0  0  0  0  0  0  0  0
   37.2590   24.4600   38.2680 H   0  0  0  0  0  0  0  0  0  0  0  0
   39.7010   24.2870   34.8200 H   0  0  0  0  0  0  0  0  0  0  0  0
   40.6530   22.0420   38.3330 H   0  0  0  0  0  0  0  0  0  0  0  0
   38.8940   26.7650   33.7810 O   0  0  0  0  0  0  0  0  0  0  0  0
   36.7720   28.2230   32.5640 H   0  0  0  0  0  0  0  0  0  0  0  0
   37.5970   27.9840   31.9700 N   0  0  0  0  0  0  0  0  0  0  0  0
   38.6170   27.2890   32.5310 C   0  0  0  0  0  0  0  0  0  0  0  0
   39.5790   27.0870   31.5910 N   0  0  0  0  0  0  0  0  0  0  0  0
   39.1600   27.6530   30.4420 C   0  0  0  0  0  0  0  0  0  0  0  0
   39.6150   27.8180   29.1500 C   0  0  0  0  0  0  0  0  0  0  0  0
   40.6010   27.3830   28.9230 H   0  0  0  0  0  0  0  0  0  0  0  0
   38.9150   28.4660   28.2010 N   0  0  0  0  0  0  0  0  0  0  0  0
   37.7060   28.9950   28.4900 C   0  0  0  0  0  0  0  0  0  0  0  0
   37.1460   29.5150   27.7290 H   0  0  0  0  0  0  0  0  0  0  0  0
   37.1990   28.8690   29.7460 N   0  0  0  0  0  0  0  0  0  0  0  0
   37.9210   28.2130   30.6820 C   0  0  0  0  0  0  0  0  0  0  0  0
  2  1  2  6  0  0  0
  2  5  1  0  0  0  0
  2  3  1  0  0  0  0
  3  4  1  0  0  0  0
  5  7  1  0  0  0  0
  6 12  1  0  0  0  0
  6 11  1  0  0  0  0
  7  6  2  0  0  0  0
  8  7  1  0  0  0  0
  8  9  2  0  0  0  0
  9 10  1  0  0  0  0
 10 14  1  0  0  0  0
 10 11  2  0  0  0  0
 13  8  1  0  0  0  0
 15  2  1  0  0  0  0
 17 18  1  0  0  0  0
 17 16  1  0  0  0  0
 18 15  1  0  0  0  0
 19 18  2  0  0  0  0
 20 27  1  0  0  0  0
 20 19  1  0  0  0  0
 21 20  2  0  0  0  0
 22 21  1  0  0  0  0
 23 24  2  0  0  0  0
 23 21  1  0  0  0  0
 24 26  1  0  0  0  0
 25 24  1  0  0  0  0
 26 27  2  0  0  0  0
 27 17  1  0  0  0  0
M  END
>  <minimizedAffinity>
-5.00646782

$$$$

 OpenBabel03262522193D

 27 29  0  0  0  0  0  0  0  0999 V2000
   34.5000   25.6610   31.1110 O   0  0  0  0  0  0  0  0  0  0  0  0
   35.9760   26.0470   31.1990 P   0  0  1  0  0  0  0  0  0  0  0  0
   36.3000   27.1340   29.9270 O   0  0  0  0  0  0  0  0  0  0  0  0
   37.2810   27.2130   29.7770 H   0  0  0  0  0  0  0  0  0  0  0  0
   36.1970   26.9190   32.6350 O   0  0  0  0  0  0  0  0  0  0  0  0
   37.1590   26.8050   34.8210 C   0  0  0  0  0  0  0  0  0  0  0  0
   37.3060   26.9370   33.4330 C   0  0  0  0  0  0  0  0  0  0  0  0
   38.6080   27.0810   32.9520 C   0  0  0  0  0  0  0  0  0  0  0  0
   39.6550   27.0890   33.8230 N   0  0  0  0  0  0  0  0  0  0  0  0
   39.4500   26.9580   35.1520 C   0  0  0  0  0  0  0  0  0  0  0  0
   38.2110   26.8150   35.6610 N   0  0  0  0  0  0  0  0  0  0  0  0
   36.1680   26.6900   35.2520 H   0  0  0  0  0  0  0  0  0  0  0  0
   38.6730   27.1790   31.8810 H   0  0  0  0  0  0  0  0  0  0  0  0
   40.2850   26.9640   35.8350 H   0  0  0  0  0  0  0  0  0  0  0  0
   36.8950   24.6720   31.0850 O   0  0  0  0  0  0  0  0  0  0  0  0
   34.5860   23.3950   32.1570 H   0  0  0  0  0  0  0  0  0  0  0  0
   35.3650   22.7850   31.8230 N   0  0  0  0  0  0  0  0  0  0  0  0
   36.4730   23.3740   31.3100 C   0  0  0  0  0  0  0  0  0  0  0  0
   37.3530   22.4060   30.9400 N   0  0  0  0  0  0  0  0  0  0  0  0
   36.7970   21.2110   31.2220 C   0  0  0  0  0  0  0  0  0  0  0  0
   37.1190   19.8740   31.1120 C   0  0  0  0  0  0  0  0  0  0  0  0
   38.1040   19.6450   30.6760 H   0  0  0  0  0  0  0  0  0  0  0  0
   36.2970   18.8840   31.5090 N   0  0  0  0  0  0  0  0  0  0  0  0
   35.0910   19.1760   32.0430 C   0  0  0  0  0  0  0  0  0  0  0  0
   34.4320   18.3820   32.3600 H   0  0  0  0  0  0  0  0  0  0  0  0
   34.7110   20.4760   32.1790 N   0  0  0  0  0  0  0  0  0  0  0  0
   35.5540   21.4510   31.7730 C   0  0  0  0  0  0  0  0  0  0  0  0
  2  1  2  6  0  0  0
  2  5  1  0  0  0  0
  3  2  1  0  0  0  0
  4  3  1  0  0  0  0
  5  7  1  0  0  0  0
  6 12  1  0  0  0  0
  6 11  1  0  0  0  0
  7  6  2  0  0  0  0
  8  7  1  0  0  0  0
  8  9  2  0  0  0  0
  9 10  1  0  0  0  0
 10 11  2  0  0  0  0
 10 14  1  0  0  0  0
 13  8  1  0  0  0  0
 15  2  1  0  0  0  0
 15 18  1  0  0  0  0
 17 16  1  0  0  0  0
 18 17  1  0  0  0  0
 19 20  1  0  0  0  0
 19 18  2  0  0  0  0
 20 27  1  0  0  0  0
 21 20  2  0  0  0  0
 21 23  1  0  0  0  0
 22 21  1  0  0  0  0
 23 24  2  0  0  0  0
 24 26  1  0  0  0  0
 24 25  1  0  0  0  0
 27 17  1  0  0  0  0
 27 26  2  0  0  0  0
M  END
>  <minimizedAffinity>
-4.8019433

$$$$

 OpenBabel03262522193D

 27 29  0  0  0  0  0  0  0  0999 V2000
   38.0000   22.2310   36.0530 O   0  0  0  0  0  0  0  0  0  0  0  0
   39.0960   23.0890   36.6830 P   0  0  1  0  0  0  0  0  0  0  0  0
   39.2710   22.5920   38.3040 O   0  0  0  0  0  0  0  0  0  0  0  0
   39.7710   23.2750   38.8270 H   0  0  0  0  0  0  0  0  0  0  0  0
   40.5570   22.7120   35.9120 O   0  0  0  0  0  0  0  0  0  0  0  0
   42.8010   23.1180   36.6280 C   0  0  0  0  0  0  0  0  0  0  0  0
   41.6880   23.4750   35.8550 C   0  0  0  0  0  0  0  0  0  0  0  0
   41.8170   24.6150   35.0600 C   0  0  0  0  0  0  0  0  0  0  0  0
   42.9850   25.3170   35.0670 N   0  0  0  0  0  0  0  0  0  0  0  0
   44.0240   24.9220   35.8350 C   0  0  0  0  0  0  0  0  0  0  0  0
   43.9450   23.8280   36.6170 N   0  0  0  0  0  0  0  0  0  0  0  0
   42.7570   22.2390   37.2660 H   0  0  0  0  0  0  0  0  0  0  0  0
   40.9390   24.8520   34.4830 H   0  0  0  0  0  0  0  0  0  0  0  0
   44.9460   25.4830   35.8350 H   0  0  0  0  0  0  0  0  0  0  0  0
   38.6560   24.6840   36.5710 O   0  0  0  0  0  0  0  0  0  0  0  0
   38.0990   24.0240   33.8570 H   0  0  0  0  0  0  0  0  0  0  0  0
   37.8250   24.9750   34.1900 N   0  0  0  0  0  0  0  0  0  0  0  0
   38.0820   25.3080   35.4780 C   0  0  0  0  0  0  0  0  0  0  0  0
   37.6480   26.5780   35.6980 N   0  0  0  0  0  0  0  0  0  0  0  0
   37.1210   27.0410   34.5480 C   0  0  0  0  0  0  0  0  0  0  0  0
   36.5250   28.1930   34.0780 C   0  0  0  0  0  0  0  0  0  0  0  0
   36.4200   29.0160   34.8020 H   0  0  0  0  0  0  0  0  0  0  0  0
   36.0900   28.3330   32.8120 N   0  0  0  0  0  0  0  0  0  0  0  0
   36.2250   27.3180   31.9310 C   0  0  0  0  0  0  0  0  0  0  0  0
   35.8750   27.4300   30.9160 H   0  0  0  0  0  0  0  0  0  0  0  0
   36.8030   26.1520   32.3300 N   0  0  0  0  0  0  0  0  0  0  0  0
   37.2320   26.0370   33.6070 C   0  0  0  0  0  0  0  0  0  0  0  0
  2  1  2  6  0  0  0
  2  3  1  0  0  0  0
  3  4  1  0  0  0  0
  5  2  1  0  0  0  0
  6 12  1  0  0  0  0
  7  5  1  0  0  0  0
  7  6  2  0  0  0  0
  8  9  2  0  0  0  0
  8  7  1  0  0  0  0
  9 10  1  0  0  0  0
 10 11  2  0  0  0  0
 11  6  1  0  0  0  0
 13  8  1  0  0  0  0
 14 10  1  0  0  0  0
 15  2  1  0  0  0  0
 16 17  1  0  0  0  0
 17 18  1  0  0  0  0
 18 19  2  0  0  0  0
 18 15  1  0  0  0  0
 20 19  1  0  0  0  0
 21 20  1  0  0  0  0
 21 22  1  0  0  0  0
 23 21  2  0  0  0  0
 24 26  2  0  0  0  0
 24 23  1  0  0  0  0
 25 24  1  0  0  0  0
 26 27  1  0  0  0  0
 27 17  1  0  0  0  0
 27 20  2  0  0  0  0
M  END
>  <minimizedAffinity>
-4.66626501

$$$$

 OpenBabel03262522193D

 27 29  0  0  0  0  0  0  0  0999 V2000
   37.3310   28.6390   31.4080 O   0  0  0  0  0  0  0  0  0  0  0  0
   36.2090   27.6330   31.6630 P   0  0  1  0  0  0  0  0  0  0  0  0
   35.8480   26.8770   30.1790 O   0  0  0  0  0  0  0  0  0  0  0  0
   34.9680   26.4150   30.2270 H   0  0  0  0  0  0  0  0  0  0  0  0
   36.8220   26.4210   32.6760 O   0  0  0  0  0  0  0  0  0  0  0  0
   37.9590   27.1630   34.6430 C   0  0  0  0  0  0  0  0  0  0  0  0
   37.9610   26.4640   33.4280 C   0  0  0  0  0  0  0  0  0  0  0  0
   39.1570   25.8440   33.0640 C   0  0  0  0  0  0  0  0  0  0  0  0
   40.2460   25.9410   33.8780 N   0  0  0  0  0  0  0  0  0  0  0  0
   40.1820   26.6300   35.0380 C   0  0  0  0  0  0  0  0  0  0  0  0
   39.0490   27.2430   35.4300 N   0  0  0  0  0  0  0  0  0  0  0  0
   37.0550   27.6650   34.9770 H   0  0  0  0  0  0  0  0  0  0  0  0
   39.1130   25.3190   32.1240 H   0  0  0  0  0  0  0  0  0  0  0  0
   41.0490   26.7010   35.6770 H   0  0  0  0  0  0  0  0  0  0  0  0
   34.8980   28.4410   32.2780 O   0  0  0  0  0  0  0  0  0  0  0  0
   36.7900   30.0440   33.6790 H   0  0  0  0  0  0  0  0  0  0  0  0
   35.8040   30.0490   34.0220 N   0  0  0  0  0  0  0  0  0  0  0  0
   34.8890   29.2920   33.3690 C   0  0  0  0  0  0  0  0  0  0  0  0
   33.6810   29.4440   33.9750 N   0  0  0  0  0  0  0  0  0  0  0  0
   33.8400   30.2950   35.0070 C   0  0  0  0  0  0  0  0  0  0  0  0
   33.0690   30.8670   35.9990 C   0  0  0  0  0  0  0  0  0  0  0  0
   32.0040   30.5880   36.0070 H   0  0  0  0  0  0  0  0  0  0  0  0
   33.5630   31.7170   36.9170 N   0  0  0  0  0  0  0  0  0  0  0  0
   34.8720   32.0520   36.8970 C   0  0  0  0  0  0  0  0  0  0  0  0
   35.2680   32.7350   37.6330 H   0  0  0  0  0  0  0  0  0  0  0  0
   35.6890   31.5250   35.9450 N   0  0  0  0  0  0  0  0  0  0  0  0
   35.1670   30.6720   35.0340 C   0  0  0  0  0  0  0  0  0  0  0  0
  2  1  2  6  0  0  0
  2 15  1  0  0  0  0
  2  5  1  0  0  0  0
  3  4  1  0  0  0  0
  3  2  1  0  0  0  0
  5  7  1  0  0  0  0
  6 12  1  0  0  0  0
  6 11  1  0  0  0  0
  7  6  2  0  0  0  0
  8  7  1  0  0  0  0
  8  9  2  0  0  0  0
  9 10  1  0  0  0  0
 10 11  2  0  0  0  0
 10 14  1  0  0  0  0
 13  8  1  0  0  0  0
 15 18  1  0  0  0  0
 16 17  1  0  0  0  0
 17 27  1  0  0  0  0
 18 19  2  0  0  0  0
 18 17  1  0  0  0  0
 19 20  1  0  0  0  0
 20 27  2  0  0  0  0
 20 21  1  0  0  0  0
 21 22  1  0  0  0  0
 21 23  2  0  0  0  0
 24 23  1  0  0  0  0
 24 25  1  0  0  0  0
 26 24  2  0  0  0  0
 27 26  1  0  0  0  0
M  END
>  <minimizedAffinity>
-4.57778502

$$$$

 OpenBabel03262522193D

 27 29  0  0  0  0  0  0  0  0999 V2000
   39.0690   26.9640   33.8830 O   0  0  0  0  0  0  0  0  0  0  0  0
   38.0750   26.8060   35.0320 P   0  0  1  0  0  0  0  0  0  0  0  0
   38.5190   27.9090   36.2530 O   0  0  0  0  0  0  0  0  0  0  0  0
   38.0790   27.6730   37.1140 H   0  0  0  0  0  0  0  0  0  0  0  0
   36.5550   27.3060   34.4730 O   0  0  0  0  0  0  0  0  0  0  0  0
   35.7180   29.5450   34.5200 C   0  0  0  0  0  0  0  0  0  0  0  0
   36.2520   28.4600   33.8090 C   0  0  0  0  0  0  0  0  0  0  0  0
   36.4430   28.6430   32.4390 C   0  0  0  0  0  0  0  0  0  0  0  0
   36.1110   29.8310   31.8610 N   0  0  0  0  0  0  0  0  0  0  0  0
   35.5990   30.8400   32.5990 C   0  0  0  0  0  0  0  0  0  0  0  0
   35.3990   30.7090   33.9250 N   0  0  0  0  0  0  0  0  0  0  0  0
   35.5480   29.4590   35.5900 H   0  0  0  0  0  0  0  0  0  0  0  0
   36.8550   27.7850   31.9330 H   0  0  0  0  0  0  0  0  0  0  0  0
   35.3400   31.7780   32.1340 H   0  0  0  0  0  0  0  0  0  0  0  0
   38.1240   25.2380   35.5690 O   0  0  0  0  0  0  0  0  0  0  0  0
   40.7160   25.0520   34.4030 H   0  0  0  0  0  0  0  0  0  0  0  0
   40.4820   24.3850   35.1720 N   0  0  0  0  0  0  0  0  0  0  0  0
   39.2530   24.4580   35.7400 C   0  0  0  0  0  0  0  0  0  0  0  0
   39.1610   23.5090   36.7090 N   0  0  0  0  0  0  0  0  0  0  0  0
   40.3320   22.8420   36.7490 C   0  0  0  0  0  0  0  0  0  0  0  0
   40.9030   21.8060   37.4580 C   0  0  0  0  0  0  0  0  0  0  0  0
   40.2740   21.3430   38.2340 H   0  0  0  0  0  0  0  0  0  0  0  0
   42.1550   21.3640   37.2360 N   0  0  0  0  0  0  0  0  0  0  0  0
   42.9180   21.9390   36.2810 C   0  0  0  0  0  0  0  0  0  0  0  0
   43.9220   21.5850   36.1030 H   0  0  0  0  0  0  0  0  0  0  0  0
   42.4160   22.9670   35.5440 N   0  0  0  0  0  0  0  0  0  0  0  0
   41.1550   23.3920   35.7870 C   0  0  0  0  0  0  0  0  0  0  0  0
  2  1  2  6  0  0  0
  2 15  1  0  0  0  0
  2  3  1  0  0  0  0
  3  4  1  0  0  0  0
  5  2  1  0  0  0  0
  6 12  1  0  0  0  0
  7  5  1  0  0  0  0
  7  6  2  0  0  0  0
  8  7  1  0  0  0  0
  9  8  2  0  0  0  0
  9 10  1  0  0  0  0
 10 11  2  0  0  0  0
 11  6  1  0  0  0  0
 13  8  1  0  0  0  0
 14 10  1  0  0  0  0
 15 18  1  0  0  0  0
 16 17  1  0  0  0  0
 17 18  1  0  0  0  0
 17 27  1  0  0  0  0
 18 19  2  0  0  0  0
 19 20  1  0  0  0  0
 20 21  1  0  0  0  0
 21 22  1  0  0  0  0
 23 21  2  0  0  0  0
 24 23  1  0  0  0  0
 25 24  1  0  0  0  0
 26 27  1  0  0  0  0
 26 24  2  0  0  0  0
 27 20  2  0  0  0  0
M  END
>  <minimizedAffinity>
-4.55104303

$$$$

 OpenBabel03262522193D

 27 29  0  0  0  0  0  0  0  0999 V2000
   36.6490   27.7860   34.8020 O   0  0  0  0  0  0  0  0  0  0  0  0
   37.9650   27.0530   35.0570 P   0  0  1  0  0  0  0  0  0  0  0  0
   38.6640   27.7220   36.4590 O   0  0  0  0  0  0  0  0  0  0  0  0
   39.6260   27.4730   36.5230 H   0  0  0  0  0  0  0  0  0  0  0  0
   37.5960   25.4430   35.4330 O   0  0  0  0  0  0  0  0  0  0  0  0
   39.5000   24.0220   35.6910 C   0  0  0  0  0  0  0  0  0  0  0  0
   38.3230   24.5830   36.2050 C   0  0  0  0  0  0  0  0  0  0  0  0
   37.9690   24.2140   37.5040 C   0  0  0  0  0  0  0  0  0  0  0  0
   38.7560   23.3470   38.2000 N   0  0  0  0  0  0  0  0  0  0  0  0
   39.8800   22.8390   37.6500 C   0  0  0  0  0  0  0  0  0  0  0  0
   40.2620   23.1680   36.4010 N   0  0  0  0  0  0  0  0  0  0  0  0
   39.8250   24.2730   34.6850 H   0  0  0  0  0  0  0  0  0  0  0  0
   37.0580   24.6680   37.8580 H   0  0  0  0  0  0  0  0  0  0  0  0
   40.4990   22.1540   38.2090 H   0  0  0  0  0  0  0  0  0  0  0  0
   38.9440   27.2390   33.7310 O   0  0  0  0  0  0  0  0  0  0  0  0
   38.0600   24.6210   33.0390 H   0  0  0  0  0  0  0  0  0  0  0  0
   38.5630   25.1710   32.3070 N   0  0  0  0  0  0  0  0  0  0  0  0
   38.9920   26.4190   32.6180 C   0  0  0  0  0  0  0  0  0  0  0  0
   39.6150   26.9520   31.5330 N   0  0  0  0  0  0  0  0  0  0  0  0
   39.5770   26.0370   30.5430 C   0  0  0  0  0  0  0  0  0  0  0  0
   39.9980   25.9180   29.2350 C   0  0  0  0  0  0  0  0  0  0  0  0
   40.5270   26.7870   28.8130 H   0  0  0  0  0  0  0  0  0  0  0  0
   39.7890   24.8150   28.4930 N   0  0  0  0  0  0  0  0  0  0  0  0
   39.1390   23.7540   29.0200 C   0  0  0  0  0  0  0  0  0  0  0  0
   38.9720   22.8700   28.4240 H   0  0  0  0  0  0  0  0  0  0  0  0
   38.6970   23.8060   30.3060 N   0  0  0  0  0  0  0  0  0  0  0  0
   38.9190   24.9260   31.0300 C   0  0  0  0  0  0  0  0  0  0  0  0
  2  1  2  6  0  0  0
  2  5  1  0  0  0  0
  2  3  1  0  0  0  0
  3  4  1  0  0  0  0
  5  7  1  0  0  0  0
  6  7  2  0  0  0  0
  6 11  1  0  0  0  0
  7  8  1  0  0  0  0
  8 13  1  0  0  0  0
  8  9  2  0  0  0  0
 10  9  1  0  0  0  0
 10 14  1  0  0  0  0
 11 10  2  0  0  0  0
 12  6  1  0  0  0  0
 15  2  1  0  0  0  0
 17 18  1  0  0  0  0
 17 16  1  0  0  0  0
 18 15  1  0  0  0  0
 19 18  2  0  0  0  0
 20 27  1  0  0  0  0
 20 19  1  0  0  0  0
 21 20  2  0  0  0  0
 22 21  1  0  0  0  0
 23 24  2  0  0  0  0
 23 21  1  0  0  0  0
 24 26  1  0  0  0  0
 25 24  1  0  0  0  0
 26 27  2  0  0  0  0
 27 17  1  0  0  0  0
M  END
>  <minimizedAffinity>
-4.53335285

$$$$

 OpenBabel03262522193D

 27 29  0  0  0  0  0  0  0  0999 V2000
   36.2730   24.7180   32.1340 O   0  0  0  0  0  0  0  0  0  0  0  0
   37.6210   25.2080   31.6100 P   0  0  1  0  0  0  0  0  0  0  0  0
   37.7430   24.7330   29.9780 O   0  0  0  0  0  0  0  0  0  0  0  0
   38.6870   24.7920   29.6670 H   0  0  0  0  0  0  0  0  0  0  0  0
   37.5910   26.9030   31.6100 O   0  0  0  0  0  0  0  0  0  0  0  0
   36.9570   27.8160   33.7260 C   0  0  0  0  0  0  0  0  0  0  0  0
   36.7750   27.7190   32.3390 C   0  0  0  0  0  0  0  0  0  0  0  0
   35.7460   28.4840   31.7890 C   0  0  0  0  0  0  0  0  0  0  0  0
   34.9800   29.2710   32.5960 N   0  0  0  0  0  0  0  0  0  0  0  0
   35.2050   29.3220   33.9270 C   0  0  0  0  0  0  0  0  0  0  0  0
   36.1870   28.6020   34.5010 N   0  0  0  0  0  0  0  0  0  0  0  0
   37.7440   27.2420   34.2100 H   0  0  0  0  0  0  0  0  0  0  0  0
   35.6420   28.3800   30.7210 H   0  0  0  0  0  0  0  0  0  0  0  0
   34.5940   29.9480   34.5590 H   0  0  0  0  0  0  0  0  0  0  0  0
   38.8270   24.5460   32.5370 O   0  0  0  0  0  0  0  0  0  0  0  0
   37.0350   25.0690   34.6880 H   0  0  0  0  0  0  0  0  0  0  0  0
   37.9120   24.5450   34.9060 N   0  0  0  0  0  0  0  0  0  0  0  0
   38.7780   24.2870   33.8950 C   0  0  0  0  0  0  0  0  0  0  0  0
   39.8410   23.6020   34.3930 N   0  0  0  0  0  0  0  0  0  0  0  0
   39.6420   23.4320   35.7150 C   0  0  0  0  0  0  0  0  0  0  0  0
   40.2890   22.8530   36.7870 C   0  0  0  0  0  0  0  0  0  0  0  0
   41.2550   22.3720   36.5710 H   0  0  0  0  0  0  0  0  0  0  0  0
   39.7910   22.8610   38.0380 N   0  0  0  0  0  0  0  0  0  0  0  0
   38.6040   23.4540   38.2930 C   0  0  0  0  0  0  0  0  0  0  0  0
   38.2060   23.4590   39.2960 H   0  0  0  0  0  0  0  0  0  0  0  0
   37.9140   24.0440   37.2800 N   0  0  0  0  0  0  0  0  0  0  0  0
   38.4350   24.0220   36.0330 C   0  0  0  0  0  0  0  0  0  0  0  0
  2  5  1  0  0  0  0
  2  1  2  1  0  0  0
  2 15  1  0  0  0  0
  3  2  1  0  0  0  0
  4  3  1  0  0  0  0
  5  7  1  0  0  0  0
  6 12  1  0  0  0  0
  6 11  1  0  0  0  0
  7  6  2  0  0  0  0
  8  7  1  0  0  0  0
  8  9  2  0  0  0  0
  9 10  1  0  0  0  0
 10 11  2  0  0  0  0
 10 14  1  0  0  0  0
 13  8  1  0  0  0  0
 15 18  1  0  0  0  0
 16 17  1  0  0  0  0
 17 27  1  0  0  0  0
 18 19  2  0  0  0  0
 18 17  1  0  0  0  0
 19 20  1  0  0  0  0
 20 27  2  0  0  0  0
 20 21  1  0  0  0  0
 21 23  2  0  0  0  0
 22 21  1  0  0  0  0
 23 24  1  0  0  0  0
 24 25  1  0  0  0  0
 26 24  2  0  0  0  0
 27 26  1  0  0  0  0
M  END
>  <minimizedAffinity>
-4.51315928

$$$$

 OpenBabel03262522193D

 27 29  0  0  0  0  0  0  0  0999 V2000
   36.5080   27.7390   34.9180 O   0  0  0  0  0  0  0  0  0  0  0  0
   37.7910   26.9240   35.0720 P   0  0  1  0  0  0  0  0  0  0  0  0
   38.7980   27.7510   36.1700 O   0  0  0  0  0  0  0  0  0  0  0  0
   39.7330   27.4140   36.1090 H   0  0  0  0  0  0  0  0  0  0  0  0
   37.3850   25.4560   35.8160 O   0  0  0  0  0  0  0  0  0  0  0  0
   37.9710   24.2110   37.7700 C   0  0  0  0  0  0  0  0  0  0  0  0
   38.2270   24.5820   36.4430 C   0  0  0  0  0  0  0  0  0  0  0  0
   39.3510   24.0160   35.8400 C   0  0  0  0  0  0  0  0  0  0  0  0
   40.1350   23.1530   36.5440 N   0  0  0  0  0  0  0  0  0  0  0  0
   39.8370   22.8340   37.8230 C   0  0  0  0  0  0  0  0  0  0  0  0
   38.7610   23.3540   38.4440 N   0  0  0  0  0  0  0  0  0  0  0  0
   37.1090   24.6200   38.2900 H   0  0  0  0  0  0  0  0  0  0  0  0
   39.5090   24.3290   34.8210 H   0  0  0  0  0  0  0  0  0  0  0  0
   40.4630   22.1480   38.3730 H   0  0  0  0  0  0  0  0  0  0  0  0
   38.5030   26.7620   33.5830 O   0  0  0  0  0  0  0  0  0  0  0  0
   40.9900   26.7670   34.9710 H   0  0  0  0  0  0  0  0  0  0  0  0
   41.0050   26.9880   33.9500 N   0  0  0  0  0  0  0  0  0  0  0  0
   39.8310   26.9920   33.2720 C   0  0  0  0  0  0  0  0  0  0  0  0
   40.0770   27.3010   31.9710 N   0  0  0  0  0  0  0  0  0  0  0  0
   41.4040   27.4920   31.8340 C   0  0  0  0  0  0  0  0  0  0  0  0
   42.3000   27.8150   30.8360 C   0  0  0  0  0  0  0  0  0  0  0  0
   41.8730   27.9790   29.8350 H   0  0  0  0  0  0  0  0  0  0  0  0
   43.6240   27.9320   31.0460 N   0  0  0  0  0  0  0  0  0  0  0  0
   44.1370   27.7290   32.2800 C   0  0  0  0  0  0  0  0  0  0  0  0
   45.1990   27.8230   32.4480 H   0  0  0  0  0  0  0  0  0  0  0  0
   43.3080   27.4070   33.3100 N   0  0  0  0  0  0  0  0  0  0  0  0
   41.9810   27.2960   33.0720 C   0  0  0  0  0  0  0  0  0  0  0  0
  2  1  2  6  0  0  0
  2  5  1  0  0  0  0
  2  3  1  0  0  0  0
  4  3  1  0  0  0  0
  5  7  1  0  0  0  0
  6 12  1  0  0  0  0
  6 11  1  0  0  0  0
  7  6  2  0  0  0  0
  8  7  1  0  0  0  0
  8  9  2  0  0  0  0
  9 10  1  0  0  0  0
 10 14  1  0  0  0  0
 10 11  2  0  0  0  0
 13  8  1  0  0  0  0
 15  2  1  0  0  0  0
 17 16  1  0  0  0  0
 18 15  1  0  0  0  0
 18 17  1  0  0  0  0
 19 18  2  0  0  0  0
 20 19  1  0  0  0  0
 20 27  1  0  0  0  0
 21 23  1  0  0  0  0
 21 20  2  0  0  0  0
 22 21  1  0  0  0  0
 23 24  2  0  0  0  0
 24 25  1  0  0  0  0
 24 26  1  0  0  0  0
 27 26  2  0  0  0  0
 27 17  1  0  0  0  0
M  END
>  <minimizedAffinity>
-4.50444651

$$$$

 OpenBabel03262522193D

 27 29  0  0  0  0  0  0  0  0999 V2000
   39.9120   22.7660   36.1440 O   0  0  0  0  0  0  0  0  0  0  0  0
   38.6590   23.1900   36.9080 P   0  0  1  0  0  0  0  0  0  0  0  0
   38.9400   22.8990   38.5630 O   0  0  0  0  0  0  0  0  0  0  0  0
   38.0840   22.9080   39.0700 H   0  0  0  0  0  0  0  0  0  0  0  0
   38.4950   24.8690   36.7420 O   0  0  0  0  0  0  0  0  0  0  0  0
   39.6400   26.3620   35.2690 C   0  0  0  0  0  0  0  0  0  0  0  0
   38.5110   25.5950   35.5860 C   0  0  0  0  0  0  0  0  0  0  0  0
   37.4560   25.6260   34.6720 C   0  0  0  0  0  0  0  0  0  0  0  0
   37.5600   26.3800   33.5420 N   0  0  0  0  0  0  0  0  0  0  0  0
   38.6750   27.1010   33.2930 C   0  0  0  0  0  0  0  0  0  0  0  0
   39.7180   27.1000   34.1450 N   0  0  0  0  0  0  0  0  0  0  0  0
   40.4920   26.3760   35.9440 H   0  0  0  0  0  0  0  0  0  0  0  0
   36.6100   25.0210   34.9550 H   0  0  0  0  0  0  0  0  0  0  0  0
   38.7500   27.6950   32.3950 H   0  0  0  0  0  0  0  0  0  0  0  0
   37.3680   22.3180   36.3390 O   0  0  0  0  0  0  0  0  0  0  0  0
   38.7190   22.5420   33.8420 H   0  0  0  0  0  0  0  0  0  0  0  0
   37.8480   21.9670   33.8710 N   0  0  0  0  0  0  0  0  0  0  0  0
   37.1900   21.8490   35.0500 C   0  0  0  0  0  0  0  0  0  0  0  0
   36.0940   21.0650   34.8640 N   0  0  0  0  0  0  0  0  0  0  0  0
   36.0650   20.6940   33.5690 C   0  0  0  0  0  0  0  0  0  0  0  0
   35.2720   19.9360   32.7330 C   0  0  0  0  0  0  0  0  0  0  0  0
   34.3870   19.4700   33.1930 H   0  0  0  0  0  0  0  0  0  0  0  0
   35.5390   19.7590   31.4260 N   0  0  0  0  0  0  0  0  0  0  0  0
   36.6280   20.3360   30.8710 C   0  0  0  0  0  0  0  0  0  0  0  0
   36.8420   20.1940   29.8230 H   0  0  0  0  0  0  0  0  0  0  0  0
   37.4530   21.0970   31.6400 N   0  0  0  0  0  0  0  0  0  0  0  0
   37.1630   21.2590   32.9510 C   0  0  0  0  0  0  0  0  0  0  0  0
  2  1  2  6  0  0  0
  2  3  1  0  0  0  0
  3  4  1  0  0  0  0
  5  2  1  0  0  0  0
  6  7  1  0  0  0  0
  6 12  1  0  0  0  0
  7  5  1  0  0  0  0
  8 13  1  0  0  0  0
  8  7  2  0  0  0  0
  9  8  1  0  0  0  0
 10  9  2  0  0  0  0
 10 11  1  0  0  0  0
 11  6  2  0  0  0  0
 14 10  1  0  0  0  0
 15  2  1  0  0  0  0
 16 17  1  0  0  0  0
 17 18  1  0  0  0  0
 18 15  1  0  0  0  0
 19 18  2  0  0  0  0
 20 19  1  0  0  0  0
 21 22  1  0  0  0  0
 21 20  2  0  0  0  0
 23 21  1  0  0  0  0
 24 23  2  0  0  0  0
 24 26  1  0  0  0  0
 25 24  1  0  0  0  0
 26 27  2  0  0  0  0
 27 20  1  0  0  0  0
 27 17  1  0  0  0  0
M  END
>  <minimizedAffinity>
-4.48495626

$$$$
