REMARK  Name = 
REMARK  5 active torsions:
REMARK  status: ('A' for Active; 'I' for Inactive)
REMARK    1  A    between atoms: C_1  and  O_7
REMARK    2  A    between atoms: O_7  and  P_9
REMARK    3  A    between atoms: P_9  and  O_10
REMARK    4  A    between atoms: P_9  and  O_11
REMARK    5  A    between atoms: O_11  and  C_18
REMARK                            x       y       z     vdW  Elec       q    Type
REMARK                         _______ _______ _______ _____ _____    ______ ____
ROOT
ATOM      1  O   UNL     1      35.500  30.150  46.636  0.00  0.00    +0.000 OA
ATOM      2  P   UNL     1      34.223  30.015  47.461  0.00  0.00    +0.000 P 
ENDROOT
BRANCH   2   3
ATOM      3  O   UNL     1      33.762  28.396  47.589  0.00  0.00    +0.000 OA
ATOM      4  H   UNL     1      33.438  28.175  48.493  0.00  0.00    +0.000 HD
ENDBRANCH   2   3
BRANCH   2   5
ATOM      5  O   UNL     1      34.444  30.593  49.069  0.00  0.00    +0.000 OA
BRANCH   5   6
ATOM      6  C   UNL     1      35.646  30.471  49.746  0.00  0.00    +0.000 A 
ATOM      7  C   UNL     1      35.974  29.471  50.677  0.00  0.00    +0.000 A 
ATOM      8  C   UNL     1      37.230  29.506  51.259  0.00  0.00    +0.000 A 
ATOM      9  N   UNL     1      38.097  30.503  50.910  0.00  0.00    +0.000 NA
ATOM     10  C   UNL     1      37.747  31.465  49.998  0.00  0.00    +0.000 A 
ATOM     11  N   UNL     1      36.520  31.431  49.429  0.00  0.00    +0.000 NA
ATOM     12  H   UNL     1      35.189  28.748  50.854  0.00  0.00    +0.000 HD
ATOM     13  H   UNL     1      37.454  28.740  51.959  0.00  0.00    +0.000 HD
ATOM     14  H   UNL     1      38.497  32.220  49.778  0.00  0.00    +0.000 HD
ENDBRANCH   5   6
ENDBRANCH   2   5
BRANCH   2  15
ATOM     15  O   UNL     1      33.059  30.949  46.683  0.00  0.00    +0.000 OA
BRANCH  15  18
ATOM     16  H   UNL     1      30.346  30.110  46.518  0.00  0.00    +0.000 HD
ATOM     17  N   UNL     1      30.963  30.052  45.698  0.00  0.00    +0.000 N 
ATOM     18  C   UNL     1      32.267  30.425  45.674  0.00  0.00    +0.000 A 
ATOM     19  N   UNL     1      32.736  30.202  44.433  0.00  0.00    +0.000 NA
ATOM     20  C   UNL     1      31.766  29.697  43.669  0.00  0.00    +0.000 A 
ATOM     21  C   UNL     1      31.584  29.267  42.370  0.00  0.00    +0.000 A 
ATOM     22  H   UNL     1      32.447  29.328  41.712  0.00  0.00    +0.000 HD
ATOM     23  N   UNL     1      30.384  28.794  41.947  0.00  0.00    +0.000 NA
ATOM     24  C   UNL     1      29.334  28.726  42.768  0.00  0.00    +0.000 A 
ATOM     25  H   UNL     1      28.352  28.357  42.482  0.00  0.00    +0.000 HD
ATOM     26  N   UNL     1      29.399  29.123  44.070  0.00  0.00    +0.000 NA
ATOM     27  C   UNL     1      30.619  29.592  44.459  0.00  0.00    +0.000 A 
ENDBRANCH  15  18
ENDBRANCH   2  15
TORSDOF 5
