
 OpenBabel03272507013D

 49 53  0  0  1  0  0  0  0  0999 V2000
   33.6650   28.9140   49.1630 C   0  0  2  0  0  0  0  0  0  0  0  0
   34.3440   29.5660   48.0060 C   0  0  0  0  0  0  0  0  0  0  0  0
   35.7900   29.1860   47.8940 C   0  0  2  0  0  0  0  0  0  0  0  0
   36.5840   29.4270   49.1250 C   0  0  0  0  0  0  0  0  0  0  0  0
   35.8220   29.1050   50.3930 C   0  0  0  0  0  0  0  0  0  0  0  0
   34.6130   28.2310   50.1090 C   0  0  0  0  0  0  0  0  0  0  0  0
   33.0740   29.6210   49.8180 H   0  0  0  0  0  0  0  0  0  0  0  0
   34.1340   30.6230   48.1200 H   0  0  0  0  0  0  0  0  0  0  0  0
   33.9400   29.2670   47.0270 H   0  0  0  0  0  0  0  0  0  0  0  0
   35.7940   28.0950   47.6820 H   0  0  0  0  0  0  0  0  0  0  0  0
   37.1050   30.4060   49.1620 H   0  0  0  0  0  0  0  0  0  0  0  0
   37.4330   28.6790   49.1100 H   0  0  0  0  0  0  0  0  0  0  0  0
   35.4330   30.0690   50.7840 H   0  0  0  0  0  0  0  0  0  0  0  0
   36.4510   28.6840   51.1750 H   0  0  0  0  0  0  0  0  0  0  0  0
   34.0970   28.0680   51.0730 H   0  0  0  0  0  0  0  0  0  0  0  0
   34.9740   27.2660   49.7060 H   0  0  0  0  0  0  0  0  0  0  0  0
   36.3010   29.8550   46.7590 N   0  0  1  0  0  0  0  0  0  0  0  0
   35.3650   30.1580   45.7180 C   0  0  0  0  0  0  0  0  0  0  0  0
   36.3180   30.5670   44.5930 C   0  0  0  0  0  0  0  0  0  0  0  0
   37.3300   31.3710   45.3920 C   0  0  0  0  0  0  0  0  0  0  0  0
   37.3130   30.7190   46.8000 C   0  0  1  0  0  0  0  0  0  0  0  0
   34.7260   31.0340   45.9680 H   0  0  0  0  0  0  0  0  0  0  0  0
   34.8130   29.2810   45.3700 H   0  0  0  0  0  0  0  0  0  0  0  0
   35.7520   31.2040   43.8900 H   0  0  0  0  0  0  0  0  0  0  0  0
   36.7710   29.6750   44.1460 H   0  0  0  0  0  0  0  0  0  0  0  0
   38.3260   31.3580   44.9330 H   0  0  0  0  0  0  0  0  0  0  0  0
   36.9940   32.4000   45.3940 H   0  0  0  0  0  0  0  0  0  0  0  0
   38.2310   30.0310   46.6930 H   0  0  0  0  0  0  0  0  0  0  0  0
   37.6820   31.6990   47.7140 N   0  0  0  0  0  0  0  0  0  0  0  0
   37.0910   31.9490   48.9270 C   0  0  0  0  0  0  0  0  0  0  0  0
   36.2350   31.4510   49.4090 H   0  0  0  0  0  0  0  0  0  0  0  0
   37.6370   32.9320   49.6090 N   0  0  0  0  0  0  0  0  0  0  0  0
   38.6510   33.4020   48.8620 C   0  0  0  0  0  0  0  0  0  0  0  0
   39.5930   34.4110   49.0110 C   0  0  0  0  0  0  0  0  0  0  0  0
   39.5950   35.0160   49.9080 H   0  0  0  0  0  0  0  0  0  0  0  0
   40.5170   34.6660   48.0670 N   0  0  0  0  0  0  0  0  0  0  0  0
   40.5180   33.9150   46.9490 C   0  0  0  0  0  0  0  0  0  0  0  0
   41.1730   33.9560   46.0710 H   0  0  0  0  0  0  0  0  0  0  0  0
   39.6210   32.9570   46.8110 N   0  0  0  0  0  0  0  0  0  0  0  0
   38.6720   32.6470   47.7110 C   0  0  0  0  0  0  0  0  0  0  0  0
   32.6700   27.9120   48.7200 C   0  0  0  0  0  0  0  0  0  0  0  0
   33.1690   26.9520   47.8380 C   0  0  0  0  0  0  0  0  0  0  0  0
   32.2650   25.9730   47.4000 C   0  0  0  0  0  0  0  0  0  0  0  0
   30.9560   26.0060   47.8510 N   0  0  0  0  0  0  0  0  0  0  0  0
   30.5210   26.9720   48.7150 C   0  0  0  0  0  0  0  0  0  0  0  0
   31.3800   27.8880   49.1210 N   0  0  0  0  0  0  0  0  0  0  0  0
   34.0720   26.6920   47.3270 H   0  0  0  0  0  0  0  0  0  0  0  0
   32.3660   25.1420   46.7470 H   0  0  0  0  0  0  0  0  0  0  0  0
   29.5100   26.9970   49.0620 H   0  0  0  0  0  0  0  0  0  0  0  0
  1  7  1  1  0  0  0
  1  6  1  0  0  0  0
  2  8  1  0  0  0  0
  2  1  1  0  0  0  0
  3 10  1  6  0  0  0
  3  2  1  0  0  0  0
  3  4  1  0  0  0  0
  4 11  1  0  0  0  0
  4  5  1  0  0  0  0
  5 13  1  0  0  0  0
  5 14  1  0  0  0  0
  6  5  1  0  0  0  0
  6 15  1  0  0  0  0
  9  2  1  0  0  0  0
 12  4  1  0  0  0  0
 16  6  1  0  0  0  0
 17 18  1  1  0  0  0
 17 21  1  0  0  0  0
 17  3  1  0  0  0  0
 18 22  1  0  0  0  0
 19 20  1  0  0  0  0
 19 18  1  0  0  0  0
 20 27  1  0  0  0  0
 20 21  1  0  0  0  0
 21 28  1  6  0  0  0
 21 29  1  0  0  0  0
 23 18  1  0  0  0  0
 24 19  1  0  0  0  0
 25 19  1  0  0  0  0
 26 20  1  0  0  0  0
 29 30  1  0  0  0  0
 30 31  1  0  0  0  0
 30 32  2  0  0  0  0
 33 34  1  0  0  0  0
 33 32  1  0  0  0  0
 34 35  1  0  0  0  0
 36 34  2  0  0  0  0
 37 36  1  0  0  0  0
 38 37  1  0  0  0  0
 39 37  2  0  0  0  0
 39 40  1  0  0  0  0
 40 29  1  0  0  0  0
 40 33  2  0  0  0  0
 41 46  1  0  0  0  0
 41  1  1  0  0  0  0
 42 41  2  0  0  0  0
 43 42  1  0  0  0  0
 43 44  2  0  0  0  0
 44 45  1  0  0  0  0
 45 49  1  0  0  0  0
 45 46  2  0  0  0  0
 47 42  1  0  0  0  0
 48 43  1  0  0  0  0
M  END
>  <minimizedAffinity>
-5.11426544

>  <minimizedRMSD>
2.67567015

$$$$
