
 OpenBabel03272501083D

 43 47  0  0  1  0  0  0  0  0999 V2000
   40.6850   32.0020   44.4710 Cl  0  0  0  0  0  0  0  0  0  0  0  0
   39.1590   31.1720   44.3700 C   0  0  0  0  0  0  0  0  0  0  0  0
   38.2540   31.5080   45.3610 C   0  0  0  0  0  0  0  0  0  0  0  0
   37.0370   30.8460   45.2860 C   0  0  0  0  0  0  0  0  0  0  0  0
   36.7420   29.9250   44.3080 C   0  0  0  0  0  0  0  0  0  0  0  0
   37.6880   29.6420   43.3590 C   0  0  0  0  0  0  0  0  0  0  0  0
   38.9320   30.2580   43.3590 C   0  0  0  0  0  0  0  0  0  0  0  0
   36.2140   30.9850   45.9770 H   0  0  0  0  0  0  0  0  0  0  0  0
   35.8040   29.3950   44.2260 H   0  0  0  0  0  0  0  0  0  0  0  0
   37.5600   28.9270   42.5360 H   0  0  0  0  0  0  0  0  0  0  0  0
   39.9850   30.0400   42.4240 N   0  0  0  0  0  0  0  0  0  0  0  0
   41.0740   29.2550   42.5200 C   0  0  0  0  0  0  0  0  0  0  0  0
   41.3220   28.6350   43.3800 H   0  0  0  0  0  0  0  0  0  0  0  0
   41.7550   29.4020   41.3690 N   0  0  0  0  0  0  0  0  0  0  0  0
   41.1050   30.2610   40.5680 C   0  0  0  0  0  0  0  0  0  0  0  0
   41.3590   30.7610   39.2900 C   0  0  0  0  0  0  0  0  0  0  0  0
   42.2490   30.4400   38.7610 H   0  0  0  0  0  0  0  0  0  0  0  0
   40.5210   31.6460   38.6840 N   0  0  0  0  0  0  0  0  0  0  0  0
   39.4260   32.0230   39.3710 C   0  0  0  0  0  0  0  0  0  0  0  0
   38.6520   32.7200   39.0370 H   0  0  0  0  0  0  0  0  0  0  0  0
   39.1490   31.5610   40.6050 N   0  0  0  0  0  0  0  0  0  0  0  0
   39.9540   30.6830   41.2420 C   0  0  0  0  0  0  0  0  0  0  0  0
   38.3080   32.3600   46.4050 O   0  0  0  0  0  0  0  0  0  0  0  0
   38.9630   32.4450   47.5870 C   0  0  2  0  0  0  0  0  0  0  0  0
   37.9880   32.6240   48.7910 C   0  0  2  0  0  0  0  0  0  0  0  0
   38.8480   33.3190   49.7370 C   0  0  0  0  0  0  0  0  0  0  0  0
   39.6660   34.1830   49.0230 O   0  0  0  0  0  0  0  0  0  0  0  0
   39.5900   33.8650   47.7050 C   0  0  0  0  0  0  0  0  0  0  0  0
   39.7290   31.7160   47.8420 H   0  0  0  0  0  0  0  0  0  0  0  0
   37.2000   33.2980   48.3930 H   0  0  0  0  0  0  0  0  0  0  0  0
   39.5120   32.7100   50.3530 H   0  0  0  0  0  0  0  0  0  0  0  0
   38.2220   33.9490   50.4100 H   0  0  0  0  0  0  0  0  0  0  0  0
   40.6090   33.8280   47.2580 H   0  0  0  0  0  0  0  0  0  0  0  0
   38.9650   34.5380   47.0930 H   0  0  0  0  0  0  0  0  0  0  0  0
   37.3540   29.3260   50.4810 C   0  0  0  0  0  0  0  0  0  0  0  0
   38.0100   30.5420   50.1420 C   0  0  0  0  0  0  0  0  0  0  0  0
   37.3720   31.3820   49.1860 C   0  0  0  0  0  0  0  0  0  0  0  0
   36.1730   30.9880   48.6420 N   0  0  0  0  0  0  0  0  0  0  0  0
   35.5980   29.8350   48.9920 C   0  0  0  0  0  0  0  0  0  0  0  0
   36.1690   28.9990   49.9030 N   0  0  0  0  0  0  0  0  0  0  0  0
   37.8430   28.6930   51.2070 H   0  0  0  0  0  0  0  0  0  0  0  0
   38.9530   30.8010   50.6030 H   0  0  0  0  0  0  0  0  0  0  0  0
   34.6700   29.4540   48.6190 H   0  0  0  0  0  0  0  0  0  0  0  0
  2  1  1  0  0  0  0
  2  3  1  0  0  0  0
  3 23  1  0  0  0  0
  4  3  2  0  0  0  0
  4  8  1  0  0  0  0
  5  4  1  0  0  0  0
  6  5  2  0  0  0  0
  7  6  1  0  0  0  0
  7  2  2  0  0  0  0
  9  5  1  0  0  0  0
 10  6  1  0  0  0  0
 11 12  1  0  0  0  0
 11  7  1  0  0  0  0
 12 13  1  0  0  0  0
 14 12  2  0  0  0  0
 15 22  1  0  0  0  0
 15 14  1  0  0  0  0
 16 15  2  0  0  0  0
 17 16  1  0  0  0  0
 18 16  1  0  0  0  0
 18 19  2  0  0  0  0
 19 21  1  0  0  0  0
 20 19  1  0  0  0  0
 21 22  2  0  0  0  0
 22 11  1  0  0  0  0
 23 24  1  0  0  0  0
 24 28  1  0  0  0  0
 24 29  1  1  0  0  0
 24 25  1  0  0  0  0
 25 30  1  6  0  0  0
 25 37  1  0  0  0  0
 25 26  1  0  0  0  0
 26 31  1  0  0  0  0
 26 32  1  0  0  0  0
 27 26  1  0  0  0  0
 28 27  1  0  0  0  0
 33 28  1  0  0  0  0
 34 28  1  0  0  0  0
 35 41  1  0  0  0  0
 36 35  1  0  0  0  0
 36 42  1  0  0  0  0
 37 36  2  0  0  0  0
 38 39  2  0  0  0  0
 38 37  1  0  0  0  0
 39 40  1  0  0  0  0
 40 35  2  0  0  0  0
 43 39  1  0  0  0  0
M  END
>  <minimizedAffinity>
-6.3823657

>  <minimizedRMSD>
1.4959873

$$$$
