REMARK  Name = 
REMARK  2 active torsions:
REMARK  status: ('A' for Active; 'I' for Inactive)
REMARK    1  A    between atoms: N_1  and  C_16
REMARK    2  A    between atoms: C_4  and  C_8
REMARK                            x       y       z     vdW  Elec       q    Type
REMARK                         _______ _______ _______ _____ _____    ______ ____
ROOT
ATOM      1  N   UNL     1      32.710  28.212  47.434  0.00  0.00    +0.000 N 
ATOM      2  C   UNL     1      33.306  27.758  48.642  0.00  0.00    +0.000 C 
ATOM      3  C   UNL     1      34.476  28.520  49.137  0.00  0.00    +0.000 C 
ATOM      4  C   UNL     1      35.416  29.010  48.129  0.00  0.00    +0.000 C 
ATOM      5  C   UNL     1      34.712  29.413  46.821  0.00  0.00    +0.000 C 
ATOM      6  C   UNL     1      33.754  28.271  46.450  0.00  0.00    +0.000 C 
ATOM      7  H   UNL     1      32.520  27.724  49.450  0.00  0.00    +0.000 HD
ATOM      8  H   UNL     1      33.625  26.706  48.482  0.00  0.00    +0.000 HD
ATOM      9  H   UNL     1      33.975  29.442  49.584  0.00  0.00    +0.000 HD
ATOM     10  H   UNL     1      34.945  27.982  49.971  0.00  0.00    +0.000 HD
ATOM     11  H   UNL     1      36.155  28.233  47.802  0.00  0.00    +0.000 HD
ATOM     12  H   UNL     1      34.150  30.341  46.911  0.00  0.00    +0.000 HD
ATOM     13  H   UNL     1      35.481  29.432  46.015  0.00  0.00    +0.000 HD
ATOM     14  H   UNL     1      33.285  28.478  45.479  0.00  0.00    +0.000 HD
ATOM     15  H   UNL     1      34.316  27.324  46.337  0.00  0.00    +0.000 HD
ENDROOT
BRANCH   1  16
ATOM     16  C   UNL     1      31.341  28.553  47.195  0.00  0.00    +0.000 A 
ATOM     17  C   UNL     1      30.867  29.363  46.168  0.00  0.00    +0.000 A 
ATOM     18  C   UNL     1      29.494  29.573  46.105  0.00  0.00    +0.000 A 
ATOM     19  N   UNL     1      28.693  28.985  47.039  0.00  0.00    +0.000 NA
ATOM     20  C   UNL     1      29.181  28.209  48.017  0.00  0.00    +0.000 A 
ATOM     21  N   UNL     1      30.496  27.997  48.093  0.00  0.00    +0.000 NA
ATOM     22  H   UNL     1      31.627  29.747  45.520  0.00  0.00    +0.000 HD
ATOM     23  H   UNL     1      29.169  30.202  45.300  0.00  0.00    +0.000 HD
ATOM     24  N   UNL     1      28.285  27.626  48.959  0.00  0.00    +0.000 N 
ATOM     25  C   UNL     1      28.401  26.748  49.973  0.00  0.00    +0.000 A 
ATOM     26  H   UNL     1      29.427  26.396  50.109  0.00  0.00    +0.000 HD
ATOM     27  N   UNL     1      27.195  26.553  50.538  0.00  0.00    +0.000 NA
ATOM     28  C   UNL     1      26.312  27.317  49.873  0.00  0.00    +0.000 A 
ATOM     29  C   UNL     1      24.958  27.428  50.114  0.00  0.00    +0.000 A 
ATOM     30  H   UNL     1      24.472  26.876  50.906  0.00  0.00    +0.000 HD
ATOM     31  N   UNL     1      24.239  28.268  49.313  0.00  0.00    +0.000 NA
ATOM     32  C   UNL     1      24.895  28.930  48.343  0.00  0.00    +0.000 A 
ATOM     33  H   UNL     1      24.439  29.629  47.636  0.00  0.00    +0.000 HD
ATOM     34  N   UNL     1      26.223  28.840  48.084  0.00  0.00    +0.000 NA
ATOM     35  C   UNL     1      26.979  28.012  48.861  0.00  0.00    +0.000 A 
ENDBRANCH   1  16
BRANCH   4  37
ATOM     36  C   UNL     1      35.936  30.747  49.783  0.00  0.00    +0.000 A 
ATOM     37  C   UNL     1      36.193  30.207  48.533  0.00  0.00    +0.000 A 
ATOM     38  C   UNL     1      37.099  30.727  47.647  0.00  0.00    +0.000 A 
ATOM     39  C   UNL     1      37.797  31.869  48.038  0.00  0.00    +0.000 A 
ATOM     40  C   UNL     1      37.548  32.410  49.273  0.00  0.00    +0.000 A 
ATOM     41  C   UNL     1      36.627  31.880  50.173  0.00  0.00    +0.000 A 
ATOM     42  O   UNL     1      38.345  33.545  49.473  0.00  0.00    +0.000 OA
ATOM     43  C   UNL     1      39.321  33.489  48.443  0.00  0.00    +0.000 C 
ATOM     44  O   UNL     1      38.772  32.672  47.440  0.00  0.00    +0.000 OA
ATOM     45  H   UNL     1      35.262  30.422  50.562  0.00  0.00    +0.000 HD
ATOM     46  H   UNL     1      37.268  30.285  46.700  0.00  0.00    +0.000 HD
ATOM     47  H   UNL     1      36.480  32.370  51.151  0.00  0.00    +0.000 HD
ATOM     48  H   UNL     1      39.449  34.549  48.088  0.00  0.00    +0.000 HD
ATOM     49  H   UNL     1      40.305  33.129  48.798  0.00  0.00    +0.000 HD
ENDBRANCH   4  37
TORSDOF 2
