
 OpenBabel03272509313D

 41 44  0  0  1  0  0  0  0  0999 V2000
   36.3820   30.7070   49.0460 C   0  0  2  0  0  0  0  0  0  0  0  0
   37.3770   31.5030   49.8350 C   0  0  0  0  0  0  0  0  0  0  0  0
   38.1860   30.6520   50.7890 C   0  0  0  0  0  0  0  0  0  0  0  0
   37.2670   29.8820   51.7360 C   0  0  0  0  0  0  0  0  0  0  0  0
   35.9880   29.4070   51.0920 C   0  0  0  0  0  0  0  0  0  0  0  0
   36.2270   29.3200   49.5730 C   0  0  1  0  0  0  0  0  0  0  0  0
   35.3340   31.1410   49.0740 H   0  0  0  0  0  0  0  0  0  0  0  0
   37.9930   32.2010   49.3030 H   0  0  0  0  0  0  0  0  0  0  0  0
   36.7370   32.1470   50.5290 H   0  0  0  0  0  0  0  0  0  0  0  0
   38.8110   31.3500   51.3650 H   0  0  0  0  0  0  0  0  0  0  0  0
   38.8130   29.9030   50.2860 H   0  0  0  0  0  0  0  0  0  0  0  0
   37.1010   30.5440   52.6020 H   0  0  0  0  0  0  0  0  0  0  0  0
   37.8070   28.9840   52.1020 H   0  0  0  0  0  0  0  0  0  0  0  0
   35.6560   28.4450   51.4920 H   0  0  0  0  0  0  0  0  0  0  0  0
   35.2370   30.2140   51.2220 H   0  0  0  0  0  0  0  0  0  0  0  0
   37.1510   28.7930   49.5660 H   0  0  0  0  0  0  0  0  0  0  0  0
   36.7690   30.6380   47.6140 C   0  0  0  0  0  0  0  0  0  0  0  0
   38.1330   30.8320   47.3420 C   0  0  0  0  0  0  0  0  0  0  0  0
   38.5260   30.7700   46.0000 C   0  0  0  0  0  0  0  0  0  0  0  0
   37.5650   30.5240   45.0430 N   0  0  0  0  0  0  0  0  0  0  0  0
   36.2460   30.3400   45.3610 C   0  0  0  0  0  0  0  0  0  0  0  0
   35.8710   30.4020   46.6500 N   0  0  0  0  0  0  0  0  0  0  0  0
   38.9750   31.0190   47.9770 H   0  0  0  0  0  0  0  0  0  0  0  0
   39.5300   30.8990   45.6420 H   0  0  0  0  0  0  0  0  0  0  0  0
   35.5830   30.1540   44.5350 H   0  0  0  0  0  0  0  0  0  0  0  0
   33.9100   28.3980   49.0970 C   0  0  0  0  0  0  0  0  0  0  0  0
   33.1330   29.0170   49.9080 O   0  0  0  0  0  0  0  0  0  0  0  0
   35.3050   28.5080   48.8640 N   0  0  0  0  0  0  0  0  0  0  0  0
   35.6530   27.8960   48.0580 H   0  0  0  0  0  0  0  0  0  0  0  0
   34.5990   25.9790   47.6580 H   0  0  0  0  0  0  0  0  0  0  0  0
   33.5910   26.3190   47.6880 N   0  0  0  0  0  0  0  0  0  0  0  0
   33.1110   27.4240   48.3140 C   0  0  0  0  0  0  0  0  0  0  0  0
   31.8240   27.3510   48.0230 N   0  0  0  0  0  0  0  0  0  0  0  0
   31.4810   26.3100   47.2840 C   0  0  0  0  0  0  0  0  0  0  0  0
   30.2880   25.8620   46.7680 C   0  0  0  0  0  0  0  0  0  0  0  0
   29.3740   26.4350   46.9670 H   0  0  0  0  0  0  0  0  0  0  0  0
   30.3220   24.7170   46.0320 N   0  0  0  0  0  0  0  0  0  0  0  0
   31.4610   24.0520   45.8160 C   0  0  0  0  0  0  0  0  0  0  0  0
   31.4750   23.1400   45.2280 H   0  0  0  0  0  0  0  0  0  0  0  0
   32.6310   24.4950   46.3250 N   0  0  0  0  0  0  0  0  0  0  0  0
   32.6410   25.6230   47.0570 C   0  0  0  0  0  0  0  0  0  0  0  0
  1  7  1  1  0  0  0
  1  6  1  0  0  0  0
  1  2  1  0  0  0  0
  2  9  1  0  0  0  0
  2  3  1  0  0  0  0
  3 10  1  0  0  0  0
  3  4  1  0  0  0  0
  4 13  1  0  0  0  0
  4 12  1  0  0  0  0
  5 15  1  0  0  0  0
  5 14  1  0  0  0  0
  5  4  1  0  0  0  0
  6 16  1  6  0  0  0
  6  5  1  0  0  0  0
  8  2  1  0  0  0  0
 11  3  1  0  0  0  0
 17  1  1  0  0  0  0
 18 17  1  0  0  0  0
 18 23  1  0  0  0  0
 19 18  2  0  0  0  0
 20 21  2  0  0  0  0
 20 19  1  0  0  0  0
 21 22  1  0  0  0  0
 22 17  2  0  0  0  0
 24 19  1  0  0  0  0
 25 21  1  0  0  0  0
 26 27  2  0  0  0  0
 28 26  1  0  0  0  0
 28  6  1  0  0  0  0
 29 28  1  0  0  0  0
 30 31  1  0  0  0  0
 31 32  1  0  0  0  0
 32 26  1  0  0  0  0
 33 32  2  0  0  0  0
 34 33  1  0  0  0  0
 35 36  1  0  0  0  0
 35 34  2  0  0  0  0
 37 35  1  0  0  0  0
 38 37  2  0  0  0  0
 38 40  1  0  0  0  0
 39 38  1  0  0  0  0
 40 41  2  0  0  0  0
 41 34  1  0  0  0  0
 41 31  1  0  0  0  0
M  END
>  <minimizedAffinity>
-6.08598185

>  <minimizedRMSD>
0.761981845

$$$$
