
 OpenBabel03262521353D

 40 44  0  0  1  0  0  0  0  0999 V2000
   38.3990   31.4260   45.3690 C   0  0  1  0  0  0  0  0  0  0  0  0
   38.7670   32.4050   46.4100 C   0  0  2  0  0  0  0  0  0  0  0  0
   40.2100   32.7810   46.0290 C   0  0  0  0  0  0  0  0  0  0  0  0
   40.7070   31.5670   45.6530 O   0  0  0  0  0  0  0  0  0  0  0  0
   39.7390   30.8190   45.0060 C   0  0  0  0  0  0  0  0  0  0  0  0
   37.9810   31.9190   44.4910 H   0  0  0  0  0  0  0  0  0  0  0  0
   38.1860   33.3280   46.2620 H   0  0  0  0  0  0  0  0  0  0  0  0
   40.2500   33.5650   45.2710 H   0  0  0  0  0  0  0  0  0  0  0  0
   40.6970   33.0770   46.9920 H   0  0  0  0  0  0  0  0  0  0  0  0
   39.8230   29.7490   45.2900 H   0  0  0  0  0  0  0  0  0  0  0  0
   39.8800   30.8250   43.8960 H   0  0  0  0  0  0  0  0  0  0  0  0
   37.5520   32.3470   48.7100 C   0  0  1  0  0  0  0  0  0  0  0  0
   38.7670   33.1030   48.8400 C   0  0  0  0  0  0  0  0  0  0  0  0
   38.7430   31.9260   47.8450 C   0  0  2  0  0  0  0  0  0  0  0  0
   36.7100   32.7830   48.0980 H   0  0  0  0  0  0  0  0  0  0  0  0
   38.9020   34.1190   48.4740 H   0  0  0  0  0  0  0  0  0  0  0  0
   39.3840   32.9080   49.7670 H   0  0  0  0  0  0  0  0  0  0  0  0
   39.3090   31.0340   48.1140 H   0  0  0  0  0  0  0  0  0  0  0  0
   35.5540   29.6920   50.4300 C   0  0  0  0  0  0  0  0  0  0  0  0
   35.9120   30.6610   49.4960 C   0  0  0  0  0  0  0  0  0  0  0  0
   37.1290   31.3010   49.6620 C   0  0  0  0  0  0  0  0  0  0  0  0
   37.9170   30.9490   50.7370 N   0  0  0  0  0  0  0  0  0  0  0  0
   37.5470   30.0070   51.6280 C   0  0  0  0  0  0  0  0  0  0  0  0
   36.3460   29.3630   51.4780 N   0  0  0  0  0  0  0  0  0  0  0  0
   34.5940   29.2000   50.2820 H   0  0  0  0  0  0  0  0  0  0  0  0
   35.2330   30.8770   48.6830 H   0  0  0  0  0  0  0  0  0  0  0  0
   38.2290   29.7950   52.4400 H   0  0  0  0  0  0  0  0  0  0  0  0
   37.5230   30.4470   45.8020 O   0  0  0  0  0  0  0  0  0  0  0  0
   36.1140   31.3600   43.5050 H   0  0  0  0  0  0  0  0  0  0  0  0
   35.6050   30.8950   44.2710 N   0  0  0  0  0  0  0  0  0  0  0  0
   36.1740   30.4260   45.3970 C   0  0  0  0  0  0  0  0  0  0  0  0
   35.1640   29.8950   46.1300 N   0  0  0  0  0  0  0  0  0  0  0  0
   33.9940   30.0360   45.4610 C   0  0  0  0  0  0  0  0  0  0  0  0
   32.7170   29.6670   45.7800 C   0  0  0  0  0  0  0  0  0  0  0  0
   32.4910   29.1670   46.7080 H   0  0  0  0  0  0  0  0  0  0  0  0
   31.7350   29.9360   44.9160 N   0  0  0  0  0  0  0  0  0  0  0  0
   31.9900   30.5630   43.7430 C   0  0  0  0  0  0  0  0  0  0  0  0
   31.1220   30.7210   43.1380 H   0  0  0  0  0  0  0  0  0  0  0  0
   33.2640   30.9250   43.4370 N   0  0  0  0  0  0  0  0  0  0  0  0
   34.2910   30.6750   44.2780 C   0  0  0  0  0  0  0  0  0  0  0  0
  1  6  1  6  0  0  0
  1 28  1  0  0  0  0
  1  2  1  0  0  0  0
  2  7  1  6  0  0  0
  2 14  1  0  0  0  0
  3  2  1  0  0  0  0
  3  9  1  0  0  0  0
  4  3  1  0  0  0  0
  5 10  1  0  0  0  0
  5  1  1  0  0  0  0
  5  4  1  0  0  0  0
  8  3  1  0  0  0  0
 11  5  1  0  0  0  0
 12 15  1  6  0  0  0
 12 13  1  0  0  0  0
 12 21  1  0  0  0  0
 13 17  1  0  0  0  0
 14 18  1  1  0  0  0
 14 12  1  0  0  0  0
 14 13  1  0  0  0  0
 16 13  1  0  0  0  0
 19 24  1  0  0  0  0
 20 21  1  0  0  0  0
 20 19  2  0  0  0  0
 21 22  2  0  0  0  0
 22 23  1  0  0  0  0
 23 27  1  0  0  0  0
 24 23  2  0  0  0  0
 25 19  1  0  0  0  0
 26 20  1  0  0  0  0
 29 30  1  0  0  0  0
 30 40  1  0  0  0  0
 30 31  1  0  0  0  0
 31 28  1  0  0  0  0
 31 32  2  0  0  0  0
 33 34  1  0  0  0  0
 33 32  1  0  0  0  0
 34 35  1  0  0  0  0
 36 34  2  0  0  0  0
 37 36  1  0  0  0  0
 38 37  1  0  0  0  0
 39 37  2  0  0  0  0
 39 40  1  0  0  0  0
 40 33  2  0  0  0  0
M  END
>  <minimizedAffinity>
-5.8304286

>  <minimizedRMSD>
1.22939694

$$$$
