
 OpenBabel03272501493D

 23 25  0  0  0  0  0  0  0  0999 V2000
   36.8830   29.5260   51.4750 C   0  0  0  0  0  0  0  0  0  0  0  0
   37.7190   30.1460   50.5420 C   0  0  0  0  0  0  0  0  0  0  0  0
   37.1340   30.5740   49.3270 C   0  0  0  0  0  0  0  0  0  0  0  0
   35.7930   30.3530   49.1480 N   0  0  0  0  0  0  0  0  0  0  0  0
   35.0420   29.7520   50.0790 C   0  0  0  0  0  0  0  0  0  0  0  0
   35.5740   29.3300   51.2560 N   0  0  0  0  0  0  0  0  0  0  0  0
   33.6690   29.5890   49.7590 N   0  0  0  0  0  0  0  0  0  0  0  0
   37.2530   29.1740   52.4200 H   0  0  0  0  0  0  0  0  0  0  0  0
   38.7670   30.2890   50.7490 H   0  0  0  0  0  0  0  0  0  0  0  0
   33.0690   28.7430   49.6640 H   0  0  0  0  0  0  0  0  0  0  0  0
   33.1600   30.5060   49.5830 H   0  0  0  0  0  0  0  0  0  0  0  0
   37.9410   31.2110   48.3440 N   0  0  0  0  0  0  0  0  0  0  0  0
   38.0830   30.6180   47.1240 C   0  0  0  0  0  0  0  0  0  0  0  0
   37.6780   29.7020   46.7300 H   0  0  0  0  0  0  0  0  0  0  0  0
   38.8760   31.3600   46.3330 N   0  0  0  0  0  0  0  0  0  0  0  0
   39.2500   32.4390   47.0420 C   0  0  0  0  0  0  0  0  0  0  0  0
   40.0340   33.5790   46.8620 C   0  0  0  0  0  0  0  0  0  0  0  0
   40.5100   33.6880   45.8870 H   0  0  0  0  0  0  0  0  0  0  0  0
   40.1660   34.4680   47.8670 N   0  0  0  0  0  0  0  0  0  0  0  0
   39.5760   34.3210   49.0580 C   0  0  0  0  0  0  0  0  0  0  0  0
   39.7690   35.1010   49.7530 H   0  0  0  0  0  0  0  0  0  0  0  0
   38.7970   33.2280   49.2940 N   0  0  0  0  0  0  0  0  0  0  0  0
   38.6690   32.3430   48.2890 C   0  0  0  0  0  0  0  0  0  0  0  0
  1  8  1  0  0  0  0
  2  9  1  0  0  0  0
  2  1  2  0  0  0  0
  3  2  1  0  0  0  0
  4  3  2  0  0  0  0
  4  5  1  0  0  0  0
  5  6  2  0  0  0  0
  6  1  1  0  0  0  0
  7  5  1  0  0  0  0
 10  7  1  0  0  0  0
 11  7  1  0  0  0  0
 12  3  1  0  0  0  0
 13 12  1  0  0  0  0
 14 13  1  0  0  0  0
 15 16  1  0  0  0  0
 15 13  2  0  0  0  0
 16 23  1  0  0  0  0
 17 16  2  0  0  0  0
 17 19  1  0  0  0  0
 18 17  1  0  0  0  0
 19 20  2  0  0  0  0
 20 22  1  0  0  0  0
 20 21  1  0  0  0  0
 23 12  1  0  0  0  0
 23 22  2  0  0  0  0
M  END
>  <minimizedAffinity>
-5.75416374

>  <minimizedRMSD>
1.16223478

$$$$
