
 OpenBabel03272506093D

 47 51  0  0  0  0  0  0  0  0999 V2000
   35.1160   28.5630   48.9540 C   0  0  0  0  0  0  0  0  0  0  0  0
   35.9920   28.5340   48.2740 H   0  0  0  0  0  0  0  0  0  0  0  0
   35.2440   27.7090   49.6640 H   0  0  0  0  0  0  0  0  0  0  0  0
   33.8430   28.3520   48.1680 C   0  0  0  0  0  0  0  0  0  0  0  0
   33.8840   28.4860   46.7260 C   0  0  0  0  0  0  0  0  0  0  0  0
   32.1900   28.1500   46.3230 S   0  0  0  0  0  0  0  0  0  0  0  0
   31.6510   27.8770   48.1070 C   0  0  0  0  0  0  0  0  0  0  0  0
   32.6860   28.0550   48.6660 N   0  0  0  0  0  0  0  0  0  0  0  0
   30.3540   27.5420   48.6720 N   0  0  0  0  0  0  0  0  0  0  0  0
   29.4730   26.7990   47.8310 C   0  0  0  0  0  0  0  0  0  0  0  0
   28.0580   26.7740   48.2900 C   0  0  0  0  0  0  0  0  0  0  0  0
   27.7880   27.7350   49.3610 N   0  0  0  0  0  0  0  0  0  0  0  0
   28.7370   27.3810   50.4180 C   0  0  0  0  0  0  0  0  0  0  0  0
   30.0550   27.9800   50.0150 C   0  0  0  0  0  0  0  0  0  0  0  0
   34.7140   28.7200   46.1390 H   0  0  0  0  0  0  0  0  0  0  0  0
   29.8720   25.7880   47.5930 H   0  0  0  0  0  0  0  0  0  0  0  0
   29.4700   27.3190   46.8280 H   0  0  0  0  0  0  0  0  0  0  0  0
   27.3160   27.0250   47.4910 H   0  0  0  0  0  0  0  0  0  0  0  0
   27.8310   25.7390   48.6170 H   0  0  0  0  0  0  0  0  0  0  0  0
   26.8440   27.4820   49.7560 H   0  0  0  0  0  0  0  0  0  0  0  0
   28.4020   27.6560   51.4160 H   0  0  0  0  0  0  0  0  0  0  0  0
   28.8840   26.2650   50.4310 H   0  0  0  0  0  0  0  0  0  0  0  0
   29.9290   29.0860   49.9970 H   0  0  0  0  0  0  0  0  0  0  0  0
   30.8940   27.6930   50.6810 H   0  0  0  0  0  0  0  0  0  0  0  0
   35.0770   29.8440   49.7140 C   0  0  0  0  0  0  0  0  0  0  0  0
   35.2950   29.6800   50.7870 H   0  0  0  0  0  0  0  0  0  0  0  0
   34.1080   30.3230   49.5210 H   0  0  0  0  0  0  0  0  0  0  0  0
   37.5810   32.5770   49.4890 C   0  0  0  0  0  0  0  0  0  0  0  0
   38.1990   32.3460   48.2710 C   0  0  0  0  0  0  0  0  0  0  0  0
   37.7530   31.2520   47.5310 C   0  0  0  0  0  0  0  0  0  0  0  0
   36.7580   30.4730   48.0140 N   0  0  0  0  0  0  0  0  0  0  0  0
   36.1940   30.7550   49.2190 C   0  0  0  0  0  0  0  0  0  0  0  0
   36.6060   31.7870   49.9290 N   0  0  0  0  0  0  0  0  0  0  0  0
   37.9770   33.4410   50.0080 H   0  0  0  0  0  0  0  0  0  0  0  0
   38.9940   32.8870   47.7810 H   0  0  0  0  0  0  0  0  0  0  0  0
   38.2150   30.7940   46.2520 N   0  0  0  0  0  0  0  0  0  0  0  0
   39.4920   30.5120   45.8670 C   0  0  0  0  0  0  0  0  0  0  0  0
   40.3310   30.6150   46.5420 H   0  0  0  0  0  0  0  0  0  0  0  0
   39.4220   30.1170   44.5720 N   0  0  0  0  0  0  0  0  0  0  0  0
   38.1480   30.1460   44.1470 C   0  0  0  0  0  0  0  0  0  0  0  0
   37.4910   29.8620   42.9660 C   0  0  0  0  0  0  0  0  0  0  0  0
   38.0760   29.5240   42.1200 H   0  0  0  0  0  0  0  0  0  0  0  0
   36.1360   30.0060   42.8750 N   0  0  0  0  0  0  0  0  0  0  0  0
   35.4120   30.4310   43.9420 C   0  0  0  0  0  0  0  0  0  0  0  0
   34.3270   30.5220   43.7890 H   0  0  0  0  0  0  0  0  0  0  0  0
   36.0170   30.7190   45.1110 N   0  0  0  0  0  0  0  0  0  0  0  0
   37.3690   30.5770   45.2070 C   0  0  0  0  0  0  0  0  0  0  0  0
  1  3  1  0  0  0  0
  1 25  1  0  0  0  0
  2  1  1  0  0  0  0
  4  8  1  0  0  0  0
  4  1  1  0  0  0  0
  5  4  2  0  0  0  0
  6  5  1  0  0  0  0
  6  7  1  0  0  0  0
  7  8  2  0  0  0  0
  7  9  1  0  0  0  0
  9 14  1  0  0  0  0
 10 11  1  0  0  0  0
 10  9  1  0  0  0  0
 11 19  1  0  0  0  0
 11 12  1  0  0  0  0
 12 20  1  0  0  0  0
 12 13  1  0  0  0  0
 13 22  1  0  0  0  0
 13 21  1  0  0  0  0
 14 13  1  0  0  0  0
 14 24  1  0  0  0  0
 15  5  1  0  0  0  0
 16 10  1  0  0  0  0
 17 10  1  0  0  0  0
 18 11  1  0  0  0  0
 23 14  1  0  0  0  0
 25 26  1  0  0  0  0
 27 25  1  0  0  0  0
 28 33  1  0  0  0  0
 28 34  1  0  0  0  0
 29 28  2  0  0  0  0
 30 31  2  0  0  0  0
 30 29  1  0  0  0  0
 31 32  1  0  0  0  0
 32 25  1  0  0  0  0
 32 33  2  0  0  0  0
 35 29  1  0  0  0  0
 36 30  1  0  0  0  0
 37 36  1  0  0  0  0
 37 38  1  0  0  0  0
 39 37  2  0  0  0  0
 40 39  1  0  0  0  0
 40 47  1  0  0  0  0
 41 40  2  0  0  0  0
 42 41  1  0  0  0  0
 43 41  1  0  0  0  0
 43 44  2  0  0  0  0
 44 46  1  0  0  0  0
 45 44  1  0  0  0  0
 46 47  2  0  0  0  0
 47 36  1  0  0  0  0
M  END
>  <minimizedAffinity>
-6.35588312

>  <minimizedRMSD>
1.10697782

$$$$
