
 OpenBabel03272505113D

 42 46  0  0  0  0  0  0  0  0999 V2000
   33.6580   29.2000   44.4720 Cl  0  0  0  0  0  0  0  0  0  0  0  0
   33.7230   27.9530   45.7100 C   0  0  0  0  0  0  0  0  0  0  0  0
   33.8850   28.1930   47.0790 C   0  0  0  0  0  0  0  0  0  0  0  0
   33.9210   27.1410   47.9500 C   0  0  0  0  0  0  0  0  0  0  0  0
   33.8000   25.8550   47.5060 C   0  0  0  0  0  0  0  0  0  0  0  0
   33.6360   25.5580   46.1520 C   0  0  0  0  0  0  0  0  0  0  0  0
   33.6030   26.6320   45.3040 C   0  0  0  0  0  0  0  0  0  0  0  0
   34.0510   27.4280   48.9910 H   0  0  0  0  0  0  0  0  0  0  0  0
   33.8360   25.0690   48.2480 H   0  0  0  0  0  0  0  0  0  0  0  0
   33.5420   24.5360   45.8280 H   0  0  0  0  0  0  0  0  0  0  0  0
   33.4340   26.3470   43.8970 N   0  0  0  0  0  0  0  0  0  0  0  0
   32.3560   26.2440   43.1010 C   0  0  0  0  0  0  0  0  0  0  0  0
   31.3670   26.3930   43.5350 H   0  0  0  0  0  0  0  0  0  0  0  0
   32.7960   25.9560   41.8550 N   0  0  0  0  0  0  0  0  0  0  0  0
   34.1450   25.8860   41.8980 C   0  0  0  0  0  0  0  0  0  0  0  0
   34.9880   25.6160   40.8450 C   0  0  0  0  0  0  0  0  0  0  0  0
   34.6190   25.4280   39.8430 H   0  0  0  0  0  0  0  0  0  0  0  0
   36.3080   25.6000   41.1380 N   0  0  0  0  0  0  0  0  0  0  0  0
   36.7500   25.8390   42.3970 C   0  0  0  0  0  0  0  0  0  0  0  0
   37.8270   25.8160   42.5910 H   0  0  0  0  0  0  0  0  0  0  0  0
   35.9030   26.0980   43.3970 N   0  0  0  0  0  0  0  0  0  0  0  0
   34.5700   26.1290   43.1770 C   0  0  0  0  0  0  0  0  0  0  0  0
   34.0310   29.9380   47.5080 S   0  0  0  0  0  0  0  0  0  0  0  0
   36.3770   30.9090   45.6930 Cl  0  0  0  0  0  0  0  0  0  0  0  0
   36.6700   30.7430   47.4030 C   0  0  0  0  0  0  0  0  0  0  0  0
   37.9380   31.0540   47.8700 C   0  0  0  0  0  0  0  0  0  0  0  0
   38.1790   30.9250   49.2210 C   0  0  0  0  0  0  0  0  0  0  0  0
   37.1840   30.5030   50.0610 C   0  0  0  0  0  0  0  0  0  0  0  0
   35.9270   30.2060   49.5230 C   0  0  0  0  0  0  0  0  0  0  0  0
   35.6180   30.3110   48.1940 C   0  0  0  0  0  0  0  0  0  0  0  0
   39.1780   31.1750   49.5540 H   0  0  0  0  0  0  0  0  0  0  0  0
   37.3870   30.4070   51.1180 H   0  0  0  0  0  0  0  0  0  0  0  0
   35.1590   29.8730   50.2170 H   0  0  0  0  0  0  0  0  0  0  0  0
   40.1880   33.3100   46.0840 C   0  0  0  0  0  0  0  0  0  0  0  0
   40.8970   32.4550   45.1970 C   0  0  0  0  0  0  0  0  0  0  0  0
   40.5820   31.0960   45.2330 C   0  0  0  0  0  0  0  0  0  0  0  0
   39.6240   30.6560   46.1010 N   0  0  0  0  0  0  0  0  0  0  0  0
   38.9820   31.5080   46.9190 C   0  0  0  0  0  0  0  0  0  0  0  0
   39.2660   32.8100   46.9030 N   0  0  0  0  0  0  0  0  0  0  0  0
   40.4100   34.3600   46.0770 H   0  0  0  0  0  0  0  0  0  0  0  0
   41.6460   32.8340   44.5270 H   0  0  0  0  0  0  0  0  0  0  0  0
   41.0950   30.4180   44.5800 H   0  0  0  0  0  0  0  0  0  0  0  0
  1  2  1  0  0  0  0
  2  3  1  0  0  0  0
  3 23  1  0  0  0  0
  3  4  2  0  0  0  0
  4  8  1  0  0  0  0
  5  4  1  0  0  0  0
  5  9  1  0  0  0  0
  6  5  2  0  0  0  0
  7  2  2  0  0  0  0
  7  6  1  0  0  0  0
 10  6  1  0  0  0  0
 11  7  1  0  0  0  0
 12 13  1  0  0  0  0
 12 11  1  0  0  0  0
 14 15  1  0  0  0  0
 14 12  2  0  0  0  0
 15 22  1  0  0  0  0
 16 18  1  0  0  0  0
 16 15  2  0  0  0  0
 17 16  1  0  0  0  0
 18 19  2  0  0  0  0
 19 20  1  0  0  0  0
 19 21  1  0  0  0  0
 22 21  2  0  0  0  0
 22 11  1  0  0  0  0
 23 30  1  0  0  0  0
 24 25  1  0  0  0  0
 25 26  2  0  0  0  0
 25 30  1  0  0  0  0
 26 27  1  0  0  0  0
 27 31  1  0  0  0  0
 27 28  2  0  0  0  0
 28 32  1  0  0  0  0
 29 28  1  0  0  0  0
 29 33  1  0  0  0  0
 30 29  2  0  0  0  0
 34 39  1  0  0  0  0
 35 36  1  0  0  0  0
 35 34  2  0  0  0  0
 36 37  2  0  0  0  0
 37 38  1  0  0  0  0
 38 26  1  0  0  0  0
 39 38  2  0  0  0  0
 40 34  1  0  0  0  0
 41 35  1  0  0  0  0
 42 36  1  0  0  0  0
M  END
>  <minimizedAffinity>
-5.716362

>  <minimizedRMSD>
1.00621939

$$$$
