
     RDKit          3D

 36 39  0  0  0  0  0  0  0  0999 V2000
   37.8229   30.4940   50.1810 C   0  0  0  0  0  0  0  0  0  0  0  0
   37.3288   30.6906   48.9072 C   0  0  0  0  0  0  0  0  0  0  0  0
   36.0123   30.2908   48.5778 C   0  0  0  0  0  0  0  0  0  0  0  0
   35.2741   29.7132   49.5631 N   0  0  0  0  0  0  0  0  0  0  0  0
   35.8029   29.5337   50.8230 C   0  0  0  0  0  0  0  0  0  0  0  0
   37.0727   29.9242   51.1262 N   0  0  0  0  0  0  0  0  0  0  0  0
   34.9492   28.9162   51.7980 N   0  0  0  0  0  0  0  0  0  0  0  0
   38.2215   33.5818   49.1943 Cl  0  0  0  0  0  0  0  0  0  0  0  0
   38.7136   32.5997   47.8606 C   0  0  0  0  0  0  0  0  0  0  0  0
   38.2184   31.3277   47.9087 C   0  0  0  0  0  0  0  0  0  0  0  0
   38.5737   30.4464   46.8626 C   0  0  0  0  0  0  0  0  0  0  0  0
   39.3729   30.8248   45.8383 C   0  0  0  0  0  0  0  0  0  0  0  0
   39.8603   32.1295   45.8196 C   0  0  0  0  0  0  0  0  0  0  0  0
   40.8935   32.6663   44.5224 Cl  0  0  0  0  0  0  0  0  0  0  0  0
   39.5233   32.9835   46.8235 C   0  0  0  0  0  0  0  0  0  0  0  0
   35.4988   30.5165   47.2407 C   0  0  0  0  0  0  0  0  0  0  0  0
   38.8233   30.7871   50.4679 H   0  0  0  0  0  0  0  0  0  0  0  0
   34.3012   29.4337   52.4507 H   0  0  0  0  0  0  0  0  0  0  0  0
   34.9194   27.8801   51.9218 H   0  0  0  0  0  0  0  0  0  0  0  0
   38.2561   29.4154   46.7979 H   0  0  0  0  0  0  0  0  0  0  0  0
   39.6690   30.1851   45.0182 H   0  0  0  0  0  0  0  0  0  0  0  0
   39.8773   34.0166   46.8587 H   0  0  0  0  0  0  0  0  0  0  0  0
   35.5115   31.6350   47.0824 H   0  0  0  0  0  0  0  0  0  0  0  0
   36.0648   30.1138   46.3962 H   0  0  0  0  0  0  0  0  0  0  0  0
   34.1120   30.0302   47.1559 N   0  0  0  0  0  0  0  0  0  0  0  0
   33.3241   29.7209   48.1993 C   0  0  0  0  0  0  0  0  0  0  0  0
   33.5680   29.7767   49.2357 H   0  0  0  0  0  0  0  0  0  0  0  0
   32.1236   29.3091   47.7559 N   0  0  0  0  0  0  0  0  0  0  0  0
   32.1393   29.3539   46.4189 C   0  0  0  0  0  0  0  0  0  0  0  0
   31.1577   29.0344   45.4944 C   0  0  0  0  0  0  0  0  0  0  0  0
   30.1778   28.6784   45.7974 H   0  0  0  0  0  0  0  0  0  0  0  0
   31.5092   29.1973   44.2054 N   0  0  0  0  0  0  0  0  0  0  0  0
   32.7125   29.6350   43.7997 C   0  0  0  0  0  0  0  0  0  0  0  0
   32.8740   29.7242   42.7294 H   0  0  0  0  0  0  0  0  0  0  0  0
   33.6804   29.9500   44.7112 N   0  0  0  0  0  0  0  0  0  0  0  0
   33.4053   29.8130   46.0339 C   0  0  0  0  0  0  0  0  0  0  0  0
  1  6  2  0
  2  1  1  0
  3  2  2  0
  3  4  1  0
  4  5  2  0
  5  6  1  0
  5  7  1  0
  9 10  2  0
  9  8  1  0
 10  2  1  0
 11 10  1  0
 12 11  2  0
 13 12  1  0
 13 15  2  0
 14 13  1  0
 15  9  1  0
 16  3  1  0
  1 17  1  0
  7 18  1  0
  7 19  1  0
 11 20  1  0
 12 21  1  0
 15 22  1  0
 16 23  1  0
 16 24  1  0
 25 26  1  0
 26 27  1  0
 26 28  2  0
 28 29  1  0
 29 30  2  0
 30 31  1  0
 30 32  1  0
 32 33  2  0
 33 34  1  0
 33 35  1  0
 35 36  2  0
 36 25  1  0
 36 29  1  0
 16 25  1  0
M  ISO  8  17  14  20  14  21  14  22  14  23   8  24   8  27  15  31  16
M  ISO  1  34  16
M  END
>  <DihAtoms>  (1) 
2,15,24,25

>  <DihDeg>  (1) 
-90.35963839015024

$$$$
