
 OpenBabel03272508373D

 47 51  0  0  1  0  0  0  0  0999 V2000
   40.1770   31.7860   43.5230 N   0  0  0  0  0  0  0  0  0  0  0  0
   39.5670   32.9080   42.9370 C   0  0  0  0  0  0  0  0  0  0  0  0
   38.1600   32.7460   42.4930 C   0  0  0  0  0  0  0  0  0  0  0  0
   37.9150   31.5040   41.8910 O   0  0  0  0  0  0  0  0  0  0  0  0
   38.3050   30.4880   42.7090 C   0  0  0  0  0  0  0  0  0  0  0  0
   39.7510   30.5570   43.0220 C   0  0  1  0  0  0  0  0  0  0  0  0
   39.7600   33.9020   43.2920 H   0  0  0  0  0  0  0  0  0  0  0  0
   40.1800   32.9400   41.9720 H   0  0  0  0  0  0  0  0  0  0  0  0
   37.3590   33.2120   43.0260 H   0  0  0  0  0  0  0  0  0  0  0  0
   38.0990   33.3980   41.5360 H   0  0  0  0  0  0  0  0  0  0  0  0
   38.2430   29.5970   42.0240 H   0  0  0  0  0  0  0  0  0  0  0  0
   37.6330   30.1910   43.5060 H   0  0  0  0  0  0  0  0  0  0  0  0
   39.9070   29.8040   43.8530 H   0  0  0  0  0  0  0  0  0  0  0  0
   40.6030   30.0670   41.9410 N   0  0  0  0  0  0  0  0  0  0  0  0
   41.5070   29.0680   42.0230 C   0  0  0  0  0  0  0  0  0  0  0  0
   41.7620   28.4620   42.8760 H   0  0  0  0  0  0  0  0  0  0  0  0
   42.1260   28.8690   40.8390 N   0  0  0  0  0  0  0  0  0  0  0  0
   41.6240   29.7460   39.9680 C   0  0  0  0  0  0  0  0  0  0  0  0
   41.8350   30.0420   38.6340 C   0  0  0  0  0  0  0  0  0  0  0  0
   42.5650   29.4750   38.0860 H   0  0  0  0  0  0  0  0  0  0  0  0
   41.1290   31.0370   38.0230 N   0  0  0  0  0  0  0  0  0  0  0  0
   40.2250   31.7380   38.7040 C   0  0  0  0  0  0  0  0  0  0  0  0
   39.6880   32.5210   38.1730 H   0  0  0  0  0  0  0  0  0  0  0  0
   39.9950   31.4700   40.0200 N   0  0  0  0  0  0  0  0  0  0  0  0
   40.6910   30.4810   40.6430 C   0  0  0  0  0  0  0  0  0  0  0  0
   40.5890   31.8930   44.8550 C   0  0  0  0  0  0  0  0  0  0  0  0
   41.6890   32.1140   44.8440 H   0  0  0  0  0  0  0  0  0  0  0  0
   40.5580   30.8480   45.2880 H   0  0  0  0  0  0  0  0  0  0  0  0
   39.8390   32.7610   45.7380 C   0  0  0  0  0  0  0  0  0  0  0  0
   39.3540   33.6760   45.4250 H   0  0  0  0  0  0  0  0  0  0  0  0
   40.5750   33.1330   46.5200 H   0  0  0  0  0  0  0  0  0  0  0  0
   37.6990   31.0540   48.0630 C   0  0  0  0  0  0  0  0  0  0  0  0
   36.9630   30.9390   46.9000 C   0  0  0  0  0  0  0  0  0  0  0  0
   37.6950   31.5730   45.8900 C   0  0  0  0  0  0  0  0  0  0  0  0
   38.8080   32.0300   46.4640 N   0  0  0  0  0  0  0  0  0  0  0  0
   38.8130   31.7210   47.7630 N   0  0  0  0  0  0  0  0  0  0  0  0
   35.9810   30.4350   46.8110 H   0  0  0  0  0  0  0  0  0  0  0  0
   37.2620   31.5620   44.9580 H   0  0  0  0  0  0  0  0  0  0  0  0
   37.3920   30.0930   51.6830 C   0  0  0  0  0  0  0  0  0  0  0  0
   37.9340   30.6650   50.5290 C   0  0  0  0  0  0  0  0  0  0  0  0
   37.2620   30.5190   49.3260 C   0  0  0  0  0  0  0  0  0  0  0  0
   36.1060   29.8090   49.3850 N   0  0  0  0  0  0  0  0  0  0  0  0
   35.6000   29.2660   50.5120 C   0  0  0  0  0  0  0  0  0  0  0  0
   36.2510   29.4140   51.6530 N   0  0  0  0  0  0  0  0  0  0  0  0
   37.9700   30.2450   52.6020 H   0  0  0  0  0  0  0  0  0  0  0  0
   38.8490   31.2180   50.5170 H   0  0  0  0  0  0  0  0  0  0  0  0
   34.6700   28.7150   50.4730 H   0  0  0  0  0  0  0  0  0  0  0  0
  1 26  1  0  0  0  0
  2  7  1  0  0  0  0
  2  1  1  0  0  0  0
  3  2  1  0  0  0  0
  3  9  1  0  0  0  0
  4  3  1  0  0  0  0
  4  5  1  0  0  0  0
  5  6  1  0  0  0  0
  5 12  1  0  0  0  0
  6  1  1  0  0  0  0
  6 13  1  1  0  0  0
  8  2  1  0  0  0  0
 10  3  1  0  0  0  0
 11  5  1  0  0  0  0
 14 15  1  0  0  0  0
 14  6  1  0  0  0  0
 15 16  1  0  0  0  0
 17 15  2  0  0  0  0
 18 25  1  0  0  0  0
 18 17  1  0  0  0  0
 19 18  2  0  0  0  0
 20 19  1  0  0  0  0
 21 19  1  0  0  0  0
 21 22  2  0  0  0  0
 22 24  1  0  0  0  0
 23 22  1  0  0  0  0
 24 25  2  0  0  0  0
 25 14  1  0  0  0  0
 26 28  1  0  0  0  0
 26 29  1  0  0  0  0
 27 26  1  0  0  0  0
 29 35  1  0  0  0  0
 29 31  1  0  0  0  0
 30 29  1  0  0  0  0
 32 41  1  0  0  0  0
 33 32  1  0  0  0  0
 34 35  1  0  0  0  0
 34 33  2  0  0  0  0
 35 36  1  0  0  0  0
 36 32  2  0  0  0  0
 37 33  1  0  0  0  0
 38 34  1  0  0  0  0
 39 45  1  0  0  0  0
 40 39  2  0  0  0  0
 41 42  2  0  0  0  0
 41 40  1  0  0  0  0
 42 43  1  0  0  0  0
 43 44  2  0  0  0  0
 44 39  1  0  0  0  0
 46 40  1  0  0  0  0
 47 43  1  0  0  0  0
M  END
>  <minimizedAffinity>
-6.13004923

>  <minimizedRMSD>
0.634960294

$$$$
