
 OpenBabel03272503353D

 44 48  0  0  1  0  0  0  0  0999 V2000
   35.7250   29.4260   31.9650 C   0  0  0  0  0  0  0  0  0  0  0  0
   36.7670   29.9230   31.1670 C   0  0  0  0  0  0  0  0  0  0  0  0
   37.3760   29.0340   30.2770 C   0  0  0  0  0  0  0  0  0  0  0  0
   36.9020   27.7400   30.2540 N   0  0  0  0  0  0  0  0  0  0  0  0
   35.9110   27.3130   31.0290 C   0  0  0  0  0  0  0  0  0  0  0  0
   35.3170   28.1540   31.8890 N   0  0  0  0  0  0  0  0  0  0  0  0
   37.1320   30.9400   31.1930 H   0  0  0  0  0  0  0  0  0  0  0  0
   38.1830   29.3290   29.6280 H   0  0  0  0  0  0  0  0  0  0  0  0
   35.1030   30.3460   32.8780 N   0  0  0  0  0  0  0  0  0  0  0  0
   34.8430   30.1330   34.2700 C   0  0  0  0  0  0  0  0  0  0  0  0
   34.8810   31.5530   34.8290 C   0  0  2  0  0  0  0  0  0  0  0  0
   35.2970   32.4520   33.6720 C   0  0  0  0  0  0  0  0  0  0  0  0
   34.6190   31.6750   32.5560 C   0  0  0  0  0  0  0  0  0  0  0  0
   33.8490   29.6840   34.4720 H   0  0  0  0  0  0  0  0  0  0  0  0
   35.6790   29.5850   34.7120 H   0  0  0  0  0  0  0  0  0  0  0  0
   33.8590   31.8690   35.1250 H   0  0  0  0  0  0  0  0  0  0  0  0
   34.9140   33.4670   33.7680 H   0  0  0  0  0  0  0  0  0  0  0  0
   36.3840   32.3770   33.5080 H   0  0  0  0  0  0  0  0  0  0  0  0
   34.9800   32.0260   31.5710 H   0  0  0  0  0  0  0  0  0  0  0  0
   33.5240   31.7300   32.6520 H   0  0  0  0  0  0  0  0  0  0  0  0
   35.8110   31.6880   36.0010 C   0  0  0  0  0  0  0  0  0  0  0  0
   36.6300   32.7660   35.7370 F   0  0  0  0  0  0  0  0  0  0  0  0
   36.6210   30.5680   35.9990 F   0  0  0  0  0  0  0  0  0  0  0  0
   35.1640   31.8160   37.1980 F   0  0  0  0  0  0  0  0  0  0  0  0
   35.3480   25.6260   30.9470 S   0  0  0  0  0  0  0  0  0  0  0  0
   36.2140   24.4540   31.7870 C   0  0  0  0  0  0  0  0  0  0  0  0
   36.3140   23.1030   31.9360 C   0  0  0  0  0  0  0  0  0  0  0  0
   37.1790   22.4630   32.7650 C   0  0  0  0  0  0  0  0  0  0  0  0
   38.0480   23.4000   33.5290 C   0  0  0  0  0  0  0  0  0  0  0  0
   37.5270   25.0570   32.9760 S   0  0  0  0  0  0  0  0  0  0  0  0
   35.6040   22.6010   31.3000 H   0  0  0  0  0  0  0  0  0  0  0  0
   37.2450   21.3990   32.8730 H   0  0  0  0  0  0  0  0  0  0  0  0
   38.9940   22.9420   34.4250 N   0  0  0  0  0  0  0  0  0  0  0  0
   40.1650   22.2540   34.2830 C   0  0  0  0  0  0  0  0  0  0  0  0
   40.5340   21.9490   33.3040 H   0  0  0  0  0  0  0  0  0  0  0  0
   40.6920   22.0690   35.5060 N   0  0  0  0  0  0  0  0  0  0  0  0
   39.8850   22.6220   36.4380 C   0  0  0  0  0  0  0  0  0  0  0  0
   40.0540   22.6560   37.8060 C   0  0  0  0  0  0  0  0  0  0  0  0
   40.9160   22.2060   38.2820 H   0  0  0  0  0  0  0  0  0  0  0  0
   39.0880   23.2820   38.5360 N   0  0  0  0  0  0  0  0  0  0  0  0
   38.0330   23.8230   37.8610 C   0  0  0  0  0  0  0  0  0  0  0  0
   37.2090   24.3450   38.3650 H   0  0  0  0  0  0  0  0  0  0  0  0
   37.8840   23.7810   36.5250 N   0  0  0  0  0  0  0  0  0  0  0  0
   38.8160   23.1720   35.7590 C   0  0  0  0  0  0  0  0  0  0  0  0
  1  9  1  0  0  0  0
  2  7  1  0  0  0  0
  2  1  2  0  0  0  0
  3  2  1  0  0  0  0
  4  3  2  0  0  0  0
  4  5  1  0  0  0  0
  5  6  2  0  0  0  0
  6  1  1  0  0  0  0
  8  3  1  0  0  0  0
  9 10  1  0  0  0  0
 10 14  1  0  0  0  0
 10 15  1  0  0  0  0
 10 11  1  0  0  0  0
 11 16  1  1  0  0  0
 11 21  1  0  0  0  0
 12 17  1  0  0  0  0
 12 11  1  0  0  0  0
 13 20  1  0  0  0  0
 13  9  1  0  0  0  0
 13 12  1  0  0  0  0
 18 12  1  0  0  0  0
 19 13  1  0  0  0  0
 21 24  1  0  0  0  0
 22 21  1  0  0  0  0
 23 21  1  0  0  0  0
 25  5  1  0  0  0  0
 25 26  1  0  0  0  0
 26 27  2  0  0  0  0
 26 30  1  0  0  0  0
 27 28  1  0  0  0  0
 28 32  1  0  0  0  0
 28 29  2  0  0  0  0
 29 33  1  0  0  0  0
 30 29  1  0  0  0  0
 31 27  1  0  0  0  0
 33 44  1  0  0  0  0
 34 33  1  0  0  0  0
 34 36  2  0  0  0  0
 35 34  1  0  0  0  0
 36 37  1  0  0  0  0
 37 38  1  0  0  0  0
 38 39  1  0  0  0  0
 38 40  2  0  0  0  0
 41 42  1  0  0  0  0
 41 40  1  0  0  0  0
 43 41  2  0  0  0  0
 44 37  2  0  0  0  0
 44 43  1  0  0  0  0
M  END
>  <minimizedAffinity>
-6.76155376

$$$$

 OpenBabel03272503353D

 44 48  0  0  1  0  0  0  0  0999 V2000
   37.8290   24.1690   33.1550 C   0  0  0  0  0  0  0  0  0  0  0  0
   36.9580   23.1760   32.6800 C   0  0  0  0  0  0  0  0  0  0  0  0
   36.1470   23.5020   31.5900 C   0  0  0  0  0  0  0  0  0  0  0  0
   36.2680   24.7720   31.0670 N   0  0  0  0  0  0  0  0  0  0  0  0
   37.1080   25.6800   31.5510 C   0  0  0  0  0  0  0  0  0  0  0  0
   37.8930   25.3840   32.5980 N   0  0  0  0  0  0  0  0  0  0  0  0
   36.8690   22.1830   33.0960 H   0  0  0  0  0  0  0  0  0  0  0  0
   35.4490   22.8020   31.1600 H   0  0  0  0  0  0  0  0  0  0  0  0
   38.6600   23.8280   34.2780 N   0  0  0  0  0  0  0  0  0  0  0  0
   38.9140   24.6300   35.4360 C   0  0  0  0  0  0  0  0  0  0  0  0
   39.1960   23.5780   36.5060 C   0  0  2  0  0  0  0  0  0  0  0  0
   38.9440   22.2280   35.8470 C   0  0  0  0  0  0  0  0  0  0  0  0
   39.4050   22.5940   34.4460 C   0  0  0  0  0  0  0  0  0  0  0  0
   39.7960   25.2940   35.3310 H   0  0  0  0  0  0  0  0  0  0  0  0
   37.9960   25.1490   35.7210 H   0  0  0  0  0  0  0  0  0  0  0  0
   40.2710   23.6000   36.7820 H   0  0  0  0  0  0  0  0  0  0  0  0
   39.5350   21.4270   36.2870 H   0  0  0  0  0  0  0  0  0  0  0  0
   37.8600   22.0310   35.7920 H   0  0  0  0  0  0  0  0  0  0  0  0
   39.0960   21.8150   33.7260 H   0  0  0  0  0  0  0  0  0  0  0  0
   40.4890   22.7820   34.4300 H   0  0  0  0  0  0  0  0  0  0  0  0
   38.3540   23.7640   37.7350 C   0  0  0  0  0  0  0  0  0  0  0  0
   37.1910   23.0490   37.5340 F   0  0  0  0  0  0  0  0  0  0  0  0
   37.9950   25.0980   37.7750 F   0  0  0  0  0  0  0  0  0  0  0  0
   38.9870   23.3980   38.8900 F   0  0  0  0  0  0  0  0  0  0  0  0
   37.2150   27.3030   30.8280 S   0  0  0  0  0  0  0  0  0  0  0  0
   36.5890   28.6040   31.6910 C   0  0  0  0  0  0  0  0  0  0  0  0
   36.1660   29.8900   31.5270 C   0  0  0  0  0  0  0  0  0  0  0  0
   35.7000   30.6980   32.5140 C   0  0  0  0  0  0  0  0  0  0  0  0
   35.6880   30.0360   33.8470 C   0  0  0  0  0  0  0  0  0  0  0  0
   36.3360   28.3620   33.5290 S   0  0  0  0  0  0  0  0  0  0  0  0
   36.2510   30.1850   30.4940 H   0  0  0  0  0  0  0  0  0  0  0  0
   35.3720   31.7080   32.3690 H   0  0  0  0  0  0  0  0  0  0  0  0
   35.2490   30.6950   34.9780 N   0  0  0  0  0  0  0  0  0  0  0  0
   35.8760   31.4520   35.9260 C   0  0  0  0  0  0  0  0  0  0  0  0
   36.9470   31.6470   35.8860 H   0  0  0  0  0  0  0  0  0  0  0  0
   34.9530   31.8530   36.8180 N   0  0  0  0  0  0  0  0  0  0  0  0
   33.7410   31.3710   36.4670 C   0  0  0  0  0  0  0  0  0  0  0  0
   32.5310   31.5450   37.1070 C   0  0  0  0  0  0  0  0  0  0  0  0
   32.4490   32.1300   38.0150 H   0  0  0  0  0  0  0  0  0  0  0  0
   31.4400   30.9490   36.5470 N   0  0  0  0  0  0  0  0  0  0  0  0
   31.6280   30.2290   35.4040 C   0  0  0  0  0  0  0  0  0  0  0  0
   30.8100   29.7150   34.8840 H   0  0  0  0  0  0  0  0  0  0  0  0
   32.8150   30.0690   34.7930 N   0  0  0  0  0  0  0  0  0  0  0  0
   33.9250   30.6420   35.3100 C   0  0  0  0  0  0  0  0  0  0  0  0
  1  9  1  0  0  0  0
  2  7  1  0  0  0  0
  2  1  1  0  0  0  0
  3  2  2  0  0  0  0
  4  5  2  0  0  0  0
  4  3  1  0  0  0  0
  5  6  1  0  0  0  0
  6  1  2  0  0  0  0
  8  3  1  0  0  0  0
  9 13  1  0  0  0  0
  9 10  1  0  0  0  0
 10 15  1  0  0  0  0
 10 11  1  0  0  0  0
 11 16  1  1  0  0  0
 11 21  1  0  0  0  0
 12 17  1  0  0  0  0
 12 11  1  0  0  0  0
 13 12  1  0  0  0  0
 14 10  1  0  0  0  0
 18 12  1  0  0  0  0
 19 13  1  0  0  0  0
 20 13  1  0  0  0  0
 21 23  1  0  0  0  0
 21 24  1  0  0  0  0
 22 21  1  0  0  0  0
 25  5  1  0  0  0  0
 25 26  1  0  0  0  0
 26 30  1  0  0  0  0
 27 26  2  0  0  0  0
 27 28  1  0  0  0  0
 28 29  2  0  0  0  0
 29 33  1  0  0  0  0
 30 29  1  0  0  0  0
 31 27  1  0  0  0  0
 32 28  1  0  0  0  0
 33 44  1  0  0  0  0
 33 34  1  0  0  0  0
 34 36  2  0  0  0  0
 35 34  1  0  0  0  0
 37 36  1  0  0  0  0
 37 38  1  0  0  0  0
 38 39  1  0  0  0  0
 40 38  2  0  0  0  0
 41 40  1  0  0  0  0
 42 41  1  0  0  0  0
 43 44  1  0  0  0  0
 43 41  2  0  0  0  0
 44 37  2  0  0  0  0
M  END
>  <minimizedAffinity>
-6.70866156

$$$$

 OpenBabel03272503353D

 44 48  0  0  1  0  0  0  0  0999 V2000
   42.3030   23.7580   35.9320 C   0  0  0  0  0  0  0  0  0  0  0  0
   43.4940   23.2700   36.4930 C   0  0  0  0  0  0  0  0  0  0  0  0
   44.6720   23.9590   36.1950 C   0  0  0  0  0  0  0  0  0  0  0  0
   44.5710   25.0630   35.3760 N   0  0  0  0  0  0  0  0  0  0  0  0
   43.4190   25.4880   34.8670 C   0  0  0  0  0  0  0  0  0  0  0  0
   42.2790   24.8370   35.1430 N   0  0  0  0  0  0  0  0  0  0  0  0
   43.5640   22.4030   37.1340 H   0  0  0  0  0  0  0  0  0  0  0  0
   45.6320   23.6560   36.5810 H   0  0  0  0  0  0  0  0  0  0  0  0
   41.0930   23.0440   36.2420 N   0  0  0  0  0  0  0  0  0  0  0  0
   40.6190   22.6760   37.5410 C   0  0  0  0  0  0  0  0  0  0  0  0
   39.1070   22.6390   37.3380 C   0  0  2  0  0  0  0  0  0  0  0  0
   38.8590   23.1270   35.9160 C   0  0  0  0  0  0  0  0  0  0  0  0
   40.1180   22.5590   35.2830 C   0  0  0  0  0  0  0  0  0  0  0  0
   40.9710   21.6790   37.8760 H   0  0  0  0  0  0  0  0  0  0  0  0
   40.8350   23.4850   38.2440 H   0  0  0  0  0  0  0  0  0  0  0  0
   38.7470   21.5890   37.3790 H   0  0  0  0  0  0  0  0  0  0  0  0
   37.9490   22.7170   35.4810 H   0  0  0  0  0  0  0  0  0  0  0  0
   38.9410   24.2260   35.8760 H   0  0  0  0  0  0  0  0  0  0  0  0
   40.2680   22.9910   34.2760 H   0  0  0  0  0  0  0  0  0  0  0  0
   40.0870   21.4590   35.2730 H   0  0  0  0  0  0  0  0  0  0  0  0
   38.3670   23.4660   38.3480 C   0  0  0  0  0  0  0  0  0  0  0  0
   38.0430   24.6560   37.7290 F   0  0  0  0  0  0  0  0  0  0  0  0
   39.2690   23.7770   39.3480 F   0  0  0  0  0  0  0  0  0  0  0  0
   37.2670   22.8410   38.8650 F   0  0  0  0  0  0  0  0  0  0  0  0
   43.3590   26.9230   33.8150 S   0  0  0  0  0  0  0  0  0  0  0  0
   42.0530   27.0910   32.7680 C   0  0  0  0  0  0  0  0  0  0  0  0
   41.7590   27.2880   31.4520 C   0  0  0  0  0  0  0  0  0  0  0  0
   40.5090   27.3870   30.9300 C   0  0  0  0  0  0  0  0  0  0  0  0
   39.4400   27.2550   31.9590 C   0  0  0  0  0  0  0  0  0  0  0  0
   40.3440   27.0100   33.5230 S   0  0  0  0  0  0  0  0  0  0  0  0
   42.6640   27.3560   30.8700 H   0  0  0  0  0  0  0  0  0  0  0  0
   40.2930   27.5440   29.8930 H   0  0  0  0  0  0  0  0  0  0  0  0
   38.1020   27.3280   31.6250 N   0  0  0  0  0  0  0  0  0  0  0  0
   37.2510   28.3680   31.3840 C   0  0  0  0  0  0  0  0  0  0  0  0
   37.5850   29.4050   31.4350 H   0  0  0  0  0  0  0  0  0  0  0  0
   36.0400   27.8600   31.0980 N   0  0  0  0  0  0  0  0  0  0  0  0
   36.0890   26.5100   31.1500 C   0  0  0  0  0  0  0  0  0  0  0  0
   35.0720   25.6060   30.9250 C   0  0  0  0  0  0  0  0  0  0  0  0
   34.0720   25.9310   30.6680 H   0  0  0  0  0  0  0  0  0  0  0  0
   35.3800   24.2830   31.0400 N   0  0  0  0  0  0  0  0  0  0  0  0
   36.6630   23.9570   31.3690 C   0  0  0  0  0  0  0  0  0  0  0  0
   37.0010   22.9190   31.4830 H   0  0  0  0  0  0  0  0  0  0  0  0
   37.6430   24.8510   31.5850 N   0  0  0  0  0  0  0  0  0  0  0  0
   37.3860   26.1740   31.4810 C   0  0  0  0  0  0  0  0  0  0  0  0
  1  9  1  0  0  0  0
  1  2  1  0  0  0  0
  2  7  1  0  0  0  0
  3  2  2  0  0  0  0
  3  8  1  0  0  0  0
  4  3  1  0  0  0  0
  5  6  1  0  0  0  0
  5  4  2  0  0  0  0
  6  1  2  0  0  0  0
  9 10  1  0  0  0  0
 10 14  1  0  0  0  0
 10 15  1  0  0  0  0
 11 16  1  1  0  0  0
 11 10  1  0  0  0  0
 11 21  1  0  0  0  0
 12 11  1  0  0  0  0
 13 12  1  0  0  0  0
 13  9  1  0  0  0  0
 17 12  1  0  0  0  0
 18 12  1  0  0  0  0
 19 13  1  0  0  0  0
 20 13  1  0  0  0  0
 21 24  1  0  0  0  0
 21 23  1  0  0  0  0
 22 21  1  0  0  0  0
 25  5  1  0  0  0  0
 26 30  1  0  0  0  0
 26 25  1  0  0  0  0
 27 26  2  0  0  0  0
 28 27  1  0  0  0  0
 28 29  2  0  0  0  0
 29 30  1  0  0  0  0
 31 27  1  0  0  0  0
 32 28  1  0  0  0  0
 33 29  1  0  0  0  0
 34 35  1  0  0  0  0
 34 33  1  0  0  0  0
 36 37  1  0  0  0  0
 36 34  2  0  0  0  0
 37 44  1  0  0  0  0
 38 40  1  0  0  0  0
 38 37  2  0  0  0  0
 39 38  1  0  0  0  0
 40 41  2  0  0  0  0
 41 42  1  0  0  0  0
 41 43  1  0  0  0  0
 44 43  2  0  0  0  0
 44 33  1  0  0  0  0
M  END
>  <minimizedAffinity>
-6.50958633

$$$$

 OpenBabel03272503353D

 44 48  0  0  1  0  0  0  0  0999 V2000
   39.9760   25.2990   34.2840 C   0  0  0  0  0  0  0  0  0  0  0  0
   41.1990   25.8880   34.6420 C   0  0  0  0  0  0  0  0  0  0  0  0
   41.6270   26.9850   33.8900 C   0  0  0  0  0  0  0  0  0  0  0  0
   40.8140   27.4000   32.8570 N   0  0  0  0  0  0  0  0  0  0  0  0
   39.6630   26.8100   32.5540 C   0  0  0  0  0  0  0  0  0  0  0  0
   39.2380   25.7560   33.2670 N   0  0  0  0  0  0  0  0  0  0  0  0
   41.8300   25.5550   35.4530 H   0  0  0  0  0  0  0  0  0  0  0  0
   42.5520   27.4990   34.0930 H   0  0  0  0  0  0  0  0  0  0  0  0
   39.5410   24.1700   35.0620 N   0  0  0  0  0  0  0  0  0  0  0  0
   40.0170   23.7790   36.3540 C   0  0  0  0  0  0  0  0  0  0  0  0
   38.8040   23.0670   36.9470 C   0  0  2  0  0  0  0  0  0  0  0  0
   37.6770   23.2390   35.9370 C   0  0  0  0  0  0  0  0  0  0  0  0
   38.5260   23.2070   34.6770 C   0  0  0  0  0  0  0  0  0  0  0  0
   40.8750   23.0780   36.3170 H   0  0  0  0  0  0  0  0  0  0  0  0
   40.1980   24.6740   36.9550 H   0  0  0  0  0  0  0  0  0  0  0  0
   39.0050   21.9770   37.0160 H   0  0  0  0  0  0  0  0  0  0  0  0
   36.9510   22.4290   35.9730 H   0  0  0  0  0  0  0  0  0  0  0  0
   37.2510   24.2520   36.0170 H   0  0  0  0  0  0  0  0  0  0  0  0
   37.9330   23.5470   33.8070 H   0  0  0  0  0  0  0  0  0  0  0  0
   38.9650   22.2090   34.5280 H   0  0  0  0  0  0  0  0  0  0  0  0
   38.4260   23.5980   38.3000 C   0  0  0  0  0  0  0  0  0  0  0  0
   37.3290   22.8740   38.7200 F   0  0  0  0  0  0  0  0  0  0  0  0
   37.9920   24.8970   38.1110 F   0  0  0  0  0  0  0  0  0  0  0  0
   39.4470   23.5560   39.2070 F   0  0  0  0  0  0  0  0  0  0  0  0
   38.6600   27.3990   31.2060 S   0  0  0  0  0  0  0  0  0  0  0  0
   37.2870   28.3000   31.5670 C   0  0  0  0  0  0  0  0  0  0  0  0
   36.4650   29.2510   31.0390 C   0  0  0  0  0  0  0  0  0  0  0  0
   35.3820   29.7880   31.6580 C   0  0  0  0  0  0  0  0  0  0  0  0
   35.1560   29.2280   33.0200 C   0  0  0  0  0  0  0  0  0  0  0  0
   36.5030   28.0190   33.2420 S   0  0  0  0  0  0  0  0  0  0  0  0
   36.7930   29.5240   30.0500 H   0  0  0  0  0  0  0  0  0  0  0  0
   34.7460   30.5370   31.2310 H   0  0  0  0  0  0  0  0  0  0  0  0
   34.1050   29.6480   33.8090 N   0  0  0  0  0  0  0  0  0  0  0  0
   32.7590   29.4230   33.7760 C   0  0  0  0  0  0  0  0  0  0  0  0
   32.3020   28.7940   33.0110 H   0  0  0  0  0  0  0  0  0  0  0  0
   32.1970   30.0880   34.8010 N   0  0  0  0  0  0  0  0  0  0  0  0
   33.1540   30.7400   35.4980 C   0  0  0  0  0  0  0  0  0  0  0  0
   33.0080   31.5360   36.6150 C   0  0  0  0  0  0  0  0  0  0  0  0
   32.0370   31.7150   37.0600 H   0  0  0  0  0  0  0  0  0  0  0  0
   34.1400   32.0870   37.1370 N   0  0  0  0  0  0  0  0  0  0  0  0
   35.3240   31.8130   36.5170 C   0  0  0  0  0  0  0  0  0  0  0  0
   36.2840   32.2120   36.8670 H   0  0  0  0  0  0  0  0  0  0  0  0
   35.4480   31.0340   35.4280 N   0  0  0  0  0  0  0  0  0  0  0  0
   34.3540   30.4650   34.8750 C   0  0  0  0  0  0  0  0  0  0  0  0
  1  2  1  0  0  0  0
  1  9  1  0  0  0  0
  2  7  1  0  0  0  0
  3  8  1  0  0  0  0
  3  2  2  0  0  0  0
  4  3  1  0  0  0  0
  5  4  2  0  0  0  0
  5  6  1  0  0  0  0
  6  1  2  0  0  0  0
  9 10  1  0  0  0  0
 10 11  1  0  0  0  0
 10 15  1  0  0  0  0
 11 16  1  1  0  0  0
 11 21  1  0  0  0  0
 12 17  1  0  0  0  0
 12 18  1  0  0  0  0
 12 11  1  0  0  0  0
 13  9  1  0  0  0  0
 13 12  1  0  0  0  0
 14 10  1  0  0  0  0
 19 13  1  0  0  0  0
 20 13  1  0  0  0  0
 21 22  1  0  0  0  0
 21 24  1  0  0  0  0
 23 21  1  0  0  0  0
 25 26  1  0  0  0  0
 25  5  1  0  0  0  0
 26 30  1  0  0  0  0
 27 26  2  0  0  0  0
 27 28  1  0  0  0  0
 28 29  2  0  0  0  0
 29 30  1  0  0  0  0
 29 33  1  0  0  0  0
 31 27  1  0  0  0  0
 32 28  1  0  0  0  0
 33 44  1  0  0  0  0
 34 33  1  0  0  0  0
 34 36  2  0  0  0  0
 35 34  1  0  0  0  0
 36 37  1  0  0  0  0
 37 38  1  0  0  0  0
 38 39  1  0  0  0  0
 38 40  2  0  0  0  0
 41 42  1  0  0  0  0
 41 40  1  0  0  0  0
 43 41  2  0  0  0  0
 44 43  1  0  0  0  0
 44 37  2  0  0  0  0
M  END
>  <minimizedAffinity>
-6.48376322

$$$$

 OpenBabel03272503353D

 44 48  0  0  1  0  0  0  0  0999 V2000
   39.4470   24.5090   33.7240 C   0  0  0  0  0  0  0  0  0  0  0  0
   40.7520   24.7920   33.2900 C   0  0  0  0  0  0  0  0  0  0  0  0
   40.8970   25.7070   32.2440 C   0  0  0  0  0  0  0  0  0  0  0  0
   39.7470   26.2590   31.7230 N   0  0  0  0  0  0  0  0  0  0  0  0
   38.5300   25.9610   32.1670 C   0  0  0  0  0  0  0  0  0  0  0  0
   38.3740   25.0840   33.1700 N   0  0  0  0  0  0  0  0  0  0  0  0
   41.6480   24.3530   33.7040 H   0  0  0  0  0  0  0  0  0  0  0  0
   41.8600   25.9820   31.8470 H   0  0  0  0  0  0  0  0  0  0  0  0
   39.3050   23.5670   34.8000 N   0  0  0  0  0  0  0  0  0  0  0  0
   39.8640   23.6690   36.1140 C   0  0  0  0  0  0  0  0  0  0  0  0
   38.8650   22.8790   36.9560 C   0  0  2  0  0  0  0  0  0  0  0  0
   37.7300   22.4950   36.0160 C   0  0  0  0  0  0  0  0  0  0  0  0
   38.5590   22.3230   34.7540 C   0  0  0  0  0  0  0  0  0  0  0  0
   40.8680   23.2090   36.2060 H   0  0  0  0  0  0  0  0  0  0  0  0
   39.8180   24.7110   36.4440 H   0  0  0  0  0  0  0  0  0  0  0  0
   39.3280   21.9300   37.2980 H   0  0  0  0  0  0  0  0  0  0  0  0
   37.2260   21.5780   36.3140 H   0  0  0  0  0  0  0  0  0  0  0  0
   37.0660   23.3600   35.8530 H   0  0  0  0  0  0  0  0  0  0  0  0
   37.9000   22.2600   33.8680 H   0  0  0  0  0  0  0  0  0  0  0  0
   39.2320   21.4560   34.8460 H   0  0  0  0  0  0  0  0  0  0  0  0
   38.3680   23.6550   38.1420 C   0  0  0  0  0  0  0  0  0  0  0  0
   39.3600   23.5980   39.1000 F   0  0  0  0  0  0  0  0  0  0  0  0
   37.2890   22.9570   38.6510 F   0  0  0  0  0  0  0  0  0  0  0  0
   38.0160   24.9410   37.8440 F   0  0  0  0  0  0  0  0  0  0  0  0
   37.0850   26.7130   31.4480 S   0  0  0  0  0  0  0  0  0  0  0  0
   36.5020   28.1350   32.1300 C   0  0  0  0  0  0  0  0  0  0  0  0
   36.0620   29.3800   31.7890 C   0  0  0  0  0  0  0  0  0  0  0  0
   35.6500   30.3350   32.6610 C   0  0  0  0  0  0  0  0  0  0  0  0
   35.7210   29.8930   34.0820 C   0  0  0  0  0  0  0  0  0  0  0  0
   36.3600   28.1870   33.9940 S   0  0  0  0  0  0  0  0  0  0  0  0
   36.0830   29.5070   30.7190 H   0  0  0  0  0  0  0  0  0  0  0  0
   35.3060   31.3100   32.3790 H   0  0  0  0  0  0  0  0  0  0  0  0
   35.3440   30.7240   35.1180 N   0  0  0  0  0  0  0  0  0  0  0  0
   36.0220   31.6140   35.9000 C   0  0  0  0  0  0  0  0  0  0  0  0
   37.0900   31.7920   35.7710 H   0  0  0  0  0  0  0  0  0  0  0  0
   35.1510   32.1570   36.7680 N   0  0  0  0  0  0  0  0  0  0  0  0
   33.9210   31.6360   36.5640 C   0  0  0  0  0  0  0  0  0  0  0  0
   32.7490   31.9170   37.2340 C   0  0  0  0  0  0  0  0  0  0  0  0
   32.7170   32.6370   38.0420 H   0  0  0  0  0  0  0  0  0  0  0  0
   31.6290   31.2500   36.8350 N   0  0  0  0  0  0  0  0  0  0  0  0
   31.7540   30.3590   35.8100 C   0  0  0  0  0  0  0  0  0  0  0  0
   30.9080   29.7770   35.4220 H   0  0  0  0  0  0  0  0  0  0  0  0
   32.9050   30.0960   35.1670 N   0  0  0  0  0  0  0  0  0  0  0  0
   34.0410   30.7330   35.5260 C   0  0  0  0  0  0  0  0  0  0  0  0
  1  9  1  0  0  0  0
  2  7  1  0  0  0  0
  2  1  1  0  0  0  0
  3  2  2  0  0  0  0
  4  5  2  0  0  0  0
  4  3  1  0  0  0  0
  5  6  1  0  0  0  0
  6  1  2  0  0  0  0
  8  3  1  0  0  0  0
  9 10  1  0  0  0  0
 10 14  1  0  0  0  0
 10 15  1  0  0  0  0
 10 11  1  0  0  0  0
 11 16  1  1  0  0  0
 11 21  1  0  0  0  0
 12 17  1  0  0  0  0
 12 11  1  0  0  0  0
 13  9  1  0  0  0  0
 13 20  1  0  0  0  0
 13 12  1  0  0  0  0
 18 12  1  0  0  0  0
 19 13  1  0  0  0  0
 21 23  1  0  0  0  0
 21 22  1  0  0  0  0
 24 21  1  0  0  0  0
 25 26  1  0  0  0  0
 25  5  1  0  0  0  0
 26 30  1  0  0  0  0
 27 26  2  0  0  0  0
 27 28  1  0  0  0  0
 28 29  2  0  0  0  0
 29 33  1  0  0  0  0
 30 29  1  0  0  0  0
 31 27  1  0  0  0  0
 32 28  1  0  0  0  0
 33 44  1  0  0  0  0
 33 34  1  0  0  0  0
 34 36  2  0  0  0  0
 35 34  1  0  0  0  0
 37 36  1  0  0  0  0
 37 38  1  0  0  0  0
 38 39  1  0  0  0  0
 40 38  2  0  0  0  0
 41 40  1  0  0  0  0
 42 41  1  0  0  0  0
 43 44  1  0  0  0  0
 43 41  2  0  0  0  0
 44 37  2  0  0  0  0
M  END
>  <minimizedAffinity>
-6.46642256

$$$$

 OpenBabel03272503353D

 44 48  0  0  1  0  0  0  0  0999 V2000
   36.3000   31.1900   31.6780 C   0  0  0  0  0  0  0  0  0  0  0  0
   36.5180   31.7520   30.4110 C   0  0  0  0  0  0  0  0  0  0  0  0
   36.9520   30.8970   29.3940 C   0  0  0  0  0  0  0  0  0  0  0  0
   37.1280   29.5690   29.7170 N   0  0  0  0  0  0  0  0  0  0  0  0
   36.9090   29.0800   30.9330 C   0  0  0  0  0  0  0  0  0  0  0  0
   36.4930   29.8880   31.9200 N   0  0  0  0  0  0  0  0  0  0  0  0
   36.3780   32.7950   30.1670 H   0  0  0  0  0  0  0  0  0  0  0  0
   37.1450   31.2420   28.3920 H   0  0  0  0  0  0  0  0  0  0  0  0
   35.8550   32.0750   32.7200 N   0  0  0  0  0  0  0  0  0  0  0  0
   34.8060   31.8350   33.6640 C   0  0  0  0  0  0  0  0  0  0  0  0
   35.2470   32.6730   34.8610 C   0  0  2  0  0  0  0  0  0  0  0  0
   36.6190   33.2300   34.5050 C   0  0  0  0  0  0  0  0  0  0  0  0
   36.3930   33.3910   33.0110 C   0  0  0  0  0  0  0  0  0  0  0  0
   33.8110   32.1810   33.3180 H   0  0  0  0  0  0  0  0  0  0  0  0
   34.8320   30.7860   33.9710 H   0  0  0  0  0  0  0  0  0  0  0  0
   34.5710   33.5460   34.9790 H   0  0  0  0  0  0  0  0  0  0  0  0
   36.8330   34.1750   35.0010 H   0  0  0  0  0  0  0  0  0  0  0  0
   37.3880   32.4500   34.6370 H   0  0  0  0  0  0  0  0  0  0  0  0
   37.3540   33.5750   32.4970 H   0  0  0  0  0  0  0  0  0  0  0  0
   35.6470   34.1750   32.8130 H   0  0  0  0  0  0  0  0  0  0  0  0
   35.2800   31.8830   36.1380 C   0  0  0  0  0  0  0  0  0  0  0  0
   36.4450   31.1440   36.1200 F   0  0  0  0  0  0  0  0  0  0  0  0
   34.2380   30.9770   36.0750 F   0  0  0  0  0  0  0  0  0  0  0  0
   35.1820   32.6570   37.2600 F   0  0  0  0  0  0  0  0  0  0  0  0
   37.1570   27.3520   31.2830 S   0  0  0  0  0  0  0  0  0  0  0  0
   37.5580   26.9050   32.8540 C   0  0  0  0  0  0  0  0  0  0  0  0
   37.8820   27.4380   34.0660 C   0  0  0  0  0  0  0  0  0  0  0  0
   38.1720   26.7290   35.1870 C   0  0  0  0  0  0  0  0  0  0  0  0
   38.1010   25.2570   34.9750 C   0  0  0  0  0  0  0  0  0  0  0  0
   37.6360   25.0730   33.2210 S   0  0  0  0  0  0  0  0  0  0  0  0
   37.8790   28.5150   34.0160 H   0  0  0  0  0  0  0  0  0  0  0  0
   38.4260   27.1620   36.1330 H   0  0  0  0  0  0  0  0  0  0  0  0
   38.3620   24.3650   35.9960 N   0  0  0  0  0  0  0  0  0  0  0  0
   37.6150   23.8780   37.0290 C   0  0  0  0  0  0  0  0  0  0  0  0
   36.5800   24.1840   37.1820 H   0  0  0  0  0  0  0  0  0  0  0  0
   38.3790   23.0230   37.7320 N   0  0  0  0  0  0  0  0  0  0  0  0
   39.6080   22.9480   37.1750 C   0  0  0  0  0  0  0  0  0  0  0  0
   40.6890   22.1930   37.5810 C   0  0  0  0  0  0  0  0  0  0  0  0
   40.6350   21.5480   38.4480 H   0  0  0  0  0  0  0  0  0  0  0  0
   41.8300   22.2940   36.8410 N   0  0  0  0  0  0  0  0  0  0  0  0
   41.8150   23.1290   35.7630 C   0  0  0  0  0  0  0  0  0  0  0  0
   42.6860   23.2730   35.1110 H   0  0  0  0  0  0  0  0  0  0  0  0
   40.7520   23.8590   35.3810 N   0  0  0  0  0  0  0  0  0  0  0  0
   39.5980   23.7920   36.0820 C   0  0  0  0  0  0  0  0  0  0  0  0
  1  6  1  0  0  0  0
  1  9  1  0  0  0  0
  2  1  2  0  0  0  0
  3  4  2  0  0  0  0
  3  2  1  0  0  0  0
  4  5  1  0  0  0  0
  5 25  1  0  0  0  0
  5  6  2  0  0  0  0
  7  2  1  0  0  0  0
  8  3  1  0  0  0  0
  9 13  1  0  0  0  0
  9 10  1  0  0  0  0
 10 15  1  0  0  0  0
 10 11  1  0  0  0  0
 11 16  1  1  0  0  0
 11 21  1  0  0  0  0
 12 18  1  0  0  0  0
 12 11  1  0  0  0  0
 12 17  1  0  0  0  0
 13 12  1  0  0  0  0
 14 10  1  0  0  0  0
 19 13  1  0  0  0  0
 20 13  1  0  0  0  0
 21 24  1  0  0  0  0
 22 21  1  0  0  0  0
 23 21  1  0  0  0  0
 25 26  1  0  0  0  0
 26 30  1  0  0  0  0
 26 27  2  0  0  0  0
 27 28  1  0  0  0  0
 28 32  1  0  0  0  0
 29 28  2  0  0  0  0
 29 33  1  0  0  0  0
 30 29  1  0  0  0  0
 31 27  1  0  0  0  0
 33 44  1  0  0  0  0
 33 34  1  0  0  0  0
 34 35  1  0  0  0  0
 34 36  2  0  0  0  0
 37 38  1  0  0  0  0
 37 36  1  0  0  0  0
 38 39  1  0  0  0  0
 40 38  2  0  0  0  0
 41 40  1  0  0  0  0
 42 41  1  0  0  0  0
 43 41  2  0  0  0  0
 43 44  1  0  0  0  0
 44 37  2  0  0  0  0
M  END
>  <minimizedAffinity>
-6.4224205

$$$$

 OpenBabel03272503353D

 44 48  0  0  1  0  0  0  0  0999 V2000
   37.5950   24.4990   33.2270 C   0  0  0  0  0  0  0  0  0  0  0  0
   36.9670   23.4730   32.5040 C   0  0  0  0  0  0  0  0  0  0  0  0
   36.0960   23.8510   31.4780 C   0  0  0  0  0  0  0  0  0  0  0  0
   35.9250   25.2010   31.2590 N   0  0  0  0  0  0  0  0  0  0  0  0
   36.5420   26.1380   31.9710 C   0  0  0  0  0  0  0  0  0  0  0  0
   37.3800   25.7920   32.9590 N   0  0  0  0  0  0  0  0  0  0  0  0
   37.1070   22.4170   32.6830 H   0  0  0  0  0  0  0  0  0  0  0  0
   35.5700   23.1320   30.8720 H   0  0  0  0  0  0  0  0  0  0  0  0
   38.4900   24.1040   34.2810 N   0  0  0  0  0  0  0  0  0  0  0  0
   38.7720   24.8230   35.4860 C   0  0  0  0  0  0  0  0  0  0  0  0
   39.1380   23.7030   36.4560 C   0  0  2  0  0  0  0  0  0  0  0  0
   38.9000   22.3990   35.7060 C   0  0  0  0  0  0  0  0  0  0  0  0
   39.2820   22.8880   34.3190 C   0  0  0  0  0  0  0  0  0  0  0  0
   39.6250   25.5250   35.3940 H   0  0  0  0  0  0  0  0  0  0  0  0
   37.8510   25.2850   35.8520 H   0  0  0  0  0  0  0  0  0  0  0  0
   40.2240   23.7430   36.6850 H   0  0  0  0  0  0  0  0  0  0  0  0
   39.5380   21.5890   36.0540 H   0  0  0  0  0  0  0  0  0  0  0  0
   37.8230   22.1680   35.6850 H   0  0  0  0  0  0  0  0  0  0  0  0
   38.9650   22.1560   33.5540 H   0  0  0  0  0  0  0  0  0  0  0  0
   40.3580   23.1170   34.2690 H   0  0  0  0  0  0  0  0  0  0  0  0
   38.3500   23.7630   37.7330 C   0  0  0  0  0  0  0  0  0  0  0  0
   37.1760   23.0740   37.5090 F   0  0  0  0  0  0  0  0  0  0  0  0
   38.0000   25.0860   37.9240 F   0  0  0  0  0  0  0  0  0  0  0  0
   39.0300   23.2800   38.8160 F   0  0  0  0  0  0  0  0  0  0  0  0
   36.2750   27.8660   31.6350 S   0  0  0  0  0  0  0  0  0  0  0  0
   35.1130   28.6840   32.5340 C   0  0  0  0  0  0  0  0  0  0  0  0
   33.8020   29.0570   32.4980 C   0  0  0  0  0  0  0  0  0  0  0  0
   33.1570   29.7650   33.4610 C   0  0  0  0  0  0  0  0  0  0  0  0
   34.0380   30.1140   34.6100 C   0  0  0  0  0  0  0  0  0  0  0  0
   35.6570   29.3970   34.1760 S   0  0  0  0  0  0  0  0  0  0  0  0
   33.3370   28.7100   31.5900 H   0  0  0  0  0  0  0  0  0  0  0  0
   32.1260   30.0520   33.4180 H   0  0  0  0  0  0  0  0  0  0  0  0
   33.5660   30.8330   35.6900 N   0  0  0  0  0  0  0  0  0  0  0  0
   32.5990   30.5960   36.6240 C   0  0  0  0  0  0  0  0  0  0  0  0
   32.0080   29.6800   36.6170 H   0  0  0  0  0  0  0  0  0  0  0  0
   32.5580   31.6480   37.4600 N   0  0  0  0  0  0  0  0  0  0  0  0
   33.4800   32.5630   37.0860 C   0  0  0  0  0  0  0  0  0  0  0  0
   33.7660   33.7790   37.6700 C   0  0  0  0  0  0  0  0  0  0  0  0
   33.2320   34.1280   38.5450 H   0  0  0  0  0  0  0  0  0  0  0  0
   34.7520   34.5270   37.0960 N   0  0  0  0  0  0  0  0  0  0  0  0
   35.3750   34.0170   35.9960 C   0  0  0  0  0  0  0  0  0  0  0  0
   36.1790   34.5470   35.4690 H   0  0  0  0  0  0  0  0  0  0  0  0
   35.0850   32.8280   35.4400 N   0  0  0  0  0  0  0  0  0  0  0  0
   34.1150   32.0510   35.9730 C   0  0  0  0  0  0  0  0  0  0  0  0
  1  9  1  0  0  0  0
  2  7  1  0  0  0  0
  2  1  2  0  0  0  0
  3  2  1  0  0  0  0
  4  3  2  0  0  0  0
  4  5  1  0  0  0  0
  5  6  2  0  0  0  0
  6  1  1  0  0  0  0
  8  3  1  0  0  0  0
  9 13  1  0  0  0  0
  9 10  1  0  0  0  0
 10 15  1  0  0  0  0
 10 11  1  0  0  0  0
 11 16  1  1  0  0  0
 11 21  1  0  0  0  0
 12 17  1  0  0  0  0
 12 11  1  0  0  0  0
 13 12  1  0  0  0  0
 14 10  1  0  0  0  0
 18 12  1  0  0  0  0
 19 13  1  0  0  0  0
 20 13  1  0  0  0  0
 21 23  1  0  0  0  0
 21 24  1  0  0  0  0
 22 21  1  0  0  0  0
 25  5  1  0  0  0  0
 25 26  1  0  0  0  0
 26 30  1  0  0  0  0
 27 26  2  0  0  0  0
 27 28  1  0  0  0  0
 28 29  2  0  0  0  0
 29 33  1  0  0  0  0
 30 29  1  0  0  0  0
 31 27  1  0  0  0  0
 32 28  1  0  0  0  0
 33 44  1  0  0  0  0
 33 34  1  0  0  0  0
 34 36  2  0  0  0  0
 35 34  1  0  0  0  0
 37 36  1  0  0  0  0
 37 38  1  0  0  0  0
 38 39  1  0  0  0  0
 40 38  2  0  0  0  0
 41 40  1  0  0  0  0
 42 41  1  0  0  0  0
 43 44  1  0  0  0  0
 43 41  2  0  0  0  0
 44 37  2  0  0  0  0
M  END
>  <minimizedAffinity>
-6.30637217

$$$$

 OpenBabel03272503353D

 44 48  0  0  1  0  0  0  0  0999 V2000
   37.8530   23.1560   35.1690 C   0  0  0  0  0  0  0  0  0  0  0  0
   37.9100   22.7860   36.5220 C   0  0  0  0  0  0  0  0  0  0  0  0
   38.0660   23.8100   37.4610 C   0  0  0  0  0  0  0  0  0  0  0  0
   38.1490   25.1000   36.9830 N   0  0  0  0  0  0  0  0  0  0  0  0
   38.0890   25.4030   35.6900 C   0  0  0  0  0  0  0  0  0  0  0  0
   37.9410   24.4310   34.7770 N   0  0  0  0  0  0  0  0  0  0  0  0
   37.8450   21.7720   36.8880 H   0  0  0  0  0  0  0  0  0  0  0  0
   38.1210   23.6190   38.5200 H   0  0  0  0  0  0  0  0  0  0  0  0
   37.6930   22.0980   34.2080 N   0  0  0  0  0  0  0  0  0  0  0  0
   36.5540   21.2460   34.0470 C   0  0  0  0  0  0  0  0  0  0  0  0
   36.6220   20.8870   32.5650 C   0  0  2  0  0  0  0  0  0  0  0  0
   37.7700   21.7030   31.9850 C   0  0  0  0  0  0  0  0  0  0  0  0
   38.6670   21.6950   33.2120 C   0  0  0  0  0  0  0  0  0  0  0  0
   36.6050   20.3190   34.6540 H   0  0  0  0  0  0  0  0  0  0  0  0
   35.6430   21.8300   34.2010 H   0  0  0  0  0  0  0  0  0  0  0  0
   36.9020   19.8190   32.4490 H   0  0  0  0  0  0  0  0  0  0  0  0
   38.2340   21.2260   31.1230 H   0  0  0  0  0  0  0  0  0  0  0  0
   37.4480   22.7450   31.8240 H   0  0  0  0  0  0  0  0  0  0  0  0
   39.4810   22.4340   33.0950 H   0  0  0  0  0  0  0  0  0  0  0  0
   39.0410   20.6790   33.4140 H   0  0  0  0  0  0  0  0  0  0  0  0
   35.3310   21.1520   31.8460 C   0  0  0  0  0  0  0  0  0  0  0  0
   35.5910   21.0190   30.4980 F   0  0  0  0  0  0  0  0  0  0  0  0
   35.0220   22.4830   32.0580 F   0  0  0  0  0  0  0  0  0  0  0  0
   34.3050   20.3460   32.2520 F   0  0  0  0  0  0  0  0  0  0  0  0
   38.2030   27.0920   35.1410 S   0  0  0  0  0  0  0  0  0  0  0  0
   37.1110   27.6280   33.9790 C   0  0  0  0  0  0  0  0  0  0  0  0
   36.7000   27.3780   32.7040 C   0  0  0  0  0  0  0  0  0  0  0  0
   35.7340   28.0630   32.0390 C   0  0  0  0  0  0  0  0  0  0  0  0
   35.1330   29.1550   32.8530 C   0  0  0  0  0  0  0  0  0  0  0  0
   36.0140   29.0690   34.4470 S   0  0  0  0  0  0  0  0  0  0  0  0
   37.2520   26.5520   32.2860 H   0  0  0  0  0  0  0  0  0  0  0  0
   35.4230   27.8550   31.0350 H   0  0  0  0  0  0  0  0  0  0  0  0
   34.1340   29.9650   32.3520 N   0  0  0  0  0  0  0  0  0  0  0  0
   34.0990   30.9140   31.3710 C   0  0  0  0  0  0  0  0  0  0  0  0
   34.9860   31.1720   30.7920 H   0  0  0  0  0  0  0  0  0  0  0  0
   32.8460   31.3970   31.3000 N   0  0  0  0  0  0  0  0  0  0  0  0
   32.0680   30.7790   32.2170 C   0  0  0  0  0  0  0  0  0  0  0  0
   30.7280   30.9770   32.4760 C   0  0  0  0  0  0  0  0  0  0  0  0
   30.1440   31.7000   31.9210 H   0  0  0  0  0  0  0  0  0  0  0  0
   30.1680   30.2200   33.4630 N   0  0  0  0  0  0  0  0  0  0  0  0
   30.9720   29.3330   34.1150 C   0  0  0  0  0  0  0  0  0  0  0  0
   30.6080   28.6830   34.9210 H   0  0  0  0  0  0  0  0  0  0  0  0
   32.2780   29.1520   33.8490 N   0  0  0  0  0  0  0  0  0  0  0  0
   32.8770   29.8780   32.8790 C   0  0  0  0  0  0  0  0  0  0  0  0
  1  2  1  0  0  0  0
  2  7  1  0  0  0  0
  2  3  2  0  0  0  0
  3  8  1  0  0  0  0
  4  3  1  0  0  0  0
  5  4  2  0  0  0  0
  6  1  2  0  0  0  0
  6  5  1  0  0  0  0
  9  1  1  0  0  0  0
 10 15  1  0  0  0  0
 10  9  1  0  0  0  0
 10 14  1  0  0  0  0
 11 16  1  6  0  0  0
 11 10  1  0  0  0  0
 12 11  1  0  0  0  0
 12 13  1  0  0  0  0
 13 20  1  0  0  0  0
 13  9  1  0  0  0  0
 17 12  1  0  0  0  0
 18 12  1  0  0  0  0
 19 13  1  0  0  0  0
 21 23  1  0  0  0  0
 21 24  1  0  0  0  0
 21 11  1  0  0  0  0
 22 21  1  0  0  0  0
 25  5  1  0  0  0  0
 26 30  1  0  0  0  0
 26 25  1  0  0  0  0
 27 26  2  0  0  0  0
 28 27  1  0  0  0  0
 28 29  2  0  0  0  0
 29 30  1  0  0  0  0
 31 27  1  0  0  0  0
 32 28  1  0  0  0  0
 33 29  1  0  0  0  0
 33 44  1  0  0  0  0
 34 33  1  0  0  0  0
 35 34  1  0  0  0  0
 36 34  2  0  0  0  0
 36 37  1  0  0  0  0
 37 38  2  0  0  0  0
 37 44  1  0  0  0  0
 38 40  1  0  0  0  0
 39 38  1  0  0  0  0
 40 41  2  0  0  0  0
 41 42  1  0  0  0  0
 43 41  1  0  0  0  0
 44 43  2  0  0  0  0
M  END
>  <minimizedAffinity>
-6.1932044

$$$$

 OpenBabel03272503353D

 44 48  0  0  1  0  0  0  0  0999 V2000
   34.3460   30.5920   34.3670 C   0  0  0  0  0  0  0  0  0  0  0  0
   33.7740   31.3330   33.3210 C   0  0  0  0  0  0  0  0  0  0  0  0
   34.0830   30.9450   32.0150 C   0  0  0  0  0  0  0  0  0  0  0  0
   34.9230   29.8640   31.8580 N   0  0  0  0  0  0  0  0  0  0  0  0
   35.4420   29.1910   32.8800 C   0  0  0  0  0  0  0  0  0  0  0  0
   35.1550   29.5510   34.1400 N   0  0  0  0  0  0  0  0  0  0  0  0
   33.1160   32.1800   33.4540 H   0  0  0  0  0  0  0  0  0  0  0  0
   33.6900   31.4570   31.1520 H   0  0  0  0  0  0  0  0  0  0  0  0
   34.0240   30.9960   35.7090 N   0  0  0  0  0  0  0  0  0  0  0  0
   34.8250   31.8010   36.5810 C   0  0  0  0  0  0  0  0  0  0  0  0
   33.7750   32.4690   37.4640 C   0  0  2  0  0  0  0  0  0  0  0  0
   32.4220   32.0520   36.9020 C   0  0  0  0  0  0  0  0  0  0  0  0
   32.8150   30.6590   36.4360 C   0  0  0  0  0  0  0  0  0  0  0  0
   35.5190   31.2120   37.2140 H   0  0  0  0  0  0  0  0  0  0  0  0
   35.3110   32.5870   35.9980 H   0  0  0  0  0  0  0  0  0  0  0  0
   33.8310   32.0560   38.4930 H   0  0  0  0  0  0  0  0  0  0  0  0
   31.6380   32.0360   37.6570 H   0  0  0  0  0  0  0  0  0  0  0  0
   32.1900   32.6430   36.0010 H   0  0  0  0  0  0  0  0  0  0  0  0
   32.0310   30.2410   35.7780 H   0  0  0  0  0  0  0  0  0  0  0  0
   33.0390   30.0100   37.2970 H   0  0  0  0  0  0  0  0  0  0  0  0
   33.9230   33.9620   37.5090 C   0  0  0  0  0  0  0  0  0  0  0  0
   32.7170   34.4950   37.1010 F   0  0  0  0  0  0  0  0  0  0  0  0
   34.8510   34.3010   36.5420 F   0  0  0  0  0  0  0  0  0  0  0  0
   34.3040   34.4360   38.7330 F   0  0  0  0  0  0  0  0  0  0  0  0
   36.5210   27.8030   32.6060 S   0  0  0  0  0  0  0  0  0  0  0  0
   37.3190   27.1380   33.9290 C   0  0  0  0  0  0  0  0  0  0  0  0
   37.8160   27.4720   35.1540 C   0  0  0  0  0  0  0  0  0  0  0  0
   38.4470   26.6240   36.0060 C   0  0  0  0  0  0  0  0  0  0  0  0
   38.5570   25.2390   35.4700 C   0  0  0  0  0  0  0  0  0  0  0  0
   37.7540   25.3220   33.8350 S   0  0  0  0  0  0  0  0  0  0  0  0
   37.6380   28.5150   35.3610 H   0  0  0  0  0  0  0  0  0  0  0  0
   38.8340   26.9020   36.9660 H   0  0  0  0  0  0  0  0  0  0  0  0
   39.1670   24.2310   36.1890 N   0  0  0  0  0  0  0  0  0  0  0  0
   38.7610   23.4390   37.2240 C   0  0  0  0  0  0  0  0  0  0  0  0
   37.7650   23.5300   37.6580 H   0  0  0  0  0  0  0  0  0  0  0  0
   39.7730   22.6120   37.5400 N   0  0  0  0  0  0  0  0  0  0  0  0
   40.8280   22.8540   36.7300 C   0  0  0  0  0  0  0  0  0  0  0  0
   42.0590   22.2320   36.7190 C   0  0  0  0  0  0  0  0  0  0  0  0
   42.2990   21.4370   37.4130 H   0  0  0  0  0  0  0  0  0  0  0  0
   42.9630   22.6620   35.7930 N   0  0  0  0  0  0  0  0  0  0  0  0
   42.5830   23.6690   34.9550 C   0  0  0  0  0  0  0  0  0  0  0  0
   43.2440   24.0790   34.1800 H   0  0  0  0  0  0  0  0  0  0  0  0
   41.3780   24.2640   34.9800 N   0  0  0  0  0  0  0  0  0  0  0  0
   40.4480   23.8720   35.8790 C   0  0  0  0  0  0  0  0  0  0  0  0
  1  9  1  0  0  0  0
  2  7  1  0  0  0  0
  2  1  2  0  0  0  0
  3  2  1  0  0  0  0
  4  3  2  0  0  0  0
  4  5  1  0  0  0  0
  5  6  2  0  0  0  0
  6  1  1  0  0  0  0
  8  3  1  0  0  0  0
  9 13  1  0  0  0  0
  9 10  1  0  0  0  0
 10 14  1  0  0  0  0
 10 11  1  0  0  0  0
 11 21  1  0  0  0  0
 11 16  1  1  0  0  0
 12 11  1  0  0  0  0
 12 17  1  0  0  0  0
 13 12  1  0  0  0  0
 13 20  1  0  0  0  0
 15 10  1  0  0  0  0
 18 12  1  0  0  0  0
 19 13  1  0  0  0  0
 21 24  1  0  0  0  0
 22 21  1  0  0  0  0
 23 21  1  0  0  0  0
 25  5  1  0  0  0  0
 25 26  1  0  0  0  0
 26 27  2  0  0  0  0
 27 31  1  0  0  0  0
 27 28  1  0  0  0  0
 28 32  1  0  0  0  0
 29 28  2  0  0  0  0
 29 33  1  0  0  0  0
 30 26  1  0  0  0  0
 30 29  1  0  0  0  0
 33 34  1  0  0  0  0
 34 36  2  0  0  0  0
 34 35  1  0  0  0  0
 37 36  1  0  0  0  0
 38 37  1  0  0  0  0
 38 39  1  0  0  0  0
 40 38  2  0  0  0  0
 41 43  2  0  0  0  0
 41 40  1  0  0  0  0
 42 41  1  0  0  0  0
 43 44  1  0  0  0  0
 44 33  1  0  0  0  0
 44 37  2  0  0  0  0
M  END
>  <minimizedAffinity>
-6.18788195

$$$$
