
     RDKit          3D

 23 25  0  0  0  0  0  0  0  0999 V2000
   36.6247   29.7582   51.2605 C   0  0  0  0  0  0  0  0  0  0  0  0
   37.3822   30.1174   50.1295 C   0  0  0  0  0  0  0  0  0  0  0  0
   36.8036   29.7938   48.8731 C   0  0  0  0  0  0  0  0  0  0  0  0
   35.5865   29.1741   48.8548 N   0  0  0  0  0  0  0  0  0  0  0  0
   34.9219   28.8619   49.9736 C   0  0  0  0  0  0  0  0  0  0  0  0
   35.4234   29.1454   51.1929 N   0  0  0  0  0  0  0  0  0  0  0  0
   38.6457   30.7633   50.2606 N   0  0  0  0  0  0  0  0  0  0  0  0
   37.0359   29.9903   52.2485 H   0  0  0  0  0  0  0  0  0  0  0  0
   37.3465   30.0496   47.9949 H   0  0  0  0  0  0  0  0  0  0  0  0
   38.6871   31.5993   50.9106 H   0  0  0  0  0  0  0  0  0  0  0  0
   39.4702   30.4065   49.7296 H   0  0  0  0  0  0  0  0  0  0  0  0
   33.6714   28.2195   49.7088 N   0  0  0  0  0  0  0  0  0  0  0  0
   32.7251   27.8471   50.5933 C   0  0  0  0  0  0  0  0  0  0  0  0
   32.8240   28.0088   51.6724 H   0  0  0  0  0  0  0  0  0  0  0  0
   31.6986   27.2739   49.9385 N   0  0  0  0  0  0  0  0  0  0  0  0
   31.9732   27.2695   48.6085 C   0  0  0  0  0  0  0  0  0  0  0  0
   31.2117   26.7855   47.5621 C   0  0  0  0  0  0  0  0  0  0  0  0
   30.2617   26.3347   47.7164 H   0  0  0  0  0  0  0  0  0  0  0  0
   31.7702   26.9303   46.3250 N   0  0  0  0  0  0  0  0  0  0  0  0
   32.9839   27.5124   46.1872 C   0  0  0  0  0  0  0  0  0  0  0  0
   33.3986   27.6111   45.1829 H   0  0  0  0  0  0  0  0  0  0  0  0
   33.6716   27.9601   47.2329 N   0  0  0  0  0  0  0  0  0  0  0  0
   33.2273   27.8732   48.4870 C   0  0  0  0  0  0  0  0  0  0  0  0
  2  7  1  0
  2  1  2  0
  3  2  1  0
  4  3  2  0
  4  5  1  0
  5  6  2  0
  6  1  1  0
  1  8  1  0
  3  9  1  0
  7 10  1  0
  7 11  1  0
 12 13  1  0
 13 14  1  0
 13 15  2  0
 15 16  1  0
 16 17  2  0
 17 18  1  0
 17 19  1  0
 19 20  2  0
 20 21  1  0
 20 22  1  0
 22 23  2  0
 23 12  1  0
 23 16  1  0
  5 12  1  0
M  ISO  5   8  14   9  14  14  15  18  16  21  16
M  END
>  <DihAtoms>  (1) 
3,4,11,12

>  <DihDeg>  (1) 
-130.73653459445242

$$$$
