REMARK  Name = 
REMARK  4 active torsions:
REMARK  status: ('A' for Active; 'I' for Inactive)
REMARK    1  A    between atoms: C_1  and  O_12
REMARK    2  A    between atoms: C_2  and  C_8
REMARK    3  A    between atoms: O_12  and  C_15
REMARK    4  A    between atoms: C_19  and  N_32
REMARK                            x       y       z     vdW  Elec       q    Type
REMARK                         _______ _______ _______ _____ _____    ______ ____
ROOT
ATOM      1 CL   UNL     1      40.947  31.253  45.374  0.00  0.00    +0.000 Cl
ATOM      2  C   UNL     1      39.367  30.696  44.905  0.00  0.00    +0.000 A 
ATOM      3  C   UNL     1      38.325  31.241  45.634  0.00  0.00    +0.000 A 
ATOM      4  C   UNL     1      37.063  30.797  45.265  0.00  0.00    +0.000 A 
ATOM      5  C   UNL     1      36.852  29.886  44.256  0.00  0.00    +0.000 A 
ATOM      6  C   UNL     1      37.933  29.389  43.577  0.00  0.00    +0.000 A 
ATOM      7  C   UNL     1      39.231  29.779  43.881  0.00  0.00    +0.000 A 
ATOM      8  H   UNL     1      36.136  31.116  45.726  0.00  0.00    +0.000 HD
ATOM      9  H   UNL     1      35.882  29.523  43.949  0.00  0.00    +0.000 HD
ATOM     10  H   UNL     1      37.881  28.661  42.758  0.00  0.00    +0.000 HD
ENDROOT
BRANCH   7  11
ATOM     11  N   UNL     1      40.422  29.328  43.242  0.00  0.00    +0.000 N 
ATOM     12  C   UNL     1      40.928  28.085  43.141  0.00  0.00    +0.000 A 
ATOM     13  H   UNL     1      40.471  27.190  43.560  0.00  0.00    +0.000 HD
ATOM     14  N   UNL     1      42.071  28.193  42.440  0.00  0.00    +0.000 NA
ATOM     15  C   UNL     1      42.276  29.477  42.108  0.00  0.00    +0.000 A 
ATOM     16  C   UNL     1      43.282  30.136  41.398  0.00  0.00    +0.000 A 
ATOM     17  H   UNL     1      44.110  29.564  40.996  0.00  0.00    +0.000 HD
ATOM     18  N   UNL     1      43.255  31.482  41.196  0.00  0.00    +0.000 NA
ATOM     19  C   UNL     1      42.212  32.159  41.710  0.00  0.00    +0.000 A 
ATOM     20  H   UNL     1      42.033  33.236  41.641  0.00  0.00    +0.000 HD
ATOM     21  N   UNL     1      41.224  31.557  42.399  0.00  0.00    +0.000 NA
ATOM     22  C   UNL     1      41.212  30.225  42.623  0.00  0.00    +0.000 A 
ENDBRANCH   7  11
BRANCH   3  23
ATOM     23  O   UNL     1      38.277  32.130  46.647  0.00  0.00    +0.000 OA
BRANCH  23  24
ATOM     24  C   UNL     1      38.956  32.367  47.794  0.00  0.00    +0.000 C 
ATOM     25  C   UNL     1      38.007  32.742  48.974  0.00  0.00    +0.000 C 
ATOM     26  C   UNL     1      38.900  33.544  49.797  0.00  0.00    +0.000 C 
ATOM     27  O   UNL     1      39.724  34.275  48.954  0.00  0.00    +0.000 OA
ATOM     28  C   UNL     1      39.616  33.773  47.697  0.00  0.00    +0.000 C 
ATOM     29  H   UNL     1      39.710  31.664  48.140  0.00  0.00    +0.000 HD
ATOM     30  H   UNL     1      37.227  33.371  48.495  0.00  0.00    +0.000 HD
ATOM     31  H   UNL     1      39.561  33.013  50.485  0.00  0.00    +0.000 HD
ATOM     32  H   UNL     1      38.300  34.279  50.382  0.00  0.00    +0.000 HD
ATOM     33  H   UNL     1      40.626  33.647  47.245  0.00  0.00    +0.000 HD
ATOM     34  H   UNL     1      38.996  34.367  47.004  0.00  0.00    +0.000 HD
BRANCH  25  37
ATOM     35  C   UNL     1      37.358  29.699  51.086  0.00  0.00    +0.000 A 
ATOM     36  C   UNL     1      38.037  30.835  50.563  0.00  0.00    +0.000 A 
ATOM     37  C   UNL     1      37.371  31.585  49.553  0.00  0.00    +0.000 A 
ATOM     38  N   UNL     1      36.124  31.186  49.135  0.00  0.00    +0.000 NA
ATOM     39  C   UNL     1      35.529  30.110  49.657  0.00  0.00    +0.000 A 
ATOM     40  N   UNL     1      36.126  29.362  50.625  0.00  0.00    +0.000 NA
ATOM     41  H   UNL     1      37.869  29.135  51.852  0.00  0.00    +0.000 HD
ATOM     42  H   UNL     1      39.018  31.102  50.931  0.00  0.00    +0.000 HD
ATOM     43  H   UNL     1      34.564  29.732  49.390  0.00  0.00    +0.000 HD
ENDBRANCH  25  37
ENDBRANCH  23  24
ENDBRANCH   3  23
TORSDOF 4
