
 OpenBabel03272510063D

 33 36  0  0  0  0  0  0  0  0999 V2000
   34.1360   29.2300   48.0250 C   0  0  0  0  0  0  0  0  0  0  0  0
   34.7210   29.6780   46.8220 C   0  0  0  0  0  0  0  0  0  0  0  0
   34.0460   29.4180   45.6160 C   0  0  0  0  0  0  0  0  0  0  0  0
   32.8700   28.7490   45.6810 N   0  0  0  0  0  0  0  0  0  0  0  0
   32.3300   28.3300   46.8470 C   0  0  0  0  0  0  0  0  0  0  0  0
   32.9620   28.5710   47.9950 N   0  0  0  0  0  0  0  0  0  0  0  0
   31.0790   27.6290   46.8100 N   0  0  0  0  0  0  0  0  0  0  0  0
   29.8570   28.2070   46.2480 C   0  0  0  0  0  0  0  0  0  0  0  0
   28.8970   27.0800   46.2140 C   0  0  0  0  0  0  0  0  0  0  0  0
   29.6950   25.8280   46.5120 C   0  0  0  0  0  0  0  0  0  0  0  0
   30.8620   26.2840   47.3150 C   0  0  0  0  0  0  0  0  0  0  0  0
   34.5900   29.3880   48.9940 H   0  0  0  0  0  0  0  0  0  0  0  0
   34.4820   29.7560   44.6840 H   0  0  0  0  0  0  0  0  0  0  0  0
   30.1220   28.5600   45.2310 H   0  0  0  0  0  0  0  0  0  0  0  0
   29.5710   29.0640   46.8860 H   0  0  0  0  0  0  0  0  0  0  0  0
   28.1570   27.1930   47.0340 H   0  0  0  0  0  0  0  0  0  0  0  0
   28.4020   27.0070   45.2280 H   0  0  0  0  0  0  0  0  0  0  0  0
   29.0980   25.1440   47.1660 H   0  0  0  0  0  0  0  0  0  0  0  0
   29.9550   25.2750   45.5930 H   0  0  0  0  0  0  0  0  0  0  0  0
   31.7210   25.6130   47.1170 H   0  0  0  0  0  0  0  0  0  0  0  0
   30.6520   26.3080   48.3990 H   0  0  0  0  0  0  0  0  0  0  0  0
   35.9500   30.3640   46.8730 N   0  0  0  0  0  0  0  0  0  0  0  0
   36.6670   30.6220   45.7800 C   0  0  0  0  0  0  0  0  0  0  0  0
   36.5000   30.3960   44.7310 H   0  0  0  0  0  0  0  0  0  0  0  0
   37.7950   31.2920   46.1350 N   0  0  0  0  0  0  0  0  0  0  0  0
   37.7680   31.4480   47.4710 C   0  0  0  0  0  0  0  0  0  0  0  0
   38.5920   32.0250   48.4270 C   0  0  0  0  0  0  0  0  0  0  0  0
   39.4920   32.4740   48.0330 H   0  0  0  0  0  0  0  0  0  0  0  0
   38.2910   32.0280   49.7440 N   0  0  0  0  0  0  0  0  0  0  0  0
   37.1460   31.4460   50.1520 C   0  0  0  0  0  0  0  0  0  0  0  0
   36.8990   31.4440   51.2010 H   0  0  0  0  0  0  0  0  0  0  0  0
   36.2910   30.8590   49.2700 N   0  0  0  0  0  0  0  0  0  0  0  0
   36.5910   30.8560   47.9400 C   0  0  0  0  0  0  0  0  0  0  0  0
  1 12  1  0  0  0  0
  2 22  1  0  0  0  0
  2  1  2  0  0  0  0
  3  4  2  0  0  0  0
  3  2  1  0  0  0  0
  4  5  1  0  0  0  0
  5  6  2  0  0  0  0
  6  1  1  0  0  0  0
  7  5  1  0  0  0  0
  7 11  1  0  0  0  0
  8  7  1  0  0  0  0
  8 15  1  0  0  0  0
  9  8  1  0  0  0  0
  9 10  1  0  0  0  0
  9 16  1  0  0  0  0
 10 18  1  0  0  0  0
 10 11  1  0  0  0  0
 11 21  1  0  0  0  0
 13  3  1  0  0  0  0
 14  8  1  0  0  0  0
 17  9  1  0  0  0  0
 19 10  1  0  0  0  0
 20 11  1  0  0  0  0
 22 33  1  0  0  0  0
 23 25  2  0  0  0  0
 23 22  1  0  0  0  0
 24 23  1  0  0  0  0
 25 26  1  0  0  0  0
 26 33  2  0  0  0  0
 26 27  1  0  0  0  0
 27 29  2  0  0  0  0
 28 27  1  0  0  0  0
 29 30  1  0  0  0  0
 30 31  1  0  0  0  0
 32 30  2  0  0  0  0
 33 32  1  0  0  0  0
M  END
>  <minimizedAffinity>
-4.65398741

>  <minimizedRMSD>
5.80573606

$$$$
