
 OpenBabel03272508113D

 37 40  0  0  0  0  0  0  0  0999 V2000
   36.7010   29.5650   44.0880 Cl  0  0  0  0  0  0  0  0  0  0  0  0
   38.3500   29.9280   43.5530 C   0  0  0  0  0  0  0  0  0  0  0  0
   39.3550   30.3870   44.4040 C   0  0  0  0  0  0  0  0  0  0  0  0
   40.5950   30.6310   43.8560 C   0  0  0  0  0  0  0  0  0  0  0  0
   40.8220   30.4240   42.5150 C   0  0  0  0  0  0  0  0  0  0  0  0
   39.8440   29.9720   41.6650 C   0  0  0  0  0  0  0  0  0  0  0  0
   38.6050   29.7250   42.1940 C   0  0  0  0  0  0  0  0  0  0  0  0
   41.3100   30.9850   44.5910 H   0  0  0  0  0  0  0  0  0  0  0  0
   41.8220   30.6360   42.1480 H   0  0  0  0  0  0  0  0  0  0  0  0
   40.0600   29.8200   40.6050 H   0  0  0  0  0  0  0  0  0  0  0  0
   37.6020   29.2570   41.3000 N   0  0  0  0  0  0  0  0  0  0  0  0
   37.3780   27.9720   40.9330 C   0  0  0  0  0  0  0  0  0  0  0  0
   37.9230   27.0820   41.2570 H   0  0  0  0  0  0  0  0  0  0  0  0
   36.3460   27.8850   40.0690 N   0  0  0  0  0  0  0  0  0  0  0  0
   35.8770   29.1440   39.8600 C   0  0  0  0  0  0  0  0  0  0  0  0
   34.8650   29.7180   39.1070 C   0  0  0  0  0  0  0  0  0  0  0  0
   34.2460   29.0620   38.5020 H   0  0  0  0  0  0  0  0  0  0  0  0
   34.6840   31.0660   39.1470 N   0  0  0  0  0  0  0  0  0  0  0  0
   35.4540   31.8720   39.8980 C   0  0  0  0  0  0  0  0  0  0  0  0
   35.3160   32.9480   39.9370 H   0  0  0  0  0  0  0  0  0  0  0  0
   36.4280   31.2740   40.6170 N   0  0  0  0  0  0  0  0  0  0  0  0
   36.6710   29.9680   40.6340 C   0  0  0  0  0  0  0  0  0  0  0  0
   38.9240   30.5260   45.6920 O   0  0  0  0  0  0  0  0  0  0  0  0
   39.4540   32.5590   47.1980 O   0  0  0  0  0  0  0  0  0  0  0  0
   38.3390   31.8750   46.4830 P   0  0  1  0  0  0  0  0  0  0  0  0
   37.7600   32.8930   45.2360 O   0  0  0  0  0  0  0  0  0  0  0  0
   38.3930   33.6440   45.1160 H   0  0  0  0  0  0  0  0  0  0  0  0
   37.0440   31.4280   47.4860 O   0  0  0  0  0  0  0  0  0  0  0  0
   37.5950   30.5180   51.0160 C   0  0  0  0  0  0  0  0  0  0  0  0
   37.7040   31.3080   49.8660 C   0  0  0  0  0  0  0  0  0  0  0  0
   37.0750   30.8440   48.7020 C   0  0  0  0  0  0  0  0  0  0  0  0
   36.3980   29.6580   48.7540 N   0  0  0  0  0  0  0  0  0  0  0  0
   36.3240   28.9390   49.8850 C   0  0  0  0  0  0  0  0  0  0  0  0
   36.9170   29.3590   51.0150 N   0  0  0  0  0  0  0  0  0  0  0  0
   38.1050   30.9300   51.8960 H   0  0  0  0  0  0  0  0  0  0  0  0
   38.2140   32.2330   49.7660 H   0  0  0  0  0  0  0  0  0  0  0  0
   35.7900   27.9960   49.9360 H   0  0  0  0  0  0  0  0  0  0  0  0
  2  1  1  0  0  0  0
  2  3  1  0  0  0  0
  3 23  1  0  0  0  0
  4  3  2  0  0  0  0
  4  8  1  0  0  0  0
  5  4  1  0  0  0  0
  6  7  1  0  0  0  0
  6  5  2  0  0  0  0
  7  2  2  0  0  0  0
  9  5  1  0  0  0  0
 10  6  1  0  0  0  0
 11  7  1  0  0  0  0
 12 13  1  0  0  0  0
 12 11  1  0  0  0  0
 14 12  2  0  0  0  0
 15 14  1  0  0  0  0
 15 22  1  0  0  0  0
 16 18  1  0  0  0  0
 16 15  2  0  0  0  0
 17 16  1  0  0  0  0
 18 19  2  0  0  0  0
 19 20  1  0  0  0  0
 19 21  1  0  0  0  0
 21 22  2  0  0  0  0
 22 11  1  0  0  0  0
 23 25  1  0  0  0  0
 25 24  2  1  0  0  0
 25 28  1  0  0  0  0
 26 25  1  0  0  0  0
 27 26  1  0  0  0  0
 28 31  1  0  0  0  0
 29 35  1  0  0  0  0
 30 29  2  0  0  0  0
 31 32  2  0  0  0  0
 31 30  1  0  0  0  0
 32 33  1  0  0  0  0
 33 37  1  0  0  0  0
 33 34  2  0  0  0  0
 34 29  1  0  0  0  0
 36 30  1  0  0  0  0
M  END
>  <minimizedAffinity>
-4.94045639

>  <minimizedRMSD>
1.19655967

$$$$
