REMARK  Name = 
REMARK  3 active torsions:
REMARK  status: ('A' for Active; 'I' for Inactive)
REMARK    1  A    between atoms: C_2  and  C_7
REMARK    2  A    between atoms: C_3  and  C_13
REMARK    3  A    between atoms: C_12  and  N_23
REMARK                            x       y       z     vdW  Elec       q    Type
REMARK                         _______ _______ _______ _____ _____    ______ ____
ROOT
ATOM      1  C   UNL     1      38.051  31.376  48.455  0.00  0.00    +0.000 A 
ATOM      2  C   UNL     1      38.543  30.659  47.395  0.00  0.00    +0.000 A 
ATOM      3  C   UNL     1      39.341  31.180  46.397  0.00  0.00    +0.000 A 
ATOM      4  C   UNL     1      39.679  32.559  46.468  0.00  0.00    +0.000 A 
ATOM      5  C   UNL     1      39.180  33.281  47.540  0.00  0.00    +0.000 A 
ATOM      6  C   UNL     1      38.386  32.730  48.520  0.00  0.00    +0.000 A 
ATOM      7  H   UNL     1      38.328  29.604  47.276  0.00  0.00    +0.000 HD
ATOM      8  H   UNL     1      39.714  30.588  45.574  0.00  0.00    +0.000 HD
ATOM      9  H   UNL     1      40.298  32.978  45.700  0.00  0.00    +0.000 HD
ATOM     10  H   UNL     1      39.426  34.340  47.615  0.00  0.00    +0.000 HD
ENDROOT
BRANCH   6  11
ATOM     11  N   UNL     1      37.867  33.455  49.623  0.00  0.00    +0.000 N 
ATOM     12  C   UNL     1      38.245  33.553  50.930  0.00  0.00    +0.000 A 
ATOM     13  H   UNL     1      39.122  32.978  51.262  0.00  0.00    +0.000 HD
ATOM     14  N   UNL     1      37.410  34.386  51.583  0.00  0.00    +0.000 NA
ATOM     15  C   UNL     1      36.478  34.839  50.700  0.00  0.00    +0.000 A 
ATOM     16  C   UNL     1      35.434  35.707  50.929  0.00  0.00    +0.000 A 
ATOM     17  H   UNL     1      35.285  36.115  51.919  0.00  0.00    +0.000 HD
ATOM     18  N   UNL     1      34.667  35.972  49.840  0.00  0.00    +0.000 NA
ATOM     19  C   UNL     1      34.953  35.399  48.644  0.00  0.00    +0.000 A 
ATOM     20  H   UNL     1      34.274  35.677  47.825  0.00  0.00    +0.000 HD
ATOM     21  N   UNL     1      35.972  34.551  48.421  0.00  0.00    +0.000 NA
ATOM     22  C   UNL     1      36.768  34.251  49.467  0.00  0.00    +0.000 A 
ENDBRANCH   6  11
BRANCH   1  24
ATOM     23  C   UNL     1      37.761  30.495  50.723  0.00  0.00    +0.000 A 
ATOM     24  C   UNL     1      37.230  30.661  49.407  0.00  0.00    +0.000 A 
ATOM     25  C   UNL     1      35.971  30.122  49.155  0.00  0.00    +0.000 A 
ATOM     26  N   UNL     1      35.326  29.477  50.161  0.00  0.00    +0.000 NA
ATOM     27  C   UNL     1      35.857  29.334  51.406  0.00  0.00    +0.000 A 
ATOM     28  N   UNL     1      37.087  29.853  51.678  0.00  0.00    +0.000 NA
ATOM     29  H   UNL     1      38.735  30.891  50.984  0.00  0.00    +0.000 HD
ATOM     30  H   UNL     1      35.238  28.799  52.113  0.00  0.00    +0.000 HD
BRANCH  25  31
ATOM     31  C   UNL     1      35.305  30.218  47.849  0.00  0.00    +0.000 C 
ATOM     32  F   UNL     1      34.017  30.770  48.007  0.00  0.00    +0.000 F 
ATOM     33  F   UNL     1      35.945  30.907  46.874  0.00  0.00    +0.000 F 
ATOM     34  F   UNL     1      35.019  28.939  47.353  0.00  0.00    +0.000 F 
ENDBRANCH  25  31
ENDBRANCH   1  24
TORSDOF 3
