
     RDKit          3D

 41 45  0  0  0  0  0  0  0  0999 V2000
   38.6311   32.9670   49.6960 Cl  0  0  0  0  0  0  0  0  0  0  0  0
   38.6053   32.2894   48.0759 C   0  0  0  0  0  0  0  0  0  0  0  0
   37.8731   31.1620   47.8010 C   0  0  0  0  0  0  0  0  0  0  0  0
   37.8949   30.6823   46.5132 C   0  0  0  0  0  0  0  0  0  0  0  0
   38.6191   31.2942   45.5150 C   0  0  0  0  0  0  0  0  0  0  0  0
   39.3475   32.4344   45.8354 C   0  0  0  0  0  0  0  0  0  0  0  0
   40.2480   33.1675   44.5242 Cl  0  0  0  0  0  0  0  0  0  0  0  0
   39.3517   32.9433   47.1058 C   0  0  0  0  0  0  0  0  0  0  0  0
   37.0208   29.3263   51.0112 C   0  0  0  0  0  0  0  0  0  0  0  0
   37.7631   29.8927   49.9627 C   0  0  0  0  0  0  0  0  0  0  0  0
   37.1193   30.5560   48.9181 C   0  0  0  0  0  0  0  0  0  0  0  0
   35.7509   30.6230   48.9706 N   0  0  0  0  0  0  0  0  0  0  0  0
   35.0827   30.0621   50.0009 C   0  0  0  0  0  0  0  0  0  0  0  0
   35.6888   29.4323   50.9933 N   0  0  0  0  0  0  0  0  0  0  0  0
   36.7756   32.5104   43.4272 Cl  0  0  0  0  0  0  0  0  0  0  0  0
   37.7706   31.0949   43.1255 C   0  0  0  0  0  0  0  0  0  0  0  0
   38.5515   30.6755   44.1900 C   0  0  0  0  0  0  0  0  0  0  0  0
   39.3785   29.5572   44.0485 C   0  0  0  0  0  0  0  0  0  0  0  0
   39.4213   28.8624   42.8422 C   0  0  0  0  0  0  0  0  0  0  0  0
   38.6329   29.3091   41.8113 C   0  0  0  0  0  0  0  0  0  0  0  0
   37.8083   30.4130   41.9311 C   0  0  0  0  0  0  0  0  0  0  0  0
   37.3121   29.7913   46.3101 H   0  0  0  0  0  0  0  0  0  0  0  0
   39.9269   33.8370   47.3419 H   0  0  0  0  0  0  0  0  0  0  0  0
   37.5642   28.8248   51.7941 H   0  0  0  0  0  0  0  0  0  0  0  0
   38.8461   29.8148   49.9632 H   0  0  0  0  0  0  0  0  0  0  0  0
   34.0143   30.1788   49.9330 H   0  0  0  0  0  0  0  0  0  0  0  0
   40.0057   29.1871   44.8411 H   0  0  0  0  0  0  0  0  0  0  0  0
   40.0641   27.9879   42.7223 H   0  0  0  0  0  0  0  0  0  0  0  0
   38.6113   28.8277   40.8538 H   0  0  0  0  0  0  0  0  0  0  0  0
   36.9751   30.9008   40.8712 N   0  0  0  0  0  0  0  0  0  0  0  0
   37.3888   32.0326   40.2719 C   0  0  0  0  0  0  0  0  0  0  0  0
   38.1974   32.7308   40.3408 H   0  0  0  0  0  0  0  0  0  0  0  0
   36.4655   32.3134   39.3102 N   0  0  0  0  0  0  0  0  0  0  0  0
   35.5069   31.3822   39.3134 C   0  0  0  0  0  0  0  0  0  0  0  0
   34.3361   31.0927   38.6228 C   0  0  0  0  0  0  0  0  0  0  0  0
   34.0580   31.7801   37.8393 H   0  0  0  0  0  0  0  0  0  0  0  0
   33.6325   29.9999   38.9605 N   0  0  0  0  0  0  0  0  0  0  0  0
   33.9990   29.1559   39.9422 C   0  0  0  0  0  0  0  0  0  0  0  0
   33.3431   28.3156   40.1109 H   0  0  0  0  0  0  0  0  0  0  0  0
   35.1307   29.3480   40.6817 N   0  0  0  0  0  0  0  0  0  0  0  0
   35.8218   30.4660   40.3136 C   0  0  0  0  0  0  0  0  0  0  0  0
  2  1  1  0
  3  2  2  0
  3 11  1  0
  4  3  1  0
  5  6  1  0
  5  4  2  0
  6  8  2  0
  7  6  1  0
  8  2  1  0
 10  9  2  0
 11 12  2  0
 11 10  1  0
 12 13  1  0
 13 14  2  0
 14  9  1  0
 16 15  1  0
 16 17  2  0
 17  5  1  0
 18 17  1  0
 19 18  2  0
 20 21  2  0
 20 19  1  0
 21 16  1  0
  4 22  1  0
  8 23  1  0
  9 24  1  0
 10 25  1  0
 13 26  1  0
 18 27  1  0
 19 28  1  0
 20 29  1  0
 30 31  1  0
 31 32  1  0
 31 33  2  0
 33 34  1  0
 34 35  2  0
 35 36  1  0
 35 37  1  0
 37 38  2  0
 38 39  1  0
 38 40  1  0
 40 41  2  0
 41 30  1  0
 41 34  1  0
 21 30  1  0
M  ISO  8  22  14  23  14  24  14  25  14  26  14  27  14  28  14  29  14
M  ISO  3  32  15  36  16  39  16
M  END
>  <DihAtoms>  (1) 
19,20,29,30

>  <DihDeg>  (1) 
58.91861545729278

$$$$
