REMARK  Name = 
REMARK  3 active torsions:
REMARK  status: ('A' for Active; 'I' for Inactive)
REMARK    1  A    between atoms: C_3  and  N_7
REMARK    2  A    between atoms: C_9  and  N_23
REMARK    3  A    between atoms: N_12  and  C_15
REMARK                            x       y       z     vdW  Elec       q    Type
REMARK                         _______ _______ _______ _____ _____    ______ ____
ROOT
ATOM      1  N   UNL     1      37.442  31.139  47.054  0.00  0.00    +0.000 N 
ATOM      2  C   UNL     1      36.802  30.810  45.899  0.00  0.00    +0.000 A 
ATOM      3  C   UNL     1      37.229  31.268  44.661  0.00  0.00    +0.000 A 
ATOM      4  C   UNL     1      38.360  32.094  44.640  0.00  0.00    +0.000 A 
ATOM      5  O   UNL     1      38.788  32.535  43.549  0.00  0.00    +0.000 OA
ATOM      6  N   UNL     1      39.005  32.426  45.800  0.00  0.00    +0.000 N 
ATOM      7  C   UNL     1      38.498  31.923  46.931  0.00  0.00    +0.000 A 
ATOM      8  O   UNL     1      39.110  32.247  47.972  0.00  0.00    +0.000 OA
ATOM      9  H   UNL     1      35.924  30.161  45.969  0.00  0.00    +0.000 HD
ENDROOT
BRANCH   3  10
ATOM     10  N   UNL     1      36.557  30.923  43.453  0.00  0.00    +0.000 N 
ATOM     11  C   UNL     1      36.216  29.682  43.068  0.00  0.00    +0.000 A 
ATOM     12  H   UNL     1      36.405  28.770  43.626  0.00  0.00    +0.000 HD
ATOM     13  N   UNL     1      35.602  29.695  41.896  0.00  0.00    +0.000 NA
ATOM     14  C   UNL     1      35.518  30.965  41.461  0.00  0.00    +0.000 A 
ATOM     15  C   UNL     1      34.992  31.551  40.333  0.00  0.00    +0.000 A 
ATOM     16  H   UNL     1      34.529  30.919  39.583  0.00  0.00    +0.000 HD
ATOM     17  N   UNL     1      35.092  32.886  40.235  0.00  0.00    +0.000 NA
ATOM     18  C   UNL     1      35.675  33.654  41.182  0.00  0.00    +0.000 A 
ATOM     19  H   UNL     1      35.732  34.746  41.057  0.00  0.00    +0.000 HD
ATOM     20  N   UNL     1      36.194  33.062  42.299  0.00  0.00    +0.000 NA
ATOM     21  C   UNL     1      36.126  31.722  42.459  0.00  0.00    +0.000 A 
ENDBRANCH   3  10
BRANCH   1  24
ATOM     22  C   UNL     1      37.413  29.945  50.569  0.00  0.00    +0.000 A 
ATOM     23  C   UNL     1      37.859  30.410  49.325  0.00  0.00    +0.000 A 
ATOM     24  C   UNL     1      36.995  30.667  48.293  0.00  0.00    +0.000 A 
ATOM     25  N   UNL     1      35.672  30.454  48.511  0.00  0.00    +0.000 NA
ATOM     26  C   UNL     1      35.207  30.001  49.708  0.00  0.00    +0.000 A 
ATOM     27  N   UNL     1      36.070  29.748  50.732  0.00  0.00    +0.000 NA
ATOM     28  H   UNL     1      38.021  29.724  51.416  0.00  0.00    +0.000 HD
ATOM     29  H   UNL     1      38.928  30.505  49.343  0.00  0.00    +0.000 HD
ATOM     30  H   UNL     1      34.143  29.871  49.759  0.00  0.00    +0.000 HD
ENDBRANCH   1  24
BRANCH   6  31
ATOM     31  C   UNL     1      40.174  33.279  45.779  0.00  0.00    +0.000 C 
ATOM     32  F   UNL     1      40.041  34.220  44.801  0.00  0.00    +0.000 F 
ATOM     33  F   UNL     1      41.342  32.586  45.508  0.00  0.00    +0.000 F 
ATOM     34  F   UNL     1      40.271  33.939  46.997  0.00  0.00    +0.000 F 
ENDBRANCH   6  31
TORSDOF 3
