
 OpenBabel03272506003D

 47 51  0  0  1  0  0  0  0  0999 V2000
   34.8970   30.0680   32.9090 C   0  0  2  0  0  0  0  0  0  0  0  0
   35.2230   28.6200   32.9230 C   0  0  0  0  0  0  0  0  0  0  0  0
   36.6930   28.3440   32.5720 C   0  0  2  0  0  0  0  0  0  0  0  0
   37.1200   28.9050   31.2940 C   0  0  0  0  0  0  0  0  0  0  0  0
   36.5460   30.2890   31.0150 C   0  0  0  0  0  0  0  0  0  0  0  0
   35.9600   30.9120   32.2480 C   0  0  0  0  0  0  0  0  0  0  0  0
   33.9410   30.2690   32.3390 H   0  0  0  0  0  0  0  0  0  0  0  0
   34.6390   28.1080   32.0880 H   0  0  0  0  0  0  0  0  0  0  0  0
   35.0710   28.0180   33.7860 H   0  0  0  0  0  0  0  0  0  0  0  0
   37.2970   28.6870   33.4220 H   0  0  0  0  0  0  0  0  0  0  0  0
   38.2260   28.9010   31.2310 H   0  0  0  0  0  0  0  0  0  0  0  0
   36.7760   28.2790   30.4490 H   0  0  0  0  0  0  0  0  0  0  0  0
   35.8660   30.3160   30.1520 H   0  0  0  0  0  0  0  0  0  0  0  0
   37.4070   30.9300   30.7330 H   0  0  0  0  0  0  0  0  0  0  0  0
   35.4900   31.8610   31.9380 H   0  0  0  0  0  0  0  0  0  0  0  0
   36.7450   31.1210   32.9840 H   0  0  0  0  0  0  0  0  0  0  0  0
   38.5070   27.1390   34.5640 Cl  0  0  0  0  0  0  0  0  0  0  0  0
   37.6160   26.1770   33.3950 C   0  0  0  0  0  0  0  0  0  0  0  0
   36.7700   26.8530   32.5320 C   0  0  0  0  0  0  0  0  0  0  0  0
   36.1040   26.0110   31.6700 C   0  0  0  0  0  0  0  0  0  0  0  0
   36.2700   24.6420   31.6760 C   0  0  0  0  0  0  0  0  0  0  0  0
   37.1420   24.0410   32.5770 C   0  0  0  0  0  0  0  0  0  0  0  0
   37.8380   24.8480   33.4680 C   0  0  0  0  0  0  0  0  0  0  0  0
   35.4160   26.4540   30.9630 H   0  0  0  0  0  0  0  0  0  0  0  0
   35.6950   24.0620   30.9510 H   0  0  0  0  0  0  0  0  0  0  0  0
   37.2540   22.9760   32.5620 H   0  0  0  0  0  0  0  0  0  0  0  0
   38.7300   24.2380   34.3930 N   0  0  0  0  0  0  0  0  0  0  0  0
   39.9460   23.8350   33.9360 C   0  0  0  0  0  0  0  0  0  0  0  0
   40.4020   23.8880   32.9500 H   0  0  0  0  0  0  0  0  0  0  0  0
   40.6420   23.2880   34.9420 N   0  0  0  0  0  0  0  0  0  0  0  0
   39.8990   23.3280   36.0500 C   0  0  0  0  0  0  0  0  0  0  0  0
   39.9840   22.9620   37.3670 C   0  0  0  0  0  0  0  0  0  0  0  0
   40.8990   22.4910   37.6980 H   0  0  0  0  0  0  0  0  0  0  0  0
   38.9650   23.1870   38.2060 N   0  0  0  0  0  0  0  0  0  0  0  0
   37.8130   23.7740   37.8170 C   0  0  0  0  0  0  0  0  0  0  0  0
   37.0740   23.8940   38.5950 H   0  0  0  0  0  0  0  0  0  0  0  0
   37.6630   24.1600   36.5280 N   0  0  0  0  0  0  0  0  0  0  0  0
   38.6920   23.9290   35.6950 C   0  0  0  0  0  0  0  0  0  0  0  0
   34.6680   30.6200   34.2540 C   0  0  0  0  0  0  0  0  0  0  0  0
   35.8040   31.1240   34.8890 C   0  0  0  0  0  0  0  0  0  0  0  0
   35.6390   31.6750   36.1680 C   0  0  0  0  0  0  0  0  0  0  0  0
   34.3690   31.6920   36.7350 N   0  0  0  0  0  0  0  0  0  0  0  0
   33.3020   31.1930   36.0800 C   0  0  0  0  0  0  0  0  0  0  0  0
   33.4830   30.6730   34.8640 N   0  0  0  0  0  0  0  0  0  0  0  0
   36.8600   31.2410   34.7250 H   0  0  0  0  0  0  0  0  0  0  0  0
   36.3110   32.1180   36.8590 H   0  0  0  0  0  0  0  0  0  0  0  0
   32.3120   31.1990   36.5070 H   0  0  0  0  0  0  0  0  0  0  0  0
  1  7  1  6  0  0  0
  1  2  1  0  0  0  0
  1 39  1  0  0  0  0
  2  9  1  0  0  0  0
  3  2  1  0  0  0  0
  3 10  1  1  0  0  0
  4  3  1  0  0  0  0
  5  4  1  0  0  0  0
  5  6  1  0  0  0  0
  6  1  1  0  0  0  0
  6 16  1  0  0  0  0
  8  2  1  0  0  0  0
 11  4  1  0  0  0  0
 12  4  1  0  0  0  0
 13  5  1  0  0  0  0
 14  5  1  0  0  0  0
 15  6  1  0  0  0  0
 18 23  1  0  0  0  0
 18 17  1  0  0  0  0
 19  3  1  0  0  0  0
 19 18  2  0  0  0  0
 20 21  2  0  0  0  0
 20 19  1  0  0  0  0
 21 22  1  0  0  0  0
 22 23  2  0  0  0  0
 23 27  1  0  0  0  0
 24 20  1  0  0  0  0
 25 21  1  0  0  0  0
 26 22  1  0  0  0  0
 27 38  1  0  0  0  0
 28 27  1  0  0  0  0
 28 30  2  0  0  0  0
 29 28  1  0  0  0  0
 30 31  1  0  0  0  0
 31 32  1  0  0  0  0
 32 33  1  0  0  0  0
 32 34  2  0  0  0  0
 35 34  1  0  0  0  0
 35 36  1  0  0  0  0
 37 35  2  0  0  0  0
 38 31  2  0  0  0  0
 38 37  1  0  0  0  0
 39 44  2  0  0  0  0
 39 40  1  0  0  0  0
 40 41  2  0  0  0  0
 41 42  1  0  0  0  0
 41 46  1  0  0  0  0
 43 47  1  0  0  0  0
 43 42  2  0  0  0  0
 44 43  1  0  0  0  0
 45 40  1  0  0  0  0
M  END
>  <minimizedAffinity>
-6.713449

$$$$

 OpenBabel03272506003D

 47 51  0  0  1  0  0  0  0  0999 V2000
   32.7330   30.7790   35.6980 C   0  0  2  0  0  0  0  0  0  0  0  0
   33.5000   30.4920   34.4600 C   0  0  0  0  0  0  0  0  0  0  0  0
   35.0180   30.4670   34.7000 C   0  0  2  0  0  0  0  0  0  0  0  0
   35.5490   31.6840   35.3070 C   0  0  0  0  0  0  0  0  0  0  0  0
   34.6450   32.2720   36.3830 C   0  0  0  0  0  0  0  0  0  0  0  0
   33.5920   31.2980   36.8250 C   0  0  0  0  0  0  0  0  0  0  0  0
   31.9440   31.5690   35.5190 H   0  0  0  0  0  0  0  0  0  0  0  0
   33.3510   31.3570   33.7320 H   0  0  0  0  0  0  0  0  0  0  0  0
   33.3380   29.6100   33.8890 H   0  0  0  0  0  0  0  0  0  0  0  0
   35.2360   29.5600   35.2790 H   0  0  0  0  0  0  0  0  0  0  0  0
   36.5720   31.4990   35.6890 H   0  0  0  0  0  0  0  0  0  0  0  0
   35.6580   32.4890   34.5560 H   0  0  0  0  0  0  0  0  0  0  0  0
   34.2390   33.2600   36.1230 H   0  0  0  0  0  0  0  0  0  0  0  0
   35.2900   32.4420   37.2700 H   0  0  0  0  0  0  0  0  0  0  0  0
   32.9330   31.8330   37.5300 H   0  0  0  0  0  0  0  0  0  0  0  0
   34.0490   30.4420   37.3360 H   0  0  0  0  0  0  0  0  0  0  0  0
   36.2320   27.8230   34.2060 Cl  0  0  0  0  0  0  0  0  0  0  0  0
   36.2150   29.0950   32.9950 C   0  0  0  0  0  0  0  0  0  0  0  0
   35.5870   30.2820   33.3320 C   0  0  0  0  0  0  0  0  0  0  0  0
   35.6090   31.2060   32.3120 C   0  0  0  0  0  0  0  0  0  0  0  0
   36.1980   30.9630   31.0880 C   0  0  0  0  0  0  0  0  0  0  0  0
   36.8100   29.7410   30.8300 C   0  0  0  0  0  0  0  0  0  0  0  0
   36.8130   28.7750   31.8290 C   0  0  0  0  0  0  0  0  0  0  0  0
   35.1350   32.1620   32.4860 H   0  0  0  0  0  0  0  0  0  0  0  0
   36.1620   31.7610   30.3450 H   0  0  0  0  0  0  0  0  0  0  0  0
   37.2600   29.5760   29.8720 H   0  0  0  0  0  0  0  0  0  0  0  0
   37.4380   27.5230   31.5690 N   0  0  0  0  0  0  0  0  0  0  0  0
   38.7960   27.4820   31.5290 C   0  0  0  0  0  0  0  0  0  0  0  0
   39.5470   28.2580   31.6620 H   0  0  0  0  0  0  0  0  0  0  0  0
   39.1980   26.2300   31.2750 N   0  0  0  0  0  0  0  0  0  0  0  0
   38.1220   25.4500   31.1490 C   0  0  0  0  0  0  0  0  0  0  0  0
   37.8180   24.1390   30.9000 C   0  0  0  0  0  0  0  0  0  0  0  0
   38.6400   23.4540   30.7470 H   0  0  0  0  0  0  0  0  0  0  0  0
   36.5430   23.7300   30.8520 N   0  0  0  0  0  0  0  0  0  0  0  0
   35.5000   24.5660   31.0400 C   0  0  0  0  0  0  0  0  0  0  0  0
   34.5260   24.1050   30.9730 H   0  0  0  0  0  0  0  0  0  0  0  0
   35.7300   25.8760   31.2900 N   0  0  0  0  0  0  0  0  0  0  0  0
   37.0130   26.2750   31.3360 C   0  0  0  0  0  0  0  0  0  0  0  0
   31.9990   29.6080   36.2050 C   0  0  0  0  0  0  0  0  0  0  0  0
   31.4910   28.7570   35.2230 C   0  0  0  0  0  0  0  0  0  0  0  0
   30.7940   27.6180   35.6510 C   0  0  0  0  0  0  0  0  0  0  0  0
   30.6450   27.3940   37.0160 N   0  0  0  0  0  0  0  0  0  0  0  0
   31.1550   28.2470   37.9260 C   0  0  0  0  0  0  0  0  0  0  0  0
   31.8140   29.3240   37.4950 N   0  0  0  0  0  0  0  0  0  0  0  0
   31.4380   28.6670   34.1520 H   0  0  0  0  0  0  0  0  0  0  0  0
   30.3170   26.8230   35.1360 H   0  0  0  0  0  0  0  0  0  0  0  0
   31.0470   28.0870   38.9860 H   0  0  0  0  0  0  0  0  0  0  0  0
  1  7  1  6  0  0  0
  1 39  1  0  0  0  0
  1  6  1  0  0  0  0
  2  3  1  0  0  0  0
  2  1  1  0  0  0  0
  3 10  1  1  0  0  0
  3  4  1  0  0  0  0
  4 11  1  0  0  0  0
  4  5  1  0  0  0  0
  5  6  1  0  0  0  0
  5 14  1  0  0  0  0
  6 16  1  0  0  0  0
  6 15  1  0  0  0  0
  8  2  1  0  0  0  0
  9  2  1  0  0  0  0
 12  4  1  0  0  0  0
 13  5  1  0  0  0  0
 18 19  1  0  0  0  0
 18 17  1  0  0  0  0
 19  3  1  0  0  0  0
 20 24  1  0  0  0  0
 20 19  2  0  0  0  0
 21 20  1  0  0  0  0
 22 21  2  0  0  0  0
 22 23  1  0  0  0  0
 23 18  2  0  0  0  0
 25 21  1  0  0  0  0
 26 22  1  0  0  0  0
 27 23  1  0  0  0  0
 28 27  1  0  0  0  0
 28 29  1  0  0  0  0
 30 28  2  0  0  0  0
 31 30  1  0  0  0  0
 31 38  1  0  0  0  0
 32 31  2  0  0  0  0
 33 32  1  0  0  0  0
 34 32  1  0  0  0  0
 34 35  2  0  0  0  0
 35 37  1  0  0  0  0
 36 35  1  0  0  0  0
 37 38  2  0  0  0  0
 38 27  1  0  0  0  0
 39 44  1  0  0  0  0
 40 41  1  0  0  0  0
 40 39  2  0  0  0  0
 41 42  2  0  0  0  0
 42 43  1  0  0  0  0
 43 47  1  0  0  0  0
 44 43  2  0  0  0  0
 45 40  1  0  0  0  0
 46 41  1  0  0  0  0
M  END
>  <minimizedAffinity>
-6.41522598

$$$$

 OpenBabel03272506003D

 47 51  0  0  1  0  0  0  0  0999 V2000
   35.8960   29.3670   31.4390 C   0  0  2  0  0  0  0  0  0  0  0  0
   35.9750   27.9370   31.8260 C   0  0  0  0  0  0  0  0  0  0  0  0
   37.3730   27.3420   31.5980 C   0  0  2  0  0  0  0  0  0  0  0  0
   37.8710   27.4840   30.2340 C   0  0  0  0  0  0  0  0  0  0  0  0
   37.5340   28.8270   29.6000 C   0  0  0  0  0  0  0  0  0  0  0  0
   37.0760   29.8300   30.6190 C   0  0  0  0  0  0  0  0  0  0  0  0
   34.9800   29.5740   30.8080 H   0  0  0  0  0  0  0  0  0  0  0  0
   35.3020   27.3350   31.1280 H   0  0  0  0  0  0  0  0  0  0  0  0
   35.7350   27.6050   32.8070 H   0  0  0  0  0  0  0  0  0  0  0  0
   38.0360   27.7840   32.3530 H   0  0  0  0  0  0  0  0  0  0  0  0
   38.9600   27.2810   30.2070 H   0  0  0  0  0  0  0  0  0  0  0  0
   37.4160   26.7310   29.5630 H   0  0  0  0  0  0  0  0  0  0  0  0
   36.8560   28.7480   28.7380 H   0  0  0  0  0  0  0  0  0  0  0  0
   38.4860   29.2250   29.1920 H   0  0  0  0  0  0  0  0  0  0  0  0
   36.7680   30.7340   30.0680 H   0  0  0  0  0  0  0  0  0  0  0  0
   37.8940   30.0850   31.3030 H   0  0  0  0  0  0  0  0  0  0  0  0
   39.0260   26.3820   33.8470 Cl  0  0  0  0  0  0  0  0  0  0  0  0
   37.9480   25.3250   32.9500 C   0  0  0  0  0  0  0  0  0  0  0  0
   37.1980   25.8970   31.9360 C   0  0  0  0  0  0  0  0  0  0  0  0
   36.3720   24.9930   31.3080 C   0  0  0  0  0  0  0  0  0  0  0  0
   36.3080   23.6600   31.6590 C   0  0  0  0  0  0  0  0  0  0  0  0
   37.0960   23.1650   32.6920 C   0  0  0  0  0  0  0  0  0  0  0  0
   37.9470   24.0380   33.3570 C   0  0  0  0  0  0  0  0  0  0  0  0
   35.7450   25.3560   30.5050 H   0  0  0  0  0  0  0  0  0  0  0  0
   35.6200   23.0250   31.0990 H   0  0  0  0  0  0  0  0  0  0  0  0
   37.0280   22.1260   32.9470 H   0  0  0  0  0  0  0  0  0  0  0  0
   38.7560   23.5360   34.4150 N   0  0  0  0  0  0  0  0  0  0  0  0
   39.8960   22.8710   34.0870 C   0  0  0  0  0  0  0  0  0  0  0  0
   40.3420   22.6320   33.1240 H   0  0  0  0  0  0  0  0  0  0  0  0
   40.5200   22.4760   35.2050 N   0  0  0  0  0  0  0  0  0  0  0  0
   39.8040   22.8730   36.2590 C   0  0  0  0  0  0  0  0  0  0  0  0
   39.8540   22.8100   37.6260 C   0  0  0  0  0  0  0  0  0  0  0  0
   40.6960   22.3030   38.0740 H   0  0  0  0  0  0  0  0  0  0  0  0
   38.8880   23.3630   38.3720 N   0  0  0  0  0  0  0  0  0  0  0  0
   37.8260   24.0020   37.8350 C   0  0  0  0  0  0  0  0  0  0  0  0
   37.1220   24.4000   38.5510 H   0  0  0  0  0  0  0  0  0  0  0  0
   37.7150   24.1000   36.4900 N   0  0  0  0  0  0  0  0  0  0  0  0
   38.6900   23.5420   35.7520 C   0  0  0  0  0  0  0  0  0  0  0  0
   35.7800   30.2710   32.5950 C   0  0  0  0  0  0  0  0  0  0  0  0
   35.5010   29.6450   33.8110 C   0  0  0  0  0  0  0  0  0  0  0  0
   35.3940   30.4580   34.9480 C   0  0  0  0  0  0  0  0  0  0  0  0
   35.5670   31.8310   34.8110 N   0  0  0  0  0  0  0  0  0  0  0  0
   35.8350   32.3890   33.6150 C   0  0  0  0  0  0  0  0  0  0  0  0
   35.9320   31.5950   32.5460 N   0  0  0  0  0  0  0  0  0  0  0  0
   35.3180   28.6650   34.2130 H   0  0  0  0  0  0  0  0  0  0  0  0
   35.1960   30.2540   35.9700 H   0  0  0  0  0  0  0  0  0  0  0  0
   35.9710   33.4510   33.4930 H   0  0  0  0  0  0  0  0  0  0  0  0
  1  7  1  6  0  0  0
  1  2  1  0  0  0  0
  1 39  1  0  0  0  0
  2  9  1  0  0  0  0
  3  2  1  0  0  0  0
  3 19  1  0  0  0  0
  3 10  1  1  0  0  0
  4  3  1  0  0  0  0
  5  4  1  0  0  0  0
  5  6  1  0  0  0  0
  6 16  1  0  0  0  0
  6  1  1  0  0  0  0
  8  2  1  0  0  0  0
 11  4  1  0  0  0  0
 12  4  1  0  0  0  0
 13  5  1  0  0  0  0
 14  5  1  0  0  0  0
 15  6  1  0  0  0  0
 18 23  1  0  0  0  0
 18 17  1  0  0  0  0
 19 18  2  0  0  0  0
 20 21  2  0  0  0  0
 20 19  1  0  0  0  0
 21 22  1  0  0  0  0
 22 26  1  0  0  0  0
 22 23  2  0  0  0  0
 23 27  1  0  0  0  0
 24 20  1  0  0  0  0
 25 21  1  0  0  0  0
 27 38  1  0  0  0  0
 28 27  1  0  0  0  0
 28 30  2  0  0  0  0
 29 28  1  0  0  0  0
 30 31  1  0  0  0  0
 31 32  1  0  0  0  0
 32 33  1  0  0  0  0
 32 34  2  0  0  0  0
 35 34  1  0  0  0  0
 35 36  1  0  0  0  0
 37 35  2  0  0  0  0
 38 31  2  0  0  0  0
 38 37  1  0  0  0  0
 39 40  1  0  0  0  0
 40 45  1  0  0  0  0
 40 41  2  0  0  0  0
 41 46  1  0  0  0  0
 42 41  1  0  0  0  0
 43 42  2  0  0  0  0
 44 39  2  0  0  0  0
 44 43  1  0  0  0  0
 47 43  1  0  0  0  0
M  END
>  <minimizedAffinity>
-6.31739092

$$$$

 OpenBabel03272506003D

 47 51  0  0  1  0  0  0  0  0999 V2000
   32.7040   30.3320   35.1850 C   0  0  2  0  0  0  0  0  0  0  0  0
   33.5680   29.8550   34.0760 C   0  0  0  0  0  0  0  0  0  0  0  0
   35.0610   29.8940   34.4350 C   0  0  2  0  0  0  0  0  0  0  0  0
   35.5400   31.2020   34.8690 C   0  0  0  0  0  0  0  0  0  0  0  0
   34.5530   31.9470   35.7590 C   0  0  0  0  0  0  0  0  0  0  0  0
   33.4690   31.0450   36.2730 C   0  0  0  0  0  0  0  0  0  0  0  0
   31.9300   31.0690   34.8150 H   0  0  0  0  0  0  0  0  0  0  0  0
   33.4750   30.5850   33.2040 H   0  0  0  0  0  0  0  0  0  0  0  0
   33.4530   28.8880   33.6500 H   0  0  0  0  0  0  0  0  0  0  0  0
   35.2350   29.0990   35.1720 H   0  0  0  0  0  0  0  0  0  0  0  0
   36.5300   31.0990   35.3560 H   0  0  0  0  0  0  0  0  0  0  0  0
   35.7070   31.8730   34.0050 H   0  0  0  0  0  0  0  0  0  0  0  0
   34.1660   32.8720   35.3060 H   0  0  0  0  0  0  0  0  0  0  0  0
   35.1250   32.2720   36.6520 H   0  0  0  0  0  0  0  0  0  0  0  0
   32.7560   31.6790   36.8250 H   0  0  0  0  0  0  0  0  0  0  0  0
   33.8860   30.2930   36.9530 H   0  0  0  0  0  0  0  0  0  0  0  0
   36.6510   27.4130   34.6040 Cl  0  0  0  0  0  0  0  0  0  0  0  0
   36.5410   28.3650   33.1320 C   0  0  0  0  0  0  0  0  0  0  0  0
   35.7370   29.4920   33.1650 C   0  0  0  0  0  0  0  0  0  0  0  0
   35.7010   30.1570   31.9610 C   0  0  0  0  0  0  0  0  0  0  0  0
   36.3960   29.7360   30.8460 C   0  0  0  0  0  0  0  0  0  0  0  0
   37.1820   28.5900   30.8970 C   0  0  0  0  0  0  0  0  0  0  0  0
   37.2520   27.8840   32.0910 C   0  0  0  0  0  0  0  0  0  0  0  0
   35.0910   31.0480   31.8940 H   0  0  0  0  0  0  0  0  0  0  0  0
   36.3000   30.3330   29.9370 H   0  0  0  0  0  0  0  0  0  0  0  0
   37.7130   28.2820   30.0180 H   0  0  0  0  0  0  0  0  0  0  0  0
   38.0550   26.7110   32.1480 N   0  0  0  0  0  0  0  0  0  0  0  0
   39.3990   26.8630   32.2920 C   0  0  0  0  0  0  0  0  0  0  0  0
   40.0210   27.7510   32.3790 H   0  0  0  0  0  0  0  0  0  0  0  0
   39.9830   25.6580   32.3260 N   0  0  0  0  0  0  0  0  0  0  0  0
   39.0420   24.7190   32.2060 C   0  0  0  0  0  0  0  0  0  0  0  0
   38.9400   23.3540   32.1630 C   0  0  0  0  0  0  0  0  0  0  0  0
   39.8530   22.7810   32.2450 H   0  0  0  0  0  0  0  0  0  0  0  0
   37.7470   22.7620   32.0250 N   0  0  0  0  0  0  0  0  0  0  0  0
   36.5940   23.4560   31.9190 C   0  0  0  0  0  0  0  0  0  0  0  0
   35.7040   22.8530   31.8120 H   0  0  0  0  0  0  0  0  0  0  0  0
   36.6230   24.8090   31.9540 N   0  0  0  0  0  0  0  0  0  0  0  0
   37.8260   25.3930   32.0930 C   0  0  0  0  0  0  0  0  0  0  0  0
   31.9340   29.2510   35.8210 C   0  0  0  0  0  0  0  0  0  0  0  0
   31.8290   29.3370   37.2100 C   0  0  0  0  0  0  0  0  0  0  0  0
   31.0940   28.3400   37.8660 C   0  0  0  0  0  0  0  0  0  0  0  0
   30.5130   27.3260   37.1120 N   0  0  0  0  0  0  0  0  0  0  0  0
   30.6440   27.2860   35.7720 C   0  0  0  0  0  0  0  0  0  0  0  0
   31.3480   28.2460   35.1690 N   0  0  0  0  0  0  0  0  0  0  0  0
   32.1510   29.9580   38.0270 H   0  0  0  0  0  0  0  0  0  0  0  0
   30.8580   28.1650   38.8860 H   0  0  0  0  0  0  0  0  0  0  0  0
   30.2000   26.5060   35.1740 H   0  0  0  0  0  0  0  0  0  0  0  0
  1  7  1  6  0  0  0
  1 39  1  0  0  0  0
  1  6  1  0  0  0  0
  2  3  1  0  0  0  0
  2  1  1  0  0  0  0
  3  4  1  0  0  0  0
  3 10  1  1  0  0  0
  4 11  1  0  0  0  0
  4  5  1  0  0  0  0
  5  6  1  0  0  0  0
  5 14  1  0  0  0  0
  6 15  1  0  0  0  0
  6 16  1  0  0  0  0
  8  2  1  0  0  0  0
  9  2  1  0  0  0  0
 12  4  1  0  0  0  0
 13  5  1  0  0  0  0
 18 19  1  0  0  0  0
 18 17  1  0  0  0  0
 19  3  1  0  0  0  0
 20 19  2  0  0  0  0
 21 22  2  0  0  0  0
 21 20  1  0  0  0  0
 22 23  1  0  0  0  0
 23 27  1  0  0  0  0
 23 18  2  0  0  0  0
 24 20  1  0  0  0  0
 25 21  1  0  0  0  0
 26 22  1  0  0  0  0
 27 28  1  0  0  0  0
 28 30  2  0  0  0  0
 28 29  1  0  0  0  0
 31 30  1  0  0  0  0
 32 31  1  0  0  0  0
 32 33  1  0  0  0  0
 34 32  2  0  0  0  0
 35 37  2  0  0  0  0
 35 34  1  0  0  0  0
 36 35  1  0  0  0  0
 37 38  1  0  0  0  0
 38 27  1  0  0  0  0
 38 31  2  0  0  0  0
 39 40  1  0  0  0  0
 40 41  2  0  0  0  0
 40 45  1  0  0  0  0
 41 46  1  0  0  0  0
 42 41  1  0  0  0  0
 43 42  2  0  0  0  0
 44 43  1  0  0  0  0
 44 39  2  0  0  0  0
 47 43  1  0  0  0  0
M  END
>  <minimizedAffinity>
-6.18047142

$$$$

 OpenBabel03272506003D

 47 51  0  0  1  0  0  0  0  0999 V2000
   35.2600   31.5540   35.8810 C   0  0  2  0  0  0  0  0  0  0  0  0
   35.8860   30.8600   34.7280 C   0  0  0  0  0  0  0  0  0  0  0  0
   34.8720   30.5170   33.6260 C   0  0  2  0  0  0  0  0  0  0  0  0
   33.7330   29.7270   34.0830 C   0  0  0  0  0  0  0  0  0  0  0  0
   33.2140   30.1440   35.4530 C   0  0  0  0  0  0  0  0  0  0  0  0
   33.7520   31.4810   35.8740 C   0  0  0  0  0  0  0  0  0  0  0  0
   35.5890   31.0990   36.8630 H   0  0  0  0  0  0  0  0  0  0  0  0
   36.2650   29.8430   35.0790 H   0  0  0  0  0  0  0  0  0  0  0  0
   36.6910   31.2890   34.1820 H   0  0  0  0  0  0  0  0  0  0  0  0
   34.5840   31.4630   33.1500 H   0  0  0  0  0  0  0  0  0  0  0  0
   32.9310   29.7460   33.3200 H   0  0  0  0  0  0  0  0  0  0  0  0
   34.0060   28.6610   34.1950 H   0  0  0  0  0  0  0  0  0  0  0  0
   33.3340   29.3680   36.2230 H   0  0  0  0  0  0  0  0  0  0  0  0
   32.1180   30.2830   35.3410 H   0  0  0  0  0  0  0  0  0  0  0  0
   33.4030   31.6600   36.9050 H   0  0  0  0  0  0  0  0  0  0  0  0
   33.3700   32.2730   35.2210 H   0  0  0  0  0  0  0  0  0  0  0  0
   36.0760   28.0390   34.6850 Cl  0  0  0  0  0  0  0  0  0  0  0  0
   36.3210   28.5750   33.0300 C   0  0  0  0  0  0  0  0  0  0  0  0
   35.6770   29.7370   32.6390 C   0  0  0  0  0  0  0  0  0  0  0  0
   35.9150   30.0610   31.3230 C   0  0  0  0  0  0  0  0  0  0  0  0
   36.7110   29.3010   30.4910 C   0  0  0  0  0  0  0  0  0  0  0  0
   37.3230   28.1450   30.9650 C   0  0  0  0  0  0  0  0  0  0  0  0
   37.1130   27.7750   32.2870 C   0  0  0  0  0  0  0  0  0  0  0  0
   35.4460   30.9530   30.9300 H   0  0  0  0  0  0  0  0  0  0  0  0
   36.8370   29.6440   29.4630 H   0  0  0  0  0  0  0  0  0  0  0  0
   37.9370   27.5710   30.3000 H   0  0  0  0  0  0  0  0  0  0  0  0
   37.7370   26.5930   32.7750 N   0  0  0  0  0  0  0  0  0  0  0  0
   37.1060   25.4060   32.5690 C   0  0  0  0  0  0  0  0  0  0  0  0
   36.1660   25.1620   32.0780 H   0  0  0  0  0  0  0  0  0  0  0  0
   37.8380   24.4140   33.0950 N   0  0  0  0  0  0  0  0  0  0  0  0
   38.9380   24.9350   33.6410 C   0  0  0  0  0  0  0  0  0  0  0  0
   40.0570   24.5190   34.3120 C   0  0  0  0  0  0  0  0  0  0  0  0
   40.1640   23.4600   34.4990 H   0  0  0  0  0  0  0  0  0  0  0  0
   40.9800   25.4020   34.7160 N   0  0  0  0  0  0  0  0  0  0  0  0
   40.8690   26.7290   34.4930 C   0  0  0  0  0  0  0  0  0  0  0  0
   41.6840   27.3270   34.8730 H   0  0  0  0  0  0  0  0  0  0  0  0
   39.7870   27.2080   33.8360 N   0  0  0  0  0  0  0  0  0  0  0  0
   38.8670   26.3130   33.4350 C   0  0  0  0  0  0  0  0  0  0  0  0
   35.6330   32.9750   35.9700 C   0  0  0  0  0  0  0  0  0  0  0  0
   36.8400   33.3090   35.3540 C   0  0  0  0  0  0  0  0  0  0  0  0
   37.2370   34.6540   35.3960 C   0  0  0  0  0  0  0  0  0  0  0  0
   36.4210   35.5760   36.0420 N   0  0  0  0  0  0  0  0  0  0  0  0
   35.2640   35.2030   36.6220 C   0  0  0  0  0  0  0  0  0  0  0  0
   34.9060   33.9180   36.5690 N   0  0  0  0  0  0  0  0  0  0  0  0
   37.6480   32.8500   34.8140 H   0  0  0  0  0  0  0  0  0  0  0  0
   38.0820   35.1730   35.0200 H   0  0  0  0  0  0  0  0  0  0  0  0
   34.6200   35.9060   37.1270 H   0  0  0  0  0  0  0  0  0  0  0  0
  1 39  1  0  0  0  0
  1  7  1  1  0  0  0
  2  8  1  0  0  0  0
  2  1  1  0  0  0  0
  3 10  1  6  0  0  0
  3  4  1  0  0  0  0
  3  2  1  0  0  0  0
  4 12  1  0  0  0  0
  4  5  1  0  0  0  0
  5  6  1  0  0  0  0
  5 13  1  0  0  0  0
  6  1  1  0  0  0  0
  6 15  1  0  0  0  0
  9  2  1  0  0  0  0
 11  4  1  0  0  0  0
 14  5  1  0  0  0  0
 16  6  1  0  0  0  0
 18 17  1  0  0  0  0
 19 18  1  0  0  0  0
 19  3  1  0  0  0  0
 20 19  2  0  0  0  0
 21 22  2  0  0  0  0
 21 20  1  0  0  0  0
 22 23  1  0  0  0  0
 23 27  1  0  0  0  0
 23 18  2  0  0  0  0
 24 20  1  0  0  0  0
 25 21  1  0  0  0  0
 26 22  1  0  0  0  0
 27 38  1  0  0  0  0
 28 27  1  0  0  0  0
 28 30  2  0  0  0  0
 29 28  1  0  0  0  0
 30 31  1  0  0  0  0
 31 32  1  0  0  0  0
 32 33  1  0  0  0  0
 32 34  2  0  0  0  0
 35 34  1  0  0  0  0
 35 36  1  0  0  0  0
 37 35  2  0  0  0  0
 38 31  2  0  0  0  0
 38 37  1  0  0  0  0
 39 44  1  0  0  0  0
 40 41  1  0  0  0  0
 40 39  2  0  0  0  0
 41 42  2  0  0  0  0
 42 43  1  0  0  0  0
 43 47  1  0  0  0  0
 44 43  2  0  0  0  0
 45 40  1  0  0  0  0
 46 41  1  0  0  0  0
M  END
>  <minimizedAffinity>
-6.16533852

$$$$

 OpenBabel03272506003D

 47 51  0  0  1  0  0  0  0  0999 V2000
   32.7850   30.3500   35.1070 C   0  0  2  0  0  0  0  0  0  0  0  0
   33.6670   29.7830   34.0570 C   0  0  0  0  0  0  0  0  0  0  0  0
   35.1510   29.8170   34.4540 C   0  0  2  0  0  0  0  0  0  0  0  0
   35.6460   31.1420   34.8140 C   0  0  0  0  0  0  0  0  0  0  0  0
   34.6510   31.9640   35.6230 C   0  0  0  0  0  0  0  0  0  0  0  0
   33.5360   31.1190   36.1670 C   0  0  0  0  0  0  0  0  0  0  0  0
   32.0360   31.0760   34.6680 H   0  0  0  0  0  0  0  0  0  0  0  0
   33.6130   30.4540   33.1360 H   0  0  0  0  0  0  0  0  0  0  0  0
   33.5440   28.7910   33.6930 H   0  0  0  0  0  0  0  0  0  0  0  0
   35.2880   29.0700   35.2470 H   0  0  0  0  0  0  0  0  0  0  0  0
   36.6200   31.0520   35.3330 H   0  0  0  0  0  0  0  0  0  0  0  0
   35.8500   31.7490   33.9120 H   0  0  0  0  0  0  0  0  0  0  0  0
   34.2960   32.8630   35.1000 H   0  0  0  0  0  0  0  0  0  0  0  0
   35.2060   32.3370   36.5090 H   0  0  0  0  0  0  0  0  0  0  0  0
   32.8210   31.8030   36.6550 H   0  0  0  0  0  0  0  0  0  0  0  0
   33.9180   30.4070   36.9070 H   0  0  0  0  0  0  0  0  0  0  0  0
   36.8300   27.4260   34.8740 Cl  0  0  0  0  0  0  0  0  0  0  0  0
   36.6970   28.2240   33.3150 C   0  0  0  0  0  0  0  0  0  0  0  0
   35.8520   29.3180   33.2330 C   0  0  0  0  0  0  0  0  0  0  0  0
   35.8010   29.8590   31.9690 C   0  0  0  0  0  0  0  0  0  0  0  0
   36.5200   29.3560   30.9040 C   0  0  0  0  0  0  0  0  0  0  0  0
   37.3480   28.2510   31.0720 C   0  0  0  0  0  0  0  0  0  0  0  0
   37.4340   27.6690   32.3300 C   0  0  0  0  0  0  0  0  0  0  0  0
   35.1590   30.7150   31.8120 H   0  0  0  0  0  0  0  0  0  0  0  0
   36.4100   29.8570   29.9410 H   0  0  0  0  0  0  0  0  0  0  0  0
   37.8960   27.8790   30.2300 H   0  0  0  0  0  0  0  0  0  0  0  0
   38.2800   26.5390   32.5060 N   0  0  0  0  0  0  0  0  0  0  0  0
   37.8260   25.3290   32.0820 C   0  0  0  0  0  0  0  0  0  0  0  0
   36.8930   25.0320   31.6080 H   0  0  0  0  0  0  0  0  0  0  0  0
   38.7520   24.3930   32.3300 N   0  0  0  0  0  0  0  0  0  0  0  0
   39.8050   24.9730   32.9090 C   0  0  0  0  0  0  0  0  0  0  0  0
   41.0360   24.6280   33.4010 C   0  0  0  0  0  0  0  0  0  0  0  0
   41.3250   23.5890   33.3430 H   0  0  0  0  0  0  0  0  0  0  0  0
   41.8440   25.5550   33.9320 N   0  0  0  0  0  0  0  0  0  0  0  0
   41.5040   26.8590   34.0160 C   0  0  0  0  0  0  0  0  0  0  0  0
   42.2490   27.4980   34.4670 H   0  0  0  0  0  0  0  0  0  0  0  0
   40.3020   27.2680   33.5480 N   0  0  0  0  0  0  0  0  0  0  0  0
   39.4990   26.3290   33.0170 C   0  0  0  0  0  0  0  0  0  0  0  0
   31.9760   29.3290   35.7930 C   0  0  0  0  0  0  0  0  0  0  0  0
   31.3120   28.4350   34.9500 C   0  0  0  0  0  0  0  0  0  0  0  0
   30.5380   27.4330   35.5520 C   0  0  0  0  0  0  0  0  0  0  0  0
   30.4680   27.3790   36.9400 N   0  0  0  0  0  0  0  0  0  0  0  0
   31.1280   28.2650   37.7100 C   0  0  0  0  0  0  0  0  0  0  0  0
   31.8590   29.2110   37.1160 N   0  0  0  0  0  0  0  0  0  0  0  0
   31.1710   28.2350   33.9040 H   0  0  0  0  0  0  0  0  0  0  0  0
   29.9450   26.6430   35.1640 H   0  0  0  0  0  0  0  0  0  0  0  0
   31.0830   28.2360   38.7870 H   0  0  0  0  0  0  0  0  0  0  0  0
  1  7  1  6  0  0  0
  1 39  1  0  0  0  0
  1  6  1  0  0  0  0
  2  3  1  0  0  0  0
  2  1  1  0  0  0  0
  3  4  1  0  0  0  0
  3 10  1  1  0  0  0
  4 11  1  0  0  0  0
  4  5  1  0  0  0  0
  5  6  1  0  0  0  0
  5 14  1  0  0  0  0
  6 15  1  0  0  0  0
  6 16  1  0  0  0  0
  8  2  1  0  0  0  0
  9  2  1  0  0  0  0
 12  4  1  0  0  0  0
 13  5  1  0  0  0  0
 18 17  1  0  0  0  0
 19 18  1  0  0  0  0
 19  3  1  0  0  0  0
 20 19  2  0  0  0  0
 21 22  2  0  0  0  0
 21 20  1  0  0  0  0
 22 23  1  0  0  0  0
 23 27  1  0  0  0  0
 23 18  2  0  0  0  0
 24 20  1  0  0  0  0
 25 21  1  0  0  0  0
 26 22  1  0  0  0  0
 27 38  1  0  0  0  0
 28 30  2  0  0  0  0
 28 27  1  0  0  0  0
 29 28  1  0  0  0  0
 30 31  1  0  0  0  0
 31 38  2  0  0  0  0
 31 32  1  0  0  0  0
 32 34  2  0  0  0  0
 33 32  1  0  0  0  0
 34 35  1  0  0  0  0
 35 36  1  0  0  0  0
 37 35  2  0  0  0  0
 38 37  1  0  0  0  0
 39 44  1  0  0  0  0
 40 41  1  0  0  0  0
 40 39  2  0  0  0  0
 41 42  2  0  0  0  0
 42 43  1  0  0  0  0
 43 47  1  0  0  0  0
 44 43  2  0  0  0  0
 45 40  1  0  0  0  0
 46 41  1  0  0  0  0
M  END
>  <minimizedAffinity>
-6.15201235

$$$$

 OpenBabel03272506003D

 47 51  0  0  1  0  0  0  0  0999 V2000
   38.0670   24.3980   33.9270 C   0  0  2  0  0  0  0  0  0  0  0  0
   37.3990   25.5520   33.2780 C   0  0  0  0  0  0  0  0  0  0  0  0
   38.3940   26.6360   32.8360 C   0  0  2  0  0  0  0  0  0  0  0  0
   39.2520   27.1350   33.9070 C   0  0  0  0  0  0  0  0  0  0  0  0
   39.7270   26.0480   34.8630 C   0  0  0  0  0  0  0  0  0  0  0  0
   39.5030   24.6730   34.3040 C   0  0  0  0  0  0  0  0  0  0  0  0
   37.5440   24.1060   34.8870 H   0  0  0  0  0  0  0  0  0  0  0  0
   36.7460   26.0770   34.0530 H   0  0  0  0  0  0  0  0  0  0  0  0
   36.7820   25.4360   32.4200 H   0  0  0  0  0  0  0  0  0  0  0  0
   38.9530   26.2300   31.9830 H   0  0  0  0  0  0  0  0  0  0  0  0
   40.1020   27.7010   33.4760 H   0  0  0  0  0  0  0  0  0  0  0  0
   38.7120   27.8590   34.5460 H   0  0  0  0  0  0  0  0  0  0  0  0
   39.3450   26.1660   35.8870 H   0  0  0  0  0  0  0  0  0  0  0  0
   40.8280   26.1650   34.9420 H   0  0  0  0  0  0  0  0  0  0  0  0
   39.7870   23.9540   35.0920 H   0  0  0  0  0  0  0  0  0  0  0  0
   40.1300   24.5090   33.4210 H   0  0  0  0  0  0  0  0  0  0  0  0
   36.4230   27.6570   34.7810 Cl  0  0  0  0  0  0  0  0  0  0  0  0
   36.5290   28.2650   33.1370 C   0  0  0  0  0  0  0  0  0  0  0  0
   37.5170   27.7320   32.3260 C   0  0  0  0  0  0  0  0  0  0  0  0
   37.5310   28.2870   31.0670 C   0  0  0  0  0  0  0  0  0  0  0  0
   36.6490   29.2700   30.6660 C   0  0  0  0  0  0  0  0  0  0  0  0
   35.6840   29.7510   31.5440 C   0  0  0  0  0  0  0  0  0  0  0  0
   35.6300   29.2230   32.8280 C   0  0  0  0  0  0  0  0  0  0  0  0
   38.2760   27.9320   30.3670 H   0  0  0  0  0  0  0  0  0  0  0  0
   36.7430   29.6440   29.6450 H   0  0  0  0  0  0  0  0  0  0  0  0
   35.0110   30.5150   31.2100 H   0  0  0  0  0  0  0  0  0  0  0  0
   34.6440   29.7130   33.7290 N   0  0  0  0  0  0  0  0  0  0  0  0
   33.3550   29.3260   33.5390 C   0  0  0  0  0  0  0  0  0  0  0  0
   32.8960   28.6790   32.7940 H   0  0  0  0  0  0  0  0  0  0  0  0
   32.5780   29.8830   34.4780 N   0  0  0  0  0  0  0  0  0  0  0  0
   33.3410   30.6290   35.2800 C   0  0  0  0  0  0  0  0  0  0  0  0
   33.2090   31.4320   36.3820 C   0  0  0  0  0  0  0  0  0  0  0  0
   32.2180   31.5550   36.7960 H   0  0  0  0  0  0  0  0  0  0  0  0
   34.2770   32.0360   36.9190 N   0  0  0  0  0  0  0  0  0  0  0  0
   35.5230   31.8970   36.4190 C   0  0  0  0  0  0  0  0  0  0  0  0
   36.2920   32.4410   36.9490 H   0  0  0  0  0  0  0  0  0  0  0  0
   35.7240   31.1180   35.3310 N   0  0  0  0  0  0  0  0  0  0  0  0
   34.6460   30.5170   34.8000 C   0  0  0  0  0  0  0  0  0  0  0  0
   38.0540   23.1830   33.0970 C   0  0  0  0  0  0  0  0  0  0  0  0
   37.1540   23.2040   32.0300 C   0  0  0  0  0  0  0  0  0  0  0  0
   37.1110   22.0770   31.1970 C   0  0  0  0  0  0  0  0  0  0  0  0
   37.9540   21.0050   31.4710 N   0  0  0  0  0  0  0  0  0  0  0  0
   38.8060   21.0320   32.5140 C   0  0  0  0  0  0  0  0  0  0  0  0
   38.8300   22.1160   33.2930 N   0  0  0  0  0  0  0  0  0  0  0  0
   36.4100   23.8430   31.5880 H   0  0  0  0  0  0  0  0  0  0  0  0
   36.5390   21.8320   30.3380 H   0  0  0  0  0  0  0  0  0  0  0  0
   39.4650   20.2090   32.7390 H   0  0  0  0  0  0  0  0  0  0  0  0
  1  6  1  0  0  0  0
  1  7  1  1  0  0  0
  2  1  1  0  0  0  0
  2  8  1  0  0  0  0
  3 10  1  6  0  0  0
  3  2  1  0  0  0  0
  3  4  1  0  0  0  0
  4 12  1  0  0  0  0
  4  5  1  0  0  0  0
  5 14  1  0  0  0  0
  5 13  1  0  0  0  0
  6  5  1  0  0  0  0
  6 15  1  0  0  0  0
  9  2  1  0  0  0  0
 11  4  1  0  0  0  0
 16  6  1  0  0  0  0
 18 17  1  0  0  0  0
 19  3  1  0  0  0  0
 19 18  2  0  0  0  0
 20 19  1  0  0  0  0
 21 20  2  0  0  0  0
 21 22  1  0  0  0  0
 22 23  2  0  0  0  0
 23 18  1  0  0  0  0
 23 27  1  0  0  0  0
 24 20  1  0  0  0  0
 25 21  1  0  0  0  0
 26 22  1  0  0  0  0
 27 38  1  0  0  0  0
 28 27  1  0  0  0  0
 28 30  2  0  0  0  0
 29 28  1  0  0  0  0
 30 31  1  0  0  0  0
 31 32  1  0  0  0  0
 32 33  1  0  0  0  0
 32 34  2  0  0  0  0
 35 34  1  0  0  0  0
 35 36  1  0  0  0  0
 37 35  2  0  0  0  0
 38 31  2  0  0  0  0
 38 37  1  0  0  0  0
 39 44  1  0  0  0  0
 39  1  1  0  0  0  0
 40 39  2  0  0  0  0
 41 42  2  0  0  0  0
 41 40  1  0  0  0  0
 42 43  1  0  0  0  0
 43 47  1  0  0  0  0
 43 44  2  0  0  0  0
 45 40  1  0  0  0  0
 46 41  1  0  0  0  0
M  END
>  <minimizedAffinity>
-6.09755468

$$$$

 OpenBabel03272506003D

 47 51  0  0  1  0  0  0  0  0999 V2000
   38.8030   27.7680   30.6560 C   0  0  2  0  0  0  0  0  0  0  0  0
   38.5030   26.3900   31.1160 C   0  0  0  0  0  0  0  0  0  0  0  0
   36.9990   26.1520   31.3230 C   0  0  2  0  0  0  0  0  0  0  0  0
   36.3620   27.0960   32.2350 C   0  0  0  0  0  0  0  0  0  0  0  0
   36.8640   28.5260   32.0790 C   0  0  0  0  0  0  0  0  0  0  0  0
   37.6350   28.7140   30.8050 C   0  0  0  0  0  0  0  0  0  0  0  0
   39.6500   28.2260   31.2500 H   0  0  0  0  0  0  0  0  0  0  0  0
   38.9500   26.2490   32.1560 H   0  0  0  0  0  0  0  0  0  0  0  0
   38.8020   25.5340   30.5610 H   0  0  0  0  0  0  0  0  0  0  0  0
   36.5380   26.1290   30.3270 H   0  0  0  0  0  0  0  0  0  0  0  0
   35.2610   27.0360   32.1310 H   0  0  0  0  0  0  0  0  0  0  0  0
   36.5720   26.8350   33.2900 H   0  0  0  0  0  0  0  0  0  0  0  0
   37.3940   28.9050   32.9640 H   0  0  0  0  0  0  0  0  0  0  0  0
   35.9600   29.1630   31.9800 H   0  0  0  0  0  0  0  0  0  0  0  0
   38.0350   29.7420   30.8180 H   0  0  0  0  0  0  0  0  0  0  0  0
   36.9780   28.5930   29.9360 H   0  0  0  0  0  0  0  0  0  0  0  0
   38.7490   25.6780   33.6520 Cl  0  0  0  0  0  0  0  0  0  0  0  0
   37.7410   24.4180   32.9570 C   0  0  0  0  0  0  0  0  0  0  0  0
   36.9370   24.7690   31.8850 C   0  0  0  0  0  0  0  0  0  0  0  0
   36.1720   23.7220   31.4270 C   0  0  0  0  0  0  0  0  0  0  0  0
   36.2110   22.4600   31.9830 C   0  0  0  0  0  0  0  0  0  0  0  0
   37.0480   22.1900   33.0600 C   0  0  0  0  0  0  0  0  0  0  0  0
   37.8410   23.2150   33.5600 C   0  0  0  0  0  0  0  0  0  0  0  0
   35.5080   23.9080   30.5930 H   0  0  0  0  0  0  0  0  0  0  0  0
   35.5640   21.6970   31.5460 H   0  0  0  0  0  0  0  0  0  0  0  0
   37.0610   21.2020   33.4760 H   0  0  0  0  0  0  0  0  0  0  0  0
   38.6990   22.9440   34.6620 N   0  0  0  0  0  0  0  0  0  0  0  0
   39.8850   22.3290   34.4120 C   0  0  0  0  0  0  0  0  0  0  0  0
   40.3390   21.9820   33.4850 H   0  0  0  0  0  0  0  0  0  0  0  0
   40.5510   22.1580   35.5610 N   0  0  0  0  0  0  0  0  0  0  0  0
   39.8180   22.6530   36.5610 C   0  0  0  0  0  0  0  0  0  0  0  0
   39.8870   22.8020   37.9200 C   0  0  0  0  0  0  0  0  0  0  0  0
   40.7730   22.4360   38.4200 H   0  0  0  0  0  0  0  0  0  0  0  0
   38.8880   23.3840   38.5960 N   0  0  0  0  0  0  0  0  0  0  0  0
   37.7720   23.8490   37.9940 C   0  0  0  0  0  0  0  0  0  0  0  0
   37.0450   24.2950   38.6570 H   0  0  0  0  0  0  0  0  0  0  0  0
   37.6390   23.7330   36.6520 N   0  0  0  0  0  0  0  0  0  0  0  0
   38.6480   23.1480   35.9840 C   0  0  0  0  0  0  0  0  0  0  0  0
   39.2410   27.8250   29.2530 C   0  0  0  0  0  0  0  0  0  0  0  0
   39.6460   26.6050   28.7090 C   0  0  0  0  0  0  0  0  0  0  0  0
   40.0610   26.5990   27.3700 C   0  0  0  0  0  0  0  0  0  0  0  0
   40.0500   27.7930   26.6570 N   0  0  0  0  0  0  0  0  0  0  0  0
   39.6500   28.9460   27.2270 C   0  0  0  0  0  0  0  0  0  0  0  0
   39.2590   28.9280   28.5030 N   0  0  0  0  0  0  0  0  0  0  0  0
   39.7670   25.5740   28.9890 H   0  0  0  0  0  0  0  0  0  0  0  0
   40.4090   25.8350   26.7210 H   0  0  0  0  0  0  0  0  0  0  0  0
   39.6360   29.8800   26.6880 H   0  0  0  0  0  0  0  0  0  0  0  0
  1  6  1  0  0  0  0
  1  2  1  0  0  0  0
  1  7  1  1  0  0  0
  2  3  1  0  0  0  0
  2  8  1  0  0  0  0
  3 10  1  6  0  0  0
  3 19  1  0  0  0  0
  3  4  1  0  0  0  0
  4 12  1  0  0  0  0
  5  4  1  0  0  0  0
  5 13  1  0  0  0  0
  6 15  1  0  0  0  0
  6  5  1  0  0  0  0
  9  2  1  0  0  0  0
 11  4  1  0  0  0  0
 14  5  1  0  0  0  0
 16  6  1  0  0  0  0
 18 23  1  0  0  0  0
 18 17  1  0  0  0  0
 19 18  2  0  0  0  0
 20 19  1  0  0  0  0
 20 21  2  0  0  0  0
 21 22  1  0  0  0  0
 22 26  1  0  0  0  0
 22 23  2  0  0  0  0
 23 27  1  0  0  0  0
 24 20  1  0  0  0  0
 25 21  1  0  0  0  0
 27 38  1  0  0  0  0
 28 27  1  0  0  0  0
 28 30  2  0  0  0  0
 29 28  1  0  0  0  0
 30 31  1  0  0  0  0
 31 32  1  0  0  0  0
 32 33  1  0  0  0  0
 32 34  2  0  0  0  0
 35 34  1  0  0  0  0
 35 36  1  0  0  0  0
 37 35  2  0  0  0  0
 38 31  2  0  0  0  0
 38 37  1  0  0  0  0
 39  1  1  0  0  0  0
 40 45  1  0  0  0  0
 40 39  1  0  0  0  0
 41 40  2  0  0  0  0
 42 43  2  0  0  0  0
 42 41  1  0  0  0  0
 43 44  1  0  0  0  0
 44 39  2  0  0  0  0
 46 41  1  0  0  0  0
 47 43  1  0  0  0  0
M  END
>  <minimizedAffinity>
-6.09532356

$$$$

 OpenBabel03272506003D

 47 51  0  0  1  0  0  0  0  0999 V2000
   34.9390   29.9510   32.8760 C   0  0  2  0  0  0  0  0  0  0  0  0
   35.3140   28.5160   32.9190 C   0  0  0  0  0  0  0  0  0  0  0  0
   36.7720   28.2760   32.4980 C   0  0  2  0  0  0  0  0  0  0  0  0
   37.1110   28.8070   31.1810 C   0  0  0  0  0  0  0  0  0  0  0  0
   36.4770   30.1620   30.8890 C   0  0  0  0  0  0  0  0  0  0  0  0
   35.9360   30.8070   32.1320 C   0  0  0  0  0  0  0  0  0  0  0  0
   33.9480   30.1030   32.3530 H   0  0  0  0  0  0  0  0  0  0  0  0
   34.7040   27.9580   32.1330 H   0  0  0  0  0  0  0  0  0  0  0  0
   35.2280   27.9390   33.8080 H   0  0  0  0  0  0  0  0  0  0  0  0
   37.4070   28.6670   33.3030 H   0  0  0  0  0  0  0  0  0  0  0  0
   38.2110   28.8370   31.0580 H   0  0  0  0  0  0  0  0  0  0  0  0
   36.7440   28.1430   30.3760 H   0  0  0  0  0  0  0  0  0  0  0  0
   35.7510   30.1380   30.0640 H   0  0  0  0  0  0  0  0  0  0  0  0
   37.2990   30.8200   30.5410 H   0  0  0  0  0  0  0  0  0  0  0  0
   35.4180   31.7290   31.8180 H   0  0  0  0  0  0  0  0  0  0  0  0
   36.7510   31.0650   32.8180 H   0  0  0  0  0  0  0  0  0  0  0  0
   38.4280   27.1730   34.6770 Cl  0  0  0  0  0  0  0  0  0  0  0  0
   37.6790   26.1580   33.4550 C   0  0  0  0  0  0  0  0  0  0  0  0
   36.8970   26.7880   32.5010 C   0  0  0  0  0  0  0  0  0  0  0  0
   36.3390   25.9070   31.6020 C   0  0  0  0  0  0  0  0  0  0  0  0
   36.5450   24.5440   31.6560 C   0  0  0  0  0  0  0  0  0  0  0  0
   37.3470   23.9910   32.6490 C   0  0  0  0  0  0  0  0  0  0  0  0
   37.9330   24.8390   33.5800 C   0  0  0  0  0  0  0  0  0  0  0  0
   35.7070   26.3120   30.8240 H   0  0  0  0  0  0  0  0  0  0  0  0
   36.0580   23.9310   30.8960 H   0  0  0  0  0  0  0  0  0  0  0  0
   37.4920   22.9290   32.6700 H   0  0  0  0  0  0  0  0  0  0  0  0
   38.7530   24.2770   34.5980 N   0  0  0  0  0  0  0  0  0  0  0  0
   38.1540   23.8610   35.7450 C   0  0  0  0  0  0  0  0  0  0  0  0
   37.1130   23.8700   36.0620 H   0  0  0  0  0  0  0  0  0  0  0  0
   39.0790   23.3650   36.5780 N   0  0  0  0  0  0  0  0  0  0  0  0
   40.2750   23.4510   35.9920 C   0  0  0  0  0  0  0  0  0  0  0  0
   41.5830   23.1490   36.2610 C   0  0  0  0  0  0  0  0  0  0  0  0
   41.8070   22.6990   37.2180 H   0  0  0  0  0  0  0  0  0  0  0  0
   42.5430   23.4050   35.3620 N   0  0  0  0  0  0  0  0  0  0  0  0
   42.2880   23.9670   34.1610 C   0  0  0  0  0  0  0  0  0  0  0  0
   43.1540   24.1180   33.5330 H   0  0  0  0  0  0  0  0  0  0  0  0
   41.0160   24.2910   33.8310 N   0  0  0  0  0  0  0  0  0  0  0  0
   40.0610   24.0290   34.7410 C   0  0  0  0  0  0  0  0  0  0  0  0
   34.7620   30.5410   34.2130 C   0  0  0  0  0  0  0  0  0  0  0  0
   35.9140   31.0970   34.7720 C   0  0  0  0  0  0  0  0  0  0  0  0
   35.7990   31.6860   36.0400 C   0  0  0  0  0  0  0  0  0  0  0  0
   34.5600   31.6850   36.6710 N   0  0  0  0  0  0  0  0  0  0  0  0
   33.4760   31.1350   36.0900 C   0  0  0  0  0  0  0  0  0  0  0  0
   33.6100   30.5810   34.8830 N   0  0  0  0  0  0  0  0  0  0  0  0
   36.9560   31.2380   34.5500 H   0  0  0  0  0  0  0  0  0  0  0  0
   36.4920   32.1690   36.6810 H   0  0  0  0  0  0  0  0  0  0  0  0
   32.5090   31.1270   36.5670 H   0  0  0  0  0  0  0  0  0  0  0  0
  1  7  1  6  0  0  0
  1  2  1  0  0  0  0
  1 39  1  0  0  0  0
  2  9  1  0  0  0  0
  3 19  1  0  0  0  0
  3  2  1  0  0  0  0
  3 10  1  1  0  0  0
  4  3  1  0  0  0  0
  5  4  1  0  0  0  0
  5  6  1  0  0  0  0
  6 16  1  0  0  0  0
  6  1  1  0  0  0  0
  8  2  1  0  0  0  0
 11  4  1  0  0  0  0
 12  4  1  0  0  0  0
 13  5  1  0  0  0  0
 14  5  1  0  0  0  0
 15  6  1  0  0  0  0
 18 23  1  0  0  0  0
 18 17  1  0  0  0  0
 19 18  2  0  0  0  0
 20 21  2  0  0  0  0
 20 19  1  0  0  0  0
 21 22  1  0  0  0  0
 22 26  1  0  0  0  0
 22 23  2  0  0  0  0
 23 27  1  0  0  0  0
 24 20  1  0  0  0  0
 25 21  1  0  0  0  0
 27 38  1  0  0  0  0
 27 28  1  0  0  0  0
 28 29  1  0  0  0  0
 28 30  2  0  0  0  0
 31 32  1  0  0  0  0
 31 30  1  0  0  0  0
 32 33  1  0  0  0  0
 34 32  2  0  0  0  0
 35 34  1  0  0  0  0
 36 35  1  0  0  0  0
 37 35  2  0  0  0  0
 37 38  1  0  0  0  0
 38 31  2  0  0  0  0
 39 40  2  0  0  0  0
 39 44  1  0  0  0  0
 40 41  1  0  0  0  0
 41 42  2  0  0  0  0
 41 46  1  0  0  0  0
 43 47  1  0  0  0  0
 43 42  1  0  0  0  0
 44 43  2  0  0  0  0
 45 40  1  0  0  0  0
M  END
>  <minimizedAffinity>
-6.06813622

$$$$
