
 OpenBabel03272509313D

 41 44  0  0  1  0  0  0  0  0999 V2000
   36.3650   30.6990   49.0430 C   0  0  2  0  0  0  0  0  0  0  0  0
   37.3550   31.5000   49.8340 C   0  0  0  0  0  0  0  0  0  0  0  0
   38.1670   30.6520   50.7890 C   0  0  0  0  0  0  0  0  0  0  0  0
   37.2500   29.8770   51.7340 C   0  0  0  0  0  0  0  0  0  0  0  0
   35.9740   29.3970   51.0880 C   0  0  0  0  0  0  0  0  0  0  0  0
   36.2160   29.3110   49.5690 C   0  0  1  0  0  0  0  0  0  0  0  0
   35.3150   31.1280   49.0700 H   0  0  0  0  0  0  0  0  0  0  0  0
   37.9700   32.2010   49.3030 H   0  0  0  0  0  0  0  0  0  0  0  0
   36.7120   32.1400   50.5270 H   0  0  0  0  0  0  0  0  0  0  0  0
   38.7880   31.3520   51.3670 H   0  0  0  0  0  0  0  0  0  0  0  0
   38.7980   29.9060   50.2860 H   0  0  0  0  0  0  0  0  0  0  0  0
   37.0790   30.5380   52.6000 H   0  0  0  0  0  0  0  0  0  0  0  0
   37.7930   28.9810   52.1010 H   0  0  0  0  0  0  0  0  0  0  0  0
   35.6460   28.4330   51.4870 H   0  0  0  0  0  0  0  0  0  0  0  0
   35.2190   30.2000   51.2170 H   0  0  0  0  0  0  0  0  0  0  0  0
   37.1420   28.7880   49.5630 H   0  0  0  0  0  0  0  0  0  0  0  0
   36.7550   30.6330   47.6110 C   0  0  0  0  0  0  0  0  0  0  0  0
   38.1190   30.8300   47.3420 C   0  0  0  0  0  0  0  0  0  0  0  0
   38.5140   30.7700   46.0010 C   0  0  0  0  0  0  0  0  0  0  0  0
   37.5550   30.5240   45.0420 N   0  0  0  0  0  0  0  0  0  0  0  0
   36.2370   30.3360   45.3580 C   0  0  0  0  0  0  0  0  0  0  0  0
   35.8590   30.3960   46.6460 N   0  0  0  0  0  0  0  0  0  0  0  0
   38.9600   31.0180   47.9780 H   0  0  0  0  0  0  0  0  0  0  0  0
   39.5190   30.9020   45.6440 H   0  0  0  0  0  0  0  0  0  0  0  0
   35.5750   30.1510   44.5300 H   0  0  0  0  0  0  0  0  0  0  0  0
   33.9030   28.3820   49.0860 C   0  0  0  0  0  0  0  0  0  0  0  0
   33.1210   29.0010   49.8940 O   0  0  0  0  0  0  0  0  0  0  0  0
   35.2980   28.4960   48.8590 N   0  0  0  0  0  0  0  0  0  0  0  0
   35.6510   27.8830   48.0540 H   0  0  0  0  0  0  0  0  0  0  0  0
   34.6020   25.9580   47.6620 H   0  0  0  0  0  0  0  0  0  0  0  0
   33.5950   26.2970   47.6840 N   0  0  0  0  0  0  0  0  0  0  0  0
   33.1100   27.4050   48.3020 C   0  0  0  0  0  0  0  0  0  0  0  0
   31.8240   27.3300   48.0040 N   0  0  0  0  0  0  0  0  0  0  0  0
   31.4880   26.2850   47.2670 C   0  0  0  0  0  0  0  0  0  0  0  0
   30.2980   25.8360   46.7460 C   0  0  0  0  0  0  0  0  0  0  0  0
   29.3820   26.4090   46.9360 H   0  0  0  0  0  0  0  0  0  0  0  0
   30.3360   24.6870   46.0140 N   0  0  0  0  0  0  0  0  0  0  0  0
   31.4760   24.0220   45.8070 C   0  0  0  0  0  0  0  0  0  0  0  0
   31.4950   23.1070   45.2240 H   0  0  0  0  0  0  0  0  0  0  0  0
   32.6440   24.4690   46.3220 N   0  0  0  0  0  0  0  0  0  0  0  0
   32.6490   25.5970   47.0500 C   0  0  0  0  0  0  0  0  0  0  0  0
  1  7  1  1  0  0  0
  1  6  1  0  0  0  0
  1  2  1  0  0  0  0
  2  9  1  0  0  0  0
  2  3  1  0  0  0  0
  3 10  1  0  0  0  0
  3  4  1  0  0  0  0
  4 13  1  0  0  0  0
  4 12  1  0  0  0  0
  5 15  1  0  0  0  0
  5 14  1  0  0  0  0
  5  4  1  0  0  0  0
  6 16  1  6  0  0  0
  6  5  1  0  0  0  0
  8  2  1  0  0  0  0
 11  3  1  0  0  0  0
 17  1  1  0  0  0  0
 18 17  1  0  0  0  0
 18 23  1  0  0  0  0
 19 18  2  0  0  0  0
 20 21  2  0  0  0  0
 20 19  1  0  0  0  0
 21 22  1  0  0  0  0
 22 17  2  0  0  0  0
 24 19  1  0  0  0  0
 25 21  1  0  0  0  0
 26 27  2  0  0  0  0
 28 26  1  0  0  0  0
 28  6  1  0  0  0  0
 29 28  1  0  0  0  0
 30 31  1  0  0  0  0
 31 32  1  0  0  0  0
 32 26  1  0  0  0  0
 33 32  2  0  0  0  0
 34 33  1  0  0  0  0
 35 36  1  0  0  0  0
 35 34  2  0  0  0  0
 37 35  1  0  0  0  0
 38 37  2  0  0  0  0
 38 40  1  0  0  0  0
 39 38  1  0  0  0  0
 40 41  2  0  0  0  0
 41 34  1  0  0  0  0
 41 31  1  0  0  0  0
M  END
>  <minimizedAffinity>
-6.08172607

>  <minimizedRMSD>
0.679869711

$$$$
