
 OpenBabel03272509313D

 41 44  0  0  1  0  0  0  0  0999 V2000
   36.4990   30.7980   49.1060 C   0  0  2  0  0  0  0  0  0  0  0  0
   37.5780   31.5130   49.8630 C   0  0  0  0  0  0  0  0  0  0  0  0
   38.3390   30.6020   50.8020 C   0  0  0  0  0  0  0  0  0  0  0  0
   37.3860   29.9160   51.7780 C   0  0  0  0  0  0  0  0  0  0  0  0
   36.0540   29.5460   51.1730 C   0  0  0  0  0  0  0  0  0  0  0  0
   36.2440   29.4310   49.6480 C   0  0  1  0  0  0  0  0  0  0  0  0
   35.4920   31.3180   49.1600 H   0  0  0  0  0  0  0  0  0  0  0  0
   38.2360   32.1540   49.3100 H   0  0  0  0  0  0  0  0  0  0  0  0
   37.0140   32.2110   50.5690 H   0  0  0  0  0  0  0  0  0  0  0  0
   39.0360   31.2480   51.3560 H   0  0  0  0  0  0  0  0  0  0  0  0
   38.8880   29.8000   50.2870 H   0  0  0  0  0  0  0  0  0  0  0  0
   37.2990   30.5950   52.6430 H   0  0  0  0  0  0  0  0  0  0  0  0
   37.8580   28.9780   52.1370 H   0  0  0  0  0  0  0  0  0  0  0  0
   35.6540   28.6180   51.5880 H   0  0  0  0  0  0  0  0  0  0  0  0
   35.3770   30.4130   51.3160 H   0  0  0  0  0  0  0  0  0  0  0  0
   37.1190   28.8290   49.6210 H   0  0  0  0  0  0  0  0  0  0  0  0
   36.8400   30.6900   47.6650 C   0  0  0  0  0  0  0  0  0  0  0  0
   38.1990   30.8430   47.3480 C   0  0  0  0  0  0  0  0  0  0  0  0
   38.5490   30.7430   45.9960 C   0  0  0  0  0  0  0  0  0  0  0  0
   37.5530   30.5020   45.0750 N   0  0  0  0  0  0  0  0  0  0  0  0
   36.2410   30.3580   45.4370 C   0  0  0  0  0  0  0  0  0  0  0  0
   35.9080   30.4560   46.7340 N   0  0  0  0  0  0  0  0  0  0  0  0
   39.0650   31.0220   47.9530 H   0  0  0  0  0  0  0  0  0  0  0  0
   39.5440   30.8390   45.6050 H   0  0  0  0  0  0  0  0  0  0  0  0
   35.5480   30.1720   44.6350 H   0  0  0  0  0  0  0  0  0  0  0  0
   33.8570   28.6440   49.2900 C   0  0  0  0  0  0  0  0  0  0  0  0
   33.1660   29.2640   50.1740 O   0  0  0  0  0  0  0  0  0  0  0  0
   35.2380   28.6960   48.9700 N   0  0  0  0  0  0  0  0  0  0  0  0
   35.5020   28.1030   48.1190 H   0  0  0  0  0  0  0  0  0  0  0  0
   31.0260   28.7270   48.6750 H   0  0  0  0  0  0  0  0  0  0  0  0
   31.6300   27.9260   48.3220 N   0  0  0  0  0  0  0  0  0  0  0  0
   32.9610   27.7430   48.5230 C   0  0  0  0  0  0  0  0  0  0  0  0
   33.1720   26.6120   47.8750 N   0  0  0  0  0  0  0  0  0  0  0  0
   32.0990   26.0940   47.3020 C   0  0  0  0  0  0  0  0  0  0  0  0
   31.8750   24.9640   46.5520 C   0  0  0  0  0  0  0  0  0  0  0  0
   32.7150   24.2930   46.3360 H   0  0  0  0  0  0  0  0  0  0  0  0
   30.6000   24.7490   46.1200 N   0  0  0  0  0  0  0  0  0  0  0  0
   29.6070   25.5960   46.4080 C   0  0  0  0  0  0  0  0  0  0  0  0
   28.5960   25.4140   46.0580 H   0  0  0  0  0  0  0  0  0  0  0  0
   29.8320   26.7050   47.1460 N   0  0  0  0  0  0  0  0  0  0  0  0
   31.0750   26.9540   47.5910 C   0  0  0  0  0  0  0  0  0  0  0  0
  1  7  1  1  0  0  0
  1  6  1  0  0  0  0
  1  2  1  0  0  0  0
  2  9  1  0  0  0  0
  2  3  1  0  0  0  0
  3 10  1  0  0  0  0
  3  4  1  0  0  0  0
  4 13  1  0  0  0  0
  4 12  1  0  0  0  0
  5 15  1  0  0  0  0
  5 14  1  0  0  0  0
  5  4  1  0  0  0  0
  6 16  1  6  0  0  0
  6  5  1  0  0  0  0
  8  2  1  0  0  0  0
 11  3  1  0  0  0  0
 17  1  1  0  0  0  0
 18 17  1  0  0  0  0
 18 23  1  0  0  0  0
 19 18  2  0  0  0  0
 20 21  2  0  0  0  0
 20 19  1  0  0  0  0
 21 22  1  0  0  0  0
 22 17  2  0  0  0  0
 24 19  1  0  0  0  0
 25 21  1  0  0  0  0
 26 27  2  0  0  0  0
 28 26  1  0  0  0  0
 28  6  1  0  0  0  0
 29 28  1  0  0  0  0
 31 32  1  0  0  0  0
 31 30  1  0  0  0  0
 32 26  1  0  0  0  0
 33 32  2  0  0  0  0
 34 41  1  0  0  0  0
 34 33  1  0  0  0  0
 35 34  2  0  0  0  0
 36 35  1  0  0  0  0
 37 38  2  0  0  0  0
 37 35  1  0  0  0  0
 38 40  1  0  0  0  0
 39 38  1  0  0  0  0
 40 41  2  0  0  0  0
 41 31  1  0  0  0  0
M  END
>  <minimizedAffinity>
-6.19409609

>  <minimizedRMSD>
1.08132625

$$$$
