
 OpenBabel03272508113D

 37 40  0  0  0  0  0  0  0  0999 V2000
   36.7010   29.5650   44.0890 Cl  0  0  0  0  0  0  0  0  0  0  0  0
   38.3490   29.9280   43.5530 C   0  0  0  0  0  0  0  0  0  0  0  0
   39.3540   30.3870   44.4040 C   0  0  0  0  0  0  0  0  0  0  0  0
   40.5950   30.6310   43.8550 C   0  0  0  0  0  0  0  0  0  0  0  0
   40.8220   30.4240   42.5140 C   0  0  0  0  0  0  0  0  0  0  0  0
   39.8430   29.9720   41.6650 C   0  0  0  0  0  0  0  0  0  0  0  0
   38.6040   29.7250   42.1950 C   0  0  0  0  0  0  0  0  0  0  0  0
   41.3100   30.9850   44.5900 H   0  0  0  0  0  0  0  0  0  0  0  0
   41.8210   30.6360   42.1480 H   0  0  0  0  0  0  0  0  0  0  0  0
   40.0590   29.8200   40.6050 H   0  0  0  0  0  0  0  0  0  0  0  0
   37.6010   29.2570   41.3010 N   0  0  0  0  0  0  0  0  0  0  0  0
   37.3760   27.9720   40.9330 C   0  0  0  0  0  0  0  0  0  0  0  0
   37.9210   27.0820   41.2570 H   0  0  0  0  0  0  0  0  0  0  0  0
   36.3440   27.8860   40.0700 N   0  0  0  0  0  0  0  0  0  0  0  0
   35.8760   29.1440   39.8610 C   0  0  0  0  0  0  0  0  0  0  0  0
   34.8650   29.7200   39.1080 C   0  0  0  0  0  0  0  0  0  0  0  0
   34.2450   29.0630   38.5030 H   0  0  0  0  0  0  0  0  0  0  0  0
   34.6830   31.0680   39.1480 N   0  0  0  0  0  0  0  0  0  0  0  0
   35.4530   31.8730   39.8980 C   0  0  0  0  0  0  0  0  0  0  0  0
   35.3160   32.9490   39.9360 H   0  0  0  0  0  0  0  0  0  0  0  0
   36.4280   31.2750   40.6170 N   0  0  0  0  0  0  0  0  0  0  0  0
   36.6710   29.9680   40.6330 C   0  0  0  0  0  0  0  0  0  0  0  0
   38.9240   30.5260   45.6920 O   0  0  0  0  0  0  0  0  0  0  0  0
   39.4530   32.5600   47.1980 O   0  0  0  0  0  0  0  0  0  0  0  0
   38.3390   31.8750   46.4830 P   0  0  1  0  0  0  0  0  0  0  0  0
   37.7600   32.8930   45.2360 O   0  0  0  0  0  0  0  0  0  0  0  0
   38.3930   33.6430   45.1160 H   0  0  0  0  0  0  0  0  0  0  0  0
   37.0430   31.4270   47.4860 O   0  0  0  0  0  0  0  0  0  0  0  0
   37.5940   30.5180   51.0160 C   0  0  0  0  0  0  0  0  0  0  0  0
   37.7040   31.3080   49.8660 C   0  0  0  0  0  0  0  0  0  0  0  0
   37.0750   30.8440   48.7010 C   0  0  0  0  0  0  0  0  0  0  0  0
   36.3970   29.6580   48.7540 N   0  0  0  0  0  0  0  0  0  0  0  0
   36.3240   28.9390   49.8860 C   0  0  0  0  0  0  0  0  0  0  0  0
   36.9160   29.3600   51.0150 N   0  0  0  0  0  0  0  0  0  0  0  0
   38.1050   30.9310   51.8950 H   0  0  0  0  0  0  0  0  0  0  0  0
   38.2140   32.2330   49.7660 H   0  0  0  0  0  0  0  0  0  0  0  0
   35.7890   27.9970   49.9370 H   0  0  0  0  0  0  0  0  0  0  0  0
  2  1  1  0  0  0  0
  2  3  1  0  0  0  0
  3 23  1  0  0  0  0
  4  3  2  0  0  0  0
  4  8  1  0  0  0  0
  5  4  1  0  0  0  0
  6  7  1  0  0  0  0
  6  5  2  0  0  0  0
  7  2  2  0  0  0  0
  9  5  1  0  0  0  0
 10  6  1  0  0  0  0
 11  7  1  0  0  0  0
 12 13  1  0  0  0  0
 12 11  1  0  0  0  0
 14 12  2  0  0  0  0
 15 14  1  0  0  0  0
 15 22  1  0  0  0  0
 16 18  1  0  0  0  0
 16 15  2  0  0  0  0
 17 16  1  0  0  0  0
 18 19  2  0  0  0  0
 19 20  1  0  0  0  0
 19 21  1  0  0  0  0
 21 22  2  0  0  0  0
 22 11  1  0  0  0  0
 23 25  1  0  0  0  0
 25 24  2  1  0  0  0
 25 28  1  0  0  0  0
 26 25  1  0  0  0  0
 27 26  1  0  0  0  0
 28 31  1  0  0  0  0
 29 35  1  0  0  0  0
 30 29  2  0  0  0  0
 31 32  2  0  0  0  0
 31 30  1  0  0  0  0
 32 33  1  0  0  0  0
 33 37  1  0  0  0  0
 33 34  2  0  0  0  0
 34 29  1  0  0  0  0
 36 30  1  0  0  0  0
M  END
>  <minimizedAffinity>
-4.94106293

>  <minimizedRMSD>
0.690787077

$$$$
