
 OpenBabel03272508113D

 37 40  0  0  0  0  0  0  0  0999 V2000
   36.7220   29.4320   44.0340 Cl  0  0  0  0  0  0  0  0  0  0  0  0
   38.3760   29.8230   43.5410 C   0  0  0  0  0  0  0  0  0  0  0  0
   39.3430   30.3290   44.4100 C   0  0  0  0  0  0  0  0  0  0  0  0
   40.5930   30.5910   43.8940 C   0  0  0  0  0  0  0  0  0  0  0  0
   40.8670   30.3560   42.5660 C   0  0  0  0  0  0  0  0  0  0  0  0
   39.9270   29.8590   41.6990 C   0  0  0  0  0  0  0  0  0  0  0  0
   38.6790   29.5940   42.1960 C   0  0  0  0  0  0  0  0  0  0  0  0
   41.2760   30.9810   44.6410 H   0  0  0  0  0  0  0  0  0  0  0  0
   41.8720   30.5850   42.2250 H   0  0  0  0  0  0  0  0  0  0  0  0
   40.1800   29.6860   40.6510 H   0  0  0  0  0  0  0  0  0  0  0  0
   37.7160   29.0780   41.2840 N   0  0  0  0  0  0  0  0  0  0  0  0
   36.9200   29.7950   40.4550 C   0  0  0  0  0  0  0  0  0  0  0  0
   36.8780   30.8810   40.3440 H   0  0  0  0  0  0  0  0  0  0  0  0
   36.1240   28.9860   39.7250 N   0  0  0  0  0  0  0  0  0  0  0  0
   36.4020   27.7040   40.0810 C   0  0  0  0  0  0  0  0  0  0  0  0
   35.9480   26.4470   39.7150 C   0  0  0  0  0  0  0  0  0  0  0  0
   35.1720   26.3870   38.9570 H   0  0  0  0  0  0  0  0  0  0  0  0
   36.4800   25.3440   40.3090 N   0  0  0  0  0  0  0  0  0  0  0  0
   37.4390   25.4260   41.2460 C   0  0  0  0  0  0  0  0  0  0  0  0
   37.8700   24.5510   41.7240 H   0  0  0  0  0  0  0  0  0  0  0  0
   37.8560   26.6670   41.5740 N   0  0  0  0  0  0  0  0  0  0  0  0
   37.3890   27.7930   41.0440 C   0  0  0  0  0  0  0  0  0  0  0  0
   38.8690   30.4890   45.6800 O   0  0  0  0  0  0  0  0  0  0  0  0
   39.4340   32.5570   47.1250 O   0  0  0  0  0  0  0  0  0  0  0  0
   38.3050   31.8620   46.4450 P   0  0  1  0  0  0  0  0  0  0  0  0
   37.7120   32.8510   45.1810 O   0  0  0  0  0  0  0  0  0  0  0  0
   38.3480   33.5940   45.0320 H   0  0  0  0  0  0  0  0  0  0  0  0
   37.0220   31.4480   47.4790 O   0  0  0  0  0  0  0  0  0  0  0  0
   37.6070   30.5180   50.9980 C   0  0  0  0  0  0  0  0  0  0  0  0
   37.7040   31.3160   49.8520 C   0  0  0  0  0  0  0  0  0  0  0  0
   37.0670   30.8570   48.6900 C   0  0  0  0  0  0  0  0  0  0  0  0
   36.3950   29.6680   48.7400 N   0  0  0  0  0  0  0  0  0  0  0  0
   36.3340   28.9410   49.8680 C   0  0  0  0  0  0  0  0  0  0  0  0
   36.9350   29.3560   50.9950 N   0  0  0  0  0  0  0  0  0  0  0  0
   38.1240   30.9270   51.8760 H   0  0  0  0  0  0  0  0  0  0  0  0
   38.2090   32.2440   49.7540 H   0  0  0  0  0  0  0  0  0  0  0  0
   35.8040   27.9950   49.9170 H   0  0  0  0  0  0  0  0  0  0  0  0
  2  1  1  0  0  0  0
  2  3  1  0  0  0  0
  3 23  1  0  0  0  0
  4  3  2  0  0  0  0
  4  8  1  0  0  0  0
  5  4  1  0  0  0  0
  6  7  1  0  0  0  0
  6  5  2  0  0  0  0
  7  2  2  0  0  0  0
  9  5  1  0  0  0  0
 10  6  1  0  0  0  0
 11  7  1  0  0  0  0
 12 11  1  0  0  0  0
 13 12  1  0  0  0  0
 14 15  1  0  0  0  0
 14 12  2  0  0  0  0
 15 22  1  0  0  0  0
 16 15  2  0  0  0  0
 16 18  1  0  0  0  0
 17 16  1  0  0  0  0
 18 19  2  0  0  0  0
 19 21  1  0  0  0  0
 19 20  1  0  0  0  0
 22 11  1  0  0  0  0
 22 21  2  0  0  0  0
 23 25  1  0  0  0  0
 25 24  2  1  0  0  0
 25 28  1  0  0  0  0
 26 25  1  0  0  0  0
 27 26  1  0  0  0  0
 28 31  1  0  0  0  0
 29 35  1  0  0  0  0
 30 29  2  0  0  0  0
 31 32  2  0  0  0  0
 31 30  1  0  0  0  0
 32 33  1  0  0  0  0
 33 37  1  0  0  0  0
 33 34  2  0  0  0  0
 34 29  1  0  0  0  0
 36 30  1  0  0  0  0
M  END
>  <minimizedAffinity>
-4.95018625

>  <minimizedRMSD>
0.91771841

$$$$
