
 OpenBabel03272509313D

 41 44  0  0  1  0  0  0  0  0999 V2000
   36.4560   30.7460   49.0420 C   0  0  2  0  0  0  0  0  0  0  0  0
   37.4580   31.5420   49.8230 C   0  0  0  0  0  0  0  0  0  0  0  0
   38.2650   30.6930   50.7800 C   0  0  0  0  0  0  0  0  0  0  0  0
   37.3450   29.9360   51.7360 C   0  0  0  0  0  0  0  0  0  0  0  0
   36.0610   29.4640   51.1000 C   0  0  0  0  0  0  0  0  0  0  0  0
   36.2940   29.3630   49.5800 C   0  0  1  0  0  0  0  0  0  0  0  0
   35.4100   31.1860   49.0710 H   0  0  0  0  0  0  0  0  0  0  0  0
   38.0770   32.2320   49.2830 H   0  0  0  0  0  0  0  0  0  0  0  0
   36.8250   32.1950   50.5130 H   0  0  0  0  0  0  0  0  0  0  0  0
   38.8970   31.3910   51.3490 H   0  0  0  0  0  0  0  0  0  0  0  0
   38.8860   29.9360   50.2800 H   0  0  0  0  0  0  0  0  0  0  0  0
   37.1860   30.6060   52.5970 H   0  0  0  0  0  0  0  0  0  0  0  0
   37.8800   29.0370   52.1070 H   0  0  0  0  0  0  0  0  0  0  0  0
   35.7240   28.5070   51.5080 H   0  0  0  0  0  0  0  0  0  0  0  0
   35.3150   30.2760   51.2260 H   0  0  0  0  0  0  0  0  0  0  0  0
   37.2140   28.8310   49.5750 H   0  0  0  0  0  0  0  0  0  0  0  0
   36.8380   30.6640   47.6090 C   0  0  0  0  0  0  0  0  0  0  0  0
   38.2010   30.8500   47.3310 C   0  0  0  0  0  0  0  0  0  0  0  0
   38.5900   30.7750   45.9890 C   0  0  0  0  0  0  0  0  0  0  0  0
   37.6240   30.5250   45.0370 N   0  0  0  0  0  0  0  0  0  0  0  0
   36.3060   30.3490   45.3610 C   0  0  0  0  0  0  0  0  0  0  0  0
   35.9360   30.4230   46.6510 N   0  0  0  0  0  0  0  0  0  0  0  0
   39.0460   31.0390   47.9620 H   0  0  0  0  0  0  0  0  0  0  0  0
   39.5930   30.8970   45.6260 H   0  0  0  0  0  0  0  0  0  0  0  0
   35.6390   30.1600   44.5390 H   0  0  0  0  0  0  0  0  0  0  0  0
   33.9720   28.4440   49.1270 C   0  0  0  0  0  0  0  0  0  0  0  0
   33.2030   29.0630   49.9460 O   0  0  0  0  0  0  0  0  0  0  0  0
   35.3640   28.5520   48.8810 N   0  0  0  0  0  0  0  0  0  0  0  0
   35.7040   27.9400   48.0710 H   0  0  0  0  0  0  0  0  0  0  0  0
   34.6430   26.0170   47.6930 H   0  0  0  0  0  0  0  0  0  0  0  0
   33.6380   26.3600   47.7280 N   0  0  0  0  0  0  0  0  0  0  0  0
   33.1650   27.4700   48.3520 C   0  0  0  0  0  0  0  0  0  0  0  0
   31.8760   27.4010   48.0690 N   0  0  0  0  0  0  0  0  0  0  0  0
   31.5250   26.3590   47.3350 C   0  0  0  0  0  0  0  0  0  0  0  0
   30.3270   25.9140   46.8280 C   0  0  0  0  0  0  0  0  0  0  0  0
   29.4170   26.4910   47.0290 H   0  0  0  0  0  0  0  0  0  0  0  0
   30.3520   24.7650   46.0950 N   0  0  0  0  0  0  0  0  0  0  0  0
   31.4880   24.0950   45.8750 C   0  0  0  0  0  0  0  0  0  0  0  0
   31.4940   23.1820   45.2900 H   0  0  0  0  0  0  0  0  0  0  0  0
   32.6630   24.5360   46.3760 N   0  0  0  0  0  0  0  0  0  0  0  0
   32.6810   25.6650   47.1040 C   0  0  0  0  0  0  0  0  0  0  0  0
  1  7  1  1  0  0  0
  1  6  1  0  0  0  0
  1  2  1  0  0  0  0
  2  9  1  0  0  0  0
  2  3  1  0  0  0  0
  3 10  1  0  0  0  0
  3  4  1  0  0  0  0
  4 13  1  0  0  0  0
  4 12  1  0  0  0  0
  5 15  1  0  0  0  0
  5 14  1  0  0  0  0
  5  4  1  0  0  0  0
  6 16  1  6  0  0  0
  6  5  1  0  0  0  0
  8  2  1  0  0  0  0
 11  3  1  0  0  0  0
 17  1  1  0  0  0  0
 18 17  1  0  0  0  0
 18 23  1  0  0  0  0
 19 18  2  0  0  0  0
 20 21  2  0  0  0  0
 20 19  1  0  0  0  0
 21 22  1  0  0  0  0
 22 17  2  0  0  0  0
 24 19  1  0  0  0  0
 25 21  1  0  0  0  0
 26 27  2  0  0  0  0
 28 26  1  0  0  0  0
 28  6  1  0  0  0  0
 29 28  1  0  0  0  0
 30 31  1  0  0  0  0
 31 32  1  0  0  0  0
 32 26  1  0  0  0  0
 33 32  2  0  0  0  0
 34 33  1  0  0  0  0
 35 36  1  0  0  0  0
 35 34  2  0  0  0  0
 37 35  1  0  0  0  0
 38 37  2  0  0  0  0
 38 40  1  0  0  0  0
 39 38  1  0  0  0  0
 40 41  2  0  0  0  0
 41 34  1  0  0  0  0
 41 31  1  0  0  0  0
M  END
>  <minimizedAffinity>
-6.10690784

>  <minimizedRMSD>
0.753076136

$$$$
