REMARK  Name = 
REMARK  3 active torsions:
REMARK  status: ('A' for Active; 'I' for Inactive)
REMARK    1  A    between atoms: C_1  and  C_7
REMARK    2  A    between atoms: C_3  and  N_13
REMARK    3  A    between atoms: C_17  and  N_38
REMARK                            x       y       z     vdW  Elec       q    Type
REMARK                         _______ _______ _______ _____ _____    ______ ____
ROOT
ATOM      1  C   UNL     1      35.243  30.306  49.577  0.00  0.00    +0.000 C 
ATOM      2  C   UNL     1      36.251  30.957  48.690  0.00  0.00    +0.000 C 
ATOM      3  C   UNL     1      37.632  30.405  48.881  0.00  0.00    +0.000 C 
ATOM      4  C   UNL     1      38.119  30.442  50.283  0.00  0.00    +0.000 C 
ATOM      5  C   UNL     1      37.038  30.120  51.293  0.00  0.00    +0.000 C 
ATOM      6  C   UNL     1      35.852  29.433  50.639  0.00  0.00    +0.000 C 
ATOM      7  H   UNL     1      34.586  31.028  50.147  0.00  0.00    +0.000 HD
ATOM      8  H   UNL     1      36.131  32.019  48.866  0.00  0.00    +0.000 HD
ATOM      9  H   UNL     1      36.072  30.792  47.617  0.00  0.00    +0.000 HD
ATOM     10  H   UNL     1      37.574  29.343  48.558  0.00  0.00    +0.000 HD
ATOM     11  H   UNL     1      38.714  31.340  50.548  0.00  0.00    +0.000 HD
ATOM     12  H   UNL     1      38.862  29.595  50.387  0.00  0.00    +0.000 HD
ATOM     13  H   UNL     1      36.668  31.091  51.684  0.00  0.00    +0.000 HD
ATOM     14  H   UNL     1      37.407  29.560  52.150  0.00  0.00    +0.000 HD
ATOM     15  H   UNL     1      35.100  29.261  51.431  0.00  0.00    +0.000 HD
ATOM     16  H   UNL     1      36.198  28.466  50.229  0.00  0.00    +0.000 HD
ENDROOT
BRANCH   3  17
ATOM     17  N   UNL     1      38.474  31.092  47.978  0.00  0.00    +0.000 NA
ATOM     18  C   UNL     1      38.450  30.651  46.616  0.00  0.00    +0.000 C 
ATOM     19  C   UNL     1      39.667  31.391  46.058  0.00  0.00    +0.000 C 
ATOM     20  C   UNL     1      39.495  32.731  46.754  0.00  0.00    +0.000 C 
ATOM     21  C   UNL     1      38.785  32.382  48.089  0.00  0.00    +0.000 C 
ATOM     22  H   UNL     1      37.547  31.009  46.073  0.00  0.00    +0.000 HD
ATOM     23  H   UNL     1      38.647  29.581  46.509  0.00  0.00    +0.000 HD
ATOM     24  H   UNL     1      39.535  31.477  44.965  0.00  0.00    +0.000 HD
ATOM     25  H   UNL     1      40.587  30.886  46.374  0.00  0.00    +0.000 HD
ATOM     26  H   UNL     1      40.452  33.245  46.907  0.00  0.00    +0.000 HD
ATOM     27  H   UNL     1      38.898  33.357  46.103  0.00  0.00    +0.000 HD
ATOM     28  H   UNL     1      39.705  32.357  48.783  0.00  0.00    +0.000 HD
BRANCH  21  29
ATOM     29  N   UNL     1      38.055  33.500  48.473  0.00  0.00    +0.000 N 
ATOM     30  C   UNL     1      38.191  34.774  47.981  0.00  0.00    +0.000 A 
ATOM     31  H   UNL     1      38.879  35.162  47.214  0.00  0.00    +0.000 HD
ATOM     32  N   UNL     1      37.370  35.655  48.509  0.00  0.00    +0.000 NA
ATOM     33  C   UNL     1      36.621  34.994  49.410  0.00  0.00    +0.000 A 
ATOM     34  C   UNL     1      35.601  35.343  50.284  0.00  0.00    +0.000 A 
ATOM     35  H   UNL     1      35.254  36.368  50.322  0.00  0.00    +0.000 HD
ATOM     36  N   UNL     1      35.022  34.441  51.097  0.00  0.00    +0.000 NA
ATOM     37  C   UNL     1      35.450  33.166  51.053  0.00  0.00    +0.000 A 
ATOM     38  H   UNL     1      35.120  32.289  51.620  0.00  0.00    +0.000 HD
ATOM     39  N   UNL     1      36.421  32.837  50.220  0.00  0.00    +0.000 NA
ATOM     40  C   UNL     1      37.044  33.682  49.382  0.00  0.00    +0.000 A 
ENDBRANCH  21  29
ENDBRANCH   3  17
BRANCH   1  41
ATOM     41  C   UNL     1      34.289  29.479  48.805  0.00  0.00    +0.000 A 
ATOM     42  C   UNL     1      34.145  29.857  47.469  0.00  0.00    +0.000 A 
ATOM     43  C   UNL     1      33.260  29.093  46.693  0.00  0.00    +0.000 A 
ATOM     44  N   UNL     1      32.590  28.030  47.276  0.00  0.00    +0.000 NA
ATOM     45  C   UNL     1      32.769  27.705  48.591  0.00  0.00    +0.000 A 
ATOM     46  N   UNL     1      33.604  28.430  49.312  0.00  0.00    +0.000 NA
ATOM     47  H   UNL     1      34.492  30.597  46.780  0.00  0.00    +0.000 HD
ATOM     48  H   UNL     1      32.964  29.150  45.675  0.00  0.00    +0.000 HD
ATOM     49  H   UNL     1      32.251  26.885  49.040  0.00  0.00    +0.000 HD
ENDBRANCH   1  41
TORSDOF 3
