
 OpenBabel03272506153D

 27 29  0  0  0  0  0  0  0  0999 V2000
   38.5230   24.1540   35.0900 C   0  0  0  0  0  0  0  0  0  0  0  0
   37.9920   25.2160   34.3580 C   0  0  0  0  0  0  0  0  0  0  0  0
   37.4790   24.9410   33.0930 C   0  0  0  0  0  0  0  0  0  0  0  0
   37.5140   23.6530   32.6180 N   0  0  0  0  0  0  0  0  0  0  0  0
   38.0400   22.6530   33.3660 C   0  0  0  0  0  0  0  0  0  0  0  0
   38.5460   22.8890   34.6020 N   0  0  0  0  0  0  0  0  0  0  0  0
   38.0150   26.1720   34.8170 H   0  0  0  0  0  0  0  0  0  0  0  0
   38.0520   21.6400   32.9620 H   0  0  0  0  0  0  0  0  0  0  0  0
   36.9370   26.0250   32.3440 N   0  0  0  0  0  0  0  0  0  0  0  0
   36.7010   26.0770   31.0110 C   0  0  0  0  0  0  0  0  0  0  0  0
   36.9010   25.2740   30.3210 H   0  0  0  0  0  0  0  0  0  0  0  0
   36.1820   27.3000   30.7410 N   0  0  0  0  0  0  0  0  0  0  0  0
   36.0950   27.9990   31.8850 C   0  0  0  0  0  0  0  0  0  0  0  0
   35.6370   29.2860   32.1340 C   0  0  0  0  0  0  0  0  0  0  0  0
   35.2550   29.9340   31.3300 H   0  0  0  0  0  0  0  0  0  0  0  0
   35.6720   29.7300   33.4170 N   0  0  0  0  0  0  0  0  0  0  0  0
   36.1370   28.9540   34.4310 C   0  0  0  0  0  0  0  0  0  0  0  0
   36.1700   29.2930   35.4500 H   0  0  0  0  0  0  0  0  0  0  0  0
   36.5790   27.7070   34.1660 N   0  0  0  0  0  0  0  0  0  0  0  0
   36.5740   27.2030   32.9280 C   0  0  0  0  0  0  0  0  0  0  0  0
   39.0740   24.2430   36.3600 O   0  0  0  0  0  0  0  0  0  0  0  0
   37.8650   24.4930   38.7330 O   0  0  0  0  0  0  0  0  0  0  0  0
   38.3770   23.4880   37.7170 P   0  0  0  0  0  0  0  0  0  0  0  0
   37.1120   22.5130   37.1210 O   0  0  0  0  0  0  0  0  0  0  0  0
   36.2470   22.8090   37.5430 H   0  0  0  0  0  0  0  0  0  0  0  0
   39.5350   22.5460   38.5250 O   0  0  0  0  0  0  0  0  0  0  0  0
   39.8510   21.8630   37.8830 H   0  0  0  0  0  0  0  0  0  0  0  0
  1 21  1  0  0  0  0
  2  7  1  0  0  0  0
  2  1  2  0  0  0  0
  3  2  1  0  0  0  0
  4  3  2  0  0  0  0
  4  5  1  0  0  0  0
  5  6  2  0  0  0  0
  6  1  1  0  0  0  0
  8  5  1  0  0  0  0
  9 20  1  0  0  0  0
  9  3  1  0  0  0  0
 10  9  1  0  0  0  0
 11 10  1  0  0  0  0
 12 10  2  0  0  0  0
 12 13  1  0  0  0  0
 13 14  2  0  0  0  0
 13 20  1  0  0  0  0
 14 16  1  0  0  0  0
 15 14  1  0  0  0  0
 16 17  2  0  0  0  0
 17 18  1  0  0  0  0
 19 17  1  0  0  0  0
 20 19  2  0  0  0  0
 21 23  1  0  0  0  0
 23 26  1  0  0  0  0
 23 22  2  0  0  0  0
 24 25  1  0  0  0  0
 24 23  1  0  0  0  0
 27 26  1  0  0  0  0
M  END
>  <minimizedAffinity>
-5.48005295

$$$$

 OpenBabel03272506153D

 27 29  0  0  0  0  0  0  0  0999 V2000
   40.2050   24.7000   34.9640 C   0  0  0  0  0  0  0  0  0  0  0  0
   39.0960   24.9650   34.1600 C   0  0  0  0  0  0  0  0  0  0  0  0
   39.0630   26.1790   33.4770 C   0  0  0  0  0  0  0  0  0  0  0  0
   40.1080   27.0580   33.6180 N   0  0  0  0  0  0  0  0  0  0  0  0
   41.1650   26.7570   34.4110 C   0  0  0  0  0  0  0  0  0  0  0  0
   41.2270   25.5840   35.0880 N   0  0  0  0  0  0  0  0  0  0  0  0
   38.3430   24.2180   34.1210 H   0  0  0  0  0  0  0  0  0  0  0  0
   41.9800   27.4760   34.5010 H   0  0  0  0  0  0  0  0  0  0  0  0
   37.9310   26.4500   32.6560 N   0  0  0  0  0  0  0  0  0  0  0  0
   37.5190   27.6510   32.1830 C   0  0  0  0  0  0  0  0  0  0  0  0
   38.0140   28.5890   32.3740 H   0  0  0  0  0  0  0  0  0  0  0  0
   36.4010   27.4310   31.4480 N   0  0  0  0  0  0  0  0  0  0  0  0
   36.1200   26.1180   31.4630 C   0  0  0  0  0  0  0  0  0  0  0  0
   35.0900   25.3990   30.8700 C   0  0  0  0  0  0  0  0  0  0  0  0
   34.3150   25.8870   30.2590 H   0  0  0  0  0  0  0  0  0  0  0  0
   35.0660   24.0550   31.0650 N   0  0  0  0  0  0  0  0  0  0  0  0
   36.0080   23.4230   31.8130 C   0  0  0  0  0  0  0  0  0  0  0  0
   36.0010   22.3610   31.9760 H   0  0  0  0  0  0  0  0  0  0  0  0
   36.9990   24.1420   32.3810 N   0  0  0  0  0  0  0  0  0  0  0  0
   37.0870   25.4670   32.2310 C   0  0  0  0  0  0  0  0  0  0  0  0
   40.4040   23.5490   35.7120 O   0  0  0  0  0  0  0  0  0  0  0  0
   38.4640   24.1250   37.4610 O   0  0  0  0  0  0  0  0  0  0  0  0
   39.2750   22.9930   36.8580 P   0  0  0  0  0  0  0  0  0  0  0  0
   38.2740   21.8830   36.0380 O   0  0  0  0  0  0  0  0  0  0  0  0
   37.3210   22.2060   36.0880 H   0  0  0  0  0  0  0  0  0  0  0  0
   40.0740   22.2400   38.1530 O   0  0  0  0  0  0  0  0  0  0  0  0
   40.5790   21.4780   37.7770 H   0  0  0  0  0  0  0  0  0  0  0  0
  1  6  1  0  0  0  0
  1 21  1  0  0  0  0
  2  1  2  0  0  0  0
  3  4  2  0  0  0  0
  3  2  1  0  0  0  0
  4  5  1  0  0  0  0
  5  8  1  0  0  0  0
  5  6  2  0  0  0  0
  7  2  1  0  0  0  0
  9  3  1  0  0  0  0
 10 11  1  0  0  0  0
 10  9  1  0  0  0  0
 12 13  1  0  0  0  0
 12 10  2  0  0  0  0
 13 20  1  0  0  0  0
 14 16  1  0  0  0  0
 14 13  2  0  0  0  0
 15 14  1  0  0  0  0
 16 17  2  0  0  0  0
 17 18  1  0  0  0  0
 17 19  1  0  0  0  0
 20 19  2  0  0  0  0
 20  9  1  0  0  0  0
 21 23  1  0  0  0  0
 23 22  2  0  0  0  0
 23 26  1  0  0  0  0
 24 25  1  0  0  0  0
 24 23  1  0  0  0  0
 27 26  1  0  0  0  0
M  END
>  <minimizedAffinity>
-5.36381912

$$$$

 OpenBabel03272506153D

 27 29  0  0  0  0  0  0  0  0999 V2000
   38.5410   22.7680   34.3790 C   0  0  0  0  0  0  0  0  0  0  0  0
   38.0610   23.9730   33.8680 C   0  0  0  0  0  0  0  0  0  0  0  0
   37.3630   23.9380   32.6630 C   0  0  0  0  0  0  0  0  0  0  0  0
   37.1760   22.7330   32.0290 N   0  0  0  0  0  0  0  0  0  0  0  0
   37.6610   21.5870   32.5650 C   0  0  0  0  0  0  0  0  0  0  0  0
   38.3440   21.5890   33.7360 N   0  0  0  0  0  0  0  0  0  0  0  0
   38.2610   24.8470   34.4350 H   0  0  0  0  0  0  0  0  0  0  0  0
   37.4950   20.6450   32.0380 H   0  0  0  0  0  0  0  0  0  0  0  0
   36.8740   25.1680   32.1400 N   0  0  0  0  0  0  0  0  0  0  0  0
   36.4820   25.4330   30.8700 C   0  0  0  0  0  0  0  0  0  0  0  0
   36.4910   24.7190   30.0630 H   0  0  0  0  0  0  0  0  0  0  0  0
   36.0920   26.7310   30.8310 N   0  0  0  0  0  0  0  0  0  0  0  0
   36.2360   27.2670   32.0550 C   0  0  0  0  0  0  0  0  0  0  0  0
   35.9780   28.5480   32.5260 C   0  0  0  0  0  0  0  0  0  0  0  0
   35.5840   29.3400   31.8720 H   0  0  0  0  0  0  0  0  0  0  0  0
   36.2290   28.8000   33.8370 N   0  0  0  0  0  0  0  0  0  0  0  0
   36.7150   27.8420   34.6690 C   0  0  0  0  0  0  0  0  0  0  0  0
   36.9180   28.0280   35.7080 H   0  0  0  0  0  0  0  0  0  0  0  0
   36.9600   26.6050   34.1900 N   0  0  0  0  0  0  0  0  0  0  0  0
   36.7370   26.2840   32.9120 C   0  0  0  0  0  0  0  0  0  0  0  0
   39.2520   22.6160   35.5590 O   0  0  0  0  0  0  0  0  0  0  0  0
   38.5290   24.5720   37.2350 O   0  0  0  0  0  0  0  0  0  0  0  0
   38.6210   23.0650   37.0750 P   0  0  0  0  0  0  0  0  0  0  0  0
   37.0830   22.3370   37.1830 O   0  0  0  0  0  0  0  0  0  0  0  0
   36.3900   23.0580   37.3100 H   0  0  0  0  0  0  0  0  0  0  0  0
   39.6350   22.5180   38.3210 O   0  0  0  0  0  0  0  0  0  0  0  0
   39.6750   21.5320   38.2500 H   0  0  0  0  0  0  0  0  0  0  0  0
  1 21  1  0  0  0  0
  2  1  1  0  0  0  0
  2  7  1  0  0  0  0
  3  2  2  0  0  0  0
  4  5  2  0  0  0  0
  4  3  1  0  0  0  0
  5  6  1  0  0  0  0
  6  1  2  0  0  0  0
  8  5  1  0  0  0  0
  9  3  1  0  0  0  0
  9 20  1  0  0  0  0
 10  9  1  0  0  0  0
 11 10  1  0  0  0  0
 12 10  2  0  0  0  0
 12 13  1  0  0  0  0
 13 14  2  0  0  0  0
 13 20  1  0  0  0  0
 14 16  1  0  0  0  0
 15 14  1  0  0  0  0
 16 17  2  0  0  0  0
 17 18  1  0  0  0  0
 19 17  1  0  0  0  0
 20 19  2  0  0  0  0
 21 23  1  0  0  0  0
 23 24  1  0  0  0  0
 23 22  2  0  0  0  0
 23 26  1  0  0  0  0
 24 25  1  0  0  0  0
 27 26  1  0  0  0  0
M  END
>  <minimizedAffinity>
-5.06392956

$$$$

 OpenBabel03272506153D

 27 29  0  0  0  0  0  0  0  0999 V2000
   35.3480   29.9970   34.2080 C   0  0  0  0  0  0  0  0  0  0  0  0
   35.8790   28.7140   34.0710 C   0  0  0  0  0  0  0  0  0  0  0  0
   36.3670   28.3420   32.8210 C   0  0  0  0  0  0  0  0  0  0  0  0
   36.3090   29.2390   31.7820 N   0  0  0  0  0  0  0  0  0  0  0  0
   35.7850   30.4750   31.9630 C   0  0  0  0  0  0  0  0  0  0  0  0
   35.3020   30.8670   33.1680 N   0  0  0  0  0  0  0  0  0  0  0  0
   35.8750   28.1000   34.9360 H   0  0  0  0  0  0  0  0  0  0  0  0
   35.7530   31.1650   31.1180 H   0  0  0  0  0  0  0  0  0  0  0  0
   36.9090   27.0320   32.6800 N   0  0  0  0  0  0  0  0  0  0  0  0
   37.1220   26.3410   31.5350 C   0  0  0  0  0  0  0  0  0  0  0  0
   36.9020   26.7090   30.5460 H   0  0  0  0  0  0  0  0  0  0  0  0
   37.6510   25.1420   31.8800 N   0  0  0  0  0  0  0  0  0  0  0  0
   37.7660   25.0840   33.2170 C   0  0  0  0  0  0  0  0  0  0  0  0
   38.2430   24.0800   34.0490 C   0  0  0  0  0  0  0  0  0  0  0  0
   38.6190   23.1250   33.6530 H   0  0  0  0  0  0  0  0  0  0  0  0
   38.2350   24.3140   35.3870 N   0  0  0  0  0  0  0  0  0  0  0  0
   37.7790   25.4830   35.9070 C   0  0  0  0  0  0  0  0  0  0  0  0
   37.7670   25.6800   36.9640 H   0  0  0  0  0  0  0  0  0  0  0  0
   37.3180   26.4440   35.0800 N   0  0  0  0  0  0  0  0  0  0  0  0
   37.2960   26.2850   33.7540 C   0  0  0  0  0  0  0  0  0  0  0  0
   34.8210   30.5330   35.3730 O   0  0  0  0  0  0  0  0  0  0  0  0
   36.6670   32.4380   35.7110 O   0  0  0  0  0  0  0  0  0  0  0  0
   35.2020   32.1000   35.9160 P   0  0  0  0  0  0  0  0  0  0  0  0
   34.1940   33.1640   35.0450 O   0  0  0  0  0  0  0  0  0  0  0  0
   34.7710   33.8100   34.5300 H   0  0  0  0  0  0  0  0  0  0  0  0
   34.9150   32.2310   37.5840 O   0  0  0  0  0  0  0  0  0  0  0  0
   33.9540   32.0480   37.7280 H   0  0  0  0  0  0  0  0  0  0  0  0
  1 21  1  0  0  0  0
  2  1  1  0  0  0  0
  2  7  1  0  0  0  0
  3  2  2  0  0  0  0
  4  5  2  0  0  0  0
  4  3  1  0  0  0  0
  5  6  1  0  0  0  0
  6  1  2  0  0  0  0
  8  5  1  0  0  0  0
  9  3  1  0  0  0  0
  9 20  1  0  0  0  0
 10 12  2  0  0  0  0
 10  9  1  0  0  0  0
 11 10  1  0  0  0  0
 12 13  1  0  0  0  0
 13 20  2  0  0  0  0
 13 14  1  0  0  0  0
 14 16  2  0  0  0  0
 15 14  1  0  0  0  0
 16 17  1  0  0  0  0
 17 18  1  0  0  0  0
 19 17  2  0  0  0  0
 20 19  1  0  0  0  0
 21 23  1  0  0  0  0
 22 23  2  0  0  0  0
 23 26  1  0  0  0  0
 24 23  1  0  0  0  0
 25 24  1  0  0  0  0
 26 27  1  0  0  0  0
M  END
>  <minimizedAffinity>
-5.05267334

$$$$

 OpenBabel03272506153D

 27 29  0  0  0  0  0  0  0  0999 V2000
   39.4030   22.8270   36.6550 C   0  0  0  0  0  0  0  0  0  0  0  0
   39.1270   23.7610   35.6570 C   0  0  0  0  0  0  0  0  0  0  0  0
   38.3850   24.8870   36.0070 C   0  0  0  0  0  0  0  0  0  0  0  0
   37.9580   25.0350   37.3040 N   0  0  0  0  0  0  0  0  0  0  0  0
   38.2520   24.1010   38.2400 C   0  0  0  0  0  0  0  0  0  0  0  0
   38.9720   22.9940   37.9310 N   0  0  0  0  0  0  0  0  0  0  0  0
   39.5020   23.5510   34.6870 H   0  0  0  0  0  0  0  0  0  0  0  0
   37.8990   24.2470   39.2620 H   0  0  0  0  0  0  0  0  0  0  0  0
   38.1020   25.8410   34.9880 N   0  0  0  0  0  0  0  0  0  0  0  0
   37.1500   26.8040   34.9950 C   0  0  0  0  0  0  0  0  0  0  0  0
   36.4590   26.9790   35.8040 H   0  0  0  0  0  0  0  0  0  0  0  0
   37.2460   27.4750   33.8210 N   0  0  0  0  0  0  0  0  0  0  0  0
   38.2400   26.9400   33.0930 C   0  0  0  0  0  0  0  0  0  0  0  0
   38.7270   27.2670   31.8340 C   0  0  0  0  0  0  0  0  0  0  0  0
   38.3010   28.0890   31.2400 H   0  0  0  0  0  0  0  0  0  0  0  0
   39.7610   26.5320   31.3480 N   0  0  0  0  0  0  0  0  0  0  0  0
   40.3100   25.5110   32.0570 C   0  0  0  0  0  0  0  0  0  0  0  0
   41.1280   24.9220   31.6850 H   0  0  0  0  0  0  0  0  0  0  0  0
   39.8210   25.2110   33.2780 N   0  0  0  0  0  0  0  0  0  0  0  0
   38.8050   25.8890   33.8200 C   0  0  0  0  0  0  0  0  0  0  0  0
   40.1240   21.6540   36.4880 O   0  0  0  0  0  0  0  0  0  0  0  0
   42.4340   22.9100   36.9800 O   0  0  0  0  0  0  0  0  0  0  0  0
   41.7890   21.5450   36.8230 P   0  0  0  0  0  0  0  0  0  0  0  0
   41.9260   20.6290   38.2540 O   0  0  0  0  0  0  0  0  0  0  0  0
   42.3940   21.1840   38.9530 H   0  0  0  0  0  0  0  0  0  0  0  0
   42.5990   20.7830   35.5400 O   0  0  0  0  0  0  0  0  0  0  0  0
   42.2120   19.8780   35.4510 H   0  0  0  0  0  0  0  0  0  0  0  0
  1  6  1  0  0  0  0
  2  3  1  0  0  0  0
  2  1  2  0  0  0  0
  3  4  2  0  0  0  0
  4  5  1  0  0  0  0
  5  8  1  0  0  0  0
  6  5  2  0  0  0  0
  7  2  1  0  0  0  0
  9 10  1  0  0  0  0
  9  3  1  0  0  0  0
 10 11  1  0  0  0  0
 12 10  2  0  0  0  0
 13 20  1  0  0  0  0
 13 12  1  0  0  0  0
 14 13  2  0  0  0  0
 15 14  1  0  0  0  0
 16 14  1  0  0  0  0
 16 17  2  0  0  0  0
 17 19  1  0  0  0  0
 18 17  1  0  0  0  0
 19 20  2  0  0  0  0
 20  9  1  0  0  0  0
 21  1  1  0  0  0  0
 21 23  1  0  0  0  0
 23 22  2  0  0  0  0
 23 24  1  0  0  0  0
 24 25  1  0  0  0  0
 26 23  1  0  0  0  0
 27 26  1  0  0  0  0
M  END
>  <minimizedAffinity>
-4.9339819

$$$$

 OpenBabel03272506153D

 27 29  0  0  0  0  0  0  0  0999 V2000
   39.1250   23.6310   35.3250 C   0  0  0  0  0  0  0  0  0  0  0  0
   38.5300   22.8880   34.3050 C   0  0  0  0  0  0  0  0  0  0  0  0
   39.3580   22.3450   33.3260 C   0  0  0  0  0  0  0  0  0  0  0  0
   40.7130   22.5590   33.3980 N   0  0  0  0  0  0  0  0  0  0  0  0
   41.2470   23.2880   34.4080 C   0  0  0  0  0  0  0  0  0  0  0  0
   40.4660   23.8280   35.3760 N   0  0  0  0  0  0  0  0  0  0  0  0
   37.4740   22.7840   34.3430 H   0  0  0  0  0  0  0  0  0  0  0  0
   42.3270   23.4390   34.4380 H   0  0  0  0  0  0  0  0  0  0  0  0
   38.7510   21.5870   32.2850 N   0  0  0  0  0  0  0  0  0  0  0  0
   39.2780   21.2610   31.0800 C   0  0  0  0  0  0  0  0  0  0  0  0
   40.2620   21.5440   30.7440 H   0  0  0  0  0  0  0  0  0  0  0  0
   38.3470   20.5330   30.4160 N   0  0  0  0  0  0  0  0  0  0  0  0
   37.2570   20.4070   31.1920 C   0  0  0  0  0  0  0  0  0  0  0  0
   36.0480   19.7620   30.9680 C   0  0  0  0  0  0  0  0  0  0  0  0
   35.8370   19.2290   30.0290 H   0  0  0  0  0  0  0  0  0  0  0  0
   35.1170   19.8070   31.9570 N   0  0  0  0  0  0  0  0  0  0  0  0
   35.3470   20.4570   33.1280 C   0  0  0  0  0  0  0  0  0  0  0  0
   34.6200   20.5000   33.9180 H   0  0  0  0  0  0  0  0  0  0  0  0
   36.5290   21.0780   33.3230 N   0  0  0  0  0  0  0  0  0  0  0  0
   37.4920   21.0750   32.3960 C   0  0  0  0  0  0  0  0  0  0  0  0
   38.4570   24.2400   36.3760 O   0  0  0  0  0  0  0  0  0  0  0  0
   38.0670   24.5270   39.0070 O   0  0  0  0  0  0  0  0  0  0  0  0
   38.2920   23.5090   37.9040 P   0  0  0  0  0  0  0  0  0  0  0  0
   36.9730   22.4360   37.7770 O   0  0  0  0  0  0  0  0  0  0  0  0
   36.2720   22.7000   38.4510 H   0  0  0  0  0  0  0  0  0  0  0  0
   39.7110   22.6720   38.3140 O   0  0  0  0  0  0  0  0  0  0  0  0
   39.8490   21.9810   37.6210 H   0  0  0  0  0  0  0  0  0  0  0  0
  1  6  1  0  0  0  0
  1 21  1  0  0  0  0
  2  7  1  0  0  0  0
  2  1  2  0  0  0  0
  3  4  2  0  0  0  0
  3  2  1  0  0  0  0
  4  5  1  0  0  0  0
  5  8  1  0  0  0  0
  5  6  2  0  0  0  0
  9 20  1  0  0  0  0
  9  3  1  0  0  0  0
 10  9  1  0  0  0  0
 11 10  1  0  0  0  0
 12 10  2  0  0  0  0
 12 13  1  0  0  0  0
 13 20  1  0  0  0  0
 14 13  2  0  0  0  0
 14 16  1  0  0  0  0
 15 14  1  0  0  0  0
 16 17  2  0  0  0  0
 17 19  1  0  0  0  0
 17 18  1  0  0  0  0
 20 19  2  0  0  0  0
 21 23  1  0  0  0  0
 23 26  1  0  0  0  0
 23 22  2  0  0  0  0
 24 23  1  0  0  0  0
 24 25  1  0  0  0  0
 27 26  1  0  0  0  0
M  END
>  <minimizedAffinity>
-4.91328049

$$$$

 OpenBabel03272506153D

 27 29  0  0  0  0  0  0  0  0999 V2000
   37.9380   24.9870   35.8060 C   0  0  0  0  0  0  0  0  0  0  0  0
   38.1040   24.8780   34.4260 C   0  0  0  0  0  0  0  0  0  0  0  0
   38.6450   25.9680   33.7480 C   0  0  0  0  0  0  0  0  0  0  0  0
   38.9890   27.0950   34.4530 N   0  0  0  0  0  0  0  0  0  0  0  0
   38.8090   27.1540   35.7950 C   0  0  0  0  0  0  0  0  0  0  0  0
   38.2860   26.1100   36.4830 N   0  0  0  0  0  0  0  0  0  0  0  0
   37.8050   23.9630   33.9790 H   0  0  0  0  0  0  0  0  0  0  0  0
   39.0940   28.0640   36.3260 H   0  0  0  0  0  0  0  0  0  0  0  0
   38.8140   25.8580   32.3380 N   0  0  0  0  0  0  0  0  0  0  0  0
   38.9900   26.8590   31.4430 C   0  0  0  0  0  0  0  0  0  0  0  0
   39.0250   27.9060   31.6930 H   0  0  0  0  0  0  0  0  0  0  0  0
   39.1080   26.2890   30.2190 N   0  0  0  0  0  0  0  0  0  0  0  0
   39.0080   24.9550   30.3470 C   0  0  0  0  0  0  0  0  0  0  0  0
   39.0620   23.9410   29.3990 C   0  0  0  0  0  0  0  0  0  0  0  0
   39.2100   24.1510   28.3290 H   0  0  0  0  0  0  0  0  0  0  0  0
   38.9260   22.6620   29.8360 N   0  0  0  0  0  0  0  0  0  0  0  0
   38.7430   22.3710   31.1510 C   0  0  0  0  0  0  0  0  0  0  0  0
   38.6340   21.3630   31.5100 H   0  0  0  0  0  0  0  0  0  0  0  0
   38.6920   23.3720   32.0540 N   0  0  0  0  0  0  0  0  0  0  0  0
   38.8190   24.6530   31.6970 C   0  0  0  0  0  0  0  0  0  0  0  0
   37.4170   24.0060   36.6380 O   0  0  0  0  0  0  0  0  0  0  0  0
   39.5290   23.1030   38.0090 O   0  0  0  0  0  0  0  0  0  0  0  0
   38.1080   23.6200   38.1450 P   0  0  0  0  0  0  0  0  0  0  0  0
   38.0570   25.0500   39.0710 O   0  0  0  0  0  0  0  0  0  0  0  0
   38.9970   25.2990   39.3370 H   0  0  0  0  0  0  0  0  0  0  0  0
   37.2240   22.3820   38.8980 O   0  0  0  0  0  0  0  0  0  0  0  0
   36.3030   22.7210   39.0250 H   0  0  0  0  0  0  0  0  0  0  0  0
  1  6  1  0  0  0  0
  1 21  1  0  0  0  0
  2  1  2  0  0  0  0
  3  2  1  0  0  0  0
  3  4  2  0  0  0  0
  4  5  1  0  0  0  0
  5  8  1  0  0  0  0
  5  6  2  0  0  0  0
  7  2  1  0  0  0  0
  9  3  1  0  0  0  0
 10 11  1  0  0  0  0
 10  9  1  0  0  0  0
 12 13  1  0  0  0  0
 12 10  2  0  0  0  0
 13 20  1  0  0  0  0
 14 16  1  0  0  0  0
 14 13  2  0  0  0  0
 15 14  1  0  0  0  0
 16 17  2  0  0  0  0
 17 18  1  0  0  0  0
 17 19  1  0  0  0  0
 20 19  2  0  0  0  0
 20  9  1  0  0  0  0
 21 23  1  0  0  0  0
 22 23  2  0  0  0  0
 23 26  1  0  0  0  0
 23 24  1  0  0  0  0
 24 25  1  0  0  0  0
 26 27  1  0  0  0  0
M  END
>  <minimizedAffinity>
-4.90545893

$$$$

 OpenBabel03272506153D

 27 29  0  0  0  0  0  0  0  0999 V2000
   38.2970   24.5830   36.1130 C   0  0  0  0  0  0  0  0  0  0  0  0
   39.3750   23.7470   35.8220 C   0  0  0  0  0  0  0  0  0  0  0  0
   39.8790   22.9530   36.8490 C   0  0  0  0  0  0  0  0  0  0  0  0
   39.3050   23.0200   38.0940 N   0  0  0  0  0  0  0  0  0  0  0  0
   38.2580   23.8470   38.3300 C   0  0  0  0  0  0  0  0  0  0  0  0
   37.7440   24.6320   37.3510 N   0  0  0  0  0  0  0  0  0  0  0  0
   39.7450   23.7720   34.8270 H   0  0  0  0  0  0  0  0  0  0  0  0
   37.8230   23.8770   39.3310 H   0  0  0  0  0  0  0  0  0  0  0  0
   40.9800   22.1000   36.5520 N   0  0  0  0  0  0  0  0  0  0  0  0
   41.8330   21.5120   37.4240 C   0  0  0  0  0  0  0  0  0  0  0  0
   41.7850   21.6190   38.4960 H   0  0  0  0  0  0  0  0  0  0  0  0
   42.7220   20.7920   36.6970 N   0  0  0  0  0  0  0  0  0  0  0  0
   42.4290   20.9270   35.3930 C   0  0  0  0  0  0  0  0  0  0  0  0
   43.0340   20.3950   34.2620 C   0  0  0  0  0  0  0  0  0  0  0  0
   43.9120   19.7340   34.3280 H   0  0  0  0  0  0  0  0  0  0  0  0
   42.5050   20.7160   33.0530 N   0  0  0  0  0  0  0  0  0  0  0  0
   41.4210   21.5280   32.9390 C   0  0  0  0  0  0  0  0  0  0  0  0
   40.9920   21.7900   31.9890 H   0  0  0  0  0  0  0  0  0  0  0  0
   40.8490   22.0340   34.0510 N   0  0  0  0  0  0  0  0  0  0  0  0
   41.3150   21.7620   35.2730 C   0  0  0  0  0  0  0  0  0  0  0  0
   37.6710   25.4370   35.2180 O   0  0  0  0  0  0  0  0  0  0  0  0
   36.9880   27.9260   34.5140 O   0  0  0  0  0  0  0  0  0  0  0  0
   38.1260   27.0670   35.0340 P   0  0  0  0  0  0  0  0  0  0  0  0
   38.6450   27.5920   36.5710 O   0  0  0  0  0  0  0  0  0  0  0  0
   38.0720   28.3690   36.8590 H   0  0  0  0  0  0  0  0  0  0  0  0
   39.3800   27.2030   33.8970 O   0  0  0  0  0  0  0  0  0  0  0  0
   40.1420   26.6760   34.2420 H   0  0  0  0  0  0  0  0  0  0  0  0
  1  6  1  0  0  0  0
  2  1  2  0  0  0  0
  2  3  1  0  0  0  0
  3  4  2  0  0  0  0
  4  5  1  0  0  0  0
  5  8  1  0  0  0  0
  6  5  2  0  0  0  0
  7  2  1  0  0  0  0
  9  3  1  0  0  0  0
  9 10  1  0  0  0  0
 10 11  1  0  0  0  0
 12 10  2  0  0  0  0
 13 12  1  0  0  0  0
 14 15  1  0  0  0  0
 14 13  2  0  0  0  0
 16 14  1  0  0  0  0
 17 16  2  0  0  0  0
 17 19  1  0  0  0  0
 18 17  1  0  0  0  0
 19 20  2  0  0  0  0
 20 13  1  0  0  0  0
 20  9  1  0  0  0  0
 21  1  1  0  0  0  0
 22 23  2  0  0  0  0
 23 21  1  0  0  0  0
 23 24  1  0  0  0  0
 24 25  1  0  0  0  0
 26 27  1  0  0  0  0
 26 23  1  0  0  0  0
M  END
>  <minimizedAffinity>
-4.85627031

$$$$

 OpenBabel03272506153D

 27 29  0  0  0  0  0  0  0  0999 V2000
   38.0520   22.2160   33.9460 C   0  0  0  0  0  0  0  0  0  0  0  0
   37.6220   23.5400   33.8630 C   0  0  0  0  0  0  0  0  0  0  0  0
   38.2160   24.4710   34.7110 C   0  0  0  0  0  0  0  0  0  0  0  0
   39.1910   24.0580   35.5860 N   0  0  0  0  0  0  0  0  0  0  0  0
   39.5780   22.7600   35.6300 C   0  0  0  0  0  0  0  0  0  0  0  0
   39.0180   21.8300   34.8170 N   0  0  0  0  0  0  0  0  0  0  0  0
   36.8620   23.7530   33.1540 H   0  0  0  0  0  0  0  0  0  0  0  0
   40.3550   22.4630   36.3350 H   0  0  0  0  0  0  0  0  0  0  0  0
   37.7770   25.8230   34.6290 N   0  0  0  0  0  0  0  0  0  0  0  0
   37.9460   26.8080   35.5430 C   0  0  0  0  0  0  0  0  0  0  0  0
   38.4550   26.6900   36.4850 H   0  0  0  0  0  0  0  0  0  0  0  0
   37.3660   27.9270   35.0420 N   0  0  0  0  0  0  0  0  0  0  0  0
   36.8440   27.6460   33.8370 C   0  0  0  0  0  0  0  0  0  0  0  0
   36.1540   28.4430   32.9330 C   0  0  0  0  0  0  0  0  0  0  0  0
   35.9440   29.5050   33.1350 H   0  0  0  0  0  0  0  0  0  0  0  0
   35.7410   27.8690   31.7740 N   0  0  0  0  0  0  0  0  0  0  0  0
   35.9860   26.5620   31.4950 C   0  0  0  0  0  0  0  0  0  0  0  0
   35.6640   26.0960   30.5810 H   0  0  0  0  0  0  0  0  0  0  0  0
   36.6570   25.8050   32.3880 N   0  0  0  0  0  0  0  0  0  0  0  0
   37.0940   26.3020   33.5490 C   0  0  0  0  0  0  0  0  0  0  0  0
   37.5740   21.1610   33.1820 O   0  0  0  0  0  0  0  0  0  0  0  0
   34.9920   21.5280   32.5840 O   0  0  0  0  0  0  0  0  0  0  0  0
   35.9690   20.6050   33.2900 P   0  0  0  0  0  0  0  0  0  0  0  0
   35.9590   19.0480   32.5960 O   0  0  0  0  0  0  0  0  0  0  0  0
   35.3150   19.0410   31.8210 H   0  0  0  0  0  0  0  0  0  0  0  0
   35.4740   20.5440   34.9130 O   0  0  0  0  0  0  0  0  0  0  0  0
   36.0820   19.9170   35.3770 H   0  0  0  0  0  0  0  0  0  0  0  0
  1  6  1  0  0  0  0
  2  1  2  0  0  0  0
  2  3  1  0  0  0  0
  3  4  2  0  0  0  0
  4  5  1  0  0  0  0
  5  8  1  0  0  0  0
  6  5  2  0  0  0  0
  7  2  1  0  0  0  0
  9  3  1  0  0  0  0
  9 10  1  0  0  0  0
 10 11  1  0  0  0  0
 12 10  2  0  0  0  0
 13 12  1  0  0  0  0
 14 15  1  0  0  0  0
 14 13  2  0  0  0  0
 16 14  1  0  0  0  0
 17 16  2  0  0  0  0
 17 19  1  0  0  0  0
 18 17  1  0  0  0  0
 19 20  2  0  0  0  0
 20 13  1  0  0  0  0
 20  9  1  0  0  0  0
 21 23  1  0  0  0  0
 21  1  1  0  0  0  0
 22 23  2  0  0  0  0
 23 26  1  0  0  0  0
 24 23  1  0  0  0  0
 25 24  1  0  0  0  0
 26 27  1  0  0  0  0
M  END
>  <minimizedAffinity>
-4.83059978

$$$$
