
 OpenBabel03272508113D

 37 40  0  0  0  0  0  0  0  0999 V2000
   36.7000   29.5680   44.0920 Cl  0  0  0  0  0  0  0  0  0  0  0  0
   38.3480   29.9310   43.5550 C   0  0  0  0  0  0  0  0  0  0  0  0
   39.3540   30.3890   44.4050 C   0  0  0  0  0  0  0  0  0  0  0  0
   40.5940   30.6330   43.8550 C   0  0  0  0  0  0  0  0  0  0  0  0
   40.8190   30.4270   42.5130 C   0  0  0  0  0  0  0  0  0  0  0  0
   39.8390   29.9760   41.6650 C   0  0  0  0  0  0  0  0  0  0  0  0
   38.6010   29.7290   42.1960 C   0  0  0  0  0  0  0  0  0  0  0  0
   41.3100   30.9860   44.5890 H   0  0  0  0  0  0  0  0  0  0  0  0
   41.8180   30.6390   42.1460 H   0  0  0  0  0  0  0  0  0  0  0  0
   40.0540   29.8240   40.6050 H   0  0  0  0  0  0  0  0  0  0  0  0
   37.5970   29.2620   41.3030 N   0  0  0  0  0  0  0  0  0  0  0  0
   37.3690   27.9770   40.9360 C   0  0  0  0  0  0  0  0  0  0  0  0
   37.9130   27.0870   41.2610 H   0  0  0  0  0  0  0  0  0  0  0  0
   36.3370   27.8930   40.0730 N   0  0  0  0  0  0  0  0  0  0  0  0
   35.8710   29.1530   39.8630 C   0  0  0  0  0  0  0  0  0  0  0  0
   34.8600   29.7290   39.1100 C   0  0  0  0  0  0  0  0  0  0  0  0
   34.2380   29.0740   38.5070 H   0  0  0  0  0  0  0  0  0  0  0  0
   34.6820   31.0780   39.1510 N   0  0  0  0  0  0  0  0  0  0  0  0
   35.4540   31.8820   39.8990 C   0  0  0  0  0  0  0  0  0  0  0  0
   35.3190   32.9590   39.9380 H   0  0  0  0  0  0  0  0  0  0  0  0
   36.4270   31.2820   40.6180 N   0  0  0  0  0  0  0  0  0  0  0  0
   36.6680   29.9750   40.6350 C   0  0  0  0  0  0  0  0  0  0  0  0
   38.9250   30.5270   45.6930 O   0  0  0  0  0  0  0  0  0  0  0  0
   39.4500   32.5610   47.2010 O   0  0  0  0  0  0  0  0  0  0  0  0
   38.3380   31.8750   46.4840 P   0  0  1  0  0  0  0  0  0  0  0  0
   37.7580   32.8930   45.2380 O   0  0  0  0  0  0  0  0  0  0  0  0
   38.3900   33.6450   45.1190 H   0  0  0  0  0  0  0  0  0  0  0  0
   37.0420   31.4250   47.4860 O   0  0  0  0  0  0  0  0  0  0  0  0
   37.5940   30.5180   51.0170 C   0  0  0  0  0  0  0  0  0  0  0  0
   37.7030   31.3070   49.8660 C   0  0  0  0  0  0  0  0  0  0  0  0
   37.0740   30.8430   48.7020 C   0  0  0  0  0  0  0  0  0  0  0  0
   36.3950   29.6570   48.7560 N   0  0  0  0  0  0  0  0  0  0  0  0
   36.3220   28.9390   49.8880 C   0  0  0  0  0  0  0  0  0  0  0  0
   36.9150   29.3600   51.0170 N   0  0  0  0  0  0  0  0  0  0  0  0
   38.1050   30.9300   51.8960 H   0  0  0  0  0  0  0  0  0  0  0  0
   38.2140   32.2320   49.7660 H   0  0  0  0  0  0  0  0  0  0  0  0
   35.7860   27.9970   49.9400 H   0  0  0  0  0  0  0  0  0  0  0  0
  2  1  1  0  0  0  0
  2  3  1  0  0  0  0
  3 23  1  0  0  0  0
  4  3  2  0  0  0  0
  4  8  1  0  0  0  0
  5  4  1  0  0  0  0
  6  7  1  0  0  0  0
  6  5  2  0  0  0  0
  7  2  2  0  0  0  0
  9  5  1  0  0  0  0
 10  6  1  0  0  0  0
 11  7  1  0  0  0  0
 12 13  1  0  0  0  0
 12 11  1  0  0  0  0
 14 12  2  0  0  0  0
 15 14  1  0  0  0  0
 15 22  1  0  0  0  0
 16 18  1  0  0  0  0
 16 15  2  0  0  0  0
 17 16  1  0  0  0  0
 18 19  2  0  0  0  0
 19 20  1  0  0  0  0
 19 21  1  0  0  0  0
 21 22  2  0  0  0  0
 22 11  1  0  0  0  0
 23 25  1  0  0  0  0
 25 24  2  1  0  0  0
 25 28  1  0  0  0  0
 26 25  1  0  0  0  0
 27 26  1  0  0  0  0
 28 31  1  0  0  0  0
 29 34  1  0  0  0  0
 29 35  1  0  0  0  0
 30 29  2  0  0  0  0
 31 32  2  0  0  0  0
 31 30  1  0  0  0  0
 32 33  1  0  0  0  0
 33 37  1  0  0  0  0
 33 34  2  0  0  0  0
 36 30  1  0  0  0  0
M  END
>  <minimizedAffinity>
-4.94453621

>  <minimizedRMSD>
1.46677029

$$$$
