
 OpenBabel03272503053D

 35 38  0  0  0  0  0  0  0  0999 V2000
   38.4270   30.3130   47.4040 F   0  0  0  0  0  0  0  0  0  0  0  0
   38.6940   31.5610   47.8500 C   0  0  0  0  0  0  0  0  0  0  0  0
   38.1020   32.0090   49.0100 C   0  0  0  0  0  0  0  0  0  0  0  0
   38.4120   33.2780   49.4060 C   0  0  0  0  0  0  0  0  0  0  0  0
   39.2730   34.0960   48.7010 C   0  0  0  0  0  0  0  0  0  0  0  0
   39.8550   33.6190   47.5360 C   0  0  0  0  0  0  0  0  0  0  0  0
   39.5580   32.3270   47.1060 C   0  0  0  0  0  0  0  0  0  0  0  0
   37.9610   33.6550   50.3130 H   0  0  0  0  0  0  0  0  0  0  0  0
   39.5120   35.1020   49.0260 H   0  0  0  0  0  0  0  0  0  0  0  0
   40.5340   34.2060   46.9440 H   0  0  0  0  0  0  0  0  0  0  0  0
   36.6840   29.5650   51.5230 C   0  0  0  0  0  0  0  0  0  0  0  0
   37.5610   30.4280   50.8610 C   0  0  0  0  0  0  0  0  0  0  0  0
   37.2010   31.1040   49.7140 C   0  0  0  0  0  0  0  0  0  0  0  0
   35.9280   30.8860   49.2520 N   0  0  0  0  0  0  0  0  0  0  0  0
   35.0860   30.0520   49.8940 C   0  0  0  0  0  0  0  0  0  0  0  0
   35.4510   29.4080   50.9990 N   0  0  0  0  0  0  0  0  0  0  0  0
   37.0020   29.0490   52.4230 H   0  0  0  0  0  0  0  0  0  0  0  0
   38.5560   30.5650   51.2690 H   0  0  0  0  0  0  0  0  0  0  0  0
   34.1140   29.9730   49.4200 H   0  0  0  0  0  0  0  0  0  0  0  0
   39.3350   32.0020   44.7410 C   0  0  0  0  0  0  0  0  0  0  0  0
   38.2340   32.6130   44.9520 O   0  0  0  0  0  0  0  0  0  0  0  0
   40.1400   31.8080   45.9140 N   0  0  0  0  0  0  0  0  0  0  0  0
   41.0520   31.3140   45.7760 H   0  0  0  0  0  0  0  0  0  0  0  0
   39.0110   32.8150   41.9930 H   0  0  0  0  0  0  0  0  0  0  0  0
   39.5900   31.9670   42.1770 N   0  0  0  0  0  0  0  0  0  0  0  0
   39.7940   31.5180   43.4340 C   0  0  0  0  0  0  0  0  0  0  0  0
   40.5800   30.4110   43.3560 N   0  0  0  0  0  0  0  0  0  0  0  0
   40.8830   30.1410   42.0930 C   0  0  0  0  0  0  0  0  0  0  0  0
   41.5990   29.2150   41.3620 C   0  0  0  0  0  0  0  0  0  0  0  0
   42.0960   28.4350   41.9420 H   0  0  0  0  0  0  0  0  0  0  0  0
   41.6950   29.2530   40.0010 N   0  0  0  0  0  0  0  0  0  0  0  0
   41.0560   30.2480   39.3210 C   0  0  0  0  0  0  0  0  0  0  0  0
   41.1820   30.2060   38.2490 H   0  0  0  0  0  0  0  0  0  0  0  0
   40.3440   31.1740   39.9960 N   0  0  0  0  0  0  0  0  0  0  0  0
   40.2510   31.1340   41.3510 C   0  0  0  0  0  0  0  0  0  0  0  0
  1  2  1  0  0  0  0
  2  3  1  0  0  0  0
  3  4  2  0  0  0  0
  3 13  1  0  0  0  0
  4  8  1  0  0  0  0
  5  9  1  0  0  0  0
  5  4  1  0  0  0  0
  6  5  2  0  0  0  0
  7  6  1  0  0  0  0
  7  2  2  0  0  0  0
 10  6  1  0  0  0  0
 11 17  1  0  0  0  0
 12 18  1  0  0  0  0
 12 11  2  0  0  0  0
 13 12  1  0  0  0  0
 14 13  2  0  0  0  0
 14 15  1  0  0  0  0
 15 16  2  0  0  0  0
 16 11  1  0  0  0  0
 19 15  1  0  0  0  0
 20 21  2  0  0  0  0
 20 22  1  0  0  0  0
 22  7  1  0  0  0  0
 23 22  1  0  0  0  0
 24 25  1  0  0  0  0
 25 26  1  0  0  0  0
 26 20  1  0  0  0  0
 27 26  2  0  0  0  0
 28 27  1  0  0  0  0
 29 30  1  0  0  0  0
 29 28  1  0  0  0  0
 31 29  2  0  0  0  0
 32 34  2  0  0  0  0
 32 31  1  0  0  0  0
 33 32  1  0  0  0  0
 34 35  1  0  0  0  0
 35 28  2  0  0  0  0
 35 25  1  0  0  0  0
M  END
>  <minimizedAffinity>
-7.1491828

>  <minimizedRMSD>
0.443638921

$$$$
