
     RDKit          3D

 41 44  0  0  0  0  0  0  0  0999 V2000
   36.0804   30.6880   49.0663 C   0  0  2  0  0  0  0  0  0  0  0  0
   37.0203   31.6423   49.7397 C   0  0  0  0  0  0  0  0  0  0  0  0
   38.0453   30.9429   50.6064 C   0  0  0  0  0  0  0  0  0  0  0  0
   37.3594   30.0637   51.6499 C   0  0  0  0  0  0  0  0  0  0  0  0
   36.1056   29.3881   51.1504 C   0  0  0  0  0  0  0  0  0  0  0  0
   36.1940   29.3048   49.6144 C   0  0  1  0  0  0  0  0  0  0  0  0
   36.3204   30.6476   47.6008 C   0  0  0  0  0  0  0  0  0  0  0  0
   37.5758   31.1105   47.1768 C   0  0  0  0  0  0  0  0  0  0  0  0
   37.8295   31.0805   45.8013 C   0  0  0  0  0  0  0  0  0  0  0  0
   36.8474   30.6046   44.9597 N   0  0  0  0  0  0  0  0  0  0  0  0
   35.6379   30.1631   45.4248 C   0  0  0  0  0  0  0  0  0  0  0  0
   35.3960   30.1936   46.7464 N   0  0  0  0  0  0  0  0  0  0  0  0
   33.9447   28.1899   49.2367 C   0  0  0  0  0  0  0  0  0  0  0  0
   33.1151   28.8686   49.9412 O   0  0  0  0  0  0  0  0  0  0  0  0
   35.3363   28.3487   49.0134 N   0  0  0  0  0  0  0  0  0  0  0  0
   34.9868   30.9598   49.2051 H   0  0  0  0  0  0  0  0  0  0  0  0
   37.4644   32.4128   49.1405 H   0  0  0  0  0  0  0  0  0  0  0  0
   36.3671   32.1973   50.4949 H   0  0  0  0  0  0  0  0  0  0  0  0
   38.6144   31.7386   51.1085 H   0  0  0  0  0  0  0  0  0  0  0  0
   38.7222   30.2863   50.0425 H   0  0  0  0  0  0  0  0  0  0  0  0
   37.1859   30.7120   52.5254 H   0  0  0  0  0  0  0  0  0  0  0  0
   38.0640   29.2645   51.9608 H   0  0  0  0  0  0  0  0  0  0  0  0
   35.9683   28.3961   51.5884 H   0  0  0  0  0  0  0  0  0  0  0  0
   35.2587   30.0754   51.3552 H   0  0  0  0  0  0  0  0  0  0  0  0
   37.1810   28.9234   49.5112 H   0  0  0  0  0  0  0  0  0  0  0  0
   38.4219   31.4920   47.7122 H   0  0  0  0  0  0  0  0  0  0  0  0
   38.7412   31.4022   45.3323 H   0  0  0  0  0  0  0  0  0  0  0  0
   34.9454   29.8126   44.6804 H   0  0  0  0  0  0  0  0  0  0  0  0
   35.7366   27.6522   48.3058 H   0  0  0  0  0  0  0  0  0  0  0  0
   33.3907   25.4624   50.0423 H   0  0  0  0  0  0  0  0  0  0  0  0
   33.0447   25.8277   49.1050 N   0  0  0  0  0  0  0  0  0  0  0  0
   33.2206   27.0700   48.5867 C   0  0  0  0  0  0  0  0  0  0  0  0
   32.5954   26.9626   47.4277 N   0  0  0  0  0  0  0  0  0  0  0  0
   32.0596   25.7763   47.1965 C   0  0  0  0  0  0  0  0  0  0  0  0
   31.3422   25.2456   46.1505 C   0  0  0  0  0  0  0  0  0  0  0  0
   31.1242   25.8767   45.2803 H   0  0  0  0  0  0  0  0  0  0  0  0
   30.9433   23.9477   46.2672 N   0  0  0  0  0  0  0  0  0  0  0  0
   31.2330   23.2170   47.3479 C   0  0  0  0  0  0  0  0  0  0  0  0
   30.9096   22.1843   47.4293 H   0  0  0  0  0  0  0  0  0  0  0  0
   31.9382   23.7431   48.3734 N   0  0  0  0  0  0  0  0  0  0  0  0
   32.3503   25.0194   48.2977 C   0  0  0  0  0  0  0  0  0  0  0  0
  1  6  1  0
  1  2  1  0
  2  3  1  0
  3  4  1  0
  5  4  1  0
  6  5  1  0
  7  1  1  0
  8  7  2  0
  9  8  1  0
 10 11  1  0
 10  9  2  0
 11 12  2  0
 12  7  1  0
 13 14  2  0
 15 13  1  0
 15  6  1  0
  1 16  1  6
  2 17  1  0
  2 18  1  0
  3 19  1  0
  3 20  1  0
  4 21  1  0
  4 22  1  0
  5 23  1  0
  5 24  1  0
  6 25  1  1
  8 26  1  0
  9 27  1  0
 11 28  1  0
 15 29  1  0
 30 31  1  0
 31 32  1  0
 32 33  2  0
 33 34  1  0
 34 35  2  0
 35 36  1  0
 35 37  1  0
 37 38  2  0
 38 39  1  0
 38 40  1  0
 40 41  2  0
 41 31  1  0
 41 34  1  0
 13 32  1  0
M  ISO  8  16  13  17  13  18  13  19  13  20  13  21  13  22  13  23  13
M  ISO  8  24  13  25  13  26  14  27  14  28  14  30   9  36  16  39  16
M  END
>  <DihAtoms>  (1) 
13,12,31,30

>  <DihDeg>  (1) 
179.97117755968725

$$$$
