
 OpenBabel03272503213D

 38 42  0  0  0  0  0  0  0  0999 V2000
   36.9300   28.5060   30.4000 C   0  0  0  0  0  0  0  0  0  0  0  0
   37.5990   27.7700   31.4030 C   0  0  0  0  0  0  0  0  0  0  0  0
   37.1140   27.8860   32.7250 C   0  0  0  0  0  0  0  0  0  0  0  0
   36.0660   28.6690   32.9770 N   0  0  0  0  0  0  0  0  0  0  0  0
   35.4490   29.3600   32.0020 C   0  0  0  0  0  0  0  0  0  0  0  0
   35.8790   29.2760   30.7310 N   0  0  0  0  0  0  0  0  0  0  0  0
   37.3070   28.4130   29.3900 H   0  0  0  0  0  0  0  0  0  0  0  0
   38.4470   27.1310   31.2250 H   0  0  0  0  0  0  0  0  0  0  0  0
   34.3380   30.1700   32.3630 N   0  0  0  0  0  0  0  0  0  0  0  0
   33.8980   31.1920   31.5750 C   0  0  0  0  0  0  0  0  0  0  0  0
   34.3120   31.5070   30.6200 H   0  0  0  0  0  0  0  0  0  0  0  0
   32.8480   31.8110   32.1130 N   0  0  0  0  0  0  0  0  0  0  0  0
   32.6060   31.1660   33.2830 C   0  0  0  0  0  0  0  0  0  0  0  0
   31.6780   31.2940   34.3140 C   0  0  0  0  0  0  0  0  0  0  0  0
   30.9710   32.1160   34.1380 H   0  0  0  0  0  0  0  0  0  0  0  0
   31.6890   30.4790   35.3830 N   0  0  0  0  0  0  0  0  0  0  0  0
   32.6280   29.5030   35.4640 C   0  0  0  0  0  0  0  0  0  0  0  0
   32.5510   28.9010   36.3600 H   0  0  0  0  0  0  0  0  0  0  0  0
   33.5600   29.3330   34.4830 N   0  0  0  0  0  0  0  0  0  0  0  0
   33.5400   30.1520   33.4210 C   0  0  0  0  0  0  0  0  0  0  0  0
   37.7580   27.1500   33.8170 C   0  0  0  0  0  0  0  0  0  0  0  0
   37.8960   27.4180   35.1160 C   0  0  0  0  0  0  0  0  0  0  0  0
   38.5480   26.5500   35.9200 C   0  0  0  0  0  0  0  0  0  0  0  0
   39.0460   25.4050   35.3320 C   0  0  0  0  0  0  0  0  0  0  0  0
   38.5560   25.5990   33.5780 S   0  0  0  0  0  0  0  0  0  0  0  0
   37.4690   28.3450   35.4900 H   0  0  0  0  0  0  0  0  0  0  0  0
   38.7270   26.6480   36.9830 H   0  0  0  0  0  0  0  0  0  0  0  0
   37.5220   23.5890   37.2420 Cl  0  0  0  0  0  0  0  0  0  0  0  0
   39.1680   23.4200   36.7150 C   0  0  0  0  0  0  0  0  0  0  0  0
   39.7820   24.2760   35.8550 C   0  0  0  0  0  0  0  0  0  0  0  0
   41.0680   24.1900   35.4090 C   0  0  0  0  0  0  0  0  0  0  0  0
   41.8690   23.1370   35.8510 C   0  0  0  0  0  0  0  0  0  0  0  0
   41.3070   22.2280   36.7300 C   0  0  0  0  0  0  0  0  0  0  0  0
   42.2130   20.8660   37.3530 Cl  0  0  0  0  0  0  0  0  0  0  0  0
   39.9730   22.3700   37.1540 C   0  0  0  0  0  0  0  0  0  0  0  0
   41.5470   24.8800   34.7230 H   0  0  0  0  0  0  0  0  0  0  0  0
   42.8780   22.9980   35.5520 H   0  0  0  0  0  0  0  0  0  0  0  0
   39.5240   21.6490   37.8500 H   0  0  0  0  0  0  0  0  0  0  0  0
  1  6  2  0  0  0  0
  1  2  1  0  0  0  0
  2  3  2  0  0  0  0
  3  4  1  0  0  0  0
  3 21  1  0  0  0  0
  5  9  1  0  0  0  0
  5  4  2  0  0  0  0
  6  5  1  0  0  0  0
  7  1  1  0  0  0  0
  8  2  1  0  0  0  0
  9 20  1  0  0  0  0
 10 12  2  0  0  0  0
 10  9  1  0  0  0  0
 11 10  1  0  0  0  0
 12 13  1  0  0  0  0
 13 20  2  0  0  0  0
 13 14  1  0  0  0  0
 14 16  2  0  0  0  0
 15 14  1  0  0  0  0
 16 17  1  0  0  0  0
 17 18  1  0  0  0  0
 19 17  2  0  0  0  0
 20 19  1  0  0  0  0
 21 22  2  0  0  0  0
 22 26  1  0  0  0  0
 22 23  1  0  0  0  0
 23 27  1  0  0  0  0
 24 30  1  0  0  0  0
 24 23  2  0  0  0  0
 25 21  1  0  0  0  0
 25 24  1  0  0  0  0
 29 35  1  0  0  0  0
 29 28  1  0  0  0  0
 30 29  2  0  0  0  0
 31 32  2  0  0  0  0
 31 30  1  0  0  0  0
 32 33  1  0  0  0  0
 33 35  2  0  0  0  0
 33 34  1  0  0  0  0
 35 38  1  0  0  0  0
 36 31  1  0  0  0  0
 37 32  1  0  0  0  0
M  END
>  <minimizedAffinity>
-6.64889145

$$$$

 OpenBabel03272503213D

 38 42  0  0  0  0  0  0  0  0999 V2000
   35.8870   29.2340   33.0530 C   0  0  0  0  0  0  0  0  0  0  0  0
   36.3250   28.2730   33.9900 C   0  0  0  0  0  0  0  0  0  0  0  0
   37.3610   27.3990   33.5880 C   0  0  0  0  0  0  0  0  0  0  0  0
   37.8770   27.5070   32.3640 N   0  0  0  0  0  0  0  0  0  0  0  0
   37.4390   28.4320   31.4910 C   0  0  0  0  0  0  0  0  0  0  0  0
   36.4570   29.2820   31.8350 N   0  0  0  0  0  0  0  0  0  0  0  0
   35.0940   29.9000   33.3670 H   0  0  0  0  0  0  0  0  0  0  0  0
   35.9250   28.1650   34.9830 H   0  0  0  0  0  0  0  0  0  0  0  0
   38.0490   28.4750   30.2080 N   0  0  0  0  0  0  0  0  0  0  0  0
   37.4470   29.0680   29.1370 C   0  0  0  0  0  0  0  0  0  0  0  0
   36.4770   29.5590   29.1210 H   0  0  0  0  0  0  0  0  0  0  0  0
   38.2020   28.9860   28.0420 N   0  0  0  0  0  0  0  0  0  0  0  0
   39.3230   28.3210   28.4210 C   0  0  0  0  0  0  0  0  0  0  0  0
   40.4920   27.9060   27.7890 C   0  0  0  0  0  0  0  0  0  0  0  0
   40.5130   28.1840   26.7270 H   0  0  0  0  0  0  0  0  0  0  0  0
   41.4580   27.2420   28.4490 N   0  0  0  0  0  0  0  0  0  0  0  0
   41.2920   26.9670   29.7660 C   0  0  0  0  0  0  0  0  0  0  0  0
   42.1240   26.4320   30.2050 H   0  0  0  0  0  0  0  0  0  0  0  0
   40.1670   27.3510   30.4350 N   0  0  0  0  0  0  0  0  0  0  0  0
   39.2100   28.0120   29.7670 C   0  0  0  0  0  0  0  0  0  0  0  0
   37.8660   26.3770   34.5090 C   0  0  0  0  0  0  0  0  0  0  0  0
   37.4720   25.9940   35.7230 C   0  0  0  0  0  0  0  0  0  0  0  0
   38.1260   25.0040   36.3670 C   0  0  0  0  0  0  0  0  0  0  0  0
   39.1960   24.4290   35.7090 C   0  0  0  0  0  0  0  0  0  0  0  0
   39.2460   25.3510   34.1270 S   0  0  0  0  0  0  0  0  0  0  0  0
   36.6170   26.5040   36.1630 H   0  0  0  0  0  0  0  0  0  0  0  0
   37.9090   24.6030   37.3480 H   0  0  0  0  0  0  0  0  0  0  0  0
   38.9190   23.3270   38.5330 Cl  0  0  0  0  0  0  0  0  0  0  0  0
   40.0530   22.8310   37.3140 C   0  0  0  0  0  0  0  0  0  0  0  0
   40.1140   23.3740   36.0690 C   0  0  0  0  0  0  0  0  0  0  0  0
   40.9810   23.0220   35.0760 C   0  0  0  0  0  0  0  0  0  0  0  0
   41.9130   22.0110   35.3160 C   0  0  0  0  0  0  0  0  0  0  0  0
   41.9050   21.4150   36.5650 C   0  0  0  0  0  0  0  0  0  0  0  0
   43.0260   20.1370   36.9830 Cl  0  0  0  0  0  0  0  0  0  0  0  0
   40.9860   21.8220   37.5490 C   0  0  0  0  0  0  0  0  0  0  0  0
   41.0210   23.4630   34.0860 H   0  0  0  0  0  0  0  0  0  0  0  0
   42.6210   21.6800   34.5980 H   0  0  0  0  0  0  0  0  0  0  0  0
   40.9770   21.3500   38.5400 H   0  0  0  0  0  0  0  0  0  0  0  0
  1  7  1  0  0  0  0
  1  2  1  0  0  0  0
  2  8  1  0  0  0  0
  3  2  2  0  0  0  0
  3 21  1  0  0  0  0
  4  3  1  0  0  0  0
  5  6  1  0  0  0  0
  5  4  2  0  0  0  0
  6  1  2  0  0  0  0
  9  5  1  0  0  0  0
 10  9  1  0  0  0  0
 11 10  1  0  0  0  0
 12 13  1  0  0  0  0
 12 10  2  0  0  0  0
 13 20  1  0  0  0  0
 14 13  2  0  0  0  0
 14 16  1  0  0  0  0
 15 14  1  0  0  0  0
 16 17  2  0  0  0  0
 17 18  1  0  0  0  0
 17 19  1  0  0  0  0
 20  9  1  0  0  0  0
 20 19  2  0  0  0  0
 21 22  2  0  0  0  0
 22 26  1  0  0  0  0
 22 23  1  0  0  0  0
 23 27  1  0  0  0  0
 24 30  1  0  0  0  0
 24 23  2  0  0  0  0
 25 21  1  0  0  0  0
 25 24  1  0  0  0  0
 29 35  1  0  0  0  0
 29 28  1  0  0  0  0
 30 29  2  0  0  0  0
 31 32  2  0  0  0  0
 31 30  1  0  0  0  0
 32 33  1  0  0  0  0
 33 34  1  0  0  0  0
 33 35  2  0  0  0  0
 35 38  1  0  0  0  0
 36 31  1  0  0  0  0
 37 32  1  0  0  0  0
M  END
>  <minimizedAffinity>
-6.50914049

$$$$

 OpenBabel03272503213D

 38 42  0  0  0  0  0  0  0  0999 V2000
   38.1140   25.4980   30.8040 C   0  0  0  0  0  0  0  0  0  0  0  0
   37.5140   26.7390   31.1120 C   0  0  0  0  0  0  0  0  0  0  0  0
   37.1330   26.9600   32.4550 C   0  0  0  0  0  0  0  0  0  0  0  0
   37.3460   26.0110   33.3660 N   0  0  0  0  0  0  0  0  0  0  0  0
   37.9200   24.8380   33.0440 C   0  0  0  0  0  0  0  0  0  0  0  0
   38.2970   24.5890   31.7780 N   0  0  0  0  0  0  0  0  0  0  0  0
   38.4030   25.3360   29.7740 H   0  0  0  0  0  0  0  0  0  0  0  0
   37.3300   27.5200   30.3950 H   0  0  0  0  0  0  0  0  0  0  0  0
   38.1090   23.8850   34.0810 N   0  0  0  0  0  0  0  0  0  0  0  0
   38.2970   22.5590   33.8240 C   0  0  0  0  0  0  0  0  0  0  0  0
   38.3250   22.0790   32.8480 H   0  0  0  0  0  0  0  0  0  0  0  0
   38.4520   21.8570   34.9460 N   0  0  0  0  0  0  0  0  0  0  0  0
   38.3620   22.7610   35.9550 C   0  0  0  0  0  0  0  0  0  0  0  0
   38.4310   22.7060   37.3450 C   0  0  0  0  0  0  0  0  0  0  0  0
   38.6010   21.6860   37.7140 H   0  0  0  0  0  0  0  0  0  0  0  0
   38.3000   23.8080   38.1050 N   0  0  0  0  0  0  0  0  0  0  0  0
   38.0930   25.0070   37.5050 C   0  0  0  0  0  0  0  0  0  0  0  0
   38.0010   25.8300   38.2020 H   0  0  0  0  0  0  0  0  0  0  0  0
   38.0160   25.1180   36.1480 N   0  0  0  0  0  0  0  0  0  0  0  0
   38.1490   24.0120   35.4000 C   0  0  0  0  0  0  0  0  0  0  0  0
   36.5050   28.2250   32.8480 C   0  0  0  0  0  0  0  0  0  0  0  0
   35.9990   29.2310   32.1340 C   0  0  0  0  0  0  0  0  0  0  0  0
   35.4660   30.3030   32.7590 C   0  0  0  0  0  0  0  0  0  0  0  0
   35.4780   30.2930   34.1400 C   0  0  0  0  0  0  0  0  0  0  0  0
   36.2790   28.6930   34.5300 S   0  0  0  0  0  0  0  0  0  0  0  0
   36.0330   29.1510   31.0500 H   0  0  0  0  0  0  0  0  0  0  0  0
   35.0270   31.1790   32.3000 H   0  0  0  0  0  0  0  0  0  0  0  0
   32.7690   29.6890   35.3910 Cl  0  0  0  0  0  0  0  0  0  0  0  0
   33.8110   31.0350   35.7330 C   0  0  0  0  0  0  0  0  0  0  0  0
   35.0130   31.2370   35.1300 C   0  0  0  0  0  0  0  0  0  0  0  0
   35.8690   32.2740   35.3620 C   0  0  0  0  0  0  0  0  0  0  0  0
   35.5190   33.2450   36.3000 C   0  0  0  0  0  0  0  0  0  0  0  0
   34.3070   33.1000   36.9510 C   0  0  0  0  0  0  0  0  0  0  0  0
   33.7600   34.2550   38.1480 Cl  0  0  0  0  0  0  0  0  0  0  0  0
   33.4650   32.0080   36.6700 C   0  0  0  0  0  0  0  0  0  0  0  0
   36.8260   32.4250   34.8730 H   0  0  0  0  0  0  0  0  0  0  0  0
   36.1280   34.0810   36.5370 H   0  0  0  0  0  0  0  0  0  0  0  0
   32.5040   31.8910   37.1860 H   0  0  0  0  0  0  0  0  0  0  0  0
  1  2  2  0  0  0  0
  1  6  1  0  0  0  0
  2  3  1  0  0  0  0
  3 21  1  0  0  0  0
  3  4  2  0  0  0  0
  5  4  1  0  0  0  0
  5  9  1  0  0  0  0
  6  5  2  0  0  0  0
  7  1  1  0  0  0  0
  8  2  1  0  0  0  0
  9 20  1  0  0  0  0
 10  9  1  0  0  0  0
 10 12  2  0  0  0  0
 11 10  1  0  0  0  0
 12 13  1  0  0  0  0
 13 14  1  0  0  0  0
 14 15  1  0  0  0  0
 14 16  2  0  0  0  0
 17 16  1  0  0  0  0
 17 18  1  0  0  0  0
 19 17  2  0  0  0  0
 20 13  2  0  0  0  0
 20 19  1  0  0  0  0
 21 25  1  0  0  0  0
 22 23  1  0  0  0  0
 22 21  2  0  0  0  0
 23 24  2  0  0  0  0
 24 25  1  0  0  0  0
 24 30  1  0  0  0  0
 26 22  1  0  0  0  0
 27 23  1  0  0  0  0
 28 29  1  0  0  0  0
 29 35  1  0  0  0  0
 30 31  1  0  0  0  0
 30 29  2  0  0  0  0
 31 32  2  0  0  0  0
 32 37  1  0  0  0  0
 32 33  1  0  0  0  0
 33 34  1  0  0  0  0
 35 33  2  0  0  0  0
 35 38  1  0  0  0  0
 36 31  1  0  0  0  0
M  END
>  <minimizedAffinity>
-6.47901821

$$$$

 OpenBabel03272503213D

 38 42  0  0  0  0  0  0  0  0999 V2000
   40.3900   26.2310   31.4990 C   0  0  0  0  0  0  0  0  0  0  0  0
   39.3160   27.1460   31.5730 C   0  0  0  0  0  0  0  0  0  0  0  0
   38.4220   27.0110   32.6590 C   0  0  0  0  0  0  0  0  0  0  0  0
   38.6160   26.0450   33.5580 N   0  0  0  0  0  0  0  0  0  0  0  0
   39.6480   25.1870   33.4610 C   0  0  0  0  0  0  0  0  0  0  0  0
   40.5210   25.2830   32.4440 N   0  0  0  0  0  0  0  0  0  0  0  0
   41.0700   26.3400   30.6650 H   0  0  0  0  0  0  0  0  0  0  0  0
   39.1380   27.9330   30.8610 H   0  0  0  0  0  0  0  0  0  0  0  0
   39.7770   24.1900   34.4650 N   0  0  0  0  0  0  0  0  0  0  0  0
   40.5080   23.0550   34.2730 C   0  0  0  0  0  0  0  0  0  0  0  0
   41.0580   22.7760   33.3770 H   0  0  0  0  0  0  0  0  0  0  0  0
   40.4860   22.2670   35.3470 N   0  0  0  0  0  0  0  0  0  0  0  0
   39.7170   22.9170   36.2590 C   0  0  0  0  0  0  0  0  0  0  0  0
   39.2930   22.6620   37.5600 C   0  0  0  0  0  0  0  0  0  0  0  0
   39.6720   21.7040   37.9420 H   0  0  0  0  0  0  0  0  0  0  0  0
   38.5090   23.5230   38.2310 N   0  0  0  0  0  0  0  0  0  0  0  0
   38.1180   24.6730   37.6280 C   0  0  0  0  0  0  0  0  0  0  0  0
   37.4900   25.2980   38.2500 H   0  0  0  0  0  0  0  0  0  0  0  0
   38.5040   24.9730   36.3550 N   0  0  0  0  0  0  0  0  0  0  0  0
   39.2870   24.1060   35.6940 C   0  0  0  0  0  0  0  0  0  0  0  0
   37.2850   27.9250   32.8000 C   0  0  0  0  0  0  0  0  0  0  0  0
   36.6960   28.7570   31.9410 C   0  0  0  0  0  0  0  0  0  0  0  0
   35.6410   29.5020   32.3360 C   0  0  0  0  0  0  0  0  0  0  0  0
   35.2240   29.3520   33.6440 C   0  0  0  0  0  0  0  0  0  0  0  0
   36.3910   28.1050   34.3060 S   0  0  0  0  0  0  0  0  0  0  0  0
   37.0930   28.8070   30.9300 H   0  0  0  0  0  0  0  0  0  0  0  0
   35.0780   30.2100   31.7430 H   0  0  0  0  0  0  0  0  0  0  0  0
   36.0870   31.3840   35.7400 Cl  0  0  0  0  0  0  0  0  0  0  0  0
   34.4680   30.8810   35.3640 C   0  0  0  0  0  0  0  0  0  0  0  0
   34.1610   29.9640   34.4090 C   0  0  0  0  0  0  0  0  0  0  0  0
   32.9100   29.5340   34.0740 C   0  0  0  0  0  0  0  0  0  0  0  0
   31.8090   30.0600   34.7510 C   0  0  0  0  0  0  0  0  0  0  0  0
   32.0510   31.0000   35.7370 C   0  0  0  0  0  0  0  0  0  0  0  0
   30.7510   31.7300   36.6530 Cl  0  0  0  0  0  0  0  0  0  0  0  0
   33.3650   31.4030   36.0380 C   0  0  0  0  0  0  0  0  0  0  0  0
   32.6770   28.8000   33.3100 H   0  0  0  0  0  0  0  0  0  0  0  0
   30.8050   29.7790   34.5500 H   0  0  0  0  0  0  0  0  0  0  0  0
   33.5590   32.1500   36.8190 H   0  0  0  0  0  0  0  0  0  0  0  0
  1  2  2  0  0  0  0
  1  6  1  0  0  0  0
  2  3  1  0  0  0  0
  3 21  1  0  0  0  0
  3  4  2  0  0  0  0
  5  4  1  0  0  0  0
  5  9  1  0  0  0  0
  6  5  2  0  0  0  0
  7  1  1  0  0  0  0
  8  2  1  0  0  0  0
  9 20  1  0  0  0  0
 10  9  1  0  0  0  0
 10 12  2  0  0  0  0
 11 10  1  0  0  0  0
 12 13  1  0  0  0  0
 13 14  1  0  0  0  0
 14 15  1  0  0  0  0
 14 16  2  0  0  0  0
 17 16  1  0  0  0  0
 17 18  1  0  0  0  0
 19 17  2  0  0  0  0
 20 13  2  0  0  0  0
 20 19  1  0  0  0  0
 21 25  1  0  0  0  0
 22 23  1  0  0  0  0
 22 21  2  0  0  0  0
 23 24  2  0  0  0  0
 24 25  1  0  0  0  0
 24 30  1  0  0  0  0
 26 22  1  0  0  0  0
 27 23  1  0  0  0  0
 29 28  1  0  0  0  0
 29 35  1  0  0  0  0
 30 29  2  0  0  0  0
 31 30  1  0  0  0  0
 31 32  2  0  0  0  0
 32 33  1  0  0  0  0
 33 35  2  0  0  0  0
 33 34  1  0  0  0  0
 35 38  1  0  0  0  0
 36 31  1  0  0  0  0
 37 32  1  0  0  0  0
M  END
>  <minimizedAffinity>
-6.28383589

$$$$

 OpenBabel03272503213D

 38 42  0  0  0  0  0  0  0  0999 V2000
   38.4840   23.5310   38.3440 C   0  0  0  0  0  0  0  0  0  0  0  0
   38.0250   24.5400   37.4690 C   0  0  0  0  0  0  0  0  0  0  0  0
   38.6590   24.6440   36.2100 C   0  0  0  0  0  0  0  0  0  0  0  0
   39.6470   23.8070   35.8980 N   0  0  0  0  0  0  0  0  0  0  0  0
   40.0640   22.8550   36.7520 C   0  0  0  0  0  0  0  0  0  0  0  0
   39.4870   22.7220   37.9580 N   0  0  0  0  0  0  0  0  0  0  0  0
   37.9940   23.4560   39.3070 H   0  0  0  0  0  0  0  0  0  0  0  0
   37.2300   25.2280   37.6990 H   0  0  0  0  0  0  0  0  0  0  0  0
   41.1240   22.0060   36.3330 N   0  0  0  0  0  0  0  0  0  0  0  0
   41.8820   21.2980   37.2200 C   0  0  0  0  0  0  0  0  0  0  0  0
   41.7830   21.2880   38.3030 H   0  0  0  0  0  0  0  0  0  0  0  0
   42.8140   20.5740   36.6020 N   0  0  0  0  0  0  0  0  0  0  0  0
   42.6490   20.8240   35.2770 C   0  0  0  0  0  0  0  0  0  0  0  0
   43.2720   20.4050   34.1040 C   0  0  0  0  0  0  0  0  0  0  0  0
   44.0940   19.7020   34.2960 H   0  0  0  0  0  0  0  0  0  0  0  0
   42.8740   20.8400   32.8960 N   0  0  0  0  0  0  0  0  0  0  0  0
   41.8380   21.7120   32.8140 C   0  0  0  0  0  0  0  0  0  0  0  0
   41.5940   22.0010   31.7990 H   0  0  0  0  0  0  0  0  0  0  0  0
   41.1920   22.1550   33.9300 N   0  0  0  0  0  0  0  0  0  0  0  0
   41.5980   21.7140   35.1310 C   0  0  0  0  0  0  0  0  0  0  0  0
   38.2350   25.6680   35.2510 C   0  0  0  0  0  0  0  0  0  0  0  0
   37.4060   26.7070   35.3600 C   0  0  0  0  0  0  0  0  0  0  0  0
   37.1870   27.5120   34.2990 C   0  0  0  0  0  0  0  0  0  0  0  0
   37.8550   27.2030   33.1300 C   0  0  0  0  0  0  0  0  0  0  0  0
   38.8160   25.7130   33.5900 S   0  0  0  0  0  0  0  0  0  0  0  0
   36.9250   26.8720   36.3210 H   0  0  0  0  0  0  0  0  0  0  0  0
   36.5430   28.3810   34.2550 H   0  0  0  0  0  0  0  0  0  0  0  0
   35.2400   28.4620   32.2120 Cl  0  0  0  0  0  0  0  0  0  0  0  0
   36.7410   28.3980   31.3420 C   0  0  0  0  0  0  0  0  0  0  0  0
   37.8720   27.8150   31.8210 C   0  0  0  0  0  0  0  0  0  0  0  0
   39.0750   27.7380   31.1820 C   0  0  0  0  0  0  0  0  0  0  0  0
   39.2030   28.2970   29.9100 C   0  0  0  0  0  0  0  0  0  0  0  0
   38.0890   28.9070   29.3620 C   0  0  0  0  0  0  0  0  0  0  0  0
   38.1290   29.6440   27.7740 Cl  0  0  0  0  0  0  0  0  0  0  0  0
   36.8750   28.9560   30.0710 C   0  0  0  0  0  0  0  0  0  0  0  0
   39.9710   27.2690   31.5740 H   0  0  0  0  0  0  0  0  0  0  0  0
   40.1030   28.2790   29.3470 H   0  0  0  0  0  0  0  0  0  0  0  0
   35.9900   29.4400   29.6380 H   0  0  0  0  0  0  0  0  0  0  0  0
  1  7  1  0  0  0  0
  2  8  1  0  0  0  0
  2  1  2  0  0  0  0
  3  2  1  0  0  0  0
  4  3  2  0  0  0  0
  4  5  1  0  0  0  0
  5  6  2  0  0  0  0
  6  1  1  0  0  0  0
  9  5  1  0  0  0  0
  9 10  1  0  0  0  0
 10 11  1  0  0  0  0
 12 10  2  0  0  0  0
 13 12  1  0  0  0  0
 14 15  1  0  0  0  0
 14 13  2  0  0  0  0
 16 14  1  0  0  0  0
 17 16  2  0  0  0  0
 17 19  1  0  0  0  0
 18 17  1  0  0  0  0
 19 20  2  0  0  0  0
 20 13  1  0  0  0  0
 20  9  1  0  0  0  0
 21 22  2  0  0  0  0
 21  3  1  0  0  0  0
 22 26  1  0  0  0  0
 23 22  1  0  0  0  0
 24 25  1  0  0  0  0
 24 23  2  0  0  0  0
 25 21  1  0  0  0  0
 27 23  1  0  0  0  0
 29 30  1  0  0  0  0
 29 28  1  0  0  0  0
 30 24  1  0  0  0  0
 31 36  1  0  0  0  0
 31 30  2  0  0  0  0
 32 31  1  0  0  0  0
 33 32  2  0  0  0  0
 33 35  1  0  0  0  0
 34 33  1  0  0  0  0
 35 29  2  0  0  0  0
 37 32  1  0  0  0  0
 38 35  1  0  0  0  0
M  END
>  <minimizedAffinity>
-6.25761795

$$$$

 OpenBabel03272503213D

 38 42  0  0  0  0  0  0  0  0999 V2000
   38.3080   23.7510   38.1960 C   0  0  0  0  0  0  0  0  0  0  0  0
   37.7820   24.5450   37.1530 C   0  0  0  0  0  0  0  0  0  0  0  0
   38.4000   24.4420   35.8860 C   0  0  0  0  0  0  0  0  0  0  0  0
   39.4340   23.6190   35.7210 N   0  0  0  0  0  0  0  0  0  0  0  0
   39.9140   22.8740   36.7330 C   0  0  0  0  0  0  0  0  0  0  0  0
   39.3550   22.9420   37.9530 N   0  0  0  0  0  0  0  0  0  0  0  0
   37.8310   23.8340   39.1640 H   0  0  0  0  0  0  0  0  0  0  0  0
   36.9490   25.2170   37.2620 H   0  0  0  0  0  0  0  0  0  0  0  0
   41.0200   22.0230   36.4650 N   0  0  0  0  0  0  0  0  0  0  0  0
   41.8250   21.5430   37.4560 C   0  0  0  0  0  0  0  0  0  0  0  0
   41.7350   21.7360   38.5220 H   0  0  0  0  0  0  0  0  0  0  0  0
   42.7950   20.7690   36.9700 N   0  0  0  0  0  0  0  0  0  0  0  0
   42.6060   20.7500   35.6250 C   0  0  0  0  0  0  0  0  0  0  0  0
   43.2440   20.1510   34.5430 C   0  0  0  0  0  0  0  0  0  0  0  0
   44.1080   19.5470   34.8500 H   0  0  0  0  0  0  0  0  0  0  0  0
   42.8110   20.3230   33.2810 N   0  0  0  0  0  0  0  0  0  0  0  0
   41.7250   21.1010   33.0530 C   0  0  0  0  0  0  0  0  0  0  0  0
   41.4560   21.1760   32.0070 H   0  0  0  0  0  0  0  0  0  0  0  0
   41.0620   21.7120   34.0770 N   0  0  0  0  0  0  0  0  0  0  0  0
   41.5020   21.5330   35.3310 C   0  0  0  0  0  0  0  0  0  0  0  0
   37.9080   25.2370   34.7570 C   0  0  0  0  0  0  0  0  0  0  0  0
   37.7200   24.9410   33.4700 C   0  0  0  0  0  0  0  0  0  0  0  0
   37.2430   25.8780   32.6230 C   0  0  0  0  0  0  0  0  0  0  0  0
   36.9700   27.1220   33.1560 C   0  0  0  0  0  0  0  0  0  0  0  0
   37.4170   26.9200   34.9200 S   0  0  0  0  0  0  0  0  0  0  0  0
   37.9630   23.9330   33.1420 H   0  0  0  0  0  0  0  0  0  0  0  0
   37.0480   25.7670   31.5640 H   0  0  0  0  0  0  0  0  0  0  0  0
   38.4490   28.1460   30.6990 Cl  0  0  0  0  0  0  0  0  0  0  0  0
   37.0730   28.8650   31.4770 C   0  0  0  0  0  0  0  0  0  0  0  0
   36.4640   28.3460   32.5760 C   0  0  0  0  0  0  0  0  0  0  0  0
   35.3830   28.8680   33.2240 C   0  0  0  0  0  0  0  0  0  0  0  0
   34.8130   30.0490   32.7480 C   0  0  0  0  0  0  0  0  0  0  0  0
   35.3850   30.6320   31.6310 C   0  0  0  0  0  0  0  0  0  0  0  0
   34.7580   32.1150   30.9420 Cl  0  0  0  0  0  0  0  0  0  0  0  0
   36.5000   30.0460   31.0050 C   0  0  0  0  0  0  0  0  0  0  0  0
   34.9060   28.4440   34.1010 H   0  0  0  0  0  0  0  0  0  0  0  0
   33.9730   30.5190   33.1940 H   0  0  0  0  0  0  0  0  0  0  0  0
   36.9540   30.5060   30.1180 H   0  0  0  0  0  0  0  0  0  0  0  0
  1  7  1  0  0  0  0
  2  8  1  0  0  0  0
  2  1  2  0  0  0  0
  3  2  1  0  0  0  0
  4  3  2  0  0  0  0
  4  5  1  0  0  0  0
  5  6  2  0  0  0  0
  6  1  1  0  0  0  0
  9  5  1  0  0  0  0
  9 10  1  0  0  0  0
 10 11  1  0  0  0  0
 12 10  2  0  0  0  0
 13 12  1  0  0  0  0
 14 15  1  0  0  0  0
 14 13  2  0  0  0  0
 16 14  1  0  0  0  0
 17 16  2  0  0  0  0
 17 19  1  0  0  0  0
 18 17  1  0  0  0  0
 19 20  2  0  0  0  0
 20 13  1  0  0  0  0
 20  9  1  0  0  0  0
 21 25  1  0  0  0  0
 21  3  1  0  0  0  0
 22 21  2  0  0  0  0
 23 24  2  0  0  0  0
 23 22  1  0  0  0  0
 24 25  1  0  0  0  0
 26 22  1  0  0  0  0
 27 23  1  0  0  0  0
 28 29  1  0  0  0  0
 29 30  1  0  0  0  0
 30 24  1  0  0  0  0
 30 31  2  0  0  0  0
 31 36  1  0  0  0  0
 32 37  1  0  0  0  0
 32 31  1  0  0  0  0
 33 32  2  0  0  0  0
 34 33  1  0  0  0  0
 35 29  2  0  0  0  0
 35 33  1  0  0  0  0
 38 35  1  0  0  0  0
M  END
>  <minimizedAffinity>
-6.10210323

$$$$

 OpenBabel03272503213D

 38 42  0  0  0  0  0  0  0  0999 V2000
   36.2420   30.8380   31.0300 C   0  0  0  0  0  0  0  0  0  0  0  0
   36.6080   29.4760   31.1070 C   0  0  0  0  0  0  0  0  0  0  0  0
   36.1130   28.7320   32.2010 C   0  0  0  0  0  0  0  0  0  0  0  0
   35.3340   29.3270   33.1050 N   0  0  0  0  0  0  0  0  0  0  0  0
   35.0020   30.6270   33.0060 C   0  0  0  0  0  0  0  0  0  0  0  0
   35.4520   31.3680   31.9800 N   0  0  0  0  0  0  0  0  0  0  0  0
   36.6250   31.4020   30.1890 H   0  0  0  0  0  0  0  0  0  0  0  0
   37.2350   28.9730   30.3910 H   0  0  0  0  0  0  0  0  0  0  0  0
   34.1670   31.1760   34.0160 N   0  0  0  0  0  0  0  0  0  0  0  0
   34.0920   32.5180   34.2460 C   0  0  0  0  0  0  0  0  0  0  0  0
   34.6300   33.3030   33.7190 H   0  0  0  0  0  0  0  0  0  0  0  0
   33.2480   32.8010   35.2370 N   0  0  0  0  0  0  0  0  0  0  0  0
   32.7650   31.6040   35.6570 C   0  0  0  0  0  0  0  0  0  0  0  0
   31.8660   31.1840   36.6340 C   0  0  0  0  0  0  0  0  0  0  0  0
   31.4460   32.0240   37.2030 H   0  0  0  0  0  0  0  0  0  0  0  0
   31.5780   29.8840   36.8200 N   0  0  0  0  0  0  0  0  0  0  0  0
   32.1780   28.9530   36.0380 C   0  0  0  0  0  0  0  0  0  0  0  0
   31.8800   27.9370   36.2650 H   0  0  0  0  0  0  0  0  0  0  0  0
   33.0660   29.3080   35.0650 N   0  0  0  0  0  0  0  0  0  0  0  0
   33.3460   30.6080   34.8880 C   0  0  0  0  0  0  0  0  0  0  0  0
   36.4510   27.3130   32.3460 C   0  0  0  0  0  0  0  0  0  0  0  0
   37.1150   26.6450   33.2890 C   0  0  0  0  0  0  0  0  0  0  0  0
   37.2890   25.3100   33.1770 C   0  0  0  0  0  0  0  0  0  0  0  0
   36.7530   24.7000   32.0600 C   0  0  0  0  0  0  0  0  0  0  0  0
   35.9840   26.0980   31.1610 S   0  0  0  0  0  0  0  0  0  0  0  0
   37.5020   27.2100   34.1340 H   0  0  0  0  0  0  0  0  0  0  0  0
   37.8050   24.6550   33.8670 H   0  0  0  0  0  0  0  0  0  0  0  0
   39.3530   23.6630   30.8650 Cl  0  0  0  0  0  0  0  0  0  0  0  0
   37.8620   22.7940   31.0600 C   0  0  0  0  0  0  0  0  0  0  0  0
   36.7370   23.3290   31.6060 C   0  0  0  0  0  0  0  0  0  0  0  0
   35.5440   22.6920   31.7830 C   0  0  0  0  0  0  0  0  0  0  0  0
   35.4180   21.3630   31.3790 C   0  0  0  0  0  0  0  0  0  0  0  0
   36.5260   20.7570   30.8140 C   0  0  0  0  0  0  0  0  0  0  0  0
   36.4880   19.0930   30.2700 Cl  0  0  0  0  0  0  0  0  0  0  0  0
   37.7310   21.4650   30.6580 C   0  0  0  0  0  0  0  0  0  0  0  0
   34.6530   23.1300   32.2200 H   0  0  0  0  0  0  0  0  0  0  0  0
   34.5250   20.7980   31.4820 H   0  0  0  0  0  0  0  0  0  0  0  0
   38.6110   20.9860   30.2100 H   0  0  0  0  0  0  0  0  0  0  0  0
  1  2  2  0  0  0  0
  1  6  1  0  0  0  0
  2  3  1  0  0  0  0
  3 21  1  0  0  0  0
  3  4  2  0  0  0  0
  5  4  1  0  0  0  0
  5  9  1  0  0  0  0
  6  5  2  0  0  0  0
  7  1  1  0  0  0  0
  8  2  1  0  0  0  0
  9 10  1  0  0  0  0
  9 20  1  0  0  0  0
 10 12  2  0  0  0  0
 11 10  1  0  0  0  0
 12 13  1  0  0  0  0
 13 14  1  0  0  0  0
 14 16  2  0  0  0  0
 14 15  1  0  0  0  0
 17 18  1  0  0  0  0
 17 16  1  0  0  0  0
 19 17  2  0  0  0  0
 20 19  1  0  0  0  0
 20 13  2  0  0  0  0
 21 22  2  0  0  0  0
 22 26  1  0  0  0  0
 23 22  1  0  0  0  0
 23 27  1  0  0  0  0
 24 23  2  0  0  0  0
 25 24  1  0  0  0  0
 25 21  1  0  0  0  0
 28 29  1  0  0  0  0
 29 30  1  0  0  0  0
 30 31  2  0  0  0  0
 30 24  1  0  0  0  0
 31 36  1  0  0  0  0
 32 37  1  0  0  0  0
 32 31  1  0  0  0  0
 33 32  2  0  0  0  0
 34 33  1  0  0  0  0
 35 33  1  0  0  0  0
 35 29  2  0  0  0  0
 38 35  1  0  0  0  0
M  END
>  <minimizedAffinity>
-6.09520674

$$$$

 OpenBabel03272503213D

 38 42  0  0  0  0  0  0  0  0999 V2000
   39.7010   26.2710   31.7780 C   0  0  0  0  0  0  0  0  0  0  0  0
   38.6210   27.1720   31.9050 C   0  0  0  0  0  0  0  0  0  0  0  0
   37.8140   27.0590   33.0610 C   0  0  0  0  0  0  0  0  0  0  0  0
   38.0930   26.1250   33.9710 N   0  0  0  0  0  0  0  0  0  0  0  0
   39.1290   25.2800   33.8220 C   0  0  0  0  0  0  0  0  0  0  0  0
   39.9200   25.3560   32.7390 N   0  0  0  0  0  0  0  0  0  0  0  0
   40.3140   26.3630   30.8910 H   0  0  0  0  0  0  0  0  0  0  0  0
   38.3750   27.9330   31.1850 H   0  0  0  0  0  0  0  0  0  0  0  0
   39.3510   24.3180   34.8440 N   0  0  0  0  0  0  0  0  0  0  0  0
   40.0850   23.1880   34.6310 C   0  0  0  0  0  0  0  0  0  0  0  0
   40.5700   22.8880   33.7050 H   0  0  0  0  0  0  0  0  0  0  0  0
   40.1580   22.4350   35.7270 N   0  0  0  0  0  0  0  0  0  0  0  0
   39.4510   23.1020   36.6750 C   0  0  0  0  0  0  0  0  0  0  0  0
   39.1310   22.8820   38.0120 C   0  0  0  0  0  0  0  0  0  0  0  0
   39.5540   21.9430   38.3930 H   0  0  0  0  0  0  0  0  0  0  0  0
   38.3860   23.7540   38.7150 N   0  0  0  0  0  0  0  0  0  0  0  0
   37.9300   24.8770   38.1080 C   0  0  0  0  0  0  0  0  0  0  0  0
   37.3410   25.5130   38.7570 H   0  0  0  0  0  0  0  0  0  0  0  0
   38.2130   25.1420   36.8000 N   0  0  0  0  0  0  0  0  0  0  0  0
   38.9580   24.2660   36.1090 C   0  0  0  0  0  0  0  0  0  0  0  0
   36.6760   27.9600   33.2600 C   0  0  0  0  0  0  0  0  0  0  0  0
   36.2300   28.6120   34.3340 C   0  0  0  0  0  0  0  0  0  0  0  0
   35.1350   29.3960   34.2430 C   0  0  0  0  0  0  0  0  0  0  0  0
   34.5250   29.4790   33.0070 C   0  0  0  0  0  0  0  0  0  0  0  0
   35.5680   28.3950   31.9630 S   0  0  0  0  0  0  0  0  0  0  0  0
   36.7760   28.4860   35.2670 H   0  0  0  0  0  0  0  0  0  0  0  0
   34.6730   29.9740   35.0330 H   0  0  0  0  0  0  0  0  0  0  0  0
   31.9320   28.9590   34.5130 Cl  0  0  0  0  0  0  0  0  0  0  0  0
   32.1680   30.0170   33.1560 C   0  0  0  0  0  0  0  0  0  0  0  0
   33.3640   30.1970   32.5340 C   0  0  0  0  0  0  0  0  0  0  0  0
   33.6040   31.0140   31.4680 C   0  0  0  0  0  0  0  0  0  0  0  0
   32.5510   31.7550   30.9300 C   0  0  0  0  0  0  0  0  0  0  0  0
   31.3060   31.6180   31.5170 C   0  0  0  0  0  0  0  0  0  0  0  0
   29.9090   32.4960   30.9300 Cl  0  0  0  0  0  0  0  0  0  0  0  0
   31.1190   30.7590   32.6150 C   0  0  0  0  0  0  0  0  0  0  0  0
   34.5630   31.1490   30.9790 H   0  0  0  0  0  0  0  0  0  0  0  0
   32.6550   32.4110   30.1030 H   0  0  0  0  0  0  0  0  0  0  0  0
   30.1320   30.6500   33.0830 H   0  0  0  0  0  0  0  0  0  0  0  0
  1  2  2  0  0  0  0
  1  6  1  0  0  0  0
  2  3  1  0  0  0  0
  3 21  1  0  0  0  0
  3  4  2  0  0  0  0
  5  4  1  0  0  0  0
  5  9  1  0  0  0  0
  6  5  2  0  0  0  0
  7  1  1  0  0  0  0
  8  2  1  0  0  0  0
  9 20  1  0  0  0  0
 10  9  1  0  0  0  0
 10 12  2  0  0  0  0
 11 10  1  0  0  0  0
 12 13  1  0  0  0  0
 13 14  1  0  0  0  0
 14 15  1  0  0  0  0
 14 16  2  0  0  0  0
 17 16  1  0  0  0  0
 17 18  1  0  0  0  0
 19 17  2  0  0  0  0
 20 13  2  0  0  0  0
 20 19  1  0  0  0  0
 21 22  2  0  0  0  0
 22 26  1  0  0  0  0
 23 22  1  0  0  0  0
 23 27  1  0  0  0  0
 24 23  2  0  0  0  0
 25 24  1  0  0  0  0
 25 21  1  0  0  0  0
 29 28  1  0  0  0  0
 30 24  1  0  0  0  0
 30 29  2  0  0  0  0
 31 30  1  0  0  0  0
 32 31  2  0  0  0  0
 32 33  1  0  0  0  0
 33 35  2  0  0  0  0
 34 33  1  0  0  0  0
 35 38  1  0  0  0  0
 35 29  1  0  0  0  0
 36 31  1  0  0  0  0
 37 32  1  0  0  0  0
M  END
>  <minimizedAffinity>
-6.05179644

$$$$

 OpenBabel03272503213D

 38 42  0  0  0  0  0  0  0  0999 V2000
   37.4090   28.6340   29.9330 C   0  0  0  0  0  0  0  0  0  0  0  0
   38.0400   27.8640   30.9350 C   0  0  0  0  0  0  0  0  0  0  0  0
   37.5200   27.9550   32.2470 C   0  0  0  0  0  0  0  0  0  0  0  0
   36.4760   28.7480   32.4890 N   0  0  0  0  0  0  0  0  0  0  0  0
   35.8960   29.4710   31.5140 C   0  0  0  0  0  0  0  0  0  0  0  0
   36.3600   29.4120   30.2540 N   0  0  0  0  0  0  0  0  0  0  0  0
   37.8120   28.5600   28.9320 H   0  0  0  0  0  0  0  0  0  0  0  0
   38.8830   27.2180   30.7650 H   0  0  0  0  0  0  0  0  0  0  0  0
   34.7880   30.2890   31.8650 N   0  0  0  0  0  0  0  0  0  0  0  0
   34.3840   31.3360   31.0900 C   0  0  0  0  0  0  0  0  0  0  0  0
   34.8290   31.6680   30.1550 H   0  0  0  0  0  0  0  0  0  0  0  0
   33.3280   31.9570   31.6150 N   0  0  0  0  0  0  0  0  0  0  0  0
   33.0450   31.2870   32.7610 C   0  0  0  0  0  0  0  0  0  0  0  0
   32.0910   31.4050   33.7690 C   0  0  0  0  0  0  0  0  0  0  0  0
   31.4010   32.2410   33.5940 H   0  0  0  0  0  0  0  0  0  0  0  0
   32.0610   30.5640   34.8170 N   0  0  0  0  0  0  0  0  0  0  0  0
   32.9830   29.5730   34.9000 C   0  0  0  0  0  0  0  0  0  0  0  0
   32.8730   28.9510   35.7790 H   0  0  0  0  0  0  0  0  0  0  0  0
   33.9390   29.4120   33.9410 N   0  0  0  0  0  0  0  0  0  0  0  0
   33.9600   30.2570   32.8990 C   0  0  0  0  0  0  0  0  0  0  0  0
   38.1230   27.1840   33.3370 C   0  0  0  0  0  0  0  0  0  0  0  0
   38.0840   27.3290   34.6620 C   0  0  0  0  0  0  0  0  0  0  0  0
   38.7420   26.4580   35.4570 C   0  0  0  0  0  0  0  0  0  0  0  0
   39.4360   25.4400   34.8320 C   0  0  0  0  0  0  0  0  0  0  0  0
   39.1220   25.7620   33.0570 S   0  0  0  0  0  0  0  0  0  0  0  0
   37.5110   28.1600   35.0640 H   0  0  0  0  0  0  0  0  0  0  0  0
   38.7910   26.4640   36.5380 H   0  0  0  0  0  0  0  0  0  0  0  0
   42.4520   25.8280   34.6900 Cl  0  0  0  0  0  0  0  0  0  0  0  0
   41.5950   24.4490   35.3060 C   0  0  0  0  0  0  0  0  0  0  0  0
   40.2390   24.3500   35.3360 C   0  0  0  0  0  0  0  0  0  0  0  0
   39.5170   23.2930   35.8080 C   0  0  0  0  0  0  0  0  0  0  0  0
   40.1920   22.1840   36.3190 C   0  0  0  0  0  0  0  0  0  0  0  0
   41.5750   22.2190   36.3170 C   0  0  0  0  0  0  0  0  0  0  0  0
   42.5320   20.8880   36.9320 Cl  0  0  0  0  0  0  0  0  0  0  0  0
   42.2650   23.3390   35.8170 C   0  0  0  0  0  0  0  0  0  0  0  0
   38.4340   23.2250   35.8260 H   0  0  0  0  0  0  0  0  0  0  0  0
   39.7050   21.3240   36.7040 H   0  0  0  0  0  0  0  0  0  0  0  0
   43.3630   23.3690   35.8150 H   0  0  0  0  0  0  0  0  0  0  0  0
  1  6  2  0  0  0  0
  1  2  1  0  0  0  0
  2  3  2  0  0  0  0
  3  4  1  0  0  0  0
  3 21  1  0  0  0  0
  5  9  1  0  0  0  0
  5  4  2  0  0  0  0
  6  5  1  0  0  0  0
  7  1  1  0  0  0  0
  8  2  1  0  0  0  0
  9 20  1  0  0  0  0
 10 12  2  0  0  0  0
 10  9  1  0  0  0  0
 11 10  1  0  0  0  0
 12 13  1  0  0  0  0
 13 20  2  0  0  0  0
 13 14  1  0  0  0  0
 14 16  2  0  0  0  0
 15 14  1  0  0  0  0
 16 17  1  0  0  0  0
 17 18  1  0  0  0  0
 19 17  2  0  0  0  0
 20 19  1  0  0  0  0
 21 22  2  0  0  0  0
 22 26  1  0  0  0  0
 22 23  1  0  0  0  0
 23 27  1  0  0  0  0
 24 30  1  0  0  0  0
 24 23  2  0  0  0  0
 25 21  1  0  0  0  0
 25 24  1  0  0  0  0
 28 29  1  0  0  0  0
 29 30  2  0  0  0  0
 29 35  1  0  0  0  0
 30 31  1  0  0  0  0
 31 36  1  0  0  0  0
 31 32  2  0  0  0  0
 32 37  1  0  0  0  0
 33 32  1  0  0  0  0
 33 34  1  0  0  0  0
 35 33  2  0  0  0  0
 38 35  1  0  0  0  0
M  END
>  <minimizedAffinity>
-6.00074911

$$$$
