
 OpenBabel03272506553D

 23 25  0  0  0  0  0  0  0  0999 V2000
   36.3130   29.0160   50.1180 C   0  0  0  0  0  0  0  0  0  0  0  0
   37.1150   30.0620   50.6120 C   0  0  0  0  0  0  0  0  0  0  0  0
   37.3800   31.1190   49.7000 C   0  0  0  0  0  0  0  0  0  0  0  0
   36.8510   31.0440   48.4430 N   0  0  0  0  0  0  0  0  0  0  0  0
   36.0940   30.0150   48.0410 C   0  0  0  0  0  0  0  0  0  0  0  0
   35.8110   28.9860   48.8640 N   0  0  0  0  0  0  0  0  0  0  0  0
   36.0860   28.1830   50.7900 H   0  0  0  0  0  0  0  0  0  0  0  0
   37.9820   31.9280   50.0370 H   0  0  0  0  0  0  0  0  0  0  0  0
   35.6520   30.1540   46.6880 N   0  0  0  0  0  0  0  0  0  0  0  0
   36.3900   30.4540   45.5990 C   0  0  0  0  0  0  0  0  0  0  0  0
   37.4700   30.6330   45.6450 H   0  0  0  0  0  0  0  0  0  0  0  0
   35.5950   30.4880   44.5140 N   0  0  0  0  0  0  0  0  0  0  0  0
   34.3210   30.2080   44.8930 C   0  0  0  0  0  0  0  0  0  0  0  0
   33.1780   30.1330   44.1200 C   0  0  0  0  0  0  0  0  0  0  0  0
   33.1930   30.3020   43.0710 H   0  0  0  0  0  0  0  0  0  0  0  0
   32.0370   29.8280   44.8040 N   0  0  0  0  0  0  0  0  0  0  0  0
   32.0760   29.6220   46.1410 C   0  0  0  0  0  0  0  0  0  0  0  0
   31.1440   29.3800   46.6540 H   0  0  0  0  0  0  0  0  0  0  0  0
   33.2080   29.7090   46.8330 N   0  0  0  0  0  0  0  0  0  0  0  0
   34.3820   30.0000   46.2730 C   0  0  0  0  0  0  0  0  0  0  0  0
   37.6180   30.0420   51.9450 N   0  0  0  0  0  0  0  0  0  0  0  0
   36.9200   29.8290   52.7130 H   0  0  0  0  0  0  0  0  0  0  0  0
   38.6280   30.2320   52.1230 H   0  0  0  0  0  0  0  0  0  0  0  0
  1  2  1  0  0  0  0
  1  7  1  0  0  0  0
  2 21  1  0  0  0  0
  3  8  1  0  0  0  0
  3  2  2  0  0  0  0
  4  3  1  0  0  0  0
  5  4  2  0  0  0  0
  5  6  1  0  0  0  0
  6  1  2  0  0  0  0
  9  5  1  0  0  0  0
 10 11  1  0  0  0  0
 10  9  1  0  0  0  0
 12 13  1  0  0  0  0
 12 10  2  0  0  0  0
 13 20  1  0  0  0  0
 14 16  1  0  0  0  0
 14 13  2  0  0  0  0
 15 14  1  0  0  0  0
 16 17  2  0  0  0  0
 17 18  1  0  0  0  0
 17 19  1  0  0  0  0
 20  9  1  0  0  0  0
 20 19  2  0  0  0  0
 21 23  1  0  0  0  0
 21 22  1  0  0  0  0
M  END
>  <minimizedAffinity>
-4.27366829

>  <minimizedRMSD>
4.4911499

$$$$
