
 OpenBabel03272505263D

 34 37  0  0  0  0  0  0  0  0999 V2000
   37.4300   31.0570   47.0710 N   0  0  0  0  0  0  0  0  0  0  0  0
   36.9000   30.6740   45.8780 C   0  0  0  0  0  0  0  0  0  0  0  0
   37.4030   31.1260   44.6660 C   0  0  0  0  0  0  0  0  0  0  0  0
   38.4940   32.0030   44.7140 C   0  0  0  0  0  0  0  0  0  0  0  0
   38.9870   32.4410   43.6500 O   0  0  0  0  0  0  0  0  0  0  0  0
   39.0280   32.3900   45.9130 N   0  0  0  0  0  0  0  0  0  0  0  0
   38.4560   31.8870   47.0120 C   0  0  0  0  0  0  0  0  0  0  0  0
   38.9680   32.2610   48.0900 O   0  0  0  0  0  0  0  0  0  0  0  0
   36.0500   29.9860   45.8940 H   0  0  0  0  0  0  0  0  0  0  0  0
   36.8460   30.7240   43.4180 N   0  0  0  0  0  0  0  0  0  0  0  0
   35.7920   31.2910   42.8070 C   0  0  0  0  0  0  0  0  0  0  0  0
   35.2210   32.1350   43.1790 H   0  0  0  0  0  0  0  0  0  0  0  0
   35.5210   30.6880   41.6610 N   0  0  0  0  0  0  0  0  0  0  0  0
   36.4010   29.6860   41.4750 C   0  0  0  0  0  0  0  0  0  0  0  0
   36.5830   28.7530   40.4810 C   0  0  0  0  0  0  0  0  0  0  0  0
   35.9140   28.7600   39.6280 H   0  0  0  0  0  0  0  0  0  0  0  0
   37.5930   27.8840   40.6380 N   0  0  0  0  0  0  0  0  0  0  0  0
   38.4150   27.8930   41.7110 C   0  0  0  0  0  0  0  0  0  0  0  0
   39.2300   27.1590   41.7940 H   0  0  0  0  0  0  0  0  0  0  0  0
   38.2260   28.8240   42.6920 N   0  0  0  0  0  0  0  0  0  0  0  0
   37.2260   29.7280   42.5950 C   0  0  0  0  0  0  0  0  0  0  0  0
   37.1760   29.5200   50.4410 C   0  0  0  0  0  0  0  0  0  0  0  0
   37.6950   29.9810   49.2240 C   0  0  0  0  0  0  0  0  0  0  0  0
   36.9080   30.5900   48.2820 C   0  0  0  0  0  0  0  0  0  0  0  0
   35.5880   30.7370   48.5630 N   0  0  0  0  0  0  0  0  0  0  0  0
   35.0520   30.2980   49.7360 C   0  0  0  0  0  0  0  0  0  0  0  0
   35.8390   29.6940   50.6700 N   0  0  0  0  0  0  0  0  0  0  0  0
   37.7220   29.0390   51.2190 H   0  0  0  0  0  0  0  0  0  0  0  0
   38.7460   29.7670   49.1820 H   0  0  0  0  0  0  0  0  0  0  0  0
   33.9980   30.4700   49.8430 H   0  0  0  0  0  0  0  0  0  0  0  0
   40.1550   33.2960   45.9630 C   0  0  0  0  0  0  0  0  0  0  0  0
   39.9980   34.2800   45.0310 F   0  0  0  0  0  0  0  0  0  0  0  0
   41.3610   32.6740   45.6840 F   0  0  0  0  0  0  0  0  0  0  0  0
   40.1950   33.8960   47.2150 F   0  0  0  0  0  0  0  0  0  0  0  0
  1 24  1  0  0  0  0
  2  9  1  0  0  0  0
  2  1  1  0  0  0  0
  3  4  1  0  0  0  0
  3  2  2  0  0  0  0
  4  6  1  0  0  0  0
  5  4  2  0  0  0  0
  6 31  1  0  0  0  0
  6  7  1  0  0  0  0
  7  1  1  0  0  0  0
  7  8  2  0  0  0  0
 10  3  1  0  0  0  0
 11 12  1  0  0  0  0
 11 10  1  0  0  0  0
 13 11  2  0  0  0  0
 14 13  1  0  0  0  0
 14 21  1  0  0  0  0
 15 17  1  0  0  0  0
 15 14  2  0  0  0  0
 16 15  1  0  0  0  0
 17 18  2  0  0  0  0
 18 19  1  0  0  0  0
 18 20  1  0  0  0  0
 21 20  2  0  0  0  0
 21 10  1  0  0  0  0
 22 27  1  0  0  0  0
 22 28  1  0  0  0  0
 23 22  2  0  0  0  0
 24 25  2  0  0  0  0
 24 23  1  0  0  0  0
 25 26  1  0  0  0  0
 26 30  1  0  0  0  0
 26 27  2  0  0  0  0
 29 23  1  0  0  0  0
 31 34  1  0  0  0  0
 32 31  1  0  0  0  0
 33 31  1  0  0  0  0
M  END
>  <minimizedAffinity>
-6.24857521

>  <minimizedRMSD>
1.37680924

$$$$
