
 OpenBabel03272501543D

 27 29  0  0  0  0  0  0  0  0999 V2000
   33.5960   28.6660   49.4230 C   0  0  0  0  0  0  0  0  0  0  0  0
   33.5420   29.7610   49.2960 H   0  0  0  0  0  0  0  0  0  0  0  0
   33.2520   28.4330   50.4510 H   0  0  0  0  0  0  0  0  0  0  0  0
   32.7210   28.0210   48.4320 N   0  0  0  0  0  0  0  0  0  0  0  0
   33.0350   27.6150   47.1880 C   0  0  0  0  0  0  0  0  0  0  0  0
   34.0290   27.7330   46.7670 H   0  0  0  0  0  0  0  0  0  0  0  0
   31.9200   27.0860   46.6630 N   0  0  0  0  0  0  0  0  0  0  0  0
   30.9300   27.1640   47.5730 C   0  0  0  0  0  0  0  0  0  0  0  0
   29.5830   26.8060   47.6480 C   0  0  0  0  0  0  0  0  0  0  0  0
   29.1430   26.3320   46.7770 H   0  0  0  0  0  0  0  0  0  0  0  0
   28.8450   27.0310   48.7480 N   0  0  0  0  0  0  0  0  0  0  0  0
   29.3670   27.6170   49.8420 C   0  0  0  0  0  0  0  0  0  0  0  0
   28.8870   27.8500   50.7740 H   0  0  0  0  0  0  0  0  0  0  0  0
   30.6480   27.9700   49.8020 N   0  0  0  0  0  0  0  0  0  0  0  0
   31.4160   27.7600   48.7190 C   0  0  0  0  0  0  0  0  0  0  0  0
   34.9620   28.0920   49.2510 C   0  0  0  0  0  0  0  0  0  0  0  0
   35.1580   27.7220   48.2230 H   0  0  0  0  0  0  0  0  0  0  0  0
   35.0460   27.2390   49.9770 H   0  0  0  0  0  0  0  0  0  0  0  0
   37.1720   30.2120   51.3470 C   0  0  0  0  0  0  0  0  0  0  0  0
   37.9690   30.8370   50.3850 C   0  0  0  0  0  0  0  0  0  0  0  0
   37.7390   30.5230   49.0150 C   0  0  0  0  0  0  0  0  0  0  0  0
   36.7590   29.6340   48.7220 N   0  0  0  0  0  0  0  0  0  0  0  0
   36.0140   29.0570   49.6990 C   0  0  0  0  0  0  0  0  0  0  0  0
   36.2140   29.3400   51.0010 N   0  0  0  0  0  0  0  0  0  0  0  0
   37.2500   30.3680   52.4050 H   0  0  0  0  0  0  0  0  0  0  0  0
   38.7130   31.5230   50.7480 H   0  0  0  0  0  0  0  0  0  0  0  0
   38.3650   31.0170   48.3040 H   0  0  0  0  0  0  0  0  0  0  0  0
  1  3  1  0  0  0  0
  2  1  1  0  0  0  0
  4 15  1  0  0  0  0
  4  1  1  0  0  0  0
  5  4  1  0  0  0  0
  6  5  1  0  0  0  0
  7  5  2  0  0  0  0
  7  8  1  0  0  0  0
  8  9  2  0  0  0  0
  8 15  1  0  0  0  0
  9 11  1  0  0  0  0
 10  9  1  0  0  0  0
 11 12  2  0  0  0  0
 12 13  1  0  0  0  0
 14 12  1  0  0  0  0
 15 14  2  0  0  0  0
 16  1  1  0  0  0  0
 16 23  1  0  0  0  0
 16 18  1  0  0  0  0
 17 16  1  0  0  0  0
 19 25  1  0  0  0  0
 20 26  1  0  0  0  0
 20 19  2  0  0  0  0
 21 20  1  0  0  0  0
 22 21  2  0  0  0  0
 22 23  1  0  0  0  0
 23 24  2  0  0  0  0
 24 19  1  0  0  0  0
 27 21  1  0  0  0  0
M  END
>  <minimizedAffinity>
-4.75987577

>  <minimizedRMSD>
0.917072833

$$$$
