
 OpenBabel03272509313D

 41 44  0  0  1  0  0  0  0  0999 V2000
   36.4570   30.7460   49.0420 C   0  0  2  0  0  0  0  0  0  0  0  0
   37.4600   31.5430   49.8220 C   0  0  0  0  0  0  0  0  0  0  0  0
   38.2670   30.6940   50.7790 C   0  0  0  0  0  0  0  0  0  0  0  0
   37.3470   29.9370   51.7350 C   0  0  0  0  0  0  0  0  0  0  0  0
   36.0620   29.4650   51.1000 C   0  0  0  0  0  0  0  0  0  0  0  0
   36.2950   29.3640   49.5800 C   0  0  1  0  0  0  0  0  0  0  0  0
   35.4120   31.1870   49.0710 H   0  0  0  0  0  0  0  0  0  0  0  0
   38.0790   32.2330   49.2820 H   0  0  0  0  0  0  0  0  0  0  0  0
   36.8270   32.1960   50.5120 H   0  0  0  0  0  0  0  0  0  0  0  0
   38.8980   31.3920   51.3480 H   0  0  0  0  0  0  0  0  0  0  0  0
   38.8880   29.9370   50.2800 H   0  0  0  0  0  0  0  0  0  0  0  0
   37.1870   30.6070   52.5960 H   0  0  0  0  0  0  0  0  0  0  0  0
   37.8820   29.0380   52.1070 H   0  0  0  0  0  0  0  0  0  0  0  0
   35.7260   28.5080   51.5080 H   0  0  0  0  0  0  0  0  0  0  0  0
   35.3170   30.2770   51.2250 H   0  0  0  0  0  0  0  0  0  0  0  0
   37.2160   28.8320   49.5740 H   0  0  0  0  0  0  0  0  0  0  0  0
   36.8390   30.6640   47.6090 C   0  0  0  0  0  0  0  0  0  0  0  0
   38.2030   30.8490   47.3310 C   0  0  0  0  0  0  0  0  0  0  0  0
   38.5910   30.7750   45.9880 C   0  0  0  0  0  0  0  0  0  0  0  0
   37.6250   30.5250   45.0360 N   0  0  0  0  0  0  0  0  0  0  0  0
   36.3070   30.3490   45.3610 C   0  0  0  0  0  0  0  0  0  0  0  0
   35.9370   30.4240   46.6500 N   0  0  0  0  0  0  0  0  0  0  0  0
   39.0480   31.0380   47.9610 H   0  0  0  0  0  0  0  0  0  0  0  0
   39.5940   30.8960   45.6250 H   0  0  0  0  0  0  0  0  0  0  0  0
   35.6400   30.1600   44.5380 H   0  0  0  0  0  0  0  0  0  0  0  0
   33.9730   28.4440   49.1270 C   0  0  0  0  0  0  0  0  0  0  0  0
   33.2050   29.0640   49.9460 O   0  0  0  0  0  0  0  0  0  0  0  0
   35.3660   28.5530   48.8810 N   0  0  0  0  0  0  0  0  0  0  0  0
   35.7050   27.9410   48.0710 H   0  0  0  0  0  0  0  0  0  0  0  0
   34.6450   26.0180   47.6920 H   0  0  0  0  0  0  0  0  0  0  0  0
   33.6380   26.3620   47.7280 N   0  0  0  0  0  0  0  0  0  0  0  0
   33.1660   27.4700   48.3520 C   0  0  0  0  0  0  0  0  0  0  0  0
   31.8760   27.4020   48.0700 N   0  0  0  0  0  0  0  0  0  0  0  0
   31.5270   26.3590   47.3360 C   0  0  0  0  0  0  0  0  0  0  0  0
   30.3280   25.9150   46.8290 C   0  0  0  0  0  0  0  0  0  0  0  0
   29.4180   26.4920   47.0310 H   0  0  0  0  0  0  0  0  0  0  0  0
   30.3530   24.7650   46.0960 N   0  0  0  0  0  0  0  0  0  0  0  0
   31.4880   24.0960   45.8770 C   0  0  0  0  0  0  0  0  0  0  0  0
   31.4950   23.1820   45.2910 H   0  0  0  0  0  0  0  0  0  0  0  0
   32.6630   24.5370   46.3770 N   0  0  0  0  0  0  0  0  0  0  0  0
   32.6820   25.6660   47.1050 C   0  0  0  0  0  0  0  0  0  0  0  0
  1  7  1  1  0  0  0
  1  6  1  0  0  0  0
  1  2  1  0  0  0  0
  2  9  1  0  0  0  0
  2  3  1  0  0  0  0
  3 10  1  0  0  0  0
  3  4  1  0  0  0  0
  4 13  1  0  0  0  0
  4 12  1  0  0  0  0
  5 15  1  0  0  0  0
  5 14  1  0  0  0  0
  5  4  1  0  0  0  0
  6 16  1  6  0  0  0
  6  5  1  0  0  0  0
  8  2  1  0  0  0  0
 11  3  1  0  0  0  0
 17  1  1  0  0  0  0
 18 17  1  0  0  0  0
 18 23  1  0  0  0  0
 19 18  2  0  0  0  0
 20 21  2  0  0  0  0
 20 19  1  0  0  0  0
 21 22  1  0  0  0  0
 22 17  2  0  0  0  0
 24 19  1  0  0  0  0
 25 21  1  0  0  0  0
 26 27  2  0  0  0  0
 28 26  1  0  0  0  0
 28  6  1  0  0  0  0
 29 28  1  0  0  0  0
 30 31  1  0  0  0  0
 31 32  1  0  0  0  0
 32 26  1  0  0  0  0
 33 32  2  0  0  0  0
 34 33  1  0  0  0  0
 35 36  1  0  0  0  0
 35 34  2  0  0  0  0
 37 35  1  0  0  0  0
 38 37  2  0  0  0  0
 38 40  1  0  0  0  0
 39 38  1  0  0  0  0
 40 41  2  0  0  0  0
 41 34  1  0  0  0  0
 41 31  1  0  0  0  0
M  END
>  <minimizedAffinity>
-6.10711527

>  <minimizedRMSD>
0.68831265

$$$$
