
 OpenBabel03272506383D

 40 43  0  0  1  0  0  0  0  0999 V2000
   34.7840   28.4990   50.0670 O   0  0  0  0  0  0  0  0  0  0  0  0
   34.5820   28.8970   48.9090 C   0  0  0  0  0  0  0  0  0  0  0  0
   35.3060   30.0230   48.3560 C   0  0  2  0  0  0  0  0  0  0  0  0
   34.8340   29.9720   46.8660 C   0  0  0  0  0  0  0  0  0  0  0  0
   33.4820   29.3300   46.9670 C   0  0  0  0  0  0  0  0  0  0  0  0
   33.6330   28.3080   47.9910 N   0  0  0  0  0  0  0  0  0  0  0  0
   35.0800   31.0190   48.7470 H   0  0  0  0  0  0  0  0  0  0  0  0
   35.5500   29.4130   46.2650 H   0  0  0  0  0  0  0  0  0  0  0  0
   34.8360   31.0110   46.5190 H   0  0  0  0  0  0  0  0  0  0  0  0
   32.6660   30.0290   47.1380 H   0  0  0  0  0  0  0  0  0  0  0  0
   33.2920   28.7780   46.0110 H   0  0  0  0  0  0  0  0  0  0  0  0
   32.9880   27.0160   48.0650 C   0  0  0  0  0  0  0  0  0  0  0  0
   33.5740   26.2430   47.5550 H   0  0  0  0  0  0  0  0  0  0  0  0
   33.0000   26.7410   49.1610 H   0  0  0  0  0  0  0  0  0  0  0  0
   31.6170   27.0590   47.6570 N   0  0  0  0  0  0  0  0  0  0  0  0
   31.1100   26.7330   46.4340 C   0  0  0  0  0  0  0  0  0  0  0  0
   31.7490   26.3950   45.6290 H   0  0  0  0  0  0  0  0  0  0  0  0
   29.7590   26.8970   46.4060 N   0  0  0  0  0  0  0  0  0  0  0  0
   29.3820   27.3350   47.6270 C   0  0  0  0  0  0  0  0  0  0  0  0
   28.1480   27.6620   48.1590 C   0  0  0  0  0  0  0  0  0  0  0  0
   27.2860   27.5700   47.5250 H   0  0  0  0  0  0  0  0  0  0  0  0
   28.1500   28.0710   49.4370 N   0  0  0  0  0  0  0  0  0  0  0  0
   29.2740   28.1650   50.1810 C   0  0  0  0  0  0  0  0  0  0  0  0
   29.1380   28.5080   51.2040 H   0  0  0  0  0  0  0  0  0  0  0  0
   30.4800   27.8530   49.6850 N   0  0  0  0  0  0  0  0  0  0  0  0
   30.5320   27.4320   48.3890 C   0  0  0  0  0  0  0  0  0  0  0  0
   36.7220   29.8460   48.3140 O   0  0  0  0  0  0  0  0  0  0  0  0
   37.5130   30.9930   48.3320 C   0  0  0  0  0  0  0  0  0  0  0  0
   37.6710   31.6190   49.5550 C   0  0  0  0  0  0  0  0  0  0  0  0
   38.4540   32.7660   49.6070 C   0  0  0  0  0  0  0  0  0  0  0  0
   39.0260   33.2200   48.4590 N   0  0  0  0  0  0  0  0  0  0  0  0
   38.8620   32.6000   47.2810 C   0  0  0  0  0  0  0  0  0  0  0  0
   38.1150   31.5090   47.2450 N   0  0  0  0  0  0  0  0  0  0  0  0
   40.3650   32.1710   45.4980 C   0  0  0  0  0  0  0  0  0  0  0  0
   40.6500   31.0080   45.8840 O   0  0  0  0  0  0  0  0  0  0  0  0
   39.4750   33.1070   46.1000 N   0  0  0  0  0  0  0  0  0  0  0  0
   37.2380   31.2940   50.4820 H   0  0  0  0  0  0  0  0  0  0  0  0
   38.5980   33.2790   50.5460 H   0  0  0  0  0  0  0  0  0  0  0  0
   40.9140   32.4020   44.5890 H   0  0  0  0  0  0  0  0  0  0  0  0
   39.3400   34.0300   45.6700 H   0  0  0  0  0  0  0  0  0  0  0  0
  2  1  2  0  0  0  0
  3  7  1  1  0  0  0
  3  2  1  0  0  0  0
  4  5  1  0  0  0  0
  4  3  1  0  0  0  0
  5 10  1  0  0  0  0
  5  6  1  0  0  0  0
  6 12  1  0  0  0  0
  6  2  1  0  0  0  0
  8  4  1  0  0  0  0
  9  4  1  0  0  0  0
 11  5  1  0  0  0  0
 12 14  1  0  0  0  0
 13 12  1  0  0  0  0
 15 12  1  0  0  0  0
 15 26  1  0  0  0  0
 16 15  1  0  0  0  0
 17 16  1  0  0  0  0
 18 16  2  0  0  0  0
 18 19  1  0  0  0  0
 19 20  2  0  0  0  0
 19 26  1  0  0  0  0
 20 22  1  0  0  0  0
 21 20  1  0  0  0  0
 22 23  2  0  0  0  0
 23 24  1  0  0  0  0
 25 23  1  0  0  0  0
 26 25  2  0  0  0  0
 27 28  1  0  0  0  0
 27  3  1  0  0  0  0
 28 29  1  0  0  0  0
 29 30  2  0  0  0  0
 29 37  1  0  0  0  0
 30 38  1  0  0  0  0
 31 30  1  0  0  0  0
 32 31  2  0  0  0  0
 33 32  1  0  0  0  0
 33 28  2  0  0  0  0
 34 35  2  0  0  0  0
 34 36  1  0  0  0  0
 36 32  1  0  0  0  0
 39 34  1  0  0  0  0
 40 36  1  0  0  0  0
M  END
>  <minimizedAffinity>
-6.48369932

>  <minimizedRMSD>
1.72981346

$$$$
