REMARK  Name = 
REMARK  4 active torsions:
REMARK  status: ('A' for Active; 'I' for Inactive)
REMARK    1  A    between atoms: C_1  and  O_7
REMARK    2  A    between atoms: O_7  and  P_9
REMARK    3  A    between atoms: P_9  and  O_10
REMARK    4  A    between atoms: P_9  and  O_11
REMARK                            x       y       z     vdW  Elec       q    Type
REMARK                         _______ _______ _______ _____ _____    ______ ____
ROOT
ATOM      1  C   UNL     1      35.648  30.462  49.745  0.00  0.00    +0.000 A 
ATOM      2  C   UNL     1      35.969  29.468  50.669  0.00  0.00    +0.000 A 
ATOM      3  C   UNL     1      37.231  29.509  51.257  0.00  0.00    +0.000 A 
ATOM      4  N   UNL     1      38.102  30.513  50.910  0.00  0.00    +0.000 NA
ATOM      5  C   UNL     1      37.745  31.458  50.007  0.00  0.00    +0.000 A 
ATOM      6  N   UNL     1      36.524  31.445  49.418  0.00  0.00    +0.000 NA
ATOM      7  H   UNL     1      35.224  28.738  50.865  0.00  0.00    +0.000 HD
ATOM      8  H   UNL     1      38.459  32.243  49.753  0.00  0.00    +0.000 HD
ATOM      9  N   UNL     1      37.560  28.494  52.200  0.00  0.00    +0.000 N 
ATOM     10  C   UNL     1      38.791  28.131  52.633  0.00  0.00    +0.000 A 
ATOM     11  H   UNL     1      39.714  28.582  52.307  0.00  0.00    +0.000 HD
ATOM     12  N   UNL     1      38.624  27.125  53.526  0.00  0.00    +0.000 NA
ATOM     13  C   UNL     1      37.312  26.864  53.649  0.00  0.00    +0.000 A 
ATOM     14  C   UNL     1      36.636  25.934  54.428  0.00  0.00    +0.000 A 
ATOM     15  H   UNL     1      37.166  25.241  55.099  0.00  0.00    +0.000 HD
ATOM     16  N   UNL     1      35.281  25.903  54.339  0.00  0.00    +0.000 NA
ATOM     17  C   UNL     1      34.598  26.746  53.521  0.00  0.00    +0.000 A 
ATOM     18  H   UNL     1      33.526  26.732  53.441  0.00  0.00    +0.000 HD
ATOM     19  N   UNL     1      35.275  27.641  52.772  0.00  0.00    +0.000 NA
ATOM     20  C   UNL     1      36.608  27.729  52.808  0.00  0.00    +0.000 A 
ENDROOT
BRANCH   1  21
ATOM     21  O   UNL     1      34.444  30.576  49.066  0.00  0.00    +0.000 OA
BRANCH  21  23
ATOM     22  O   UNL     1      35.503  30.154  46.646  0.00  0.00    +0.000 OA
ATOM     23  P   UNL     1      34.235  30.023  47.470  0.00  0.00    +0.000 P 
BRANCH  23  24
ATOM     24  O   UNL     1      33.743  28.395  47.592  0.00  0.00    +0.000 OA
ATOM     25  H   UNL     1      34.411  27.816  47.108  0.00  0.00    +0.000 HD
ENDBRANCH  23  24
BRANCH  23  26
ATOM     26  O   UNL     1      33.056  30.950  46.675  0.00  0.00    +0.000 OA
ATOM     27  H   UNL     1      32.214  30.844  47.183  0.00  0.00    +0.000 HD
ENDBRANCH  23  26
ENDBRANCH  21  23
ENDBRANCH   1  21
TORSDOF 4
