
     RDKit          3D

 27 29  0  0  0  0  0  0  0  0999 V2000
   37.3353   30.1629   51.3536 C   0  0  0  0  0  0  0  0  0  0  0  0
   37.9971   30.5106   50.1721 C   0  0  0  0  0  0  0  0  0  0  0  0
   37.4236   30.1426   48.9644 C   0  0  0  0  0  0  0  0  0  0  0  0
   36.2365   29.4561   48.9837 N   0  0  0  0  0  0  0  0  0  0  0  0
   35.6338   29.1422   50.1532 C   0  0  0  0  0  0  0  0  0  0  0  0
   36.1808   29.4940   51.3284 N   0  0  0  0  0  0  0  0  0  0  0  0
   37.8812   30.3696   47.6988 O   0  0  0  0  0  0  0  0  0  0  0  0
   39.0657   32.7291   48.1450 O   0  0  0  0  0  0  0  0  0  0  0  0
   38.6966   31.7110   47.1092 P   0  0  2  0  0  0  0  0  0  0  0  0
   37.8227   32.4684   45.8534 O   0  0  0  0  0  0  0  0  0  0  0  0
   40.1467   31.1856   46.3912 O   0  0  0  0  0  0  0  0  0  0  0  0
   37.8046   30.4619   52.2683 H   0  0  0  0  0  0  0  0  0  0  0  0
   38.9186   31.0414   50.0851 H   0  0  0  0  0  0  0  0  0  0  0  0
   34.6841   28.5918   50.1282 H   0  0  0  0  0  0  0  0  0  0  0  0
   37.9584   33.4366   45.9129 H   0  0  0  0  0  0  0  0  0  0  0  0
   39.2403   28.5483   46.5368 H   0  0  0  0  0  0  0  0  0  0  0  0
   39.6134   28.8936   45.6264 N   0  0  0  0  0  0  0  0  0  0  0  0
   40.0784   30.1563   45.4477 C   0  0  0  0  0  0  0  0  0  0  0  0
   40.4539   30.1745   44.1526 N   0  0  0  0  0  0  0  0  0  0  0  0
   40.2415   29.0065   43.5548 C   0  0  0  0  0  0  0  0  0  0  0  0
   40.4139   28.4448   42.3048 C   0  0  0  0  0  0  0  0  0  0  0  0
   40.8375   29.0585   41.5259 H   0  0  0  0  0  0  0  0  0  0  0  0
   40.0739   27.1761   42.0387 N   0  0  0  0  0  0  0  0  0  0  0  0
   39.5406   26.4074   43.0241 C   0  0  0  0  0  0  0  0  0  0  0  0
   39.2579   25.3641   42.8159 H   0  0  0  0  0  0  0  0  0  0  0  0
   39.3518   26.9074   44.2604 N   0  0  0  0  0  0  0  0  0  0  0  0
   39.6989   28.1804   44.5070 C   0  0  0  0  0  0  0  0  0  0  0  0
  2  1  2  0
  3  4  2  0
  3  2  1  0
  4  5  1  0
  5  6  2  0
  6  1  1  0
  7  3  1  0
  9  7  1  1
  9  8  2  0
 10  9  1  0
 11  9  1  0
  1 12  1  0
  2 13  1  0
  5 14  1  0
 10 15  1  0
 16 17  1  0
 17 18  1  0
 18 19  2  0
 19 20  1  0
 20 21  2  0
 21 22  1  0
 21 23  1  0
 23 24  2  0
 24 25  1  0
 24 26  1  0
 26 27  2  0
 27 17  1  0
 27 20  1  0
 11 18  1  0
M  ISO  7  12  14  13  14  14  14  15   3  16   9  22  16  25  16
M  END
>  <DihAtoms>  (1) 
8,10,17,16

>  <DihDeg>  (1) 
-0.0001689816874141416

$$$$
