
     RDKit          3D

 36 39  0  0  0  0  0  0  0  0999 V2000
   37.9977   31.3967   47.6310 C   0  0  0  0  0  0  0  0  0  0  0  0
   37.0784   31.3292   48.6718 C   0  0  0  0  0  0  0  0  0  0  0  0
   37.1949   32.3516   49.6266 C   0  0  0  0  0  0  0  0  0  0  0  0
   38.1806   33.3498   49.5028 C   0  0  0  0  0  0  0  0  0  0  0  0
   39.0614   33.3233   48.4078 C   0  0  0  0  0  0  0  0  0  0  0  0
   38.9492   32.3232   47.4719 C   0  0  0  0  0  0  0  0  0  0  0  0
   34.9403   30.3418   47.9862 C   0  0  0  0  0  0  0  0  0  0  0  0
   36.0764   30.3090   48.7918 C   0  0  0  0  0  0  0  0  0  0  0  0
   36.1976   29.2527   49.7113 C   0  0  0  0  0  0  0  0  0  0  0  0
   35.1941   28.3328   49.7510 N   0  0  0  0  0  0  0  0  0  0  0  0
   34.1043   28.4063   48.9450 C   0  0  0  0  0  0  0  0  0  0  0  0
   33.9781   29.4126   48.0616 N   0  0  0  0  0  0  0  0  0  0  0  0
   37.3769   29.1645   50.5905 C   0  0  0  0  0  0  0  0  0  0  0  0
   37.9439   30.4083   46.6367 O   0  0  0  0  0  0  0  0  0  0  0  0
   39.8422   32.3423   46.4109 O   0  0  0  0  0  0  0  0  0  0  0  0
   36.5063   32.3294   50.4367 H   0  0  0  0  0  0  0  0  0  0  0  0
   38.2122   34.0998   50.2684 H   0  0  0  0  0  0  0  0  0  0  0  0
   39.7654   34.1247   48.4144 H   0  0  0  0  0  0  0  0  0  0  0  0
   34.7753   31.1317   47.2476 H   0  0  0  0  0  0  0  0  0  0  0  0
   33.4396   27.5705   49.1505 H   0  0  0  0  0  0  0  0  0  0  0  0
   38.2186   28.6062   50.1230 H   0  0  0  0  0  0  0  0  0  0  0  0
   37.7857   30.1964   50.7841 H   0  0  0  0  0  0  0  0  0  0  0  0
   37.0815   28.7725   51.5870 H   0  0  0  0  0  0  0  0  0  0  0  0
   38.2550   29.4631   46.8058 H   0  0  0  0  0  0  0  0  0  0  0  0
   38.5784   30.4025   44.8670 H   0  0  0  0  0  0  0  0  0  0  0  0
   38.7501   31.3830   44.5347 N   0  0  0  0  0  0  0  0  0  0  0  0
   39.3335   32.4433   45.1228 C   0  0  0  0  0  0  0  0  0  0  0  0
   39.3101   33.4901   44.2755 N   0  0  0  0  0  0  0  0  0  0  0  0
   38.7016   33.1082   43.1148 C   0  0  0  0  0  0  0  0  0  0  0  0
   38.4326   33.8103   41.9432 C   0  0  0  0  0  0  0  0  0  0  0  0
   38.7166   34.8463   41.8363 H   0  0  0  0  0  0  0  0  0  0  0  0
   37.7974   33.1273   40.9463 N   0  0  0  0  0  0  0  0  0  0  0  0
   37.4670   31.8363   41.1355 C   0  0  0  0  0  0  0  0  0  0  0  0
   36.9638   31.3618   40.2957 H   0  0  0  0  0  0  0  0  0  0  0  0
   37.7227   31.1330   42.2765 N   0  0  0  0  0  0  0  0  0  0  0  0
   38.3535   31.7664   43.3001 C   0  0  0  0  0  0  0  0  0  0  0  0
  1  2  2  0
  2  8  1  0
  2  3  1  0
  4  3  2  0
  5  4  1  0
  6  1  1  0
  6  5  2  0
  7 12  2  0
  7  8  1  0
  8  9  2  0
  9 10  1  0
  9 13  1  0
 11 10  2  0
 12 11  1  0
 14  1  1  0
 15  6  1  0
  3 16  1  0
  4 17  1  0
  5 18  1  0
  7 19  1  0
 11 20  1  0
 13 21  1  0
 13 22  1  0
 13 23  1  0
 14 24  1  0
 25 26  1  0
 26 27  1  0
 27 28  2  0
 28 29  1  0
 29 30  2  0
 30 31  1  0
 30 32  1  0
 32 33  2  0
 33 34  1  0
 33 35  1  0
 35 36  2  0
 36 26  1  0
 36 29  1  0
 15 27  1  0
M  ISO  8  16  14  17  14  18  14  19  14  20  14  21   8  22   8  23   8
M  ISO  4  24   3  25   9  31  16  34  16
M  END
>  <DihAtoms>  (1) 
5,14,26,25

>  <DihDeg>  (1) 
-179.9989171561301

$$$$
