
 OpenBabel03262522303D

 49 53  0  0  0  0  0  0  0  0999 V2000
   39.3790   27.5460   31.0150 C   0  0  0  0  0  0  0  0  0  0  0  0
   40.1410   28.1640   30.4740 H   0  0  0  0  0  0  0  0  0  0  0  0
   39.7290   27.3710   32.0510 H   0  0  0  0  0  0  0  0  0  0  0  0
   37.6080   27.2890   33.1040 F   0  0  0  0  0  0  0  0  0  0  0  0
   37.3110   28.1600   32.0910 C   0  0  0  0  0  0  0  0  0  0  0  0
   38.1310   28.3690   30.9890 C   0  0  0  0  0  0  0  0  0  0  0  0
   37.7790   29.2540   30.0050 C   0  0  0  0  0  0  0  0  0  0  0  0
   36.5860   29.9680   30.0870 C   0  0  0  0  0  0  0  0  0  0  0  0
   35.7550   29.7810   31.1680 C   0  0  0  0  0  0  0  0  0  0  0  0
   36.1280   28.8840   32.1470 C   0  0  0  0  0  0  0  0  0  0  0  0
   38.4970   29.3260   29.2060 H   0  0  0  0  0  0  0  0  0  0  0  0
   36.3530   30.6510   29.2920 H   0  0  0  0  0  0  0  0  0  0  0  0
   34.8240   30.3160   31.2630 H   0  0  0  0  0  0  0  0  0  0  0  0
   35.2610   28.7200   33.2270 O   0  0  0  0  0  0  0  0  0  0  0  0
   36.8320   30.6780   34.5250 H   0  0  0  0  0  0  0  0  0  0  0  0
   35.8180   30.5740   34.7410 N   0  0  0  0  0  0  0  0  0  0  0  0
   35.0210   29.6760   34.1700 C   0  0  0  0  0  0  0  0  0  0  0  0
   33.7970   29.8680   34.7190 N   0  0  0  0  0  0  0  0  0  0  0  0
   33.8690   30.8720   35.6100 C   0  0  0  0  0  0  0  0  0  0  0  0
   32.8950   31.4200   36.4070 C   0  0  0  0  0  0  0  0  0  0  0  0
   31.8930   31.0500   36.3790 H   0  0  0  0  0  0  0  0  0  0  0  0
   33.2440   32.4320   37.2190 N   0  0  0  0  0  0  0  0  0  0  0  0
   34.4920   32.9050   37.2660 C   0  0  0  0  0  0  0  0  0  0  0  0
   34.7530   33.7170   37.9240 H   0  0  0  0  0  0  0  0  0  0  0  0
   35.4570   32.3590   36.4740 N   0  0  0  0  0  0  0  0  0  0  0  0
   35.1710   31.3430   35.6390 C   0  0  0  0  0  0  0  0  0  0  0  0
   39.0080   26.0040   30.1350 S   0  0  0  0  0  0  0  0  0  0  0  0
   37.2210   23.2810   32.5130 C   0  0  0  0  0  0  0  0  0  0  0  0
   38.1600   23.1680   33.5460 C   0  0  0  0  0  0  0  0  0  0  0  0
   39.2980   23.9370   33.4610 C   0  0  0  0  0  0  0  0  0  0  0  0
   39.4350   24.7570   32.3730 N   0  0  0  0  0  0  0  0  0  0  0  0
   38.5450   24.8350   31.4370 C   0  0  0  0  0  0  0  0  0  0  0  0
   37.3790   24.0970   31.4500 N   0  0  0  0  0  0  0  0  0  0  0  0
   36.3160   22.6900   32.5510 H   0  0  0  0  0  0  0  0  0  0  0  0
   40.0270   23.8610   34.2460 H   0  0  0  0  0  0  0  0  0  0  0  0
   37.8770   22.3100   34.5550 O   0  0  0  0  0  0  0  0  0  0  0  0
   38.3310   22.6060   35.8340 C   0  0  0  0  0  0  0  0  0  0  0  0
   37.6950   23.3500   36.8150 C   0  0  0  0  0  0  0  0  0  0  0  0
   38.3060   23.5260   38.0050 C   0  0  0  0  0  0  0  0  0  0  0  0
   39.5300   22.9750   38.2210 C   0  0  0  0  0  0  0  0  0  0  0  0
   40.1630   22.2250   37.2200 C   0  0  0  0  0  0  0  0  0  0  0  0
   39.5360   22.0550   36.0270 N   0  0  0  0  0  0  0  0  0  0  0  0
   36.7330   23.7010   36.4500 H   0  0  0  0  0  0  0  0  0  0  0  0
   37.7480   24.1170   38.7200 H   0  0  0  0  0  0  0  0  0  0  0  0
   40.0010   23.1290   39.1790 H   0  0  0  0  0  0  0  0  0  0  0  0
   41.5260   21.6180   37.4750 C   0  0  0  0  0  0  0  0  0  0  0  0
   41.4940   20.6110   37.0480 H   0  0  0  0  0  0  0  0  0  0  0  0
   42.2640   22.1950   36.9120 H   0  0  0  0  0  0  0  0  0  0  0  0
   41.6660   21.6260   38.5660 H   0  0  0  0  0  0  0  0  0  0  0  0
  1  3  1  0  0  0  0
  2  1  1  0  0  0  0
  5 10  1  0  0  0  0
  5  4  1  0  0  0  0
  6  1  1  0  0  0  0
  6  5  2  0  0  0  0
  7  8  2  0  0  0  0
  7  6  1  0  0  0  0
  8  9  1  0  0  0  0
  9 13  1  0  0  0  0
  9 10  2  0  0  0  0
 10 14  1  0  0  0  0
 11  7  1  0  0  0  0
 12  8  1  0  0  0  0
 14 17  1  0  0  0  0
 15 16  1  0  0  0  0
 16 26  1  0  0  0  0
 17 18  2  0  0  0  0
 17 16  1  0  0  0  0
 18 19  1  0  0  0  0
 19 26  2  0  0  0  0
 19 20  1  0  0  0  0
 20 22  2  0  0  0  0
 21 20  1  0  0  0  0
 22 23  1  0  0  0  0
 23 24  1  0  0  0  0
 25 23  2  0  0  0  0
 26 25  1  0  0  0  0
 27  1  1  0  0  0  0
 27 32  1  0  0  0  0
 28 34  1  0  0  0  0
 28 29  1  0  0  0  0
 29 36  1  0  0  0  0
 30 29  2  0  0  0  0
 30 35  1  0  0  0  0
 31 30  1  0  0  0  0
 32 33  1  0  0  0  0
 32 31  2  0  0  0  0
 33 28  2  0  0  0  0
 36 37  1  0  0  0  0
 37 42  2  0  0  0  0
 37 38  1  0  0  0  0
 38 39  2  0  0  0  0
 39 40  1  0  0  0  0
 39 44  1  0  0  0  0
 40 45  1  0  0  0  0
 41 46  1  0  0  0  0
 41 40  2  0  0  0  0
 42 41  1  0  0  0  0
 43 38  1  0  0  0  0
 46 49  1  0  0  0  0
 47 46  1  0  0  0  0
 48 46  1  0  0  0  0
M  END
>  <minimizedAffinity>
-6.35541773

$$$$

 OpenBabel03262522303D

 49 53  0  0  0  0  0  0  0  0999 V2000
   39.8610   26.9670   32.8610 C   0  0  0  0  0  0  0  0  0  0  0  0
   40.5340   27.8230   33.1250 H   0  0  0  0  0  0  0  0  0  0  0  0
   40.4650   26.1720   32.3820 H   0  0  0  0  0  0  0  0  0  0  0  0
   39.7800   24.2650   33.3730 F   0  0  0  0  0  0  0  0  0  0  0  0
   39.2990   25.1310   34.3170 C   0  0  0  0  0  0  0  0  0  0  0  0
   39.2900   26.5120   34.1650 C   0  0  0  0  0  0  0  0  0  0  0  0
   38.7940   27.3280   35.1470 C   0  0  0  0  0  0  0  0  0  0  0  0
   38.2850   26.7890   36.3270 C   0  0  0  0  0  0  0  0  0  0  0  0
   38.2810   25.4240   36.5040 C   0  0  0  0  0  0  0  0  0  0  0  0
   38.7850   24.6210   35.5020 C   0  0  0  0  0  0  0  0  0  0  0  0
   38.8440   28.3750   34.9090 H   0  0  0  0  0  0  0  0  0  0  0  0
   37.9080   27.4670   37.0670 H   0  0  0  0  0  0  0  0  0  0  0  0
   37.8950   24.9730   37.4030 H   0  0  0  0  0  0  0  0  0  0  0  0
   38.7650   23.2430   35.7170 O   0  0  0  0  0  0  0  0  0  0  0  0
   39.8480   22.0680   38.0480 H   0  0  0  0  0  0  0  0  0  0  0  0
   40.3230   21.9680   37.1260 N   0  0  0  0  0  0  0  0  0  0  0  0
   39.8710   22.4930   35.9910 C   0  0  0  0  0  0  0  0  0  0  0  0
   40.7660   22.1370   35.0380 N   0  0  0  0  0  0  0  0  0  0  0  0
   41.7420   21.4060   35.6050 C   0  0  0  0  0  0  0  0  0  0  0  0
   42.8540   20.8300   35.0450 C   0  0  0  0  0  0  0  0  0  0  0  0
   43.0550   20.9280   34.0000 H   0  0  0  0  0  0  0  0  0  0  0  0
   43.6790   20.1420   35.8530 N   0  0  0  0  0  0  0  0  0  0  0  0
   43.4430   20.0100   37.1610 C   0  0  0  0  0  0  0  0  0  0  0  0
   44.1160   19.4550   37.7920 H   0  0  0  0  0  0  0  0  0  0  0  0
   42.3370   20.5830   37.7130 N   0  0  0  0  0  0  0  0  0  0  0  0
   41.4730   21.2850   36.9570 C   0  0  0  0  0  0  0  0  0  0  0  0
   38.4630   27.4940   31.8330 S   0  0  0  0  0  0  0  0  0  0  0  0
   37.3380   23.8010   30.6680 C   0  0  0  0  0  0  0  0  0  0  0  0
   35.9720   23.8280   30.9690 C   0  0  0  0  0  0  0  0  0  0  0  0
   35.4610   24.9830   31.5170 C   0  0  0  0  0  0  0  0  0  0  0  0
   36.3240   26.0240   31.7300 N   0  0  0  0  0  0  0  0  0  0  0  0
   37.5830   25.9630   31.4380 C   0  0  0  0  0  0  0  0  0  0  0  0
   38.1690   24.8410   30.8860 N   0  0  0  0  0  0  0  0  0  0  0  0
   37.7690   22.9080   30.2360 H   0  0  0  0  0  0  0  0  0  0  0  0
   34.4140   25.0180   31.7540 H   0  0  0  0  0  0  0  0  0  0  0  0
   35.2510   22.7130   30.6980 O   0  0  0  0  0  0  0  0  0  0  0  0
   35.6050   21.5200   31.3150 C   0  0  0  0  0  0  0  0  0  0  0  0
   36.0490   20.3490   30.7180 C   0  0  0  0  0  0  0  0  0  0  0  0
   36.3450   19.2880   31.4970 C   0  0  0  0  0  0  0  0  0  0  0  0
   36.2050   19.3810   32.8450 C   0  0  0  0  0  0  0  0  0  0  0  0
   35.7540   20.5700   33.4360 C   0  0  0  0  0  0  0  0  0  0  0  0
   35.4600   21.6320   32.6400 N   0  0  0  0  0  0  0  0  0  0  0  0
   36.0930   20.4760   29.6390 H   0  0  0  0  0  0  0  0  0  0  0  0
   36.6850   18.4110   30.9600 H   0  0  0  0  0  0  0  0  0  0  0  0
   36.4460   18.5210   33.4480 H   0  0  0  0  0  0  0  0  0  0  0  0
   35.6020   20.6610   34.9390 C   0  0  0  0  0  0  0  0  0  0  0  0
   35.9900   21.6430   35.2250 H   0  0  0  0  0  0  0  0  0  0  0  0
   34.5340   20.6430   35.1730 H   0  0  0  0  0  0  0  0  0  0  0  0
   36.1800   19.8230   35.3560 H   0  0  0  0  0  0  0  0  0  0  0  0
  1  2  1  0  0  0  0
  1  6  1  0  0  0  0
  3  1  1  0  0  0  0
  4  5  1  0  0  0  0
  5 10  1  0  0  0  0
  6  5  2  0  0  0  0
  6  7  1  0  0  0  0
  7  8  2  0  0  0  0
  8  9  1  0  0  0  0
  8 12  1  0  0  0  0
  9 13  1  0  0  0  0
 10 14  1  0  0  0  0
 10  9  2  0  0  0  0
 11  7  1  0  0  0  0
 14 17  1  0  0  0  0
 16 15  1  0  0  0  0
 17 16  1  0  0  0  0
 18 19  1  0  0  0  0
 18 17  2  0  0  0  0
 19 26  1  0  0  0  0
 20 19  2  0  0  0  0
 20 22  1  0  0  0  0
 21 20  1  0  0  0  0
 22 23  2  0  0  0  0
 23 25  1  0  0  0  0
 23 24  1  0  0  0  0
 26 16  1  0  0  0  0
 26 25  2  0  0  0  0
 27  1  1  0  0  0  0
 28 33  2  0  0  0  0
 28 29  1  0  0  0  0
 29 30  2  0  0  0  0
 30 31  1  0  0  0  0
 30 35  1  0  0  0  0
 32 31  2  0  0  0  0
 32 27  1  0  0  0  0
 33 32  1  0  0  0  0
 34 28  1  0  0  0  0
 36 29  1  0  0  0  0
 36 37  1  0  0  0  0
 37 42  1  0  0  0  0
 38 37  2  0  0  0  0
 38 39  1  0  0  0  0
 39 40  2  0  0  0  0
 40 41  1  0  0  0  0
 40 45  1  0  0  0  0
 41 46  1  0  0  0  0
 42 41  2  0  0  0  0
 43 38  1  0  0  0  0
 44 39  1  0  0  0  0
 46 48  1  0  0  0  0
 46 47  1  0  0  0  0
 46 49  1  0  0  0  0
M  END
>  <minimizedAffinity>
-6.30267143

$$$$

 OpenBabel03262522303D

 49 53  0  0  0  0  0  0  0  0999 V2000
   37.2050   20.7100   32.0510 C   0  0  0  0  0  0  0  0  0  0  0  0
   38.1670   21.2470   31.8450 H   0  0  0  0  0  0  0  0  0  0  0  0
   37.3540   19.6280   31.8710 H   0  0  0  0  0  0  0  0  0  0  0  0
   39.0590   22.1300   33.5060 F   0  0  0  0  0  0  0  0  0  0  0  0
   37.9100   21.7150   34.1240 C   0  0  0  0  0  0  0  0  0  0  0  0
   36.9090   20.9930   33.4880 C   0  0  0  0  0  0  0  0  0  0  0  0
   35.7810   20.6040   34.1620 C   0  0  0  0  0  0  0  0  0  0  0  0
   35.6130   20.9270   35.5070 C   0  0  0  0  0  0  0  0  0  0  0  0
   36.5890   21.6420   36.1620 C   0  0  0  0  0  0  0  0  0  0  0  0
   37.7170   22.0220   35.4640 C   0  0  0  0  0  0  0  0  0  0  0  0
   35.0820   20.0520   33.5590 H   0  0  0  0  0  0  0  0  0  0  0  0
   34.7130   20.6020   35.9930 H   0  0  0  0  0  0  0  0  0  0  0  0
   36.4920   21.9080   37.2020 H   0  0  0  0  0  0  0  0  0  0  0  0
   38.6850   22.7450   36.1610 O   0  0  0  0  0  0  0  0  0  0  0  0
   38.0510   25.2650   35.0490 H   0  0  0  0  0  0  0  0  0  0  0  0
   39.0400   24.9410   35.1170 N   0  0  0  0  0  0  0  0  0  0  0  0
   39.4090   23.7700   35.6270 C   0  0  0  0  0  0  0  0  0  0  0  0
   40.7600   23.7370   35.5300 N   0  0  0  0  0  0  0  0  0  0  0  0
   41.1880   24.8800   34.9660 C   0  0  0  0  0  0  0  0  0  0  0  0
   42.4610   25.2970   34.6680 C   0  0  0  0  0  0  0  0  0  0  0  0
   43.3050   24.6780   34.8830 H   0  0  0  0  0  0  0  0  0  0  0  0
   42.6080   26.5060   34.0970 N   0  0  0  0  0  0  0  0  0  0  0  0
   41.5630   27.2910   33.8210 C   0  0  0  0  0  0  0  0  0  0  0  0
   41.7010   28.2550   33.3630 H   0  0  0  0  0  0  0  0  0  0  0  0
   40.3010   26.8730   34.1190 N   0  0  0  0  0  0  0  0  0  0  0  0
   40.0880   25.6740   34.6910 C   0  0  0  0  0  0  0  0  0  0  0  0
   35.8280   21.3930   31.0880 S   0  0  0  0  0  0  0  0  0  0  0  0
   35.4790   25.4080   31.2250 C   0  0  0  0  0  0  0  0  0  0  0  0
   36.8230   25.7970   31.1670 C   0  0  0  0  0  0  0  0  0  0  0  0
   37.7720   24.8040   31.0880 C   0  0  0  0  0  0  0  0  0  0  0  0
   37.3380   23.5050   31.0720 N   0  0  0  0  0  0  0  0  0  0  0  0
   36.0860   23.1840   31.1280 C   0  0  0  0  0  0  0  0  0  0  0  0
   35.0760   24.1200   31.2090 N   0  0  0  0  0  0  0  0  0  0  0  0
   34.7090   26.1660   31.2880 H   0  0  0  0  0  0  0  0  0  0  0  0
   38.8070   25.0880   31.0430 H   0  0  0  0  0  0  0  0  0  0  0  0
   37.0890   27.1250   31.1920 O   0  0  0  0  0  0  0  0  0  0  0  0
   36.6590   27.8750   32.2800 C   0  0  0  0  0  0  0  0  0  0  0  0
   36.8970   27.6400   33.6260 C   0  0  0  0  0  0  0  0  0  0  0  0
   36.3890   28.4920   34.5400 C   0  0  0  0  0  0  0  0  0  0  0  0
   35.6560   29.5610   34.1310 C   0  0  0  0  0  0  0  0  0  0  0  0
   35.4220   29.7870   32.7670 C   0  0  0  0  0  0  0  0  0  0  0  0
   35.9400   28.9200   31.8570 N   0  0  0  0  0  0  0  0  0  0  0  0
   37.4990   26.7420   33.7460 H   0  0  0  0  0  0  0  0  0  0  0  0
   36.6160   28.2430   35.5690 H   0  0  0  0  0  0  0  0  0  0  0  0
   35.2590   30.2280   34.8790 H   0  0  0  0  0  0  0  0  0  0  0  0
   34.6040   30.9810   32.3250 C   0  0  0  0  0  0  0  0  0  0  0  0
   35.1190   31.3960   31.4530 H   0  0  0  0  0  0  0  0  0  0  0  0
   33.6270   30.6180   31.9930 H   0  0  0  0  0  0  0  0  0  0  0  0
   34.5750   31.6670   33.1840 H   0  0  0  0  0  0  0  0  0  0  0  0
  1  6  1  0  0  0  0
  2  1  1  0  0  0  0
  3  1  1  0  0  0  0
  4  5  1  0  0  0  0
  5 10  1  0  0  0  0
  6  5  2  0  0  0  0
  6  7  1  0  0  0  0
  7  8  2  0  0  0  0
  8 12  1  0  0  0  0
  8  9  1  0  0  0  0
  9 13  1  0  0  0  0
 10 14  1  0  0  0  0
 10  9  2  0  0  0  0
 11  7  1  0  0  0  0
 15 16  1  0  0  0  0
 16 17  1  0  0  0  0
 17 14  1  0  0  0  0
 18 17  2  0  0  0  0
 19 18  1  0  0  0  0
 20 21  1  0  0  0  0
 20 19  2  0  0  0  0
 22 20  1  0  0  0  0
 23 22  2  0  0  0  0
 23 25  1  0  0  0  0
 24 23  1  0  0  0  0
 25 26  2  0  0  0  0
 26 19  1  0  0  0  0
 26 16  1  0  0  0  0
 27 32  1  0  0  0  0
 27  1  1  0  0  0  0
 28 34  1  0  0  0  0
 29 36  1  0  0  0  0
 29 28  2  0  0  0  0
 30 29  1  0  0  0  0
 31 30  2  0  0  0  0
 31 32  1  0  0  0  0
 32 33  2  0  0  0  0
 33 28  1  0  0  0  0
 35 30  1  0  0  0  0
 36 37  1  0  0  0  0
 37 38  1  0  0  0  0
 38 43  1  0  0  0  0
 38 39  2  0  0  0  0
 39 44  1  0  0  0  0
 40 39  1  0  0  0  0
 40 45  1  0  0  0  0
 41 40  2  0  0  0  0
 42 37  2  0  0  0  0
 42 41  1  0  0  0  0
 46 41  1  0  0  0  0
 46 49  1  0  0  0  0
 47 46  1  0  0  0  0
 48 46  1  0  0  0  0
M  END
>  <minimizedAffinity>
-6.16742277

$$$$

 OpenBabel03262522303D

 49 53  0  0  0  0  0  0  0  0999 V2000
   40.0300   27.1930   31.7290 C   0  0  0  0  0  0  0  0  0  0  0  0
   39.2490   27.5600   31.0140 H   0  0  0  0  0  0  0  0  0  0  0  0
   40.9000   27.8770   31.6910 H   0  0  0  0  0  0  0  0  0  0  0  0
   37.3580   27.8360   31.8430 F   0  0  0  0  0  0  0  0  0  0  0  0
   38.0200   27.5560   33.0080 C   0  0  0  0  0  0  0  0  0  0  0  0
   39.3670   27.2210   33.0680 C   0  0  0  0  0  0  0  0  0  0  0  0
   39.9750   26.9510   34.2650 C   0  0  0  0  0  0  0  0  0  0  0  0
   39.2530   27.0080   35.4560 C   0  0  0  0  0  0  0  0  0  0  0  0
   37.9170   27.3380   35.4250 C   0  0  0  0  0  0  0  0  0  0  0  0
   37.3250   27.6060   34.2080 C   0  0  0  0  0  0  0  0  0  0  0  0
   41.0180   26.7050   34.1790 H   0  0  0  0  0  0  0  0  0  0  0  0
   39.7720   26.7890   36.3690 H   0  0  0  0  0  0  0  0  0  0  0  0
   37.3290   27.3920   36.3270 H   0  0  0  0  0  0  0  0  0  0  0  0
   35.9700   27.9370   34.2170 O   0  0  0  0  0  0  0  0  0  0  0  0
   36.9020   30.3030   35.4500 H   0  0  0  0  0  0  0  0  0  0  0  0
   35.9900   30.2840   34.9450 N   0  0  0  0  0  0  0  0  0  0  0  0
   35.4920   29.2080   34.3440 C   0  0  0  0  0  0  0  0  0  0  0  0
   34.3070   29.5980   33.8140 N   0  0  0  0  0  0  0  0  0  0  0  0
   34.1050   30.8960   34.1010 C   0  0  0  0  0  0  0  0  0  0  0  0
   33.0560   31.7200   33.7790 C   0  0  0  0  0  0  0  0  0  0  0  0
   32.2260   31.3550   33.2140 H   0  0  0  0  0  0  0  0  0  0  0  0
   33.1090   32.9970   34.1980 N   0  0  0  0  0  0  0  0  0  0  0  0
   34.1400   33.4680   34.9050 C   0  0  0  0  0  0  0  0  0  0  0  0
   34.1640   34.4940   35.2320 H   0  0  0  0  0  0  0  0  0  0  0  0
   35.1790   32.6470   35.2230 N   0  0  0  0  0  0  0  0  0  0  0  0
   35.1850   31.3590   34.8330 C   0  0  0  0  0  0  0  0  0  0  0  0
   40.4860   25.4670   31.4070 S   0  0  0  0  0  0  0  0  0  0  0  0
   36.7950   23.9350   30.8680 C   0  0  0  0  0  0  0  0  0  0  0  0
   36.7200   23.0310   31.9340 C   0  0  0  0  0  0  0  0  0  0  0  0
   37.8100   22.9360   32.7690 C   0  0  0  0  0  0  0  0  0  0  0  0
   38.8920   23.7310   32.4980 N   0  0  0  0  0  0  0  0  0  0  0  0
   38.9240   24.5560   31.5030 C   0  0  0  0  0  0  0  0  0  0  0  0
   37.8720   24.7090   30.6230 N   0  0  0  0  0  0  0  0  0  0  0  0
   35.9530   24.0330   30.1940 H   0  0  0  0  0  0  0  0  0  0  0  0
   37.7680   22.2460   33.5900 H   0  0  0  0  0  0  0  0  0  0  0  0
   35.5780   22.3150   32.0660 O   0  0  0  0  0  0  0  0  0  0  0  0
   35.6500   20.9270   32.0510 C   0  0  0  0  0  0  0  0  0  0  0  0
   35.3130   20.0440   33.0640 C   0  0  0  0  0  0  0  0  0  0  0  0
   35.4550   18.7190   32.8540 C   0  0  0  0  0  0  0  0  0  0  0  0
   35.9260   18.2730   31.6590 C   0  0  0  0  0  0  0  0  0  0  0  0
   36.2640   19.1770   30.6420 C   0  0  0  0  0  0  0  0  0  0  0  0
   36.1150   20.5090   30.8680 N   0  0  0  0  0  0  0  0  0  0  0  0
   34.9590   20.5930   33.9340 H   0  0  0  0  0  0  0  0  0  0  0  0
   35.1720   18.0920   33.6910 H   0  0  0  0  0  0  0  0  0  0  0  0
   36.0330   17.2100   31.5130 H   0  0  0  0  0  0  0  0  0  0  0  0
   36.7870   18.6670   29.3170 C   0  0  0  0  0  0  0  0  0  0  0  0
   36.2970   19.2680   28.5450 H   0  0  0  0  0  0  0  0  0  0  0  0
   37.8590   18.8770   29.2720 H   0  0  0  0  0  0  0  0  0  0  0  0
   36.5230   17.6000   29.2740 H   0  0  0  0  0  0  0  0  0  0  0  0
  1  6  1  0  0  0  0
  2  1  1  0  0  0  0
  3  1  1  0  0  0  0
  4  5  1  0  0  0  0
  5  6  2  0  0  0  0
  5 10  1  0  0  0  0
  6  7  1  0  0  0  0
  7  8  2  0  0  0  0
  8 12  1  0  0  0  0
  9  8  1  0  0  0  0
  9 13  1  0  0  0  0
 10 14  1  0  0  0  0
 10  9  2  0  0  0  0
 11  7  1  0  0  0  0
 14 17  1  0  0  0  0
 16 15  1  0  0  0  0
 17 16  1  0  0  0  0
 18 19  1  0  0  0  0
 18 17  2  0  0  0  0
 19 26  1  0  0  0  0
 20 19  2  0  0  0  0
 20 22  1  0  0  0  0
 21 20  1  0  0  0  0
 22 23  2  0  0  0  0
 23 25  1  0  0  0  0
 23 24  1  0  0  0  0
 26 16  1  0  0  0  0
 26 25  2  0  0  0  0
 27 32  1  0  0  0  0
 27  1  1  0  0  0  0
 28 29  1  0  0  0  0
 29 36  1  0  0  0  0
 29 30  2  0  0  0  0
 30 35  1  0  0  0  0
 31 30  1  0  0  0  0
 32 31  2  0  0  0  0
 33 28  2  0  0  0  0
 33 32  1  0  0  0  0
 34 28  1  0  0  0  0
 37 36  1  0  0  0  0
 37 38  1  0  0  0  0
 38 43  1  0  0  0  0
 39 38  2  0  0  0  0
 39 44  1  0  0  0  0
 40 39  1  0  0  0  0
 41 42  1  0  0  0  0
 41 40  2  0  0  0  0
 42 37  2  0  0  0  0
 45 40  1  0  0  0  0
 46 41  1  0  0  0  0
 47 46  1  0  0  0  0
 48 46  1  0  0  0  0
 49 46  1  0  0  0  0
M  END
>  <minimizedAffinity>
-6.09142971

$$$$

 OpenBabel03262522303D

 49 53  0  0  0  0  0  0  0  0999 V2000
   39.5340   27.0860   34.5610 C   0  0  0  0  0  0  0  0  0  0  0  0
   38.7170   27.1450   35.3260 H   0  0  0  0  0  0  0  0  0  0  0  0
   40.2310   27.9320   34.7150 H   0  0  0  0  0  0  0  0  0  0  0  0
   37.9450   24.9030   35.0860 F   0  0  0  0  0  0  0  0  0  0  0  0
   39.3040   24.7410   35.0670 C   0  0  0  0  0  0  0  0  0  0  0  0
   40.2000   25.7720   34.8140 C   0  0  0  0  0  0  0  0  0  0  0  0
   41.5510   25.5480   34.8080 C   0  0  0  0  0  0  0  0  0  0  0  0
   42.0600   24.2740   35.0580 C   0  0  0  0  0  0  0  0  0  0  0  0
   41.1940   23.2350   35.3120 C   0  0  0  0  0  0  0  0  0  0  0  0
   39.8370   23.4830   35.3130 C   0  0  0  0  0  0  0  0  0  0  0  0
   42.1370   26.4250   34.6000 H   0  0  0  0  0  0  0  0  0  0  0  0
   43.1250   24.1470   35.0440 H   0  0  0  0  0  0  0  0  0  0  0  0
   41.5530   22.2380   35.5100 H   0  0  0  0  0  0  0  0  0  0  0  0
   38.9910   22.4060   35.5750 O   0  0  0  0  0  0  0  0  0  0  0  0
   36.2840   21.5960   35.6560 H   0  0  0  0  0  0  0  0  0  0  0  0
   36.8420   21.5190   34.7790 N   0  0  0  0  0  0  0  0  0  0  0  0
   38.1160   21.8800   34.6700 C   0  0  0  0  0  0  0  0  0  0  0  0
   38.4630   21.6240   33.3850 N   0  0  0  0  0  0  0  0  0  0  0  0
   37.4000   21.1130   32.7380 C   0  0  0  0  0  0  0  0  0  0  0  0
   37.2710   20.7050   31.4340 C   0  0  0  0  0  0  0  0  0  0  0  0
   38.0940   20.7660   30.7570 H   0  0  0  0  0  0  0  0  0  0  0  0
   36.0770   20.2260   31.0420 N   0  0  0  0  0  0  0  0  0  0  0  0
   35.0380   20.1430   31.8770 C   0  0  0  0  0  0  0  0  0  0  0  0
   34.0900   19.7570   31.5440 H   0  0  0  0  0  0  0  0  0  0  0  0
   35.1700   20.5500   33.1700 N   0  0  0  0  0  0  0  0  0  0  0  0
   36.3400   21.0380   33.6240 C   0  0  0  0  0  0  0  0  0  0  0  0
   38.8780   27.0230   32.8710 S   0  0  0  0  0  0  0  0  0  0  0  0
   35.5240   29.1400   32.1430 C   0  0  0  0  0  0  0  0  0  0  0  0
   34.9740   29.2230   33.4280 C   0  0  0  0  0  0  0  0  0  0  0  0
   35.6630   28.6250   34.4580 C   0  0  0  0  0  0  0  0  0  0  0  0
   36.8370   27.9880   34.1550 N   0  0  0  0  0  0  0  0  0  0  0  0
   37.3140   27.9310   32.9540 C   0  0  0  0  0  0  0  0  0  0  0  0
   36.6830   28.5060   31.8700 N   0  0  0  0  0  0  0  0  0  0  0  0
   35.0050   29.6010   31.3130 H   0  0  0  0  0  0  0  0  0  0  0  0
   35.2530   28.6800   35.4490 H   0  0  0  0  0  0  0  0  0  0  0  0
   33.8030   29.8900   33.5630 O   0  0  0  0  0  0  0  0  0  0  0  0
   33.3650   30.2250   34.8390 C   0  0  0  0  0  0  0  0  0  0  0  0
   32.3670   29.6180   35.5850 C   0  0  0  0  0  0  0  0  0  0  0  0
   32.0870   30.0950   36.8160 C   0  0  0  0  0  0  0  0  0  0  0  0
   32.7830   31.1570   37.3020 C   0  0  0  0  0  0  0  0  0  0  0  0
   33.7900   31.7620   36.5360 C   0  0  0  0  0  0  0  0  0  0  0  0
   34.0620   31.2710   35.2980 N   0  0  0  0  0  0  0  0  0  0  0  0
   31.9330   28.7940   35.0260 H   0  0  0  0  0  0  0  0  0  0  0  0
   31.2960   29.5710   37.3380 H   0  0  0  0  0  0  0  0  0  0  0  0
   32.5420   31.5220   38.2870 H   0  0  0  0  0  0  0  0  0  0  0  0
   34.5570   32.9430   37.0890 C   0  0  0  0  0  0  0  0  0  0  0  0
   35.6040   32.7780   36.8190 H   0  0  0  0  0  0  0  0  0  0  0  0
   34.2160   33.8420   36.5690 H   0  0  0  0  0  0  0  0  0  0  0  0
   34.3800   32.9420   38.1750 H   0  0  0  0  0  0  0  0  0  0  0  0
  1  3  1  0  0  0  0
  1  6  1  0  0  0  0
  1  2  1  0  0  0  0
  5  4  1  0  0  0  0
  5 10  1  0  0  0  0
  6  5  2  0  0  0  0
  7  6  1  0  0  0  0
  7  8  2  0  0  0  0
  8  9  1  0  0  0  0
  9 10  2  0  0  0  0
  9 13  1  0  0  0  0
 10 14  1  0  0  0  0
 11  7  1  0  0  0  0
 12  8  1  0  0  0  0
 16 15  1  0  0  0  0
 17 16  1  0  0  0  0
 17 14  1  0  0  0  0
 18 17  2  0  0  0  0
 19 18  1  0  0  0  0
 19 26  1  0  0  0  0
 20 19  2  0  0  0  0
 21 20  1  0  0  0  0
 22 20  1  0  0  0  0
 22 23  2  0  0  0  0
 23 25  1  0  0  0  0
 24 23  1  0  0  0  0
 25 26  2  0  0  0  0
 26 16  1  0  0  0  0
 27 32  1  0  0  0  0
 27  1  1  0  0  0  0
 28 29  1  0  0  0  0
 29 36  1  0  0  0  0
 29 30  2  0  0  0  0
 30 35  1  0  0  0  0
 31 30  1  0  0  0  0
 32 31  2  0  0  0  0
 33 28  2  0  0  0  0
 33 32  1  0  0  0  0
 34 28  1  0  0  0  0
 36 37  1  0  0  0  0
 37 42  2  0  0  0  0
 37 38  1  0  0  0  0
 38 39  2  0  0  0  0
 39 40  1  0  0  0  0
 39 44  1  0  0  0  0
 40 45  1  0  0  0  0
 41 46  1  0  0  0  0
 41 40  2  0  0  0  0
 42 41  1  0  0  0  0
 43 38  1  0  0  0  0
 46 49  1  0  0  0  0
 47 46  1  0  0  0  0
 48 46  1  0  0  0  0
M  END
>  <minimizedAffinity>
-6.01343775

$$$$

 OpenBabel03262522303D

 49 53  0  0  0  0  0  0  0  0999 V2000
   39.0770   26.8000   29.6420 C   0  0  0  0  0  0  0  0  0  0  0  0
   39.6200   26.4690   28.7200 H   0  0  0  0  0  0  0  0  0  0  0  0
   38.1840   26.1590   29.7800 H   0  0  0  0  0  0  0  0  0  0  0  0
   39.0050   24.4520   31.0730 F   0  0  0  0  0  0  0  0  0  0  0  0
   39.9350   25.3990   31.4050 C   0  0  0  0  0  0  0  0  0  0  0  0
   40.0610   26.6190   30.7520 C   0  0  0  0  0  0  0  0  0  0  0  0
   41.0120   27.5290   31.1310 C   0  0  0  0  0  0  0  0  0  0  0  0
   41.8790   27.2500   32.1860 C   0  0  0  0  0  0  0  0  0  0  0  0
   41.7760   26.0490   32.8510 C   0  0  0  0  0  0  0  0  0  0  0  0
   40.8110   25.1480   32.4520 C   0  0  0  0  0  0  0  0  0  0  0  0
   41.0070   28.4330   30.5490 H   0  0  0  0  0  0  0  0  0  0  0  0
   42.6080   27.9930   32.4470 H   0  0  0  0  0  0  0  0  0  0  0  0
   42.4300   25.8010   33.6710 H   0  0  0  0  0  0  0  0  0  0  0  0
   40.7370   23.9420   33.1500 O   0  0  0  0  0  0  0  0  0  0  0  0
   41.5800   22.6570   35.5220 H   0  0  0  0  0  0  0  0  0  0  0  0
   40.6830   23.1880   35.4880 N   0  0  0  0  0  0  0  0  0  0  0  0
   40.2260   23.8140   34.4080 C   0  0  0  0  0  0  0  0  0  0  0  0
   39.0480   24.3720   34.7780 N   0  0  0  0  0  0  0  0  0  0  0  0
   38.8090   24.0770   36.0670 C   0  0  0  0  0  0  0  0  0  0  0  0
   37.7510   24.4190   36.8710 C   0  0  0  0  0  0  0  0  0  0  0  0
   36.9450   25.0110   36.4950 H   0  0  0  0  0  0  0  0  0  0  0  0
   37.7630   23.9840   38.1440 N   0  0  0  0  0  0  0  0  0  0  0  0
   38.7620   23.2440   38.6300 C   0  0  0  0  0  0  0  0  0  0  0  0
   38.7540   22.9050   39.6520 H   0  0  0  0  0  0  0  0  0  0  0  0
   39.8110   22.9060   37.8290 N   0  0  0  0  0  0  0  0  0  0  0  0
   39.8570   23.3100   36.5460 C   0  0  0  0  0  0  0  0  0  0  0  0
   38.6650   28.5660   29.5900 S   0  0  0  0  0  0  0  0  0  0  0  0
   36.1610   28.2640   32.7360 C   0  0  0  0  0  0  0  0  0  0  0  0
   35.3190   29.3610   32.5160 C   0  0  0  0  0  0  0  0  0  0  0  0
   35.5620   30.1410   31.4090 C   0  0  0  0  0  0  0  0  0  0  0  0
   36.6110   29.7920   30.6000 N   0  0  0  0  0  0  0  0  0  0  0  0
   37.3680   28.7690   30.8350 C   0  0  0  0  0  0  0  0  0  0  0  0
   37.1880   27.9400   31.9230 N   0  0  0  0  0  0  0  0  0  0  0  0
   35.9940   27.6310   33.5980 H   0  0  0  0  0  0  0  0  0  0  0  0
   34.9250   30.9860   31.2280 H   0  0  0  0  0  0  0  0  0  0  0  0
   34.3250   29.5730   33.4110 O   0  0  0  0  0  0  0  0  0  0  0  0
   34.5750   30.3800   34.5130 C   0  0  0  0  0  0  0  0  0  0  0  0
   35.7730   30.9740   34.8820 C   0  0  0  0  0  0  0  0  0  0  0  0
   35.8140   31.7300   35.9990 C   0  0  0  0  0  0  0  0  0  0  0  0
   34.6870   31.8980   36.7400 C   0  0  0  0  0  0  0  0  0  0  0  0
   33.4830   31.2920   36.3570 C   0  0  0  0  0  0  0  0  0  0  0  0
   33.4560   30.5330   35.2300 N   0  0  0  0  0  0  0  0  0  0  0  0
   36.5500   30.7210   34.1640 H   0  0  0  0  0  0  0  0  0  0  0  0
   36.7820   32.1600   36.2210 H   0  0  0  0  0  0  0  0  0  0  0  0
   34.7430   32.5060   37.6290 H   0  0  0  0  0  0  0  0  0  0  0  0
   32.2360   31.4860   37.1920 C   0  0  0  0  0  0  0  0  0  0  0  0
   31.4170   31.6440   36.4840 H   0  0  0  0  0  0  0  0  0  0  0  0
   32.0380   30.5540   37.7280 H   0  0  0  0  0  0  0  0  0  0  0  0
   32.4310   32.3560   37.8370 H   0  0  0  0  0  0  0  0  0  0  0  0
  1  3  1  0  0  0  0
  1  6  1  0  0  0  0
  2  1  1  0  0  0  0
  4  5  1  0  0  0  0
  5 10  1  0  0  0  0
  6  7  1  0  0  0  0
  6  5  2  0  0  0  0
  7  8  2  0  0  0  0
  8 12  1  0  0  0  0
  8  9  1  0  0  0  0
  9 13  1  0  0  0  0
 10  9  2  0  0  0  0
 10 14  1  0  0  0  0
 11  7  1  0  0  0  0
 14 17  1  0  0  0  0
 16 15  1  0  0  0  0
 16 26  1  0  0  0  0
 17 18  2  0  0  0  0
 17 16  1  0  0  0  0
 18 19  1  0  0  0  0
 19 26  2  0  0  0  0
 19 20  1  0  0  0  0
 20 22  2  0  0  0  0
 21 20  1  0  0  0  0
 22 23  1  0  0  0  0
 23 24  1  0  0  0  0
 25 23  2  0  0  0  0
 26 25  1  0  0  0  0
 27  1  1  0  0  0  0
 27 32  1  0  0  0  0
 28 34  1  0  0  0  0
 29 28  1  0  0  0  0
 29 36  1  0  0  0  0
 30 29  2  0  0  0  0
 31 32  2  0  0  0  0
 31 30  1  0  0  0  0
 32 33  1  0  0  0  0
 33 28  2  0  0  0  0
 35 30  1  0  0  0  0
 36 37  1  0  0  0  0
 37 38  2  0  0  0  0
 37 42  1  0  0  0  0
 38 39  1  0  0  0  0
 39 44  1  0  0  0  0
 39 40  2  0  0  0  0
 40 45  1  0  0  0  0
 41 40  1  0  0  0  0
 41 46  1  0  0  0  0
 42 41  2  0  0  0  0
 43 38  1  0  0  0  0
 46 48  1  0  0  0  0
 46 49  1  0  0  0  0
 47 46  1  0  0  0  0
M  END
>  <minimizedAffinity>
-5.96909046

$$$$

 OpenBabel03262522303D

 49 53  0  0  0  0  0  0  0  0999 V2000
   39.8660   27.1340   31.8460 C   0  0  0  0  0  0  0  0  0  0  0  0
   40.0460   28.2110   32.0980 H   0  0  0  0  0  0  0  0  0  0  0  0
   40.7730   26.7230   31.3630 H   0  0  0  0  0  0  0  0  0  0  0  0
   40.0480   24.3930   31.9830 F   0  0  0  0  0  0  0  0  0  0  0  0
   39.7150   25.0900   33.1130 C   0  0  0  0  0  0  0  0  0  0  0  0
   39.5940   26.4730   33.1580 C   0  0  0  0  0  0  0  0  0  0  0  0
   39.2560   27.1150   34.3200 C   0  0  0  0  0  0  0  0  0  0  0  0
   39.0250   26.3910   35.4890 C   0  0  0  0  0  0  0  0  0  0  0  0
   39.1380   25.0200   35.4720 C   0  0  0  0  0  0  0  0  0  0  0  0
   39.4790   24.3940   34.2900 C   0  0  0  0  0  0  0  0  0  0  0  0
   39.1950   28.1840   34.2250 H   0  0  0  0  0  0  0  0  0  0  0  0
   38.7640   26.9370   36.3740 H   0  0  0  0  0  0  0  0  0  0  0  0
   38.9660   24.4290   36.3570 H   0  0  0  0  0  0  0  0  0  0  0  0
   39.5840   23.0030   34.3120 O   0  0  0  0  0  0  0  0  0  0  0  0
   39.6020   21.3390   32.0270 H   0  0  0  0  0  0  0  0  0  0  0  0
   38.7630   21.3970   32.6430 N   0  0  0  0  0  0  0  0  0  0  0  0
   38.6850   22.1580   33.7300 C   0  0  0  0  0  0  0  0  0  0  0  0
   37.4460   21.9490   34.2380 N   0  0  0  0  0  0  0  0  0  0  0  0
   36.7940   21.0710   33.4550 C   0  0  0  0  0  0  0  0  0  0  0  0
   35.5260   20.5590   33.5660 C   0  0  0  0  0  0  0  0  0  0  0  0
   34.8860   20.8500   34.3700 H   0  0  0  0  0  0  0  0  0  0  0  0
   35.1180   19.6840   32.6300 N   0  0  0  0  0  0  0  0  0  0  0  0
   35.9060   19.3100   31.6180 C   0  0  0  0  0  0  0  0  0  0  0  0
   35.5610   18.6080   30.8780 H   0  0  0  0  0  0  0  0  0  0  0  0
   37.1640   19.8210   31.5110 N   0  0  0  0  0  0  0  0  0  0  0  0
   37.6310   20.7020   32.4160 C   0  0  0  0  0  0  0  0  0  0  0  0
   38.3780   26.9150   30.8320 S   0  0  0  0  0  0  0  0  0  0  0  0
   35.4000   28.6350   32.9380 C   0  0  0  0  0  0  0  0  0  0  0  0
   35.4630   29.9520   32.4670 C   0  0  0  0  0  0  0  0  0  0  0  0
   36.4190   30.2480   31.5230 C   0  0  0  0  0  0  0  0  0  0  0  0
   37.2430   29.2340   31.1100 N   0  0  0  0  0  0  0  0  0  0  0  0
   37.1550   28.0280   31.5680 C   0  0  0  0  0  0  0  0  0  0  0  0
   36.2230   27.6530   32.5150 N   0  0  0  0  0  0  0  0  0  0  0  0
   34.6580   28.3710   33.6810 H   0  0  0  0  0  0  0  0  0  0  0  0
   36.4800   31.2540   31.1520 H   0  0  0  0  0  0  0  0  0  0  0  0
   34.5750   30.8390   32.9770 O   0  0  0  0  0  0  0  0  0  0  0  0
   34.7620   31.3060   34.2720 C   0  0  0  0  0  0  0  0  0  0  0  0
   35.8600   31.9780   34.7880 C   0  0  0  0  0  0  0  0  0  0  0  0
   35.8500   32.3510   36.0840 C   0  0  0  0  0  0  0  0  0  0  0  0
   34.7720   32.0650   36.8600 C   0  0  0  0  0  0  0  0  0  0  0  0
   33.6680   31.3850   36.3260 C   0  0  0  0  0  0  0  0  0  0  0  0
   33.6900   31.0150   35.0190 N   0  0  0  0  0  0  0  0  0  0  0  0
   36.6120   32.1090   34.0140 H   0  0  0  0  0  0  0  0  0  0  0  0
   36.7420   32.8700   36.4140 H   0  0  0  0  0  0  0  0  0  0  0  0
   34.7860   32.3730   37.8930 H   0  0  0  0  0  0  0  0  0  0  0  0
   32.4730   31.0730   37.2010 C   0  0  0  0  0  0  0  0  0  0  0  0
   31.5880   31.2790   36.5920 H   0  0  0  0  0  0  0  0  0  0  0  0
   32.4850   30.0020   37.4210 H   0  0  0  0  0  0  0  0  0  0  0  0
   32.5600   31.7270   38.0820 H   0  0  0  0  0  0  0  0  0  0  0  0
  1  2  1  0  0  0  0
  1  6  1  0  0  0  0
  3  1  1  0  0  0  0
  4  5  1  0  0  0  0
  5  6  2  0  0  0  0
  5 10  1  0  0  0  0
  6  7  1  0  0  0  0
  7  8  2  0  0  0  0
  8 12  1  0  0  0  0
  9  8  1  0  0  0  0
  9 13  1  0  0  0  0
 10 14  1  0  0  0  0
 10  9  2  0  0  0  0
 11  7  1  0  0  0  0
 15 16  1  0  0  0  0
 16 17  1  0  0  0  0
 17 18  2  0  0  0  0
 17 14  1  0  0  0  0
 19 20  1  0  0  0  0
 19 18  1  0  0  0  0
 20 21  1  0  0  0  0
 22 20  2  0  0  0  0
 23 22  1  0  0  0  0
 24 23  1  0  0  0  0
 25 23  2  0  0  0  0
 25 26  1  0  0  0  0
 26 16  1  0  0  0  0
 26 19  2  0  0  0  0
 27 32  1  0  0  0  0
 27  1  1  0  0  0  0
 28 34  1  0  0  0  0
 29 28  2  0  0  0  0
 29 36  1  0  0  0  0
 30 29  1  0  0  0  0
 31 30  2  0  0  0  0
 31 32  1  0  0  0  0
 32 33  2  0  0  0  0
 33 28  1  0  0  0  0
 35 30  1  0  0  0  0
 36 37  1  0  0  0  0
 37 38  2  0  0  0  0
 37 42  1  0  0  0  0
 38 39  1  0  0  0  0
 39 44  1  0  0  0  0
 39 40  2  0  0  0  0
 40 45  1  0  0  0  0
 41 40  1  0  0  0  0
 41 46  1  0  0  0  0
 42 41  2  0  0  0  0
 43 38  1  0  0  0  0
 46 48  1  0  0  0  0
 46 49  1  0  0  0  0
 47 46  1  0  0  0  0
M  END
>  <minimizedAffinity>
-5.96352673

$$$$

 OpenBabel03262522303D

 49 53  0  0  0  0  0  0  0  0999 V2000
   41.4210   26.7800   34.1350 C   0  0  0  0  0  0  0  0  0  0  0  0
   41.6000   26.7120   33.0310 H   0  0  0  0  0  0  0  0  0  0  0  0
   41.9760   27.6500   34.5350 H   0  0  0  0  0  0  0  0  0  0  0  0
   39.8910   26.7710   31.8490 F   0  0  0  0  0  0  0  0  0  0  0  0
   39.2710   26.9380   33.0580 C   0  0  0  0  0  0  0  0  0  0  0  0
   39.9440   26.9600   34.2730 C   0  0  0  0  0  0  0  0  0  0  0  0
   39.2680   27.1330   35.4520 C   0  0  0  0  0  0  0  0  0  0  0  0
   37.8830   27.2910   35.4580 C   0  0  0  0  0  0  0  0  0  0  0  0
   37.1920   27.2740   34.2690 C   0  0  0  0  0  0  0  0  0  0  0  0
   37.8930   27.0990   33.0930 C   0  0  0  0  0  0  0  0  0  0  0  0
   39.9000   27.1310   36.3220 H   0  0  0  0  0  0  0  0  0  0  0  0
   37.3970   27.4230   36.4060 H   0  0  0  0  0  0  0  0  0  0  0  0
   36.1210   27.3940   34.2370 H   0  0  0  0  0  0  0  0  0  0  0  0
   37.1590   27.0880   31.9070 O   0  0  0  0  0  0  0  0  0  0  0  0
   38.0880   27.1850   29.2400 H   0  0  0  0  0  0  0  0  0  0  0  0
   37.6880   28.0300   29.7010 N   0  0  0  0  0  0  0  0  0  0  0  0
   37.2340   28.0560   30.9500 C   0  0  0  0  0  0  0  0  0  0  0  0
   36.8060   29.3250   31.1600 N   0  0  0  0  0  0  0  0  0  0  0  0
   37.0070   30.0450   30.0420 C   0  0  0  0  0  0  0  0  0  0  0  0
   36.7350   31.3650   29.7800 C   0  0  0  0  0  0  0  0  0  0  0  0
   36.2950   31.9920   30.5250 H   0  0  0  0  0  0  0  0  0  0  0  0
   37.0410   31.8380   28.5600 N   0  0  0  0  0  0  0  0  0  0  0  0
   37.5920   31.0670   27.6180 C   0  0  0  0  0  0  0  0  0  0  0  0
   37.8310   31.4650   26.6470 H   0  0  0  0  0  0  0  0  0  0  0  0
   37.8610   29.7580   27.8830 N   0  0  0  0  0  0  0  0  0  0  0  0
   37.5780   29.2250   29.0850 C   0  0  0  0  0  0  0  0  0  0  0  0
   41.8410   25.2340   34.9860 S   0  0  0  0  0  0  0  0  0  0  0  0
   39.3400   22.2970   33.8100 C   0  0  0  0  0  0  0  0  0  0  0  0
   39.7360   22.1230   32.4790 C   0  0  0  0  0  0  0  0  0  0  0  0
   40.7550   22.9180   32.0070 C   0  0  0  0  0  0  0  0  0  0  0  0
   41.3100   23.8240   32.8700 N   0  0  0  0  0  0  0  0  0  0  0  0
   40.9170   23.9570   34.0960 C   0  0  0  0  0  0  0  0  0  0  0  0
   39.9030   23.1980   34.6430 N   0  0  0  0  0  0  0  0  0  0  0  0
   38.5410   21.6870   34.2110 H   0  0  0  0  0  0  0  0  0  0  0  0
   41.0700   22.7950   30.9870 H   0  0  0  0  0  0  0  0  0  0  0  0
   39.0860   21.1820   31.7530 O   0  0  0  0  0  0  0  0  0  0  0  0
   37.6960   21.1860   31.7400 C   0  0  0  0  0  0  0  0  0  0  0  0
   36.8490   22.2130   31.3510 C   0  0  0  0  0  0  0  0  0  0  0  0
   35.5150   22.0210   31.4110 C   0  0  0  0  0  0  0  0  0  0  0  0
   35.0250   20.8320   31.8520 C   0  0  0  0  0  0  0  0  0  0  0  0
   35.8920   19.8020   32.2430 C   0  0  0  0  0  0  0  0  0  0  0  0
   37.2340   20.0090   32.1770 N   0  0  0  0  0  0  0  0  0  0  0  0
   37.4310   23.0740   31.0330 H   0  0  0  0  0  0  0  0  0  0  0  0
   34.9200   22.8660   31.0910 H   0  0  0  0  0  0  0  0  0  0  0  0
   33.9560   20.7010   31.8930 H   0  0  0  0  0  0  0  0  0  0  0  0
   35.3330   18.4840   32.7320 C   0  0  0  0  0  0  0  0  0  0  0  0
   35.9520   17.7040   32.2780 H   0  0  0  0  0  0  0  0  0  0  0  0
   35.4760   18.4360   33.8140 H   0  0  0  0  0  0  0  0  0  0  0  0
   34.2830   18.4560   32.4020 H   0  0  0  0  0  0  0  0  0  0  0  0
  1  6  1  0  0  0  0
  1  3  1  0  0  0  0
  1 27  1  0  0  0  0
  2  1  1  0  0  0  0
  4  5  1  0  0  0  0
  5 10  2  0  0  0  0
  5  6  1  0  0  0  0
  6  7  2  0  0  0  0
  7  8  1  0  0  0  0
  7 11  1  0  0  0  0
  8 12  1  0  0  0  0
  9  8  2  0  0  0  0
 10  9  1  0  0  0  0
 13  9  1  0  0  0  0
 14 10  1  0  0  0  0
 15 16  1  0  0  0  0
 16 17  1  0  0  0  0
 17 18  2  0  0  0  0
 17 14  1  0  0  0  0
 19 18  1  0  0  0  0
 20 19  1  0  0  0  0
 20 21  1  0  0  0  0
 22 20  2  0  0  0  0
 23 25  2  0  0  0  0
 23 22  1  0  0  0  0
 24 23  1  0  0  0  0
 25 26  1  0  0  0  0
 26 16  1  0  0  0  0
 26 19  2  0  0  0  0
 28 34  1  0  0  0  0
 28 33  1  0  0  0  0
 29 28  2  0  0  0  0
 30 29  1  0  0  0  0
 30 31  2  0  0  0  0
 31 32  1  0  0  0  0
 32 33  2  0  0  0  0
 32 27  1  0  0  0  0
 35 30  1  0  0  0  0
 36 29  1  0  0  0  0
 37 36  1  0  0  0  0
 37 42  1  0  0  0  0
 38 39  1  0  0  0  0
 38 37  2  0  0  0  0
 39 40  2  0  0  0  0
 40 45  1  0  0  0  0
 40 41  1  0  0  0  0
 41 46  1  0  0  0  0
 42 41  2  0  0  0  0
 43 38  1  0  0  0  0
 44 39  1  0  0  0  0
 46 48  1  0  0  0  0
 47 46  1  0  0  0  0
 49 46  1  0  0  0  0
M  END
>  <minimizedAffinity>
-5.95864868

$$$$

 OpenBabel03262522303D

 49 53  0  0  0  0  0  0  0  0999 V2000
   36.1530   27.8740   30.7580 C   0  0  0  0  0  0  0  0  0  0  0  0
   35.9120   27.4960   29.7310 H   0  0  0  0  0  0  0  0  0  0  0  0
   35.4150   27.4640   31.4730 H   0  0  0  0  0  0  0  0  0  0  0  0
   36.4140   25.4240   31.9790 F   0  0  0  0  0  0  0  0  0  0  0  0
   37.5440   26.1240   31.6560 C   0  0  0  0  0  0  0  0  0  0  0  0
   37.5310   27.3680   31.0390 C   0  0  0  0  0  0  0  0  0  0  0  0
   38.6970   28.0210   30.7400 C   0  0  0  0  0  0  0  0  0  0  0  0
   39.9300   27.4490   31.0510 C   0  0  0  0  0  0  0  0  0  0  0  0
   39.9720   26.2170   31.6620 C   0  0  0  0  0  0  0  0  0  0  0  0
   38.7850   25.5770   31.9540 C   0  0  0  0  0  0  0  0  0  0  0  0
   38.5540   28.9750   30.2640 H   0  0  0  0  0  0  0  0  0  0  0  0
   40.8160   27.9980   30.7980 H   0  0  0  0  0  0  0  0  0  0  0  0
   40.9070   25.7460   31.9170 H   0  0  0  0  0  0  0  0  0  0  0  0
   38.8670   24.3310   32.5740 O   0  0  0  0  0  0  0  0  0  0  0  0
   37.2090   25.2540   34.6690 H   0  0  0  0  0  0  0  0  0  0  0  0
   38.0090   24.6130   34.8590 N   0  0  0  0  0  0  0  0  0  0  0  0
   38.8280   24.1420   33.9250 C   0  0  0  0  0  0  0  0  0  0  0  0
   39.7190   23.3570   34.5780 N   0  0  0  0  0  0  0  0  0  0  0  0
   39.4290   23.3640   35.8910 C   0  0  0  0  0  0  0  0  0  0  0  0
   40.0470   22.7250   36.9360 C   0  0  0  0  0  0  0  0  0  0  0  0
   40.8990   22.1020   36.7710 H   0  0  0  0  0  0  0  0  0  0  0  0
   39.5430   22.9080   38.1700 N   0  0  0  0  0  0  0  0  0  0  0  0
   38.4780   23.6820   38.3920 C   0  0  0  0  0  0  0  0  0  0  0  0
   38.0900   23.8170   39.3880 H   0  0  0  0  0  0  0  0  0  0  0  0
   37.8690   24.3160   37.3520 N   0  0  0  0  0  0  0  0  0  0  0  0
   38.3250   24.1730   36.0940 C   0  0  0  0  0  0  0  0  0  0  0  0
   36.2410   29.6850   30.8090 S   0  0  0  0  0  0  0  0  0  0  0  0
   35.6450   29.7030   34.7970 C   0  0  0  0  0  0  0  0  0  0  0  0
   35.5880   31.0780   35.0550 C   0  0  0  0  0  0  0  0  0  0  0  0
   35.7340   31.9340   33.9880 C   0  0  0  0  0  0  0  0  0  0  0  0
   35.9280   31.3830   32.7500 N   0  0  0  0  0  0  0  0  0  0  0  0
   35.9750   30.1060   32.5500 C   0  0  0  0  0  0  0  0  0  0  0  0
   35.8360   29.1840   33.5670 N   0  0  0  0  0  0  0  0  0  0  0  0
   35.5330   29.0040   35.6160 H   0  0  0  0  0  0  0  0  0  0  0  0
   35.6930   32.9920   34.1710 H   0  0  0  0  0  0  0  0  0  0  0  0
   35.3900   31.4640   36.3390 O   0  0  0  0  0  0  0  0  0  0  0  0
   34.2650   32.2190   36.6460 C   0  0  0  0  0  0  0  0  0  0  0  0
   32.9410   31.9430   36.3370 C   0  0  0  0  0  0  0  0  0  0  0  0
   31.9830   32.8090   36.7270 C   0  0  0  0  0  0  0  0  0  0  0  0
   32.3270   33.9310   37.4120 C   0  0  0  0  0  0  0  0  0  0  0  0
   33.6690   34.1990   37.7170 C   0  0  0  0  0  0  0  0  0  0  0  0
   34.6240   33.3180   37.3190 N   0  0  0  0  0  0  0  0  0  0  0  0
   32.8750   31.0060   35.7900 H   0  0  0  0  0  0  0  0  0  0  0  0
   30.9750   32.5260   36.4500 H   0  0  0  0  0  0  0  0  0  0  0  0
   31.5450   34.6090   37.7130 H   0  0  0  0  0  0  0  0  0  0  0  0
   34.0380   35.4520   38.4800 C   0  0  0  0  0  0  0  0  0  0  0  0
   34.7980   35.1520   39.2080 H   0  0  0  0  0  0  0  0  0  0  0  0
   34.5040   36.1500   37.7800 H   0  0  0  0  0  0  0  0  0  0  0  0
   33.1080   35.8140   38.9430 H   0  0  0  0  0  0  0  0  0  0  0  0
  1 27  1  0  0  0  0
  1  6  1  0  0  0  0
  1  3  1  0  0  0  0
  2  1  1  0  0  0  0
  5 10  1  0  0  0  0
  5  4  1  0  0  0  0
  6  5  2  0  0  0  0
  7  6  1  0  0  0  0
  7  8  2  0  0  0  0
  8  9  1  0  0  0  0
  9 13  1  0  0  0  0
  9 10  2  0  0  0  0
 10 14  1  0  0  0  0
 11  7  1  0  0  0  0
 12  8  1  0  0  0  0
 14 17  1  0  0  0  0
 15 16  1  0  0  0  0
 16 26  1  0  0  0  0
 17 18  2  0  0  0  0
 17 16  1  0  0  0  0
 18 19  1  0  0  0  0
 19 26  2  0  0  0  0
 19 20  1  0  0  0  0
 20 22  2  0  0  0  0
 21 20  1  0  0  0  0
 22 23  1  0  0  0  0
 23 24  1  0  0  0  0
 25 23  2  0  0  0  0
 26 25  1  0  0  0  0
 27 32  1  0  0  0  0
 28 29  1  0  0  0  0
 28 34  1  0  0  0  0
 29 36  1  0  0  0  0
 30 35  1  0  0  0  0
 30 29  2  0  0  0  0
 31 30  1  0  0  0  0
 32 31  2  0  0  0  0
 32 33  1  0  0  0  0
 33 28  2  0  0  0  0
 36 37  1  0  0  0  0
 37 42  1  0  0  0  0
 38 37  2  0  0  0  0
 38 39  1  0  0  0  0
 39 40  2  0  0  0  0
 40 45  1  0  0  0  0
 40 41  1  0  0  0  0
 41 46  1  0  0  0  0
 42 41  2  0  0  0  0
 43 38  1  0  0  0  0
 44 39  1  0  0  0  0
 46 49  1  0  0  0  0
 46 47  1  0  0  0  0
 48 46  1  0  0  0  0
M  END
>  <minimizedAffinity>
-5.94587135

$$$$
