
 OpenBabel03272509193D

 36 39  0  0  0  0  0  0  0  0999 V2000
   37.7310   26.0680   31.7760 C   0  0  0  0  0  0  0  0  0  0  0  0
   36.6610   26.7660   31.2250 C   0  0  0  0  0  0  0  0  0  0  0  0
   35.5150   25.9910   30.9870 C   0  0  0  0  0  0  0  0  0  0  0  0
   35.4910   24.6170   31.2960 C   0  0  0  0  0  0  0  0  0  0  0  0
   36.6320   24.0120   31.8510 C   0  0  0  0  0  0  0  0  0  0  0  0
   37.7550   24.7680   32.0850 C   0  0  0  0  0  0  0  0  0  0  0  0
   34.6780   26.4950   30.5660 H   0  0  0  0  0  0  0  0  0  0  0  0
   34.5830   24.0880   31.0880 H   0  0  0  0  0  0  0  0  0  0  0  0
   36.5030   22.9710   32.0450 H   0  0  0  0  0  0  0  0  0  0  0  0
   37.0780   28.5950   29.6450 C   0  0  0  0  0  0  0  0  0  0  0  0
   36.6920   28.1660   30.9130 C   0  0  0  0  0  0  0  0  0  0  0  0
   36.3380   29.1450   31.8570 C   0  0  0  0  0  0  0  0  0  0  0  0
   36.4000   30.4490   31.4670 N   0  0  0  0  0  0  0  0  0  0  0  0
   36.7830   30.8200   30.2180 C   0  0  0  0  0  0  0  0  0  0  0  0
   37.1230   29.8910   29.3070 N   0  0  0  0  0  0  0  0  0  0  0  0
   37.3670   27.8930   28.8580 H   0  0  0  0  0  0  0  0  0  0  0  0
   36.7560   31.9040   30.1340 H   0  0  0  0  0  0  0  0  0  0  0  0
   35.9210   28.7530   33.2150 C   0  0  0  0  0  0  0  0  0  0  0  0
   34.8270   28.5580   33.2870 H   0  0  0  0  0  0  0  0  0  0  0  0
   36.4090   27.7780   33.4970 H   0  0  0  0  0  0  0  0  0  0  0  0
   36.2910   29.4930   33.9560 H   0  0  0  0  0  0  0  0  0  0  0  0
   38.9130   26.7760   32.0420 O   0  0  0  0  0  0  0  0  0  0  0  0
   39.5330   27.0780   31.3050 H   0  0  0  0  0  0  0  0  0  0  0  0
   38.8530   24.1220   32.6330 O   0  0  0  0  0  0  0  0  0  0  0  0
   37.2570   25.2690   34.6040 H   0  0  0  0  0  0  0  0  0  0  0  0
   38.0230   24.5820   34.8080 N   0  0  0  0  0  0  0  0  0  0  0  0
   38.8870   23.9310   34.0080 C   0  0  0  0  0  0  0  0  0  0  0  0
   39.6870   23.1510   34.7600 N   0  0  0  0  0  0  0  0  0  0  0  0
   39.3420   23.2940   36.0720 C   0  0  0  0  0  0  0  0  0  0  0  0
   39.8560   22.7120   37.2270 C   0  0  0  0  0  0  0  0  0  0  0  0
   40.6750   22.0090   37.1810 H   0  0  0  0  0  0  0  0  0  0  0  0
   39.2780   23.0720   38.4110 N   0  0  0  0  0  0  0  0  0  0  0  0
   38.2600   23.9530   38.4080 C   0  0  0  0  0  0  0  0  0  0  0  0
   37.8530   24.1890   39.3890 H   0  0  0  0  0  0  0  0  0  0  0  0
   37.7430   24.5320   37.2860 N   0  0  0  0  0  0  0  0  0  0  0  0
   38.2830   24.2080   36.0820 C   0  0  0  0  0  0  0  0  0  0  0  0
  1 22  1  0  0  0  0
  1  6  1  0  0  0  0
  2  1  2  0  0  0  0
  3  2  1  0  0  0  0
  3  4  2  0  0  0  0
  4  5  1  0  0  0  0
  5  9  1  0  0  0  0
  5  6  2  0  0  0  0
  6 24  1  0  0  0  0
  7  3  1  0  0  0  0
  8  4  1  0  0  0  0
 10 11  1  0  0  0  0
 11  2  1  0  0  0  0
 11 12  2  0  0  0  0
 12 18  1  0  0  0  0
 13 12  1  0  0  0  0
 14 13  2  0  0  0  0
 15 10  2  0  0  0  0
 15 14  1  0  0  0  0
 16 10  1  0  0  0  0
 17 14  1  0  0  0  0
 18 19  1  0  0  0  0
 18 20  1  0  0  0  0
 18 21  1  0  0  0  0
 23 22  1  0  0  0  0
 24 27  1  0  0  0  0
 25 26  1  0  0  0  0
 26 36  1  0  0  0  0
 27 28  2  0  0  0  0
 27 26  1  0  0  0  0
 28 29  1  0  0  0  0
 29 36  2  0  0  0  0
 29 30  1  0  0  0  0
 30 32  2  0  0  0  0
 31 30  1  0  0  0  0
 33 32  1  0  0  0  0
 33 34  1  0  0  0  0
 35 33  2  0  0  0  0
 36 35  1  0  0  0  0
M  END
>  <minimizedAffinity>
-5.73804426

$$$$

 OpenBabel03272509193D

 36 39  0  0  0  0  0  0  0  0999 V2000
   37.9580   25.4890   34.0780 C   0  0  0  0  0  0  0  0  0  0  0  0
   38.6570   25.4690   35.2800 C   0  0  0  0  0  0  0  0  0  0  0  0
   38.5530   26.6460   36.0400 C   0  0  0  0  0  0  0  0  0  0  0  0
   37.7890   27.7380   35.5840 C   0  0  0  0  0  0  0  0  0  0  0  0
   37.1210   27.6500   34.3510 C   0  0  0  0  0  0  0  0  0  0  0  0
   37.2220   26.5000   33.6050 C   0  0  0  0  0  0  0  0  0  0  0  0
   39.0770   26.6630   36.9660 H   0  0  0  0  0  0  0  0  0  0  0  0
   37.7540   28.6030   36.2150 H   0  0  0  0  0  0  0  0  0  0  0  0
   36.5740   28.5330   34.1050 H   0  0  0  0  0  0  0  0  0  0  0  0
   40.7460   24.1830   35.3030 C   0  0  0  0  0  0  0  0  0  0  0  0
   39.4330   24.3530   35.7390 C   0  0  0  0  0  0  0  0  0  0  0  0
   38.9100   23.4010   36.6310 C   0  0  0  0  0  0  0  0  0  0  0  0
   39.7240   22.3760   37.0080 N   0  0  0  0  0  0  0  0  0  0  0  0
   40.9980   22.2520   36.5570 C   0  0  0  0  0  0  0  0  0  0  0  0
   41.5080   23.1570   35.7030 N   0  0  0  0  0  0  0  0  0  0  0  0
   41.2210   24.8820   34.6090 H   0  0  0  0  0  0  0  0  0  0  0  0
   41.4550   21.3650   36.9900 H   0  0  0  0  0  0  0  0  0  0  0  0
   37.5280   23.5280   37.1260 C   0  0  0  0  0  0  0  0  0  0  0  0
   37.4580   24.1510   38.0460 H   0  0  0  0  0  0  0  0  0  0  0  0
   36.8970   24.0640   36.3630 H   0  0  0  0  0  0  0  0  0  0  0  0
   37.0680   22.5210   37.2340 H   0  0  0  0  0  0  0  0  0  0  0  0
   38.0140   24.3480   33.2630 O   0  0  0  0  0  0  0  0  0  0  0  0
   38.8420   24.1060   32.7390 H   0  0  0  0  0  0  0  0  0  0  0  0
   36.5430   26.4650   32.3960 O   0  0  0  0  0  0  0  0  0  0  0  0
   35.6890   28.7970   31.1420 H   0  0  0  0  0  0  0  0  0  0  0  0
   36.5350   28.2560   30.8390 N   0  0  0  0  0  0  0  0  0  0  0  0
   37.0980   27.1270   31.3090 C   0  0  0  0  0  0  0  0  0  0  0  0
   38.1840   26.8320   30.5700 N   0  0  0  0  0  0  0  0  0  0  0  0
   38.3350   27.7820   29.6020 C   0  0  0  0  0  0  0  0  0  0  0  0
   39.2890   27.9290   28.5990 C   0  0  0  0  0  0  0  0  0  0  0  0
   40.0930   27.2170   28.4840 H   0  0  0  0  0  0  0  0  0  0  0  0
   39.1570   29.0110   27.7750 N   0  0  0  0  0  0  0  0  0  0  0  0
   38.1350   29.8650   27.9650 C   0  0  0  0  0  0  0  0  0  0  0  0
   38.0980   30.7010   27.2700 H   0  0  0  0  0  0  0  0  0  0  0  0
   37.1920   29.7370   28.9430 N   0  0  0  0  0  0  0  0  0  0  0  0
   37.2770   28.6770   29.7900 C   0  0  0  0  0  0  0  0  0  0  0  0
  1  2  1  0  0  0  0
  2 11  1  0  0  0  0
  2  3  2  0  0  0  0
  3  7  1  0  0  0  0
  4  3  1  0  0  0  0
  4  8  1  0  0  0  0
  5  4  2  0  0  0  0
  6  1  2  0  0  0  0
  6  5  1  0  0  0  0
  9  5  1  0  0  0  0
 10 15  2  0  0  0  0
 10 11  1  0  0  0  0
 11 12  2  0  0  0  0
 12 13  1  0  0  0  0
 12 18  1  0  0  0  0
 14 17  1  0  0  0  0
 14 13  2  0  0  0  0
 15 14  1  0  0  0  0
 16 10  1  0  0  0  0
 18 21  1  0  0  0  0
 18 19  1  0  0  0  0
 20 18  1  0  0  0  0
 22  1  1  0  0  0  0
 23 22  1  0  0  0  0
 24  6  1  0  0  0  0
 26 25  1  0  0  0  0
 26 27  1  0  0  0  0
 27 24  1  0  0  0  0
 28 27  2  0  0  0  0
 29 36  1  0  0  0  0
 29 28  1  0  0  0  0
 30 29  2  0  0  0  0
 31 30  1  0  0  0  0
 32 33  2  0  0  0  0
 32 30  1  0  0  0  0
 33 35  1  0  0  0  0
 34 33  1  0  0  0  0
 35 36  2  0  0  0  0
 36 26  1  0  0  0  0
M  END
>  <minimizedAffinity>
-5.58854198

$$$$

 OpenBabel03272509193D

 36 39  0  0  0  0  0  0  0  0999 V2000
   37.9090   25.2890   34.3190 C   0  0  0  0  0  0  0  0  0  0  0  0
   37.8960   26.6390   33.9860 C   0  0  0  0  0  0  0  0  0  0  0  0
   38.0920   27.5130   35.0680 C   0  0  0  0  0  0  0  0  0  0  0  0
   38.2840   27.0190   36.3730 C   0  0  0  0  0  0  0  0  0  0  0  0
   38.2790   25.6320   36.5970 C   0  0  0  0  0  0  0  0  0  0  0  0
   38.0870   24.7750   35.5400 C   0  0  0  0  0  0  0  0  0  0  0  0
   38.0880   28.5530   34.8480 H   0  0  0  0  0  0  0  0  0  0  0  0
   38.4290   27.7430   37.1500 H   0  0  0  0  0  0  0  0  0  0  0  0
   38.4340   25.3700   37.6200 H   0  0  0  0  0  0  0  0  0  0  0  0
   36.4150   27.3990   32.1850 C   0  0  0  0  0  0  0  0  0  0  0  0
   37.7000   27.1360   32.6540 C   0  0  0  0  0  0  0  0  0  0  0  0
   38.7780   27.3730   31.7850 C   0  0  0  0  0  0  0  0  0  0  0  0
   38.4910   27.8440   30.5390 N   0  0  0  0  0  0  0  0  0  0  0  0
   37.2210   28.0860   30.1250 C   0  0  0  0  0  0  0  0  0  0  0  0
   36.1820   27.8630   30.9500 N   0  0  0  0  0  0  0  0  0  0  0  0
   35.5270   27.2390   32.8030 H   0  0  0  0  0  0  0  0  0  0  0  0
   37.2340   28.4560   29.1020 H   0  0  0  0  0  0  0  0  0  0  0  0
   40.1600   27.1130   32.2250 C   0  0  0  0  0  0  0  0  0  0  0  0
   40.6200   27.9910   32.7320 H   0  0  0  0  0  0  0  0  0  0  0  0
   40.1660   26.2960   32.9990 H   0  0  0  0  0  0  0  0  0  0  0  0
   40.7630   26.7210   31.3780 H   0  0  0  0  0  0  0  0  0  0  0  0
   37.7190   24.3540   33.2900 O   0  0  0  0  0  0  0  0  0  0  0  0
   36.8170   24.2060   32.8630 H   0  0  0  0  0  0  0  0  0  0  0  0
   38.0900   23.4150   35.8150 O   0  0  0  0  0  0  0  0  0  0  0  0
   39.3910   22.2420   37.9780 H   0  0  0  0  0  0  0  0  0  0  0  0
   39.7790   22.2460   37.0040 N   0  0  0  0  0  0  0  0  0  0  0  0
   39.3100   22.7520   35.8480 C   0  0  0  0  0  0  0  0  0  0  0  0
   40.1890   22.4960   34.8610 N   0  0  0  0  0  0  0  0  0  0  0  0
   41.2510   21.8120   35.3780 C   0  0  0  0  0  0  0  0  0  0  0  0
   42.4080   21.3200   34.7810 C   0  0  0  0  0  0  0  0  0  0  0  0
   42.5900   21.4530   33.7240 H   0  0  0  0  0  0  0  0  0  0  0  0
   43.2930   20.6670   35.5910 N   0  0  0  0  0  0  0  0  0  0  0  0
   43.0130   20.5320   36.9000 C   0  0  0  0  0  0  0  0  0  0  0  0
   43.7650   20.0000   37.4790 H   0  0  0  0  0  0  0  0  0  0  0  0
   41.8850   21.0050   37.5020 N   0  0  0  0  0  0  0  0  0  0  0  0
   40.9710   21.6640   36.7410 C   0  0  0  0  0  0  0  0  0  0  0  0
  1  6  1  0  0  0  0
  2  1  2  0  0  0  0
  2  3  1  0  0  0  0
  3  4  2  0  0  0  0
  4  5  1  0  0  0  0
  4  8  1  0  0  0  0
  5  9  1  0  0  0  0
  6 24  1  0  0  0  0
  6  5  2  0  0  0  0
  7  3  1  0  0  0  0
 10 11  1  0  0  0  0
 10 16  1  0  0  0  0
 11  2  1  0  0  0  0
 12 18  1  0  0  0  0
 12 11  2  0  0  0  0
 13 12  1  0  0  0  0
 14 13  2  0  0  0  0
 14 15  1  0  0  0  0
 15 10  2  0  0  0  0
 17 14  1  0  0  0  0
 18 19  1  0  0  0  0
 18 20  1  0  0  0  0
 21 18  1  0  0  0  0
 22  1  1  0  0  0  0
 23 22  1  0  0  0  0
 24 27  1  0  0  0  0
 26 25  1  0  0  0  0
 27 26  1  0  0  0  0
 28 29  1  0  0  0  0
 28 27  2  0  0  0  0
 29 36  1  0  0  0  0
 30 29  2  0  0  0  0
 30 32  1  0  0  0  0
 31 30  1  0  0  0  0
 32 33  2  0  0  0  0
 33 34  1  0  0  0  0
 33 35  1  0  0  0  0
 36 26  1  0  0  0  0
 36 35  2  0  0  0  0
M  END
>  <minimizedAffinity>
-5.57436419

$$$$

 OpenBabel03272509193D

 36 39  0  0  0  0  0  0  0  0999 V2000
   38.2280   24.4160   33.6770 C   0  0  0  0  0  0  0  0  0  0  0  0
   38.7270   24.8510   34.9010 C   0  0  0  0  0  0  0  0  0  0  0  0
   38.3290   26.1450   35.2710 C   0  0  0  0  0  0  0  0  0  0  0  0
   37.4880   26.9110   34.4390 C   0  0  0  0  0  0  0  0  0  0  0  0
   37.0410   26.3720   33.2210 C   0  0  0  0  0  0  0  0  0  0  0  0
   37.4300   25.1050   32.8560 C   0  0  0  0  0  0  0  0  0  0  0  0
   38.6940   26.5090   36.2020 H   0  0  0  0  0  0  0  0  0  0  0  0
   37.2240   27.8900   34.7850 H   0  0  0  0  0  0  0  0  0  0  0  0
   36.4110   27.0360   32.6730 H   0  0  0  0  0  0  0  0  0  0  0  0
   40.9540   24.0100   35.4950 C   0  0  0  0  0  0  0  0  0  0  0  0
   39.5840   24.0660   35.7430 C   0  0  0  0  0  0  0  0  0  0  0  0
   39.0840   23.3330   36.8330 C   0  0  0  0  0  0  0  0  0  0  0  0
   39.9760   22.6180   37.5740 N   0  0  0  0  0  0  0  0  0  0  0  0
   41.3040   22.5940   37.2950 C   0  0  0  0  0  0  0  0  0  0  0  0
   41.7920   23.2910   36.2530 N   0  0  0  0  0  0  0  0  0  0  0  0
   41.4160   24.5530   34.6660 H   0  0  0  0  0  0  0  0  0  0  0  0
   41.8180   21.9610   38.0150 H   0  0  0  0  0  0  0  0  0  0  0  0
   37.6440   23.3530   37.1440 C   0  0  0  0  0  0  0  0  0  0  0  0
   37.3630   24.1920   37.8210 H   0  0  0  0  0  0  0  0  0  0  0  0
   37.0530   23.5300   36.2030 H   0  0  0  0  0  0  0  0  0  0  0  0
   37.3200   22.3560   37.5130 H   0  0  0  0  0  0  0  0  0  0  0  0
   38.5830   23.1310   33.2390 O   0  0  0  0  0  0  0  0  0  0  0  0
   39.5090   22.9190   32.8990 H   0  0  0  0  0  0  0  0  0  0  0  0
   36.9610   24.6200   31.6440 O   0  0  0  0  0  0  0  0  0  0  0  0
   34.8730   23.2170   32.8350 H   0  0  0  0  0  0  0  0  0  0  0  0
   35.5850   22.7700   32.2070 N   0  0  0  0  0  0  0  0  0  0  0  0
   36.6480   23.2710   31.5500 C   0  0  0  0  0  0  0  0  0  0  0  0
   37.2560   22.2810   30.8700 N   0  0  0  0  0  0  0  0  0  0  0  0
   36.5810   21.1140   31.0840 C   0  0  0  0  0  0  0  0  0  0  0  0
   36.8030   19.8230   30.6130 C   0  0  0  0  0  0  0  0  0  0  0  0
   37.6310   19.6040   29.9550 H   0  0  0  0  0  0  0  0  0  0  0  0
   35.9280   18.8570   31.0220 N   0  0  0  0  0  0  0  0  0  0  0  0
   34.9150   19.1890   31.8430 C   0  0  0  0  0  0  0  0  0  0  0  0
   34.2610   18.3650   32.1230 H   0  0  0  0  0  0  0  0  0  0  0  0
   34.6820   20.4480   32.3130 N   0  0  0  0  0  0  0  0  0  0  0  0
   35.5230   21.4460   31.9370 C   0  0  0  0  0  0  0  0  0  0  0  0
  1  2  1  0  0  0  0
  2  3  2  0  0  0  0
  2 11  1  0  0  0  0
  3  7  1  0  0  0  0
  4  8  1  0  0  0  0
  4  3  1  0  0  0  0
  5  4  2  0  0  0  0
  6  5  1  0  0  0  0
  6  1  2  0  0  0  0
  9  5  1  0  0  0  0
 10 11  2  0  0  0  0
 10 15  1  0  0  0  0
 11 12  1  0  0  0  0
 12 18  1  0  0  0  0
 12 13  2  0  0  0  0
 14 13  1  0  0  0  0
 14 17  1  0  0  0  0
 15 14  2  0  0  0  0
 16 10  1  0  0  0  0
 18 21  1  0  0  0  0
 18 19  1  0  0  0  0
 20 18  1  0  0  0  0
 22  1  1  0  0  0  0
 23 22  1  0  0  0  0
 24  6  1  0  0  0  0
 26 25  1  0  0  0  0
 27 24  1  0  0  0  0
 27 26  1  0  0  0  0
 28 29  1  0  0  0  0
 28 27  2  0  0  0  0
 29 36  1  0  0  0  0
 30 32  1  0  0  0  0
 30 29  2  0  0  0  0
 31 30  1  0  0  0  0
 32 33  2  0  0  0  0
 33 34  1  0  0  0  0
 33 35  1  0  0  0  0
 36 26  1  0  0  0  0
 36 35  2  0  0  0  0
M  END
>  <minimizedAffinity>
-5.53528738

$$$$

 OpenBabel03272509193D

 36 39  0  0  0  0  0  0  0  0999 V2000
   37.9630   25.4930   34.0470 C   0  0  0  0  0  0  0  0  0  0  0  0
   38.6770   25.4640   35.2410 C   0  0  0  0  0  0  0  0  0  0  0  0
   38.5680   26.6270   36.0190 C   0  0  0  0  0  0  0  0  0  0  0  0
   37.7850   27.7160   35.5890 C   0  0  0  0  0  0  0  0  0  0  0  0
   37.1030   27.6380   34.3620 C   0  0  0  0  0  0  0  0  0  0  0  0
   37.2090   26.5010   33.5980 C   0  0  0  0  0  0  0  0  0  0  0  0
   39.1020   26.6380   36.9390 H   0  0  0  0  0  0  0  0  0  0  0  0
   37.7460   28.5720   36.2330 H   0  0  0  0  0  0  0  0  0  0  0  0
   36.5420   28.5170   34.1360 H   0  0  0  0  0  0  0  0  0  0  0  0
   40.7960   24.2290   35.2540 C   0  0  0  0  0  0  0  0  0  0  0  0
   39.4730   24.3510   35.6730 C   0  0  0  0  0  0  0  0  0  0  0  0
   38.9590   23.3560   36.5220 C   0  0  0  0  0  0  0  0  0  0  0  0
   39.7920   22.3380   36.8770 N   0  0  0  0  0  0  0  0  0  0  0  0
   41.0760   22.2610   36.4440 C   0  0  0  0  0  0  0  0  0  0  0  0
   41.5780   23.2080   35.6310 N   0  0  0  0  0  0  0  0  0  0  0  0
   41.2660   24.9630   34.5930 H   0  0  0  0  0  0  0  0  0  0  0  0
   41.5470   21.3700   36.8530 H   0  0  0  0  0  0  0  0  0  0  0  0
   37.5670   23.4310   36.9980 C   0  0  0  0  0  0  0  0  0  0  0  0
   37.4660   24.0200   37.9370 H   0  0  0  0  0  0  0  0  0  0  0  0
   36.9350   23.9790   36.2430 H   0  0  0  0  0  0  0  0  0  0  0  0
   37.1300   22.4110   37.0620 H   0  0  0  0  0  0  0  0  0  0  0  0
   38.0240   24.3650   33.2140 O   0  0  0  0  0  0  0  0  0  0  0  0
   38.8490   24.1410   32.6770 H   0  0  0  0  0  0  0  0  0  0  0  0
   36.5170   26.4750   32.3970 O   0  0  0  0  0  0  0  0  0  0  0  0
   38.8060   25.7920   30.9710 H   0  0  0  0  0  0  0  0  0  0  0  0
   38.2060   26.6190   30.7360 N   0  0  0  0  0  0  0  0  0  0  0  0
   37.0820   27.1040   31.2960 C   0  0  0  0  0  0  0  0  0  0  0  0
   36.6890   28.2020   30.6230 N   0  0  0  0  0  0  0  0  0  0  0  0
   37.5680   28.4390   29.6060 C   0  0  0  0  0  0  0  0  0  0  0  0
   37.6050   29.4370   28.6360 C   0  0  0  0  0  0  0  0  0  0  0  0
   36.8490   30.2060   28.5970 H   0  0  0  0  0  0  0  0  0  0  0  0
   38.6390   29.3930   27.7440 N   0  0  0  0  0  0  0  0  0  0  0  0
   39.5540   28.4100   27.8410 C   0  0  0  0  0  0  0  0  0  0  0  0
   40.3450   28.4430   27.0950 H   0  0  0  0  0  0  0  0  0  0  0  0
   39.5320   27.4250   28.7840 N   0  0  0  0  0  0  0  0  0  0  0  0
   38.5240   27.4220   29.6960 C   0  0  0  0  0  0  0  0  0  0  0  0
  1  2  1  0  0  0  0
  2 11  1  0  0  0  0
  2  3  2  0  0  0  0
  3  7  1  0  0  0  0
  4  3  1  0  0  0  0
  4  8  1  0  0  0  0
  5  4  2  0  0  0  0
  6  1  2  0  0  0  0
  6  5  1  0  0  0  0
  9  5  1  0  0  0  0
 10 15  2  0  0  0  0
 10 11  1  0  0  0  0
 11 12  2  0  0  0  0
 12 13  1  0  0  0  0
 12 18  1  0  0  0  0
 14 17  1  0  0  0  0
 14 13  2  0  0  0  0
 15 14  1  0  0  0  0
 16 10  1  0  0  0  0
 18 21  1  0  0  0  0
 18 19  1  0  0  0  0
 20 18  1  0  0  0  0
 22  1  1  0  0  0  0
 23 22  1  0  0  0  0
 24  6  1  0  0  0  0
 26 25  1  0  0  0  0
 26 27  1  0  0  0  0
 27 24  1  0  0  0  0
 28 27  2  0  0  0  0
 29 36  1  0  0  0  0
 29 28  1  0  0  0  0
 30 29  2  0  0  0  0
 31 30  1  0  0  0  0
 32 33  2  0  0  0  0
 32 30  1  0  0  0  0
 33 35  1  0  0  0  0
 34 33  1  0  0  0  0
 35 36  2  0  0  0  0
 36 26  1  0  0  0  0
M  END
>  <minimizedAffinity>
-5.5269599

$$$$

 OpenBabel03272509193D

 36 39  0  0  0  0  0  0  0  0999 V2000
   39.8520   24.9430   34.7580 C   0  0  0  0  0  0  0  0  0  0  0  0
   40.1170   26.2980   34.5920 C   0  0  0  0  0  0  0  0  0  0  0  0
   39.3080   27.1530   35.3570 C   0  0  0  0  0  0  0  0  0  0  0  0
   38.3160   26.6380   36.2130 C   0  0  0  0  0  0  0  0  0  0  0  0
   38.1320   25.2480   36.3050 C   0  0  0  0  0  0  0  0  0  0  0  0
   38.9230   24.4090   35.5570 C   0  0  0  0  0  0  0  0  0  0  0  0
   39.4850   28.1970   35.2520 H   0  0  0  0  0  0  0  0  0  0  0  0
   37.7350   27.3490   36.7670 H   0  0  0  0  0  0  0  0  0  0  0  0
   37.3560   24.9700   36.9820 H   0  0  0  0  0  0  0  0  0  0  0  0
   42.4540   26.8930   34.1430 C   0  0  0  0  0  0  0  0  0  0  0  0
   41.1300   26.8160   33.7170 C   0  0  0  0  0  0  0  0  0  0  0  0
   40.8330   27.2570   32.4160 C   0  0  0  0  0  0  0  0  0  0  0  0
   41.8620   27.7330   31.6610 N   0  0  0  0  0  0  0  0  0  0  0  0
   43.1390   27.7900   32.1200 C   0  0  0  0  0  0  0  0  0  0  0  0
   43.4330   27.3690   33.3630 N   0  0  0  0  0  0  0  0  0  0  0  0
   42.7620   26.5690   35.1410 H   0  0  0  0  0  0  0  0  0  0  0  0
   43.7860   28.2010   31.3490 H   0  0  0  0  0  0  0  0  0  0  0  0
   39.4510   27.2000   31.9100 C   0  0  0  0  0  0  0  0  0  0  0  0
   39.2100   26.2240   31.4300 H   0  0  0  0  0  0  0  0  0  0  0  0
   38.7260   27.2880   32.7670 H   0  0  0  0  0  0  0  0  0  0  0  0
   39.2460   28.0780   31.2590 H   0  0  0  0  0  0  0  0  0  0  0  0
   40.6200   24.0250   34.0260 O   0  0  0  0  0  0  0  0  0  0  0  0
   40.4940   23.8940   33.0330 H   0  0  0  0  0  0  0  0  0  0  0  0
   38.7010   23.0460   35.6840 O   0  0  0  0  0  0  0  0  0  0  0  0
   38.3320   23.5790   32.9780 H   0  0  0  0  0  0  0  0  0  0  0  0
   37.8100   22.8310   33.4960 N   0  0  0  0  0  0  0  0  0  0  0  0
   37.8480   22.4290   34.7800 C   0  0  0  0  0  0  0  0  0  0  0  0
   36.9750   21.4190   34.9540 N   0  0  0  0  0  0  0  0  0  0  0  0
   36.3560   21.1550   33.7670 C   0  0  0  0  0  0  0  0  0  0  0  0
   35.3860   20.2180   33.4230 C   0  0  0  0  0  0  0  0  0  0  0  0
   34.9880   19.5320   34.1560 H   0  0  0  0  0  0  0  0  0  0  0  0
   34.9670   20.2110   32.1230 N   0  0  0  0  0  0  0  0  0  0  0  0
   35.4970   21.0900   31.2530 C   0  0  0  0  0  0  0  0  0  0  0  0
   35.1130   21.0220   30.2380 H   0  0  0  0  0  0  0  0  0  0  0  0
   36.4490   22.0140   31.5720 N   0  0  0  0  0  0  0  0  0  0  0  0
   36.9000   22.0640   32.8530 C   0  0  0  0  0  0  0  0  0  0  0  0
  1  6  1  0  0  0  0
  2  1  2  0  0  0  0
  2  3  1  0  0  0  0
  3  4  2  0  0  0  0
  4  5  1  0  0  0  0
  4  8  1  0  0  0  0
  5  9  1  0  0  0  0
  6 24  1  0  0  0  0
  6  5  2  0  0  0  0
  7  3  1  0  0  0  0
 10 16  1  0  0  0  0
 11 10  1  0  0  0  0
 11  2  1  0  0  0  0
 12 11  2  0  0  0  0
 13 14  2  0  0  0  0
 13 12  1  0  0  0  0
 14 15  1  0  0  0  0
 15 10  2  0  0  0  0
 17 14  1  0  0  0  0
 18 12  1  0  0  0  0
 18 20  1  0  0  0  0
 19 18  1  0  0  0  0
 21 18  1  0  0  0  0
 22  1  1  0  0  0  0
 23 22  1  0  0  0  0
 25 26  1  0  0  0  0
 26 27  1  0  0  0  0
 27 28  2  0  0  0  0
 27 24  1  0  0  0  0
 29 28  1  0  0  0  0
 30 29  1  0  0  0  0
 30 31  1  0  0  0  0
 32 30  2  0  0  0  0
 33 35  2  0  0  0  0
 33 32  1  0  0  0  0
 34 33  1  0  0  0  0
 35 36  1  0  0  0  0
 36 26  1  0  0  0  0
 36 29  2  0  0  0  0
M  END
>  <minimizedAffinity>
-5.44064331

$$$$

 OpenBabel03272509193D

 36 39  0  0  0  0  0  0  0  0999 V2000
   38.8000   25.5250   33.5270 C   0  0  0  0  0  0  0  0  0  0  0  0
   39.5050   25.5340   34.7260 C   0  0  0  0  0  0  0  0  0  0  0  0
   40.6010   26.4110   34.7560 C   0  0  0  0  0  0  0  0  0  0  0  0
   40.9260   27.2030   33.6380 C   0  0  0  0  0  0  0  0  0  0  0  0
   40.1430   27.1160   32.4750 C   0  0  0  0  0  0  0  0  0  0  0  0
   39.0700   26.2580   32.4420 C   0  0  0  0  0  0  0  0  0  0  0  0
   41.1620   26.4420   35.6590 H   0  0  0  0  0  0  0  0  0  0  0  0
   41.7750   27.8510   33.7320 H   0  0  0  0  0  0  0  0  0  0  0  0
   40.4790   27.7590   31.6920 H   0  0  0  0  0  0  0  0  0  0  0  0
   38.2030   25.1530   36.7690 C   0  0  0  0  0  0  0  0  0  0  0  0
   39.1680   24.7230   35.8610 C   0  0  0  0  0  0  0  0  0  0  0  0
   39.7870   23.4840   36.0990 C   0  0  0  0  0  0  0  0  0  0  0  0
   39.3990   22.7880   37.2040 N   0  0  0  0  0  0  0  0  0  0  0  0
   38.4530   23.2470   38.0620 C   0  0  0  0  0  0  0  0  0  0  0  0
   37.8550   24.4320   37.8430 N   0  0  0  0  0  0  0  0  0  0  0  0
   37.6780   26.1060   36.6510 H   0  0  0  0  0  0  0  0  0  0  0  0
   38.3080   22.5290   38.8650 H   0  0  0  0  0  0  0  0  0  0  0  0
   40.8150   22.9770   35.1740 C   0  0  0  0  0  0  0  0  0  0  0  0
   40.3830   22.3870   34.3340 H   0  0  0  0  0  0  0  0  0  0  0  0
   41.3430   23.8400   34.6800 H   0  0  0  0  0  0  0  0  0  0  0  0
   41.6030   22.4350   35.7400 H   0  0  0  0  0  0  0  0  0  0  0  0
   37.6900   24.6720   33.4210 O   0  0  0  0  0  0  0  0  0  0  0  0
   37.7920   23.6720   33.3300 H   0  0  0  0  0  0  0  0  0  0  0  0
   38.3300   26.2090   31.2700 O   0  0  0  0  0  0  0  0  0  0  0  0
   39.0100   26.9650   28.6800 H   0  0  0  0  0  0  0  0  0  0  0  0
   38.4790   27.5820   29.3410 N   0  0  0  0  0  0  0  0  0  0  0  0
   38.0640   27.3990   30.6080 C   0  0  0  0  0  0  0  0  0  0  0  0
   37.4140   28.5020   31.0260 N   0  0  0  0  0  0  0  0  0  0  0  0
   37.4030   29.4210   30.0170 C   0  0  0  0  0  0  0  0  0  0  0  0
   36.8650   30.7030   29.9470 C   0  0  0  0  0  0  0  0  0  0  0  0
   36.3440   31.1370   30.7870 H   0  0  0  0  0  0  0  0  0  0  0  0
   37.0280   31.3770   28.7700 N   0  0  0  0  0  0  0  0  0  0  0  0
   37.6870   30.7860   27.7560 C   0  0  0  0  0  0  0  0  0  0  0  0
   37.7750   31.3870   26.8530 H   0  0  0  0  0  0  0  0  0  0  0  0
   38.2190   29.5320   27.8070 N   0  0  0  0  0  0  0  0  0  0  0  0
   38.0850   28.8180   28.9560 C   0  0  0  0  0  0  0  0  0  0  0  0
  1  2  1  0  0  0  0
  2  3  2  0  0  0  0
  2 11  1  0  0  0  0
  3  7  1  0  0  0  0
  4  8  1  0  0  0  0
  4  3  1  0  0  0  0
  5  4  2  0  0  0  0
  6  5  1  0  0  0  0
  6  1  2  0  0  0  0
  9  5  1  0  0  0  0
 10 15  1  0  0  0  0
 11 12  1  0  0  0  0
 11 10  2  0  0  0  0
 12 13  2  0  0  0  0
 13 14  1  0  0  0  0
 14 17  1  0  0  0  0
 15 14  2  0  0  0  0
 16 10  1  0  0  0  0
 18 21  1  0  0  0  0
 18 12  1  0  0  0  0
 19 18  1  0  0  0  0
 20 18  1  0  0  0  0
 22  1  1  0  0  0  0
 23 22  1  0  0  0  0
 24  6  1  0  0  0  0
 25 26  1  0  0  0  0
 26 27  1  0  0  0  0
 27 28  2  0  0  0  0
 27 24  1  0  0  0  0
 29 28  1  0  0  0  0
 30 29  1  0  0  0  0
 30 31  1  0  0  0  0
 32 30  2  0  0  0  0
 33 35  2  0  0  0  0
 33 32  1  0  0  0  0
 34 33  1  0  0  0  0
 35 36  1  0  0  0  0
 36 26  1  0  0  0  0
 36 29  2  0  0  0  0
M  END
>  <minimizedAffinity>
-5.37878847

$$$$

 OpenBabel03272509193D

 36 39  0  0  0  0  0  0  0  0999 V2000
   36.1220   24.9340   31.7180 C   0  0  0  0  0  0  0  0  0  0  0  0
   36.8080   23.8330   32.2220 C   0  0  0  0  0  0  0  0  0  0  0  0
   37.7550   24.1350   33.2130 C   0  0  0  0  0  0  0  0  0  0  0  0
   37.9640   25.4620   33.6360 C   0  0  0  0  0  0  0  0  0  0  0  0
   37.2140   26.5000   33.0580 C   0  0  0  0  0  0  0  0  0  0  0  0
   36.2860   26.2080   32.0870 C   0  0  0  0  0  0  0  0  0  0  0  0
   38.2970   23.3160   33.6200 H   0  0  0  0  0  0  0  0  0  0  0  0
   38.7020   25.6190   34.3980 H   0  0  0  0  0  0  0  0  0  0  0  0
   37.4530   27.4630   33.4530 H   0  0  0  0  0  0  0  0  0  0  0  0
   35.5170   21.7490   32.2860 C   0  0  0  0  0  0  0  0  0  0  0  0
   36.5900   22.4840   31.7860 C   0  0  0  0  0  0  0  0  0  0  0  0
   37.4340   21.8600   30.8520 C   0  0  0  0  0  0  0  0  0  0  0  0
   37.1460   20.5750   30.5010 N   0  0  0  0  0  0  0  0  0  0  0  0
   36.0880   19.8980   31.0160 C   0  0  0  0  0  0  0  0  0  0  0  0
   35.2740   20.4860   31.9100 N   0  0  0  0  0  0  0  0  0  0  0  0
   34.8170   22.1660   33.0150 H   0  0  0  0  0  0  0  0  0  0  0  0
   36.0540   18.8960   30.5930 H   0  0  0  0  0  0  0  0  0  0  0  0
   38.5850   22.5870   30.2880 C   0  0  0  0  0  0  0  0  0  0  0  0
   38.3190   23.1680   29.3770 H   0  0  0  0  0  0  0  0  0  0  0  0
   38.9490   23.3550   31.0260 H   0  0  0  0  0  0  0  0  0  0  0  0
   39.4400   21.8920   30.1400 H   0  0  0  0  0  0  0  0  0  0  0  0
   35.1590   24.7120   30.7220 O   0  0  0  0  0  0  0  0  0  0  0  0
   35.4140   24.4780   29.7740 H   0  0  0  0  0  0  0  0  0  0  0  0
   35.5730   27.2690   31.5490 O   0  0  0  0  0  0  0  0  0  0  0  0
   36.8360   26.9790   29.0870 H   0  0  0  0  0  0  0  0  0  0  0  0
   36.8110   27.8830   29.6200 N   0  0  0  0  0  0  0  0  0  0  0  0
   36.2610   28.2150   30.8020 C   0  0  0  0  0  0  0  0  0  0  0  0
   36.5060   29.5150   31.0560 N   0  0  0  0  0  0  0  0  0  0  0  0
   37.2270   30.0410   30.0240 C   0  0  0  0  0  0  0  0  0  0  0  0
   37.7230   31.3230   29.8080 C   0  0  0  0  0  0  0  0  0  0  0  0
   37.5620   32.1130   30.5270 H   0  0  0  0  0  0  0  0  0  0  0  0
   38.4190   31.5300   28.6500 N   0  0  0  0  0  0  0  0  0  0  0  0
   38.5890   30.5090   27.7910 C   0  0  0  0  0  0  0  0  0  0  0  0
   39.1530   30.7530   26.8930 H   0  0  0  0  0  0  0  0  0  0  0  0
   38.1090   29.2470   27.9850 N   0  0  0  0  0  0  0  0  0  0  0  0
   37.4100   28.9880   29.1220 C   0  0  0  0  0  0  0  0  0  0  0  0
  1  6  2  0  0  0  0
  1  2  1  0  0  0  0
  2  3  2  0  0  0  0
  3  7  1  0  0  0  0
  3  4  1  0  0  0  0
  4  8  1  0  0  0  0
  5  9  1  0  0  0  0
  5  4  2  0  0  0  0
  6  5  1  0  0  0  0
 10 16  1  0  0  0  0
 11  2  1  0  0  0  0
 11 10  2  0  0  0  0
 12 11  1  0  0  0  0
 13 12  2  0  0  0  0
 13 14  1  0  0  0  0
 14 15  2  0  0  0  0
 15 10  1  0  0  0  0
 17 14  1  0  0  0  0
 18 12  1  0  0  0  0
 18 20  1  0  0  0  0
 19 18  1  0  0  0  0
 21 18  1  0  0  0  0
 22  1  1  0  0  0  0
 23 22  1  0  0  0  0
 24  6  1  0  0  0  0
 25 26  1  0  0  0  0
 26 27  1  0  0  0  0
 27 28  2  0  0  0  0
 27 24  1  0  0  0  0
 29 28  1  0  0  0  0
 30 29  1  0  0  0  0
 30 31  1  0  0  0  0
 32 30  2  0  0  0  0
 33 35  2  0  0  0  0
 33 32  1  0  0  0  0
 34 33  1  0  0  0  0
 35 36  1  0  0  0  0
 36 26  1  0  0  0  0
 36 29  2  0  0  0  0
M  END
>  <minimizedAffinity>
-5.3423748

$$$$

 OpenBabel03272509193D

 36 39  0  0  0  0  0  0  0  0999 V2000
   37.9030   25.5880   33.9740 C   0  0  0  0  0  0  0  0  0  0  0  0
   38.6010   25.5560   35.1770 C   0  0  0  0  0  0  0  0  0  0  0  0
   38.4660   26.7100   35.9650 C   0  0  0  0  0  0  0  0  0  0  0  0
   37.6760   27.7940   35.5350 C   0  0  0  0  0  0  0  0  0  0  0  0
   37.0120   27.7200   34.2990 C   0  0  0  0  0  0  0  0  0  0  0  0
   37.1430   26.5920   33.5250 C   0  0  0  0  0  0  0  0  0  0  0  0
   38.9880   26.7180   36.8920 H   0  0  0  0  0  0  0  0  0  0  0  0
   37.6180   28.6420   36.1870 H   0  0  0  0  0  0  0  0  0  0  0  0
   36.4430   28.5940   34.0740 H   0  0  0  0  0  0  0  0  0  0  0  0
   38.8470   23.4400   36.3920 C   0  0  0  0  0  0  0  0  0  0  0  0
   39.4050   24.4490   35.6090 C   0  0  0  0  0  0  0  0  0  0  0  0
   40.7630   24.3380   35.2660 C   0  0  0  0  0  0  0  0  0  0  0  0
   41.4420   23.2500   35.7240 N   0  0  0  0  0  0  0  0  0  0  0  0
   40.8570   22.2900   36.4860 C   0  0  0  0  0  0  0  0  0  0  0  0
   39.5570   22.3870   36.8190 N   0  0  0  0  0  0  0  0  0  0  0  0
   37.7980   23.4560   36.6990 H   0  0  0  0  0  0  0  0  0  0  0  0
   41.5860   21.5230   36.7320 H   0  0  0  0  0  0  0  0  0  0  0  0
   41.4080   25.3740   34.4400 C   0  0  0  0  0  0  0  0  0  0  0  0
   41.3100   25.1750   33.3490 H   0  0  0  0  0  0  0  0  0  0  0  0
   40.8950   26.3640   34.6010 H   0  0  0  0  0  0  0  0  0  0  0  0
   42.4570   25.5280   34.7730 H   0  0  0  0  0  0  0  0  0  0  0  0
   37.9900   24.4700   33.1310 O   0  0  0  0  0  0  0  0  0  0  0  0
   38.8240   24.2620   32.6030 H   0  0  0  0  0  0  0  0  0  0  0  0
   36.4670   26.5690   32.3140 O   0  0  0  0  0  0  0  0  0  0  0  0
   38.7520   25.8610   30.8910 H   0  0  0  0  0  0  0  0  0  0  0  0
   38.1670   26.7010   30.6630 N   0  0  0  0  0  0  0  0  0  0  0  0
   37.0490   27.2000   31.2220 C   0  0  0  0  0  0  0  0  0  0  0  0
   36.6780   28.3110   30.5590 N   0  0  0  0  0  0  0  0  0  0  0  0
   37.5660   28.5430   29.5490 C   0  0  0  0  0  0  0  0  0  0  0  0
   37.6260   29.5500   28.5900 C   0  0  0  0  0  0  0  0  0  0  0  0
   36.8840   30.3340   28.5560 H   0  0  0  0  0  0  0  0  0  0  0  0
   38.6640   29.4980   27.7020 N   0  0  0  0  0  0  0  0  0  0  0  0
   39.5600   28.4980   27.7930 C   0  0  0  0  0  0  0  0  0  0  0  0
   40.3550   28.5250   27.0510 H   0  0  0  0  0  0  0  0  0  0  0  0
   39.5160   27.5030   28.7250 N   0  0  0  0  0  0  0  0  0  0  0  0
   38.5050   27.5090   29.6320 C   0  0  0  0  0  0  0  0  0  0  0  0
  1  2  1  0  0  0  0
  2 11  1  0  0  0  0
  2  3  2  0  0  0  0
  3  7  1  0  0  0  0
  4  3  1  0  0  0  0
  4  8  1  0  0  0  0
  5  4  2  0  0  0  0
  6  1  2  0  0  0  0
  6  5  1  0  0  0  0
  9  5  1  0  0  0  0
 10 16  1  0  0  0  0
 10 15  1  0  0  0  0
 11 10  2  0  0  0  0
 12 11  1  0  0  0  0
 12 13  2  0  0  0  0
 13 14  1  0  0  0  0
 14 17  1  0  0  0  0
 14 15  2  0  0  0  0
 18 20  1  0  0  0  0
 18 21  1  0  0  0  0
 18 12  1  0  0  0  0
 19 18  1  0  0  0  0
 22  1  1  0  0  0  0
 23 22  1  0  0  0  0
 24  6  1  0  0  0  0
 26 25  1  0  0  0  0
 26 27  1  0  0  0  0
 27 24  1  0  0  0  0
 28 27  2  0  0  0  0
 29 36  1  0  0  0  0
 29 28  1  0  0  0  0
 30 29  2  0  0  0  0
 31 30  1  0  0  0  0
 32 33  2  0  0  0  0
 32 30  1  0  0  0  0
 33 35  1  0  0  0  0
 34 33  1  0  0  0  0
 35 36  2  0  0  0  0
 36 26  1  0  0  0  0
M  END
>  <minimizedAffinity>
-5.331532

$$$$
