
 OpenBabel03272509193D

 36 39  0  0  0  0  0  0  0  0999 V2000
   37.9630   31.3000   47.7390 C   0  0  0  0  0  0  0  0  0  0  0  0
   37.0660   31.3030   48.8020 C   0  0  0  0  0  0  0  0  0  0  0  0
   37.2010   32.3910   49.6810 C   0  0  0  0  0  0  0  0  0  0  0  0
   38.1800   33.3800   49.4650 C   0  0  0  0  0  0  0  0  0  0  0  0
   39.0360   33.2780   48.3550 C   0  0  0  0  0  0  0  0  0  0  0  0
   38.9060   32.2150   47.4940 C   0  0  0  0  0  0  0  0  0  0  0  0
   36.5300   32.4230   50.5060 H   0  0  0  0  0  0  0  0  0  0  0  0
   38.2260   34.1820   50.1750 H   0  0  0  0  0  0  0  0  0  0  0  0
   39.7360   34.0800   48.2890 H   0  0  0  0  0  0  0  0  0  0  0  0
   34.8910   30.3000   48.2750 C   0  0  0  0  0  0  0  0  0  0  0  0
   36.0710   30.2920   49.0160 C   0  0  0  0  0  0  0  0  0  0  0  0
   36.2440   29.2690   49.9650 C   0  0  0  0  0  0  0  0  0  0  0  0
   35.2420   28.3550   50.0950 N   0  0  0  0  0  0  0  0  0  0  0  0
   34.1080   28.4030   49.3500 C   0  0  0  0  0  0  0  0  0  0  0  0
   33.9330   29.3780   48.4400 N   0  0  0  0  0  0  0  0  0  0  0  0
   34.6860   31.0630   47.5200 H   0  0  0  0  0  0  0  0  0  0  0  0
   33.4550   27.5780   49.6240 H   0  0  0  0  0  0  0  0  0  0  0  0
   37.4710   29.2090   50.7780 C   0  0  0  0  0  0  0  0  0  0  0  0
   38.2840   28.6300   50.2840 H   0  0  0  0  0  0  0  0  0  0  0  0
   37.8920   30.2450   50.9110 H   0  0  0  0  0  0  0  0  0  0  0  0
   37.2310   28.8540   51.8030 H   0  0  0  0  0  0  0  0  0  0  0  0
   37.8900   30.2440   46.8180 O   0  0  0  0  0  0  0  0  0  0  0  0
   38.2080   29.3140   47.0450 H   0  0  0  0  0  0  0  0  0  0  0  0
   39.7750   32.1610   46.4140 O   0  0  0  0  0  0  0  0  0  0  0  0
   37.1590   32.0270   45.4740 H   0  0  0  0  0  0  0  0  0  0  0  0
   37.9690   32.3400   44.8850 N   0  0  0  0  0  0  0  0  0  0  0  0
   39.2810   32.4710   45.1540 C   0  0  0  0  0  0  0  0  0  0  0  0
   39.9190   32.9150   44.0530 N   0  0  0  0  0  0  0  0  0  0  0  0
   39.0090   33.0780   43.0490 C   0  0  0  0  0  0  0  0  0  0  0  0
   39.1580   33.5090   41.7340 C   0  0  0  0  0  0  0  0  0  0  0  0
   40.1250   33.7870   41.3450 H   0  0  0  0  0  0  0  0  0  0  0  0
   38.0280   33.5620   40.9690 N   0  0  0  0  0  0  0  0  0  0  0  0
   36.8480   33.2030   41.5080 C   0  0  0  0  0  0  0  0  0  0  0  0
   35.9950   33.2730   40.8370 H   0  0  0  0  0  0  0  0  0  0  0  0
   36.6830   32.7790   42.7950 N   0  0  0  0  0  0  0  0  0  0  0  0
   37.7760   32.7080   43.5980 C   0  0  0  0  0  0  0  0  0  0  0  0
  1  2  1  0  0  0  0
  2 11  1  0  0  0  0
  2  3  2  0  0  0  0
  3  7  1  0  0  0  0
  4  3  1  0  0  0  0
  4  8  1  0  0  0  0
  5  4  2  0  0  0  0
  6  1  2  0  0  0  0
  6  5  1  0  0  0  0
  9  5  1  0  0  0  0
 10 15  2  0  0  0  0
 10 11  1  0  0  0  0
 11 12  2  0  0  0  0
 12 13  1  0  0  0  0
 12 18  1  0  0  0  0
 14 17  1  0  0  0  0
 14 13  2  0  0  0  0
 15 14  1  0  0  0  0
 16 10  1  0  0  0  0
 18 20  1  0  0  0  0
 18 21  1  0  0  0  0
 19 18  1  0  0  0  0
 22 23  1  0  0  0  0
 22  1  1  0  0  0  0
 24  6  1  0  0  0  0
 26 27  1  0  0  0  0
 26 25  1  0  0  0  0
 27 24  1  0  0  0  0
 28 27  2  0  0  0  0
 29 36  1  0  0  0  0
 29 28  1  0  0  0  0
 30 29  2  0  0  0  0
 31 30  1  0  0  0  0
 32 33  2  0  0  0  0
 32 30  1  0  0  0  0
 33 35  1  0  0  0  0
 34 33  1  0  0  0  0
 35 36  2  0  0  0  0
 36 26  1  0  0  0  0
M  END
>  <minimizedAffinity>
-6.90335226

>  <minimizedRMSD>
0.383841485

$$$$
