
 OpenBabel03272509183D

 36 39  0  0  0  0  0  0  0  0999 V2000
   38.1720   31.3550   47.8050 C   0  0  0  0  0  0  0  0  0  0  0  0
   37.0720   31.3290   48.6570 C   0  0  0  0  0  0  0  0  0  0  0  0
   36.9870   32.4180   49.5390 C   0  0  0  0  0  0  0  0  0  0  0  0
   37.9600   33.4360   49.5300 C   0  0  0  0  0  0  0  0  0  0  0  0
   39.0320   33.3620   48.6250 C   0  0  0  0  0  0  0  0  0  0  0  0
   39.1180   32.2980   47.7610 C   0  0  0  0  0  0  0  0  0  0  0  0
   36.1570   32.4280   50.2040 H   0  0  0  0  0  0  0  0  0  0  0  0
   37.8310   34.2370   50.2300 H   0  0  0  0  0  0  0  0  0  0  0  0
   39.7070   34.1850   48.7050 H   0  0  0  0  0  0  0  0  0  0  0  0
   35.0380   30.3090   47.7410 C   0  0  0  0  0  0  0  0  0  0  0  0
   36.0840   30.2880   48.6600 C   0  0  0  0  0  0  0  0  0  0  0  0
   36.1330   29.2220   49.5750 C   0  0  0  0  0  0  0  0  0  0  0  0
   35.1490   28.2820   49.5000 N   0  0  0  0  0  0  0  0  0  0  0  0
   34.1470   28.3450   48.5860 C   0  0  0  0  0  0  0  0  0  0  0  0
   34.0920   29.3610   47.7060 N   0  0  0  0  0  0  0  0  0  0  0  0
   34.9330   31.1060   46.9990 H   0  0  0  0  0  0  0  0  0  0  0  0
   33.4830   27.4930   48.7120 H   0  0  0  0  0  0  0  0  0  0  0  0
   37.2160   29.1450   50.5700 C   0  0  0  0  0  0  0  0  0  0  0  0
   38.1130   28.6090   50.1870 H   0  0  0  0  0  0  0  0  0  0  0  0
   37.5810   30.1810   50.8170 H   0  0  0  0  0  0  0  0  0  0  0  0
   36.8260   28.7340   51.5270 H   0  0  0  0  0  0  0  0  0  0  0  0
   38.3260   30.2990   46.8940 O   0  0  0  0  0  0  0  0  0  0  0  0
   38.6160   29.3780   47.1870 H   0  0  0  0  0  0  0  0  0  0  0  0
   40.1960   32.2720   46.8880 O   0  0  0  0  0  0  0  0  0  0  0  0
   41.1170   30.4930   44.9570 H   0  0  0  0  0  0  0  0  0  0  0  0
   40.4820   31.3010   44.7420 N   0  0  0  0  0  0  0  0  0  0  0  0
   39.9400   32.2530   45.5240 C   0  0  0  0  0  0  0  0  0  0  0  0
   39.1870   33.0730   44.7660 N   0  0  0  0  0  0  0  0  0  0  0  0
   39.2380   32.6520   43.4690 C   0  0  0  0  0  0  0  0  0  0  0  0
   38.6410   33.1530   42.3150 C   0  0  0  0  0  0  0  0  0  0  0  0
   38.0080   34.0270   42.3500 H   0  0  0  0  0  0  0  0  0  0  0  0
   38.8960   32.4890   41.1500 N   0  0  0  0  0  0  0  0  0  0  0  0
   39.6940   31.4060   41.1680 C   0  0  0  0  0  0  0  0  0  0  0  0
   39.8490   30.9320   40.2010 H   0  0  0  0  0  0  0  0  0  0  0  0
   40.2870   30.9010   42.2880 N   0  0  0  0  0  0  0  0  0  0  0  0
   40.0650   31.5250   43.4750 C   0  0  0  0  0  0  0  0  0  0  0  0
  1  2  1  0  0  0  0
  2 11  1  0  0  0  0
  2  3  2  0  0  0  0
  3  7  1  0  0  0  0
  4  3  1  0  0  0  0
  4  8  1  0  0  0  0
  5  9  1  0  0  0  0
  5  4  2  0  0  0  0
  6  1  2  0  0  0  0
  6  5  1  0  0  0  0
 10 11  1  0  0  0  0
 11 12  2  0  0  0  0
 12 18  1  0  0  0  0
 13 12  1  0  0  0  0
 14 17  1  0  0  0  0
 14 13  2  0  0  0  0
 15 10  2  0  0  0  0
 15 14  1  0  0  0  0
 16 10  1  0  0  0  0
 18 20  1  0  0  0  0
 18 21  1  0  0  0  0
 19 18  1  0  0  0  0
 22 23  1  0  0  0  0
 22  1  1  0  0  0  0
 24  6  1  0  0  0  0
 26 25  1  0  0  0  0
 26 27  1  0  0  0  0
 27 24  1  0  0  0  0
 28 27  2  0  0  0  0
 29 36  1  0  0  0  0
 29 28  1  0  0  0  0
 30 31  1  0  0  0  0
 30 29  2  0  0  0  0
 32 33  2  0  0  0  0
 32 30  1  0  0  0  0
 33 35  1  0  0  0  0
 34 33  1  0  0  0  0
 35 36  2  0  0  0  0
 36 26  1  0  0  0  0
M  END
>  <minimizedAffinity>
-6.75934887

>  <minimizedRMSD>
1.07331717

$$$$
