
 OpenBabel03272504243D

 42 45  0  0  1  0  0  0  0  0999 V2000
   35.8250   28.2940   32.1720 C   0  0  2  0  0  0  0  0  0  0  0  0
   36.5650   27.0920   32.7010 C   0  0  1  0  0  0  0  0  0  0  0  0
   36.7020   26.3090   31.3790 C   0  0  0  0  0  0  0  0  0  0  0  0
   37.1980   27.2820   30.5410 O   0  0  0  0  0  0  0  0  0  0  0  0
   36.5390   28.4630   30.8250 C   0  0  0  0  0  0  0  0  0  0  0  0
   34.7680   27.9880   32.0320 H   0  0  0  0  0  0  0  0  0  0  0  0
   36.0200   26.5370   33.4610 H   0  0  0  0  0  0  0  0  0  0  0  0
   35.7100   25.9630   31.0480 H   0  0  0  0  0  0  0  0  0  0  0  0
   37.4320   25.4850   31.4990 H   0  0  0  0  0  0  0  0  0  0  0  0
   35.7690   28.6230   30.0270 H   0  0  0  0  0  0  0  0  0  0  0  0
   37.2460   29.3310   30.8810 H   0  0  0  0  0  0  0  0  0  0  0  0
   37.8300   27.5250   33.0820 O   0  0  0  0  0  0  0  0  0  0  0  0
   39.6890   27.0420   34.8410 O   0  0  0  0  0  0  0  0  0  0  0  0
   38.1930   27.1420   34.6720 P   0  0  1  0  0  0  0  0  0  0  0  0
   37.6390   28.3930   35.7160 O   0  0  0  0  0  0  0  0  0  0  0  0
   36.8270   28.8120   35.3460 H   0  0  0  0  0  0  0  0  0  0  0  0
   37.4480   25.6820   35.1110 O   0  0  0  0  0  0  0  0  0  0  0  0
   38.3650   24.6720   34.8850 C   0  0  0  0  0  0  0  0  0  0  0  0
   38.0070   23.9040   34.1720 H   0  0  0  0  0  0  0  0  0  0  0  0
   39.2780   25.1270   34.4070 H   0  0  0  0  0  0  0  0  0  0  0  0
   38.8370   24.0140   36.1230 C   0  0  0  0  0  0  0  0  0  0  0  0
   38.0550   24.1800   37.2420 C   0  0  0  0  0  0  0  0  0  0  0  0
   38.4400   23.5850   38.4470 C   0  0  0  0  0  0  0  0  0  0  0  0
   39.5950   22.8600   38.4360 N   0  0  0  0  0  0  0  0  0  0  0  0
   40.3470   22.7120   37.3230 C   0  0  0  0  0  0  0  0  0  0  0  0
   39.9670   23.2900   36.1650 N   0  0  0  0  0  0  0  0  0  0  0  0
   37.1360   24.7250   37.3550 H   0  0  0  0  0  0  0  0  0  0  0  0
   37.8940   23.6540   39.3840 H   0  0  0  0  0  0  0  0  0  0  0  0
   41.2510   22.1470   37.3090 H   0  0  0  0  0  0  0  0  0  0  0  0
   36.0510   29.3520   33.0200 O   0  0  0  0  0  0  0  0  0  0  0  0
   33.3060   29.0400   33.6980 H   0  0  0  0  0  0  0  0  0  0  0  0
   33.8460   29.6910   34.2910 N   0  0  0  0  0  0  0  0  0  0  0  0
   35.1360   29.8260   33.9580 C   0  0  0  0  0  0  0  0  0  0  0  0
   35.7050   30.7050   34.8180 N   0  0  0  0  0  0  0  0  0  0  0  0
   34.7930   31.1390   35.7050 C   0  0  0  0  0  0  0  0  0  0  0  0
   34.7150   31.9930   36.7880 C   0  0  0  0  0  0  0  0  0  0  0  0
   35.6440   32.4940   37.0440 H   0  0  0  0  0  0  0  0  0  0  0  0
   33.5360   32.1550   37.4430 N   0  0  0  0  0  0  0  0  0  0  0  0
   32.4260   31.4900   37.0540 C   0  0  0  0  0  0  0  0  0  0  0  0
   31.5370   31.6700   37.6210 H   0  0  0  0  0  0  0  0  0  0  0  0
   32.4480   30.6330   35.9920 N   0  0  0  0  0  0  0  0  0  0  0  0
   33.6300   30.4840   35.3510 C   0  0  0  0  0  0  0  0  0  0  0  0
  1  6  1  6  0  0  0
  1  2  1  0  0  0  0
  1 30  1  0  0  0  0
  2 12  1  0  0  0  0
  2  7  1  1  0  0  0
  3  9  1  0  0  0  0
  3  2  1  0  0  0  0
  4  5  1  0  0  0  0
  4  3  1  0  0  0  0
  5 11  1  0  0  0  0
  5  1  1  0  0  0  0
  8  3  1  0  0  0  0
 10  5  1  0  0  0  0
 12 14  1  0  0  0  0
 14 13  2  1  0  0  0
 14 17  1  0  0  0  0
 14 15  1  0  0  0  0
 16 15  1  0  0  0  0
 18 17  1  0  0  0  0
 18 21  1  0  0  0  0
 19 18  1  0  0  0  0
 20 18  1  0  0  0  0
 21 26  2  0  0  0  0
 21 22  1  0  0  0  0
 22 27  1  0  0  0  0
 22 23  2  0  0  0  0
 23 28  1  0  0  0  0
 24 23  1  0  0  0  0
 25 24  2  0  0  0  0
 26 25  1  0  0  0  0
 29 25  1  0  0  0  0
 30 33  1  0  0  0  0
 31 32  1  0  0  0  0
 32 42  1  0  0  0  0
 33 32  1  0  0  0  0
 33 34  2  0  0  0  0
 34 35  1  0  0  0  0
 35 36  1  0  0  0  0
 36 37  1  0  0  0  0
 36 38  2  0  0  0  0
 39 38  1  0  0  0  0
 39 40  1  0  0  0  0
 41 39  2  0  0  0  0
 42 35  2  0  0  0  0
 42 41  1  0  0  0  0
M  END
>  <minimizedAffinity>
-5.53901768

$$$$

 OpenBabel03272504243D

 42 45  0  0  1  0  0  0  0  0999 V2000
   36.0340   28.0760   31.6620 C   0  0  2  0  0  0  0  0  0  0  0  0
   36.7920   27.0880   32.5120 C   0  0  1  0  0  0  0  0  0  0  0  0
   37.5080   26.3190   31.3840 C   0  0  0  0  0  0  0  0  0  0  0  0
   38.0380   27.3540   30.6470 O   0  0  0  0  0  0  0  0  0  0  0  0
   37.0950   28.3620   30.5930 C   0  0  0  0  0  0  0  0  0  0  0  0
   35.1660   27.5340   31.2340 H   0  0  0  0  0  0  0  0  0  0  0  0
   36.1570   26.4470   33.1180 H   0  0  0  0  0  0  0  0  0  0  0  0
   36.7700   25.7470   30.7980 H   0  0  0  0  0  0  0  0  0  0  0  0
   38.3120   25.6860   31.8050 H   0  0  0  0  0  0  0  0  0  0  0  0
   36.6100   28.3210   29.5840 H   0  0  0  0  0  0  0  0  0  0  0  0
   37.5520   29.3690   30.7770 H   0  0  0  0  0  0  0  0  0  0  0  0
   37.7480   27.8070   33.2210 O   0  0  0  0  0  0  0  0  0  0  0  0
   39.8670   26.5260   34.0270 O   0  0  0  0  0  0  0  0  0  0  0  0
   38.4660   26.9070   34.4370 P   0  0  1  0  0  0  0  0  0  0  0  0
   38.5880   27.8530   35.8700 O   0  0  0  0  0  0  0  0  0  0  0  0
   37.8350   28.4870   35.9260 H   0  0  0  0  0  0  0  0  0  0  0  0
   37.5460   25.5200   34.7650 O   0  0  0  0  0  0  0  0  0  0  0  0
   38.4220   24.4510   34.8080 C   0  0  0  0  0  0  0  0  0  0  0  0
   38.1050   23.5970   34.1780 H   0  0  0  0  0  0  0  0  0  0  0  0
   39.4100   24.7890   34.3870 H   0  0  0  0  0  0  0  0  0  0  0  0
   38.7030   23.9730   36.1800 C   0  0  0  0  0  0  0  0  0  0  0  0
   37.8390   24.3910   37.1640 C   0  0  0  0  0  0  0  0  0  0  0  0
   38.0450   23.9770   38.4840 C   0  0  0  0  0  0  0  0  0  0  0  0
   39.1160   23.1650   38.7160 N   0  0  0  0  0  0  0  0  0  0  0  0
   39.9510   22.7680   37.7310 C   0  0  0  0  0  0  0  0  0  0  0  0
   39.7440   23.1730   36.4610 N   0  0  0  0  0  0  0  0  0  0  0  0
   36.9740   25.0240   37.0870 H   0  0  0  0  0  0  0  0  0  0  0  0
   37.4220   24.2490   39.3320 H   0  0  0  0  0  0  0  0  0  0  0  0
   40.7890   22.1340   37.9070 H   0  0  0  0  0  0  0  0  0  0  0  0
   35.7510   29.1820   32.4280 O   0  0  0  0  0  0  0  0  0  0  0  0
   35.1610   29.4020   35.2020 H   0  0  0  0  0  0  0  0  0  0  0  0
   34.3470   29.4100   34.5660 N   0  0  0  0  0  0  0  0  0  0  0  0
   34.6430   29.3050   33.2640 C   0  0  0  0  0  0  0  0  0  0  0  0
   33.4830   29.3290   32.5640 N   0  0  0  0  0  0  0  0  0  0  0  0
   32.4390   29.4490   33.4030 C   0  0  0  0  0  0  0  0  0  0  0  0
   31.0610   29.5300   33.3490 C   0  0  0  0  0  0  0  0  0  0  0  0
   30.6390   29.4890   32.3490 H   0  0  0  0  0  0  0  0  0  0  0  0
   30.3420   29.6500   34.4950 N   0  0  0  0  0  0  0  0  0  0  0  0
   30.9530   29.6930   35.6990 C   0  0  0  0  0  0  0  0  0  0  0  0
   30.3170   29.7890   36.5540 H   0  0  0  0  0  0  0  0  0  0  0  0
   32.3110   29.6180   35.8090 N   0  0  0  0  0  0  0  0  0  0  0  0
   33.0120   29.4980   34.6590 C   0  0  0  0  0  0  0  0  0  0  0  0
  1  6  1  6  0  0  0
  1 30  1  0  0  0  0
  1  2  1  0  0  0  0
  2  7  1  1  0  0  0
  2 12  1  0  0  0  0
  3  9  1  0  0  0  0
  3  2  1  0  0  0  0
  4  3  1  0  0  0  0
  5  4  1  0  0  0  0
  5 11  1  0  0  0  0
  5  1  1  0  0  0  0
  8  3  1  0  0  0  0
 10  5  1  0  0  0  0
 12 14  1  0  0  0  0
 14 13  2  6  0  0  0
 14 17  1  0  0  0  0
 14 15  1  0  0  0  0
 15 16  1  0  0  0  0
 17 18  1  0  0  0  0
 18 21  1  0  0  0  0
 19 18  1  0  0  0  0
 20 18  1  0  0  0  0
 21 26  2  0  0  0  0
 21 22  1  0  0  0  0
 22 23  2  0  0  0  0
 23 24  1  0  0  0  0
 23 28  1  0  0  0  0
 25 29  1  0  0  0  0
 25 24  2  0  0  0  0
 26 25  1  0  0  0  0
 27 22  1  0  0  0  0
 30 33  1  0  0  0  0
 32 42  1  0  0  0  0
 32 31  1  0  0  0  0
 33 32  1  0  0  0  0
 34 33  2  0  0  0  0
 34 35  1  0  0  0  0
 35 42  1  0  0  0  0
 36 35  2  0  0  0  0
 36 38  1  0  0  0  0
 37 36  1  0  0  0  0
 38 39  2  0  0  0  0
 39 41  1  0  0  0  0
 39 40  1  0  0  0  0
 42 41  2  0  0  0  0
M  END
>  <minimizedAffinity>
-5.31515121

$$$$

 OpenBabel03272504243D

 42 45  0  0  1  0  0  0  0  0999 V2000
   36.8230   21.1920   32.9980 C   0  0  2  0  0  0  0  0  0  0  0  0
   36.6250   21.9380   31.7030 C   0  0  1  0  0  0  0  0  0  0  0  0
   35.7970   20.8760   30.9520 C   0  0  0  0  0  0  0  0  0  0  0  0
   34.8340   20.5750   31.8880 O   0  0  0  0  0  0  0  0  0  0  0  0
   35.4440   20.5320   33.1260 C   0  0  0  0  0  0  0  0  0  0  0  0
   37.6160   20.4380   32.8180 H   0  0  0  0  0  0  0  0  0  0  0  0
   37.5510   22.1870   31.1900 H   0  0  0  0  0  0  0  0  0  0  0  0
   36.4290   20.0010   30.7320 H   0  0  0  0  0  0  0  0  0  0  0  0
   35.3390   21.3200   30.0470 H   0  0  0  0  0  0  0  0  0  0  0  0
   35.5860   19.4540   33.3990 H   0  0  0  0  0  0  0  0  0  0  0  0
   34.8430   21.0670   33.9060 H   0  0  0  0  0  0  0  0  0  0  0  0
   35.7960   23.0210   31.9760 O   0  0  0  0  0  0  0  0  0  0  0  0
   37.5480   24.1940   30.4460 O   0  0  0  0  0  0  0  0  0  0  0  0
   36.4080   24.4680   31.3970 P   0  0  1  0  0  0  0  0  0  0  0  0
   35.1910   25.3050   30.5130 O   0  0  0  0  0  0  0  0  0  0  0  0
   34.3010   25.1110   30.8910 H   0  0  0  0  0  0  0  0  0  0  0  0
   36.9310   25.4440   32.6820 O   0  0  0  0  0  0  0  0  0  0  0  0
   37.4590   26.5960   32.1310 C   0  0  0  0  0  0  0  0  0  0  0  0
   38.5350   26.7360   32.3490 H   0  0  0  0  0  0  0  0  0  0  0  0
   37.3840   26.5160   31.0100 H   0  0  0  0  0  0  0  0  0  0  0  0
   36.7180   27.8220   32.5040 C   0  0  0  0  0  0  0  0  0  0  0  0
   36.5180   28.0330   33.8470 C   0  0  0  0  0  0  0  0  0  0  0  0
   35.8260   29.1720   34.2710 C   0  0  0  0  0  0  0  0  0  0  0  0
   35.3830   30.0220   33.3010 N   0  0  0  0  0  0  0  0  0  0  0  0
   35.5930   29.7920   31.9860 C   0  0  0  0  0  0  0  0  0  0  0  0
   36.2610   28.6910   31.5870 N   0  0  0  0  0  0  0  0  0  0  0  0
   36.8240   27.4320   34.6830 H   0  0  0  0  0  0  0  0  0  0  0  0
   35.6170   29.4310   35.3060 H   0  0  0  0  0  0  0  0  0  0  0  0
   35.2490   30.4530   31.2230 H   0  0  0  0  0  0  0  0  0  0  0  0
   37.0590   22.1080   33.9950 O   0  0  0  0  0  0  0  0  0  0  0  0
   37.6850   22.0630   36.7710 H   0  0  0  0  0  0  0  0  0  0  0  0
   38.4920   22.0840   36.1270 N   0  0  0  0  0  0  0  0  0  0  0  0
   38.1800   22.1060   34.8240 C   0  0  0  0  0  0  0  0  0  0  0  0
   39.3330   22.1330   34.1140 N   0  0  0  0  0  0  0  0  0  0  0  0
   40.3890   22.1300   34.9460 C   0  0  0  0  0  0  0  0  0  0  0  0
   41.7680   22.1470   34.8810 C   0  0  0  0  0  0  0  0  0  0  0  0
   42.1800   22.1710   33.8760 H   0  0  0  0  0  0  0  0  0  0  0  0
   42.5030   22.1350   36.0230 N   0  0  0  0  0  0  0  0  0  0  0  0
   41.9060   22.1040   37.2350 C   0  0  0  0  0  0  0  0  0  0  0  0
   42.5530   22.0960   38.0870 H   0  0  0  0  0  0  0  0  0  0  0  0
   40.5470   22.0860   37.3560 N   0  0  0  0  0  0  0  0  0  0  0  0
   39.8310   22.0990   36.2090 C   0  0  0  0  0  0  0  0  0  0  0  0
  1  6  1  6  0  0  0
  1  5  1  0  0  0  0
  1 30  1  0  0  0  0
  2  7  1  6  0  0  0
  2 12  1  0  0  0  0
  2  1  1  0  0  0  0
  3  2  1  0  0  0  0
  3  4  1  0  0  0  0
  4  5  1  0  0  0  0
  5 10  1  0  0  0  0
  5 11  1  0  0  0  0
  8  3  1  0  0  0  0
  9  3  1  0  0  0  0
 14 13  2  6  0  0  0
 14 12  1  0  0  0  0
 14 17  1  0  0  0  0
 15 16  1  0  0  0  0
 15 14  1  0  0  0  0
 18 19  1  0  0  0  0
 18 21  1  0  0  0  0
 18 17  1  0  0  0  0
 20 18  1  0  0  0  0
 21 22  1  0  0  0  0
 22 23  2  0  0  0  0
 22 27  1  0  0  0  0
 23 28  1  0  0  0  0
 24 23  1  0  0  0  0
 25 24  2  0  0  0  0
 26 25  1  0  0  0  0
 26 21  2  0  0  0  0
 29 25  1  0  0  0  0
 30 33  1  0  0  0  0
 32 42  1  0  0  0  0
 32 31  1  0  0  0  0
 33 32  1  0  0  0  0
 34 33  2  0  0  0  0
 34 35  1  0  0  0  0
 35 42  1  0  0  0  0
 36 35  2  0  0  0  0
 36 38  1  0  0  0  0
 37 36  1  0  0  0  0
 38 39  2  0  0  0  0
 39 41  1  0  0  0  0
 39 40  1  0  0  0  0
 42 41  2  0  0  0  0
M  END
>  <minimizedAffinity>
-5.3129015

$$$$

 OpenBabel03272504243D

 42 45  0  0  1  0  0  0  0  0999 V2000
   35.6380   28.5200   32.4680 C   0  0  2  0  0  0  0  0  0  0  0  0
   36.4560   27.2540   32.4710 C   0  0  1  0  0  0  0  0  0  0  0  0
   36.2150   26.8230   31.0100 C   0  0  0  0  0  0  0  0  0  0  0  0
   36.4970   27.9900   30.3360 O   0  0  0  0  0  0  0  0  0  0  0  0
   35.9730   29.0400   31.0640 C   0  0  0  0  0  0  0  0  0  0  0  0
   34.5740   28.2170   32.5430 H   0  0  0  0  0  0  0  0  0  0  0  0
   36.1180   26.5110   33.1880 H   0  0  0  0  0  0  0  0  0  0  0  0
   35.1600   26.5310   30.8790 H   0  0  0  0  0  0  0  0  0  0  0  0
   36.9260   26.0240   30.7260 H   0  0  0  0  0  0  0  0  0  0  0  0
   35.0230   29.3610   30.5640 H   0  0  0  0  0  0  0  0  0  0  0  0
   36.6940   29.8940   31.1420 H   0  0  0  0  0  0  0  0  0  0  0  0
   37.7890   27.6290   32.5980 O   0  0  0  0  0  0  0  0  0  0  0  0
   39.3910   25.6030   32.2670 O   0  0  0  0  0  0  0  0  0  0  0  0
   38.7280   26.4480   33.3250 P   0  0  1  0  0  0  0  0  0  0  0  0
   39.9760   27.1840   34.2540 O   0  0  0  0  0  0  0  0  0  0  0  0
   39.6670   28.0470   34.6180 H   0  0  0  0  0  0  0  0  0  0  0  0
   37.7740   25.4830   34.3440 O   0  0  0  0  0  0  0  0  0  0  0  0
   38.4850   24.3220   34.5860 C   0  0  0  0  0  0  0  0  0  0  0  0
   38.0930   23.4430   34.0370 H   0  0  0  0  0  0  0  0  0  0  0  0
   39.5370   24.4690   34.2130 H   0  0  0  0  0  0  0  0  0  0  0  0
   38.6030   23.9910   36.0240 C   0  0  0  0  0  0  0  0  0  0  0  0
   39.6420   23.1660   36.3810 C   0  0  0  0  0  0  0  0  0  0  0  0
   39.8140   22.8130   37.7230 C   0  0  0  0  0  0  0  0  0  0  0  0
   38.9160   23.3220   38.6140 N   0  0  0  0  0  0  0  0  0  0  0  0
   37.9020   24.1320   38.2380 C   0  0  0  0  0  0  0  0  0  0  0  0
   37.7450   24.4670   36.9420 N   0  0  0  0  0  0  0  0  0  0  0  0
   40.3970   22.7160   35.7620 H   0  0  0  0  0  0  0  0  0  0  0  0
   40.6010   22.1700   38.1080 H   0  0  0  0  0  0  0  0  0  0  0  0
   37.1980   24.5330   38.9320 H   0  0  0  0  0  0  0  0  0  0  0  0
   36.1120   29.3470   33.4580 O   0  0  0  0  0  0  0  0  0  0  0  0
   36.3060   31.5100   35.2970 H   0  0  0  0  0  0  0  0  0  0  0  0
   35.3850   31.0450   35.2430 N   0  0  0  0  0  0  0  0  0  0  0  0
   35.3120   30.0280   34.3740 C   0  0  0  0  0  0  0  0  0  0  0  0
   34.0550   29.5240   34.4190 N   0  0  0  0  0  0  0  0  0  0  0  0
   33.3150   30.2060   35.3100 C   0  0  0  0  0  0  0  0  0  0  0  0
   32.0290   30.2080   35.8140 C   0  0  0  0  0  0  0  0  0  0  0  0
   31.3730   29.4490   35.3980 H   0  0  0  0  0  0  0  0  0  0  0  0
   31.6700   31.1170   36.7580 N   0  0  0  0  0  0  0  0  0  0  0  0
   32.5540   32.0290   37.2180 C   0  0  0  0  0  0  0  0  0  0  0  0
   32.1950   32.7100   37.9610 H   0  0  0  0  0  0  0  0  0  0  0  0
   33.8360   32.0710   36.7550 N   0  0  0  0  0  0  0  0  0  0  0  0
   34.1770   31.1590   35.8160 C   0  0  0  0  0  0  0  0  0  0  0  0
  1  2  1  0  0  0  0
  1  6  1  1  0  0  0
  1 30  1  0  0  0  0
  2 12  1  0  0  0  0
  2  7  1  1  0  0  0
  3  2  1  0  0  0  0
  4  3  1  0  0  0  0
  4  5  1  0  0  0  0
  5 11  1  0  0  0  0
  5  1  1  0  0  0  0
  8  3  1  0  0  0  0
  9  3  1  0  0  0  0
 10  5  1  0  0  0  0
 12 14  1  0  0  0  0
 14 13  2  6  0  0  0
 14 15  1  0  0  0  0
 14 17  1  0  0  0  0
 15 16  1  0  0  0  0
 17 18  1  0  0  0  0
 18 21  1  0  0  0  0
 19 18  1  0  0  0  0
 20 18  1  0  0  0  0
 21 22  2  0  0  0  0
 21 26  1  0  0  0  0
 22 23  1  0  0  0  0
 23 28  1  0  0  0  0
 23 24  2  0  0  0  0
 25 24  1  0  0  0  0
 25 29  1  0  0  0  0
 26 25  2  0  0  0  0
 27 22  1  0  0  0  0
 30 33  1  0  0  0  0
 32 31  1  0  0  0  0
 32 42  1  0  0  0  0
 33 34  2  0  0  0  0
 33 32  1  0  0  0  0
 34 35  1  0  0  0  0
 35 36  2  0  0  0  0
 35 42  1  0  0  0  0
 36 38  1  0  0  0  0
 37 36  1  0  0  0  0
 38 39  2  0  0  0  0
 39 40  1  0  0  0  0
 41 39  1  0  0  0  0
 42 41  2  0  0  0  0
M  END
>  <minimizedAffinity>
-5.27951336

$$$$

 OpenBabel03272504243D

 42 45  0  0  1  0  0  0  0  0999 V2000
   38.0410   22.9190   36.0210 C   0  0  2  0  0  0  0  0  0  0  0  0
   37.8310   24.3310   36.5070 C   0  0  1  0  0  0  0  0  0  0  0  0
   38.0940   24.0980   38.0080 C   0  0  0  0  0  0  0  0  0  0  0  0
   39.2830   23.4050   37.9670 O   0  0  0  0  0  0  0  0  0  0  0  0
   39.2200   22.5130   36.9140 C   0  0  0  0  0  0  0  0  0  0  0  0
   37.1250   22.3500   36.2790 H   0  0  0  0  0  0  0  0  0  0  0  0
   36.8350   24.7220   36.3120 H   0  0  0  0  0  0  0  0  0  0  0  0
   37.2870   23.4820   38.4350 H   0  0  0  0  0  0  0  0  0  0  0  0
   38.2230   25.0670   38.5270 H   0  0  0  0  0  0  0  0  0  0  0  0
   39.0150   21.4970   37.3400 H   0  0  0  0  0  0  0  0  0  0  0  0
   40.1650   22.5130   36.3120 H   0  0  0  0  0  0  0  0  0  0  0  0
   38.8730   25.0980   35.9980 O   0  0  0  0  0  0  0  0  0  0  0  0
   36.8430   26.5190   35.1960 O   0  0  0  0  0  0  0  0  0  0  0  0
   38.3470   26.5340   35.3160 P   0  0  1  0  0  0  0  0  0  0  0  0
   38.7690   27.8550   36.3360 O   0  0  0  0  0  0  0  0  0  0  0  0
   39.6110   27.6620   36.8120 H   0  0  0  0  0  0  0  0  0  0  0  0
   39.0600   26.7590   33.7930 O   0  0  0  0  0  0  0  0  0  0  0  0
   38.0330   26.9370   32.8840 C   0  0  0  0  0  0  0  0  0  0  0  0
   37.0770   27.2380   33.3540 H   0  0  0  0  0  0  0  0  0  0  0  0
   38.3150   27.7830   32.1970 H   0  0  0  0  0  0  0  0  0  0  0  0
   37.8050   25.7620   32.0140 C   0  0  0  0  0  0  0  0  0  0  0  0
   38.8840   25.3170   31.2870 C   0  0  0  0  0  0  0  0  0  0  0  0
   38.7400   24.2110   30.4450 C   0  0  0  0  0  0  0  0  0  0  0  0
   37.5080   23.6290   30.3960 N   0  0  0  0  0  0  0  0  0  0  0  0
   36.4620   24.0850   31.1200 C   0  0  0  0  0  0  0  0  0  0  0  0
   36.6110   25.1530   31.9300 N   0  0  0  0  0  0  0  0  0  0  0  0
   39.8870   25.7010   31.2550 H   0  0  0  0  0  0  0  0  0  0  0  0
   39.5280   23.7810   29.8310 H   0  0  0  0  0  0  0  0  0  0  0  0
   35.4960   23.6330   31.0850 H   0  0  0  0  0  0  0  0  0  0  0  0
   38.3830   22.9630   34.6910 O   0  0  0  0  0  0  0  0  0  0  0  0
   39.4110   21.7000   32.3580 H   0  0  0  0  0  0  0  0  0  0  0  0
   38.4580   21.4190   32.6400 N   0  0  0  0  0  0  0  0  0  0  0  0
   37.9900   22.0240   33.7400 C   0  0  0  0  0  0  0  0  0  0  0  0
   36.7400   21.5560   33.9790 N   0  0  0  0  0  0  0  0  0  0  0  0
   36.3970   20.6550   33.0430 C   0  0  0  0  0  0  0  0  0  0  0  0
   35.3270   19.8440   32.7170 C   0  0  0  0  0  0  0  0  0  0  0  0
   34.4760   19.9180   33.3880 H   0  0  0  0  0  0  0  0  0  0  0  0
   35.3920   19.0370   31.6260 N   0  0  0  0  0  0  0  0  0  0  0  0
   36.4940   19.0090   30.8460 C   0  0  0  0  0  0  0  0  0  0  0  0
   36.4690   18.3470   30.0050 H   0  0  0  0  0  0  0  0  0  0  0  0
   37.5800   19.7890   31.1220 N   0  0  0  0  0  0  0  0  0  0  0  0
   37.4980   20.5870   32.2110 C   0  0  0  0  0  0  0  0  0  0  0  0
  1  6  1  1  0  0  0
  1  2  1  0  0  0  0
  1  5  1  0  0  0  0
  2  7  1  6  0  0  0
  2  3  1  0  0  0  0
  3  8  1  0  0  0  0
  3  9  1  0  0  0  0
  4  3  1  0  0  0  0
  5 10  1  0  0  0  0
  5  4  1  0  0  0  0
 11  5  1  0  0  0  0
 12  2  1  0  0  0  0
 14 13  2  6  0  0  0
 14 12  1  0  0  0  0
 14 15  1  0  0  0  0
 15 16  1  0  0  0  0
 17 14  1  0  0  0  0
 18 19  1  0  0  0  0
 18 17  1  0  0  0  0
 20 18  1  0  0  0  0
 21 18  1  0  0  0  0
 22 21  2  0  0  0  0
 23 22  1  0  0  0  0
 24 23  2  0  0  0  0
 24 25  1  0  0  0  0
 25 26  2  0  0  0  0
 26 21  1  0  0  0  0
 27 22  1  0  0  0  0
 28 23  1  0  0  0  0
 29 25  1  0  0  0  0
 30  1  1  0  0  0  0
 31 32  1  0  0  0  0
 32 33  1  0  0  0  0
 33 34  2  0  0  0  0
 33 30  1  0  0  0  0
 35 34  1  0  0  0  0
 36 35  1  0  0  0  0
 36 37  1  0  0  0  0
 38 36  2  0  0  0  0
 39 41  2  0  0  0  0
 39 38  1  0  0  0  0
 40 39  1  0  0  0  0
 41 42  1  0  0  0  0
 42 32  1  0  0  0  0
 42 35  2  0  0  0  0
M  END
>  <minimizedAffinity>
-5.24510336

$$$$

 OpenBabel03272504243D

 42 45  0  0  1  0  0  0  0  0999 V2000
   37.5750   25.2100   32.0880 C   0  0  2  0  0  0  0  0  0  0  0  0
   38.2190   26.1860   33.0400 C   0  0  1  0  0  0  0  0  0  0  0  0
   37.7980   27.4950   32.3430 C   0  0  0  0  0  0  0  0  0  0  0  0
   36.4500   27.2820   32.1630 O   0  0  0  0  0  0  0  0  0  0  0  0
   36.2750   25.9650   31.7870 C   0  0  0  0  0  0  0  0  0  0  0  0
   38.2270   25.1550   31.1920 H   0  0  0  0  0  0  0  0  0  0  0  0
   39.2980   26.0810   33.1180 H   0  0  0  0  0  0  0  0  0  0  0  0
   38.3220   27.5870   31.3780 H   0  0  0  0  0  0  0  0  0  0  0  0
   37.9720   28.3570   33.0150 H   0  0  0  0  0  0  0  0  0  0  0  0
   36.0970   25.9470   30.6800 H   0  0  0  0  0  0  0  0  0  0  0  0
   35.4250   25.4840   32.3370 H   0  0  0  0  0  0  0  0  0  0  0  0
   37.5310   26.0950   34.2450 O   0  0  0  0  0  0  0  0  0  0  0  0
   39.9080   26.6450   35.1570 O   0  0  0  0  0  0  0  0  0  0  0  0
   38.4550   26.5790   35.5560 P   0  0  1  0  0  0  0  0  0  0  0  0
   37.9840   28.1590   36.0520 O   0  0  0  0  0  0  0  0  0  0  0  0
   37.0230   28.2970   35.8810 H   0  0  0  0  0  0  0  0  0  0  0  0
   38.2450   25.5050   36.8530 O   0  0  0  0  0  0  0  0  0  0  0  0
   38.0000   24.2560   36.3120 C   0  0  0  0  0  0  0  0  0  0  0  0
   37.1180   23.7510   36.7520 H   0  0  0  0  0  0  0  0  0  0  0  0
   37.7600   24.3870   35.2190 H   0  0  0  0  0  0  0  0  0  0  0  0
   39.1670   23.3490   36.3690 C   0  0  0  0  0  0  0  0  0  0  0  0
   39.7030   22.9610   35.1640 C   0  0  0  0  0  0  0  0  0  0  0  0
   40.8080   22.1040   35.1430 C   0  0  0  0  0  0  0  0  0  0  0  0
   41.2960   21.6980   36.3500 N   0  0  0  0  0  0  0  0  0  0  0  0
   40.7510   22.0930   37.5220 C   0  0  0  0  0  0  0  0  0  0  0  0
   39.6860   22.9200   37.5310 N   0  0  0  0  0  0  0  0  0  0  0  0
   39.3960   23.2220   34.1680 H   0  0  0  0  0  0  0  0  0  0  0  0
   41.3040   21.7400   34.2480 H   0  0  0  0  0  0  0  0  0  0  0  0
   41.1290   21.7790   38.4680 H   0  0  0  0  0  0  0  0  0  0  0  0
   37.3520   24.0310   32.7580 O   0  0  0  0  0  0  0  0  0  0  0  0
   37.8750   22.7690   30.2630 H   0  0  0  0  0  0  0  0  0  0  0  0
   37.4150   22.1820   30.9770 N   0  0  0  0  0  0  0  0  0  0  0  0
   37.1760   22.7920   32.1460 C   0  0  0  0  0  0  0  0  0  0  0  0
   36.5740   21.9010   32.9710 N   0  0  0  0  0  0  0  0  0  0  0  0
   36.4220   20.7210   32.3470 C   0  0  0  0  0  0  0  0  0  0  0  0
   35.9140   19.4620   32.6030 C   0  0  0  0  0  0  0  0  0  0  0  0
   35.4980   19.3310   33.5980 H   0  0  0  0  0  0  0  0  0  0  0  0
   35.9590   18.5020   31.6440 N   0  0  0  0  0  0  0  0  0  0  0  0
   36.4980   18.7540   30.4300 C   0  0  0  0  0  0  0  0  0  0  0  0
   36.4970   17.9470   29.7290 H   0  0  0  0  0  0  0  0  0  0  0  0
   37.0140   19.9800   30.1240 N   0  0  0  0  0  0  0  0  0  0  0  0
   36.9610   20.9250   31.0910 C   0  0  0  0  0  0  0  0  0  0  0  0
  1  6  1  6  0  0  0
  1 30  1  0  0  0  0
  1  2  1  0  0  0  0
  2  7  1  1  0  0  0
  2 12  1  0  0  0  0
  3  9  1  0  0  0  0
  3  2  1  0  0  0  0
  4  3  1  0  0  0  0
  5  1  1  0  0  0  0
  5  4  1  0  0  0  0
  5 11  1  0  0  0  0
  8  3  1  0  0  0  0
 10  5  1  0  0  0  0
 12 14  1  0  0  0  0
 14 13  2  6  0  0  0
 14 15  1  0  0  0  0
 14 17  1  0  0  0  0
 16 15  1  0  0  0  0
 18 21  1  0  0  0  0
 18 19  1  0  0  0  0
 18 17  1  0  0  0  0
 20 18  1  0  0  0  0
 21 26  1  0  0  0  0
 22 21  2  0  0  0  0
 23 22  1  0  0  0  0
 23 24  2  0  0  0  0
 24 25  1  0  0  0  0
 25 26  2  0  0  0  0
 25 29  1  0  0  0  0
 27 22  1  0  0  0  0
 28 23  1  0  0  0  0
 31 32  1  0  0  0  0
 32 42  1  0  0  0  0
 32 33  1  0  0  0  0
 33 30  1  0  0  0  0
 33 34  2  0  0  0  0
 35 36  1  0  0  0  0
 35 34  1  0  0  0  0
 36 37  1  0  0  0  0
 38 36  2  0  0  0  0
 39 38  1  0  0  0  0
 40 39  1  0  0  0  0
 41 39  2  0  0  0  0
 41 42  1  0  0  0  0
 42 35  2  0  0  0  0
M  END
>  <minimizedAffinity>
-5.22862387

$$$$

 OpenBabel03272504243D

 42 45  0  0  1  0  0  0  0  0999 V2000
   40.2800   25.6260   32.1070 C   0  0  2  0  0  0  0  0  0  0  0  0
   39.1140   26.3790   31.5190 C   0  0  1  0  0  0  0  0  0  0  0  0
   39.8820   27.2110   30.4740 C   0  0  0  0  0  0  0  0  0  0  0  0
   40.6350   26.2380   29.8560 O   0  0  0  0  0  0  0  0  0  0  0  0
   41.0900   25.3710   30.8300 C   0  0  0  0  0  0  0  0  0  0  0  0
   40.8070   26.3260   32.7860 H   0  0  0  0  0  0  0  0  0  0  0  0
   38.5800   26.9970   32.2370 H   0  0  0  0  0  0  0  0  0  0  0  0
   40.5230   27.9480   30.9850 H   0  0  0  0  0  0  0  0  0  0  0  0
   39.1750   27.6730   29.7590 H   0  0  0  0  0  0  0  0  0  0  0  0
   42.1650   25.6180   31.0300 H   0  0  0  0  0  0  0  0  0  0  0  0
   40.9760   24.3000   30.5200 H   0  0  0  0  0  0  0  0  0  0  0  0
   38.3270   25.4520   30.8440 O   0  0  0  0  0  0  0  0  0  0  0  0
   36.5270   26.0780   32.6180 O   0  0  0  0  0  0  0  0  0  0  0  0
   36.6970   25.6070   31.1950 P   0  0  1  0  0  0  0  0  0  0  0  0
   35.9880   26.7950   30.1710 O   0  0  0  0  0  0  0  0  0  0  0  0
   36.4410   26.8030   29.2950 H   0  0  0  0  0  0  0  0  0  0  0  0
   35.9020   24.1260   30.9620 O   0  0  0  0  0  0  0  0  0  0  0  0
   36.2910   23.2880   31.9900 C   0  0  0  0  0  0  0  0  0  0  0  0
   37.3300   23.4640   32.3320 H   0  0  0  0  0  0  0  0  0  0  0  0
   35.6380   23.5000   32.8820 H   0  0  0  0  0  0  0  0  0  0  0  0
   36.1110   21.8520   31.6810 C   0  0  0  0  0  0  0  0  0  0  0  0
   35.0640   21.2170   32.3060 C   0  0  0  0  0  0  0  0  0  0  0  0
   34.8350   19.8590   32.0610 C   0  0  0  0  0  0  0  0  0  0  0  0
   35.6850   19.2370   31.1950 N   0  0  0  0  0  0  0  0  0  0  0  0
   36.7070   19.8840   30.5930 C   0  0  0  0  0  0  0  0  0  0  0  0
   36.9200   21.1930   30.8360 N   0  0  0  0  0  0  0  0  0  0  0  0
   34.3440   21.6120   32.9990 H   0  0  0  0  0  0  0  0  0  0  0  0
   34.0380   19.2670   32.5020 H   0  0  0  0  0  0  0  0  0  0  0  0
   37.3740   19.4020   29.9140 H   0  0  0  0  0  0  0  0  0  0  0  0
   39.8090   24.4630   32.6680 O   0  0  0  0  0  0  0  0  0  0  0  0
   37.6200   25.3640   34.2470 H   0  0  0  0  0  0  0  0  0  0  0  0
   38.3080   24.7640   34.7300 N   0  0  0  0  0  0  0  0  0  0  0  0
   39.3320   24.3490   33.9730 C   0  0  0  0  0  0  0  0  0  0  0  0
   40.1410   23.5790   34.7410 N   0  0  0  0  0  0  0  0  0  0  0  0
   39.6480   23.4920   35.9880 C   0  0  0  0  0  0  0  0  0  0  0  0
   39.9620   22.8990   37.1950 C   0  0  0  0  0  0  0  0  0  0  0  0
   40.8750   22.3110   37.1920 H   0  0  0  0  0  0  0  0  0  0  0  0
   39.1510   23.0740   38.2710 N   0  0  0  0  0  0  0  0  0  0  0  0
   38.0310   23.8240   38.1840 C   0  0  0  0  0  0  0  0  0  0  0  0
   37.4450   23.9130   39.0740 H   0  0  0  0  0  0  0  0  0  0  0  0
   37.6730   24.4320   37.0160 N   0  0  0  0  0  0  0  0  0  0  0  0
   38.4920   24.2480   35.9550 C   0  0  0  0  0  0  0  0  0  0  0  0
  1 30  1  0  0  0  0
  1  6  1  1  0  0  0
  2  1  1  0  0  0  0
  2  7  1  1  0  0  0
  3  8  1  0  0  0  0
  3  2  1  0  0  0  0
  4  3  1  0  0  0  0
  4  5  1  0  0  0  0
  5 10  1  0  0  0  0
  5  1  1  0  0  0  0
  9  3  1  0  0  0  0
 11  5  1  0  0  0  0
 12 14  1  0  0  0  0
 12  2  1  0  0  0  0
 14 13  2  1  0  0  0
 15 14  1  0  0  0  0
 16 15  1  0  0  0  0
 17 14  1  0  0  0  0
 17 18  1  0  0  0  0
 18 19  1  0  0  0  0
 18 20  1  0  0  0  0
 21 18  1  0  0  0  0
 21 22  1  0  0  0  0
 22 27  1  0  0  0  0
 23 22  2  0  0  0  0
 23 28  1  0  0  0  0
 24 23  1  0  0  0  0
 25 26  1  0  0  0  0
 25 24  2  0  0  0  0
 26 21  2  0  0  0  0
 29 25  1  0  0  0  0
 30 33  1  0  0  0  0
 31 32  1  0  0  0  0
 32 42  1  0  0  0  0
 33 32  1  0  0  0  0
 33 34  2  0  0  0  0
 34 35  1  0  0  0  0
 35 36  1  0  0  0  0
 36 38  2  0  0  0  0
 37 36  1  0  0  0  0
 39 38  1  0  0  0  0
 39 40  1  0  0  0  0
 41 39  2  0  0  0  0
 42 35  2  0  0  0  0
 42 41  1  0  0  0  0
M  END
>  <minimizedAffinity>
-5.17941284

$$$$

 OpenBabel03272504243D

 42 45  0  0  1  0  0  0  0  0999 V2000
   37.7850   21.1990   32.8350 C   0  0  2  0  0  0  0  0  0  0  0  0
   37.1860   21.7830   31.5800 C   0  0  1  0  0  0  0  0  0  0  0  0
   35.8600   20.9980   31.5740 C   0  0  0  0  0  0  0  0  0  0  0  0
   35.4260   21.1940   32.8660 O   0  0  0  0  0  0  0  0  0  0  0  0
   36.5220   21.1030   33.7000 C   0  0  0  0  0  0  0  0  0  0  0  0
   38.1710   20.1940   32.5710 H   0  0  0  0  0  0  0  0  0  0  0  0
   37.7800   21.6090   30.6860 H   0  0  0  0  0  0  0  0  0  0  0  0
   36.0600   19.9330   31.3760 H   0  0  0  0  0  0  0  0  0  0  0  0
   35.1540   21.4490   30.8510 H   0  0  0  0  0  0  0  0  0  0  0  0
   36.4970   20.0940   34.1880 H   0  0  0  0  0  0  0  0  0  0  0  0
   36.5300   21.9190   34.4680 H   0  0  0  0  0  0  0  0  0  0  0  0
   36.9000   23.1170   31.8460 O   0  0  0  0  0  0  0  0  0  0  0  0
   38.2940   23.4400   29.6700 O   0  0  0  0  0  0  0  0  0  0  0  0
   37.7750   24.1720   30.8820 P   0  0  1  0  0  0  0  0  0  0  0  0
   36.7500   25.4360   30.3210 O   0  0  0  0  0  0  0  0  0  0  0  0
   36.0560   25.6360   30.9920 H   0  0  0  0  0  0  0  0  0  0  0  0
   39.0590   24.8460   31.7620 O   0  0  0  0  0  0  0  0  0  0  0  0
   38.8260   26.2070   31.8440 C   0  0  0  0  0  0  0  0  0  0  0  0
   39.6140   26.8180   31.3630 H   0  0  0  0  0  0  0  0  0  0  0  0
   37.8780   26.4360   31.2800 H   0  0  0  0  0  0  0  0  0  0  0  0
   38.6070   26.6870   33.2270 C   0  0  0  0  0  0  0  0  0  0  0  0
   37.3460   27.1450   33.5240 C   0  0  0  0  0  0  0  0  0  0  0  0
   37.0670   27.6130   34.8120 C   0  0  0  0  0  0  0  0  0  0  0  0
   38.0910   27.5840   35.7130 N   0  0  0  0  0  0  0  0  0  0  0  0
   39.3230   27.1290   35.3960 C   0  0  0  0  0  0  0  0  0  0  0  0
   39.5810   26.6800   34.1510 N   0  0  0  0  0  0  0  0  0  0  0  0
   36.4780   27.2080   32.8930 H   0  0  0  0  0  0  0  0  0  0  0  0
   36.1070   27.9930   35.1490 H   0  0  0  0  0  0  0  0  0  0  0  0
   40.1260   27.1050   36.0970 H   0  0  0  0  0  0  0  0  0  0  0  0
   38.6970   22.0950   33.3390 O   0  0  0  0  0  0  0  0  0  0  0  0
   40.2320   21.3280   35.6090 H   0  0  0  0  0  0  0  0  0  0  0  0
   39.5370   22.0760   35.7660 N   0  0  0  0  0  0  0  0  0  0  0  0
   38.8230   22.4240   34.6880 C   0  0  0  0  0  0  0  0  0  0  0  0
   37.9620   23.4060   35.0500 N   0  0  0  0  0  0  0  0  0  0  0  0
   38.1130   23.6950   36.3540 C   0  0  0  0  0  0  0  0  0  0  0  0
   37.5810   24.5470   37.3030 C   0  0  0  0  0  0  0  0  0  0  0  0
   36.7980   25.2060   36.9390 H   0  0  0  0  0  0  0  0  0  0  0  0
   38.0430   24.5160   38.5800 N   0  0  0  0  0  0  0  0  0  0  0  0
   39.0230   23.6620   38.9460 C   0  0  0  0  0  0  0  0  0  0  0  0
   39.3320   23.6980   39.9690 H   0  0  0  0  0  0  0  0  0  0  0  0
   39.5840   22.8000   38.0490 N   0  0  0  0  0  0  0  0  0  0  0  0
   39.1120   22.8430   36.7820 C   0  0  0  0  0  0  0  0  0  0  0  0
  1  6  1  6  0  0  0
  1 30  1  0  0  0  0
  1  5  1  0  0  0  0
  2  7  1  6  0  0  0
  2 12  1  0  0  0  0
  2  1  1  0  0  0  0
  3  2  1  0  0  0  0
  3  4  1  0  0  0  0
  4  5  1  0  0  0  0
  5 10  1  0  0  0  0
  5 11  1  0  0  0  0
  8  3  1  0  0  0  0
  9  3  1  0  0  0  0
 14 13  2  6  0  0  0
 14 17  1  0  0  0  0
 14 12  1  0  0  0  0
 15 14  1  0  0  0  0
 15 16  1  0  0  0  0
 17 18  1  0  0  0  0
 18 21  1  0  0  0  0
 19 18  1  0  0  0  0
 20 18  1  0  0  0  0
 21 22  2  0  0  0  0
 21 26  1  0  0  0  0
 22 23  1  0  0  0  0
 23 28  1  0  0  0  0
 23 24  2  0  0  0  0
 25 24  1  0  0  0  0
 25 29  1  0  0  0  0
 26 25  2  0  0  0  0
 27 22  1  0  0  0  0
 30 33  1  0  0  0  0
 31 32  1  0  0  0  0
 32 42  1  0  0  0  0
 33 34  2  0  0  0  0
 33 32  1  0  0  0  0
 34 35  1  0  0  0  0
 35 42  2  0  0  0  0
 35 36  1  0  0  0  0
 36 38  2  0  0  0  0
 37 36  1  0  0  0  0
 38 39  1  0  0  0  0
 39 40  1  0  0  0  0
 41 39  2  0  0  0  0
 42 41  1  0  0  0  0
M  END
>  <minimizedAffinity>
-5.17300797

$$$$

 OpenBabel03272504243D

 42 45  0  0  1  0  0  0  0  0999 V2000
   35.3880   29.3570   32.3000 C   0  0  2  0  0  0  0  0  0  0  0  0
   36.2190   29.1500   33.5410 C   0  0  1  0  0  0  0  0  0  0  0  0
   35.3590   29.9630   34.5290 C   0  0  0  0  0  0  0  0  0  0  0  0
   34.1050   29.4510   34.2770 O   0  0  0  0  0  0  0  0  0  0  0  0
   33.9850   29.2740   32.9130 C   0  0  0  0  0  0  0  0  0  0  0  0
   35.6080   30.3800   31.9310 H   0  0  0  0  0  0  0  0  0  0  0  0
   37.2350   29.5280   33.4610 H   0  0  0  0  0  0  0  0  0  0  0  0
   35.4120   31.0330   34.2750 H   0  0  0  0  0  0  0  0  0  0  0  0
   35.6680   29.7470   35.5700 H   0  0  0  0  0  0  0  0  0  0  0  0
   33.3670   30.1190   32.5130 H   0  0  0  0  0  0  0  0  0  0  0  0
   33.5230   28.2840   32.6610 H   0  0  0  0  0  0  0  0  0  0  0  0
   36.1180   27.8060   33.8810 O   0  0  0  0  0  0  0  0  0  0  0  0
   38.6090   27.3720   33.2580 O   0  0  0  0  0  0  0  0  0  0  0  0
   37.5850   27.1420   34.3410 P   0  0  1  0  0  0  0  0  0  0  0  0
   38.1570   27.9200   35.7660 O   0  0  0  0  0  0  0  0  0  0  0  0
   37.3990   28.2040   36.3280 H   0  0  0  0  0  0  0  0  0  0  0  0
   37.4100   25.4820   34.6470 O   0  0  0  0  0  0  0  0  0  0  0  0
   38.6790   24.9650   34.8300 C   0  0  0  0  0  0  0  0  0  0  0  0
   38.9990   24.2860   34.0160 H   0  0  0  0  0  0  0  0  0  0  0  0
   39.4120   25.8200   34.8170 H   0  0  0  0  0  0  0  0  0  0  0  0
   38.8600   24.2900   36.1340 C   0  0  0  0  0  0  0  0  0  0  0  0
   37.9640   24.6160   37.1240 C   0  0  0  0  0  0  0  0  0  0  0  0
   38.0750   24.0160   38.3810 C   0  0  0  0  0  0  0  0  0  0  0  0
   39.0920   23.1230   38.5500 N   0  0  0  0  0  0  0  0  0  0  0  0
   39.9610   22.8190   37.5610 C   0  0  0  0  0  0  0  0  0  0  0  0
   39.8450   23.4030   36.3520 N   0  0  0  0  0  0  0  0  0  0  0  0
   37.1350   25.3010   37.0930 H   0  0  0  0  0  0  0  0  0  0  0  0
   37.4200   24.2040   39.2280 H   0  0  0  0  0  0  0  0  0  0  0  0
   40.7570   22.1210   37.6890 H   0  0  0  0  0  0  0  0  0  0  0  0
   35.6410   28.3230   31.4300 O   0  0  0  0  0  0  0  0  0  0  0  0
   37.7640   26.6180   30.6060 H   0  0  0  0  0  0  0  0  0  0  0  0
   37.6830   27.5140   30.0990 N   0  0  0  0  0  0  0  0  0  0  0  0
   36.6790   28.3050   30.5000 C   0  0  0  0  0  0  0  0  0  0  0  0
   36.7040   29.4330   29.7490 N   0  0  0  0  0  0  0  0  0  0  0  0
   37.7160   29.3780   28.8660 C   0  0  0  0  0  0  0  0  0  0  0  0
   38.2690   30.1510   27.8640 C   0  0  0  0  0  0  0  0  0  0  0  0
   37.7760   31.1040   27.6960 H   0  0  0  0  0  0  0  0  0  0  0  0
   39.3500   29.7000   27.1750 N   0  0  0  0  0  0  0  0  0  0  0  0
   39.9000   28.4980   27.4520 C   0  0  0  0  0  0  0  0  0  0  0  0
   40.7480   28.2130   26.8660 H   0  0  0  0  0  0  0  0  0  0  0  0
   39.3930   27.6940   28.4310 N   0  0  0  0  0  0  0  0  0  0  0  0
   38.3170   28.1580   29.1080 C   0  0  0  0  0  0  0  0  0  0  0  0
  1  6  1  6  0  0  0
  1  5  1  0  0  0  0
  1  2  1  0  0  0  0
  2  7  1  6  0  0  0
  2 12  1  0  0  0  0
  2  3  1  0  0  0  0
  3  9  1  0  0  0  0
  4  3  1  0  0  0  0
  5  4  1  0  0  0  0
  8  3  1  0  0  0  0
 10  5  1  0  0  0  0
 11  5  1  0  0  0  0
 12 14  1  0  0  0  0
 14 13  2  6  0  0  0
 14 17  1  0  0  0  0
 14 15  1  0  0  0  0
 15 16  1  0  0  0  0
 17 18  1  0  0  0  0
 18 21  1  0  0  0  0
 19 18  1  0  0  0  0
 20 18  1  0  0  0  0
 21 26  2  0  0  0  0
 21 22  1  0  0  0  0
 22 23  2  0  0  0  0
 23 24  1  0  0  0  0
 23 28  1  0  0  0  0
 25 29  1  0  0  0  0
 25 24  2  0  0  0  0
 26 25  1  0  0  0  0
 27 22  1  0  0  0  0
 30  1  1  0  0  0  0
 32 33  1  0  0  0  0
 32 31  1  0  0  0  0
 33 30  1  0  0  0  0
 34 33  2  0  0  0  0
 35 42  1  0  0  0  0
 35 34  1  0  0  0  0
 36 35  2  0  0  0  0
 37 36  1  0  0  0  0
 38 39  2  0  0  0  0
 38 36  1  0  0  0  0
 39 41  1  0  0  0  0
 40 39  1  0  0  0  0
 41 42  2  0  0  0  0
 42 32  1  0  0  0  0
M  END
>  <minimizedAffinity>
-5.17270947

$$$$
