
 OpenBabel03262521573D

 42 45  0  0  1  0  0  0  0  0999 V2000
   37.9120   26.8370   31.4150 C   0  0  1  0  0  0  0  0  0  0  0  0
   36.5600   27.4600   31.6330 C   0  0  2  0  0  0  0  0  0  0  0  0
   35.5200   26.4650   31.2640 C   0  0  0  0  0  0  0  0  0  0  0  0
   36.0430   25.2670   30.8010 O   0  0  0  0  0  0  0  0  0  0  0  0
   36.8550   24.6580   31.7560 C   0  0  0  0  0  0  0  0  0  0  0  0
   37.9510   25.5610   32.2470 C   0  0  2  0  0  0  0  0  0  0  0  0
   38.7300   27.4800   31.7650 H   0  0  0  0  0  0  0  0  0  0  0  0
   36.4770   27.7100   32.7200 H   0  0  0  0  0  0  0  0  0  0  0  0
   34.8980   26.1980   32.1660 H   0  0  0  0  0  0  0  0  0  0  0  0
   34.8990   26.8730   30.4380 H   0  0  0  0  0  0  0  0  0  0  0  0
   36.1980   24.3770   32.6130 H   0  0  0  0  0  0  0  0  0  0  0  0
   37.2430   23.7260   31.3390 H   0  0  0  0  0  0  0  0  0  0  0  0
   38.9150   25.0510   32.1800 H   0  0  0  0  0  0  0  0  0  0  0  0
   38.0590   26.4390   30.0810 O   0  0  0  0  0  0  0  0  0  0  0  0
   38.6130   25.6180   30.0560 H   0  0  0  0  0  0  0  0  0  0  0  0
   36.3710   29.0070   30.7220 S   0  0  0  0  0  0  0  0  0  0  0  0
   35.7040   30.2960   31.8060 C   0  0  0  0  0  0  0  0  0  0  0  0
   36.5420   30.6020   32.4840 H   0  0  0  0  0  0  0  0  0  0  0  0
   35.3780   31.1780   31.2410 H   0  0  0  0  0  0  0  0  0  0  0  0
   34.3690   29.7300   32.8490 S   0  0  0  0  0  0  0  0  0  0  0  0
   34.4750   30.5480   34.4230 C   0  0  0  0  0  0  0  0  0  0  0  0
   35.7420   31.0060   34.7620 C   0  0  0  0  0  0  0  0  0  0  0  0
   35.9150   31.6620   35.9870 C   0  0  0  0  0  0  0  0  0  0  0  0
   34.8120   31.8140   36.7850 N   0  0  0  0  0  0  0  0  0  0  0  0
   33.6070   31.3480   36.4020 C   0  0  0  0  0  0  0  0  0  0  0  0
   33.4310   30.7290   35.2520 N   0  0  0  0  0  0  0  0  0  0  0  0
   36.6370   30.9170   34.1820 H   0  0  0  0  0  0  0  0  0  0  0  0
   36.8800   32.0350   36.2940 H   0  0  0  0  0  0  0  0  0  0  0  0
   32.7730   31.5080   37.0970 H   0  0  0  0  0  0  0  0  0  0  0  0
   37.6850   25.9740   33.5490 O   0  0  0  0  0  0  0  0  0  0  0  0
   39.8440   24.1620   33.9550 H   0  0  0  0  0  0  0  0  0  0  0  0
   39.2080   24.3950   34.7360 N   0  0  0  0  0  0  0  0  0  0  0  0
   38.1680   25.2390   34.6230 C   0  0  0  0  0  0  0  0  0  0  0  0
   37.5780   25.2850   35.8510 N   0  0  0  0  0  0  0  0  0  0  0  0
   38.2460   24.4810   36.7030 C   0  0  0  0  0  0  0  0  0  0  0  0
   38.0800   24.1630   38.0360 C   0  0  0  0  0  0  0  0  0  0  0  0
   37.2670   24.5950   38.6280 H   0  0  0  0  0  0  0  0  0  0  0  0
   38.9360   23.2980   38.6380 N   0  0  0  0  0  0  0  0  0  0  0  0
   39.9550   22.7490   37.9150 C   0  0  0  0  0  0  0  0  0  0  0  0
   40.6350   22.0520   38.4190 H   0  0  0  0  0  0  0  0  0  0  0  0
   40.1490   23.0410   36.5960 N   0  0  0  0  0  0  0  0  0  0  0  0
   39.2940   23.9080   35.9870 C   0  0  0  0  0  0  0  0  0  0  0  0
  1  2  1  0  0  0  0
  1  7  1  1  0  0  0
  1  6  1  0  0  0  0
  2  8  1  1  0  0  0
  3  2  1  0  0  0  0
  3  9  1  0  0  0  0
  4  3  1  0  0  0  0
  4  5  1  0  0  0  0
  5  6  1  0  0  0  0
  5 11  1  0  0  0  0
  6 13  1  6  0  0  0
  6 30  1  0  0  0  0
 10  3  1  0  0  0  0
 12  5  1  0  0  0  0
 14  1  1  0  0  0  0
 15 14  1  0  0  0  0
 16  2  1  0  0  0  0
 16 17  1  0  0  0  0
 17 18  1  0  0  0  0
 17 20  1  0  0  0  0
 19 17  1  0  0  0  0
 20 21  1  0  0  0  0
 21 22  2  0  0  0  0
 21 26  1  0  0  0  0
 22 23  1  0  0  0  0
 23 28  1  0  0  0  0
 23 24  2  0  0  0  0
 25 24  1  0  0  0  0
 25 29  1  0  0  0  0
 26 25  2  0  0  0  0
 27 22  1  0  0  0  0
 30 33  1  0  0  0  0
 31 32  1  0  0  0  0
 32 42  1  0  0  0  0
 33 32  1  0  0  0  0
 33 34  2  0  0  0  0
 34 35  1  0  0  0  0
 35 36  1  0  0  0  0
 36 37  1  0  0  0  0
 36 38  2  0  0  0  0
 39 40  1  0  0  0  0
 39 38  1  0  0  0  0
 41 39  2  0  0  0  0
 42 41  1  0  0  0  0
 42 35  2  0  0  0  0
M  END
>  <minimizedAffinity>
-5.5619092

$$$$

 OpenBabel03262521573D

 42 45  0  0  1  0  0  0  0  0999 V2000
   36.1010   27.1210   31.7140 C   0  0  1  0  0  0  0  0  0  0  0  0
   37.6020   27.1660   31.8120 C   0  0  2  0  0  0  0  0  0  0  0  0
   38.1090   28.1330   30.8040 C   0  0  0  0  0  0  0  0  0  0  0  0
   37.1050   28.7050   30.0360 O   0  0  0  0  0  0  0  0  0  0  0  0
   36.1880   29.3980   30.8250 C   0  0  0  0  0  0  0  0  0  0  0  0
   35.6010   28.5460   31.9150 C   0  0  2  0  0  0  0  0  0  0  0  0
   35.6490   26.5020   32.5000 H   0  0  0  0  0  0  0  0  0  0  0  0
   37.8610   27.5200   32.8410 H   0  0  0  0  0  0  0  0  0  0  0  0
   38.6300   28.9930   31.3150 H   0  0  0  0  0  0  0  0  0  0  0  0
   38.7790   27.6040   30.0930 H   0  0  0  0  0  0  0  0  0  0  0  0
   36.7320   30.2580   31.2820 H   0  0  0  0  0  0  0  0  0  0  0  0
   35.4200   29.8220   30.1740 H   0  0  0  0  0  0  0  0  0  0  0  0
   34.5110   28.6100   31.8950 H   0  0  0  0  0  0  0  0  0  0  0  0
   35.7050   26.7460   30.4250 O   0  0  0  0  0  0  0  0  0  0  0  0
   34.8610   27.2160   30.2040 H   0  0  0  0  0  0  0  0  0  0  0  0
   38.3430   25.5320   31.6160 S   0  0  0  0  0  0  0  0  0  0  0  0
   38.0350   24.5220   33.0880 C   0  0  0  0  0  0  0  0  0  0  0  0
   37.0080   24.0900   32.9640 H   0  0  0  0  0  0  0  0  0  0  0  0
   38.7500   23.6950   33.1740 H   0  0  0  0  0  0  0  0  0  0  0  0
   38.0260   25.4610   34.6080 S   0  0  0  0  0  0  0  0  0  0  0  0
   38.6400   24.4400   35.9250 C   0  0  0  0  0  0  0  0  0  0  0  0
   37.9120   24.5020   37.1050 C   0  0  0  0  0  0  0  0  0  0  0  0
   38.3280   23.7280   38.1960 C   0  0  0  0  0  0  0  0  0  0  0  0
   39.4400   22.9470   38.0290 N   0  0  0  0  0  0  0  0  0  0  0  0
   40.1070   22.9270   36.8580 C   0  0  0  0  0  0  0  0  0  0  0  0
   39.7260   23.6510   35.8250 N   0  0  0  0  0  0  0  0  0  0  0  0
   37.0380   25.0910   37.2940 H   0  0  0  0  0  0  0  0  0  0  0  0
   37.7940   23.7440   39.1340 H   0  0  0  0  0  0  0  0  0  0  0  0
   40.9900   22.2760   36.8040 H   0  0  0  0  0  0  0  0  0  0  0  0
   36.1090   28.9330   33.1510 O   0  0  0  0  0  0  0  0  0  0  0  0
   33.3450   28.8390   33.8300 H   0  0  0  0  0  0  0  0  0  0  0  0
   33.9790   29.4870   34.3260 N   0  0  0  0  0  0  0  0  0  0  0  0
   35.2930   29.5900   34.0630 C   0  0  0  0  0  0  0  0  0  0  0  0
   35.7800   30.5390   34.9120 N   0  0  0  0  0  0  0  0  0  0  0  0
   34.7790   31.0110   35.6820 C   0  0  0  0  0  0  0  0  0  0  0  0
   34.7180   31.9590   36.6830 C   0  0  0  0  0  0  0  0  0  0  0  0
   35.6090   32.5090   37.0030 H   0  0  0  0  0  0  0  0  0  0  0  0
   33.5340   32.2260   37.2930 N   0  0  0  0  0  0  0  0  0  0  0  0
   32.4130   31.5510   36.9070 C   0  0  0  0  0  0  0  0  0  0  0  0
   31.4670   31.7810   37.4110 H   0  0  0  0  0  0  0  0  0  0  0  0
   32.4370   30.6070   35.9210 N   0  0  0  0  0  0  0  0  0  0  0  0
   33.6200   30.3360   35.3070 C   0  0  0  0  0  0  0  0  0  0  0  0
  1  2  1  0  0  0  0
  1  6  1  0  0  0  0
  1  7  1  1  0  0  0
  2  8  1  1  0  0  0
  3  9  1  0  0  0  0
  3  2  1  0  0  0  0
  4  3  1  0  0  0  0
  4  5  1  0  0  0  0
  5 11  1  0  0  0  0
  5  6  1  0  0  0  0
  6 13  1  6  0  0  0
  6 30  1  0  0  0  0
 10  3  1  0  0  0  0
 12  5  1  0  0  0  0
 14  1  1  0  0  0  0
 15 14  1  0  0  0  0
 16  2  1  0  0  0  0
 16 17  1  0  0  0  0
 17 19  1  0  0  0  0
 17 20  1  0  0  0  0
 18 17  1  0  0  0  0
 20 21  1  0  0  0  0
 21 22  1  0  0  0  0
 22 27  1  0  0  0  0
 22 23  2  0  0  0  0
 23 28  1  0  0  0  0
 24 23  1  0  0  0  0
 25 24  2  0  0  0  0
 26 21  2  0  0  0  0
 26 25  1  0  0  0  0
 29 25  1  0  0  0  0
 30 33  1  0  0  0  0
 31 32  1  0  0  0  0
 32 42  1  0  0  0  0
 33 32  1  0  0  0  0
 33 34  2  0  0  0  0
 34 35  1  0  0  0  0
 35 36  1  0  0  0  0
 36 37  1  0  0  0  0
 36 38  2  0  0  0  0
 39 38  1  0  0  0  0
 39 40  1  0  0  0  0
 41 39  2  0  0  0  0
 42 35  2  0  0  0  0
 42 41  1  0  0  0  0
M  END
>  <minimizedAffinity>
-5.54148579

$$$$

 OpenBabel03262521573D

 42 45  0  0  1  0  0  0  0  0999 V2000
   36.1240   27.0950   31.7290 C   0  0  1  0  0  0  0  0  0  0  0  0
   37.6280   27.1390   31.7690 C   0  0  2  0  0  0  0  0  0  0  0  0
   38.0940   28.1280   30.7630 C   0  0  0  0  0  0  0  0  0  0  0  0
   37.0610   28.7160   30.0470 O   0  0  0  0  0  0  0  0  0  0  0  0
   36.1760   29.3910   30.8860 C   0  0  0  0  0  0  0  0  0  0  0  0
   35.6320   28.5150   31.9800 C   0  0  2  0  0  0  0  0  0  0  0  0
   35.7030   26.4590   32.5190 H   0  0  0  0  0  0  0  0  0  0  0  0
   37.9270   27.4710   32.7940 H   0  0  0  0  0  0  0  0  0  0  0  0
   38.6350   28.9770   31.2710 H   0  0  0  0  0  0  0  0  0  0  0  0
   38.7360   27.6140   30.0150 H   0  0  0  0  0  0  0  0  0  0  0  0
   36.7370   30.2410   31.3400 H   0  0  0  0  0  0  0  0  0  0  0  0
   35.3830   29.8270   30.2750 H   0  0  0  0  0  0  0  0  0  0  0  0
   34.5420   28.5780   32.0050 H   0  0  0  0  0  0  0  0  0  0  0  0
   35.6780   26.7470   30.4490 O   0  0  0  0  0  0  0  0  0  0  0  0
   34.8260   27.2210   30.2720 H   0  0  0  0  0  0  0  0  0  0  0  0
   38.3610   25.5110   31.5080 S   0  0  0  0  0  0  0  0  0  0  0  0
   38.2230   24.5120   33.0140 C   0  0  0  0  0  0  0  0  0  0  0  0
   37.2450   23.9690   32.9440 H   0  0  0  0  0  0  0  0  0  0  0  0
   39.0250   23.7690   33.0880 H   0  0  0  0  0  0  0  0  0  0  0  0
   38.1730   25.4850   34.5120 S   0  0  0  0  0  0  0  0  0  0  0  0
   38.6860   24.4720   35.8790 C   0  0  0  0  0  0  0  0  0  0  0  0
   37.9210   24.6070   37.0300 C   0  0  0  0  0  0  0  0  0  0  0  0
   38.2570   23.8450   38.1560 C   0  0  0  0  0  0  0  0  0  0  0  0
   39.3310   23.0020   38.0510 N   0  0  0  0  0  0  0  0  0  0  0  0
   40.0360   22.9130   36.9060 C   0  0  0  0  0  0  0  0  0  0  0  0
   39.7300   23.6240   35.8410 N   0  0  0  0  0  0  0  0  0  0  0  0
   37.0730   25.2470   37.1700 H   0  0  0  0  0  0  0  0  0  0  0  0
   37.6920   23.9170   39.0730 H   0  0  0  0  0  0  0  0  0  0  0  0
   40.8840   22.2150   36.9020 H   0  0  0  0  0  0  0  0  0  0  0  0
   36.1880   28.8750   33.2040 O   0  0  0  0  0  0  0  0  0  0  0  0
   36.7630   30.8550   35.1670 H   0  0  0  0  0  0  0  0  0  0  0  0
   35.7910   30.5330   35.0250 N   0  0  0  0  0  0  0  0  0  0  0  0
   35.4400   29.6030   34.1200 C   0  0  0  0  0  0  0  0  0  0  0  0
   34.0910   29.4490   34.2330 N   0  0  0  0  0  0  0  0  0  0  0  0
   33.6220   30.2710   35.1930 C   0  0  0  0  0  0  0  0  0  0  0  0
   32.3630   30.5140   35.7040 C   0  0  0  0  0  0  0  0  0  0  0  0
   31.4830   29.9840   35.3260 H   0  0  0  0  0  0  0  0  0  0  0  0
   32.1980   31.4270   36.6950 N   0  0  0  0  0  0  0  0  0  0  0  0
   33.2840   32.0970   37.1790 C   0  0  0  0  0  0  0  0  0  0  0  0
   33.1300   32.8300   37.9800 H   0  0  0  0  0  0  0  0  0  0  0  0
   34.5430   31.8830   36.6970 N   0  0  0  0  0  0  0  0  0  0  0  0
   34.7140   30.9690   35.7030 C   0  0  0  0  0  0  0  0  0  0  0  0
  1  2  1  0  0  0  0
  1  6  1  0  0  0  0
  1  7  1  1  0  0  0
  2  8  1  1  0  0  0
  3  9  1  0  0  0  0
  3  2  1  0  0  0  0
  4  3  1  0  0  0  0
  4  5  1  0  0  0  0
  5 11  1  0  0  0  0
  5  6  1  0  0  0  0
  6 13  1  1  0  0  0
  6 30  1  0  0  0  0
 10  3  1  0  0  0  0
 12  5  1  0  0  0  0
 14  1  1  0  0  0  0
 15 14  1  0  0  0  0
 16  2  1  0  0  0  0
 16 17  1  0  0  0  0
 17 19  1  0  0  0  0
 17 20  1  0  0  0  0
 18 17  1  0  0  0  0
 20 21  1  0  0  0  0
 21 22  1  0  0  0  0
 22 27  1  0  0  0  0
 22 23  2  0  0  0  0
 23 28  1  0  0  0  0
 24 23  1  0  0  0  0
 25 24  2  0  0  0  0
 26 21  2  0  0  0  0
 26 25  1  0  0  0  0
 29 25  1  0  0  0  0
 30 33  1  0  0  0  0
 32 31  1  0  0  0  0
 32 42  1  0  0  0  0
 33 34  2  0  0  0  0
 33 32  1  0  0  0  0
 34 35  1  0  0  0  0
 35 42  2  0  0  0  0
 35 36  1  0  0  0  0
 36 38  2  0  0  0  0
 37 36  1  0  0  0  0
 38 39  1  0  0  0  0
 39 40  1  0  0  0  0
 41 39  2  0  0  0  0
 42 41  1  0  0  0  0
M  END
>  <minimizedAffinity>
-5.43513346

$$$$

 OpenBabel03262521573D

 42 45  0  0  1  0  0  0  0  0999 V2000
   37.8090   25.4500   31.0400 C   0  0  1  0  0  0  0  0  0  0  0  0
   37.8330   26.2460   32.3160 C   0  0  2  0  0  0  0  0  0  0  0  0
   36.6670   27.1670   32.3160 C   0  0  0  0  0  0  0  0  0  0  0  0
   35.8990   27.0830   31.1650 O   0  0  0  0  0  0  0  0  0  0  0  0
   35.3890   25.7980   30.9810 C   0  0  0  0  0  0  0  0  0  0  0  0
   36.4600   24.7440   30.9820 C   0  0  2  0  0  0  0  0  0  0  0  0
   38.5860   24.6730   31.0160 H   0  0  0  0  0  0  0  0  0  0  0  0
   37.7440   25.5220   33.1650 H   0  0  0  0  0  0  0  0  0  0  0  0
   35.9720   26.9160   33.1670 H   0  0  0  0  0  0  0  0  0  0  0  0
   37.0300   28.2160   32.3710 H   0  0  0  0  0  0  0  0  0  0  0  0
   34.6800   25.6030   31.8200 H   0  0  0  0  0  0  0  0  0  0  0  0
   34.7990   25.7860   30.0620 H   0  0  0  0  0  0  0  0  0  0  0  0
   36.3620   24.1080   30.1000 H   0  0  0  0  0  0  0  0  0  0  0  0
   37.8530   26.3020   29.9300 O   0  0  0  0  0  0  0  0  0  0  0  0
   37.3180   25.8970   29.2000 H   0  0  0  0  0  0  0  0  0  0  0  0
   39.3930   27.1270   32.5380 S   0  0  0  0  0  0  0  0  0  0  0  0
   40.0580   26.8190   34.1950 C   0  0  0  0  0  0  0  0  0  0  0  0
   40.5270   25.8020   34.1620 H   0  0  0  0  0  0  0  0  0  0  0  0
   40.8310   27.5470   34.4680 H   0  0  0  0  0  0  0  0  0  0  0  0
   38.8050   26.7750   35.4680 S   0  0  0  0  0  0  0  0  0  0  0  0
   38.4120   25.0820   35.8370 C   0  0  0  0  0  0  0  0  0  0  0  0
   37.9890   24.8470   37.1390 C   0  0  0  0  0  0  0  0  0  0  0  0
   37.6590   23.5380   37.5140 C   0  0  0  0  0  0  0  0  0  0  0  0
   37.7740   22.5590   36.5640 N   0  0  0  0  0  0  0  0  0  0  0  0
   38.1910   22.8480   35.3150 C   0  0  0  0  0  0  0  0  0  0  0  0
   38.5050   24.0750   34.9500 N   0  0  0  0  0  0  0  0  0  0  0  0
   37.8790   25.5690   37.9220 H   0  0  0  0  0  0  0  0  0  0  0  0
   37.3250   23.3070   38.5140 H   0  0  0  0  0  0  0  0  0  0  0  0
   38.2590   22.0080   34.6110 H   0  0  0  0  0  0  0  0  0  0  0  0
   36.3970   23.9970   32.1540 O   0  0  0  0  0  0  0  0  0  0  0  0
   38.4110   22.0200   31.7760 H   0  0  0  0  0  0  0  0  0  0  0  0
   37.4260   21.7370   31.9130 N   0  0  0  0  0  0  0  0  0  0  0  0
   36.4200   22.6100   32.0960 C   0  0  0  0  0  0  0  0  0  0  0  0
   35.2880   21.8640   32.2360 N   0  0  0  0  0  0  0  0  0  0  0  0
   35.5950   20.5550   32.1380 C   0  0  0  0  0  0  0  0  0  0  0  0
   34.8480   19.3960   32.2040 C   0  0  0  0  0  0  0  0  0  0  0  0
   33.7650   19.4250   32.3670 H   0  0  0  0  0  0  0  0  0  0  0  0
   35.4540   18.1890   32.0670 N   0  0  0  0  0  0  0  0  0  0  0  0
   36.8030   18.1340   31.8640 C   0  0  0  0  0  0  0  0  0  0  0  0
   37.2740   17.1500   31.7540 H   0  0  0  0  0  0  0  0  0  0  0  0
   37.5730   19.2590   31.7930 N   0  0  0  0  0  0  0  0  0  0  0  0
   36.9700   20.4720   31.9300 C   0  0  0  0  0  0  0  0  0  0  0  0
  1  7  1  6  0  0  0
  1  2  1  0  0  0  0
  2  3  1  0  0  0  0
  2 16  1  0  0  0  0
  2  8  1  1  0  0  0
  3 10  1  0  0  0  0
  3  9  1  0  0  0  0
  4  3  1  0  0  0  0
  5  6  1  0  0  0  0
  5  4  1  0  0  0  0
  5 11  1  0  0  0  0
  6 13  1  6  0  0  0
  6  1  1  0  0  0  0
  6 30  1  0  0  0  0
 12  5  1  0  0  0  0
 14  1  1  0  0  0  0
 15 14  1  0  0  0  0
 16 17  1  0  0  0  0
 17 19  1  0  0  0  0
 17 20  1  0  0  0  0
 18 17  1  0  0  0  0
 20 21  1  0  0  0  0
 21 22  1  0  0  0  0
 22 23  2  0  0  0  0
 22 27  1  0  0  0  0
 23 28  1  0  0  0  0
 24 23  1  0  0  0  0
 25 24  2  0  0  0  0
 26 25  1  0  0  0  0
 26 21  2  0  0  0  0
 29 25  1  0  0  0  0
 31 32  1  0  0  0  0
 32 42  1  0  0  0  0
 32 33  1  0  0  0  0
 33 30  1  0  0  0  0
 33 34  2  0  0  0  0
 35 36  1  0  0  0  0
 35 34  1  0  0  0  0
 36 37  1  0  0  0  0
 38 36  2  0  0  0  0
 39 38  1  0  0  0  0
 40 39  1  0  0  0  0
 41 39  2  0  0  0  0
 41 42  1  0  0  0  0
 42 35  2  0  0  0  0
M  END
>  <minimizedAffinity>
-5.37217426

$$$$

 OpenBabel03262521573D

 42 45  0  0  1  0  0  0  0  0999 V2000
   37.1270   26.5810   34.8740 C   0  0  1  0  0  0  0  0  0  0  0  0
   37.4770   26.1060   33.4900 C   0  0  2  0  0  0  0  0  0  0  0  0
   38.9050   26.4270   33.2310 C   0  0  0  0  0  0  0  0  0  0  0  0
   39.5210   27.0870   34.2850 O   0  0  0  0  0  0  0  0  0  0  0  0
   39.4900   26.3290   35.4540 C   0  0  0  0  0  0  0  0  0  0  0  0
   38.0990   25.9060   35.8340 C   0  0  2  0  0  0  0  0  0  0  0  0
   36.1130   26.2840   35.1740 H   0  0  0  0  0  0  0  0  0  0  0  0
   37.3280   24.9970   33.4670 H   0  0  0  0  0  0  0  0  0  0  0  0
   39.4970   25.4800   33.0770 H   0  0  0  0  0  0  0  0  0  0  0  0
   38.9740   27.1080   32.3560 H   0  0  0  0  0  0  0  0  0  0  0  0
   40.1140   25.4220   35.2730 H   0  0  0  0  0  0  0  0  0  0  0  0
   39.9800   26.8950   36.2490 H   0  0  0  0  0  0  0  0  0  0  0  0
   37.9000   26.1640   36.8760 H   0  0  0  0  0  0  0  0  0  0  0  0
   37.3540   27.9570   34.9920 O   0  0  0  0  0  0  0  0  0  0  0  0
   37.6530   28.1500   35.9170 H   0  0  0  0  0  0  0  0  0  0  0  0
   36.3870   26.8080   32.2350 S   0  0  0  0  0  0  0  0  0  0  0  0
   35.7390   25.4990   31.1630 C   0  0  0  0  0  0  0  0  0  0  0  0
   34.8700   25.0470   31.7070 H   0  0  0  0  0  0  0  0  0  0  0  0
   35.3790   25.8950   30.2060 H   0  0  0  0  0  0  0  0  0  0  0  0
   36.9080   24.1820   30.8600 S   0  0  0  0  0  0  0  0  0  0  0  0
   36.4980   22.7950   31.8910 C   0  0  0  0  0  0  0  0  0  0  0  0
   35.3950   22.0610   31.4770 C   0  0  0  0  0  0  0  0  0  0  0  0
   35.0020   20.9500   32.2340 C   0  0  0  0  0  0  0  0  0  0  0  0
   35.7400   20.6510   33.3480 N   0  0  0  0  0  0  0  0  0  0  0  0
   36.8020   21.4010   33.7000 C   0  0  0  0  0  0  0  0  0  0  0  0
   37.1820   22.4480   32.9970 N   0  0  0  0  0  0  0  0  0  0  0  0
   34.7820   22.2450   30.6180 H   0  0  0  0  0  0  0  0  0  0  0  0
   34.1500   20.3490   31.9510 H   0  0  0  0  0  0  0  0  0  0  0  0
   37.3420   21.0970   34.6070 H   0  0  0  0  0  0  0  0  0  0  0  0
   37.9340   24.5420   35.6090 O   0  0  0  0  0  0  0  0  0  0  0  0
   39.7460   23.3200   33.7840 H   0  0  0  0  0  0  0  0  0  0  0  0
   39.8350   23.1440   34.7990 N   0  0  0  0  0  0  0  0  0  0  0  0
   39.0190   23.6830   35.7220 C   0  0  0  0  0  0  0  0  0  0  0  0
   39.4500   23.2200   36.9300 N   0  0  0  0  0  0  0  0  0  0  0  0
   40.5110   22.4090   36.7490 C   0  0  0  0  0  0  0  0  0  0  0  0
   41.3150   21.6900   37.6120 C   0  0  0  0  0  0  0  0  0  0  0  0
   41.1470   21.7060   38.6940 H   0  0  0  0  0  0  0  0  0  0  0  0
   42.3380   20.9440   37.1220 N   0  0  0  0  0  0  0  0  0  0  0  0
   42.5610   20.9120   35.7760 C   0  0  0  0  0  0  0  0  0  0  0  0
   43.3920   20.3020   35.4000 H   0  0  0  0  0  0  0  0  0  0  0  0
   41.7870   21.6100   34.8940 N   0  0  0  0  0  0  0  0  0  0  0  0
   40.7610   22.3590   35.3800 C   0  0  0  0  0  0  0  0  0  0  0  0
  1 14  1  0  0  0  0
  1  7  1  1  0  0  0
  1  6  1  0  0  0  0
  2  8  1  6  0  0  0
  2  1  1  0  0  0  0
  3  2  1  0  0  0  0
  3  4  1  0  0  0  0
  4  5  1  0  0  0  0
  5  6  1  0  0  0  0
  5 12  1  0  0  0  0
  6 13  1  1  0  0  0
  9  3  1  0  0  0  0
 10  3  1  0  0  0  0
 11  5  1  0  0  0  0
 14 15  1  0  0  0  0
 16  2  1  0  0  0  0
 17 18  1  0  0  0  0
 17 16  1  0  0  0  0
 19 17  1  0  0  0  0
 20 17  1  0  0  0  0
 20 21  1  0  0  0  0
 21 26  1  0  0  0  0
 22 21  2  0  0  0  0
 22 23  1  0  0  0  0
 23 24  2  0  0  0  0
 24 25  1  0  0  0  0
 25 29  1  0  0  0  0
 26 25  2  0  0  0  0
 27 22  1  0  0  0  0
 28 23  1  0  0  0  0
 30 33  1  0  0  0  0
 30  6  1  0  0  0  0
 31 32  1  0  0  0  0
 32 42  1  0  0  0  0
 32 33  1  0  0  0  0
 33 34  2  0  0  0  0
 35 34  1  0  0  0  0
 35 36  1  0  0  0  0
 36 37  1  0  0  0  0
 38 36  2  0  0  0  0
 39 38  1  0  0  0  0
 40 39  1  0  0  0  0
 41 42  1  0  0  0  0
 41 39  2  0  0  0  0
 42 35  2  0  0  0  0
M  END
>  <minimizedAffinity>
-5.12147808

$$$$

 OpenBabel03262521573D

 42 45  0  0  1  0  0  0  0  0999 V2000
   34.2640   31.7470   36.6580 C   0  0  1  0  0  0  0  0  0  0  0  0
   33.4950   32.7970   35.9020 C   0  0  2  0  0  0  0  0  0  0  0  0
   34.4430   33.8650   35.4890 C   0  0  0  0  0  0  0  0  0  0  0  0
   35.7440   33.6430   35.9170 O   0  0  0  0  0  0  0  0  0  0  0  0
   36.2520   32.4460   35.4150 C   0  0  0  0  0  0  0  0  0  0  0  0
   35.3790   31.2660   35.7380 C   0  0  2  0  0  0  0  0  0  0  0  0
   33.6460   30.8740   36.9060 H   0  0  0  0  0  0  0  0  0  0  0  0
   33.0580   32.3070   34.9970 H   0  0  0  0  0  0  0  0  0  0  0  0
   34.4970   33.9250   34.3640 H   0  0  0  0  0  0  0  0  0  0  0  0
   34.1280   34.8300   35.9420 H   0  0  0  0  0  0  0  0  0  0  0  0
   36.3240   32.5590   34.3080 H   0  0  0  0  0  0  0  0  0  0  0  0
   37.2710   32.3180   35.7850 H   0  0  0  0  0  0  0  0  0  0  0  0
   35.9750   30.4700   36.1890 H   0  0  0  0  0  0  0  0  0  0  0  0
   34.8940   32.3100   37.7750 O   0  0  0  0  0  0  0  0  0  0  0  0
   35.7530   31.8380   37.9230 H   0  0  0  0  0  0  0  0  0  0  0  0
   32.1160   33.4510   36.8640 S   0  0  0  0  0  0  0  0  0  0  0  0
   30.5820   32.5920   36.4250 C   0  0  0  0  0  0  0  0  0  0  0  0
   30.2880   31.9920   37.3250 H   0  0  0  0  0  0  0  0  0  0  0  0
   29.7700   33.2940   36.1990 H   0  0  0  0  0  0  0  0  0  0  0  0
   30.7710   31.4440   35.0690 S   0  0  0  0  0  0  0  0  0  0  0  0
   30.8920   29.7950   35.7190 C   0  0  0  0  0  0  0  0  0  0  0  0
   30.4680   28.7920   34.8570 C   0  0  0  0  0  0  0  0  0  0  0  0
   30.5290   27.4610   35.2900 C   0  0  0  0  0  0  0  0  0  0  0  0
   31.0100   27.2280   36.5510 N   0  0  0  0  0  0  0  0  0  0  0  0
   31.4080   28.2440   37.3430 C   0  0  0  0  0  0  0  0  0  0  0  0
   31.3550   29.4990   36.9470 N   0  0  0  0  0  0  0  0  0  0  0  0
   30.0840   28.9120   33.8650 H   0  0  0  0  0  0  0  0  0  0  0  0
   30.2100   26.6480   34.6560 H   0  0  0  0  0  0  0  0  0  0  0  0
   31.7810   27.9750   38.3400 H   0  0  0  0  0  0  0  0  0  0  0  0
   34.7290   30.8220   34.5900 O   0  0  0  0  0  0  0  0  0  0  0  0
   34.7060   30.1180   31.8310 H   0  0  0  0  0  0  0  0  0  0  0  0
   35.2260   29.5370   32.5100 N   0  0  0  0  0  0  0  0  0  0  0  0
   35.2840   29.8030   33.8270 C   0  0  0  0  0  0  0  0  0  0  0  0
   36.0510   28.8230   34.3820 N   0  0  0  0  0  0  0  0  0  0  0  0
   36.4570   27.9690   33.4210 C   0  0  0  0  0  0  0  0  0  0  0  0
   37.2350   26.8290   33.4300 C   0  0  0  0  0  0  0  0  0  0  0  0
   37.6660   26.4410   34.3580 H   0  0  0  0  0  0  0  0  0  0  0  0
   37.4760   26.1640   32.2710 N   0  0  0  0  0  0  0  0  0  0  0  0
   36.9460   26.6330   31.1040 C   0  0  0  0  0  0  0  0  0  0  0  0
   37.1520   26.0810   30.1790 H   0  0  0  0  0  0  0  0  0  0  0  0
   36.1730   27.7570   31.0580 N   0  0  0  0  0  0  0  0  0  0  0  0
   35.9270   28.4270   32.2160 C   0  0  0  0  0  0  0  0  0  0  0  0
  1  7  1  1  0  0  0
  1 14  1  0  0  0  0
  2  8  1  6  0  0  0
  2  1  1  0  0  0  0
  2 16  1  0  0  0  0
  3  2  1  0  0  0  0
  3  4  1  0  0  0  0
  3 10  1  0  0  0  0
  5  6  1  0  0  0  0
  5 12  1  0  0  0  0
  5  4  1  0  0  0  0
  6 13  1  1  0  0  0
  6  1  1  0  0  0  0
  9  3  1  0  0  0  0
 11  5  1  0  0  0  0
 14 15  1  0  0  0  0
 17 16  1  0  0  0  0
 17 18  1  0  0  0  0
 19 17  1  0  0  0  0
 20 21  1  0  0  0  0
 20 17  1  0  0  0  0
 21 26  1  0  0  0  0
 22 23  1  0  0  0  0
 22 21  2  0  0  0  0
 23 24  2  0  0  0  0
 24 25  1  0  0  0  0
 25 29  1  0  0  0  0
 26 25  2  0  0  0  0
 27 22  1  0  0  0  0
 28 23  1  0  0  0  0
 30  6  1  0  0  0  0
 31 32  1  0  0  0  0
 32 33  1  0  0  0  0
 33 34  2  0  0  0  0
 33 30  1  0  0  0  0
 35 36  1  0  0  0  0
 35 34  1  0  0  0  0
 36 37  1  0  0  0  0
 38 36  2  0  0  0  0
 39 38  1  0  0  0  0
 40 39  1  0  0  0  0
 41 39  2  0  0  0  0
 41 42  1  0  0  0  0
 42 32  1  0  0  0  0
 42 35  2  0  0  0  0
M  END
>  <minimizedAffinity>
-5.09755564

$$$$

 OpenBabel03262521573D

 42 45  0  0  1  0  0  0  0  0999 V2000
   37.7080   26.5500   31.6720 C   0  0  1  0  0  0  0  0  0  0  0  0
   36.3290   27.0390   32.0220 C   0  0  2  0  0  0  0  0  0  0  0  0
   35.3360   26.1220   31.4050 C   0  0  0  0  0  0  0  0  0  0  0  0
   35.9150   25.1020   30.6630 O   0  0  0  0  0  0  0  0  0  0  0  0
   36.7530   24.3100   31.4460 C   0  0  0  0  0  0  0  0  0  0  0  0
   37.8060   25.1100   32.1600 C   0  0  2  0  0  0  0  0  0  0  0  0
   38.4960   27.1210   32.1810 H   0  0  0  0  0  0  0  0  0  0  0  0
   36.2340   27.0060   33.1360 H   0  0  0  0  0  0  0  0  0  0  0  0
   34.7270   25.6100   32.2040 H   0  0  0  0  0  0  0  0  0  0  0  0
   34.6980   26.6950   30.6980 H   0  0  0  0  0  0  0  0  0  0  0  0
   36.1090   23.7950   32.1990 H   0  0  0  0  0  0  0  0  0  0  0  0
   37.1840   23.5300   30.8160 H   0  0  0  0  0  0  0  0  0  0  0  0
   38.7920   24.6770   31.9800 H   0  0  0  0  0  0  0  0  0  0  0  0
   37.8740   26.5050   30.2830 O   0  0  0  0  0  0  0  0  0  0  0  0
   38.4660   25.7410   30.0600 H   0  0  0  0  0  0  0  0  0  0  0  0
   36.0690   28.7530   31.5230 S   0  0  0  0  0  0  0  0  0  0  0  0
   35.6320   29.7660   32.9610 C   0  0  0  0  0  0  0  0  0  0  0  0
   36.1040   29.2720   33.8490 H   0  0  0  0  0  0  0  0  0  0  0  0
   36.0300   30.7850   32.8800 H   0  0  0  0  0  0  0  0  0  0  0  0
   33.8750   29.8370   33.2750 S   0  0  0  0  0  0  0  0  0  0  0  0
   33.6040   30.4600   34.9160 C   0  0  0  0  0  0  0  0  0  0  0  0
   32.4970   29.9330   35.5690 C   0  0  0  0  0  0  0  0  0  0  0  0
   32.2090   30.3700   36.8680 C   0  0  0  0  0  0  0  0  0  0  0  0
   33.0470   31.3000   37.4220 N   0  0  0  0  0  0  0  0  0  0  0  0
   34.1080   31.7750   36.7390 C   0  0  0  0  0  0  0  0  0  0  0  0
   34.3890   31.3720   35.5170 N   0  0  0  0  0  0  0  0  0  0  0  0
   31.8080   29.2060   35.1880 H   0  0  0  0  0  0  0  0  0  0  0  0
   31.3600   29.9900   37.4150 H   0  0  0  0  0  0  0  0  0  0  0  0
   34.7320   32.5200   37.2520 H   0  0  0  0  0  0  0  0  0  0  0  0
   37.5210   25.1730   33.5200 O   0  0  0  0  0  0  0  0  0  0  0  0
   37.1310   23.7390   35.9490 H   0  0  0  0  0  0  0  0  0  0  0  0
   38.0850   23.8720   35.5730 N   0  0  0  0  0  0  0  0  0  0  0  0
   38.3500   24.5370   34.4350 C   0  0  0  0  0  0  0  0  0  0  0  0
   39.7030   24.4990   34.2760 N   0  0  0  0  0  0  0  0  0  0  0  0
   40.2590   23.8240   35.3020 C   0  0  0  0  0  0  0  0  0  0  0  0
   41.5590   23.4960   35.6300 C   0  0  0  0  0  0  0  0  0  0  0  0
   42.4000   23.7980   34.9970 H   0  0  0  0  0  0  0  0  0  0  0  0
   41.8150   22.7860   36.7590 N   0  0  0  0  0  0  0  0  0  0  0  0
   40.7790   22.4020   37.5600 C   0  0  0  0  0  0  0  0  0  0  0  0
   41.0070   21.8300   38.4670 H   0  0  0  0  0  0  0  0  0  0  0  0
   39.4820   22.7080   37.2660 N   0  0  0  0  0  0  0  0  0  0  0  0
   39.2200   23.4190   36.1360 C   0  0  0  0  0  0  0  0  0  0  0  0
  1  2  1  0  0  0  0
  1  6  1  0  0  0  0
  1  7  1  1  0  0  0
  2  8  1  1  0  0  0
  3  2  1  0  0  0  0
  3  9  1  0  0  0  0
  4  3  1  0  0  0  0
  4  5  1  0  0  0  0
  5  6  1  0  0  0  0
  5 11  1  0  0  0  0
  6 13  1  6  0  0  0
  6 30  1  0  0  0  0
 10  3  1  0  0  0  0
 12  5  1  0  0  0  0
 14  1  1  0  0  0  0
 15 14  1  0  0  0  0
 16  2  1  0  0  0  0
 16 17  1  0  0  0  0
 17 20  1  0  0  0  0
 17 18  1  0  0  0  0
 19 17  1  0  0  0  0
 20 21  1  0  0  0  0
 21 26  2  0  0  0  0
 21 22  1  0  0  0  0
 22 23  2  0  0  0  0
 23 28  1  0  0  0  0
 23 24  1  0  0  0  0
 25 29  1  0  0  0  0
 25 24  2  0  0  0  0
 26 25  1  0  0  0  0
 27 22  1  0  0  0  0
 30 33  1  0  0  0  0
 32 31  1  0  0  0  0
 32 42  1  0  0  0  0
 33 32  1  0  0  0  0
 34 33  2  0  0  0  0
 34 35  1  0  0  0  0
 35 36  2  0  0  0  0
 35 42  1  0  0  0  0
 36 38  1  0  0  0  0
 37 36  1  0  0  0  0
 38 39  2  0  0  0  0
 39 40  1  0  0  0  0
 41 39  1  0  0  0  0
 42 41  2  0  0  0  0
M  END
>  <minimizedAffinity>
-5.07998323

$$$$

 OpenBabel03262521573D

 42 45  0  0  1  0  0  0  0  0999 V2000
   38.1390   25.2490   31.3000 C   0  0  1  0  0  0  0  0  0  0  0  0
   37.3950   26.5230   31.5930 C   0  0  2  0  0  0  0  0  0  0  0  0
   35.9610   26.3150   31.2620 C   0  0  0  0  0  0  0  0  0  0  0  0
   35.6900   25.0520   30.7560 O   0  0  0  0  0  0  0  0  0  0  0  0
   36.0370   24.0510   31.6620 C   0  0  0  0  0  0  0  0  0  0  0  0
   37.4680   24.1470   32.1100 C   0  0  2  0  0  0  0  0  0  0  0  0
   39.1890   25.2950   31.6180 H   0  0  0  0  0  0  0  0  0  0  0  0
   37.5050   26.7320   32.6860 H   0  0  0  0  0  0  0  0  0  0  0  0
   35.3280   26.4150   32.1890 H   0  0  0  0  0  0  0  0  0  0  0  0
   35.6590   27.0370   30.4730 H   0  0  0  0  0  0  0  0  0  0  0  0
   35.3660   24.1620   32.5460 H   0  0  0  0  0  0  0  0  0  0  0  0
   35.8100   23.0820   31.2130 H   0  0  0  0  0  0  0  0  0  0  0  0
   37.9650   23.1820   31.9890 H   0  0  0  0  0  0  0  0  0  0  0  0
   37.9890   24.8920   29.9540 O   0  0  0  0  0  0  0  0  0  0  0  0
   37.9730   23.9030   29.8900 H   0  0  0  0  0  0  0  0  0  0  0  0
   38.0950   27.9350   30.7140 S   0  0  0  0  0  0  0  0  0  0  0  0
   36.7720   28.9620   30.0220 C   0  0  0  0  0  0  0  0  0  0  0  0
   37.1410   29.3220   29.0270 H   0  0  0  0  0  0  0  0  0  0  0  0
   35.8510   28.3890   29.8610 H   0  0  0  0  0  0  0  0  0  0  0  0
   36.4080   30.4110   31.0000 S   0  0  0  0  0  0  0  0  0  0  0  0
   34.7640   30.2680   31.6590 C   0  0  0  0  0  0  0  0  0  0  0  0
   33.8720   31.2410   31.2270 C   0  0  0  0  0  0  0  0  0  0  0  0
   32.5530   31.2030   31.6990 C   0  0  0  0  0  0  0  0  0  0  0  0
   32.2200   30.1970   32.5660 N   0  0  0  0  0  0  0  0  0  0  0  0
   33.1310   29.2800   32.9500 C   0  0  0  0  0  0  0  0  0  0  0  0
   34.3740   29.3050   32.5140 N   0  0  0  0  0  0  0  0  0  0  0  0
   34.0730   32.0480   30.5530 H   0  0  0  0  0  0  0  0  0  0  0  0
   31.8240   31.9380   31.3920 H   0  0  0  0  0  0  0  0  0  0  0  0
   32.7870   28.5060   33.6480 H   0  0  0  0  0  0  0  0  0  0  0  0
   37.5290   24.5850   33.4290 O   0  0  0  0  0  0  0  0  0  0  0  0
   37.5980   24.3030   36.2620 H   0  0  0  0  0  0  0  0  0  0  0  0
   38.3260   23.8570   35.6790 N   0  0  0  0  0  0  0  0  0  0  0  0
   38.3620   23.9450   34.3370 C   0  0  0  0  0  0  0  0  0  0  0  0
   39.4550   23.2360   33.9370 N   0  0  0  0  0  0  0  0  0  0  0  0
   40.0800   22.7230   35.0160 C   0  0  0  0  0  0  0  0  0  0  0  0
   41.2070   21.9440   35.1800 C   0  0  0  0  0  0  0  0  0  0  0  0
   41.8010   21.6130   34.3210 H   0  0  0  0  0  0  0  0  0  0  0  0
   41.6010   21.5730   36.4250 N   0  0  0  0  0  0  0  0  0  0  0  0
   40.8730   21.9760   37.5070 C   0  0  0  0  0  0  0  0  0  0  0  0
   41.2070   21.6670   38.5040 H   0  0  0  0  0  0  0  0  0  0  0  0
   39.7530   22.7460   37.3830 N   0  0  0  0  0  0  0  0  0  0  0  0
   39.3550   23.1210   36.1370 C   0  0  0  0  0  0  0  0  0  0  0  0
  1  2  1  0  0  0  0
  1  7  1  1  0  0  0
  1  6  1  0  0  0  0
  2  8  1  1  0  0  0
  3  2  1  0  0  0  0
  3  9  1  0  0  0  0
  4  3  1  0  0  0  0
  4  5  1  0  0  0  0
  5  6  1  0  0  0  0
  5 11  1  0  0  0  0
  6 13  1  6  0  0  0
  6 30  1  0  0  0  0
 10  3  1  0  0  0  0
 12  5  1  0  0  0  0
 14  1  1  0  0  0  0
 15 14  1  0  0  0  0
 16  2  1  0  0  0  0
 17 16  1  0  0  0  0
 17 20  1  0  0  0  0
 18 17  1  0  0  0  0
 19 17  1  0  0  0  0
 20 21  1  0  0  0  0
 21 26  1  0  0  0  0
 22 21  2  0  0  0  0
 22 23  1  0  0  0  0
 23 24  2  0  0  0  0
 24 25  1  0  0  0  0
 25 29  1  0  0  0  0
 26 25  2  0  0  0  0
 27 22  1  0  0  0  0
 28 23  1  0  0  0  0
 30 33  1  0  0  0  0
 32 42  1  0  0  0  0
 32 31  1  0  0  0  0
 33 32  1  0  0  0  0
 34 33  2  0  0  0  0
 34 35  1  0  0  0  0
 35 36  2  0  0  0  0
 35 42  1  0  0  0  0
 36 38  1  0  0  0  0
 37 36  1  0  0  0  0
 38 39  2  0  0  0  0
 39 40  1  0  0  0  0
 41 39  1  0  0  0  0
 42 41  2  0  0  0  0
M  END
>  <minimizedAffinity>
-4.97704458

$$$$

 OpenBabel03262521573D

 42 45  0  0  1  0  0  0  0  0999 V2000
   38.0240   25.9200   32.7510 C   0  0  1  0  0  0  0  0  0  0  0  0
   37.0940   27.0330   32.3520 C   0  0  2  0  0  0  0  0  0  0  0  0
   37.7810   27.8760   31.3390 C   0  0  0  0  0  0  0  0  0  0  0  0
   39.0710   27.4530   31.0530 O   0  0  0  0  0  0  0  0  0  0  0  0
   39.0860   26.1490   30.5600 C   0  0  0  0  0  0  0  0  0  0  0  0
   38.3990   25.1760   31.4760 C   0  0  2  0  0  0  0  0  0  0  0  0
   37.5450   25.1960   33.4230 H   0  0  0  0  0  0  0  0  0  0  0  0
   36.1840   26.5650   31.9010 H   0  0  0  0  0  0  0  0  0  0  0  0
   37.2240   27.8410   30.3590 H   0  0  0  0  0  0  0  0  0  0  0  0
   37.8740   28.9130   31.7270 H   0  0  0  0  0  0  0  0  0  0  0  0
   38.5590   26.1640   29.5770 H   0  0  0  0  0  0  0  0  0  0  0  0
   40.1210   25.8660   30.3580 H   0  0  0  0  0  0  0  0  0  0  0  0
   39.0500   24.3200   31.6710 H   0  0  0  0  0  0  0  0  0  0  0  0
   39.2180   26.4390   33.2670 O   0  0  0  0  0  0  0  0  0  0  0  0
   39.9600   25.8310   33.0180 H   0  0  0  0  0  0  0  0  0  0  0  0
   36.5410   27.9980   33.7730 S   0  0  0  0  0  0  0  0  0  0  0  0
   35.7140   29.5130   33.2190 C   0  0  0  0  0  0  0  0  0  0  0  0
   36.2490   30.3630   33.7160 H   0  0  0  0  0  0  0  0  0  0  0  0
   35.7880   29.6460   32.1330 H   0  0  0  0  0  0  0  0  0  0  0  0
   34.0010   29.6120   33.7160 S   0  0  0  0  0  0  0  0  0  0  0  0
   33.8860   30.5560   35.2170 C   0  0  0  0  0  0  0  0  0  0  0  0
   32.6780   30.4390   35.8930 C   0  0  0  0  0  0  0  0  0  0  0  0
   32.5030   31.1510   37.0860 C   0  0  0  0  0  0  0  0  0  0  0  0
   33.5450   31.9280   37.5190 N   0  0  0  0  0  0  0  0  0  0  0  0
   34.6940   32.0020   36.8180 C   0  0  0  0  0  0  0  0  0  0  0  0
   34.8710   31.3370   35.6950 N   0  0  0  0  0  0  0  0  0  0  0  0
   31.8320   29.8490   35.6060 H   0  0  0  0  0  0  0  0  0  0  0  0
   31.5820   31.0920   37.6470 H   0  0  0  0  0  0  0  0  0  0  0  0
   35.4820   32.6470   37.2300 H   0  0  0  0  0  0  0  0  0  0  0  0
   37.1860   24.7740   30.9260 O   0  0  0  0  0  0  0  0  0  0  0  0
   34.8200   23.6540   32.0480 H   0  0  0  0  0  0  0  0  0  0  0  0
   35.5680   23.0360   31.6930 N   0  0  0  0  0  0  0  0  0  0  0  0
   36.7130   23.4880   31.1510 C   0  0  0  0  0  0  0  0  0  0  0  0
   37.4350   22.3840   30.8080 N   0  0  0  0  0  0  0  0  0  0  0  0
   36.7450   21.2730   31.1370 C   0  0  0  0  0  0  0  0  0  0  0  0
   37.0050   19.9230   31.0140 C   0  0  0  0  0  0  0  0  0  0  0  0
   37.9390   19.5600   30.5720 H   0  0  0  0  0  0  0  0  0  0  0  0
   36.0930   19.0150   31.4460 N   0  0  0  0  0  0  0  0  0  0  0  0
   34.9230   19.4500   32.0000 C   0  0  0  0  0  0  0  0  0  0  0  0
   34.2000   18.7010   32.3440 H   0  0  0  0  0  0  0  0  0  0  0  0
   34.6330   20.7770   32.1370 N   0  0  0  0  0  0  0  0  0  0  0  0
   35.5440   21.6910   31.7050 C   0  0  0  0  0  0  0  0  0  0  0  0
  1 14  1  0  0  0  0
  1  7  1  1  0  0  0
  2  8  1  6  0  0  0
  2  1  1  0  0  0  0
  2 16  1  0  0  0  0
  3 10  1  0  0  0  0
  3  2  1  0  0  0  0
  4  3  1  0  0  0  0
  5  4  1  0  0  0  0
  5  6  1  0  0  0  0
  6 13  1  1  0  0  0
  6  1  1  0  0  0  0
  9  3  1  0  0  0  0
 11  5  1  0  0  0  0
 12  5  1  0  0  0  0
 15 14  1  0  0  0  0
 17 18  1  0  0  0  0
 17 20  1  0  0  0  0
 17 16  1  0  0  0  0
 19 17  1  0  0  0  0
 20 21  1  0  0  0  0
 21 26  2  0  0  0  0
 21 22  1  0  0  0  0
 22 23  2  0  0  0  0
 23 24  1  0  0  0  0
 23 28  1  0  0  0  0
 25 29  1  0  0  0  0
 25 24  2  0  0  0  0
 26 25  1  0  0  0  0
 27 22  1  0  0  0  0
 30 33  1  0  0  0  0
 30  6  1  0  0  0  0
 32 42  1  0  0  0  0
 32 31  1  0  0  0  0
 33 32  1  0  0  0  0
 34 35  1  0  0  0  0
 34 33  2  0  0  0  0
 35 42  1  0  0  0  0
 36 35  2  0  0  0  0
 36 38  1  0  0  0  0
 37 36  1  0  0  0  0
 38 39  2  0  0  0  0
 39 41  1  0  0  0  0
 39 40  1  0  0  0  0
 42 41  2  0  0  0  0
M  END
>  <minimizedAffinity>
-4.97285271

$$$$
