
 OpenBabel03272509183D

 36 39  0  0  0  0  0  0  0  0999 V2000
   37.9800   31.3920   47.7670 C   0  0  0  0  0  0  0  0  0  0  0  0
   37.0220   31.3130   48.7720 C   0  0  0  0  0  0  0  0  0  0  0  0
   37.0830   32.3430   49.7240 C   0  0  0  0  0  0  0  0  0  0  0  0
   38.0550   33.3580   49.6330 C   0  0  0  0  0  0  0  0  0  0  0  0
   38.9770   33.3410   48.5730 C   0  0  0  0  0  0  0  0  0  0  0  0
   38.9200   32.3340   47.6400 C   0  0  0  0  0  0  0  0  0  0  0  0
   36.3630   32.3120   50.5070 H   0  0  0  0  0  0  0  0  0  0  0  0
   38.0420   34.1130   50.3940 H   0  0  0  0  0  0  0  0  0  0  0  0
   39.6660   34.1560   48.6020 H   0  0  0  0  0  0  0  0  0  0  0  0
   34.9010   30.3150   48.0490 C   0  0  0  0  0  0  0  0  0  0  0  0
   36.0340   30.2760   48.8590 C   0  0  0  0  0  0  0  0  0  0  0  0
   36.1680   29.1960   49.7490 C   0  0  0  0  0  0  0  0  0  0  0  0
   35.1770   28.2610   49.7590 N   0  0  0  0  0  0  0  0  0  0  0  0
   34.0890   28.3410   48.9500 C   0  0  0  0  0  0  0  0  0  0  0  0
   33.9530   29.3700   48.0950 N   0  0  0  0  0  0  0  0  0  0  0  0
   34.7280   31.1220   47.3320 H   0  0  0  0  0  0  0  0  0  0  0  0
   33.4370   27.4900   49.1300 H   0  0  0  0  0  0  0  0  0  0  0  0
   37.3440   29.1010   50.6310 C   0  0  0  0  0  0  0  0  0  0  0  0
   38.1960   28.5680   50.1520 H   0  0  0  0  0  0  0  0  0  0  0  0
   37.7370   30.1320   50.8550 H   0  0  0  0  0  0  0  0  0  0  0  0
   37.0490   28.6770   51.6150 H   0  0  0  0  0  0  0  0  0  0  0  0
   37.9830   30.3960   46.7780 O   0  0  0  0  0  0  0  0  0  0  0  0
   38.3040   29.4580   46.9650 H   0  0  0  0  0  0  0  0  0  0  0  0
   39.8540   32.3630   46.6150 O   0  0  0  0  0  0  0  0  0  0  0  0
   37.8520   33.7250   45.2420 H   0  0  0  0  0  0  0  0  0  0  0  0
   38.4160   32.9480   44.8190 N   0  0  0  0  0  0  0  0  0  0  0  0
   39.4090   32.1840   45.3120 C   0  0  0  0  0  0  0  0  0  0  0  0
   39.8130   31.3160   44.3650 N   0  0  0  0  0  0  0  0  0  0  0  0
   39.0740   31.5160   43.2340 C   0  0  0  0  0  0  0  0  0  0  0  0
   39.1040   30.8860   41.9940 C   0  0  0  0  0  0  0  0  0  0  0  0
   39.7990   30.0860   41.7910 H   0  0  0  0  0  0  0  0  0  0  0  0
   38.2170   31.3290   41.0550 N   0  0  0  0  0  0  0  0  0  0  0  0
   37.3740   32.3320   41.3630 C   0  0  0  0  0  0  0  0  0  0  0  0
   36.6980   32.6290   40.5640 H   0  0  0  0  0  0  0  0  0  0  0  0
   37.3310   32.9600   42.5730 N   0  0  0  0  0  0  0  0  0  0  0  0
   38.1930   32.5570   43.5440 C   0  0  0  0  0  0  0  0  0  0  0  0
  1  2  1  0  0  0  0
  2 11  1  0  0  0  0
  2  3  2  0  0  0  0
  3  7  1  0  0  0  0
  4  3  1  0  0  0  0
  4  8  1  0  0  0  0
  5  9  1  0  0  0  0
  5  4  2  0  0  0  0
  6  1  2  0  0  0  0
  6  5  1  0  0  0  0
 10 15  2  0  0  0  0
 10 11  1  0  0  0  0
 11 12  2  0  0  0  0
 12 13  1  0  0  0  0
 12 18  1  0  0  0  0
 14 17  1  0  0  0  0
 14 13  2  0  0  0  0
 15 14  1  0  0  0  0
 16 10  1  0  0  0  0
 18 20  1  0  0  0  0
 18 21  1  0  0  0  0
 19 18  1  0  0  0  0
 22 23  1  0  0  0  0
 22  1  1  0  0  0  0
 24  6  1  0  0  0  0
 26 25  1  0  0  0  0
 26 27  1  0  0  0  0
 27 24  1  0  0  0  0
 28 27  2  0  0  0  0
 29 36  1  0  0  0  0
 29 28  1  0  0  0  0
 30 29  2  0  0  0  0
 31 30  1  0  0  0  0
 32 33  2  0  0  0  0
 32 30  1  0  0  0  0
 33 35  1  0  0  0  0
 34 33  1  0  0  0  0
 35 36  2  0  0  0  0
 36 26  1  0  0  0  0
M  END
>  <minimizedAffinity>
-7.01493454

>  <minimizedRMSD>
0.616764128

$$$$
