
 OpenBabel03272509183D

 36 39  0  0  0  0  0  0  0  0999 V2000
   37.9410   31.3860   47.7700 C   0  0  0  0  0  0  0  0  0  0  0  0
   37.0340   31.3210   48.8220 C   0  0  0  0  0  0  0  0  0  0  0  0
   37.1270   32.3770   49.7440 C   0  0  0  0  0  0  0  0  0  0  0  0
   38.0800   33.4010   49.5800 C   0  0  0  0  0  0  0  0  0  0  0  0
   38.9500   33.3680   48.4770 C   0  0  0  0  0  0  0  0  0  0  0  0
   38.8610   32.3360   47.5730 C   0  0  0  0  0  0  0  0  0  0  0  0
   36.4470   32.3570   50.5620 H   0  0  0  0  0  0  0  0  0  0  0  0
   38.0940   34.1750   50.3210 H   0  0  0  0  0  0  0  0  0  0  0  0
   39.6280   34.1910   48.4510 H   0  0  0  0  0  0  0  0  0  0  0  0
   34.9050   30.2660   48.2140 C   0  0  0  0  0  0  0  0  0  0  0  0
   36.0660   30.2740   48.9840 C   0  0  0  0  0  0  0  0  0  0  0  0
   36.2470   29.2330   49.9090 C   0  0  0  0  0  0  0  0  0  0  0  0
   35.2720   28.2850   49.9900 N   0  0  0  0  0  0  0  0  0  0  0  0
   34.1550   28.3180   49.2180 C   0  0  0  0  0  0  0  0  0  0  0  0
   33.9730   29.3110   48.3290 N   0  0  0  0  0  0  0  0  0  0  0  0
   34.6940   31.0430   47.4730 H   0  0  0  0  0  0  0  0  0  0  0  0
   33.5230   27.4650   49.4530 H   0  0  0  0  0  0  0  0  0  0  0  0
   37.4550   29.1880   50.7520 C   0  0  0  0  0  0  0  0  0  0  0  0
   38.2970   28.6480   50.2640 H   0  0  0  0  0  0  0  0  0  0  0  0
   37.8390   30.2320   50.9230 H   0  0  0  0  0  0  0  0  0  0  0  0
   37.2010   28.7990   51.7620 H   0  0  0  0  0  0  0  0  0  0  0  0
   37.9090   30.3660   46.8080 O   0  0  0  0  0  0  0  0  0  0  0  0
   38.2520   29.4360   47.0020 H   0  0  0  0  0  0  0  0  0  0  0  0
   39.7430   32.3500   46.5030 O   0  0  0  0  0  0  0  0  0  0  0  0
   37.0890   32.6050   45.7030 H   0  0  0  0  0  0  0  0  0  0  0  0
   37.8970   32.6140   45.0340 N   0  0  0  0  0  0  0  0  0  0  0  0
   39.2250   32.5060   45.2240 C   0  0  0  0  0  0  0  0  0  0  0  0
   39.8510   32.5770   44.0340 N   0  0  0  0  0  0  0  0  0  0  0  0
   38.9180   32.7340   43.0490 C   0  0  0  0  0  0  0  0  0  0  0  0
   39.0490   32.8560   41.6690 C   0  0  0  0  0  0  0  0  0  0  0  0
   40.0200   32.8350   41.1970 H   0  0  0  0  0  0  0  0  0  0  0  0
   37.8970   33.0020   40.9500 N   0  0  0  0  0  0  0  0  0  0  0  0
   36.7150   33.0200   41.5920 C   0  0  0  0  0  0  0  0  0  0  0  0
   35.8440   33.1390   40.9510 H   0  0  0  0  0  0  0  0  0  0  0  0
   36.5680   32.9010   42.9440 N   0  0  0  0  0  0  0  0  0  0  0  0
   37.6830   32.7550   43.7060 C   0  0  0  0  0  0  0  0  0  0  0  0
  1  2  1  0  0  0  0
  2 11  1  0  0  0  0
  2  3  2  0  0  0  0
  3  7  1  0  0  0  0
  4  3  1  0  0  0  0
  4  8  1  0  0  0  0
  5  4  2  0  0  0  0
  6  1  2  0  0  0  0
  6  5  1  0  0  0  0
  9  5  1  0  0  0  0
 10 15  2  0  0  0  0
 10 11  1  0  0  0  0
 11 12  2  0  0  0  0
 12 13  1  0  0  0  0
 12 18  1  0  0  0  0
 14 17  1  0  0  0  0
 14 13  2  0  0  0  0
 15 14  1  0  0  0  0
 16 10  1  0  0  0  0
 18 20  1  0  0  0  0
 18 21  1  0  0  0  0
 19 18  1  0  0  0  0
 22 23  1  0  0  0  0
 22  1  1  0  0  0  0
 24  6  1  0  0  0  0
 26 27  1  0  0  0  0
 26 25  1  0  0  0  0
 27 24  1  0  0  0  0
 28 27  2  0  0  0  0
 29 36  1  0  0  0  0
 29 28  1  0  0  0  0
 30 29  2  0  0  0  0
 31 30  1  0  0  0  0
 32 33  2  0  0  0  0
 32 30  1  0  0  0  0
 33 35  1  0  0  0  0
 34 33  1  0  0  0  0
 35 36  2  0  0  0  0
 36 26  1  0  0  0  0
M  END
>  <minimizedAffinity>
-7.10656357

>  <minimizedRMSD>
0.276605666

$$$$
