
 OpenBabel03272508193D

 34 37  0  0  0  0  0  0  0  0999 V2000
   38.8000   22.1280   34.5090 C   0  0  0  0  0  0  0  0  0  0  0  0
   38.1410   21.2620   34.4090 H   0  0  0  0  0  0  0  0  0  0  0  0
   39.8470   21.6830   34.3480 H   0  0  0  0  0  0  0  0  0  0  0  0
   39.9230   22.5760   36.7060 C   0  0  0  0  0  0  0  0  0  0  0  0
   38.7840   22.5660   35.8930 C   0  0  0  0  0  0  0  0  0  0  0  0
   37.6280   22.9470   36.5220 C   0  0  0  0  0  0  0  0  0  0  0  0
   37.6140   23.3070   37.8360 N   0  0  0  0  0  0  0  0  0  0  0  0
   38.7280   23.3070   38.5950 C   0  0  0  0  0  0  0  0  0  0  0  0
   39.8890   22.9410   38.0310 N   0  0  0  0  0  0  0  0  0  0  0  0
   36.6500   22.9850   36.1000 H   0  0  0  0  0  0  0  0  0  0  0  0
   38.6840   23.5960   39.6330 H   0  0  0  0  0  0  0  0  0  0  0  0
   41.2450   22.2400   36.0310 C   0  0  0  0  0  0  0  0  0  0  0  0
   42.4900   22.5290   36.6350 C   0  0  0  0  0  0  0  0  0  0  0  0
   41.9570   21.1300   36.8910 C   0  0  0  0  0  0  0  0  0  0  0  0
   41.1200   21.8320   34.9970 H   0  0  0  0  0  0  0  0  0  0  0  0
   42.6760   23.1300   37.5240 H   0  0  0  0  0  0  0  0  0  0  0  0
   43.3960   22.5270   35.9570 H   0  0  0  0  0  0  0  0  0  0  0  0
   42.3600   20.2910   36.3260 H   0  0  0  0  0  0  0  0  0  0  0  0
   41.5800   20.9180   37.8830 H   0  0  0  0  0  0  0  0  0  0  0  0
   38.6600   23.1150   33.4340 C   0  0  0  0  0  0  0  0  0  0  0  0
   38.7370   24.1400   33.9040 H   0  0  0  0  0  0  0  0  0  0  0  0
   39.5510   23.1260   32.7240 H   0  0  0  0  0  0  0  0  0  0  0  0
   37.4850   23.0600   32.6290 N   0  0  0  0  0  0  0  0  0  0  0  0
   36.6620   22.2050   32.0420 C   0  0  0  0  0  0  0  0  0  0  0  0
   36.7800   21.1500   32.1040 H   0  0  0  0  0  0  0  0  0  0  0  0
   35.6610   22.7660   31.3430 N   0  0  0  0  0  0  0  0  0  0  0  0
   35.7920   24.1110   31.4470 C   0  0  0  0  0  0  0  0  0  0  0  0
   35.0160   25.0980   30.9110 C   0  0  0  0  0  0  0  0  0  0  0  0
   34.1710   24.8490   30.3140 H   0  0  0  0  0  0  0  0  0  0  0  0
   35.4120   26.3540   31.2020 N   0  0  0  0  0  0  0  0  0  0  0  0
   36.4930   26.5580   31.9650 C   0  0  0  0  0  0  0  0  0  0  0  0
   36.7920   27.5920   32.1850 H   0  0  0  0  0  0  0  0  0  0  0  0
   37.2300   25.5700   32.4740 N   0  0  0  0  0  0  0  0  0  0  0  0
   36.9240   24.2650   32.2460 C   0  0  0  0  0  0  0  0  0  0  0  0
  1  5  1  0  0  0  0
  2  1  1  0  0  0  0
  3  1  1  0  0  0  0
  4  9  1  0  0  0  0
  5  6  1  0  0  0  0
  5  4  2  0  0  0  0
  6  7  2  0  0  0  0
  7  8  1  0  0  0  0
  8 11  1  0  0  0  0
  9  8  2  0  0  0  0
 10  6  1  0  0  0  0
 12 13  1  0  0  0  0
 12  4  1  0  0  0  0
 12 14  1  0  0  0  0
 13 14  1  0  0  0  0
 13 16  1  0  0  0  0
 14 19  1  0  0  0  0
 15 12  1  0  0  0  0
 17 13  1  0  0  0  0
 18 14  1  0  0  0  0
 20 21  1  0  0  0  0
 20  1  1  0  0  0  0
 22 20  1  0  0  0  0
 23 20  1  0  0  0  0
 24 25  1  0  0  0  0
 24 23  1  0  0  0  0
 26 27  1  0  0  0  0
 26 24  2  0  0  0  0
 27 34  1  0  0  0  0
 28 30  1  0  0  0  0
 28 27  2  0  0  0  0
 29 28  1  0  0  0  0
 30 31  2  0  0  0  0
 31 32  1  0  0  0  0
 31 33  1  0  0  0  0
 34 33  2  0  0  0  0
 34 23  1  0  0  0  0
M  END
>  <minimizedAffinity>
-5.12459373

$$$$

 OpenBabel03272508193D

 34 37  0  0  0  0  0  0  0  0999 V2000
   38.1540   26.6440   35.6760 C   0  0  0  0  0  0  0  0  0  0  0  0
   37.3970   27.4330   35.6440 H   0  0  0  0  0  0  0  0  0  0  0  0
   38.7220   26.8640   36.6500 H   0  0  0  0  0  0  0  0  0  0  0  0
   38.7430   27.1570   33.2940 C   0  0  0  0  0  0  0  0  0  0  0  0
   39.1140   26.8810   34.6150 C   0  0  0  0  0  0  0  0  0  0  0  0
   40.4660   26.7930   34.8240 C   0  0  0  0  0  0  0  0  0  0  0  0
   41.3590   26.9670   33.8090 N   0  0  0  0  0  0  0  0  0  0  0  0
   40.9720   27.2310   32.5450 C   0  0  0  0  0  0  0  0  0  0  0  0
   39.6590   27.3270   32.2830 N   0  0  0  0  0  0  0  0  0  0  0  0
   40.9610   26.5670   35.7400 H   0  0  0  0  0  0  0  0  0  0  0  0
   41.7030   27.3620   31.7640 H   0  0  0  0  0  0  0  0  0  0  0  0
   37.2570   27.3450   33.0290 C   0  0  0  0  0  0  0  0  0  0  0  0
   36.7380   27.4720   31.7200 C   0  0  0  0  0  0  0  0  0  0  0  0
   36.7320   26.0620   32.2840 C   0  0  0  0  0  0  0  0  0  0  0  0
   36.6540   27.4580   33.9640 H   0  0  0  0  0  0  0  0  0  0  0  0
   37.2940   27.6040   30.7930 H   0  0  0  0  0  0  0  0  0  0  0  0
   35.6960   27.9020   31.6250 H   0  0  0  0  0  0  0  0  0  0  0  0
   35.8050   25.6440   32.6740 H   0  0  0  0  0  0  0  0  0  0  0  0
   37.4530   25.3630   31.8790 H   0  0  0  0  0  0  0  0  0  0  0  0
   37.6080   25.2980   35.8750 C   0  0  0  0  0  0  0  0  0  0  0  0
   36.5020   25.4070   36.0760 H   0  0  0  0  0  0  0  0  0  0  0  0
   37.6010   24.6780   34.9190 H   0  0  0  0  0  0  0  0  0  0  0  0
   38.1890   24.4870   36.8930 N   0  0  0  0  0  0  0  0  0  0  0  0
   38.1230   24.2390   38.1920 C   0  0  0  0  0  0  0  0  0  0  0  0
   37.4420   24.7320   38.8440 H   0  0  0  0  0  0  0  0  0  0  0  0
   38.9930   23.3180   38.6410 N   0  0  0  0  0  0  0  0  0  0  0  0
   39.7210   22.8910   37.5810 C   0  0  0  0  0  0  0  0  0  0  0  0
   40.7230   21.9640   37.5380 C   0  0  0  0  0  0  0  0  0  0  0  0
   41.0280   21.4660   38.4270 H   0  0  0  0  0  0  0  0  0  0  0  0
   41.2540   21.7580   36.3160 N   0  0  0  0  0  0  0  0  0  0  0  0
   40.7950   22.4400   35.2590 C   0  0  0  0  0  0  0  0  0  0  0  0
   41.2480   22.2510   34.2770 H   0  0  0  0  0  0  0  0  0  0  0  0
   39.8140   23.3390   35.3350 N   0  0  0  0  0  0  0  0  0  0  0  0
   39.2040   23.6280   36.5150 C   0  0  0  0  0  0  0  0  0  0  0  0
  1 20  1  0  0  0  0
  1  3  1  0  0  0  0
  2  1  1  0  0  0  0
  4  5  1  0  0  0  0
  5  6  2  0  0  0  0
  5  1  1  0  0  0  0
  6 10  1  0  0  0  0
  7  6  1  0  0  0  0
  8  7  2  0  0  0  0
  9  8  1  0  0  0  0
  9  4  2  0  0  0  0
 11  8  1  0  0  0  0
 12  4  1  0  0  0  0
 12 15  1  0  0  0  0
 13 14  1  0  0  0  0
 13 12  1  0  0  0  0
 14 18  1  0  0  0  0
 14 12  1  0  0  0  0
 16 13  1  0  0  0  0
 17 13  1  0  0  0  0
 19 14  1  0  0  0  0
 20 21  1  0  0  0  0
 20 23  1  0  0  0  0
 22 20  1  0  0  0  0
 23 24  1  0  0  0  0
 24 26  2  0  0  0  0
 24 25  1  0  0  0  0
 27 26  1  0  0  0  0
 28 27  1  0  0  0  0
 28 29  1  0  0  0  0
 30 28  2  0  0  0  0
 31 33  2  0  0  0  0
 31 30  1  0  0  0  0
 32 31  1  0  0  0  0
 33 34  1  0  0  0  0
 34 23  1  0  0  0  0
 34 27  2  0  0  0  0
M  END
>  <minimizedAffinity>
-4.91570187

$$$$

 OpenBabel03272508193D

 34 37  0  0  0  0  0  0  0  0999 V2000
   38.2260   27.0950   35.5840 C   0  0  0  0  0  0  0  0  0  0  0  0
   38.7300   28.0630   35.6620 H   0  0  0  0  0  0  0  0  0  0  0  0
   37.7920   26.9390   36.6350 H   0  0  0  0  0  0  0  0  0  0  0  0
   39.0950   24.7760   35.9700 C   0  0  0  0  0  0  0  0  0  0  0  0
   39.2310   26.0610   35.4310 C   0  0  0  0  0  0  0  0  0  0  0  0
   40.4210   26.2900   34.7920 C   0  0  0  0  0  0  0  0  0  0  0  0
   41.3810   25.3270   34.6990 N   0  0  0  0  0  0  0  0  0  0  0  0
   41.2220   24.0980   35.2290 C   0  0  0  0  0  0  0  0  0  0  0  0
   40.0760   23.8180   35.8680 N   0  0  0  0  0  0  0  0  0  0  0  0
   40.7410   27.2000   34.3370 H   0  0  0  0  0  0  0  0  0  0  0  0
   42.0000   23.3570   35.1390 H   0  0  0  0  0  0  0  0  0  0  0  0
   37.7590   24.4470   36.6180 C   0  0  0  0  0  0  0  0  0  0  0  0
   37.5190   23.2080   37.2560 C   0  0  0  0  0  0  0  0  0  0  0  0
   37.9910   24.3250   38.1700 C   0  0  0  0  0  0  0  0  0  0  0  0
   36.9850   25.2380   36.4580 H   0  0  0  0  0  0  0  0  0  0  0  0
   38.1460   22.3180   37.2400 H   0  0  0  0  0  0  0  0  0  0  0  0
   36.4370   22.9310   37.4390 H   0  0  0  0  0  0  0  0  0  0  0  0
   37.2680   24.8510   38.7910 H   0  0  0  0  0  0  0  0  0  0  0  0
   39.0060   24.2660   38.5420 H   0  0  0  0  0  0  0  0  0  0  0  0
   37.0510   27.1020   34.7070 C   0  0  0  0  0  0  0  0  0  0  0  0
   36.6740   26.0380   34.6400 H   0  0  0  0  0  0  0  0  0  0  0  0
   36.1550   27.6280   35.1710 H   0  0  0  0  0  0  0  0  0  0  0  0
   37.2060   27.6240   33.3890 N   0  0  0  0  0  0  0  0  0  0  0  0
   38.0000   27.5660   32.3310 C   0  0  0  0  0  0  0  0  0  0  0  0
   38.8680   26.9540   32.2890 H   0  0  0  0  0  0  0  0  0  0  0  0
   37.6370   28.3520   31.3030 N   0  0  0  0  0  0  0  0  0  0  0  0
   36.5080   29.0080   31.6670 C   0  0  0  0  0  0  0  0  0  0  0  0
   35.7680   29.9120   30.9600 C   0  0  0  0  0  0  0  0  0  0  0  0
   36.0610   30.1890   29.9750 H   0  0  0  0  0  0  0  0  0  0  0  0
   34.6850   30.3900   31.6070 N   0  0  0  0  0  0  0  0  0  0  0  0
   34.4060   29.9740   32.8480 C   0  0  0  0  0  0  0  0  0  0  0  0
   33.5180   30.3830   33.3500 H   0  0  0  0  0  0  0  0  0  0  0  0
   35.1500   29.0890   33.5110 N   0  0  0  0  0  0  0  0  0  0  0  0
   36.2640   28.5400   32.9580 C   0  0  0  0  0  0  0  0  0  0  0  0
  1  2  1  0  0  0  0
  1  3  1  0  0  0  0
  4 12  1  0  0  0  0
  5  1  1  0  0  0  0
  5  4  2  0  0  0  0
  6  5  1  0  0  0  0
  7  6  2  0  0  0  0
  7  8  1  0  0  0  0
  8  9  2  0  0  0  0
  9  4  1  0  0  0  0
 10  6  1  0  0  0  0
 11  8  1  0  0  0  0
 12 13  1  0  0  0  0
 12 14  1  0  0  0  0
 13 17  1  0  0  0  0
 13 14  1  0  0  0  0
 14 19  1  0  0  0  0
 14 18  1  0  0  0  0
 15 12  1  0  0  0  0
 16 13  1  0  0  0  0
 20 22  1  0  0  0  0
 20  1  1  0  0  0  0
 21 20  1  0  0  0  0
 23 20  1  0  0  0  0
 24 23  1  0  0  0  0
 25 24  1  0  0  0  0
 26 27  1  0  0  0  0
 26 24  2  0  0  0  0
 27 34  1  0  0  0  0
 28 30  1  0  0  0  0
 28 27  2  0  0  0  0
 29 28  1  0  0  0  0
 30 31  2  0  0  0  0
 31 32  1  0  0  0  0
 31 33  1  0  0  0  0
 34 23  1  0  0  0  0
 34 33  2  0  0  0  0
M  END
>  <minimizedAffinity>
-4.90304613

$$$$

 OpenBabel03272508193D

 34 37  0  0  0  0  0  0  0  0999 V2000
   38.0190   27.3500   35.5380 C   0  0  0  0  0  0  0  0  0  0  0  0
   38.4120   28.3700   35.5780 H   0  0  0  0  0  0  0  0  0  0  0  0
   37.7040   27.1470   36.6230 H   0  0  0  0  0  0  0  0  0  0  0  0
   39.1200   25.1050   35.7110 C   0  0  0  0  0  0  0  0  0  0  0  0
   39.1190   26.4390   35.2860 C   0  0  0  0  0  0  0  0  0  0  0  0
   40.2690   26.8410   34.6590 C   0  0  0  0  0  0  0  0  0  0  0  0
   41.3180   25.9910   34.4720 N   0  0  0  0  0  0  0  0  0  0  0  0
   41.2910   24.7110   34.8930 C   0  0  0  0  0  0  0  0  0  0  0  0
   40.1900   24.2630   35.5150 N   0  0  0  0  0  0  0  0  0  0  0  0
   40.4880   27.8140   34.2830 H   0  0  0  0  0  0  0  0  0  0  0  0
   42.1370   24.0620   34.7320 H   0  0  0  0  0  0  0  0  0  0  0  0
   37.8350   24.5880   36.3380 C   0  0  0  0  0  0  0  0  0  0  0  0
   37.7550   23.3130   36.9450 C   0  0  0  0  0  0  0  0  0  0  0  0
   38.0720   24.4600   37.8900 C   0  0  0  0  0  0  0  0  0  0  0  0
   36.9650   25.2750   36.1900 H   0  0  0  0  0  0  0  0  0  0  0  0
   38.4940   22.5140   36.9140 H   0  0  0  0  0  0  0  0  0  0  0  0
   36.7180   22.8930   37.1110 H   0  0  0  0  0  0  0  0  0  0  0  0
   37.2830   24.8720   38.5160 H   0  0  0  0  0  0  0  0  0  0  0  0
   39.0840   24.5250   38.2690 H   0  0  0  0  0  0  0  0  0  0  0  0
   36.7760   27.2180   34.7720 C   0  0  0  0  0  0  0  0  0  0  0  0
   36.8970   26.3300   34.0820 H   0  0  0  0  0  0  0  0  0  0  0  0
   35.8950   26.8850   35.4120 H   0  0  0  0  0  0  0  0  0  0  0  0
   36.3390   28.3410   34.0110 N   0  0  0  0  0  0  0  0  0  0  0  0
   35.7050   29.4980   34.1300 C   0  0  0  0  0  0  0  0  0  0  0  0
   35.3350   29.8650   35.0570 H   0  0  0  0  0  0  0  0  0  0  0  0
   35.5490   30.1820   32.9840 N   0  0  0  0  0  0  0  0  0  0  0  0
   36.1130   29.4530   31.9910 C   0  0  0  0  0  0  0  0  0  0  0  0
   36.2040   29.7330   30.6580 C   0  0  0  0  0  0  0  0  0  0  0  0
   35.7960   30.6370   30.2730 H   0  0  0  0  0  0  0  0  0  0  0  0
   36.8340   28.7950   29.9210 N   0  0  0  0  0  0  0  0  0  0  0  0
   37.3130   27.6910   30.5060 C   0  0  0  0  0  0  0  0  0  0  0  0
   37.8190   26.9440   29.8800 H   0  0  0  0  0  0  0  0  0  0  0  0
   37.2070   27.4470   31.8130 N   0  0  0  0  0  0  0  0  0  0  0  0
   36.5930   28.3220   32.6520 C   0  0  0  0  0  0  0  0  0  0  0  0
  1  2  1  0  0  0  0
  1  3  1  0  0  0  0
  4 12  1  0  0  0  0
  5  1  1  0  0  0  0
  5  4  2  0  0  0  0
  6  5  1  0  0  0  0
  7  6  2  0  0  0  0
  7  8  1  0  0  0  0
  8  9  2  0  0  0  0
  9  4  1  0  0  0  0
 10  6  1  0  0  0  0
 11  8  1  0  0  0  0
 12 13  1  0  0  0  0
 12 14  1  0  0  0  0
 13 17  1  0  0  0  0
 13 14  1  0  0  0  0
 14 19  1  0  0  0  0
 14 18  1  0  0  0  0
 15 12  1  0  0  0  0
 16 13  1  0  0  0  0
 20 22  1  0  0  0  0
 20  1  1  0  0  0  0
 21 20  1  0  0  0  0
 23 24  1  0  0  0  0
 23 20  1  0  0  0  0
 24 25  1  0  0  0  0
 26 24  2  0  0  0  0
 27 34  1  0  0  0  0
 27 26  1  0  0  0  0
 28 27  2  0  0  0  0
 29 28  1  0  0  0  0
 30 31  2  0  0  0  0
 30 28  1  0  0  0  0
 31 33  1  0  0  0  0
 32 31  1  0  0  0  0
 33 34  2  0  0  0  0
 34 23  1  0  0  0  0
M  END
>  <minimizedAffinity>
-4.89628315

$$$$

 OpenBabel03272508193D

 34 37  0  0  0  0  0  0  0  0999 V2000
   36.1910   28.9870   33.6460 C   0  0  0  0  0  0  0  0  0  0  0  0
   37.1400   29.5290   33.6290 H   0  0  0  0  0  0  0  0  0  0  0  0
   35.9980   28.8280   34.7670 H   0  0  0  0  0  0  0  0  0  0  0  0
   37.0950   26.6530   33.8010 C   0  0  0  0  0  0  0  0  0  0  0  0
   36.4080   27.6570   33.1080 C   0  0  0  0  0  0  0  0  0  0  0  0
   36.0010   27.3070   31.8470 C   0  0  0  0  0  0  0  0  0  0  0  0
   36.2550   26.0720   31.3310 N   0  0  0  0  0  0  0  0  0  0  0  0
   36.9200   25.1240   32.0220 C   0  0  0  0  0  0  0  0  0  0  0  0
   37.3430   25.4130   33.2620 N   0  0  0  0  0  0  0  0  0  0  0  0
   35.4900   27.9220   31.1430 H   0  0  0  0  0  0  0  0  0  0  0  0
   37.1060   24.1560   31.5860 H   0  0  0  0  0  0  0  0  0  0  0  0
   37.4940   26.9670   35.2350 C   0  0  0  0  0  0  0  0  0  0  0  0
   38.2760   26.0770   36.0080 C   0  0  0  0  0  0  0  0  0  0  0  0
   39.0570   27.1520   35.2720 C   0  0  0  0  0  0  0  0  0  0  0  0
   37.0370   27.9110   35.6230 H   0  0  0  0  0  0  0  0  0  0  0  0
   38.5500   25.0510   35.7680 H   0  0  0  0  0  0  0  0  0  0  0  0
   38.2720   26.2390   37.1280 H   0  0  0  0  0  0  0  0  0  0  0  0
   39.4090   28.0270   35.8170 H   0  0  0  0  0  0  0  0  0  0  0  0
   39.6380   26.8410   34.4130 H   0  0  0  0  0  0  0  0  0  0  0  0
   35.0420   29.7760   33.1910 C   0  0  0  0  0  0  0  0  0  0  0  0
   35.4030   30.8340   33.0240 H   0  0  0  0  0  0  0  0  0  0  0  0
   34.6960   29.4900   32.1440 H   0  0  0  0  0  0  0  0  0  0  0  0
   33.8840   29.8060   34.0210 N   0  0  0  0  0  0  0  0  0  0  0  0
   32.6510   29.3300   34.1080 C   0  0  0  0  0  0  0  0  0  0  0  0
   32.2290   28.6750   33.3850 H   0  0  0  0  0  0  0  0  0  0  0  0
   31.9550   29.7450   35.1800 N   0  0  0  0  0  0  0  0  0  0  0  0
   32.7570   30.5710   35.8950 C   0  0  0  0  0  0  0  0  0  0  0  0
   32.4950   31.2350   37.0590 C   0  0  0  0  0  0  0  0  0  0  0  0
   31.5450   31.1370   37.5280 H   0  0  0  0  0  0  0  0  0  0  0  0
   33.5120   31.9870   37.5260 N   0  0  0  0  0  0  0  0  0  0  0  0
   34.6700   32.0410   36.8560 C   0  0  0  0  0  0  0  0  0  0  0  0
   35.4800   32.6630   37.2610 H   0  0  0  0  0  0  0  0  0  0  0  0
   34.8940   31.3800   35.7210 N   0  0  0  0  0  0  0  0  0  0  0  0
   33.9410   30.5900   35.1580 C   0  0  0  0  0  0  0  0  0  0  0  0
  1  3  1  0  0  0  0
  2  1  1  0  0  0  0
  4 12  1  0  0  0  0
  5  1  1  0  0  0  0
  5  4  2  0  0  0  0
  6  5  1  0  0  0  0
  7  6  2  0  0  0  0
  7  8  1  0  0  0  0
  8  9  2  0  0  0  0
  9  4  1  0  0  0  0
 10  6  1  0  0  0  0
 11  8  1  0  0  0  0
 12 14  1  0  0  0  0
 12 15  1  0  0  0  0
 12 13  1  0  0  0  0
 13 17  1  0  0  0  0
 14 18  1  0  0  0  0
 14 13  1  0  0  0  0
 16 13  1  0  0  0  0
 19 14  1  0  0  0  0
 20  1  1  0  0  0  0
 20 23  1  0  0  0  0
 21 20  1  0  0  0  0
 22 20  1  0  0  0  0
 23 24  1  0  0  0  0
 23 34  1  0  0  0  0
 24 26  2  0  0  0  0
 25 24  1  0  0  0  0
 26 27  1  0  0  0  0
 27 28  1  0  0  0  0
 28 30  2  0  0  0  0
 28 29  1  0  0  0  0
 31 32  1  0  0  0  0
 31 30  1  0  0  0  0
 33 31  2  0  0  0  0
 34 33  1  0  0  0  0
 34 27  2  0  0  0  0
M  END
>  <minimizedAffinity>
-4.83731604

$$$$

 OpenBabel03272508193D

 34 37  0  0  0  0  0  0  0  0999 V2000
   35.8150   28.5930   33.7790 C   0  0  0  0  0  0  0  0  0  0  0  0
   35.8560   28.2280   34.8090 H   0  0  0  0  0  0  0  0  0  0  0  0
   34.8830   28.0730   33.3530 H   0  0  0  0  0  0  0  0  0  0  0  0
   37.8270   27.1090   33.5990 C   0  0  0  0  0  0  0  0  0  0  0  0
   36.9310   28.0300   33.0440 C   0  0  0  0  0  0  0  0  0  0  0  0
   37.2230   28.4100   31.7600 C   0  0  0  0  0  0  0  0  0  0  0  0
   38.3050   27.9150   31.0950 N   0  0  0  0  0  0  0  0  0  0  0  0
   39.1510   27.0280   31.6560 C   0  0  0  0  0  0  0  0  0  0  0  0
   38.9140   26.6210   32.9130 N   0  0  0  0  0  0  0  0  0  0  0  0
   36.6920   29.1150   31.1630 H   0  0  0  0  0  0  0  0  0  0  0  0
   39.9990   26.6540   31.1050 H   0  0  0  0  0  0  0  0  0  0  0  0
   37.4990   26.5940   34.9920 C   0  0  0  0  0  0  0  0  0  0  0  0
   38.3860   25.7610   35.7130 C   0  0  0  0  0  0  0  0  0  0  0  0
   38.5170   27.2470   36.0000 C   0  0  0  0  0  0  0  0  0  0  0  0
   36.4700   26.8690   35.3320 H   0  0  0  0  0  0  0  0  0  0  0  0
   39.2880   25.2730   35.3460 H   0  0  0  0  0  0  0  0  0  0  0  0
   37.9500   25.1910   36.5870 H   0  0  0  0  0  0  0  0  0  0  0  0
   38.0740   27.6590   36.9060 H   0  0  0  0  0  0  0  0  0  0  0  0
   39.3880   27.7530   35.6060 H   0  0  0  0  0  0  0  0  0  0  0  0
   35.5140   30.0230   33.6610 C   0  0  0  0  0  0  0  0  0  0  0  0
   36.3520   30.4970   33.0690 H   0  0  0  0  0  0  0  0  0  0  0  0
   34.6190   30.2330   32.9900 H   0  0  0  0  0  0  0  0  0  0  0  0
   35.3180   30.7640   34.8630 N   0  0  0  0  0  0  0  0  0  0  0  0
   35.9730   31.4700   35.7720 C   0  0  0  0  0  0  0  0  0  0  0  0
   37.0210   31.6440   35.7270 H   0  0  0  0  0  0  0  0  0  0  0  0
   35.2170   31.9490   36.7740 N   0  0  0  0  0  0  0  0  0  0  0  0
   33.9410   31.5510   36.5520 C   0  0  0  0  0  0  0  0  0  0  0  0
   32.8190   31.7910   37.2930 C   0  0  0  0  0  0  0  0  0  0  0  0
   32.8820   32.3680   38.1850 H   0  0  0  0  0  0  0  0  0  0  0  0
   31.6860   31.2520   36.8000 N   0  0  0  0  0  0  0  0  0  0  0  0
   31.7180   30.5410   35.6660 C   0  0  0  0  0  0  0  0  0  0  0  0
   30.7790   30.1130   35.2900 H   0  0  0  0  0  0  0  0  0  0  0  0
   32.8310   30.3240   34.9660 N   0  0  0  0  0  0  0  0  0  0  0  0
   34.0310   30.8210   35.3670 C   0  0  0  0  0  0  0  0  0  0  0  0
  1  2  1  0  0  0  0
  3  1  1  0  0  0  0
  4 12  1  0  0  0  0
  5  4  1  0  0  0  0
  5  1  1  0  0  0  0
  6  5  2  0  0  0  0
  7  8  2  0  0  0  0
  7  6  1  0  0  0  0
  8  9  1  0  0  0  0
  9  4  2  0  0  0  0
 10  6  1  0  0  0  0
 11  8  1  0  0  0  0
 12 15  1  0  0  0  0
 12 13  1  0  0  0  0
 12 14  1  0  0  0  0
 13 14  1  0  0  0  0
 13 17  1  0  0  0  0
 14 18  1  0  0  0  0
 16 13  1  0  0  0  0
 19 14  1  0  0  0  0
 20  1  1  0  0  0  0
 20 23  1  0  0  0  0
 21 20  1  0  0  0  0
 22 20  1  0  0  0  0
 23 34  1  0  0  0  0
 23 24  1  0  0  0  0
 24 26  2  0  0  0  0
 25 24  1  0  0  0  0
 27 26  1  0  0  0  0
 27 28  1  0  0  0  0
 28 29  1  0  0  0  0
 30 28  2  0  0  0  0
 31 30  1  0  0  0  0
 32 31  1  0  0  0  0
 33 34  1  0  0  0  0
 33 31  2  0  0  0  0
 34 27  2  0  0  0  0
M  END
>  <minimizedAffinity>
-4.82593441

$$$$

 OpenBabel03272508193D

 34 37  0  0  0  0  0  0  0  0999 V2000
   40.2930   23.7120   34.7950 C   0  0  0  0  0  0  0  0  0  0  0  0
   41.3550   23.7360   35.0560 H   0  0  0  0  0  0  0  0  0  0  0  0
   40.1310   24.7160   34.2610 H   0  0  0  0  0  0  0  0  0  0  0  0
   38.5900   24.8250   36.2590 C   0  0  0  0  0  0  0  0  0  0  0  0
   39.5150   23.8030   36.0160 C   0  0  0  0  0  0  0  0  0  0  0  0
   39.6760   22.9180   37.0490 C   0  0  0  0  0  0  0  0  0  0  0  0
   38.9770   23.0420   38.2130 N   0  0  0  0  0  0  0  0  0  0  0  0
   38.0920   24.0380   38.4190 C   0  0  0  0  0  0  0  0  0  0  0  0
   37.8950   24.9340   37.4410 N   0  0  0  0  0  0  0  0  0  0  0  0
   40.3430   22.0880   37.0860 H   0  0  0  0  0  0  0  0  0  0  0  0
   37.5550   24.1090   39.3520 H   0  0  0  0  0  0  0  0  0  0  0  0
   38.3160   25.7840   35.1110 C   0  0  0  0  0  0  0  0  0  0  0  0
   37.5190   26.9410   35.2730 C   0  0  0  0  0  0  0  0  0  0  0  0
   39.0120   27.1550   35.4500 C   0  0  0  0  0  0  0  0  0  0  0  0
   38.7310   25.4320   34.1340 H   0  0  0  0  0  0  0  0  0  0  0  0
   36.9020   27.2100   36.1290 H   0  0  0  0  0  0  0  0  0  0  0  0
   37.1240   27.4230   34.3280 H   0  0  0  0  0  0  0  0  0  0  0  0
   39.5900   27.5960   34.6390 H   0  0  0  0  0  0  0  0  0  0  0  0
   39.3730   27.3210   36.4570 H   0  0  0  0  0  0  0  0  0  0  0  0
   39.9470   22.7070   33.7860 C   0  0  0  0  0  0  0  0  0  0  0  0
   40.9020   22.4150   33.2580 H   0  0  0  0  0  0  0  0  0  0  0  0
   39.6300   21.7130   34.2420 H   0  0  0  0  0  0  0  0  0  0  0  0
   38.9640   23.0520   32.8130 N   0  0  0  0  0  0  0  0  0  0  0  0
   38.7550   23.8530   31.7800 C   0  0  0  0  0  0  0  0  0  0  0  0
   39.4850   24.5380   31.4190 H   0  0  0  0  0  0  0  0  0  0  0  0
   37.5400   23.7510   31.2160 N   0  0  0  0  0  0  0  0  0  0  0  0
   36.8470   22.8120   31.9030 C   0  0  0  0  0  0  0  0  0  0  0  0
   35.5730   22.3600   31.7050 C   0  0  0  0  0  0  0  0  0  0  0  0
   34.9810   22.7600   30.9160 H   0  0  0  0  0  0  0  0  0  0  0  0
   35.1670   21.4060   32.5680 N   0  0  0  0  0  0  0  0  0  0  0  0
   35.9940   20.9720   33.5270 C   0  0  0  0  0  0  0  0  0  0  0  0
   35.6350   20.1950   34.2150 H   0  0  0  0  0  0  0  0  0  0  0  0
   37.2330   21.4340   33.6930 N   0  0  0  0  0  0  0  0  0  0  0  0
   37.7480   22.3950   32.8820 C   0  0  0  0  0  0  0  0  0  0  0  0
  1  2  1  0  0  0  0
  1  5  1  0  0  0  0
  3  1  1  0  0  0  0
  4  9  1  0  0  0  0
  5  4  2  0  0  0  0
  5  6  1  0  0  0  0
  6 10  1  0  0  0  0
  6  7  2  0  0  0  0
  7  8  1  0  0  0  0
  8 11  1  0  0  0  0
  9  8  2  0  0  0  0
 12 13  1  0  0  0  0
 12 14  1  0  0  0  0
 12  4  1  0  0  0  0
 13 14  1  0  0  0  0
 13 16  1  0  0  0  0
 14 19  1  0  0  0  0
 15 12  1  0  0  0  0
 17 13  1  0  0  0  0
 18 14  1  0  0  0  0
 20 22  1  0  0  0  0
 20  1  1  0  0  0  0
 21 20  1  0  0  0  0
 23 34  1  0  0  0  0
 23 20  1  0  0  0  0
 24 23  1  0  0  0  0
 25 24  1  0  0  0  0
 26 24  2  0  0  0  0
 26 27  1  0  0  0  0
 27 34  1  0  0  0  0
 28 27  2  0  0  0  0
 28 30  1  0  0  0  0
 29 28  1  0  0  0  0
 30 31  2  0  0  0  0
 31 33  1  0  0  0  0
 31 32  1  0  0  0  0
 34 33  2  0  0  0  0
M  END
>  <minimizedAffinity>
-4.76086187

$$$$

 OpenBabel03272508193D

 34 37  0  0  0  0  0  0  0  0999 V2000
   37.2360   26.6220   34.6390 C   0  0  0  0  0  0  0  0  0  0  0  0
   36.3230   26.1410   35.0030 H   0  0  0  0  0  0  0  0  0  0  0  0
   37.3580   27.5220   35.3420 H   0  0  0  0  0  0  0  0  0  0  0  0
   36.2840   28.4040   33.1540 C   0  0  0  0  0  0  0  0  0  0  0  0
   36.9680   27.1950   33.3340 C   0  0  0  0  0  0  0  0  0  0  0  0
   37.3180   26.5580   32.1720 C   0  0  0  0  0  0  0  0  0  0  0  0
   37.0160   27.0800   30.9500 N   0  0  0  0  0  0  0  0  0  0  0  0
   36.3550   28.2470   30.8080 C   0  0  0  0  0  0  0  0  0  0  0  0
   35.9860   28.9130   31.9120 N   0  0  0  0  0  0  0  0  0  0  0  0
   37.8170   25.6210   32.0800 H   0  0  0  0  0  0  0  0  0  0  0  0
   36.1300   28.6340   29.8270 H   0  0  0  0  0  0  0  0  0  0  0  0
   35.9460   29.1890   34.4130 C   0  0  0  0  0  0  0  0  0  0  0  0
   35.4600   30.5150   34.3620 C   0  0  0  0  0  0  0  0  0  0  0  0
   34.3910   29.4370   34.4240 C   0  0  0  0  0  0  0  0  0  0  0  0
   36.2040   28.6430   35.3540 H   0  0  0  0  0  0  0  0  0  0  0  0
   35.4110   31.1740   33.4960 H   0  0  0  0  0  0  0  0  0  0  0  0
   35.5210   31.1170   35.3180 H   0  0  0  0  0  0  0  0  0  0  0  0
   33.8950   29.2300   35.3710 H   0  0  0  0  0  0  0  0  0  0  0  0
   33.8270   29.2460   33.5210 H   0  0  0  0  0  0  0  0  0  0  0  0
   38.4530   25.8320   34.8490 C   0  0  0  0  0  0  0  0  0  0  0  0
   38.7180   25.3500   33.8620 H   0  0  0  0  0  0  0  0  0  0  0  0
   39.3720   26.4780   35.0360 H   0  0  0  0  0  0  0  0  0  0  0  0
   38.4320   24.8320   35.8640 N   0  0  0  0  0  0  0  0  0  0  0  0
   37.6540   24.3160   36.8030 C   0  0  0  0  0  0  0  0  0  0  0  0
   36.6620   24.6530   36.9860 H   0  0  0  0  0  0  0  0  0  0  0  0
   38.2130   23.3320   37.5280 N   0  0  0  0  0  0  0  0  0  0  0  0
   39.4720   23.1450   37.0640 C   0  0  0  0  0  0  0  0  0  0  0  0
   40.4240   22.2600   37.4810 C   0  0  0  0  0  0  0  0  0  0  0  0
   40.2170   21.5890   38.2810 H   0  0  0  0  0  0  0  0  0  0  0  0
   41.5920   22.3210   36.8080 N   0  0  0  0  0  0  0  0  0  0  0  0
   41.7490   23.2040   35.8140 C   0  0  0  0  0  0  0  0  0  0  0  0
   42.7110   23.2310   35.2850 H   0  0  0  0  0  0  0  0  0  0  0  0
   40.7980   24.0560   35.4320 N   0  0  0  0  0  0  0  0  0  0  0  0
   39.5820   24.0830   36.0380 C   0  0  0  0  0  0  0  0  0  0  0  0
  1 20  1  0  0  0  0
  1  2  1  0  0  0  0
  1  3  1  0  0  0  0
  4  5  1  0  0  0  0
  4 12  1  0  0  0  0
  5  1  1  0  0  0  0
  6  5  2  0  0  0  0
  7  6  1  0  0  0  0
  8  7  2  0  0  0  0
  8  9  1  0  0  0  0
  9  4  2  0  0  0  0
 10  6  1  0  0  0  0
 11  8  1  0  0  0  0
 12 14  1  0  0  0  0
 12 15  1  0  0  0  0
 13 12  1  0  0  0  0
 13 14  1  0  0  0  0
 13 17  1  0  0  0  0
 14 18  1  0  0  0  0
 16 13  1  0  0  0  0
 19 14  1  0  0  0  0
 20 22  1  0  0  0  0
 20 23  1  0  0  0  0
 21 20  1  0  0  0  0
 23 34  1  0  0  0  0
 23 24  1  0  0  0  0
 24 25  1  0  0  0  0
 24 26  2  0  0  0  0
 27 28  1  0  0  0  0
 27 26  1  0  0  0  0
 28 29  1  0  0  0  0
 30 28  2  0  0  0  0
 31 30  1  0  0  0  0
 32 31  1  0  0  0  0
 33 31  2  0  0  0  0
 33 34  1  0  0  0  0
 34 27  2  0  0  0  0
M  END
>  <minimizedAffinity>
-4.76055193

$$$$

 OpenBabel03272508193D

 34 37  0  0  0  0  0  0  0  0999 V2000
   38.3080   24.3540   32.9480 C   0  0  0  0  0  0  0  0  0  0  0  0
   39.3430   24.1270   32.6780 H   0  0  0  0  0  0  0  0  0  0  0  0
   38.2690   25.5010   32.9000 H   0  0  0  0  0  0  0  0  0  0  0  0
   38.0700   24.9910   35.3610 C   0  0  0  0  0  0  0  0  0  0  0  0
   38.1110   24.0260   34.3470 C   0  0  0  0  0  0  0  0  0  0  0  0
   38.0090   22.7320   34.7840 C   0  0  0  0  0  0  0  0  0  0  0  0
   37.8770   22.4310   36.1070 N   0  0  0  0  0  0  0  0  0  0  0  0
   37.8410   23.3820   37.0620 C   0  0  0  0  0  0  0  0  0  0  0  0
   37.9380   24.6680   36.6910 N   0  0  0  0  0  0  0  0  0  0  0  0
   38.0450   21.8480   34.1890 H   0  0  0  0  0  0  0  0  0  0  0  0
   37.7360   23.1130   38.1010 H   0  0  0  0  0  0  0  0  0  0  0  0
   38.0960   26.4460   34.9180 C   0  0  0  0  0  0  0  0  0  0  0  0
   38.3190   27.5040   35.8290 C   0  0  0  0  0  0  0  0  0  0  0  0
   39.5610   26.9870   35.1230 C   0  0  0  0  0  0  0  0  0  0  0  0
   37.8390   26.5830   33.8380 H   0  0  0  0  0  0  0  0  0  0  0  0
   38.3430   27.4520   36.9170 H   0  0  0  0  0  0  0  0  0  0  0  0
   38.0290   28.5420   35.4850 H   0  0  0  0  0  0  0  0  0  0  0  0
   39.9710   27.5460   34.2840 H   0  0  0  0  0  0  0  0  0  0  0  0
   40.2550   26.3990   35.7090 H   0  0  0  0  0  0  0  0  0  0  0  0
   37.3210   23.9190   31.9550 C   0  0  0  0  0  0  0  0  0  0  0  0
   36.3130   23.8990   32.4650 H   0  0  0  0  0  0  0  0  0  0  0  0
   37.1430   24.6940   31.1390 H   0  0  0  0  0  0  0  0  0  0  0  0
   37.5370   22.6700   31.3030 N   0  0  0  0  0  0  0  0  0  0  0  0
   38.3590   22.0610   30.4620 C   0  0  0  0  0  0  0  0  0  0  0  0
   39.2120   22.5340   30.0380 H   0  0  0  0  0  0  0  0  0  0  0  0
   38.0330   20.7910   30.1660 N   0  0  0  0  0  0  0  0  0  0  0  0
   36.9020   20.4890   30.8480 C   0  0  0  0  0  0  0  0  0  0  0  0
   36.1920   19.3230   30.8700 C   0  0  0  0  0  0  0  0  0  0  0  0
   36.5150   18.4890   30.2920 H   0  0  0  0  0  0  0  0  0  0  0  0
   35.0980   19.3370   31.6590 N   0  0  0  0  0  0  0  0  0  0  0  0
   34.7800   20.4410   32.3460 C   0  0  0  0  0  0  0  0  0  0  0  0
   33.8830   20.4230   32.9790 H   0  0  0  0  0  0  0  0  0  0  0  0
   35.4960   21.5650   32.3020 N   0  0  0  0  0  0  0  0  0  0  0  0
   36.6180   21.6650   31.5420 C   0  0  0  0  0  0  0  0  0  0  0  0
  1  5  1  0  0  0  0
  2  1  1  0  0  0  0
  3  1  1  0  0  0  0
  4  9  1  0  0  0  0
  5  6  1  0  0  0  0
  5  4  2  0  0  0  0
  6  7  2  0  0  0  0
  7  8  1  0  0  0  0
  8 11  1  0  0  0  0
  9  8  2  0  0  0  0
 10  6  1  0  0  0  0
 12 14  1  0  0  0  0
 12  4  1  0  0  0  0
 12 13  1  0  0  0  0
 13 16  1  0  0  0  0
 14 19  1  0  0  0  0
 14 13  1  0  0  0  0
 15 12  1  0  0  0  0
 17 13  1  0  0  0  0
 18 14  1  0  0  0  0
 20 21  1  0  0  0  0
 20  1  1  0  0  0  0
 22 20  1  0  0  0  0
 23 34  1  0  0  0  0
 23 20  1  0  0  0  0
 24 23  1  0  0  0  0
 25 24  1  0  0  0  0
 26 24  2  0  0  0  0
 26 27  1  0  0  0  0
 27 28  2  0  0  0  0
 27 34  1  0  0  0  0
 28 30  1  0  0  0  0
 29 28  1  0  0  0  0
 30 31  2  0  0  0  0
 31 32  1  0  0  0  0
 33 31  1  0  0  0  0
 34 33  2  0  0  0  0
M  END
>  <minimizedAffinity>
-4.74767065

$$$$
