
 OpenBabel03262520463D

 37 40  0  0  1  0  0  0  0  0999 V2000
   38.7150   32.2550   46.8840 C   0  0  1  0  0  0  0  0  0  0  0  0
   39.8790   33.0170   46.2730 C   0  0  0  0  0  0  0  0  0  0  0  0
   39.8700   31.5480   46.3000 C   0  0  2  0  0  0  0  0  0  0  0  0
   37.7320   32.2370   46.3550 H   0  0  0  0  0  0  0  0  0  0  0  0
   40.5560   33.5850   46.9340 H   0  0  0  0  0  0  0  0  0  0  0  0
   39.6060   33.4790   45.2810 H   0  0  0  0  0  0  0  0  0  0  0  0
   40.6340   31.0980   47.0000 H   0  0  0  0  0  0  0  0  0  0  0  0
   38.5760   32.4000   48.3820 C   0  0  0  0  0  0  0  0  0  0  0  0
   39.5540   32.4600   48.8750 H   0  0  0  0  0  0  0  0  0  0  0  0
   38.0000   33.3310   48.6030 H   0  0  0  0  0  0  0  0  0  0  0  0
   37.4380   29.8620   50.8870 C   0  0  0  0  0  0  0  0  0  0  0  0
   38.1270   30.9660   50.2730 C   0  0  0  0  0  0  0  0  0  0  0  0
   37.8420   31.2580   48.9640 C   0  0  0  0  0  0  0  0  0  0  0  0
   36.9400   30.5140   48.3010 N   0  0  0  0  0  0  0  0  0  0  0  0
   36.2970   29.4780   48.8860 C   0  0  0  0  0  0  0  0  0  0  0  0
   36.5570   29.1740   50.1560 N   0  0  0  0  0  0  0  0  0  0  0  0
   37.6360   29.6020   51.9160 H   0  0  0  0  0  0  0  0  0  0  0  0
   38.8190   31.4620   50.9410 H   0  0  0  0  0  0  0  0  0  0  0  0
   35.6150   29.0080   48.1880 H   0  0  0  0  0  0  0  0  0  0  0  0
   39.6050   30.7020   45.0990 C   0  0  0  0  0  0  0  0  0  0  0  0
   39.5410   29.6410   45.4130 H   0  0  0  0  0  0  0  0  0  0  0  0
   38.6430   30.9840   44.5960 H   0  0  0  0  0  0  0  0  0  0  0  0
   40.6640   30.8580   44.0160 C   0  0  0  0  0  0  0  0  0  0  0  0
   41.4470   30.0980   44.0840 H   0  0  0  0  0  0  0  0  0  0  0  0
   41.0810   31.8720   44.0270 H   0  0  0  0  0  0  0  0  0  0  0  0
   39.9510   30.7510   42.7350 N   0  0  0  0  0  0  0  0  0  0  0  0
   39.3750   31.6710   41.9400 C   0  0  0  0  0  0  0  0  0  0  0  0
   39.3920   32.7090   42.2180 H   0  0  0  0  0  0  0  0  0  0  0  0
   38.8510   31.0540   40.8710 N   0  0  0  0  0  0  0  0  0  0  0  0
   39.0780   29.7280   40.9560 C   0  0  0  0  0  0  0  0  0  0  0  0
   38.7940   28.6210   40.1910 C   0  0  0  0  0  0  0  0  0  0  0  0
   38.2600   28.7280   39.2760 H   0  0  0  0  0  0  0  0  0  0  0  0
   39.1650   27.3650   40.5450 N   0  0  0  0  0  0  0  0  0  0  0  0
   39.8400   27.2250   41.6990 C   0  0  0  0  0  0  0  0  0  0  0  0
   40.2100   26.3150   42.1330 H   0  0  0  0  0  0  0  0  0  0  0  0
   40.1370   28.2840   42.4730 N   0  0  0  0  0  0  0  0  0  0  0  0
   39.7810   29.5430   42.1480 C   0  0  0  0  0  0  0  0  0  0  0  0
  1  4  1  6  0  0  0
  1  8  1  0  0  0  0
  2  3  1  0  0  0  0
  2  1  1  0  0  0  0
  2  5  1  0  0  0  0
  3  1  1  0  0  0  0
  3  7  1  1  0  0  0
  6  2  1  0  0  0  0
  8 10  1  0  0  0  0
  8  9  1  0  0  0  0
  8 13  1  0  0  0  0
 11 17  1  0  0  0  0
 12 11  1  0  0  0  0
 12 18  1  0  0  0  0
 13 12  2  0  0  0  0
 14 15  2  0  0  0  0
 14 13  1  0  0  0  0
 15 16  1  0  0  0  0
 16 11  2  0  0  0  0
 19 15  1  0  0  0  0
 20 21  1  0  0  0  0
 20  3  1  0  0  0  0
 22 20  1  0  0  0  0
 23 25  1  0  0  0  0
 23 24  1  0  0  0  0
 23 20  1  0  0  0  0
 26 23  1  0  0  0  0
 27 28  1  0  0  0  0
 27 26  1  0  0  0  0
 29 30  1  0  0  0  0
 29 27  2  0  0  0  0
 30 37  1  0  0  0  0
 31 33  1  0  0  0  0
 31 30  2  0  0  0  0
 32 31  1  0  0  0  0
 33 34  2  0  0  0  0
 34 35  1  0  0  0  0
 34 36  1  0  0  0  0
 37 36  2  0  0  0  0
 37 26  1  0  0  0  0
M  END
>  <minimizedAffinity>
-5.22590399

>  <minimizedRMSD>
1.35387504

$$$$
