
 OpenBabel03262520463D

 37 40  0  0  1  0  0  0  0  0999 V2000
   38.5460   31.9450   46.9290 C   0  0  1  0  0  0  0  0  0  0  0  0
   39.6640   32.6180   46.1510 C   0  0  0  0  0  0  0  0  0  0  0  0
   39.5710   31.1540   46.2240 C   0  0  2  0  0  0  0  0  0  0  0  0
   37.5040   31.9770   46.5310 H   0  0  0  0  0  0  0  0  0  0  0  0
   40.4540   33.1570   46.7040 H   0  0  0  0  0  0  0  0  0  0  0  0
   39.2940   33.0750   45.1890 H   0  0  0  0  0  0  0  0  0  0  0  0
   40.3910   30.6710   46.8330 H   0  0  0  0  0  0  0  0  0  0  0  0
   38.6100   32.1320   48.4280 C   0  0  0  0  0  0  0  0  0  0  0  0
   39.6440   32.0960   48.7950 H   0  0  0  0  0  0  0  0  0  0  0  0
   38.1660   33.1230   48.6880 H   0  0  0  0  0  0  0  0  0  0  0  0
   37.3180   29.9920   51.2140 C   0  0  0  0  0  0  0  0  0  0  0  0
   38.0450   30.9960   50.4830 C   0  0  0  0  0  0  0  0  0  0  0  0
   37.8400   31.0850   49.1300 C   0  0  0  0  0  0  0  0  0  0  0  0
   36.9780   30.2440   48.5340 N   0  0  0  0  0  0  0  0  0  0  0  0
   36.2990   29.3030   49.2290 C   0  0  0  0  0  0  0  0  0  0  0  0
   36.4800   29.1960   50.5440 N   0  0  0  0  0  0  0  0  0  0  0  0
   37.4530   29.8920   52.2800 H   0  0  0  0  0  0  0  0  0  0  0  0
   38.6970   31.5920   51.1080 H   0  0  0  0  0  0  0  0  0  0  0  0
   35.6590   28.7290   48.5710 H   0  0  0  0  0  0  0  0  0  0  0  0
   39.1030   30.3000   45.0920 C   0  0  0  0  0  0  0  0  0  0  0  0
   39.1800   29.2350   45.3880 H   0  0  0  0  0  0  0  0  0  0  0  0
   38.0370   30.5190   44.8200 H   0  0  0  0  0  0  0  0  0  0  0  0
   39.8830   30.5370   43.8050 C   0  0  0  0  0  0  0  0  0  0  0  0
   40.9260   30.8050   43.9920 H   0  0  0  0  0  0  0  0  0  0  0  0
   39.3780   31.2830   43.1800 H   0  0  0  0  0  0  0  0  0  0  0  0
   39.7990   29.2820   43.0450 N   0  0  0  0  0  0  0  0  0  0  0  0
   39.1290   28.1360   43.2610 C   0  0  0  0  0  0  0  0  0  0  0  0
   38.5080   28.0320   44.1340 H   0  0  0  0  0  0  0  0  0  0  0  0
   39.3890   27.2840   42.2600 N   0  0  0  0  0  0  0  0  0  0  0  0
   40.2330   27.8620   41.3810 C   0  0  0  0  0  0  0  0  0  0  0  0
   40.8380   27.5010   40.2010 C   0  0  0  0  0  0  0  0  0  0  0  0
   40.6630   26.5350   39.7870 H   0  0  0  0  0  0  0  0  0  0  0  0
   41.6690   28.3240   39.5140 N   0  0  0  0  0  0  0  0  0  0  0  0
   41.8930   29.5440   40.0340 C   0  0  0  0  0  0  0  0  0  0  0  0
   42.5150   30.3200   39.6320 H   0  0  0  0  0  0  0  0  0  0  0  0
   41.3190   29.9340   41.1860 N   0  0  0  0  0  0  0  0  0  0  0  0
   40.4890   29.1370   41.8900 C   0  0  0  0  0  0  0  0  0  0  0  0
  1  4  1  6  0  0  0
  1  8  1  0  0  0  0
  2  3  1  0  0  0  0
  2  5  1  0  0  0  0
  2  1  1  0  0  0  0
  3  7  1  1  0  0  0
  3  1  1  0  0  0  0
  6  2  1  0  0  0  0
  8 10  1  0  0  0  0
  8  9  1  0  0  0  0
  8 13  1  0  0  0  0
 11 17  1  0  0  0  0
 12 18  1  0  0  0  0
 12 11  2  0  0  0  0
 13 12  1  0  0  0  0
 14 13  2  0  0  0  0
 14 15  1  0  0  0  0
 15 16  2  0  0  0  0
 16 11  1  0  0  0  0
 19 15  1  0  0  0  0
 20 21  1  0  0  0  0
 20  3  1  0  0  0  0
 22 20  1  0  0  0  0
 23 24  1  0  0  0  0
 23 20  1  0  0  0  0
 25 23  1  0  0  0  0
 26 27  1  0  0  0  0
 26 23  1  0  0  0  0
 27 28  1  0  0  0  0
 29 27  2  0  0  0  0
 30 37  1  0  0  0  0
 30 29  1  0  0  0  0
 31 30  2  0  0  0  0
 32 31  1  0  0  0  0
 33 34  2  0  0  0  0
 33 31  1  0  0  0  0
 34 36  1  0  0  0  0
 35 34  1  0  0  0  0
 36 37  2  0  0  0  0
 37 26  1  0  0  0  0
M  END
>  <minimizedAffinity>
-5.46240139

>  <minimizedRMSD>
0.650921285

$$$$
