
     RDKit          3D

 37 40  0  0  0  0  0  0  0  0999 V2000
   38.6987   32.1638   48.4259 C   0  0  0  0  0  0  0  0  0  0  0  0
   37.3263   29.9333   51.0988 C   0  0  0  0  0  0  0  0  0  0  0  0
   38.0797   30.9551   50.4230 C   0  0  0  0  0  0  0  0  0  0  0  0
   37.9018   31.1012   49.0705 C   0  0  0  0  0  0  0  0  0  0  0  0
   37.0402   30.2959   48.4260 N   0  0  0  0  0  0  0  0  0  0  0  0
   36.3361   29.3378   49.0701 C   0  0  0  0  0  0  0  0  0  0  0  0
   36.4906   29.1757   50.3818 N   0  0  0  0  0  0  0  0  0  0  0  0
   38.6865   32.0199   46.9212 C   0  0  1  0  0  0  0  0  0  0  0  0
   39.7475   32.8271   46.1923 C   0  0  0  0  0  0  0  0  0  0  0  0
   39.8029   31.3588   46.2193 C   0  0  2  0  0  0  0  0  0  0  0  0
   39.4485   30.4990   45.0508 C   0  0  0  0  0  0  0  0  0  0  0  0
   40.2842   30.8024   43.8142 C   0  0  0  0  0  0  0  0  0  0  0  0
   39.7195   32.1136   48.8283 H   0  0  0  0  0  0  0  0  0  0  0  0
   38.2491   33.1491   48.6976 H   0  0  0  0  0  0  0  0  0  0  0  0
   37.4392   29.7878   52.1629 H   0  0  0  0  0  0  0  0  0  0  0  0
   38.7279   31.5158   51.0839 H   0  0  0  0  0  0  0  0  0  0  0  0
   35.7011   28.8003   48.3769 H   0  0  0  0  0  0  0  0  0  0  0  0
   37.6560   31.9591   46.4979 H   0  0  0  0  0  0  0  0  0  0  0  0
   40.4660   33.4251   46.7802 H   0  0  0  0  0  0  0  0  0  0  0  0
   39.3536   33.2738   45.2347 H   0  0  0  0  0  0  0  0  0  0  0  0
   40.6540   30.9427   46.8337 H   0  0  0  0  0  0  0  0  0  0  0  0
   39.5722   29.4347   45.3371 H   0  0  0  0  0  0  0  0  0  0  0  0
   38.3893   30.6596   44.7221 H   0  0  0  0  0  0  0  0  0  0  0  0
   41.3553   30.6679   43.9885 H   0  0  0  0  0  0  0  0  0  0  0  0
   40.0580   31.8036   43.4318 H   0  0  0  0  0  0  0  0  0  0  0  0
   39.8123   29.8794   42.7723 N   0  0  0  0  0  0  0  0  0  0  0  0
   39.7556   29.9802   41.4319 C   0  0  0  0  0  0  0  0  0  0  0  0
   40.1012   30.8741   40.9442 H   0  0  0  0  0  0  0  0  0  0  0  0
   39.2355   28.8496   40.9325 N   0  0  0  0  0  0  0  0  0  0  0  0
   38.9474   28.0001   41.9381 C   0  0  0  0  0  0  0  0  0  0  0  0
   38.4162   26.7369   42.0502 C   0  0  0  0  0  0  0  0  0  0  0  0
   38.1232   26.2034   41.1756 H   0  0  0  0  0  0  0  0  0  0  0  0
   38.2382   26.1129   43.2408 N   0  0  0  0  0  0  0  0  0  0  0  0
   38.6067   26.7832   44.3465 C   0  0  0  0  0  0  0  0  0  0  0  0
   38.5399   26.4492   45.3650 H   0  0  0  0  0  0  0  0  0  0  0  0
   39.1300   28.0202   44.2779 N   0  0  0  0  0  0  0  0  0  0  0  0
   39.3185   28.6647   43.1084 C   0  0  0  0  0  0  0  0  0  0  0  0
  1  4  1  0
  3  2  2  0
  4  3  1  0
  5  4  2  0
  5  6  1  0
  6  7  2  0
  7  2  1  0
  8  1  1  0
  9 10  1  0
  9  8  1  0
 10  8  1  0
 11 10  1  0
 12 11  1  0
  1 13  1  0
  1 14  1  0
  2 15  1  0
  3 16  1  0
  6 17  1  0
  8 18  1  6
  9 19  1  0
  9 20  1  0
 10 21  1  1
 11 22  1  0
 11 23  1  0
 12 24  1  0
 12 25  1  0
 26 27  1  0
 27 28  1  0
 27 29  2  0
 29 30  1  0
 30 31  2  0
 31 32  1  0
 31 33  1  0
 33 34  2  0
 34 35  1  0
 34 36  1  0
 36 37  2  0
 37 26  1  0
 37 30  1  0
 12 26  1  0
M  ISO  8  13   8  14   8  15  14  16  14  17  14  18  13  19  13  20  13
M  ISO  8  21  13  22   8  23   8  24   8  25   8  28  15  32  16  35  16
M  END
>  <DihAtoms>  (1) 
10,11,25,26

>  <DihDeg>  (1) 
90.00454083128751

$$$$
