
 OpenBabel03272506473D

 40 42  0  0  1  0  0  0  0  0999 V2000
   32.1540   28.4550   47.4220 C   0  0  2  0  0  0  0  0  0  0  0  0
   33.3820   28.3690   48.2770 C   0  0  1  0  0  0  0  0  0  0  0  0
   33.8180   27.0660   48.2500 O   0  0  0  0  0  0  0  0  0  0  0  0
   33.1720   26.3900   47.2180 C   0  0  0  0  0  0  0  0  0  0  0  0
   32.5570   27.4250   46.3100 C   0  0  1  0  0  0  0  0  0  0  0  0
   31.2430   28.0800   47.8680 H   0  0  0  0  0  0  0  0  0  0  0  0
   33.1780   28.7380   49.3040 H   0  0  0  0  0  0  0  0  0  0  0  0
   34.0180   25.9350   46.6040 H   0  0  0  0  0  0  0  0  0  0  0  0
   32.5230   25.6240   47.6010 H   0  0  0  0  0  0  0  0  0  0  0  0
   33.2610   27.9770   45.6900 H   0  0  0  0  0  0  0  0  0  0  0  0
   32.0480   29.7330   46.8450 O   0  0  0  0  0  0  0  0  0  0  0  0
   31.0830   29.9230   46.6990 H   0  0  0  0  0  0  0  0  0  0  0  0
   34.6780   29.4180   47.5200 S   0  0  0  0  0  0  0  0  0  0  0  0
   37.1420   29.3000   50.6060 C   0  0  0  0  0  0  0  0  0  0  0  0
   37.6220   30.5840   50.7460 C   0  0  0  0  0  0  0  0  0  0  0  0
   37.1670   31.5470   49.8430 C   0  0  0  0  0  0  0  0  0  0  0  0
   36.2850   31.1730   48.8870 N   0  0  0  0  0  0  0  0  0  0  0  0
   35.8360   29.9030   48.7810 C   0  0  0  0  0  0  0  0  0  0  0  0
   36.2630   28.9470   49.6460 N   0  0  0  0  0  0  0  0  0  0  0  0
   37.5390   28.5760   51.3440 H   0  0  0  0  0  0  0  0  0  0  0  0
   38.3240   30.9480   51.4780 H   0  0  0  0  0  0  0  0  0  0  0  0
   37.4260   32.6020   49.7920 H   0  0  0  0  0  0  0  0  0  0  0  0
   31.4480   26.8940   45.7110 O   0  0  0  0  0  0  0  0  0  0  0  0
   29.9200   28.6220   43.8860 Cl  0  0  0  0  0  0  0  0  0  0  0  0
   29.3850   27.8150   45.3370 C   0  0  0  0  0  0  0  0  0  0  0  0
   30.1890   27.0230   46.1210 C   0  0  0  0  0  0  0  0  0  0  0  0
   29.6270   26.4290   47.2490 C   0  0  0  0  0  0  0  0  0  0  0  0
   28.3020   26.6290   47.5700 C   0  0  0  0  0  0  0  0  0  0  0  0
   27.4830   27.4190   46.7900 C   0  0  0  0  0  0  0  0  0  0  0  0
   28.0480   28.0140   45.6560 C   0  0  0  0  0  0  0  0  0  0  0  0
   30.1970   25.7950   47.9060 H   0  0  0  0  0  0  0  0  0  0  0  0
   27.8950   26.1560   48.4510 H   0  0  0  0  0  0  0  0  0  0  0  0
   26.4700   27.5480   47.0860 H   0  0  0  0  0  0  0  0  0  0  0  0
   27.0980   28.8400   44.8690 C   0  0  0  0  0  2  0  0  0  0  0  0
   26.4930   28.2160   43.7480 N   0  0  0  0  0  4  0  0  0  0  0  0
   26.9610   27.3570   43.3790 H   0  0  0  0  0  0  0  0  0  0  0  0
   25.1110   27.8830   43.9850 C   0  0  0  0  0  2  0  0  0  0  0  0
   24.6710   27.2920   43.1460 H   0  0  0  0  0  0  0  0  0  0  0  0
   26.4610   29.2580   42.6990 C   0  0  0  0  0  2  0  0  0  0  0  0
   25.8180   28.9000   41.9060 H   0  0  0  0  0  0  0  0  0  0  0  0
  1  6  1  1  0  0  0
  1  2  1  0  0  0  0
  2  7  1  1  0  0  0
  3  2  1  0  0  0  0
  4  9  1  0  0  0  0
  4  3  1  0  0  0  0
  5 10  1  6  0  0  0
  5  4  1  0  0  0  0
  5  1  1  0  0  0  0
  8  4  1  0  0  0  0
 11  1  1  0  0  0  0
 12 11  1  0  0  0  0
 13  2  1  0  0  0  0
 13 18  1  0  0  0  0
 14 15  1  0  0  0  0
 14 20  1  0  0  0  0
 15 21  1  0  0  0  0
 16 15  2  0  0  0  0
 17 16  1  0  0  0  0
 18 17  2  0  0  0  0
 18 19  1  0  0  0  0
 19 14  2  0  0  0  0
 22 16  1  0  0  0  0
 23 26  1  0  0  0  0
 23  5  1  0  0  0  0
 24 25  1  0  0  0  0
 25 30  2  0  0  0  0
 25 26  1  0  0  0  0
 26 27  2  0  0  0  0
 27 28  1  0  0  0  0
 27 31  1  0  0  0  0
 28 32  1  0  0  0  0
 29 33  1  0  0  0  0
 29 28  2  0  0  0  0
 30 29  1  0  0  0  0
 34 30  1  0  0  0  0
 35 37  1  0  0  0  0
 35 34  1  0  0  0  0
 36 35  1  0  0  0  0
 38 37  1  0  0  0  0
 39 35  1  0  0  0  0
 40 39  1  0  0  0  0
M  END
>  <minimizedAffinity>
-4.64110088

>  <minimizedRMSD>
0.393489838

$$$$
