REMARK  Name = 
REMARK  7 active torsions:
REMARK  status: ('A' for Active; 'I' for Inactive)
REMARK    1  A    between atoms: C_1  and  C_8
REMARK    2  A    between atoms: C_3  and  N_12
REMARK    3  A    between atoms: C_10  and  C_13
REMARK    4  A    between atoms: C_17  and  C_30
REMARK    5  A    between atoms: C_30  and  N_31
REMARK    6  A    between atoms: N_31  and  C_32
REMARK    7  A    between atoms: N_31  and  C_34
REMARK                            x       y       z     vdW  Elec       q    Type
REMARK                         _______ _______ _______ _____ _____    ______ ____
ROOT
ATOM      1  C   UNL     1      38.412  31.843  44.522  0.00  0.00    +0.000 C 
ATOM      2  O   UNL     1      37.294  32.426  44.398  0.00  0.00    +0.000 OA
ATOM      3  N   UNL     1      38.943  31.565  45.821  0.00  0.00    +0.000 N 
ATOM      4  H   UNL     1      39.914  31.271  45.964  0.00  0.00    +0.000 HD
ENDROOT
BRANCH   1   5
ATOM      5  C   UNL     1      39.183  31.442  43.334  0.00  0.00    +0.000 A 
ATOM      6  C   UNL     1      40.148  30.482  43.483  0.00  0.00    +0.000 A 
ATOM      7  C   UNL     1      40.874  30.102  42.363  0.00  0.00    +0.000 A 
ATOM      8  C   UNL     1      40.581  30.710  41.177  0.00  0.00    +0.000 A 
ATOM      9  C   UNL     1      39.595  31.696  41.007  0.00  0.00    +0.000 A 
ATOM     10  N   UNL     1      38.941  32.005  42.136  0.00  0.00    +0.000 NA
ATOM     11  H   UNL     1      40.371  30.010  44.423  0.00  0.00    +0.000 HD
ATOM     12  H   UNL     1      41.648  29.348  42.428  0.00  0.00    +0.000 HD
ATOM     13  H   UNL     1      41.152  30.406  40.314  0.00  0.00    +0.000 HD
BRANCH   9  14
ATOM     14  C   UNL     1      39.340  32.304  39.688  0.00  0.00    +0.000 C 
BRANCH  14  15
ATOM     15  N   UNL     1      38.006  32.118  39.195  0.00  0.00    +0.000 N 
ATOM     16  H   UNL     1      38.064  31.665  38.255  0.00  0.00    +0.000 HD
BRANCH  15  17
ATOM     17  C   UNL     1      37.206  31.244  40.035  0.00  0.00    +0.000 C 
ATOM     18  H   UNL     1      37.812  30.395  40.367  0.00  0.00    +0.000 HD
ENDBRANCH  15  17
BRANCH  15  19
ATOM     19  C   UNL     1      37.326  33.410  39.019  0.00  0.00    +0.000 C 
ATOM     20  H   UNL     1      37.143  33.632  37.965  0.00  0.00    +0.000 HD
ENDBRANCH  15  19
ENDBRANCH  14  15
ENDBRANCH   9  14
ENDBRANCH   1   5
BRANCH   3  23
ATOM     21  C   UNL     1      38.418  31.118  48.219  0.00  0.00    +0.000 C 
ATOM     22  C   UNL     1      38.673  32.563  48.102  0.00  0.00    +0.000 C 
ATOM     23  C   UNL     1      38.054  31.713  46.959  0.00  0.00    +0.000 C 
ATOM     24  H   UNL     1      39.369  30.525  48.316  0.00  0.00    +0.000 HD
ATOM     25  H   UNL     1      37.983  33.280  48.602  0.00  0.00    +0.000 HD
ATOM     26  H   UNL     1      39.680  32.951  47.952  0.00  0.00    +0.000 HD
ATOM     27  H   UNL     1      36.988  31.941  46.745  0.00  0.00    +0.000 HD
BRANCH  21  32
ATOM     28  C   UNL     1      35.093  30.224  49.555  0.00  0.00    +0.000 A 
ATOM     29  C   UNL     1      35.421  29.542  50.757  0.00  0.00    +0.000 A 
ATOM     30  C   UNL     1      36.820  29.411  51.093  0.00  0.00    +0.000 A 
ATOM     31  N   UNL     1      37.749  29.938  50.254  0.00  0.00    +0.000 NA
ATOM     32  C   UNL     1      37.362  30.580  49.116  0.00  0.00    +0.000 A 
ATOM     33  N   UNL     1      36.043  30.739  48.741  0.00  0.00    +0.000 NA
ATOM     34  H   UNL     1      34.032  30.291  49.357  0.00  0.00    +0.000 HD
ATOM     35  H   UNL     1      34.656  29.144  51.386  0.00  0.00    +0.000 HD
ATOM     36  H   UNL     1      37.077  28.893  52.007  0.00  0.00    +0.000 HD
ENDBRANCH  21  32
ENDBRANCH   3  23
TORSDOF 7
