
 OpenBabel03262523343D

 38 41  0  0  1  0  0  0  0  0999 V2000
   35.2890   25.9880   30.8780 C   0  0  0  0  0  0  0  0  0  0  0  0
   35.3570   24.6080   30.8680 C   0  0  0  0  0  0  0  0  0  0  0  0
   36.1850   23.9570   31.7940 C   0  0  0  0  0  0  0  0  0  0  0  0
   36.8970   24.7330   32.6740 N   0  0  0  0  0  0  0  0  0  0  0  0
   36.7960   26.0750   32.6430 C   0  0  0  0  0  0  0  0  0  0  0  0
   36.0170   26.7110   31.7750 N   0  0  0  0  0  0  0  0  0  0  0  0
   34.6630   26.5390   30.1840 H   0  0  0  0  0  0  0  0  0  0  0  0
   34.7840   24.0300   30.1640 H   0  0  0  0  0  0  0  0  0  0  0  0
   37.6280   22.0280   31.8930 C   0  0  0  0  0  0  0  0  0  0  0  0
   36.3140   22.5240   31.8570 C   0  0  0  0  0  0  0  0  0  0  0  0
   35.2720   21.6380   31.8840 C   0  0  0  0  0  0  0  0  0  0  0  0
   35.5180   20.2890   31.9460 C   0  0  0  0  0  0  0  0  0  0  0  0
   34.6490   19.2630   31.9830 N   0  0  0  0  0  0  0  0  0  0  0  0
   35.3710   18.1340   32.0400 C   0  0  0  0  0  0  0  0  0  0  0  0
   36.6780   18.4170   32.0420 N   0  0  0  0  0  0  0  0  0  0  0  0
   36.7970   19.7610   31.9840 C   0  0  0  0  0  0  0  0  0  0  0  0
   37.8500   20.6500   31.9560 C   0  0  0  0  0  0  0  0  0  0  0  0
   38.5340   22.6330   31.8770 H   0  0  0  0  0  0  0  0  0  0  0  0
   34.2630   22.0150   31.8570 H   0  0  0  0  0  0  0  0  0  0  0  0
   33.5890   19.3520   31.9670 H   0  0  0  0  0  0  0  0  0  0  0  0
   34.8880   17.1600   32.0790 H   0  0  0  0  0  0  0  0  0  0  0  0
   38.8360   20.2100   31.9870 H   0  0  0  0  0  0  0  0  0  0  0  0
   37.5770   26.8300   33.6140 C   0  0  0  0  0  0  0  0  0  0  0  0
   37.1720   27.8900   34.1480 O   0  0  0  0  0  0  0  0  0  0  0  0
   38.9460   26.3140   33.9990 C   0  0  1  0  0  0  0  0  0  0  0  0
   39.5380   26.9760   35.2550 C   0  0  0  0  0  0  0  0  0  0  0  0
   39.1340   25.5510   35.2240 C   0  0  1  0  0  0  0  0  0  0  0  0
   39.6940   26.3210   33.1650 H   0  0  0  0  0  0  0  0  0  0  0  0
   38.9030   27.7150   35.7850 H   0  0  0  0  0  0  0  0  0  0  0  0
   40.6000   27.2830   35.2360 H   0  0  0  0  0  0  0  0  0  0  0  0
   40.0340   24.8630   35.1950 H   0  0  0  0  0  0  0  0  0  0  0  0
   38.0500   25.0040   36.0760 C   0  0  0  0  0  2  0  0  0  0  0  0
   38.4460   23.7160   36.6760 N   0  0  0  0  0  4  0  0  0  0  0  0
   39.5100   23.7140   36.6830 H   0  0  0  0  0  0  0  0  0  0  0  0
   38.0220   22.5860   35.9120 C   0  0  0  0  0  2  0  0  0  0  0  0
   38.6990   21.7330   36.1970 H   0  0  0  0  0  0  0  0  0  0  0  0
   38.0190   23.6690   38.0550 C   0  0  0  0  0  2  0  0  0  0  0  0
   37.8020   24.6960   38.4420 H   0  0  0  0  0  0  0  0  0  0  0  0
  1  6  1  0  0  0  0
  2  1  2  0  0  0  0
  2  3  1  0  0  0  0
  3 10  1  0  0  0  0
  3  4  2  0  0  0  0
  5  4  1  0  0  0  0
  5 23  1  0  0  0  0
  6  5  2  0  0  0  0
  7  1  1  0  0  0  0
  8  2  1  0  0  0  0
  9 17  1  0  0  0  0
 10 11  1  0  0  0  0
 10  9  2  0  0  0  0
 11 12  2  0  0  0  0
 12 13  1  0  0  0  0
 12 16  1  0  0  0  0
 13 14  1  0  0  0  0
 14 15  2  0  0  0  0
 14 21  1  0  0  0  0
 16 15  1  0  0  0  0
 17 16  2  0  0  0  0
 17 22  1  0  0  0  0
 18  9  1  0  0  0  0
 19 11  1  0  0  0  0
 20 13  1  0  0  0  0
 23 25  1  0  0  0  0
 23 24  2  0  0  0  0
 25 28  1  6  0  0  0
 25 27  1  0  0  0  0
 25 26  1  0  0  0  0
 26 29  1  0  0  0  0
 27 31  1  6  0  0  0
 27 26  1  0  0  0  0
 27 32  1  0  0  0  0
 30 26  1  0  0  0  0
 32 33  1  0  0  0  0
 33 34  1  0  0  0  0
 33 37  1  0  0  0  0
 35 36  1  0  0  0  0
 35 33  1  0  0  0  0
 37 38  1  0  0  0  0
M  END
>  <minimizedAffinity>
-5.69894791

$$$$

 OpenBabel03262523343D

 38 41  0  0  1  0  0  0  0  0999 V2000
   36.8920   29.0400   31.3160 C   0  0  0  0  0  0  0  0  0  0  0  0
   36.1470   29.8060   32.1920 C   0  0  0  0  0  0  0  0  0  0  0  0
   35.9120   29.3290   33.4890 C   0  0  0  0  0  0  0  0  0  0  0  0
   36.4390   28.1070   33.8290 N   0  0  0  0  0  0  0  0  0  0  0  0
   37.1580   27.3990   32.9380 C   0  0  0  0  0  0  0  0  0  0  0  0
   37.3920   27.8330   31.7050 N   0  0  0  0  0  0  0  0  0  0  0  0
   37.1030   29.3640   30.3020 H   0  0  0  0  0  0  0  0  0  0  0  0
   35.7490   30.7610   31.8930 H   0  0  0  0  0  0  0  0  0  0  0  0
   35.8920   30.8980   35.3190 C   0  0  0  0  0  0  0  0  0  0  0  0
   35.1510   30.0620   34.4680 C   0  0  0  0  0  0  0  0  0  0  0  0
   33.7930   30.0020   34.6180 C   0  0  0  0  0  0  0  0  0  0  0  0
   33.1740   30.7510   35.5890 C   0  0  0  0  0  0  0  0  0  0  0  0
   31.8680   30.8360   35.8990 N   0  0  0  0  0  0  0  0  0  0  0  0
   31.7600   31.7000   36.9190 C   0  0  0  0  0  0  0  0  0  0  0  0
   32.9640   32.1660   37.2650 N   0  0  0  0  0  0  0  0  0  0  0  0
   33.8670   31.5860   36.4460 C   0  0  0  0  0  0  0  0  0  0  0  0
   35.2370   31.6500   36.2980 C   0  0  0  0  0  0  0  0  0  0  0  0
   36.9730   31.0290   35.2950 H   0  0  0  0  0  0  0  0  0  0  0  0
   33.2210   29.3610   33.9670 H   0  0  0  0  0  0  0  0  0  0  0  0
   31.0830   30.3080   35.4130 H   0  0  0  0  0  0  0  0  0  0  0  0
   30.7900   31.9380   37.3520 H   0  0  0  0  0  0  0  0  0  0  0  0
   35.7510   32.3100   36.9810 H   0  0  0  0  0  0  0  0  0  0  0  0
   37.6900   26.1160   33.3750 C   0  0  0  0  0  0  0  0  0  0  0  0
   37.0990   25.0250   33.1860 O   0  0  0  0  0  0  0  0  0  0  0  0
   39.0210   26.0910   34.0950 C   0  0  1  0  0  0  0  0  0  0  0  0
   39.1500   27.1370   35.2150 C   0  0  0  0  0  0  0  0  0  0  0  0
   39.1020   25.6830   35.4890 C   0  0  1  0  0  0  0  0  0  0  0  0
   39.9130   26.1310   33.4190 H   0  0  0  0  0  0  0  0  0  0  0  0
   38.2600   27.7660   35.4270 H   0  0  0  0  0  0  0  0  0  0  0  0
   40.0890   27.7150   35.2880 H   0  0  0  0  0  0  0  0  0  0  0  0
   40.1190   25.2810   35.7850 H   0  0  0  0  0  0  0  0  0  0  0  0
   38.0120   25.0470   36.2680 C   0  0  0  0  0  2  0  0  0  0  0  0
   38.4260   23.7270   36.7800 N   0  0  0  0  0  4  0  0  0  0  0  0
   39.4840   23.7730   36.8800 H   0  0  0  0  0  0  0  0  0  0  0  0
   38.1270   22.6570   35.8820 C   0  0  0  0  0  2  0  0  0  0  0  0
   38.8240   21.8120   36.1460 H   0  0  0  0  0  0  0  0  0  0  0  0
   37.8900   23.5280   38.1060 C   0  0  0  0  0  2  0  0  0  0  0  0
   37.5860   24.5020   38.5660 H   0  0  0  0  0  0  0  0  0  0  0  0
  1  6  2  0  0  0  0
  1  2  1  0  0  0  0
  2  3  2  0  0  0  0
  3  4  1  0  0  0  0
  3 10  1  0  0  0  0
  5 23  1  0  0  0  0
  5  4  2  0  0  0  0
  6  5  1  0  0  0  0
  7  1  1  0  0  0  0
  8  2  1  0  0  0  0
  9 17  1  0  0  0  0
 10 11  1  0  0  0  0
 10  9  2  0  0  0  0
 11 12  2  0  0  0  0
 12 13  1  0  0  0  0
 12 16  1  0  0  0  0
 13 14  1  0  0  0  0
 14 15  2  0  0  0  0
 14 21  1  0  0  0  0
 16 15  1  0  0  0  0
 17 16  2  0  0  0  0
 17 22  1  0  0  0  0
 18  9  1  0  0  0  0
 19 11  1  0  0  0  0
 20 13  1  0  0  0  0
 23 25  1  0  0  0  0
 24 23  2  0  0  0  0
 25 28  1  6  0  0  0
 25 26  1  0  0  0  0
 25 27  1  0  0  0  0
 26 30  1  0  0  0  0
 26 29  1  0  0  0  0
 26 27  1  0  0  0  0
 27 31  1  1  0  0  0
 27 32  1  0  0  0  0
 32 33  1  0  0  0  0
 33 34  1  0  0  0  0
 33 37  1  0  0  0  0
 35 36  1  0  0  0  0
 35 33  1  0  0  0  0
 37 38  1  0  0  0  0
M  END
>  <minimizedAffinity>
-5.6782012

$$$$

 OpenBabel03262523343D

 38 41  0  0  1  0  0  0  0  0999 V2000
   36.9720   28.7520   31.2080 C   0  0  0  0  0  0  0  0  0  0  0  0
   36.2180   29.5370   32.0600 C   0  0  0  0  0  0  0  0  0  0  0  0
   35.9810   29.0930   33.3690 C   0  0  0  0  0  0  0  0  0  0  0  0
   36.5140   27.8850   33.7430 N   0  0  0  0  0  0  0  0  0  0  0  0
   37.2420   27.1580   32.8740 C   0  0  0  0  0  0  0  0  0  0  0  0
   37.4780   27.5600   31.6310 N   0  0  0  0  0  0  0  0  0  0  0  0
   37.1850   29.0500   30.1860 H   0  0  0  0  0  0  0  0  0  0  0  0
   35.8150   30.4800   31.7340 H   0  0  0  0  0  0  0  0  0  0  0  0
   33.8410   29.5400   34.3850 C   0  0  0  0  0  0  0  0  0  0  0  0
   35.2110   29.8470   34.3240 C   0  0  0  0  0  0  0  0  0  0  0  0
   35.7090   30.8150   35.1520 C   0  0  0  0  0  0  0  0  0  0  0  0
   34.8750   31.4690   36.0250 C   0  0  0  0  0  0  0  0  0  0  0  0
   35.1600   32.4390   36.9140 N   0  0  0  0  0  0  0  0  0  0  0  0
   34.0130   32.7540   37.5350 C   0  0  0  0  0  0  0  0  0  0  0  0
   33.0080   32.0090   37.0640 N   0  0  0  0  0  0  0  0  0  0  0  0
   33.5220   31.1950   36.1170 C   0  0  0  0  0  0  0  0  0  0  0  0
   33.0150   30.2200   35.2840 C   0  0  0  0  0  0  0  0  0  0  0  0
   33.3320   28.7920   33.7790 H   0  0  0  0  0  0  0  0  0  0  0  0
   36.7590   31.0540   35.1070 H   0  0  0  0  0  0  0  0  0  0  0  0
   36.1210   32.8620   37.0770 H   0  0  0  0  0  0  0  0  0  0  0  0
   33.9860   33.5210   38.3060 H   0  0  0  0  0  0  0  0  0  0  0  0
   31.9570   30.0280   35.3780 H   0  0  0  0  0  0  0  0  0  0  0  0
   37.7810   25.8900   33.3480 C   0  0  0  0  0  0  0  0  0  0  0  0
   37.1930   24.7920   33.1960 O   0  0  0  0  0  0  0  0  0  0  0  0
   39.1160   25.8920   34.0620 C   0  0  1  0  0  0  0  0  0  0  0  0
   39.2880   27.0390   35.0720 C   0  0  0  0  0  0  0  0  0  0  0  0
   39.1930   25.6220   35.4890 C   0  0  1  0  0  0  0  0  0  0  0  0
   40.0040   25.8350   33.3810 H   0  0  0  0  0  0  0  0  0  0  0  0
   38.4200   27.7150   35.2240 H   0  0  0  0  0  0  0  0  0  0  0  0
   40.2460   27.5900   35.0830 H   0  0  0  0  0  0  0  0  0  0  0  0
   40.1990   25.2170   35.8180 H   0  0  0  0  0  0  0  0  0  0  0  0
   38.0890   25.1030   36.3320 C   0  0  0  0  0  2  0  0  0  0  0  0
   38.4060   23.7600   36.8550 N   0  0  0  0  0  4  0  0  0  0  0  0
   39.4670   23.7140   36.9120 H   0  0  0  0  0  0  0  0  0  0  0  0
   37.9790   22.7050   35.9920 C   0  0  0  0  0  2  0  0  0  0  0  0
   38.6090   21.8070   36.2460 H   0  0  0  0  0  0  0  0  0  0  0  0
   37.9080   23.6330   38.2050 C   0  0  0  0  0  2  0  0  0  0  0  0
   37.7100   24.6390   38.6550 H   0  0  0  0  0  0  0  0  0  0  0  0
  1  6  2  0  0  0  0
  1  2  1  0  0  0  0
  2  3  2  0  0  0  0
  3  4  1  0  0  0  0
  3 10  1  0  0  0  0
  5 23  1  0  0  0  0
  5  4  2  0  0  0  0
  6  5  1  0  0  0  0
  7  1  1  0  0  0  0
  8  2  1  0  0  0  0
  9 17  1  0  0  0  0
 10  9  2  0  0  0  0
 10 11  1  0  0  0  0
 11 12  2  0  0  0  0
 12 16  1  0  0  0  0
 12 13  1  0  0  0  0
 13 20  1  0  0  0  0
 13 14  1  0  0  0  0
 14 21  1  0  0  0  0
 15 14  2  0  0  0  0
 16 15  1  0  0  0  0
 17 22  1  0  0  0  0
 17 16  2  0  0  0  0
 18  9  1  0  0  0  0
 19 11  1  0  0  0  0
 23 25  1  0  0  0  0
 24 23  2  0  0  0  0
 25 28  1  6  0  0  0
 25 26  1  0  0  0  0
 25 27  1  0  0  0  0
 26 30  1  0  0  0  0
 26 29  1  0  0  0  0
 26 27  1  0  0  0  0
 27 31  1  1  0  0  0
 27 32  1  0  0  0  0
 32 33  1  0  0  0  0
 33 34  1  0  0  0  0
 33 37  1  0  0  0  0
 35 36  1  0  0  0  0
 35 33  1  0  0  0  0
 37 38  1  0  0  0  0
M  END
>  <minimizedAffinity>
-5.67561054

$$$$

 OpenBabel03262523343D

 38 41  0  0  1  0  0  0  0  0999 V2000
   43.5570   26.5500   33.9930 C   0  0  0  0  0  0  0  0  0  0  0  0
   42.2850   27.0650   33.8270 C   0  0  0  0  0  0  0  0  0  0  0  0
   41.1950   26.3860   34.3900 C   0  0  0  0  0  0  0  0  0  0  0  0
   41.4480   25.2300   35.0860 N   0  0  0  0  0  0  0  0  0  0  0  0
   42.7060   24.7720   35.2190 C   0  0  0  0  0  0  0  0  0  0  0  0
   43.7530   25.3990   34.6940 N   0  0  0  0  0  0  0  0  0  0  0  0
   44.4350   27.0370   33.5790 H   0  0  0  0  0  0  0  0  0  0  0  0
   42.1230   27.9740   33.2750 H   0  0  0  0  0  0  0  0  0  0  0  0
   39.1580   27.0790   35.4780 C   0  0  0  0  0  0  0  0  0  0  0  0
   39.8370   26.8510   34.2690 C   0  0  0  0  0  0  0  0  0  0  0  0
   39.1830   27.0800   33.0900 C   0  0  0  0  0  0  0  0  0  0  0  0
   37.8840   27.5260   33.0990 C   0  0  0  0  0  0  0  0  0  0  0  0
   37.0710   27.8100   32.0650 N   0  0  0  0  0  0  0  0  0  0  0  0
   35.9000   28.2100   32.5810 C   0  0  0  0  0  0  0  0  0  0  0  0
   35.9480   28.1880   33.9170 N   0  0  0  0  0  0  0  0  0  0  0  0
   37.1810   27.7630   34.2660 C   0  0  0  0  0  0  0  0  0  0  0  0
   37.8360   27.5330   35.4580 C   0  0  0  0  0  0  0  0  0  0  0  0
   39.5720   26.9330   36.4740 H   0  0  0  0  0  0  0  0  0  0  0  0
   39.7010   26.9060   32.1610 H   0  0  0  0  0  0  0  0  0  0  0  0
   37.3300   27.7250   31.0370 H   0  0  0  0  0  0  0  0  0  0  0  0
   35.0720   28.4980   31.9370 H   0  0  0  0  0  0  0  0  0  0  0  0
   37.2630   27.7270   36.3520 H   0  0  0  0  0  0  0  0  0  0  0  0
   42.8950   23.5430   35.9780 C   0  0  0  0  0  0  0  0  0  0  0  0
   43.7230   23.4320   36.9140 O   0  0  0  0  0  0  0  0  0  0  0  0
   42.0540   22.3360   35.6220 C   0  0  1  0  0  0  0  0  0  0  0  0
   42.2290   21.1420   36.5770 C   0  0  0  0  0  0  0  0  0  0  0  0
   40.9660   21.9090   36.4880 C   0  0  1  0  0  0  0  0  0  0  0  0
   42.1530   22.0010   34.5580 H   0  0  0  0  0  0  0  0  0  0  0  0
   42.8990   21.2860   37.4500 H   0  0  0  0  0  0  0  0  0  0  0  0
   42.3320   20.1320   36.1410 H   0  0  0  0  0  0  0  0  0  0  0  0
   40.1600   21.3240   35.9480 H   0  0  0  0  0  0  0  0  0  0  0  0
   40.4130   22.6830   37.6260 C   0  0  0  0  0  2  0  0  0  0  0  0
   39.1180   23.2960   37.2720 N   0  0  0  0  0  4  0  0  0  0  0  0
   39.3490   24.2650   36.8980 H   0  0  0  0  0  0  0  0  0  0  0  0
   38.2510   23.4660   38.3940 C   0  0  0  0  0  2  0  0  0  0  0  0
   37.5230   24.2800   38.1180 H   0  0  0  0  0  0  0  0  0  0  0  0
   38.5120   22.5620   36.1860 C   0  0  0  0  0  2  0  0  0  0  0  0
   39.2720   21.9370   35.6520 H   0  0  0  0  0  0  0  0  0  0  0  0
  1  6  1  0  0  0  0
  2  1  2  0  0  0  0
  2  3  1  0  0  0  0
  3  4  2  0  0  0  0
  4  5  1  0  0  0  0
  5 23  1  0  0  0  0
  6  5  2  0  0  0  0
  7  1  1  0  0  0  0
  8  2  1  0  0  0  0
  9 18  1  0  0  0  0
 10  3  1  0  0  0  0
 10  9  2  0  0  0  0
 11 12  2  0  0  0  0
 11 10  1  0  0  0  0
 12 16  1  0  0  0  0
 13 14  1  0  0  0  0
 13 12  1  0  0  0  0
 14 15  2  0  0  0  0
 15 16  1  0  0  0  0
 16 17  2  0  0  0  0
 17  9  1  0  0  0  0
 17 22  1  0  0  0  0
 19 11  1  0  0  0  0
 20 13  1  0  0  0  0
 21 14  1  0  0  0  0
 23 24  2  0  0  0  0
 25 28  1  6  0  0  0
 25 23  1  0  0  0  0
 25 27  1  0  0  0  0
 25 26  1  0  0  0  0
 26 29  1  0  0  0  0
 27 31  1  6  0  0  0
 27 26  1  0  0  0  0
 27 32  1  0  0  0  0
 30 26  1  0  0  0  0
 33 32  1  0  0  0  0
 33 35  1  0  0  0  0
 34 33  1  0  0  0  0
 36 35  1  0  0  0  0
 37 33  1  0  0  0  0
 38 37  1  0  0  0  0
M  END
>  <minimizedAffinity>
-5.53502703

$$$$

 OpenBabel03262523343D

 38 41  0  0  1  0  0  0  0  0999 V2000
   38.5000   23.3850   38.0980 C   0  0  0  0  0  0  0  0  0  0  0  0
   37.8760   24.2690   37.2380 C   0  0  0  0  0  0  0  0  0  0  0  0
   38.4980   24.5990   36.0260 C   0  0  0  0  0  0  0  0  0  0  0  0
   39.7130   24.0220   35.7500 N   0  0  0  0  0  0  0  0  0  0  0  0
   40.2790   23.1670   36.6210 C   0  0  0  0  0  0  0  0  0  0  0  0
   39.7070   22.8400   37.7750 N   0  0  0  0  0  0  0  0  0  0  0  0
   38.0600   23.0960   39.0470 H   0  0  0  0  0  0  0  0  0  0  0  0
   36.9220   24.7030   37.4850 H   0  0  0  0  0  0  0  0  0  0  0  0
   37.6510   26.8030   35.5410 C   0  0  0  0  0  0  0  0  0  0  0  0
   37.9190   25.5070   35.0700 C   0  0  0  0  0  0  0  0  0  0  0  0
   37.6200   25.2020   33.7710 C   0  0  0  0  0  0  0  0  0  0  0  0
   37.0680   26.1540   32.9490 C   0  0  0  0  0  0  0  0  0  0  0  0
   36.7060   26.0610   31.6570 N   0  0  0  0  0  0  0  0  0  0  0  0
   36.2180   27.2570   31.2970 C   0  0  0  0  0  0  0  0  0  0  0  0
   36.2610   28.1080   32.3270 N   0  0  0  0  0  0  0  0  0  0  0  0
   36.7900   27.4410   33.3750 C   0  0  0  0  0  0  0  0  0  0  0  0
   37.0900   27.7540   34.6840 C   0  0  0  0  0  0  0  0  0  0  0  0
   37.8440   27.1630   36.5510 H   0  0  0  0  0  0  0  0  0  0  0  0
   37.8230   24.2080   33.4060 H   0  0  0  0  0  0  0  0  0  0  0  0
   36.7970   25.1910   31.0520 H   0  0  0  0  0  0  0  0  0  0  0  0
   35.8550   27.4340   30.2860 H   0  0  0  0  0  0  0  0  0  0  0  0
   36.8620   28.7640   34.9880 H   0  0  0  0  0  0  0  0  0  0  0  0
   41.5650   22.5890   36.2550 C   0  0  0  0  0  0  0  0  0  0  0  0
   41.6810   21.5290   35.5940 O   0  0  0  0  0  0  0  0  0  0  0  0
   42.8290   23.2990   36.6920 C   0  0  1  0  0  0  0  0  0  0  0  0
   44.0800   22.9140   35.8850 C   0  0  0  0  0  0  0  0  0  0  0  0
   43.4770   24.2650   35.8190 C   0  0  1  0  0  0  0  0  0  0  0  0
   43.0380   23.2340   37.7910 H   0  0  0  0  0  0  0  0  0  0  0  0
   43.9400   22.2080   35.0390 H   0  0  0  0  0  0  0  0  0  0  0  0
   45.0190   22.7190   36.4330 H   0  0  0  0  0  0  0  0  0  0  0  0
   44.1040   25.0280   36.3740 H   0  0  0  0  0  0  0  0  0  0  0  0
   42.9000   24.8280   34.5740 C   0  0  0  0  0  2  0  0  0  0  0  0
   42.7320   26.2900   34.6810 N   0  0  0  0  0  4  0  0  0  0  0  0
   42.8130   26.5160   35.7170 H   0  0  0  0  0  0  0  0  0  0  0  0
   41.4490   26.7420   34.2440 C   0  0  0  0  0  2  0  0  0  0  0  0
   41.2740   27.7380   34.7390 H   0  0  0  0  0  0  0  0  0  0  0  0
   43.8300   26.9560   34.0200 C   0  0  0  0  0  2  0  0  0  0  0  0
   44.6950   26.2600   33.8810 H   0  0  0  0  0  0  0  0  0  0  0  0
  1  7  1  0  0  0  0
  2  8  1  0  0  0  0
  2  1  2  0  0  0  0
  3  2  1  0  0  0  0
  4  3  2  0  0  0  0
  4  5  1  0  0  0  0
  5  6  2  0  0  0  0
  6  1  1  0  0  0  0
  9 18  1  0  0  0  0
 10  9  1  0  0  0  0
 10  3  1  0  0  0  0
 11 10  2  0  0  0  0
 12 16  2  0  0  0  0
 12 11  1  0  0  0  0
 13 12  1  0  0  0  0
 14 13  1  0  0  0  0
 14 15  2  0  0  0  0
 15 16  1  0  0  0  0
 16 17  1  0  0  0  0
 17 22  1  0  0  0  0
 17  9  2  0  0  0  0
 19 11  1  0  0  0  0
 20 13  1  0  0  0  0
 21 14  1  0  0  0  0
 23  5  1  0  0  0  0
 23 25  1  0  0  0  0
 24 23  2  0  0  0  0
 25 28  1  1  0  0  0
 26 30  1  0  0  0  0
 26 25  1  0  0  0  0
 27 26  1  0  0  0  0
 27 31  1  1  0  0  0
 27 25  1  0  0  0  0
 29 26  1  0  0  0  0
 32 33  1  0  0  0  0
 32 27  1  0  0  0  0
 33 34  1  0  0  0  0
 35 33  1  0  0  0  0
 35 36  1  0  0  0  0
 37 33  1  0  0  0  0
 38 37  1  0  0  0  0
M  END
>  <minimizedAffinity>
-5.50853014

$$$$

 OpenBabel03262523343D

 38 41  0  0  1  0  0  0  0  0999 V2000
   37.0080   27.8640   32.0800 C   0  0  0  0  0  0  0  0  0  0  0  0
   36.1490   28.7740   32.6660 C   0  0  0  0  0  0  0  0  0  0  0  0
   36.1610   28.9250   34.0600 C   0  0  0  0  0  0  0  0  0  0  0  0
   37.0340   28.1500   34.7820 N   0  0  0  0  0  0  0  0  0  0  0  0
   37.8500   27.2780   34.1620 C   0  0  0  0  0  0  0  0  0  0  0  0
   37.8560   27.1200   32.8440 N   0  0  0  0  0  0  0  0  0  0  0  0
   37.0390   27.7100   31.0050 H   0  0  0  0  0  0  0  0  0  0  0  0
   35.4770   29.3660   32.0690 H   0  0  0  0  0  0  0  0  0  0  0  0
   33.9430   29.8080   34.4020 C   0  0  0  0  0  0  0  0  0  0  0  0
   35.3030   29.8510   34.7540 C   0  0  0  0  0  0  0  0  0  0  0  0
   35.7110   30.7430   35.7060 C   0  0  0  0  0  0  0  0  0  0  0  0
   34.7990   31.5790   36.3030 C   0  0  0  0  0  0  0  0  0  0  0  0
   34.9900   32.5160   37.2490 N   0  0  0  0  0  0  0  0  0  0  0  0
   33.7940   33.0660   37.5070 C   0  0  0  0  0  0  0  0  0  0  0  0
   32.8480   32.5030   36.7480 N   0  0  0  0  0  0  0  0  0  0  0  0
   33.4520   31.5670   35.9850 C   0  0  0  0  0  0  0  0  0  0  0  0
   33.0360   30.6690   35.0250 C   0  0  0  0  0  0  0  0  0  0  0  0
   33.5020   29.1430   33.6610 H   0  0  0  0  0  0  0  0  0  0  0  0
   36.7530   30.7790   35.9780 H   0  0  0  0  0  0  0  0  0  0  0  0
   35.9230   32.7590   37.6960 H   0  0  0  0  0  0  0  0  0  0  0  0
   33.6890   33.8580   38.2460 H   0  0  0  0  0  0  0  0  0  0  0  0
   31.9810   30.6820   34.7970 H   0  0  0  0  0  0  0  0  0  0  0  0
   38.7540   26.4970   34.9960 C   0  0  0  0  0  0  0  0  0  0  0  0
   39.9500   26.8160   35.2010 O   0  0  0  0  0  0  0  0  0  0  0  0
   38.2300   25.2360   35.6480 C   0  0  1  0  0  0  0  0  0  0  0  0
   38.0980   24.0390   34.6910 C   0  0  0  0  0  0  0  0  0  0  0  0
   39.0830   24.0680   35.7960 C   0  0  1  0  0  0  0  0  0  0  0  0
   37.2830   25.3760   36.2300 H   0  0  0  0  0  0  0  0  0  0  0  0
   38.4410   24.1870   33.6460 H   0  0  0  0  0  0  0  0  0  0  0  0
   37.1800   23.4250   34.7410 H   0  0  0  0  0  0  0  0  0  0  0  0
   38.7750   23.3860   36.6470 H   0  0  0  0  0  0  0  0  0  0  0  0
   40.5490   24.0330   35.5680 C   0  0  0  0  0  2  0  0  0  0  0  0
   41.1710   22.9070   36.2900 N   0  0  0  0  0  4  0  0  0  0  0  0
   41.1060   22.0710   35.6360 H   0  0  0  0  0  0  0  0  0  0  0  0
   40.4850   22.5630   37.4940 C   0  0  0  0  0  2  0  0  0  0  0  0
   40.7570   21.4950   37.7250 H   0  0  0  0  0  0  0  0  0  0  0  0
   42.5770   23.1740   36.4880 C   0  0  0  0  0  2  0  0  0  0  0  0
   42.9370   23.9690   35.7870 H   0  0  0  0  0  0  0  0  0  0  0  0
  1  2  2  0  0  0  0
  1  6  1  0  0  0  0
  2  3  1  0  0  0  0
  3 10  1  0  0  0  0
  3  4  2  0  0  0  0
  5  4  1  0  0  0  0
  5 23  1  0  0  0  0
  6  5  2  0  0  0  0
  7  1  1  0  0  0  0
  8  2  1  0  0  0  0
  9 10  2  0  0  0  0
  9 17  1  0  0  0  0
 10 11  1  0  0  0  0
 11 19  1  0  0  0  0
 11 12  2  0  0  0  0
 12 13  1  0  0  0  0
 13 14  1  0  0  0  0
 13 20  1  0  0  0  0
 14 21  1  0  0  0  0
 15 14  2  0  0  0  0
 16 12  1  0  0  0  0
 16 15  1  0  0  0  0
 17 16  2  0  0  0  0
 18  9  1  0  0  0  0
 22 17  1  0  0  0  0
 23 24  2  0  0  0  0
 23 25  1  0  0  0  0
 25 27  1  0  0  0  0
 25 28  1  1  0  0  0
 26 30  1  0  0  0  0
 26 25  1  0  0  0  0
 26 27  1  0  0  0  0
 27 31  1  1  0  0  0
 29 26  1  0  0  0  0
 32 27  1  0  0  0  0
 32 33  1  0  0  0  0
 33 37  1  0  0  0  0
 33 35  1  0  0  0  0
 34 33  1  0  0  0  0
 35 36  1  0  0  0  0
 38 37  1  0  0  0  0
M  END
>  <minimizedAffinity>
-5.34058523

$$$$

 OpenBabel03262523343D

 38 41  0  0  1  0  0  0  0  0999 V2000
   37.2860   28.9360   31.0140 C   0  0  0  0  0  0  0  0  0  0  0  0
   36.0940   29.4470   31.4900 C   0  0  0  0  0  0  0  0  0  0  0  0
   35.5260   28.8910   32.6460 C   0  0  0  0  0  0  0  0  0  0  0  0
   36.1890   27.8540   33.2520 N   0  0  0  0  0  0  0  0  0  0  0  0
   37.3480   27.3930   32.7480 C   0  0  0  0  0  0  0  0  0  0  0  0
   37.9040   27.9040   31.6550 N   0  0  0  0  0  0  0  0  0  0  0  0
   37.7680   29.3300   30.1240 H   0  0  0  0  0  0  0  0  0  0  0  0
   35.6010   30.2620   30.9900 H   0  0  0  0  0  0  0  0  0  0  0  0
   34.3610   29.8300   34.5370 C   0  0  0  0  0  0  0  0  0  0  0  0
   34.2890   29.3630   33.2140 C   0  0  0  0  0  0  0  0  0  0  0  0
   33.0830   29.3880   32.5690 C   0  0  0  0  0  0  0  0  0  0  0  0
   31.9680   29.8630   33.2140 C   0  0  0  0  0  0  0  0  0  0  0  0
   30.7040   29.9730   32.7660 N   0  0  0  0  0  0  0  0  0  0  0  0
   29.9750   30.4950   33.7640 C   0  0  0  0  0  0  0  0  0  0  0  0
   30.7440   30.7190   34.8350 N   0  0  0  0  0  0  0  0  0  0  0  0
   31.9970   30.3320   34.5160 C   0  0  0  0  0  0  0  0  0  0  0  0
   33.2110   30.3090   35.1700 C   0  0  0  0  0  0  0  0  0  0  0  0
   35.2610   29.8600   35.1490 H   0  0  0  0  0  0  0  0  0  0  0  0
   33.0240   29.0300   31.5540 H   0  0  0  0  0  0  0  0  0  0  0  0
   30.3670   29.6920   31.7980 H   0  0  0  0  0  0  0  0  0  0  0  0
   28.9100   30.6810   33.6430 H   0  0  0  0  0  0  0  0  0  0  0  0
   33.2040   30.6810   36.1830 H   0  0  0  0  0  0  0  0  0  0  0  0
   37.9960   26.2950   33.4520 C   0  0  0  0  0  0  0  0  0  0  0  0
   37.7750   25.0860   33.1960 O   0  0  0  0  0  0  0  0  0  0  0  0
   38.9850   26.6230   34.5500 C   0  0  1  0  0  0  0  0  0  0  0  0
   38.4030   27.4790   35.6870 C   0  0  0  0  0  0  0  0  0  0  0  0
   38.8190   26.0720   35.8860 C   0  0  1  0  0  0  0  0  0  0  0  0
   39.9500   27.0600   34.1870 H   0  0  0  0  0  0  0  0  0  0  0  0
   37.3230   27.7300   35.6310 H   0  0  0  0  0  0  0  0  0  0  0  0
   39.0030   28.3260   36.0670 H   0  0  0  0  0  0  0  0  0  0  0  0
   39.7870   26.0030   36.4710 H   0  0  0  0  0  0  0  0  0  0  0  0
   37.8690   24.9990   36.2670 C   0  0  0  0  0  2  0  0  0  0  0  0
   38.5850   23.7770   36.6790 N   0  0  0  0  0  4  0  0  0  0  0  0
   39.6200   23.9940   36.5620 H   0  0  0  0  0  0  0  0  0  0  0  0
   38.2910   22.6470   35.8560 C   0  0  0  0  0  2  0  0  0  0  0  0
   39.1530   21.9330   35.9700 H   0  0  0  0  0  0  0  0  0  0  0  0
   38.3650   23.5340   38.0860 C   0  0  0  0  0  2  0  0  0  0  0  0
   38.0060   24.4600   38.6010 H   0  0  0  0  0  0  0  0  0  0  0  0
  1  2  2  0  0  0  0
  1  6  1  0  0  0  0
  2  3  1  0  0  0  0
  3 10  1  0  0  0  0
  3  4  2  0  0  0  0
  5  4  1  0  0  0  0
  5 23  1  0  0  0  0
  6  5  2  0  0  0  0
  7  1  1  0  0  0  0
  8  2  1  0  0  0  0
  9 18  1  0  0  0  0
  9 17  1  0  0  0  0
 10  9  2  0  0  0  0
 11 10  1  0  0  0  0
 11 12  2  0  0  0  0
 12 16  1  0  0  0  0
 13 12  1  0  0  0  0
 13 14  1  0  0  0  0
 14 15  2  0  0  0  0
 16 15  1  0  0  0  0
 16 17  2  0  0  0  0
 17 22  1  0  0  0  0
 19 11  1  0  0  0  0
 20 13  1  0  0  0  0
 21 14  1  0  0  0  0
 23 25  1  0  0  0  0
 24 23  2  0  0  0  0
 25 28  1  6  0  0  0
 25 26  1  0  0  0  0
 25 27  1  0  0  0  0
 26 27  1  0  0  0  0
 26 30  1  0  0  0  0
 27 32  1  0  0  0  0
 27 31  1  1  0  0  0
 29 26  1  0  0  0  0
 32 33  1  0  0  0  0
 33 37  1  0  0  0  0
 34 33  1  0  0  0  0
 35 36  1  0  0  0  0
 35 33  1  0  0  0  0
 37 38  1  0  0  0  0
M  END
>  <minimizedAffinity>
-5.27579975

$$$$

 OpenBabel03262523343D

 38 41  0  0  1  0  0  0  0  0999 V2000
   36.6130   25.7870   31.2500 C   0  0  0  0  0  0  0  0  0  0  0  0
   37.1790   25.0330   32.2610 C   0  0  0  0  0  0  0  0  0  0  0  0
   37.4160   25.6290   33.5080 C   0  0  0  0  0  0  0  0  0  0  0  0
   37.0710   26.9480   33.6640 N   0  0  0  0  0  0  0  0  0  0  0  0
   36.5210   27.6380   32.6480 C   0  0  0  0  0  0  0  0  0  0  0  0
   36.2880   27.0930   31.4590 N   0  0  0  0  0  0  0  0  0  0  0  0
   36.4080   25.3720   30.2680 H   0  0  0  0  0  0  0  0  0  0  0  0
   37.4380   24.0000   32.1040 H   0  0  0  0  0  0  0  0  0  0  0  0
   39.0270   24.0170   34.2940 C   0  0  0  0  0  0  0  0  0  0  0  0
   37.9990   24.9180   34.6170 C   0  0  0  0  0  0  0  0  0  0  0  0
   37.6290   25.0590   35.9260 C   0  0  0  0  0  0  0  0  0  0  0  0
   38.2600   24.3260   36.9010 C   0  0  0  0  0  0  0  0  0  0  0  0
   38.0530   24.3150   38.2300 N   0  0  0  0  0  0  0  0  0  0  0  0
   38.9170   23.4360   38.7580 C   0  0  0  0  0  0  0  0  0  0  0  0
   39.6690   22.8880   37.7980 N   0  0  0  0  0  0  0  0  0  0  0  0
   39.2770   23.4290   36.6250 C   0  0  0  0  0  0  0  0  0  0  0  0
   39.6530   23.2840   35.3060 C   0  0  0  0  0  0  0  0  0  0  0  0
   39.4060   23.8210   33.2920 H   0  0  0  0  0  0  0  0  0  0  0  0
   36.8410   25.7480   36.1770 H   0  0  0  0  0  0  0  0  0  0  0  0
   37.3320   24.9020   38.7460 H   0  0  0  0  0  0  0  0  0  0  0  0
   38.9430   23.2490   39.8300 H   0  0  0  0  0  0  0  0  0  0  0  0
   40.4490   22.5780   35.1210 H   0  0  0  0  0  0  0  0  0  0  0  0
   36.1750   29.0320   32.8940 C   0  0  0  0  0  0  0  0  0  0  0  0
   36.1900   29.9130   32.0010 O   0  0  0  0  0  0  0  0  0  0  0  0
   35.7770   29.4430   34.2950 C   0  0  1  0  0  0  0  0  0  0  0  0
   35.3220   30.9070   34.4170 C   0  0  0  0  0  0  0  0  0  0  0  0
   34.3950   29.7690   34.6080 C   0  0  1  0  0  0  0  0  0  0  0  0
   36.5400   29.2040   35.0800 H   0  0  0  0  0  0  0  0  0  0  0  0
   35.2760   31.5030   33.4820 H   0  0  0  0  0  0  0  0  0  0  0  0
   35.6980   31.5040   35.2680 H   0  0  0  0  0  0  0  0  0  0  0  0
   34.1320   29.6240   35.7010 H   0  0  0  0  0  0  0  0  0  0  0  0
   33.2280   29.5250   33.7260 C   0  0  0  0  0  2  0  0  0  0  0  0
   31.9630   29.8210   34.4250 N   0  0  0  0  0  4  0  0  0  0  0  0
   31.9520   30.8750   34.5700 H   0  0  0  0  0  0  0  0  0  0  0  0
   31.8760   29.2110   35.7130 C   0  0  0  0  0  2  0  0  0  0  0  0
   31.1250   29.8080   36.3020 H   0  0  0  0  0  0  0  0  0  0  0  0
   30.8460   29.5060   33.5650 C   0  0  0  0  0  2  0  0  0  0  0  0
   31.1700   29.4390   32.4960 H   0  0  0  0  0  0  0  0  0  0  0  0
  1  6  2  0  0  0  0
  1  2  1  0  0  0  0
  2  3  2  0  0  0  0
  3  4  1  0  0  0  0
  3 10  1  0  0  0  0
  5 23  1  0  0  0  0
  5  4  2  0  0  0  0
  6  5  1  0  0  0  0
  7  1  1  0  0  0  0
  8  2  1  0  0  0  0
  9 10  2  0  0  0  0
  9 17  1  0  0  0  0
 10 11  1  0  0  0  0
 11 19  1  0  0  0  0
 11 12  2  0  0  0  0
 12 13  1  0  0  0  0
 13 20  1  0  0  0  0
 13 14  1  0  0  0  0
 14 21  1  0  0  0  0
 15 14  2  0  0  0  0
 16 12  1  0  0  0  0
 16 15  1  0  0  0  0
 17 16  2  0  0  0  0
 18  9  1  0  0  0  0
 22 17  1  0  0  0  0
 23 25  1  0  0  0  0
 24 23  2  0  0  0  0
 25 26  1  0  0  0  0
 25 27  1  0  0  0  0
 25 28  1  1  0  0  0
 26 27  1  0  0  0  0
 26 30  1  0  0  0  0
 27 31  1  1  0  0  0
 29 26  1  0  0  0  0
 32 33  1  0  0  0  0
 32 27  1  0  0  0  0
 33 34  1  0  0  0  0
 33 35  1  0  0  0  0
 35 36  1  0  0  0  0
 37 33  1  0  0  0  0
 38 37  1  0  0  0  0
M  END
>  <minimizedAffinity>
-5.23291445

$$$$

 OpenBabel03262523343D

 38 41  0  0  1  0  0  0  0  0999 V2000
   37.5870   28.3850   30.8750 C   0  0  0  0  0  0  0  0  0  0  0  0
   38.0370   27.4420   31.7800 C   0  0  0  0  0  0  0  0  0  0  0  0
   37.3050   27.2190   32.9550 C   0  0  0  0  0  0  0  0  0  0  0  0
   36.1660   27.9590   33.1520 N   0  0  0  0  0  0  0  0  0  0  0  0
   35.7710   28.8660   32.2400 C   0  0  0  0  0  0  0  0  0  0  0  0
   36.4490   29.0920   31.1200 N   0  0  0  0  0  0  0  0  0  0  0  0
   38.1160   28.5950   29.9500 H   0  0  0  0  0  0  0  0  0  0  0  0
   38.9350   26.8790   31.5930 H   0  0  0  0  0  0  0  0  0  0  0  0
   37.8580   26.7500   35.2550 C   0  0  0  0  0  0  0  0  0  0  0  0
   37.6980   26.2540   33.9500 C   0  0  0  0  0  0  0  0  0  0  0  0
   37.9190   24.9250   33.7160 C   0  0  0  0  0  0  0  0  0  0  0  0
   38.2900   24.0970   34.7480 C   0  0  0  0  0  0  0  0  0  0  0  0
   38.5510   22.7780   34.7330 N   0  0  0  0  0  0  0  0  0  0  0  0
   38.8710   22.4240   35.9860 C   0  0  0  0  0  0  0  0  0  0  0  0
   38.8190   23.4850   36.7980 N   0  0  0  0  0  0  0  0  0  0  0  0
   38.4570   24.5460   36.0460 C   0  0  0  0  0  0  0  0  0  0  0  0
   38.2350   25.8860   36.2860 C   0  0  0  0  0  0  0  0  0  0  0  0
   37.7100   27.7850   35.5610 H   0  0  0  0  0  0  0  0  0  0  0  0
   37.7980   24.5410   32.7170 H   0  0  0  0  0  0  0  0  0  0  0  0
   38.5070   22.1510   33.8750 H   0  0  0  0  0  0  0  0  0  0  0  0
   39.1250   21.3940   36.2310 H   0  0  0  0  0  0  0  0  0  0  0  0
   38.3730   26.2080   37.3070 H   0  0  0  0  0  0  0  0  0  0  0  0
   34.5480   29.6060   32.5160 C   0  0  0  0  0  0  0  0  0  0  0  0
   33.4240   29.0600   32.6360 O   0  0  0  0  0  0  0  0  0  0  0  0
   34.6290   31.1100   32.6650 C   0  0  1  0  0  0  0  0  0  0  0  0
   33.5370   31.7150   33.5640 C   0  0  0  0  0  0  0  0  0  0  0  0
   34.9680   31.7110   33.9460 C   0  0  1  0  0  0  0  0  0  0  0  0
   34.6900   31.6680   31.6950 H   0  0  0  0  0  0  0  0  0  0  0  0
   32.8360   31.0080   34.0540 H   0  0  0  0  0  0  0  0  0  0  0  0
   33.0250   32.6330   33.2220 H   0  0  0  0  0  0  0  0  0  0  0  0
   35.4260   32.7430   33.8550 H   0  0  0  0  0  0  0  0  0  0  0  0
   35.4810   30.9850   35.1330 C   0  0  0  0  0  2  0  0  0  0  0  0
   35.9180   31.9250   36.1820 N   0  0  0  0  0  4  0  0  0  0  0  0
   36.6430   31.4010   36.7580 H   0  0  0  0  0  0  0  0  0  0  0  0
   34.8650   32.3100   37.0670 C   0  0  0  0  0  2  0  0  0  0  0  0
   35.3560   32.6540   38.0200 H   0  0  0  0  0  0  0  0  0  0  0  0
   36.5970   33.0480   35.5780 C   0  0  0  0  0  2  0  0  0  0  0  0
   36.9290   32.8030   34.5370 H   0  0  0  0  0  0  0  0  0  0  0  0
  1  6  2  0  0  0  0
  1  2  1  0  0  0  0
  2  3  2  0  0  0  0
  3  4  1  0  0  0  0
  3 10  1  0  0  0  0
  5 23  1  0  0  0  0
  5  4  2  0  0  0  0
  6  5  1  0  0  0  0
  7  1  1  0  0  0  0
  8  2  1  0  0  0  0
  9 18  1  0  0  0  0
  9 17  1  0  0  0  0
 10  9  2  0  0  0  0
 11 10  1  0  0  0  0
 11 12  2  0  0  0  0
 12 16  1  0  0  0  0
 13 12  1  0  0  0  0
 13 14  1  0  0  0  0
 14 21  1  0  0  0  0
 14 15  2  0  0  0  0
 16 17  2  0  0  0  0
 16 15  1  0  0  0  0
 17 22  1  0  0  0  0
 19 11  1  0  0  0  0
 20 13  1  0  0  0  0
 23 24  2  0  0  0  0
 23 25  1  0  0  0  0
 25 28  1  6  0  0  0
 25 26  1  0  0  0  0
 25 27  1  0  0  0  0
 26 27  1  0  0  0  0
 26 29  1  0  0  0  0
 27 31  1  6  0  0  0
 27 32  1  0  0  0  0
 30 26  1  0  0  0  0
 32 33  1  0  0  0  0
 33 34  1  0  0  0  0
 33 35  1  0  0  0  0
 35 36  1  0  0  0  0
 37 33  1  0  0  0  0
 38 37  1  0  0  0  0
M  END
>  <minimizedAffinity>
-5.18990278

$$$$
