
 OpenBabel03272506473D

 40 42  0  0  1  0  0  0  0  0999 V2000
   32.1530   28.5220   47.4320 C   0  0  2  0  0  0  0  0  0  0  0  0
   33.3980   28.3740   48.2530 C   0  0  1  0  0  0  0  0  0  0  0  0
   33.7980   27.0620   48.1680 O   0  0  0  0  0  0  0  0  0  0  0  0
   33.1110   26.4410   47.1290 C   0  0  0  0  0  0  0  0  0  0  0  0
   32.5020   27.5240   46.2750 C   0  0  1  0  0  0  0  0  0  0  0  0
   31.2430   28.1550   47.8860 H   0  0  0  0  0  0  0  0  0  0  0  0
   33.2280   28.7100   49.2970 H   0  0  0  0  0  0  0  0  0  0  0  0
   33.9300   25.9870   46.4790 H   0  0  0  0  0  0  0  0  0  0  0  0
   32.4510   25.6790   47.5000 H   0  0  0  0  0  0  0  0  0  0  0  0
   33.2060   28.0800   45.6580 H   0  0  0  0  0  0  0  0  0  0  0  0
   32.0680   29.8230   46.9040 O   0  0  0  0  0  0  0  0  0  0  0  0
   31.1040   30.0430   46.7890 H   0  0  0  0  0  0  0  0  0  0  0  0
   34.7030   29.4160   47.5020 S   0  0  0  0  0  0  0  0  0  0  0  0
   37.1330   29.3010   50.6160 C   0  0  0  0  0  0  0  0  0  0  0  0
   37.6270   30.5810   50.7470 C   0  0  0  0  0  0  0  0  0  0  0  0
   37.1940   31.5400   49.8280 C   0  0  0  0  0  0  0  0  0  0  0  0
   36.3180   31.1660   48.8680 N   0  0  0  0  0  0  0  0  0  0  0  0
   35.8540   29.9000   48.7700 C   0  0  0  0  0  0  0  0  0  0  0  0
   36.2600   28.9490   49.6500 N   0  0  0  0  0  0  0  0  0  0  0  0
   37.5130   28.5800   51.3660 H   0  0  0  0  0  0  0  0  0  0  0  0
   38.3260   30.9440   51.4830 H   0  0  0  0  0  0  0  0  0  0  0  0
   37.4670   32.5910   49.7690 H   0  0  0  0  0  0  0  0  0  0  0  0
   31.3660   27.0440   45.6840 O   0  0  0  0  0  0  0  0  0  0  0  0
   29.8080   29.0120   44.1510 Cl  0  0  0  0  0  0  0  0  0  0  0  0
   29.3100   28.0400   45.5100 C   0  0  0  0  0  0  0  0  0  0  0  0
   30.1260   27.1420   46.1580 C   0  0  0  0  0  0  0  0  0  0  0  0
   29.5940   26.4210   47.2250 C   0  0  0  0  0  0  0  0  0  0  0  0
   28.2860   26.6030   47.6210 C   0  0  0  0  0  0  0  0  0  0  0  0
   27.4570   27.4980   46.9790 C   0  0  0  0  0  0  0  0  0  0  0  0
   27.9920   28.2200   45.9060 C   0  0  0  0  0  0  0  0  0  0  0  0
   30.1750   25.7000   47.7740 H   0  0  0  0  0  0  0  0  0  0  0  0
   27.9030   26.0300   48.4520 H   0  0  0  0  0  0  0  0  0  0  0  0
   26.4580   27.6060   47.3290 H   0  0  0  0  0  0  0  0  0  0  0  0
   27.0310   29.1540   45.2660 C   0  0  0  0  0  2  0  0  0  0  0  0
   26.5130   28.7660   44.0040 N   0  0  0  0  0  4  0  0  0  0  0  0
   27.1650   28.2570   43.3660 H   0  0  0  0  0  0  0  0  0  0  0  0
   25.3200   27.9660   44.1230 C   0  0  0  0  0  2  0  0  0  0  0  0
   24.9800   27.5680   43.1360 H   0  0  0  0  0  0  0  0  0  0  0  0
   26.0680   30.0250   43.3680 C   0  0  0  0  0  2  0  0  0  0  0  0
   25.4740   29.7590   42.5030 H   0  0  0  0  0  0  0  0  0  0  0  0
  1  6  1  1  0  0  0
  1  2  1  0  0  0  0
  2  7  1  1  0  0  0
  3  2  1  0  0  0  0
  4  9  1  0  0  0  0
  4  3  1  0  0  0  0
  5 10  1  6  0  0  0
  5  4  1  0  0  0  0
  5  1  1  0  0  0  0
  8  4  1  0  0  0  0
 11  1  1  0  0  0  0
 12 11  1  0  0  0  0
 13  2  1  0  0  0  0
 13 18  1  0  0  0  0
 14 15  1  0  0  0  0
 14 20  1  0  0  0  0
 15 21  1  0  0  0  0
 16 15  2  0  0  0  0
 17 16  1  0  0  0  0
 18 17  2  0  0  0  0
 18 19  1  0  0  0  0
 19 14  2  0  0  0  0
 22 16  1  0  0  0  0
 23 26  1  0  0  0  0
 23  5  1  0  0  0  0
 24 25  1  0  0  0  0
 25 30  2  0  0  0  0
 25 26  1  0  0  0  0
 26 27  2  0  0  0  0
 27 28  1  0  0  0  0
 27 31  1  0  0  0  0
 28 32  1  0  0  0  0
 29 33  1  0  0  0  0
 29 28  2  0  0  0  0
 30 29  1  0  0  0  0
 34 30  1  0  0  0  0
 35 37  1  0  0  0  0
 35 34  1  0  0  0  0
 36 35  1  0  0  0  0
 38 37  1  0  0  0  0
 39 35  1  0  0  0  0
 40 39  1  0  0  0  0
M  END
>  <minimizedAffinity>
-4.73101425

>  <minimizedRMSD>
0.331713647

$$$$
