REMARK  Name = 
REMARK  8 active torsions:
REMARK  status: ('A' for Active; 'I' for Inactive)
REMARK    1  A    between atoms: C_1  and  C_16
REMARK    2  A    between atoms: C_5  and  C_8
REMARK    3  A    between atoms: C_17  and  O_19
REMARK    4  A    between atoms: C_18  and  C_35
REMARK    5  A    between atoms: O_19  and  C_20
REMARK    6  A    between atoms: C_35  and  N_36
REMARK    7  A    between atoms: N_36  and  C_37
REMARK    8  A    between atoms: N_36  and  C_39
REMARK                            x       y       z     vdW  Elec       q    Type
REMARK                         _______ _______ _______ _____ _____    ______ ____
ROOT
ATOM      1  C   UNL     1      36.931  31.349  49.345  0.00  0.00    +0.000 A 
ATOM      2  C   UNL     1      37.169  32.519  50.029  0.00  0.00    +0.000 A 
ATOM      3  C   UNL     1      38.099  33.380  49.434  0.00  0.00    +0.000 A 
ATOM      4  N   UNL     1      38.704  33.044  48.258  0.00  0.00    +0.000 NA
ATOM      5  C   UNL     1      38.445  31.883  47.612  0.00  0.00    +0.000 A 
ATOM      6  N   UNL     1      37.545  31.034  48.173  0.00  0.00    +0.000 NA
ATOM      7  H   UNL     1      36.723  32.820  50.945  0.00  0.00    +0.000 HD
ATOM      8  H   UNL     1      38.348  34.326  49.906  0.00  0.00    +0.000 HD
ENDROOT
BRANCH   5  10
ATOM      9  C   UNL     1      40.032  32.420  45.850  0.00  0.00    +0.000 A 
ATOM     10  C   UNL     1      39.104  31.534  46.353  0.00  0.00    +0.000 A 
ATOM     11  C   UNL     1      38.828  30.362  45.664  0.00  0.00    +0.000 A 
ATOM     12  C   UNL     1      39.443  30.024  44.474  0.00  0.00    +0.000 A 
ATOM     13  N   UNL     1      39.365  28.984  43.627  0.00  0.00    +0.000 N 
ATOM     14  C   UNL     1      40.235  29.247  42.631  0.00  0.00    +0.000 A 
ATOM     15  N   UNL     1      40.845  30.421  42.845  0.00  0.00    +0.000 NA
ATOM     16  C   UNL     1      40.376  30.944  43.995  0.00  0.00    +0.000 A 
ATOM     17  C   UNL     1      40.673  32.122  44.661  0.00  0.00    +0.000 A 
ATOM     18  H   UNL     1      40.287  33.344  46.342  0.00  0.00    +0.000 HD
ATOM     19  H   UNL     1      38.094  29.680  46.079  0.00  0.00    +0.000 HD
ATOM     20  H   UNL     1      38.722  28.171  43.793  0.00  0.00    +0.000 HD
ATOM     21  H   UNL     1      40.404  28.593  41.789  0.00  0.00    +0.000 HD
ATOM     22  H   UNL     1      41.414  32.790  44.223  0.00  0.00    +0.000 HD
ENDBRANCH   5  10
BRANCH   1  23
ATOM     23  C   UNL     1      35.944  30.382  49.959  0.00  0.00    +0.000 C 
ATOM     24  C   UNL     1      34.789  29.923  49.223  0.00  0.00    +0.000 C 
ATOM     25  C   UNL     1      36.028  29.002  49.315  0.00  0.00    +0.000 C 
ATOM     26  H   UNL     1      35.872  30.493  51.065  0.00  0.00    +0.000 HD
ATOM     27  H   UNL     1      34.024  29.236  49.732  0.00  0.00    +0.000 HD
ATOM     28  H   UNL     1      36.556  28.895  48.370  0.00  0.00    +0.000 HD
BRANCH  24  29
ATOM     29  O   UNL     1      34.560  30.401  47.978  0.00  0.00    +0.000 OA
BRANCH  29  30
ATOM     30  C   UNL     1      33.804  30.107  46.926  0.00  0.00    +0.000 C 
ATOM     31  O   UNL     1      34.017  28.964  46.412  0.00  0.00    +0.000 OA
ATOM     32  N   UNL     1      32.907  31.074  46.545  0.00  0.00    +0.000 N 
ATOM     33  H   UNL     1      31.895  31.183  46.792  0.00  0.00    +0.000 HD
ATOM     34  H   UNL     1      33.120  31.886  45.919  0.00  0.00    +0.000 HD
ENDBRANCH  29  30
ENDBRANCH  24  29
BRANCH  25  35
ATOM     35  C   UNL     1      36.113  27.907  50.315  0.00  0.00    +0.000 C 
BRANCH  35  36
ATOM     36  N   UNL     1      35.860  26.595  49.812  0.00  0.00    +0.000 N 
ATOM     37  H   UNL     1      34.913  26.276  50.121  0.00  0.00    +0.000 HD
BRANCH  36  38
ATOM     38  C   UNL     1      35.921  26.448  48.387  0.00  0.00    +0.000 C 
ATOM     39  H   UNL     1      35.889  25.347  48.186  0.00  0.00    +0.000 HD
ENDBRANCH  36  38
BRANCH  36  40
ATOM     40  C   UNL     1      36.795  25.657  50.407  0.00  0.00    +0.000 C 
ATOM     41  H   UNL     1      37.581  25.352  49.659  0.00  0.00    +0.000 HD
ENDBRANCH  36  40
ENDBRANCH  35  36
ENDBRANCH  25  35
ENDBRANCH   1  23
TORSDOF 8
