
 OpenBabel03272508533D

 36 38  0  0  1  0  0  0  0  0999 V2000
   38.2280   31.7890   44.4240 C   0  0  0  0  0  0  0  0  0  0  0  0
   37.0690   32.2970   44.3480 O   0  0  0  0  0  0  0  0  0  0  0  0
   38.8540   31.6040   45.6970 N   0  0  0  0  0  0  0  0  0  0  0  0
   39.8490   31.3760   45.7890 H   0  0  0  0  0  0  0  0  0  0  0  0
   38.9480   31.3830   43.2070 C   0  0  0  0  0  0  0  0  0  0  0  0
   40.1910   30.8270   43.3460 C   0  0  0  0  0  0  0  0  0  0  0  0
   40.8710   30.4420   42.1990 C   0  0  0  0  0  0  0  0  0  0  0  0
   40.2560   30.6420   40.9970 C   0  0  0  0  0  0  0  0  0  0  0  0
   38.9810   31.2100   40.8360 C   0  0  0  0  0  0  0  0  0  0  0  0
   38.3950   31.5540   41.9920 N   0  0  0  0  0  0  0  0  0  0  0  0
   40.6670   30.6750   44.2980 H   0  0  0  0  0  0  0  0  0  0  0  0
   41.8560   29.9980   42.2550 H   0  0  0  0  0  0  0  0  0  0  0  0
   40.7930   30.3380   40.1130 H   0  0  0  0  0  0  0  0  0  0  0  0
   38.3870   31.3910   39.4990 C   0  0  0  0  0  2  0  0  0  0  0  0
   38.5990   32.6870   38.9240 N   0  0  0  0  0  4  0  0  0  0  0  0
   37.7970   32.9000   38.2900 H   0  0  0  0  0  0  0  0  0  0  0  0
   38.6460   33.7490   39.9150 C   0  0  0  0  0  2  0  0  0  0  0  0
   37.8710   33.5820   40.6710 H   0  0  0  0  0  0  0  0  0  0  0  0
   39.8230   32.7060   38.1070 C   0  0  0  0  0  2  0  0  0  0  0  0
   39.5990   32.8290   37.0450 H   0  0  0  0  0  0  0  0  0  0  0  0
   38.4150   31.0730   48.0950 C   0  0  2  0  0  0  0  0  0  0  0  0
   38.7510   32.5050   48.0310 C   0  0  0  0  0  0  0  0  0  0  0  0
   38.0300   31.7480   46.8820 C   0  0  1  0  0  0  0  0  0  0  0  0
   39.3330   30.4230   48.1180 H   0  0  0  0  0  0  0  0  0  0  0  0
   38.1290   33.2360   48.5960 H   0  0  0  0  0  0  0  0  0  0  0  0
   39.7710   32.8410   47.8490 H   0  0  0  0  0  0  0  0  0  0  0  0
   36.9700   32.0470   46.7310 H   0  0  0  0  0  0  0  0  0  0  0  0
   35.1080   30.2250   49.5030 C   0  0  0  0  0  0  0  0  0  0  0  0
   35.4530   29.5530   50.7060 C   0  0  0  0  0  0  0  0  0  0  0  0
   36.8570   29.4130   51.0170 C   0  0  0  0  0  0  0  0  0  0  0  0
   37.7750   29.9220   50.1550 N   0  0  0  0  0  0  0  0  0  0  0  0
   37.3720   30.5550   49.0180 C   0  0  0  0  0  0  0  0  0  0  0  0
   36.0470   30.7220   48.6660 N   0  0  0  0  0  0  0  0  0  0  0  0
   34.0450   30.2990   49.3250 H   0  0  0  0  0  0  0  0  0  0  0  0
   34.6970   29.1690   51.3540 H   0  0  0  0  0  0  0  0  0  0  0  0
   37.1270   28.9020   51.9320 H   0  0  0  0  0  0  0  0  0  0  0  0
  1  3  1  0  0  0  0
  2  1  2  0  0  0  0
  3  4  1  0  0  0  0
  3 23  1  0  0  0  0
  5  6  1  0  0  0  0
  5  1  1  0  0  0  0
  6 11  1  0  0  0  0
  7 12  1  0  0  0  0
  7  6  2  0  0  0  0
  8  7  1  0  0  0  0
  9  8  2  0  0  0  0
  9 10  1  0  0  0  0
 10  5  2  0  0  0  0
 13  8  1  0  0  0  0
 14  9  1  0  0  0  0
 15 14  1  0  0  0  0
 15 17  1  0  0  0  0
 16 15  1  0  0  0  0
 17 18  1  0  0  0  0
 19 15  1  0  0  0  0
 20 19  1  0  0  0  0
 21 24  1  6  0  0  0
 21 32  1  0  0  0  0
 22 21  1  0  0  0  0
 22 25  1  0  0  0  0
 23 27  1  6  0  0  0
 23 22  1  0  0  0  0
 23 21  1  0  0  0  0
 26 22  1  0  0  0  0
 28 29  1  0  0  0  0
 29 30  2  0  0  0  0
 29 35  1  0  0  0  0
 30 36  1  0  0  0  0
 31 30  1  0  0  0  0
 32 31  2  0  0  0  0
 33 32  1  0  0  0  0
 33 28  2  0  0  0  0
 34 28  1  0  0  0  0
M  END
>  <minimizedAffinity>
-4.67630005

>  <minimizedRMSD>
0.758681536

$$$$
