
 OpenBabel03272507223D

 41 44  0  0  1  0  0  0  0  0999 V2000
   37.1580   31.8990   48.9910 C   0  0  0  0  0  0  0  0  0  0  0  0
   37.6830   33.0000   49.6280 C   0  0  0  0  0  0  0  0  0  0  0  0
   38.7610   33.6100   48.9750 C   0  0  0  0  0  0  0  0  0  0  0  0
   39.2280   33.1150   47.7920 N   0  0  0  0  0  0  0  0  0  0  0  0
   38.6860   32.0290   47.1940 C   0  0  0  0  0  0  0  0  0  0  0  0
   37.6380   31.4230   47.8110 N   0  0  0  0  0  0  0  0  0  0  0  0
   37.3530   33.4180   50.5470 H   0  0  0  0  0  0  0  0  0  0  0  0
   39.2380   34.4860   49.4070 H   0  0  0  0  0  0  0  0  0  0  0  0
   40.0150   32.3290   45.1800 C   0  0  0  0  0  0  0  0  0  0  0  0
   39.1980   31.5070   45.9260 C   0  0  0  0  0  0  0  0  0  0  0  0
   38.8940   30.2350   45.4630 C   0  0  0  0  0  0  0  0  0  0  0  0
   39.3710   29.7340   44.2670 C   0  0  0  0  0  0  0  0  0  0  0  0
   39.2360   28.5730   43.6040 N   0  0  0  0  0  0  0  0  0  0  0  0
   39.9620   28.7020   42.4750 C   0  0  0  0  0  0  0  0  0  0  0  0
   40.5390   29.9110   42.4290 N   0  0  0  0  0  0  0  0  0  0  0  0
   40.1930   30.5930   43.5390 C   0  0  0  0  0  0  0  0  0  0  0  0
   40.5160   31.8680   43.9760 C   0  0  0  0  0  0  0  0  0  0  0  0
   40.2860   33.3240   45.4900 H   0  0  0  0  0  0  0  0  0  0  0  0
   38.2490   29.6060   46.0680 H   0  0  0  0  0  0  0  0  0  0  0  0
   38.6570   27.7790   43.9720 H   0  0  0  0  0  0  0  0  0  0  0  0
   40.0550   27.9300   41.7260 H   0  0  0  0  0  0  0  0  0  0  0  0
   41.1650   32.4790   43.3500 H   0  0  0  0  0  0  0  0  0  0  0  0
   36.0010   31.2000   49.6680 C   0  0  1  0  0  0  0  0  0  0  0  0
   34.9810   30.5250   48.8990 C   0  0  2  0  0  0  0  0  0  0  0  0
   36.1060   29.6830   49.5450 C   0  0  2  0  0  0  0  0  0  0  0  0
   35.7230   31.6770   50.6350 H   0  0  0  0  0  0  0  0  0  0  0  0
   34.0830   30.0530   49.4340 H   0  0  0  0  0  0  0  0  0  0  0  0
   36.7990   29.2620   48.8200 H   0  0  0  0  0  0  0  0  0  0  0  0
   35.0360   30.5570   47.5480 O   0  0  0  0  0  0  0  0  0  0  0  0
   34.2320   30.3220   46.5170 C   0  0  0  0  0  0  0  0  0  0  0  0
   34.7300   29.5940   45.6010 O   0  0  0  0  0  0  0  0  0  0  0  0
   32.9870   30.8960   46.5860 N   0  0  0  0  0  0  0  0  0  0  0  0
   32.0820   30.4920   46.9240 H   0  0  0  0  0  0  0  0  0  0  0  0
   32.7530   31.8740   46.2940 H   0  0  0  0  0  0  0  0  0  0  0  0
   35.9130   28.9890   50.8440 C   0  0  0  0  0  2  0  0  0  0  0  0
   37.1030   28.7480   51.5960 N   0  0  0  0  0  4  0  0  0  0  0  0
   36.9290   27.9900   52.2960 H   0  0  0  0  0  0  0  0  0  0  0  0
   38.2580   28.3770   50.8350 C   0  0  0  0  0  2  0  0  0  0  0  0
   39.1230   28.4150   51.5460 H   0  0  0  0  0  0  0  0  0  0  0  0
   37.4290   29.9250   52.3780 C   0  0  0  0  0  2  0  0  0  0  0  0
   38.3090   30.4690   51.9290 H   0  0  0  0  0  0  0  0  0  0  0  0
  1  2  1  0  0  0  0
  1 23  1  0  0  0  0
  2  7  1  0  0  0  0
  3  8  1  0  0  0  0
  3  2  2  0  0  0  0
  4  3  1  0  0  0  0
  5  4  2  0  0  0  0
  5  6  1  0  0  0  0
  6  1  2  0  0  0  0
  9 18  1  0  0  0  0
  9 10  1  0  0  0  0
 10  5  1  0  0  0  0
 11 10  2  0  0  0  0
 11 19  1  0  0  0  0
 12 11  1  0  0  0  0
 13 20  1  0  0  0  0
 13 12  1  0  0  0  0
 14 13  1  0  0  0  0
 15 14  2  0  0  0  0
 15 16  1  0  0  0  0
 16 17  1  0  0  0  0
 16 12  2  0  0  0  0
 17  9  2  0  0  0  0
 21 14  1  0  0  0  0
 22 17  1  0  0  0  0
 23 26  1  1  0  0  0
 24 27  1  1  0  0  0
 24 25  1  0  0  0  0
 24 23  1  0  0  0  0
 25 28  1  6  0  0  0
 25 23  1  0  0  0  0
 25 35  1  0  0  0  0
 29 24  1  0  0  0  0
 30 32  1  0  0  0  0
 30 29  1  0  0  0  0
 31 30  2  0  0  0  0
 32 33  1  0  0  0  0
 34 32  1  0  0  0  0
 35 36  1  0  0  0  0
 36 37  1  0  0  0  0
 36 40  1  0  0  0  0
 38 39  1  0  0  0  0
 38 36  1  0  0  0  0
 41 40  1  0  0  0  0
M  END
>  <minimizedAffinity>
-5.38225365

>  <minimizedRMSD>
0.887928069

$$$$
