
 OpenBabel03272508043D

 33 35  0  0  0  0  0  0  0  0999 V2000
   38.9240   30.8990   45.7780 C   0  0  0  0  0  0  0  0  0  0  0  0
   40.1130   31.5370   46.0240 C   0  0  0  0  0  0  0  0  0  0  0  0
   40.9300   31.4600   44.9120 C   0  0  0  0  0  0  0  0  0  0  0  0
   40.1810   30.7590   44.0110 N   0  0  0  0  0  0  0  0  0  0  0  0
   39.0120   30.4300   44.5080 N   0  0  0  0  0  0  0  0  0  0  0  0
   40.3980   32.0390   46.9560 H   0  0  0  0  0  0  0  0  0  0  0  0
   41.9270   31.8380   44.7300 H   0  0  0  0  0  0  0  0  0  0  0  0
   37.7850   30.7470   46.6790 C   0  0  0  0  0  0  0  0  0  0  0  0
   38.0110   30.9700   48.0630 C   0  0  0  0  0  0  0  0  0  0  0  0
   36.9300   30.8270   48.9280 C   0  0  0  0  0  0  0  0  0  0  0  0
   35.7210   30.4780   48.3930 N   0  0  0  0  0  0  0  0  0  0  0  0
   35.5370   30.2720   47.0710 C   0  0  0  0  0  0  0  0  0  0  0  0
   36.5750   30.4080   46.2250 N   0  0  0  0  0  0  0  0  0  0  0  0
   39.0080   31.2470   48.4220 H   0  0  0  0  0  0  0  0  0  0  0  0
   34.5840   30.0000   46.6690 H   0  0  0  0  0  0  0  0  0  0  0  0
   37.1450   31.0570   50.3880 C   0  0  0  0  0  0  0  0  0  0  0  0
   36.6110   32.2960   50.6430 F   0  0  0  0  0  0  0  0  0  0  0  0
   36.4780   30.1260   51.1680 F   0  0  0  0  0  0  0  0  0  0  0  0
   38.4920   31.0720   50.7150 F   0  0  0  0  0  0  0  0  0  0  0  0
   40.5440   30.3790   42.6500 C   0  0  0  0  0  0  0  0  0  0  0  0
   40.2300   31.2000   41.5580 C   0  0  0  0  0  0  0  0  0  0  0  0
   40.5870   30.8300   40.3050 C   0  0  0  0  0  0  0  0  0  0  0  0
   41.2790   29.6030   40.1270 C   0  0  0  0  0  0  0  0  0  0  0  0
   41.4040   28.9770   41.8770 S   0  0  0  0  0  0  0  0  0  0  0  0
   39.7000   32.1500   41.6440 H   0  0  0  0  0  0  0  0  0  0  0  0
   40.4530   31.2960   39.3480 H   0  0  0  0  0  0  0  0  0  0  0  0
   41.8520   28.8080   39.0340 C   0  0  0  0  0  2  0  0  0  0  0  0
   40.9230   27.9100   38.4140 N   0  0  0  0  0  4  0  0  0  0  0  0
   41.0820   27.9240   37.3900 H   0  0  0  0  0  0  0  0  0  0  0  0
   41.1140   26.5890   38.9810 C   0  0  0  0  0  2  0  0  0  0  0  0
   40.9890   25.8210   38.2060 H   0  0  0  0  0  0  0  0  0  0  0  0
   39.5550   28.3400   38.6550 C   0  0  0  0  0  2  0  0  0  0  0  0
   38.9270   27.9480   37.8510 H   0  0  0  0  0  0  0  0  0  0  0  0
  1  2  1  0  0  0  0
  1  8  1  0  0  0  0
  2  6  1  0  0  0  0
  3  2  2  0  0  0  0
  4  5  1  0  0  0  0
  4  3  1  0  0  0  0
  5  1  2  0  0  0  0
  7  3  1  0  0  0  0
  8  9  1  0  0  0  0
  9 14  1  0  0  0  0
  9 10  2  0  0  0  0
 10 16  1  0  0  0  0
 11 10  1  0  0  0  0
 12 11  2  0  0  0  0
 13  8  2  0  0  0  0
 13 12  1  0  0  0  0
 15 12  1  0  0  0  0
 16 17  1  0  0  0  0
 16 19  1  0  0  0  0
 16 18  1  0  0  0  0
 20  4  1  0  0  0  0
 21 25  1  0  0  0  0
 21 20  2  0  0  0  0
 22 21  1  0  0  0  0
 23 22  2  0  0  0  0
 23 24  1  0  0  0  0
 24 20  1  0  0  0  0
 26 22  1  0  0  0  0
 27 23  1  0  0  0  0
 28 32  1  0  0  0  0
 28 30  1  0  0  0  0
 28 27  1  0  0  0  0
 29 28  1  0  0  0  0
 31 30  1  0  0  0  0
 33 32  1  0  0  0  0
M  END
>  <minimizedAffinity>
-5.83276081

>  <minimizedRMSD>
0.68278569

$$$$
