
 OpenBabel03272505183D

 31 32  0  0  0  0  0  0  0  0999 V2000
   39.0910   32.4410   47.3250 C   0  0  0  0  0  0  0  0  0  0  0  0
   38.5720   31.2040   47.0900 C   0  0  0  0  0  0  0  0  0  0  0  0
   39.0420   30.5300   45.9880 C   0  0  0  0  0  0  0  0  0  0  0  0
   39.9720   31.0460   45.1630 C   0  0  0  0  0  0  0  0  0  0  0  0
   40.5190   32.3040   45.3770 C   0  0  0  0  0  0  0  0  0  0  0  0
   40.0520   32.9810   46.4780 C   0  0  0  0  0  0  0  0  0  0  0  0
   38.6280   29.5420   45.7980 H   0  0  0  0  0  0  0  0  0  0  0  0
   40.2860   30.4400   44.3120 H   0  0  0  0  0  0  0  0  0  0  0  0
   41.2620   32.6690   44.6820 H   0  0  0  0  0  0  0  0  0  0  0  0
   40.5270   33.9510   46.5710 H   0  0  0  0  0  0  0  0  0  0  0  0
   37.1000   29.5310   50.0830 C   0  0  0  0  0  0  0  0  0  0  0  0
   38.0020   30.0730   49.1490 C   0  0  0  0  0  0  0  0  0  0  0  0
   37.5720   30.6770   47.9850 C   0  0  0  0  0  0  0  0  0  0  0  0
   36.2240   30.6860   47.8540 N   0  0  0  0  0  0  0  0  0  0  0  0
   35.3470   30.1790   48.7230 C   0  0  0  0  0  0  0  0  0  0  0  0
   35.7960   29.5960   49.8500 N   0  0  0  0  0  0  0  0  0  0  0  0
   37.4750   29.0630   50.9870 H   0  0  0  0  0  0  0  0  0  0  0  0
   39.0600   30.0040   49.3700 H   0  0  0  0  0  0  0  0  0  0  0  0
   33.8900   30.2680   48.4300 C   0  0  0  0  0  2  0  0  0  0  0  0
   33.3230   29.0850   47.8790 N   0  0  0  0  0  4  0  0  0  0  0  0
   32.3960   29.3230   47.4570 H   0  0  0  0  0  0  0  0  0  0  0  0
   33.0450   28.0890   48.9090 C   0  0  0  0  0  2  0  0  0  0  0  0
   32.2940   27.3750   48.5600 H   0  0  0  0  0  0  0  0  0  0  0  0
   34.1190   28.4930   46.8270 C   0  0  0  0  0  2  0  0  0  0  0  0
   35.1670   28.2960   47.1410 H   0  0  0  0  0  0  0  0  0  0  0  0
   39.5200   34.3990   48.6430 N   0  0  0  0  0  0  0  0  0  0  0  0
   38.7820   33.3310   48.4040 C   0  0  0  0  0  0  0  0  0  0  0  0
   37.8810   33.5570   49.4590 N   0  0  0  0  0  0  0  0  0  0  0  0
   39.3090   35.0100   49.4670 H   0  0  0  0  0  0  0  0  0  0  0  0
   38.0720   33.0740   50.3650 H   0  0  0  0  0  0  0  0  0  0  0  0
   37.0360   34.1690   49.4000 H   0  0  0  0  0  0  0  0  0  0  0  0
  1 27  1  0  0  0  0
  2  1  1  0  0  0  0
  2 13  1  0  0  0  0
  3  2  2  0  0  0  0
  4  5  2  0  0  0  0
  4  3  1  0  0  0  0
  5  6  1  0  0  0  0
  6 10  1  0  0  0  0
  6  1  2  0  0  0  0
  7  3  1  0  0  0  0
  8  4  1  0  0  0  0
  9  5  1  0  0  0  0
 11 17  1  0  0  0  0
 12 18  1  0  0  0  0
 12 11  2  0  0  0  0
 13 12  1  0  0  0  0
 14 13  2  0  0  0  0
 14 15  1  0  0  0  0
 15 16  2  0  0  0  0
 16 11  1  0  0  0  0
 19 15  1  0  0  0  0
 20 19  1  0  0  0  0
 20 22  1  0  0  0  0
 21 20  1  0  0  0  0
 23 22  1  0  0  0  0
 24 25  1  0  0  0  0
 24 20  1  0  0  0  0
 26 29  1  0  0  0  0
 27 26  2  0  0  0  0
 27 28  1  0  0  0  0
 28 30  1  0  0  0  0
 31 28  1  0  0  0  0
M  END
>  <minimizedAffinity>
-5.56188726

>  <minimizedRMSD>
1.24993587

$$$$
