
 OpenBabel03272508533D

 36 38  0  0  1  0  0  0  0  0999 V2000
   38.4830   31.6920   44.3940 C   0  0  0  0  0  0  0  0  0  0  0  0
   37.3740   32.2880   44.2490 O   0  0  0  0  0  0  0  0  0  0  0  0
   39.0040   31.4430   45.7020 N   0  0  0  0  0  0  0  0  0  0  0  0
   39.9700   31.1380   45.8580 H   0  0  0  0  0  0  0  0  0  0  0  0
   39.2530   31.2470   43.2210 C   0  0  0  0  0  0  0  0  0  0  0  0
   40.2560   30.3360   43.4140 C   0  0  0  0  0  0  0  0  0  0  0  0
   40.9810   29.9140   42.3080 C   0  0  0  0  0  0  0  0  0  0  0  0
   40.6490   30.4350   41.0910 C   0  0  0  0  0  0  0  0  0  0  0  0
   39.6240   31.3710   40.8760 C   0  0  0  0  0  0  0  0  0  0  0  0
   38.9730   31.7250   41.9940 N   0  0  0  0  0  0  0  0  0  0  0  0
   40.5100   29.9320   44.3780 H   0  0  0  0  0  0  0  0  0  0  0  0
   41.7850   29.1960   42.4070 H   0  0  0  0  0  0  0  0  0  0  0  0
   41.2200   30.1000   40.2400 H   0  0  0  0  0  0  0  0  0  0  0  0
   39.3280   31.8850   39.5260 C   0  0  0  0  0  2  0  0  0  0  0  0
   40.3700   31.6650   38.5650 N   0  0  0  0  0  4  0  0  0  0  0  0
   40.7120   32.5950   38.2360 H   0  0  0  0  0  0  0  0  0  0  0  0
   41.5170   30.9660   39.1190 C   0  0  0  0  0  2  0  0  0  0  0  0
   41.7380   31.3540   40.1190 H   0  0  0  0  0  0  0  0  0  0  0  0
   39.8590   30.9430   37.3900 C   0  0  0  0  0  2  0  0  0  0  0  0
   39.8590   31.5720   36.4970 H   0  0  0  0  0  0  0  0  0  0  0  0
   38.4530   31.0530   48.1040 C   0  0  2  0  0  0  0  0  0  0  0  0
   38.7480   32.4880   47.9640 C   0  0  0  0  0  0  0  0  0  0  0  0
   38.1130   31.6350   46.8320 C   0  0  1  0  0  0  0  0  0  0  0  0
   39.3870   30.4360   48.2180 H   0  0  0  0  0  0  0  0  0  0  0  0
   38.0750   33.2320   48.4460 H   0  0  0  0  0  0  0  0  0  0  0  0
   39.7660   32.8460   47.8130 H   0  0  0  0  0  0  0  0  0  0  0  0
   37.0550   31.8880   46.6070 H   0  0  0  0  0  0  0  0  0  0  0  0
   35.0970   30.2730   49.4330 C   0  0  0  0  0  0  0  0  0  0  0  0
   35.3980   29.6050   50.6500 C   0  0  0  0  0  0  0  0  0  0  0  0
   36.7910   29.4430   50.9980 C   0  0  0  0  0  0  0  0  0  0  0  0
   37.7390   29.9290   50.1560 N   0  0  0  0  0  0  0  0  0  0  0  0
   37.3770   30.5600   49.0040 C   0  0  0  0  0  0  0  0  0  0  0  0
   36.0650   30.7470   48.6170 N   0  0  0  0  0  0  0  0  0  0  0  0
   34.0390   30.3640   49.2270 H   0  0  0  0  0  0  0  0  0  0  0  0
   34.6190   29.2390   51.2810 H   0  0  0  0  0  0  0  0  0  0  0  0
   37.0280   28.9360   51.9240 H   0  0  0  0  0  0  0  0  0  0  0  0
  1  3  1  0  0  0  0
  2  1  2  0  0  0  0
  3  4  1  0  0  0  0
  3 23  1  0  0  0  0
  5  6  1  0  0  0  0
  5  1  1  0  0  0  0
  6 11  1  0  0  0  0
  7 12  1  0  0  0  0
  7  6  2  0  0  0  0
  8  7  1  0  0  0  0
  9  8  2  0  0  0  0
  9 10  1  0  0  0  0
 10  5  2  0  0  0  0
 13  8  1  0  0  0  0
 14  9  1  0  0  0  0
 15 17  1  0  0  0  0
 15 14  1  0  0  0  0
 16 15  1  0  0  0  0
 17 18  1  0  0  0  0
 19 15  1  0  0  0  0
 20 19  1  0  0  0  0
 21 24  1  6  0  0  0
 21 32  1  0  0  0  0
 22 21  1  0  0  0  0
 22 25  1  0  0  0  0
 23 27  1  6  0  0  0
 23 22  1  0  0  0  0
 23 21  1  0  0  0  0
 26 22  1  0  0  0  0
 28 29  1  0  0  0  0
 29 30  2  0  0  0  0
 29 35  1  0  0  0  0
 30 36  1  0  0  0  0
 31 30  1  0  0  0  0
 32 31  2  0  0  0  0
 33 32  1  0  0  0  0
 33 28  2  0  0  0  0
 34 28  1  0  0  0  0
M  END
>  <minimizedAffinity>
-4.82142687

>  <minimizedRMSD>
0.386079311

$$$$
