
 OpenBabel03272505113D

 37 39  0  0  0  0  0  0  0  0999 V2000
   36.3790   30.8980   45.7060 Cl  0  0  0  0  0  0  0  0  0  0  0  0
   36.6720   30.7570   47.4250 C   0  0  0  0  0  0  0  0  0  0  0  0
   37.9440   31.0800   47.8770 C   0  0  0  0  0  0  0  0  0  0  0  0
   38.1910   30.9750   49.2310 C   0  0  0  0  0  0  0  0  0  0  0  0
   37.1970   30.5620   50.0810 C   0  0  0  0  0  0  0  0  0  0  0  0
   35.9390   30.2540   49.5540 C   0  0  0  0  0  0  0  0  0  0  0  0
   35.6200   30.3360   48.2160 C   0  0  0  0  0  0  0  0  0  0  0  0
   39.1830   31.2310   49.5520 H   0  0  0  0  0  0  0  0  0  0  0  0
   37.3830   30.4770   51.1390 H   0  0  0  0  0  0  0  0  0  0  0  0
   35.1770   29.9320   50.2550 H   0  0  0  0  0  0  0  0  0  0  0  0
   40.1950   33.2930   46.0570 C   0  0  0  0  0  0  0  0  0  0  0  0
   40.8970   32.4490   45.1840 C   0  0  0  0  0  0  0  0  0  0  0  0
   40.5770   31.0780   45.2330 C   0  0  0  0  0  0  0  0  0  0  0  0
   39.6220   30.6640   46.1090 N   0  0  0  0  0  0  0  0  0  0  0  0
   38.9830   31.5200   46.9210 C   0  0  0  0  0  0  0  0  0  0  0  0
   39.2730   32.8160   46.8870 N   0  0  0  0  0  0  0  0  0  0  0  0
   40.4460   34.3270   46.0060 H   0  0  0  0  0  0  0  0  0  0  0  0
   41.6610   32.7610   44.4760 H   0  0  0  0  0  0  0  0  0  0  0  0
   41.0640   30.3430   44.5990 H   0  0  0  0  0  0  0  0  0  0  0  0
   34.0390   29.9500   47.5480 S   0  0  0  0  0  0  0  0  0  0  0  0
   33.6500   29.1990   44.5080 Cl  0  0  0  0  0  0  0  0  0  0  0  0
   33.7350   27.9630   45.7550 C   0  0  0  0  0  0  0  0  0  0  0  0
   33.9020   28.2090   47.1180 C   0  0  0  0  0  0  0  0  0  0  0  0
   33.9540   27.1590   48.0040 C   0  0  0  0  0  0  0  0  0  0  0  0
   33.8400   25.8660   47.5530 C   0  0  0  0  0  0  0  0  0  0  0  0
   33.6730   25.5680   46.2150 C   0  0  0  0  0  0  0  0  0  0  0  0
   33.6260   26.6430   45.3540 C   0  0  0  0  0  0  0  0  0  0  0  0
   34.0860   27.4260   49.0580 H   0  0  0  0  0  0  0  0  0  0  0  0
   33.8950   25.1180   48.3390 H   0  0  0  0  0  0  0  0  0  0  0  0
   33.5910   24.5380   45.9150 H   0  0  0  0  0  0  0  0  0  0  0  0
   33.4490   26.3290   43.8970 C   0  0  0  0  0  2  0  0  0  0  0  0
   32.2110   25.6290   43.6330 N   0  0  0  0  0  4  0  0  0  0  0  0
   31.8730   25.0850   44.4580 H   0  0  0  0  0  0  0  0  0  0  0  0
   32.4160   24.7970   42.4650 C   0  0  0  0  0  2  0  0  0  0  0  0
   32.7370   23.7920   42.8080 H   0  0  0  0  0  0  0  0  0  0  0  0
   31.2160   26.6420   43.2650 C   0  0  0  0  0  2  0  0  0  0  0  0
   30.3420   26.2080   42.7430 H   0  0  0  0  0  0  0  0  0  0  0  0
  1  2  1  0  0  0  0
  2  3  2  0  0  0  0
  2  7  1  0  0  0  0
  3  4  1  0  0  0  0
  4  8  1  0  0  0  0
  4  5  2  0  0  0  0
  5  9  1  0  0  0  0
  6  5  1  0  0  0  0
  6 10  1  0  0  0  0
  7  6  2  0  0  0  0
 11 16  1  0  0  0  0
 12 13  1  0  0  0  0
 12 11  2  0  0  0  0
 13 14  2  0  0  0  0
 14 15  1  0  0  0  0
 15  3  1  0  0  0  0
 16 15  2  0  0  0  0
 17 11  1  0  0  0  0
 18 12  1  0  0  0  0
 19 13  1  0  0  0  0
 20  7  1  0  0  0  0
 21 22  1  0  0  0  0
 22 23  1  0  0  0  0
 23 20  1  0  0  0  0
 23 24  2  0  0  0  0
 24 28  1  0  0  0  0
 25 24  1  0  0  0  0
 25 29  1  0  0  0  0
 26 25  2  0  0  0  0
 27 22  2  0  0  0  0
 27 26  1  0  0  0  0
 30 26  1  0  0  0  0
 31 27  1  0  0  0  0
 32 31  1  0  0  0  0
 32 33  1  0  0  0  0
 34 35  1  0  0  0  0
 34 32  1  0  0  0  0
 36 32  1  0  0  0  0
 37 36  1  0  0  0  0
M  END
>  <minimizedAffinity>
-5.32880735

>  <minimizedRMSD>
0.575389743

$$$$
