REMARK  Name = 
REMARK  6 active torsions:
REMARK  status: ('A' for Active; 'I' for Inactive)
REMARK    1  A    between atoms: N_1  and  C_17
REMARK    2  A    between atoms: C_6  and  C_8
REMARK    3  A    between atoms: C_18  and  C_39
REMARK    4  A    between atoms: C_39  and  N_40
REMARK    5  A    between atoms: N_40  and  C_41
REMARK    6  A    between atoms: N_40  and  C_43
REMARK                            x       y       z     vdW  Elec       q    Type
REMARK                         _______ _______ _______ _____ _____    ______ ____
ROOT
ATOM      1  N   UNL     1      34.338  29.773  46.082  0.00  0.00    +0.000 N 
ATOM      2  C   UNL     1      33.018  29.968  45.524  0.00  0.00    +0.000 C 
ATOM      3  C   UNL     1      32.989  29.824  44.040  0.00  0.00    +0.000 C 
ATOM      4  N   UNL     1      34.069  28.974  43.604  0.00  0.00    +0.000 NA
ATOM      5  C   UNL     1      35.314  29.718  43.822  0.00  0.00    +0.000 C 
ATOM      6  C   UNL     1      35.598  29.628  45.278  0.00  0.00    +0.000 C 
ATOM      7  H   UNL     1      32.522  30.897  45.781  0.00  0.00    +0.000 HD
ATOM      8  H   UNL     1      32.413  29.129  45.940  0.00  0.00    +0.000 HD
ATOM      9  H   UNL     1      31.998  29.381  43.744  0.00  0.00    +0.000 HD
ATOM     10  H   UNL     1      33.052  30.796  43.514  0.00  0.00    +0.000 HD
ATOM     11  H   UNL     1      33.980  28.674  42.619  0.00  0.00    +0.000 HD
ATOM     12  H   UNL     1      35.101  30.737  43.486  0.00  0.00    +0.000 HD
ATOM     13  H   UNL     1      36.099  29.206  43.239  0.00  0.00    +0.000 HD
ATOM     14  H   UNL     1      35.955  28.604  45.535  0.00  0.00    +0.000 HD
ENDROOT
BRANCH   6  16
ATOM     15  C   UNL     1      37.234  31.534  44.895  0.00  0.00    +0.000 A 
ATOM     16  C   UNL     1      36.636  30.558  45.731  0.00  0.00    +0.000 A 
ATOM     17  C   UNL     1      36.965  30.486  47.060  0.00  0.00    +0.000 A 
ATOM     18  C   UNL     1      37.880  31.388  47.545  0.00  0.00    +0.000 A 
ATOM     19  C   UNL     1      38.482  32.370  46.693  0.00  0.00    +0.000 A 
ATOM     20  C   UNL     1      38.162  32.462  45.321  0.00  0.00    +0.000 A 
ATOM     21  O   UNL     1      39.390  33.171  47.425  0.00  0.00    +0.000 OA
ATOM     22  C   UNL     1      39.054  32.976  48.768  0.00  0.00    +0.000 C 
ATOM     23  O   UNL     1      38.456  31.659  48.782  0.00  0.00    +0.000 OA
ATOM     24  H   UNL     1      36.933  31.529  43.859  0.00  0.00    +0.000 HD
ATOM     25  H   UNL     1      36.753  29.846  47.877  0.00  0.00    +0.000 HD
ATOM     26  H   UNL     1      38.612  33.183  44.672  0.00  0.00    +0.000 HD
ATOM     27  H   UNL     1      38.192  33.644  49.020  0.00  0.00    +0.000 HD
ATOM     28  H   UNL     1      39.854  33.085  49.495  0.00  0.00    +0.000 HD
ENDBRANCH   6  16
BRANCH   1  30
ATOM     29  C   UNL     1      34.682  28.394  48.074  0.00  0.00    +0.000 A 
ATOM     30  C   UNL     1      34.446  29.677  47.493  0.00  0.00    +0.000 A 
ATOM     31  C   UNL     1      34.389  30.734  48.337  0.00  0.00    +0.000 A 
ATOM     32  N   UNL     1      34.563  30.500  49.690  0.00  0.00    +0.000 NA
ATOM     33  C   UNL     1      34.782  29.301  50.189  0.00  0.00    +0.000 A 
ATOM     34  N   UNL     1      34.845  28.240  49.409  0.00  0.00    +0.000 NA
ATOM     35  N   UNL     1      34.953  29.174  51.597  0.00  0.00    +0.000 N 
ATOM     36  H   UNL     1      34.726  27.522  47.438  0.00  0.00    +0.000 HD
ATOM     37  H   UNL     1      35.679  28.540  51.991  0.00  0.00    +0.000 HD
ATOM     38  H   UNL     1      34.302  29.758  52.197  0.00  0.00    +0.000 HD
BRANCH  31  39
ATOM     39  C   UNL     1      34.102  32.137  48.065  0.00  0.00    +0.000 C 
BRANCH  39  40
ATOM     40  N   UNL     1      33.290  32.834  49.019  0.00  0.00    +0.000 N 
ATOM     41  H   UNL     1      32.702  33.538  48.528  0.00  0.00    +0.000 HD
BRANCH  40  42
ATOM     42  C   UNL     1      32.640  32.058  50.016  0.00  0.00    +0.000 C 
ATOM     43  H   UNL     1      31.647  32.573  50.210  0.00  0.00    +0.000 HD
ENDBRANCH  40  42
BRANCH  40  44
ATOM     44  C   UNL     1      34.257  33.690  49.795  0.00  0.00    +0.000 C 
ATOM     45  H   UNL     1      33.659  34.425  50.341  0.00  0.00    +0.000 HD
ENDBRANCH  40  44
ENDBRANCH  39  40
ENDBRANCH  31  39
ENDBRANCH   1  30
TORSDOF 6
