
 OpenBabel03272506473D

 40 42  0  0  1  0  0  0  0  0999 V2000
   32.3420   28.5360   47.4590 C   0  0  2  0  0  0  0  0  0  0  0  0
   33.5660   28.4310   48.3190 C   0  0  1  0  0  0  0  0  0  0  0  0
   33.9750   27.1200   48.3020 O   0  0  0  0  0  0  0  0  0  0  0  0
   33.3180   26.4500   47.2740 C   0  0  0  0  0  0  0  0  0  0  0  0
   32.7260   27.4900   46.3570 C   0  0  1  0  0  0  0  0  0  0  0  0
   31.4230   28.1830   47.9060 H   0  0  0  0  0  0  0  0  0  0  0  0
   33.3670   28.8120   49.3420 H   0  0  0  0  0  0  0  0  0  0  0  0
   34.1560   25.9730   46.6660 H   0  0  0  0  0  0  0  0  0  0  0  0
   32.6530   25.7000   47.6610 H   0  0  0  0  0  0  0  0  0  0  0  0
   33.4430   28.0230   45.7350 H   0  0  0  0  0  0  0  0  0  0  0  0
   32.2640   29.8110   46.8730 O   0  0  0  0  0  0  0  0  0  0  0  0
   31.3020   30.0200   46.7230 H   0  0  0  0  0  0  0  0  0  0  0  0
   34.8850   29.4480   47.5570 S   0  0  0  0  0  0  0  0  0  0  0  0
   37.3400   29.3340   50.6510 C   0  0  0  0  0  0  0  0  0  0  0  0
   37.8190   30.6180   50.7900 C   0  0  0  0  0  0  0  0  0  0  0  0
   37.3660   31.5800   49.8850 C   0  0  0  0  0  0  0  0  0  0  0  0
   36.4880   31.2050   48.9270 N   0  0  0  0  0  0  0  0  0  0  0  0
   36.0390   29.9350   48.8210 C   0  0  0  0  0  0  0  0  0  0  0  0
   36.4640   28.9800   49.6880 N   0  0  0  0  0  0  0  0  0  0  0  0
   37.7350   28.6110   51.3900 H   0  0  0  0  0  0  0  0  0  0  0  0
   38.5190   30.9830   51.5240 H   0  0  0  0  0  0  0  0  0  0  0  0
   37.6250   32.6350   49.8340 H   0  0  0  0  0  0  0  0  0  0  0  0
   31.6080   26.9780   45.7590 O   0  0  0  0  0  0  0  0  0  0  0  0
   30.6100   29.0320   43.9060 Cl  0  0  0  0  0  0  0  0  0  0  0  0
   29.7810   28.2520   45.2270 C   0  0  0  0  0  0  0  0  0  0  0  0
   30.3470   27.2950   46.0360 C   0  0  0  0  0  0  0  0  0  0  0  0
   29.5640   26.7460   47.0500 C   0  0  0  0  0  0  0  0  0  0  0  0
   28.2600   27.1500   47.2370 C   0  0  0  0  0  0  0  0  0  0  0  0
   27.6790   28.1060   46.4310 C   0  0  0  0  0  0  0  0  0  0  0  0
   28.4660   28.6560   45.4120 C   0  0  0  0  0  0  0  0  0  0  0  0
   29.9420   25.9910   47.7180 H   0  0  0  0  0  0  0  0  0  0  0  0
   27.6790   26.7060   48.0320 H   0  0  0  0  0  0  0  0  0  0  0  0
   26.6720   28.3890   46.6230 H   0  0  0  0  0  0  0  0  0  0  0  0
   27.7630   29.6710   44.5860 C   0  0  0  0  0  2  0  0  0  0  0  0
   27.6470   30.9720   45.1400 N   0  0  0  0  0  4  0  0  0  0  0  0
   27.6530   31.0400   46.1830 H   0  0  0  0  0  0  0  0  0  0  0  0
   28.6600   31.8710   44.6460 C   0  0  0  0  0  2  0  0  0  0  0  0
   28.6360   32.8580   45.1680 H   0  0  0  0  0  0  0  0  0  0  0  0
   26.3730   31.5020   44.6100 C   0  0  0  0  0  2  0  0  0  0  0  0
   26.3460   32.5610   44.8280 H   0  0  0  0  0  0  0  0  0  0  0  0
  1  6  1  1  0  0  0
  1  2  1  0  0  0  0
  2  7  1  1  0  0  0
  3  2  1  0  0  0  0
  4  9  1  0  0  0  0
  4  3  1  0  0  0  0
  5 10  1  6  0  0  0
  5  4  1  0  0  0  0
  5  1  1  0  0  0  0
  8  4  1  0  0  0  0
 11  1  1  0  0  0  0
 12 11  1  0  0  0  0
 13  2  1  0  0  0  0
 13 18  1  0  0  0  0
 14 15  1  0  0  0  0
 14 20  1  0  0  0  0
 15 21  1  0  0  0  0
 16 15  2  0  0  0  0
 17 16  1  0  0  0  0
 18 17  2  0  0  0  0
 18 19  1  0  0  0  0
 19 14  2  0  0  0  0
 22 16  1  0  0  0  0
 23 26  1  0  0  0  0
 23  5  1  0  0  0  0
 24 25  1  0  0  0  0
 25 30  2  0  0  0  0
 25 26  1  0  0  0  0
 26 27  2  0  0  0  0
 27 28  1  0  0  0  0
 27 31  1  0  0  0  0
 28 32  1  0  0  0  0
 29 33  1  0  0  0  0
 29 28  2  0  0  0  0
 30 29  1  0  0  0  0
 34 35  1  0  0  0  0
 34 30  1  0  0  0  0
 35 36  1  0  0  0  0
 37 35  1  0  0  0  0
 37 38  1  0  0  0  0
 39 40  1  0  0  0  0
 39 35  1  0  0  0  0
M  END
>  <minimizedAffinity>
-4.50745678

>  <minimizedRMSD>
0.818218887

$$$$
