
 OpenBabel03272506463D

 40 42  0  0  1  0  0  0  0  0999 V2000
   32.2920   28.3390   47.4400 C   0  0  2  0  0  0  0  0  0  0  0  0
   33.4840   28.3970   48.3470 C   0  0  1  0  0  0  0  0  0  0  0  0
   34.0290   27.1370   48.3990 O   0  0  0  0  0  0  0  0  0  0  0  0
   33.4880   26.3630   47.3760 C   0  0  0  0  0  0  0  0  0  0  0  0
   32.8280   27.2990   46.3970 C   0  0  1  0  0  0  0  0  0  0  0  0
   31.3970   27.9070   47.8680 H   0  0  0  0  0  0  0  0  0  0  0  0
   33.2050   28.7920   49.3460 H   0  0  0  0  0  0  0  0  0  0  0  0
   34.3950   25.9560   46.8190 H   0  0  0  0  0  0  0  0  0  0  0  0
   32.8900   25.5620   47.7690 H   0  0  0  0  0  0  0  0  0  0  0  0
   33.5100   27.8820   45.7790 H   0  0  0  0  0  0  0  0  0  0  0  0
   32.1040   29.5760   46.7990 O   0  0  0  0  0  0  0  0  0  0  0  0
   31.1320   29.6760   46.6070 H   0  0  0  0  0  0  0  0  0  0  0  0
   34.7190   29.5200   47.5920 S   0  0  0  0  0  0  0  0  0  0  0  0
   37.2930   29.3110   50.5830 C   0  0  0  0  0  0  0  0  0  0  0  0
   37.7730   30.5920   50.7470 C   0  0  0  0  0  0  0  0  0  0  0  0
   37.2820   31.5830   49.8930 C   0  0  0  0  0  0  0  0  0  0  0  0
   36.3680   31.2370   48.9580 N   0  0  0  0  0  0  0  0  0  0  0  0
   35.9200   29.9680   48.8260 C   0  0  0  0  0  0  0  0  0  0  0  0
   36.3810   28.9870   49.6430 N   0  0  0  0  0  0  0  0  0  0  0  0
   37.7190   28.5650   51.2810 H   0  0  0  0  0  0  0  0  0  0  0  0
   38.5000   30.9350   51.4660 H   0  0  0  0  0  0  0  0  0  0  0  0
   37.5360   32.6400   49.8680 H   0  0  0  0  0  0  0  0  0  0  0  0
   31.7950   26.6490   45.7800 O   0  0  0  0  0  0  0  0  0  0  0  0
   30.6900   28.2830   43.5980 Cl  0  0  0  0  0  0  0  0  0  0  0  0
   29.8800   27.6320   44.9980 C   0  0  0  0  0  0  0  0  0  0  0  0
   30.4970   26.8730   45.9650 C   0  0  0  0  0  0  0  0  0  0  0  0
   29.7240   26.4070   47.0260 C   0  0  0  0  0  0  0  0  0  0  0  0
   28.3790   26.6980   47.1060 C   0  0  0  0  0  0  0  0  0  0  0  0
   27.7480   27.4550   46.1430 C   0  0  0  0  0  0  0  0  0  0  0  0
   28.5240   27.9220   45.0750 C   0  0  0  0  0  0  0  0  0  0  0  0
   30.1410   25.8050   47.8160 H   0  0  0  0  0  0  0  0  0  0  0  0
   27.8080   26.3220   47.9420 H   0  0  0  0  0  0  0  0  0  0  0  0
   26.7090   27.6570   46.2560 H   0  0  0  0  0  0  0  0  0  0  0  0
   27.7660   28.7210   44.0800 C   0  0  0  0  0  2  0  0  0  0  0  0
   26.5700   29.3330   44.5340 N   0  0  0  0  0  4  0  0  0  0  0  0
   26.1610   28.9630   45.4220 H   0  0  0  0  0  0  0  0  0  0  0  0
   26.7100   30.7600   44.6880 C   0  0  0  0  0  2  0  0  0  0  0  0
   25.8050   31.2220   45.1520 H   0  0  0  0  0  0  0  0  0  0  0  0
   25.6050   29.1610   43.4270 C   0  0  0  0  0  2  0  0  0  0  0  0
   24.7530   29.7940   43.6360 H   0  0  0  0  0  0  0  0  0  0  0  0
  1  6  1  1  0  0  0
  1  2  1  0  0  0  0
  2  3  1  0  0  0  0
  2  7  1  1  0  0  0
  4  9  1  0  0  0  0
  4  3  1  0  0  0  0
  5 10  1  6  0  0  0
  5  4  1  0  0  0  0
  5  1  1  0  0  0  0
  8  4  1  0  0  0  0
 11  1  1  0  0  0  0
 12 11  1  0  0  0  0
 13  2  1  0  0  0  0
 13 18  1  0  0  0  0
 14 15  1  0  0  0  0
 14 20  1  0  0  0  0
 15 21  1  0  0  0  0
 16 15  2  0  0  0  0
 17 16  1  0  0  0  0
 18 17  2  0  0  0  0
 18 19  1  0  0  0  0
 19 14  2  0  0  0  0
 22 16  1  0  0  0  0
 23 26  1  0  0  0  0
 23  5  1  0  0  0  0
 24 25  1  0  0  0  0
 25 30  2  0  0  0  0
 25 26  1  0  0  0  0
 26 27  2  0  0  0  0
 27 28  1  0  0  0  0
 27 31  1  0  0  0  0
 28 32  1  0  0  0  0
 29 33  1  0  0  0  0
 29 28  2  0  0  0  0
 30 29  1  0  0  0  0
 34 35  1  0  0  0  0
 34 30  1  0  0  0  0
 35 37  1  0  0  0  0
 35 36  1  0  0  0  0
 37 38  1  0  0  0  0
 39 40  1  0  0  0  0
 39 35  1  0  0  0  0
M  END
>  <minimizedAffinity>
-4.61506128

>  <minimizedRMSD>
0.841994703

$$$$
