
 OpenBabel03272505233D

 33 35  0  0  0  0  0  0  0  0999 V2000
   37.2010   30.9750   47.0970 Br  0  0  0  0  0  0  0  0  0  0  0  0
   35.6750   29.9780   46.5530 C   0  0  0  0  0  0  0  0  0  0  0  0
   34.9320   29.2750   47.4690 C   0  0  0  0  0  0  0  0  0  0  0  0
   33.8150   28.5670   47.0190 C   0  0  0  0  0  0  0  0  0  0  0  0
   33.4870   28.5870   45.6800 C   0  0  0  0  0  0  0  0  0  0  0  0
   34.2330   29.2950   44.7460 C   0  0  0  0  0  0  0  0  0  0  0  0
   35.3420   29.9960   45.2130 C   0  0  0  0  0  0  0  0  0  0  0  0
   33.2540   28.0250   47.7690 H   0  0  0  0  0  0  0  0  0  0  0  0
   32.6170   28.0300   45.3570 H   0  0  0  0  0  0  0  0  0  0  0  0
   33.9820   29.3130   43.7070 H   0  0  0  0  0  0  0  0  0  0  0  0
   37.0880   29.3290   50.5660 C   0  0  0  0  0  0  0  0  0  0  0  0
   36.6960   29.2730   49.2210 C   0  0  0  0  0  0  0  0  0  0  0  0
   35.3710   29.3250   48.8620 C   0  0  0  0  0  0  0  0  0  0  0  0
   34.4590   29.4340   49.8860 N   0  0  0  0  0  0  0  0  0  0  0  0
   34.8370   29.4890   51.1800 C   0  0  0  0  0  0  0  0  0  0  0  0
   36.1320   29.4370   51.5230 N   0  0  0  0  0  0  0  0  0  0  0  0
   38.1280   29.2900   50.8740 H   0  0  0  0  0  0  0  0  0  0  0  0
   37.5030   29.1720   48.5240 H   0  0  0  0  0  0  0  0  0  0  0  0
   33.9730   29.5730   51.8270 H   0  0  0  0  0  0  0  0  0  0  0  0
   36.1570   30.7490   44.2670 C   0  0  0  0  0  0  0  0  0  0  0  0
   35.7740   31.8230   43.5190 C   0  0  0  0  0  0  0  0  0  0  0  0
   36.7830   32.2540   42.7600 N   0  0  0  0  0  0  0  0  0  0  0  0
   37.8300   31.4630   43.0100 C   0  0  0  0  0  0  0  0  0  0  0  0
   37.4740   30.5260   43.9360 N   0  0  0  0  0  0  0  0  0  0  0  0
   34.7740   32.2300   43.5700 H   0  0  0  0  0  0  0  0  0  0  0  0
   36.6960   33.0680   42.1130 H   0  0  0  0  0  0  0  0  0  0  0  0
   39.1690   31.5930   42.3750 C   0  0  0  0  0  2  0  0  0  0  0  0
   40.1610   32.1450   43.2570 N   0  0  0  0  0  4  0  0  0  0  0  0
   40.9780   32.4970   42.7090 H   0  0  0  0  0  0  0  0  0  0  0  0
   40.6510   31.0240   44.0610 C   0  0  0  0  0  2  0  0  0  0  0  0
   39.7430   30.5290   44.4830 H   0  0  0  0  0  0  0  0  0  0  0  0
   39.6760   33.1300   44.1740 C   0  0  0  0  0  2  0  0  0  0  0  0
   38.7090   33.5850   43.9240 H   0  0  0  0  0  0  0  0  0  0  0  0
  2  1  1  0  0  0  0
  2  3  1  0  0  0  0
  3 13  1  0  0  0  0
  4  3  2  0  0  0  0
  4  8  1  0  0  0  0
  5  4  1  0  0  0  0
  6  7  1  0  0  0  0
  6  5  2  0  0  0  0
  7  2  2  0  0  0  0
  9  5  1  0  0  0  0
 10  6  1  0  0  0  0
 11 17  1  0  0  0  0
 11 16  1  0  0  0  0
 12 11  2  0  0  0  0
 13 12  1  0  0  0  0
 13 14  2  0  0  0  0
 14 15  1  0  0  0  0
 15 16  2  0  0  0  0
 15 19  1  0  0  0  0
 18 12  1  0  0  0  0
 20  7  1  0  0  0  0
 21 25  1  0  0  0  0
 21 20  2  0  0  0  0
 22 23  1  0  0  0  0
 22 21  1  0  0  0  0
 23 24  2  0  0  0  0
 24 20  1  0  0  0  0
 26 22  1  0  0  0  0
 27 23  1  0  0  0  0
 27 28  1  0  0  0  0
 28 30  1  0  0  0  0
 28 32  1  0  0  0  0
 29 28  1  0  0  0  0
 30 31  1  0  0  0  0
 33 32  1  0  0  0  0
M  END
>  <minimizedAffinity>
-4.47621107

>  <minimizedRMSD>
2.85735226

$$$$
