
 OpenBabel03262523393D

 43 45  0  0  1  0  0  0  0  0999 V2000
   37.7210   26.7760   33.1350 C   0  0  2  0  0  0  0  0  0  0  0  0
   39.0350   26.1760   33.4710 C   0  0  0  0  0  0  0  0  0  0  0  0
   39.1440   25.7510   34.9360 C   0  0  2  0  0  0  0  0  0  0  0  0
   39.0010   26.9660   35.8150 C   0  0  0  0  0  0  0  0  0  0  0  0
   37.8190   27.8270   35.4150 C   0  0  0  0  0  0  0  0  0  0  0  0
   36.9540   27.1460   34.3860 C   0  0  0  0  0  0  0  0  0  0  0  0
   37.8080   27.7110   32.5060 H   0  0  0  0  0  0  0  0  0  0  0  0
   39.7710   27.0580   33.4340 H   0  0  0  0  0  0  0  0  0  0  0  0
   39.4830   25.4240   32.8860 H   0  0  0  0  0  0  0  0  0  0  0  0
   38.2550   25.1130   35.1220 H   0  0  0  0  0  0  0  0  0  0  0  0
   39.9250   27.5630   35.7180 H   0  0  0  0  0  0  0  0  0  0  0  0
   38.9270   26.6440   36.8760 H   0  0  0  0  0  0  0  0  0  0  0  0
   38.1450   28.8330   35.0510 H   0  0  0  0  0  0  0  0  0  0  0  0
   37.2090   28.0270   36.3070 H   0  0  0  0  0  0  0  0  0  0  0  0
   36.5570   26.2240   34.8270 H   0  0  0  0  0  0  0  0  0  0  0  0
   36.1750   27.8760   34.0870 H   0  0  0  0  0  0  0  0  0  0  0  0
   40.3400   24.9340   35.1890 C   0  0  2  0  0  0  0  0  0  0  0  0
   41.5000   25.1200   34.2570 C   0  0  0  0  0  0  0  0  0  0  0  0
   42.3460   23.9200   34.7370 C   0  0  0  0  0  0  0  0  0  0  0  0
   41.4360   22.8990   34.8960 O   0  0  0  0  0  0  0  0  0  0  0  0
   40.1860   23.4590   35.1540 C   0  0  1  0  0  0  0  0  0  0  0  0
   40.7290   25.2210   36.1990 H   0  0  0  0  0  0  0  0  0  0  0  0
   41.2180   24.9700   33.1970 H   0  0  0  0  0  0  0  0  0  0  0  0
   42.0230   26.0580   34.4460 H   0  0  0  0  0  0  0  0  0  0  0  0
   42.8060   24.1850   35.7040 H   0  0  0  0  0  0  0  0  0  0  0  0
   43.0650   23.7240   33.9290 H   0  0  0  0  0  0  0  0  0  0  0  0
   39.4410   23.0520   34.4770 H   0  0  0  0  0  0  0  0  0  0  0  0
   39.7930   23.0160   36.5480 C   0  0  0  0  0  2  0  0  0  0  0  0
   38.5270   22.3390   36.6040 N   0  0  0  0  0  4  0  0  0  0  0  0
   38.6080   21.4280   37.1090 H   0  0  0  0  0  0  0  0  0  0  0  0
   38.1520   22.1200   35.1970 C   0  0  0  0  0  2  0  0  0  0  0  0
   38.5210   21.1650   34.8140 H   0  0  0  0  0  0  0  0  0  0  0  0
   37.4890   23.2010   37.1330 C   0  0  0  0  0  2  0  0  0  0  0  0
   36.5240   22.9920   36.6250 H   0  0  0  0  0  0  0  0  0  0  0  0
   36.8560   25.8720   32.3440 C   0  0  0  0  0  0  0  0  0  0  0  0
   37.1580   24.5130   32.4420 C   0  0  0  0  0  0  0  0  0  0  0  0
   36.3740   23.6200   31.7420 C   0  0  0  0  0  0  0  0  0  0  0  0
   35.3240   24.1020   30.9740 N   0  0  0  0  0  0  0  0  0  0  0  0
   35.0640   25.4310   30.9060 C   0  0  0  0  0  0  0  0  0  0  0  0
   35.8270   26.2780   31.5850 N   0  0  0  0  0  0  0  0  0  0  0  0
   37.8820   23.8890   32.9350 H   0  0  0  0  0  0  0  0  0  0  0  0
   36.3870   22.5500   31.6430 H   0  0  0  0  0  0  0  0  0  0  0  0
   34.2540   25.8160   30.3130 H   0  0  0  0  0  0  0  0  0  0  0  0
  1  7  1  6  0  0  0
  1  2  1  0  0  0  0
  1  6  1  0  0  0  0
  2  3  1  0  0  0  0
  3 10  1  1  0  0  0
  3 17  1  0  0  0  0
  3  4  1  0  0  0  0
  4 12  1  0  0  0  0
  5  4  1  0  0  0  0
  5 14  1  0  0  0  0
  6 15  1  0  0  0  0
  6  5  1  0  0  0  0
  8  2  1  0  0  0  0
  9  2  1  0  0  0  0
 11  4  1  0  0  0  0
 13  5  1  0  0  0  0
 16  6  1  0  0  0  0
 17 22  1  1  0  0  0
 18 24  1  0  0  0  0
 18 19  1  0  0  0  0
 18 17  1  0  0  0  0
 19 20  1  0  0  0  0
 19 25  1  0  0  0  0
 20 21  1  0  0  0  0
 21 27  1  6  0  0  0
 21 17  1  0  0  0  0
 21 28  1  0  0  0  0
 23 18  1  0  0  0  0
 26 19  1  0  0  0  0
 28 29  1  0  0  0  0
 29 30  1  0  0  0  0
 29 33  1  0  0  0  0
 31 29  1  0  0  0  0
 32 31  1  0  0  0  0
 34 33  1  0  0  0  0
 35 36  1  0  0  0  0
 35  1  1  0  0  0  0
 36 41  1  0  0  0  0
 37 36  2  0  0  0  0
 38 37  1  0  0  0  0
 39 38  2  0  0  0  0
 39 40  1  0  0  0  0
 40 35  2  0  0  0  0
 42 37  1  0  0  0  0
 43 39  1  0  0  0  0
M  END
>  <minimizedAffinity>
-5.29039574

$$$$

 OpenBabel03262523393D

 43 45  0  0  1  0  0  0  0  0999 V2000
   35.6480   28.7710   33.7650 C   0  0  2  0  0  0  0  0  0  0  0  0
   36.6370   27.9680   34.5230 C   0  0  0  0  0  0  0  0  0  0  0  0
   37.7770   27.4390   33.6500 C   0  0  2  0  0  0  0  0  0  0  0  0
   37.2090   26.5210   32.6000 C   0  0  0  0  0  0  0  0  0  0  0  0
   36.0060   27.1240   31.9020 C   0  0  0  0  0  0  0  0  0  0  0  0
   35.8100   28.5710   32.2740 C   0  0  0  0  0  0  0  0  0  0  0  0
   34.5780   28.5150   34.0230 H   0  0  0  0  0  0  0  0  0  0  0  0
   36.0800   26.9970   34.7840 H   0  0  0  0  0  0  0  0  0  0  0  0
   37.0570   28.2920   35.4330 H   0  0  0  0  0  0  0  0  0  0  0  0
   38.1750   28.3280   33.1200 H   0  0  0  0  0  0  0  0  0  0  0  0
   36.8990   25.5870   33.1000 H   0  0  0  0  0  0  0  0  0  0  0  0
   38.0080   26.2570   31.8730 H   0  0  0  0  0  0  0  0  0  0  0  0
   35.0750   26.5370   32.1030 H   0  0  0  0  0  0  0  0  0  0  0  0
   36.1580   27.0590   30.8150 H   0  0  0  0  0  0  0  0  0  0  0  0
   36.6950   29.1320   31.9490 H   0  0  0  0  0  0  0  0  0  0  0  0
   34.8660   28.9010   31.7960 H   0  0  0  0  0  0  0  0  0  0  0  0
   38.8710   26.8710   34.4510 C   0  0  2  0  0  0  0  0  0  0  0  0
   40.2680   27.1030   33.9570 C   0  0  0  0  0  0  0  0  0  0  0  0
   40.9930   26.1380   34.9210 C   0  0  0  0  0  0  0  0  0  0  0  0
   40.1920   25.0180   34.9510 O   0  0  0  0  0  0  0  0  0  0  0  0
   38.8870   25.4010   34.6500 C   0  0  1  0  0  0  0  0  0  0  0  0
   38.8320   27.3590   35.4580 H   0  0  0  0  0  0  0  0  0  0  0  0
   40.4110   26.7590   32.9150 H   0  0  0  0  0  0  0  0  0  0  0  0
   40.5910   28.1310   34.1310 H   0  0  0  0  0  0  0  0  0  0  0  0
   41.0370   26.6100   35.9170 H   0  0  0  0  0  0  0  0  0  0  0  0
   41.9730   25.9450   34.4640 H   0  0  0  0  0  0  0  0  0  0  0  0
   38.4860   24.7850   33.8510 H   0  0  0  0  0  0  0  0  0  0  0  0
   38.0550   25.1060   35.8810 C   0  0  0  0  0  2  0  0  0  0  0  0
   38.5570   24.0150   36.6710 N   0  0  0  0  0  4  0  0  0  0  0  0
   39.5880   23.9050   36.5500 H   0  0  0  0  0  0  0  0  0  0  0  0
   37.8450   22.8280   36.1700 C   0  0  0  0  0  2  0  0  0  0  0  0
   38.3820   22.3380   35.3530 H   0  0  0  0  0  0  0  0  0  0  0  0
   38.1480   24.1340   38.0570 C   0  0  0  0  0  2  0  0  0  0  0  0
   37.9500   23.1270   38.4830 H   0  0  0  0  0  0  0  0  0  0  0  0
   35.7590   30.2240   34.0250 C   0  0  0  0  0  0  0  0  0  0  0  0
   35.8960   30.5860   35.3650 C   0  0  0  0  0  0  0  0  0  0  0  0
   36.0240   31.9250   35.6680 C   0  0  0  0  0  0  0  0  0  0  0  0
   36.0100   32.8540   34.6380 N   0  0  0  0  0  0  0  0  0  0  0  0
   35.8740   32.4600   33.3470 C   0  0  0  0  0  0  0  0  0  0  0  0
   35.7530   31.1680   33.0720 N   0  0  0  0  0  0  0  0  0  0  0  0
   35.9330   30.1010   36.3240 H   0  0  0  0  0  0  0  0  0  0  0  0
   36.1400   32.4630   36.5920 H   0  0  0  0  0  0  0  0  0  0  0  0
   35.8620   33.1710   32.5400 H   0  0  0  0  0  0  0  0  0  0  0  0
  1  7  1  1  0  0  0
  1 35  1  0  0  0  0
  1  2  1  0  0  0  0
  2  8  1  0  0  0  0
  2  9  1  0  0  0  0
  3 10  1  6  0  0  0
  3 17  1  0  0  0  0
  3  2  1  0  0  0  0
  4 11  1  0  0  0  0
  4  3  1  0  0  0  0
  5 13  1  0  0  0  0
  5  6  1  0  0  0  0
  5  4  1  0  0  0  0
  6  1  1  0  0  0  0
 12  4  1  0  0  0  0
 14  5  1  0  0  0  0
 15  6  1  0  0  0  0
 16  6  1  0  0  0  0
 17 21  1  0  0  0  0
 17 22  1  1  0  0  0
 18 24  1  0  0  0  0
 18 17  1  0  0  0  0
 18 19  1  0  0  0  0
 19 20  1  0  0  0  0
 19 25  1  0  0  0  0
 21 27  1  6  0  0  0
 21 20  1  0  0  0  0
 21 28  1  0  0  0  0
 23 18  1  0  0  0  0
 26 19  1  0  0  0  0
 28 29  1  0  0  0  0
 29 33  1  0  0  0  0
 30 29  1  0  0  0  0
 31 29  1  0  0  0  0
 32 31  1  0  0  0  0
 33 34  1  0  0  0  0
 35 36  1  0  0  0  0
 36 37  2  0  0  0  0
 36 41  1  0  0  0  0
 37 42  1  0  0  0  0
 38 37  1  0  0  0  0
 39 38  2  0  0  0  0
 40 39  1  0  0  0  0
 40 35  2  0  0  0  0
 43 39  1  0  0  0  0
M  END
>  <minimizedAffinity>
-5.02152729

$$$$

 OpenBabel03262523393D

 43 45  0  0  1  0  0  0  0  0999 V2000
   36.5520   23.5490   31.4320 C   0  0  2  0  0  0  0  0  0  0  0  0
   37.6570   24.2470   32.1340 C   0  0  0  0  0  0  0  0  0  0  0  0
   37.1890   25.4780   32.9140 C   0  0  2  0  0  0  0  0  0  0  0  0
   36.6050   26.4780   31.9520 C   0  0  0  0  0  0  0  0  0  0  0  0
   35.6260   25.8400   30.9850 C   0  0  0  0  0  0  0  0  0  0  0  0
   35.3140   24.4150   31.3640 C   0  0  0  0  0  0  0  0  0  0  0  0
   36.8160   23.2550   30.3730 H   0  0  0  0  0  0  0  0  0  0  0  0
   38.2720   24.7300   31.2920 H   0  0  0  0  0  0  0  0  0  0  0  0
   38.3630   23.7410   32.7300 H   0  0  0  0  0  0  0  0  0  0  0  0
   36.3560   25.1190   33.5520 H   0  0  0  0  0  0  0  0  0  0  0  0
   37.4370   26.9200   31.3760 H   0  0  0  0  0  0  0  0  0  0  0  0
   36.1280   27.3030   32.5260 H   0  0  0  0  0  0  0  0  0  0  0  0
   35.9920   25.8960   29.9300 H   0  0  0  0  0  0  0  0  0  0  0  0
   34.6910   26.4180   30.9960 H   0  0  0  0  0  0  0  0  0  0  0  0
   34.8450   24.4180   32.3550 H   0  0  0  0  0  0  0  0  0  0  0  0
   34.6710   24.0030   30.5600 H   0  0  0  0  0  0  0  0  0  0  0  0
   38.2370   26.0030   33.8010 C   0  0  2  0  0  0  0  0  0  0  0  0
   39.2300   26.9500   33.1950 C   0  0  0  0  0  0  0  0  0  0  0  0
   40.2220   26.9950   34.3780 C   0  0  0  0  0  0  0  0  0  0  0  0
   40.3210   25.6860   34.7940 O   0  0  0  0  0  0  0  0  0  0  0  0
   39.1440   25.0240   34.4490 C   0  0  1  0  0  0  0  0  0  0  0  0
   37.7260   26.5900   34.6050 H   0  0  0  0  0  0  0  0  0  0  0  0
   39.7340   26.5230   32.3080 H   0  0  0  0  0  0  0  0  0  0  0  0
   38.7940   27.9350   33.0230 H   0  0  0  0  0  0  0  0  0  0  0  0
   39.7860   27.6230   35.1740 H   0  0  0  0  0  0  0  0  0  0  0  0
   41.1630   27.3780   33.9600 H   0  0  0  0  0  0  0  0  0  0  0  0
   39.3680   24.1140   33.9020 H   0  0  0  0  0  0  0  0  0  0  0  0
   38.4910   24.5990   35.7470 C   0  0  0  0  0  2  0  0  0  0  0  0
   38.0700   23.2250   35.7600 N   0  0  0  0  0  4  0  0  0  0  0  0
   37.4190   23.0220   34.9690 H   0  0  0  0  0  0  0  0  0  0  0  0
   37.3870   23.0510   37.0530 C   0  0  0  0  0  2  0  0  0  0  0  0
   36.3170   23.2620   36.9870 H   0  0  0  0  0  0  0  0  0  0  0  0
   39.2050   22.3250   35.8170 C   0  0  0  0  0  2  0  0  0  0  0  0
   38.9560   21.4350   36.4340 H   0  0  0  0  0  0  0  0  0  0  0  0
   36.1610   22.2800   32.0860 C   0  0  0  0  0  0  0  0  0  0  0  0
   35.3270   21.4490   31.3370 C   0  0  0  0  0  0  0  0  0  0  0  0
   34.9440   20.2440   31.8870 C   0  0  0  0  0  0  0  0  0  0  0  0
   35.3980   19.9050   33.1530 N   0  0  0  0  0  0  0  0  0  0  0  0
   36.2080   20.7420   33.8490 C   0  0  0  0  0  0  0  0  0  0  0  0
   36.5670   21.8980   33.3060 N   0  0  0  0  0  0  0  0  0  0  0  0
   34.8430   21.4600   30.3770 H   0  0  0  0  0  0  0  0  0  0  0  0
   34.3250   19.4380   31.5350 H   0  0  0  0  0  0  0  0  0  0  0  0
   36.5660   20.4910   34.8310 H   0  0  0  0  0  0  0  0  0  0  0  0
  1  7  1  6  0  0  0
  1 35  1  0  0  0  0
  1  2  1  0  0  0  0
  2  9  1  0  0  0  0
  2  3  1  0  0  0  0
  3 10  1  1  0  0  0
  3 17  1  0  0  0  0
  4 12  1  0  0  0  0
  4  3  1  0  0  0  0
  5 14  1  0  0  0  0
  5  6  1  0  0  0  0
  5  4  1  0  0  0  0
  6  1  1  0  0  0  0
  6 15  1  0  0  0  0
  8  2  1  0  0  0  0
 11  4  1  0  0  0  0
 13  5  1  0  0  0  0
 16  6  1  0  0  0  0
 17 21  1  0  0  0  0
 17 22  1  1  0  0  0
 18 17  1  0  0  0  0
 18 19  1  0  0  0  0
 19 20  1  0  0  0  0
 19 25  1  0  0  0  0
 21 27  1  6  0  0  0
 21 20  1  0  0  0  0
 21 28  1  0  0  0  0
 23 18  1  0  0  0  0
 24 18  1  0  0  0  0
 26 19  1  0  0  0  0
 28 29  1  0  0  0  0
 29 33  1  0  0  0  0
 29 31  1  0  0  0  0
 30 29  1  0  0  0  0
 32 31  1  0  0  0  0
 33 34  1  0  0  0  0
 35 40  1  0  0  0  0
 36 37  1  0  0  0  0
 36 35  2  0  0  0  0
 37 38  2  0  0  0  0
 38 39  1  0  0  0  0
 39 43  1  0  0  0  0
 40 39  2  0  0  0  0
 41 36  1  0  0  0  0
 42 37  1  0  0  0  0
M  END
>  <minimizedAffinity>
-4.9734726

$$$$

 OpenBabel03262523393D

 43 45  0  0  1  0  0  0  0  0999 V2000
   39.5340   26.5310   35.0230 C   0  0  2  0  0  0  0  0  0  0  0  0
   38.6650   26.9700   33.9040 C   0  0  0  0  0  0  0  0  0  0  0  0
   39.2730   26.6950   32.5280 C   0  0  2  0  0  0  0  0  0  0  0  0
   40.5570   27.4720   32.3910 C   0  0  0  0  0  0  0  0  0  0  0  0
   41.4530   27.3150   33.6040 C   0  0  0  0  0  0  0  0  0  0  0  0
   40.9420   26.2540   34.5440 C   0  0  0  0  0  0  0  0  0  0  0  0
   39.6060   27.2930   35.8540 H   0  0  0  0  0  0  0  0  0  0  0  0
   38.7020   28.1180   33.9450 H   0  0  0  0  0  0  0  0  0  0  0  0
   37.6400   26.7340   33.8530 H   0  0  0  0  0  0  0  0  0  0  0  0
   39.5470   25.6200   32.5390 H   0  0  0  0  0  0  0  0  0  0  0  0
   40.2950   28.5390   32.2770 H   0  0  0  0  0  0  0  0  0  0  0  0
   41.0770   27.1590   31.4600 H   0  0  0  0  0  0  0  0  0  0  0  0
   41.5900   28.2850   34.1440 H   0  0  0  0  0  0  0  0  0  0  0  0
   42.4590   27.0290   33.2660 H   0  0  0  0  0  0  0  0  0  0  0  0
   40.9380   25.2960   34.0100 H   0  0  0  0  0  0  0  0  0  0  0  0
   41.6000   26.2710   35.4370 H   0  0  0  0  0  0  0  0  0  0  0  0
   38.3030   26.8970   31.4420 C   0  0  2  0  0  0  0  0  0  0  0  0
   37.9710   28.3140   31.0810 C   0  0  0  0  0  0  0  0  0  0  0  0
   36.7800   28.0170   30.1440 C   0  0  0  0  0  0  0  0  0  0  0  0
   36.0690   27.0330   30.7950 O   0  0  0  0  0  0  0  0  0  0  0  0
   36.9440   26.3290   31.6190 C   0  0  1  0  0  0  0  0  0  0  0  0
   38.7480   26.4560   30.5140 H   0  0  0  0  0  0  0  0  0  0  0  0
   37.6180   28.9000   31.9510 H   0  0  0  0  0  0  0  0  0  0  0  0
   38.7830   28.7910   30.5290 H   0  0  0  0  0  0  0  0  0  0  0  0
   37.1760   27.6400   29.1860 H   0  0  0  0  0  0  0  0  0  0  0  0
   36.2220   28.9610   30.0670 H   0  0  0  0  0  0  0  0  0  0  0  0
   36.5530   26.2770   32.6310 H   0  0  0  0  0  0  0  0  0  0  0  0
   36.9810   24.9080   31.0970 C   0  0  0  0  0  2  0  0  0  0  0  0
   36.4190   23.9440   32.0020 N   0  0  0  0  0  4  0  0  0  0  0  0
   35.8270   24.4070   32.7270 H   0  0  0  0  0  0  0  0  0  0  0  0
   37.5800   23.2860   32.6220 C   0  0  0  0  0  2  0  0  0  0  0  0
   37.9020   23.7910   33.5360 H   0  0  0  0  0  0  0  0  0  0  0  0
   35.7320   22.8850   31.2870 C   0  0  0  0  0  2  0  0  0  0  0  0
   35.8680   21.9180   31.8170 H   0  0  0  0  0  0  0  0  0  0  0  0
   39.0480   25.2990   35.6850 C   0  0  0  0  0  0  0  0  0  0  0  0
   39.8120   24.1540   35.4600 C   0  0  0  0  0  0  0  0  0  0  0  0
   39.4190   22.9790   36.0660 C   0  0  0  0  0  0  0  0  0  0  0  0
   38.2890   22.9810   36.8710 N   0  0  0  0  0  0  0  0  0  0  0  0
   37.5730   24.1170   37.0630 C   0  0  0  0  0  0  0  0  0  0  0  0
   37.9640   25.2380   36.4730 N   0  0  0  0  0  0  0  0  0  0  0  0
   40.6910   23.8760   34.9060 H   0  0  0  0  0  0  0  0  0  0  0  0
   39.8160   21.9800   36.0620 H   0  0  0  0  0  0  0  0  0  0  0  0
   36.6950   24.1300   37.6840 H   0  0  0  0  0  0  0  0  0  0  0  0
  1 35  1  0  0  0  0
  1  7  1  1  0  0  0
  2  8  1  0  0  0  0
  2  1  1  0  0  0  0
  3 10  1  6  0  0  0
  3  2  1  0  0  0  0
  4  3  1  0  0  0  0
  4  5  1  0  0  0  0
  5 13  1  0  0  0  0
  5  6  1  0  0  0  0
  6  1  1  0  0  0  0
  6 16  1  0  0  0  0
  9  2  1  0  0  0  0
 11  4  1  0  0  0  0
 12  4  1  0  0  0  0
 14  5  1  0  0  0  0
 15  6  1  0  0  0  0
 17 22  1  6  0  0  0
 17 21  1  0  0  0  0
 17  3  1  0  0  0  0
 18 17  1  0  0  0  0
 18 23  1  0  0  0  0
 19 20  1  0  0  0  0
 19 18  1  0  0  0  0
 20 21  1  0  0  0  0
 21 27  1  1  0  0  0
 24 18  1  0  0  0  0
 25 19  1  0  0  0  0
 26 19  1  0  0  0  0
 28 21  1  0  0  0  0
 28 29  1  0  0  0  0
 29 31  1  0  0  0  0
 29 30  1  0  0  0  0
 31 32  1  0  0  0  0
 33 34  1  0  0  0  0
 33 29  1  0  0  0  0
 35 40  1  0  0  0  0
 36 35  2  0  0  0  0
 36 37  1  0  0  0  0
 37 38  2  0  0  0  0
 38 39  1  0  0  0  0
 39 43  1  0  0  0  0
 40 39  2  0  0  0  0
 41 36  1  0  0  0  0
 42 37  1  0  0  0  0
M  END
>  <minimizedAffinity>
-4.93026781

$$$$

 OpenBabel03262523393D

 43 45  0  0  1  0  0  0  0  0999 V2000
   39.3500   25.8320   35.3820 C   0  0  2  0  0  0  0  0  0  0  0  0
   38.5680   26.7580   34.5260 C   0  0  0  0  0  0  0  0  0  0  0  0
   39.1070   26.8540   33.0980 C   0  0  2  0  0  0  0  0  0  0  0  0
   40.5100   27.4020   33.1350 C   0  0  0  0  0  0  0  0  0  0  0  0
   41.3710   26.7030   34.1700 C   0  0  0  0  0  0  0  0  0  0  0  0
   40.6810   25.4940   34.7470 C   0  0  0  0  0  0  0  0  0  0  0  0
   39.5650   26.2530   36.4080 H   0  0  0  0  0  0  0  0  0  0  0  0
   38.8150   27.8030   34.9340 H   0  0  0  0  0  0  0  0  0  0  0  0
   37.5170   26.7300   34.4690 H   0  0  0  0  0  0  0  0  0  0  0  0
   39.1800   25.8060   32.7420 H   0  0  0  0  0  0  0  0  0  0  0  0
   40.4470   28.4740   33.3910 H   0  0  0  0  0  0  0  0  0  0  0  0
   40.9580   27.3310   32.1200 H   0  0  0  0  0  0  0  0  0  0  0  0
   41.6860   27.4020   34.9840 H   0  0  0  0  0  0  0  0  0  0  0  0
   42.3050   26.3780   33.6910 H   0  0  0  0  0  0  0  0  0  0  0  0
   40.4980   24.7820   33.9330 H   0  0  0  0  0  0  0  0  0  0  0  0
   41.3360   25.1030   35.5510 H   0  0  0  0  0  0  0  0  0  0  0  0
   38.1820   27.5650   32.2030 C   0  0  2  0  0  0  0  0  0  0  0  0
   36.7800   27.7680   32.6960 C   0  0  0  0  0  0  0  0  0  0  0  0
   36.1670   28.2790   31.3730 C   0  0  0  0  0  0  0  0  0  0  0  0
   36.7030   27.4580   30.4060 O   0  0  0  0  0  0  0  0  0  0  0  0
   37.9260   26.9750   30.8670 C   0  0  1  0  0  0  0  0  0  0  0  0
   38.5920   28.5970   32.0560 H   0  0  0  0  0  0  0  0  0  0  0  0
   36.2930   26.8170   32.9840 H   0  0  0  0  0  0  0  0  0  0  0  0
   36.7300   28.5400   33.4650 H   0  0  0  0  0  0  0  0  0  0  0  0
   36.4920   29.3220   31.2200 H   0  0  0  0  0  0  0  0  0  0  0  0
   35.0810   28.1510   31.4820 H   0  0  0  0  0  0  0  0  0  0  0  0
   37.9620   25.8930   30.7850 H   0  0  0  0  0  0  0  0  0  0  0  0
   38.9850   27.5140   29.9280 C   0  0  0  0  0  2  0  0  0  0  0  0
   38.5450   27.6320   28.5650 N   0  0  0  0  0  4  0  0  0  0  0  0
   37.6650   27.0930   28.4060 H   0  0  0  0  0  0  0  0  0  0  0  0
   39.6470   27.0760   27.7630 C   0  0  0  0  0  2  0  0  0  0  0  0
   39.5330   26.0030   27.5900 H   0  0  0  0  0  0  0  0  0  0  0  0
   38.4540   29.0200   28.1570 C   0  0  0  0  0  2  0  0  0  0  0  0
   38.7480   29.1240   27.0910 H   0  0  0  0  0  0  0  0  0  0  0  0
   38.6520   24.5530   35.6400 C   0  0  0  0  0  0  0  0  0  0  0  0
   38.7180   23.6140   34.6110 C   0  0  0  0  0  0  0  0  0  0  0  0
   38.1020   22.3940   34.8020 C   0  0  0  0  0  0  0  0  0  0  0  0
   37.4460   22.1500   35.9990 N   0  0  0  0  0  0  0  0  0  0  0  0
   37.4050   23.0910   36.9750 C   0  0  0  0  0  0  0  0  0  0  0  0
   38.0020   24.2590   36.7760 N   0  0  0  0  0  0  0  0  0  0  0  0
   39.1350   23.5390   33.6220 H   0  0  0  0  0  0  0  0  0  0  0  0
   38.0030   21.5160   34.1890 H   0  0  0  0  0  0  0  0  0  0  0  0
   36.8990   22.9140   37.9070 H   0  0  0  0  0  0  0  0  0  0  0  0
  1 35  1  0  0  0  0
  1  7  1  1  0  0  0
  2  8  1  0  0  0  0
  2  1  1  0  0  0  0
  3 10  1  6  0  0  0
  3  4  1  0  0  0  0
  3  2  1  0  0  0  0
  4 11  1  0  0  0  0
  4  5  1  0  0  0  0
  5  6  1  0  0  0  0
  5 13  1  0  0  0  0
  6  1  1  0  0  0  0
  6 16  1  0  0  0  0
  9  2  1  0  0  0  0
 12  4  1  0  0  0  0
 14  5  1  0  0  0  0
 15  6  1  0  0  0  0
 17 22  1  6  0  0  0
 17 18  1  0  0  0  0
 17  3  1  0  0  0  0
 18 23  1  0  0  0  0
 18 24  1  0  0  0  0
 19 26  1  0  0  0  0
 19 18  1  0  0  0  0
 20 21  1  0  0  0  0
 20 19  1  0  0  0  0
 21 27  1  1  0  0  0
 21 17  1  0  0  0  0
 25 19  1  0  0  0  0
 28 21  1  0  0  0  0
 29 28  1  0  0  0  0
 30 29  1  0  0  0  0
 31 29  1  0  0  0  0
 32 31  1  0  0  0  0
 33 29  1  0  0  0  0
 34 33  1  0  0  0  0
 35 40  1  0  0  0  0
 36 37  1  0  0  0  0
 36 35  2  0  0  0  0
 37 38  2  0  0  0  0
 38 39  1  0  0  0  0
 39 43  1  0  0  0  0
 40 39  2  0  0  0  0
 41 36  1  0  0  0  0
 42 37  1  0  0  0  0
M  END
>  <minimizedAffinity>
-4.91498232

$$$$

 OpenBabel03262523393D

 43 45  0  0  1  0  0  0  0  0999 V2000
   38.7460   26.2480   35.0260 C   0  0  2  0  0  0  0  0  0  0  0  0
   37.6800   26.1330   34.0010 C   0  0  0  0  0  0  0  0  0  0  0  0
   38.2130   25.7410   32.6220 C   0  0  2  0  0  0  0  0  0  0  0  0
   39.1510   26.8140   32.1320 C   0  0  0  0  0  0  0  0  0  0  0  0
   40.1580   27.2200   33.1900 C   0  0  0  0  0  0  0  0  0  0  0  0
   40.1150   26.3040   34.3850 C   0  0  0  0  0  0  0  0  0  0  0  0
   38.6400   27.1680   35.6730 H   0  0  0  0  0  0  0  0  0  0  0  0
   37.3410   27.2160   33.8160 H   0  0  0  0  0  0  0  0  0  0  0  0
   36.7890   25.5950   34.1630 H   0  0  0  0  0  0  0  0  0  0  0  0
   38.8250   24.8320   32.7930 H   0  0  0  0  0  0  0  0  0  0  0  0
   38.5440   27.6950   31.8610 H   0  0  0  0  0  0  0  0  0  0  0  0
   39.6560   26.4630   31.2050 H   0  0  0  0  0  0  0  0  0  0  0  0
   40.0190   28.2840   33.5050 H   0  0  0  0  0  0  0  0  0  0  0  0
   41.1660   27.1790   32.7530 H   0  0  0  0  0  0  0  0  0  0  0  0
   40.3760   25.2920   34.0520 H   0  0  0  0  0  0  0  0  0  0  0  0
   40.8110   26.7260   35.1390 H   0  0  0  0  0  0  0  0  0  0  0  0
   37.1330   25.3830   31.6910 C   0  0  2  0  0  0  0  0  0  0  0  0
   35.9490   26.3030   31.6370 C   0  0  0  0  0  0  0  0  0  0  0  0
   35.0290   25.4080   30.7780 C   0  0  0  0  0  0  0  0  0  0  0  0
   35.2010   24.1430   31.2960 O   0  0  0  0  0  0  0  0  0  0  0  0
   36.4610   24.0760   31.8850 C   0  0  1  0  0  0  0  0  0  0  0  0
   37.5660   25.4040   30.6580 H   0  0  0  0  0  0  0  0  0  0  0  0
   35.4880   26.4570   32.6310 H   0  0  0  0  0  0  0  0  0  0  0  0
   36.1820   27.2300   31.1090 H   0  0  0  0  0  0  0  0  0  0  0  0
   35.3800   25.4500   29.7330 H   0  0  0  0  0  0  0  0  0  0  0  0
   34.0120   25.7940   30.9330 H   0  0  0  0  0  0  0  0  0  0  0  0
   36.3850   23.7010   32.9010 H   0  0  0  0  0  0  0  0  0  0  0  0
   37.2500   23.0460   31.1030 C   0  0  0  0  0  2  0  0  0  0  0  0
   37.5790   21.8710   31.8620 N   0  0  0  0  0  4  0  0  0  0  0  0
   38.5410   21.5320   31.6350 H   0  0  0  0  0  0  0  0  0  0  0  0
   36.5710   20.8720   31.4680 C   0  0  0  0  0  2  0  0  0  0  0  0
   36.8940   20.2740   30.6120 H   0  0  0  0  0  0  0  0  0  0  0  0
   37.3600   22.0780   33.2800 C   0  0  0  0  0  2  0  0  0  0  0  0
   36.9900   21.1420   33.7490 H   0  0  0  0  0  0  0  0  0  0  0  0
   38.7560   25.1180   35.9810 C   0  0  0  0  0  0  0  0  0  0  0  0
   39.6480   24.0870   35.6820 C   0  0  0  0  0  0  0  0  0  0  0  0
   39.7160   23.0140   36.5470 C   0  0  0  0  0  0  0  0  0  0  0  0
   38.9020   23.0010   37.6700 N   0  0  0  0  0  0  0  0  0  0  0  0
   38.0480   24.0240   37.9240 C   0  0  0  0  0  0  0  0  0  0  0  0
   37.9940   25.0480   37.0830 N   0  0  0  0  0  0  0  0  0  0  0  0
   40.3610   23.8450   34.9150 H   0  0  0  0  0  0  0  0  0  0  0  0
   40.2990   22.1120   36.5550 H   0  0  0  0  0  0  0  0  0  0  0  0
   37.4120   24.0240   38.7910 H   0  0  0  0  0  0  0  0  0  0  0  0
  1  7  1  1  0  0  0
  1 35  1  0  0  0  0
  2  9  1  0  0  0  0
  2  1  1  0  0  0  0
  3 10  1  1  0  0  0
  3  2  1  0  0  0  0
  4  3  1  0  0  0  0
  4  5  1  0  0  0  0
  5 13  1  0  0  0  0
  5  6  1  0  0  0  0
  6  1  1  0  0  0  0
  6 16  1  0  0  0  0
  8  2  1  0  0  0  0
 11  4  1  0  0  0  0
 12  4  1  0  0  0  0
 14  5  1  0  0  0  0
 15  6  1  0  0  0  0
 17 22  1  6  0  0  0
 17 21  1  0  0  0  0
 17  3  1  0  0  0  0
 18 17  1  0  0  0  0
 18 23  1  0  0  0  0
 19 26  1  0  0  0  0
 19 20  1  0  0  0  0
 19 18  1  0  0  0  0
 20 21  1  0  0  0  0
 21 27  1  1  0  0  0
 24 18  1  0  0  0  0
 25 19  1  0  0  0  0
 28 29  1  0  0  0  0
 28 21  1  0  0  0  0
 29 33  1  0  0  0  0
 30 29  1  0  0  0  0
 31 29  1  0  0  0  0
 32 31  1  0  0  0  0
 33 34  1  0  0  0  0
 35 40  1  0  0  0  0
 36 35  2  0  0  0  0
 36 37  1  0  0  0  0
 37 42  1  0  0  0  0
 37 38  2  0  0  0  0
 38 39  1  0  0  0  0
 39 43  1  0  0  0  0
 40 39  2  0  0  0  0
 41 36  1  0  0  0  0
M  END
>  <minimizedAffinity>
-4.88418913

$$$$

 OpenBabel03262523393D

 43 45  0  0  1  0  0  0  0  0999 V2000
   37.2130   27.8080   31.5800 C   0  0  2  0  0  0  0  0  0  0  0  0
   36.6830   28.6700   32.6660 C   0  0  0  0  0  0  0  0  0  0  0  0
   35.6380   29.6750   32.1790 C   0  0  2  0  0  0  0  0  0  0  0  0
   36.2750   30.6040   31.1800 C   0  0  0  0  0  0  0  0  0  0  0  0
   37.0790   29.8570   30.1330 C   0  0  0  0  0  0  0  0  0  0  0  0
   36.8620   28.3680   30.2190 C   0  0  0  0  0  0  0  0  0  0  0  0
   38.3360   27.6910   31.6160 H   0  0  0  0  0  0  0  0  0  0  0  0
   37.5590   29.3630   32.9350 H   0  0  0  0  0  0  0  0  0  0  0  0
   36.3500   28.2840   33.5880 H   0  0  0  0  0  0  0  0  0  0  0  0
   34.8890   29.0720   31.6260 H   0  0  0  0  0  0  0  0  0  0  0  0
   36.9510   31.2810   31.7310 H   0  0  0  0  0  0  0  0  0  0  0  0
   35.4880   31.2350   30.7120 H   0  0  0  0  0  0  0  0  0  0  0  0
   38.1680   30.1010   30.1970 H   0  0  0  0  0  0  0  0  0  0  0  0
   36.7650   30.1990   29.1360 H   0  0  0  0  0  0  0  0  0  0  0  0
   35.8020   28.1640   30.0300 H   0  0  0  0  0  0  0  0  0  0  0  0
   37.5510   27.9010   29.4870 H   0  0  0  0  0  0  0  0  0  0  0  0
   34.9440   30.3360   33.2930 C   0  0  2  0  0  0  0  0  0  0  0  0
   35.6500   30.3600   34.6160 C   0  0  0  0  0  0  0  0  0  0  0  0
   34.4730   30.8810   35.4710 C   0  0  0  0  0  0  0  0  0  0  0  0
   33.3800   30.1800   35.0130 O   0  0  0  0  0  0  0  0  0  0  0  0
   33.6190   29.8020   33.6930 C   0  0  1  0  0  0  0  0  0  0  0  0
   34.8160   31.4120   33.0110 H   0  0  0  0  0  0  0  0  0  0  0  0
   35.9340   29.3470   34.9610 H   0  0  0  0  0  0  0  0  0  0  0  0
   36.4730   31.0760   34.6220 H   0  0  0  0  0  0  0  0  0  0  0  0
   34.3520   31.9600   35.2740 H   0  0  0  0  0  0  0  0  0  0  0  0
   34.7300   30.6330   36.5100 H   0  0  0  0  0  0  0  0  0  0  0  0
   33.4520   28.7370   33.5680 H   0  0  0  0  0  0  0  0  0  0  0  0
   32.5790   30.5060   32.8470 C   0  0  0  0  0  2  0  0  0  0  0  0
   31.4350   29.6910   32.5400 N   0  0  0  0  0  4  0  0  0  0  0  0
   31.2830   29.6270   31.5090 H   0  0  0  0  0  0  0  0  0  0  0  0
   30.3020   30.3700   33.1910 C   0  0  0  0  0  2  0  0  0  0  0  0
   29.8220   31.0970   32.5320 H   0  0  0  0  0  0  0  0  0  0  0  0
   31.5160   28.3990   33.1930 C   0  0  0  0  0  2  0  0  0  0  0  0
   30.5030   28.0650   33.5040 H   0  0  0  0  0  0  0  0  0  0  0  0
   36.6900   26.4250   31.6310 C   0  0  0  0  0  0  0  0  0  0  0  0
   35.4610   26.2230   31.0020 C   0  0  0  0  0  0  0  0  0  0  0  0
   34.9320   24.9500   31.0000 C   0  0  0  0  0  0  0  0  0  0  0  0
   35.6350   23.9260   31.6180 N   0  0  0  0  0  0  0  0  0  0  0  0
   36.8270   24.1650   32.2190 C   0  0  0  0  0  0  0  0  0  0  0  0
   37.3230   25.3950   32.2130 N   0  0  0  0  0  0  0  0  0  0  0  0
   34.7290   26.8070   30.4730 H   0  0  0  0  0  0  0  0  0  0  0  0
   34.0270   24.5300   30.5990 H   0  0  0  0  0  0  0  0  0  0  0  0
   37.3800   23.3800   32.7020 H   0  0  0  0  0  0  0  0  0  0  0  0
  1  7  1  1  0  0  0
  1 35  1  0  0  0  0
  1  2  1  0  0  0  0
  2  8  1  0  0  0  0
  2  9  1  0  0  0  0
  3 10  1  6  0  0  0
  3  2  1  0  0  0  0
  3 17  1  0  0  0  0
  4 11  1  0  0  0  0
  4  3  1  0  0  0  0
  5 13  1  0  0  0  0
  5  6  1  0  0  0  0
  5  4  1  0  0  0  0
  6  1  1  0  0  0  0
 12  4  1  0  0  0  0
 14  5  1  0  0  0  0
 15  6  1  0  0  0  0
 16  6  1  0  0  0  0
 17 22  1  6  0  0  0
 17 21  1  0  0  0  0
 17 18  1  0  0  0  0
 18 24  1  0  0  0  0
 18 23  1  0  0  0  0
 18 19  1  0  0  0  0
 19 26  1  0  0  0  0
 20 19  1  0  0  0  0
 21 27  1  6  0  0  0
 21 20  1  0  0  0  0
 25 19  1  0  0  0  0
 28 21  1  0  0  0  0
 29 28  1  0  0  0  0
 29 31  1  0  0  0  0
 29 33  1  0  0  0  0
 30 29  1  0  0  0  0
 32 31  1  0  0  0  0
 33 34  1  0  0  0  0
 35 40  1  0  0  0  0
 36 35  2  0  0  0  0
 37 36  1  0  0  0  0
 37 38  2  0  0  0  0
 38 39  1  0  0  0  0
 39 43  1  0  0  0  0
 40 39  2  0  0  0  0
 41 36  1  0  0  0  0
 42 37  1  0  0  0  0
M  END
>  <minimizedAffinity>
-4.8211689

$$$$

 OpenBabel03262523393D

 43 45  0  0  1  0  0  0  0  0999 V2000
   35.5760   29.9620   32.5140 C   0  0  2  0  0  0  0  0  0  0  0  0
   36.0220   28.6110   32.9310 C   0  0  0  0  0  0  0  0  0  0  0  0
   37.3620   28.2040   32.3160 C   0  0  2  0  0  0  0  0  0  0  0  0
   37.2230   28.1560   30.8170 C   0  0  0  0  0  0  0  0  0  0  0  0
   36.5370   29.3900   30.2650 C   0  0  0  0  0  0  0  0  0  0  0  0
   36.3640   30.4530   31.3200 C   0  0  0  0  0  0  0  0  0  0  0  0
   34.4820   30.0010   32.2340 H   0  0  0  0  0  0  0  0  0  0  0  0
   35.2990   27.8930   32.3990 H   0  0  0  0  0  0  0  0  0  0  0  0
   36.0240   28.2960   33.9370 H   0  0  0  0  0  0  0  0  0  0  0  0
   38.0550   29.0390   32.5480 H   0  0  0  0  0  0  0  0  0  0  0  0
   36.6170   27.2680   30.5630 H   0  0  0  0  0  0  0  0  0  0  0  0
   38.2270   28.0110   30.3610 H   0  0  0  0  0  0  0  0  0  0  0  0
   35.5550   29.1400   29.7930 H   0  0  0  0  0  0  0  0  0  0  0  0
   37.1510   29.8010   29.4510 H   0  0  0  0  0  0  0  0  0  0  0  0
   37.3590   30.7550   31.6690 H   0  0  0  0  0  0  0  0  0  0  0  0
   35.7780   31.2720   30.8570 H   0  0  0  0  0  0  0  0  0  0  0  0
   37.9090   26.9870   32.9330 C   0  0  2  0  0  0  0  0  0  0  0  0
   39.3220   27.0520   33.4320 C   0  0  0  0  0  0  0  0  0  0  0  0
   39.5110   25.5460   33.7170 C   0  0  0  0  0  0  0  0  0  0  0  0
   38.9370   24.9170   32.6350 O   0  0  0  0  0  0  0  0  0  0  0  0
   37.9640   25.7590   32.1020 C   0  0  1  0  0  0  0  0  0  0  0  0
   37.2890   26.7680   33.8390 H   0  0  0  0  0  0  0  0  0  0  0  0
   40.0330   27.3700   32.6460 H   0  0  0  0  0  0  0  0  0  0  0  0
   39.3970   27.6290   34.3560 H   0  0  0  0  0  0  0  0  0  0  0  0
   38.9690   25.2970   34.6450 H   0  0  0  0  0  0  0  0  0  0  0  0
   40.5980   25.3900   33.7690 H   0  0  0  0  0  0  0  0  0  0  0  0
   38.1160   25.8860   31.0340 H   0  0  0  0  0  0  0  0  0  0  0  0
   36.6370   25.0470   32.2670 C   0  0  0  0  0  2  0  0  0  0  0  0
   36.1080   24.5170   31.0400 N   0  0  0  0  0  4  0  0  0  0  0  0
   36.7670   24.6770   30.2450 H   0  0  0  0  0  0  0  0  0  0  0  0
   34.8470   25.2450   30.8260 C   0  0  0  0  0  2  0  0  0  0  0  0
   34.9910   26.1570   30.2400 H   0  0  0  0  0  0  0  0  0  0  0  0
   35.7130   23.1300   31.1910 C   0  0  0  0  0  2  0  0  0  0  0  0
   34.8080   22.9240   30.5820 H   0  0  0  0  0  0  0  0  0  0  0  0
   35.7250   30.9760   33.5820 C   0  0  0  0  0  0  0  0  0  0  0  0
   35.7000   30.4840   34.8870 C   0  0  0  0  0  0  0  0  0  0  0  0
   35.8540   31.3810   35.9240 C   0  0  0  0  0  0  0  0  0  0  0  0
   36.0260   32.7260   35.6330 N   0  0  0  0  0  0  0  0  0  0  0  0
   36.0440   33.1640   34.3490 C   0  0  0  0  0  0  0  0  0  0  0  0
   35.8950   32.2890   33.3630 N   0  0  0  0  0  0  0  0  0  0  0  0
   35.5830   29.5370   35.3810 H   0  0  0  0  0  0  0  0  0  0  0  0
   35.8730   31.2720   36.9930 H   0  0  0  0  0  0  0  0  0  0  0  0
   36.1760   34.2040   34.1120 H   0  0  0  0  0  0  0  0  0  0  0  0
  1  7  1  6  0  0  0
  1  2  1  0  0  0  0
  1 35  1  0  0  0  0
  2  9  1  0  0  0  0
  3 10  1  1  0  0  0
  3  2  1  0  0  0  0
  3 17  1  0  0  0  0
  4  3  1  0  0  0  0
  5  4  1  0  0  0  0
  5  6  1  0  0  0  0
  6 15  1  0  0  0  0
  6  1  1  0  0  0  0
  8  2  1  0  0  0  0
 11  4  1  0  0  0  0
 12  4  1  0  0  0  0
 13  5  1  0  0  0  0
 14  5  1  0  0  0  0
 16  6  1  0  0  0  0
 17 18  1  0  0  0  0
 17 22  1  1  0  0  0
 18 19  1  0  0  0  0
 18 24  1  0  0  0  0
 19 26  1  0  0  0  0
 19 25  1  0  0  0  0
 20 19  1  0  0  0  0
 21 27  1  6  0  0  0
 21 28  1  0  0  0  0
 21 20  1  0  0  0  0
 21 17  1  0  0  0  0
 23 18  1  0  0  0  0
 29 33  1  0  0  0  0
 29 28  1  0  0  0  0
 30 29  1  0  0  0  0
 31 29  1  0  0  0  0
 32 31  1  0  0  0  0
 34 33  1  0  0  0  0
 35 36  1  0  0  0  0
 36 41  1  0  0  0  0
 36 37  2  0  0  0  0
 37 42  1  0  0  0  0
 38 37  1  0  0  0  0
 39 38  2  0  0  0  0
 40 35  2  0  0  0  0
 40 39  1  0  0  0  0
 43 39  1  0  0  0  0
M  END
>  <minimizedAffinity>
-4.80299759

$$$$

 OpenBabel03262523393D

 43 45  0  0  1  0  0  0  0  0999 V2000
   34.8930   30.7600   32.6010 C   0  0  2  0  0  0  0  0  0  0  0  0
   35.1360   29.3230   32.3250 C   0  0  0  0  0  0  0  0  0  0  0  0
   36.5840   29.0230   31.9320 C   0  0  2  0  0  0  0  0  0  0  0  0
   36.9110   29.7560   30.6580 C   0  0  0  0  0  0  0  0  0  0  0  0
   36.4780   31.2090   30.7040 C   0  0  0  0  0  0  0  0  0  0  0  0
   36.0290   31.6150   32.0840 C   0  0  0  0  0  0  0  0  0  0  0  0
   33.9420   31.1470   32.1310 H   0  0  0  0  0  0  0  0  0  0  0  0
   34.5850   29.1240   31.3360 H   0  0  0  0  0  0  0  0  0  0  0  0
   34.8160   28.5560   32.9720 H   0  0  0  0  0  0  0  0  0  0  0  0
   37.2030   29.4770   32.7330 H   0  0  0  0  0  0  0  0  0  0  0  0
   36.3790   29.2520   29.8320 H   0  0  0  0  0  0  0  0  0  0  0  0
   38.0000   29.6650   30.4520 H   0  0  0  0  0  0  0  0  0  0  0  0
   35.6790   31.4250   29.9520 H   0  0  0  0  0  0  0  0  0  0  0  0
   37.3280   31.8410   30.4120 H   0  0  0  0  0  0  0  0  0  0  0  0
   36.8790   31.5010   32.7690 H   0  0  0  0  0  0  0  0  0  0  0  0
   35.6470   32.6530   32.0060 H   0  0  0  0  0  0  0  0  0  0  0  0
   36.8660   27.5800   31.9130 C   0  0  2  0  0  0  0  0  0  0  0  0
   35.7710   26.6800   31.4240 C   0  0  0  0  0  0  0  0  0  0  0  0
   36.4100   25.3340   31.8330 C   0  0  0  0  0  0  0  0  0  0  0  0
   36.9310   25.5680   33.0860 O   0  0  0  0  0  0  0  0  0  0  0  0
   37.2090   26.9290   33.2000 C   0  0  1  0  0  0  0  0  0  0  0  0
   37.7150   27.4190   31.2020 H   0  0  0  0  0  0  0  0  0  0  0  0
   34.8260   26.8230   31.9820 H   0  0  0  0  0  0  0  0  0  0  0  0
   35.6560   26.7360   30.3400 H   0  0  0  0  0  0  0  0  0  0  0  0
   37.2150   25.1000   31.1150 H   0  0  0  0  0  0  0  0  0  0  0  0
   35.5860   24.6080   31.8460 H   0  0  0  0  0  0  0  0  0  0  0  0
   36.7570   27.3340   34.1000 H   0  0  0  0  0  0  0  0  0  0  0  0
   38.7080   27.0500   33.3780 C   0  0  0  0  0  2  0  0  0  0  0  0
   39.1950   26.4720   34.6000 N   0  0  0  0  0  4  0  0  0  0  0  0
   38.8780   25.4820   34.7010 H   0  0  0  0  0  0  0  0  0  0  0  0
   38.6270   27.3110   35.6680 C   0  0  0  0  0  2  0  0  0  0  0  0
   37.6570   26.9440   36.0110 H   0  0  0  0  0  0  0  0  0  0  0  0
   40.6300   26.6330   34.7270 C   0  0  0  0  0  2  0  0  0  0  0  0
   40.9020   26.8010   35.7900 H   0  0  0  0  0  0  0  0  0  0  0  0
   34.7460   31.0550   34.0440 C   0  0  0  0  0  0  0  0  0  0  0  0
   35.8720   31.5970   34.6650 C   0  0  0  0  0  0  0  0  0  0  0  0
   35.7880   31.9110   36.0050 C   0  0  0  0  0  0  0  0  0  0  0  0
   34.5990   31.6790   36.6800 N   0  0  0  0  0  0  0  0  0  0  0  0
   33.5270   31.1500   36.0390 C   0  0  0  0  0  0  0  0  0  0  0  0
   33.6230   30.8530   34.7490 N   0  0  0  0  0  0  0  0  0  0  0  0
   36.8780   31.8660   34.3990 H   0  0  0  0  0  0  0  0  0  0  0  0
   36.4870   32.3280   36.7080 H   0  0  0  0  0  0  0  0  0  0  0  0
   32.6000   30.9650   36.5510 H   0  0  0  0  0  0  0  0  0  0  0  0
  1  7  1  6  0  0  0
  1 35  1  0  0  0  0
  2  1  1  0  0  0  0
  2  9  1  0  0  0  0
  3  2  1  0  0  0  0
  3 10  1  1  0  0  0
  4  5  1  0  0  0  0
  4  3  1  0  0  0  0
  5  6  1  0  0  0  0
  6  1  1  0  0  0  0
  6 15  1  0  0  0  0
  8  2  1  0  0  0  0
 11  4  1  0  0  0  0
 12  4  1  0  0  0  0
 13  5  1  0  0  0  0
 14  5  1  0  0  0  0
 16  6  1  0  0  0  0
 17 22  1  6  0  0  0
 17  3  1  0  0  0  0
 17 21  1  0  0  0  0
 18 19  1  0  0  0  0
 18 17  1  0  0  0  0
 18 23  1  0  0  0  0
 19 26  1  0  0  0  0
 19 20  1  0  0  0  0
 20 21  1  0  0  0  0
 21 28  1  0  0  0  0
 21 27  1  1  0  0  0
 24 18  1  0  0  0  0
 25 19  1  0  0  0  0
 28 29  1  0  0  0  0
 29 30  1  0  0  0  0
 29 33  1  0  0  0  0
 29 31  1  0  0  0  0
 31 32  1  0  0  0  0
 33 34  1  0  0  0  0
 35 36  2  0  0  0  0
 35 40  1  0  0  0  0
 36 37  1  0  0  0  0
 37 38  2  0  0  0  0
 37 42  1  0  0  0  0
 39 43  1  0  0  0  0
 39 38  1  0  0  0  0
 40 39  2  0  0  0  0
 41 36  1  0  0  0  0
M  END
>  <minimizedAffinity>
-4.80035019

$$$$
