
 OpenBabel03272508333D

 45 48  0  0  1  0  0  0  0  0999 V2000
   34.4950   29.2770   42.5500 N   0  0  0  0  0  0  0  0  0  0  0  0
   33.4990   29.3430   41.5030 C   0  0  0  0  0  0  0  0  0  0  0  0
   34.0650   29.0820   40.1480 C   0  0  0  0  0  0  0  0  0  0  0  0
   35.2530   28.2720   40.2550 N   0  0  0  0  0  0  0  0  0  0  0  0
   36.2880   29.1090   40.8710 C   0  0  0  0  0  0  0  0  0  0  0  0
   35.9740   29.1520   42.3230 C   0  0  1  0  0  0  0  0  0  0  0  0
   32.9160   30.2550   41.4530 H   0  0  0  0  0  0  0  0  0  0  0  0
   32.8030   28.5010   41.7270 H   0  0  0  0  0  0  0  0  0  0  0  0
   33.2860   28.5540   39.5310 H   0  0  0  0  0  0  0  0  0  0  0  0
   34.3040   30.0120   39.5970 H   0  0  0  0  0  0  0  0  0  0  0  0
   35.5710   27.8910   39.3480 H   0  0  0  0  0  0  0  0  0  0  0  0
   36.1970   30.0830   40.3810 H   0  0  0  0  0  0  0  0  0  0  0  0
   37.2540   28.6050   40.6950 H   0  0  0  0  0  0  0  0  0  0  0  0
   36.2290   28.1760   42.7970 H   0  0  0  0  0  0  0  0  0  0  0  0
   36.5550   31.5700   42.8400 C   0  0  0  0  0  0  0  0  0  0  0  0
   36.7210   30.1790   43.0540 C   0  0  0  0  0  0  0  0  0  0  0  0
   37.5640   29.7220   44.0340 C   0  0  0  0  0  0  0  0  0  0  0  0
   38.2290   30.6530   44.7940 C   0  0  0  0  0  0  0  0  0  0  0  0
   38.0580   32.0570   44.5710 C   0  0  0  0  0  0  0  0  0  0  0  0
   37.1980   32.5520   43.5660 C   0  0  0  0  0  0  0  0  0  0  0  0
   38.8510   32.8030   45.4740 O   0  0  0  0  0  0  0  0  0  0  0  0
   39.1790   31.9110   46.5000 C   0  0  0  0  0  0  0  0  0  0  0  0
   39.1270   30.6170   45.8560 O   0  0  0  0  0  0  0  0  0  0  0  0
   35.8810   31.8580   42.0490 H   0  0  0  0  0  0  0  0  0  0  0  0
   37.9340   28.7860   44.3620 H   0  0  0  0  0  0  0  0  0  0  0  0
   37.0690   33.5980   43.3820 H   0  0  0  0  0  0  0  0  0  0  0  0
   38.3220   31.8660   47.2190 H   0  0  0  0  0  0  0  0  0  0  0  0
   40.1150   32.0860   47.0230 H   0  0  0  0  0  0  0  0  0  0  0  0
   34.2760   28.1540   44.7130 C   0  0  0  0  0  0  0  0  0  0  0  0
   34.0380   29.2980   43.8920 C   0  0  0  0  0  0  0  0  0  0  0  0
   33.4260   30.3570   44.4740 C   0  0  0  0  0  0  0  0  0  0  0  0
   33.0790   30.2580   45.8100 N   0  0  0  0  0  0  0  0  0  0  0  0
   33.3180   29.1860   46.5370 C   0  0  0  0  0  0  0  0  0  0  0  0
   33.9100   28.1290   46.0160 N   0  0  0  0  0  0  0  0  0  0  0  0
   32.9250   29.1930   47.9050 N   0  0  0  0  0  0  0  0  0  0  0  0
   34.7530   27.2840   44.2870 H   0  0  0  0  0  0  0  0  0  0  0  0
   33.5410   28.7870   48.6400 H   0  0  0  0  0  0  0  0  0  0  0  0
   31.9810   29.6300   48.1130 H   0  0  0  0  0  0  0  0  0  0  0  0
   32.9920   31.6230   43.8970 C   0  0  0  0  0  2  0  0  0  0  0  0
   31.7070   32.1160   44.2970 N   0  0  0  0  0  4  0  0  0  0  0  0
   31.3180   31.5090   45.0480 H   0  0  0  0  0  0  0  0  0  0  0  0
   31.5740   33.5180   44.4910 C   0  0  0  0  0  2  0  0  0  0  0  0
   30.8380   33.6440   45.3460 H   0  0  0  0  0  0  0  0  0  0  0  0
   30.8020   31.8230   43.1280 C   0  0  0  0  0  2  0  0  0  0  0  0
   29.7750   31.9350   43.4900 H   0  0  0  0  0  0  0  0  0  0  0  0
  1 30  1  0  0  0  0
  2  8  1  0  0  0  0
  2  1  1  0  0  0  0
  3  4  1  0  0  0  0
  3  2  1  0  0  0  0
  4  5  1  0  0  0  0
  5  6  1  0  0  0  0
  6  1  1  0  0  0  0
  6 14  1  1  0  0  0
  6 16  1  0  0  0  0
  7  2  1  0  0  0  0
  9  3  1  0  0  0  0
 10  3  1  0  0  0  0
 11  4  1  0  0  0  0
 12  5  1  0  0  0  0
 13  5  1  0  0  0  0
 15 16  2  0  0  0  0
 15 20  1  0  0  0  0
 16 17  1  0  0  0  0
 17 25  1  0  0  0  0
 17 18  2  0  0  0  0
 18 23  1  0  0  0  0
 19 18  1  0  0  0  0
 19 21  1  0  0  0  0
 20 19  2  0  0  0  0
 21 22  1  0  0  0  0
 22 28  1  0  0  0  0
 22 27  1  0  0  0  0
 23 22  1  0  0  0  0
 24 15  1  0  0  0  0
 26 20  1  0  0  0  0
 29 34  1  0  0  0  0
 30 31  1  0  0  0  0
 30 29  2  0  0  0  0
 31 32  2  0  0  0  0
 32 33  1  0  0  0  0
 33 35  1  0  0  0  0
 34 33  2  0  0  0  0
 35 38  1  0  0  0  0
 35 37  1  0  0  0  0
 36 29  1  0  0  0  0
 39 40  1  0  0  0  0
 39 31  1  0  0  0  0
 40 42  1  0  0  0  0
 40 41  1  0  0  0  0
 42 43  1  0  0  0  0
 44 45  1  0  0  0  0
 44 40  1  0  0  0  0
M  END
>  <minimizedAffinity>
-3.55331254

>  <minimizedRMSD>
3.51162124

$$$$
