
 OpenBabel03272506473D

 40 42  0  0  1  0  0  0  0  0999 V2000
   32.2040   28.6590   47.3810 C   0  0  2  0  0  0  0  0  0  0  0  0
   33.4530   28.3970   48.1690 C   0  0  1  0  0  0  0  0  0  0  0  0
   33.7640   27.0670   48.0230 O   0  0  0  0  0  0  0  0  0  0  0  0
   33.0180   26.5350   46.9760 C   0  0  0  0  0  0  0  0  0  0  0  0
   32.4640   27.6880   46.1790 C   0  0  1  0  0  0  0  0  0  0  0  0
   31.2810   28.3330   47.8410 H   0  0  0  0  0  0  0  0  0  0  0  0
   33.3250   28.7000   49.2290 H   0  0  0  0  0  0  0  0  0  0  0  0
   33.7920   26.0560   46.2910 H   0  0  0  0  0  0  0  0  0  0  0  0
   32.3160   25.8020   47.3310 H   0  0  0  0  0  0  0  0  0  0  0  0
   33.1910   28.2220   45.5690 H   0  0  0  0  0  0  0  0  0  0  0  0
   32.1940   29.9830   46.9070 O   0  0  0  0  0  0  0  0  0  0  0  0
   31.2440   30.2690   46.8220 H   0  0  0  0  0  0  0  0  0  0  0  0
   34.8080   29.3820   47.4310 S   0  0  0  0  0  0  0  0  0  0  0  0
   37.1320   29.3200   50.6260 C   0  0  0  0  0  0  0  0  0  0  0  0
   37.6410   30.5950   50.7380 C   0  0  0  0  0  0  0  0  0  0  0  0
   37.2530   31.5340   49.7800 C   0  0  0  0  0  0  0  0  0  0  0  0
   36.4030   31.1470   48.8010 N   0  0  0  0  0  0  0  0  0  0  0  0
   35.9240   29.8850   48.7230 C   0  0  0  0  0  0  0  0  0  0  0  0
   36.2860   28.9530   49.6410 N   0  0  0  0  0  0  0  0  0  0  0  0
   37.4760   28.6150   51.4080 H   0  0  0  0  0  0  0  0  0  0  0  0
   38.3210   30.9680   51.4870 H   0  0  0  0  0  0  0  0  0  0  0  0
   37.5440   32.5790   49.7020 H   0  0  0  0  0  0  0  0  0  0  0  0
   31.2880   27.3070   45.5950 O   0  0  0  0  0  0  0  0  0  0  0  0
   29.7330   29.5750   44.5480 Cl  0  0  0  0  0  0  0  0  0  0  0  0
   29.2680   28.3780   45.7290 C   0  0  0  0  0  0  0  0  0  0  0  0
   30.0790   27.3510   46.1490 C   0  0  0  0  0  0  0  0  0  0  0  0
   29.5740   26.4580   47.0920 C   0  0  0  0  0  0  0  0  0  0  0  0
   28.2970   26.6000   47.5900 C   0  0  0  0  0  0  0  0  0  0  0  0
   27.4720   27.6240   47.1760 C   0  0  0  0  0  0  0  0  0  0  0  0
   27.9790   28.5200   46.2270 C   0  0  0  0  0  0  0  0  0  0  0  0
   30.1530   25.6300   47.4620 H   0  0  0  0  0  0  0  0  0  0  0  0
   27.9340   25.8920   48.3200 H   0  0  0  0  0  0  0  0  0  0  0  0
   26.4980   27.6940   47.5970 H   0  0  0  0  0  0  0  0  0  0  0  0
   27.0250   29.5860   45.8300 C   0  0  0  0  0  2  0  0  0  0  0  0
   27.2770   30.8860   46.3380 N   0  0  0  0  0  4  0  0  0  0  0  0
   28.2760   31.1360   46.5130 H   0  0  0  0  0  0  0  0  0  0  0  0
   26.7170   31.9200   45.5030 C   0  0  0  0  0  2  0  0  0  0  0  0
   27.0120   32.9400   45.8440 H   0  0  0  0  0  0  0  0  0  0  0  0
   26.5120   30.9590   47.6010 C   0  0  0  0  0  2  0  0  0  0  0  0
   26.4980   31.9950   47.9130 H   0  0  0  0  0  0  0  0  0  0  0  0
  1  6  1  1  0  0  0
  1  2  1  0  0  0  0
  2  7  1  1  0  0  0
  3  2  1  0  0  0  0
  4  9  1  0  0  0  0
  4  3  1  0  0  0  0
  5 10  1  6  0  0  0
  5  4  1  0  0  0  0
  5  1  1  0  0  0  0
  8  4  1  0  0  0  0
 11  1  1  0  0  0  0
 12 11  1  0  0  0  0
 13  2  1  0  0  0  0
 13 18  1  0  0  0  0
 14 15  1  0  0  0  0
 14 20  1  0  0  0  0
 15 21  1  0  0  0  0
 16 15  2  0  0  0  0
 17 16  1  0  0  0  0
 18 17  2  0  0  0  0
 18 19  1  0  0  0  0
 19 14  2  0  0  0  0
 22 16  1  0  0  0  0
 23 26  1  0  0  0  0
 23  5  1  0  0  0  0
 24 25  1  0  0  0  0
 25 26  2  0  0  0  0
 25 30  1  0  0  0  0
 26 27  1  0  0  0  0
 27 31  1  0  0  0  0
 27 28  2  0  0  0  0
 28 32  1  0  0  0  0
 29 28  1  0  0  0  0
 29 33  1  0  0  0  0
 30 29  2  0  0  0  0
 34 30  1  0  0  0  0
 34 35  1  0  0  0  0
 35 36  1  0  0  0  0
 35 39  1  0  0  0  0
 37 38  1  0  0  0  0
 37 35  1  0  0  0  0
 39 40  1  0  0  0  0
M  END
>  <minimizedAffinity>
-4.91002274

>  <minimizedRMSD>
0.682304561

$$$$
