
 OpenBabel03272508533D

 36 38  0  0  1  0  0  0  0  0999 V2000
   38.3350   31.5120   44.3430 C   0  0  0  0  0  0  0  0  0  0  0  0
   37.2040   32.0750   44.2560 O   0  0  0  0  0  0  0  0  0  0  0  0
   38.9930   31.4000   45.6080 N   0  0  0  0  0  0  0  0  0  0  0  0
   39.9760   31.1260   45.6920 H   0  0  0  0  0  0  0  0  0  0  0  0
   38.9930   30.9650   43.1450 C   0  0  0  0  0  0  0  0  0  0  0  0
   40.2030   30.3430   43.2990 C   0  0  0  0  0  0  0  0  0  0  0  0
   40.8220   29.8240   42.1700 C   0  0  0  0  0  0  0  0  0  0  0  0
   40.1850   29.9660   40.9720 C   0  0  0  0  0  0  0  0  0  0  0  0
   38.9450   30.6010   40.7970 C   0  0  0  0  0  0  0  0  0  0  0  0
   38.4150   31.0730   41.9340 N   0  0  0  0  0  0  0  0  0  0  0  0
   40.6960   30.2380   44.2480 H   0  0  0  0  0  0  0  0  0  0  0  0
   41.7800   29.3240   42.2380 H   0  0  0  0  0  0  0  0  0  0  0  0
   40.6770   29.5590   40.1020 H   0  0  0  0  0  0  0  0  0  0  0  0
   38.3230   30.7110   39.4640 C   0  0  0  0  0  2  0  0  0  0  0  0
   39.2330   31.0560   38.4110 N   0  0  0  0  0  4  0  0  0  0  0  0
   38.8810   31.9230   37.9440 H   0  0  0  0  0  0  0  0  0  0  0  0
   40.5730   31.3480   38.8890 C   0  0  0  0  0  2  0  0  0  0  0  0
   40.5150   31.9430   39.8070 H   0  0  0  0  0  0  0  0  0  0  0  0
   39.2820   29.9970   37.3910 C   0  0  0  0  0  2  0  0  0  0  0  0
   38.8530   30.3280   36.4410 H   0  0  0  0  0  0  0  0  0  0  0  0
   38.7020   31.2500   48.0820 C   0  0  2  0  0  0  0  0  0  0  0  0
   38.9380   32.6690   47.7670 C   0  0  0  0  0  0  0  0  0  0  0  0
   38.2160   31.6910   46.8000 C   0  0  1  0  0  0  0  0  0  0  0  0
   39.6610   30.6670   48.1590 H   0  0  0  0  0  0  0  0  0  0  0  0
   38.2950   33.4450   48.2400 H   0  0  0  0  0  0  0  0  0  0  0  0
   39.9240   33.0290   47.4750 H   0  0  0  0  0  0  0  0  0  0  0  0
   37.1330   31.8980   46.6630 H   0  0  0  0  0  0  0  0  0  0  0  0
   35.5520   30.2820   49.7470 C   0  0  0  0  0  0  0  0  0  0  0  0
   35.9790   30.0140   51.0750 C   0  0  0  0  0  0  0  0  0  0  0  0
   37.3810   30.1870   51.3760 C   0  0  0  0  0  0  0  0  0  0  0  0
   38.2190   30.5930   50.3880 N   0  0  0  0  0  0  0  0  0  0  0  0
   37.7400   30.8320   49.1350 C   0  0  0  0  0  0  0  0  0  0  0  0
   36.4130   30.6860   48.7850 N   0  0  0  0  0  0  0  0  0  0  0  0
   34.4930   30.1350   49.5830 H   0  0  0  0  0  0  0  0  0  0  0  0
   35.2830   29.6970   51.8200 H   0  0  0  0  0  0  0  0  0  0  0  0
   37.7130   29.9850   52.3850 H   0  0  0  0  0  0  0  0  0  0  0  0
  1  3  1  0  0  0  0
  2  1  2  0  0  0  0
  3  4  1  0  0  0  0
  3 23  1  0  0  0  0
  5  6  1  0  0  0  0
  5  1  1  0  0  0  0
  6 11  1  0  0  0  0
  7 12  1  0  0  0  0
  7  6  2  0  0  0  0
  8  7  1  0  0  0  0
  9  8  2  0  0  0  0
  9 10  1  0  0  0  0
 10  5  2  0  0  0  0
 13  8  1  0  0  0  0
 14  9  1  0  0  0  0
 15 17  1  0  0  0  0
 15 14  1  0  0  0  0
 16 15  1  0  0  0  0
 17 18  1  0  0  0  0
 19 15  1  0  0  0  0
 20 19  1  0  0  0  0
 21 24  1  6  0  0  0
 21 32  1  0  0  0  0
 22 21  1  0  0  0  0
 22 25  1  0  0  0  0
 23 27  1  6  0  0  0
 23 22  1  0  0  0  0
 23 21  1  0  0  0  0
 26 22  1  0  0  0  0
 28 29  1  0  0  0  0
 29 30  2  0  0  0  0
 29 35  1  0  0  0  0
 30 36  1  0  0  0  0
 31 30  1  0  0  0  0
 32 31  2  0  0  0  0
 33 32  1  0  0  0  0
 33 28  2  0  0  0  0
 34 28  1  0  0  0  0
M  END
>  <minimizedAffinity>
-4.35624075

>  <minimizedRMSD>
1.06674957

$$$$
