
     RDKit          3D

 39 41  0  0  0  0  0  0  0  0999 V2000
   38.4123   31.3135   48.2649 Br  0  0  0  0  0  0  0  0  0  0  0  0
   37.2223   30.8000   46.8719 C   0  0  0  0  0  0  0  0  0  0  0  0
   36.0420   30.1602   47.1573 C   0  0  0  0  0  0  0  0  0  0  0  0
   35.1999   29.8117   46.0981 C   0  0  0  0  0  0  0  0  0  0  0  0
   35.5682   30.1144   44.8036 C   0  0  0  0  0  0  0  0  0  0  0  0
   36.7607   30.7612   44.5068 C   0  0  0  0  0  0  0  0  0  0  0  0
   37.5869   31.1005   45.5745 C   0  0  0  0  0  0  0  0  0  0  0  0
   36.3713   29.0902   50.7609 C   0  0  0  0  0  0  0  0  0  0  0  0
   36.6746   29.3309   49.4136 C   0  0  0  0  0  0  0  0  0  0  0  0
   35.7517   29.8908   48.5641 C   0  0  0  0  0  0  0  0  0  0  0  0
   34.5249   30.1981   49.1037 N   0  0  0  0  0  0  0  0  0  0  0  0
   34.2334   29.9657   50.3995 C   0  0  0  0  0  0  0  0  0  0  0  0
   35.1393   29.4195   51.2237 N   0  0  0  0  0  0  0  0  0  0  0  0
   38.8512   31.7770   45.3076 C   0  0  0  0  0  0  0  0  0  0  0  0
   39.0276   33.0615   44.8857 C   0  0  0  0  0  0  0  0  0  0  0  0
   40.3250   33.3378   44.7434 N   0  0  0  0  0  0  0  0  0  0  0  0
   41.0017   32.2343   45.0721 C   0  0  0  0  0  0  0  0  0  0  0  0
   40.1190   31.2550   45.4245 N   0  0  0  0  0  0  0  0  0  0  0  0
   34.2784   29.3089   46.3603 H   0  0  0  0  0  0  0  0  0  0  0  0
   34.8978   29.8336   44.0018 H   0  0  0  0  0  0  0  0  0  0  0  0
   37.0498   30.9974   43.5045 H   0  0  0  0  0  0  0  0  0  0  0  0
   37.0842   28.6498   51.4507 H   0  0  0  0  0  0  0  0  0  0  0  0
   37.6605   29.0318   49.1166 H   0  0  0  0  0  0  0  0  0  0  0  0
   33.2214   30.2761   50.6252 H   0  0  0  0  0  0  0  0  0  0  0  0
   38.1944   33.7263   44.7051 H   0  0  0  0  0  0  0  0  0  0  0  0
   40.6738   34.2692   44.4284 H   0  0  0  0  0  0  0  0  0  0  0  0
   42.4832   32.1033   45.0537 C   0  0  0  0  0  0  0  0  0  0  0  0
   43.1438   33.0310   45.9304 N   0  0  0  0  0  4  0  0  0  0  0  0
   44.5780   32.7851   45.7681 C   0  0  0  0  0  0  0  0  0  0  0  0
   44.7190   31.6866   45.9096 H   0  0  0  0  0  0  0  0  0  0  0  0
   42.8507   32.8640   47.3209 C   0  0  0  0  0  0  0  0  0  0  0  0
   41.9521   32.2821   47.5566 H   0  0  0  0  0  0  0  0  0  0  0  0
   42.8081   31.0817   45.3977 H   0  0  0  0  0  0  0  0  0  0  0  0
   42.9074   32.2092   44.0499 H   0  0  0  0  0  0  0  0  0  0  0  0
   42.9725   34.0124   45.6158 H   0  0  0  0  0  0  0  0  0  0  0  0
   45.1829   33.3567   46.4896 H   0  0  0  0  0  0  0  0  0  0  0  0
   44.8723   32.9999   44.7049 H   0  0  0  0  0  0  0  0  0  0  0  0
   42.6963   33.8879   47.7692 H   0  0  0  0  0  0  0  0  0  0  0  0
   43.7008   32.3962   47.8940 H   0  0  0  0  0  0  0  0  0  0  0  0
  2  3  2  0
  2  1  1  0
  3 10  1  0
  4  3  1  0
  5  4  2  0
  6  5  1  0
  6  7  2  0
  7  2  1  0
  8 13  2  0
  9  8  1  0
 10 11  1  0
 10  9  2  0
 11 12  2  0
 12 13  1  0
 14 18  1  0
 14  7  1  0
 15 14  2  0
 16 15  1  0
 16 17  1  0
 17 18  2  0
  4 19  1  0
  5 20  1  0
  6 21  1  0
  8 22  1  0
  9 23  1  0
 12 24  1  0
 15 25  1  0
 16 26  1  0
 27 28  1  0
 28 29  1  0
 29 30  1  0
 28 31  1  0
 31 32  1  0
 27 33  1  0
 27 34  1  0
 28 35  1  0
 29 36  1  0
 29 37  1  0
 31 38  1  0
 31 39  1  0
 17 27  1  0
M  ISO  8  19  14  20  14  21  14  22  14  23  14  24  14  25  14  26   9
M  CHG  1  28   1
M  ISO  2  30   8  32   8
M  END
>  <DihAtoms>  (1) 
15,16,26,27

>  <DihDeg>  (1) 
89.99971667804118

$$$$
