
 OpenBabel03262523383D

 43 45  0  0  1  0  0  0  0  0999 V2000
   35.2420   30.0730   49.5260 C   0  0  2  0  0  0  0  0  0  0  0  0
   36.1850   31.1890   49.2720 C   0  0  0  0  0  0  0  0  0  0  0  0
   37.6370   30.8360   49.6020 C   0  0  2  0  0  0  0  0  0  0  0  0
   37.7460   30.5230   51.0710 C   0  0  0  0  0  0  0  0  0  0  0  0
   36.6640   29.5680   51.5350 C   0  0  0  0  0  0  0  0  0  0  0  0
   35.8850   29.0000   50.3770 C   0  0  0  0  0  0  0  0  0  0  0  0
   34.3000   30.4010   50.0560 H   0  0  0  0  0  0  0  0  0  0  0  0
   35.9450   31.9600   50.0900 H   0  0  0  0  0  0  0  0  0  0  0  0
   36.1870   31.7400   48.3740 H   0  0  0  0  0  0  0  0  0  0  0  0
   37.8400   29.8930   49.0550 H   0  0  0  0  0  0  0  0  0  0  0  0
   37.6470   31.4710   51.6270 H   0  0  0  0  0  0  0  0  0  0  0  0
   38.7600   30.1200   51.2850 H   0  0  0  0  0  0  0  0  0  0  0  0
   35.9760   30.0510   52.2730 H   0  0  0  0  0  0  0  0  0  0  0  0
   37.1340   28.7380   52.0810 H   0  0  0  0  0  0  0  0  0  0  0  0
   36.5770   28.4320   49.7440 H   0  0  0  0  0  0  0  0  0  0  0  0
   35.0640   28.3910   50.8090 H   0  0  0  0  0  0  0  0  0  0  0  0
   38.5800   31.8500   49.1080 C   0  0  2  0  0  0  0  0  0  0  0  0
   38.6260   33.1540   49.8480 C   0  0  0  0  0  0  0  0  0  0  0  0
   39.5050   33.9320   48.8440 C   0  0  0  0  0  0  0  0  0  0  0  0
   39.0070   33.5820   47.6080 O   0  0  0  0  0  0  0  0  0  0  0  0
   38.4100   32.3270   47.7140 C   0  0  1  0  0  0  0  0  0  0  0  0
   39.6090   31.4210   49.2080 H   0  0  0  0  0  0  0  0  0  0  0  0
   37.6320   33.6360   49.9170 H   0  0  0  0  0  0  0  0  0  0  0  0
   39.1370   33.0560   50.8070 H   0  0  0  0  0  0  0  0  0  0  0  0
   40.5470   33.5870   48.9540 H   0  0  0  0  0  0  0  0  0  0  0  0
   39.3500   34.9950   49.0760 H   0  0  0  0  0  0  0  0  0  0  0  0
   37.4010   32.3520   47.3150 H   0  0  0  0  0  0  0  0  0  0  0  0
   39.2040   31.3950   46.8220 C   0  0  0  0  0  2  0  0  0  0  0  0
   38.4150   30.7500   45.8080 N   0  0  0  0  0  4  0  0  0  0  0  0
   37.8130   30.0030   46.2190 H   0  0  0  0  0  0  0  0  0  0  0  0
   39.3960   30.1750   44.8740 C   0  0  0  0  0  2  0  0  0  0  0  0
   39.6780   29.1540   45.1470 H   0  0  0  0  0  0  0  0  0  0  0  0
   37.6760   31.7170   45.0200 C   0  0  0  0  0  2  0  0  0  0  0  0
   37.6150   31.3810   43.9630 H   0  0  0  0  0  0  0  0  0  0  0  0
   34.7680   29.4210   48.2860 C   0  0  0  0  0  0  0  0  0  0  0  0
   35.0250   30.1170   47.1040 C   0  0  0  0  0  0  0  0  0  0  0  0
   34.6220   29.5500   45.9130 C   0  0  0  0  0  0  0  0  0  0  0  0
   33.9830   28.3190   45.9340 N   0  0  0  0  0  0  0  0  0  0  0  0
   33.7520   27.6740   47.1060 C   0  0  0  0  0  0  0  0  0  0  0  0
   34.1450   28.2330   48.2420 N   0  0  0  0  0  0  0  0  0  0  0  0
   35.4760   31.0470   46.8070 H   0  0  0  0  0  0  0  0  0  0  0  0
   34.6940   29.8640   44.8880 H   0  0  0  0  0  0  0  0  0  0  0  0
   33.2570   26.7210   47.1350 H   0  0  0  0  0  0  0  0  0  0  0  0
  1  7  1  1  0  0  0
  1  6  1  0  0  0  0
  2  1  1  0  0  0  0
  2  3  1  0  0  0  0
  2  8  1  0  0  0  0
  3 10  1  6  0  0  0
  3  4  1  0  0  0  0
  4 12  1  0  0  0  0
  4  5  1  0  0  0  0
  4 11  1  0  0  0  0
  5 14  1  0  0  0  0
  5 13  1  0  0  0  0
  6 16  1  0  0  0  0
  6  5  1  0  0  0  0
  9  2  1  0  0  0  0
 15  6  1  0  0  0  0
 17 22  1  1  0  0  0
 17  3  1  0  0  0  0
 17 18  1  0  0  0  0
 18 23  1  0  0  0  0
 18 24  1  0  0  0  0
 19 25  1  0  0  0  0
 19 26  1  0  0  0  0
 19 18  1  0  0  0  0
 20 21  1  0  0  0  0
 20 19  1  0  0  0  0
 21 27  1  6  0  0  0
 21 17  1  0  0  0  0
 28 21  1  0  0  0  0
 29 30  1  0  0  0  0
 29 28  1  0  0  0  0
 31 32  1  0  0  0  0
 31 29  1  0  0  0  0
 33 29  1  0  0  0  0
 34 33  1  0  0  0  0
 35  1  1  0  0  0  0
 36 35  2  0  0  0  0
 37 38  2  0  0  0  0
 37 36  1  0  0  0  0
 38 39  1  0  0  0  0
 39 43  1  0  0  0  0
 39 40  2  0  0  0  0
 40 35  1  0  0  0  0
 41 36  1  0  0  0  0
 42 37  1  0  0  0  0
M  END
>  <minimizedAffinity>
-6.092237

>  <minimizedRMSD>
1.7211287

$$$$
