
 OpenBabel03272506473D

 40 42  0  0  1  0  0  0  0  0999 V2000
   32.0120   28.5330   47.4220 C   0  0  2  0  0  0  0  0  0  0  0  0
   33.2530   28.2300   48.2060 C   0  0  1  0  0  0  0  0  0  0  0  0
   33.5010   26.8840   48.0890 O   0  0  0  0  0  0  0  0  0  0  0  0
   32.7210   26.3640   47.0590 C   0  0  0  0  0  0  0  0  0  0  0  0
   32.2160   27.5240   46.2400 C   0  0  1  0  0  0  0  0  0  0  0  0
   31.0790   28.2610   47.8960 H   0  0  0  0  0  0  0  0  0  0  0  0
   33.1490   28.5630   49.2590 H   0  0  0  0  0  0  0  0  0  0  0  0
   33.4660   25.8340   46.3790 H   0  0  0  0  0  0  0  0  0  0  0  0
   31.9890   25.6730   47.4370 H   0  0  0  0  0  0  0  0  0  0  0  0
   32.9610   28.0090   45.6120 H   0  0  0  0  0  0  0  0  0  0  0  0
   32.0590   29.8450   46.9180 O   0  0  0  0  0  0  0  0  0  0  0  0
   31.1240   30.1730   46.8330 H   0  0  0  0  0  0  0  0  0  0  0  0
   34.6470   29.1340   47.4350 S   0  0  0  0  0  0  0  0  0  0  0  0
   36.9640   29.2880   50.6320 C   0  0  0  0  0  0  0  0  0  0  0  0
   37.3840   30.5970   50.7210 C   0  0  0  0  0  0  0  0  0  0  0  0
   36.9350   31.4900   49.7460 C   0  0  0  0  0  0  0  0  0  0  0  0
   36.1160   31.0270   48.7740 N   0  0  0  0  0  0  0  0  0  0  0  0
   35.7230   29.7350   48.7180 C   0  0  0  0  0  0  0  0  0  0  0  0
   36.1460   28.8470   49.6540 N   0  0  0  0  0  0  0  0  0  0  0  0
   37.3530   28.6220   51.4270 H   0  0  0  0  0  0  0  0  0  0  0  0
   38.0360   31.0290   51.4630 H   0  0  0  0  0  0  0  0  0  0  0  0
   37.1540   32.5500   49.6480 H   0  0  0  0  0  0  0  0  0  0  0  0
   31.0180   27.1860   45.6740 O   0  0  0  0  0  0  0  0  0  0  0  0
   29.5720   29.5150   44.6080 Cl  0  0  0  0  0  0  0  0  0  0  0  0
   29.0550   28.3600   45.8090 C   0  0  0  0  0  0  0  0  0  0  0  0
   29.8170   27.2980   46.2360 C   0  0  0  0  0  0  0  0  0  0  0  0
   29.2750   26.4440   47.1950 C   0  0  0  0  0  0  0  0  0  0  0  0
   28.0110   26.6580   47.7010 C   0  0  0  0  0  0  0  0  0  0  0  0
   27.2350   27.7170   47.2780 C   0  0  0  0  0  0  0  0  0  0  0  0
   27.7800   28.5730   46.3140 C   0  0  0  0  0  0  0  0  0  0  0  0
   29.8140   25.5930   47.5730 H   0  0  0  0  0  0  0  0  0  0  0  0
   27.6190   25.9790   48.4430 H   0  0  0  0  0  0  0  0  0  0  0  0
   26.2690   27.8420   47.7060 H   0  0  0  0  0  0  0  0  0  0  0  0
   26.8780   29.6810   45.9090 C   0  0  0  0  0  2  0  0  0  0  0  0
   27.2020   30.9740   46.3940 N   0  0  0  0  0  4  0  0  0  0  0  0
   28.2120   31.1650   46.5810 H   0  0  0  0  0  0  0  0  0  0  0  0
   26.7210   32.0210   45.5280 C   0  0  0  0  0  2  0  0  0  0  0  0
   27.0740   33.0290   45.8510 H   0  0  0  0  0  0  0  0  0  0  0  0
   26.4230   31.1220   47.6430 C   0  0  0  0  0  2  0  0  0  0  0  0
   26.4690   32.1640   47.9310 H   0  0  0  0  0  0  0  0  0  0  0  0
  1  6  1  1  0  0  0
  1  2  1  0  0  0  0
  2  7  1  1  0  0  0
  3  2  1  0  0  0  0
  4  9  1  0  0  0  0
  4  3  1  0  0  0  0
  5 10  1  6  0  0  0
  5  4  1  0  0  0  0
  5  1  1  0  0  0  0
  8  4  1  0  0  0  0
 11  1  1  0  0  0  0
 12 11  1  0  0  0  0
 13  2  1  0  0  0  0
 13 18  1  0  0  0  0
 14 15  1  0  0  0  0
 14 20  1  0  0  0  0
 15 21  1  0  0  0  0
 16 15  2  0  0  0  0
 17 16  1  0  0  0  0
 18 17  2  0  0  0  0
 18 19  1  0  0  0  0
 19 14  2  0  0  0  0
 22 16  1  0  0  0  0
 23 26  1  0  0  0  0
 23  5  1  0  0  0  0
 24 25  1  0  0  0  0
 25 26  2  0  0  0  0
 25 30  1  0  0  0  0
 26 27  1  0  0  0  0
 27 31  1  0  0  0  0
 27 28  2  0  0  0  0
 28 32  1  0  0  0  0
 29 28  1  0  0  0  0
 29 33  1  0  0  0  0
 30 29  2  0  0  0  0
 34 30  1  0  0  0  0
 34 35  1  0  0  0  0
 35 36  1  0  0  0  0
 35 39  1  0  0  0  0
 37 38  1  0  0  0  0
 37 35  1  0  0  0  0
 39 40  1  0  0  0  0
M  END
>  <minimizedAffinity>
-4.92710209

>  <minimizedRMSD>
0.85130012

$$$$
