
 OpenBabel03272506593D

 33 35  0  0  0  0  0  0  0  0999 V2000
   37.9150   30.9410   47.1900 C   0  0  0  0  0  0  0  0  0  0  0  0
   38.2930   31.6470   48.3100 C   0  0  0  0  0  0  0  0  0  0  0  0
   37.5510   31.7900   49.4560 C   0  0  0  0  0  0  0  0  0  0  0  0
   36.3410   31.1720   49.4650 N   0  0  0  0  0  0  0  0  0  0  0  0
   35.9420   30.4700   48.3750 C   0  0  0  0  0  0  0  0  0  0  0  0
   36.7090   30.3550   47.2630 N   0  0  0  0  0  0  0  0  0  0  0  0
   39.2540   32.1470   48.3240 H   0  0  0  0  0  0  0  0  0  0  0  0
   37.8890   32.3560   50.3140 H   0  0  0  0  0  0  0  0  0  0  0  0
   39.0750   30.0670   43.8660 C   0  0  0  0  0  0  0  0  0  0  0  0
   40.3520   30.6210   43.7580 C   0  0  0  0  0  0  0  0  0  0  0  0
   40.7990   31.3110   44.8820 C   0  0  0  0  0  0  0  0  0  0  0  0
   40.0060   31.4040   45.9730 N   0  0  0  0  0  0  0  0  0  0  0  0
   38.7870   30.8480   46.0090 C   0  0  0  0  0  0  0  0  0  0  0  0
   38.2590   30.1460   44.9520 N   0  0  0  0  0  0  0  0  0  0  0  0
   38.6600   29.5130   43.0280 H   0  0  0  0  0  0  0  0  0  0  0  0
   41.7860   31.7540   44.8340 H   0  0  0  0  0  0  0  0  0  0  0  0
   41.1210   30.4800   42.5880 N   0  0  0  0  0  0  0  0  0  0  0  0
   42.1670   30.5360   42.7100 H   0  0  0  0  0  0  0  0  0  0  0  0
   40.6010   30.3320   41.6900 H   0  0  0  0  0  0  0  0  0  0  0  0
   34.6780   29.7640   48.2520 C   0  0  0  0  0  0  0  0  0  0  0  0
   33.8440   30.1110   47.2190 C   0  0  0  0  0  0  0  0  0  0  0  0
   32.7110   29.3450   47.2670 N   0  0  0  0  0  0  0  0  0  0  0  0
   32.8540   28.5250   48.3350 C   0  0  0  0  0  0  0  0  0  0  0  0
   34.0450   28.7760   48.9340 N   0  0  0  0  0  0  0  0  0  0  0  0
   33.9360   30.8550   46.4190 H   0  0  0  0  0  0  0  0  0  0  0  0
   31.8910   29.3710   46.6230 H   0  0  0  0  0  0  0  0  0  0  0  0
   31.8400   27.5350   48.7350 C   0  0  0  0  0  0  0  0  0  0  0  0
   30.5140   28.1180   48.6340 N   0  0  0  0  0  0  0  0  0  0  0  0
   30.5610   29.1350   48.3700 H   0  0  0  0  0  0  0  0  0  0  0  0
   29.7380   27.3780   47.6660 C   0  0  0  0  0  0  0  0  0  0  0  0
   29.9670   27.8010   46.6490 H   0  0  0  0  0  0  0  0  0  0  0  0
   29.8860   27.9650   49.9430 C   0  0  0  0  0  0  0  0  0  0  0  0
   30.0850   28.8530   50.5970 H   0  0  0  0  0  0  0  0  0  0  0  0
  1  6  2  0  0  0  0
  1  2  1  0  0  0  0
  2  7  1  0  0  0  0
  2  3  2  0  0  0  0
  3  4  1  0  0  0  0
  3  8  1  0  0  0  0
  5  4  2  0  0  0  0
  6  5  1  0  0  0  0
  9 14  1  0  0  0  0
 10  9  2  0  0  0  0
 10 11  1  0  0  0  0
 11 12  2  0  0  0  0
 12 13  1  0  0  0  0
 13  1  1  0  0  0  0
 14 13  2  0  0  0  0
 15  9  1  0  0  0  0
 16 11  1  0  0  0  0
 17 18  1  0  0  0  0
 17 10  1  0  0  0  0
 19 17  1  0  0  0  0
 20  5  1  0  0  0  0
 20 24  1  0  0  0  0
 21 22  1  0  0  0  0
 21 20  2  0  0  0  0
 22 23  1  0  0  0  0
 23 27  1  0  0  0  0
 23 24  2  0  0  0  0
 25 21  1  0  0  0  0
 26 22  1  0  0  0  0
 28 27  1  0  0  0  0
 28 32  1  0  0  0  0
 29 28  1  0  0  0  0
 30 28  1  0  0  0  0
 31 30  1  0  0  0  0
 32 33  1  0  0  0  0
M  END
>  <minimizedAffinity>
-5.45920563

>  <minimizedRMSD>
1.55665362

$$$$
