
 OpenBabel03272509383D

 28 29  0  0  0  0  0  0  0  0999 V2000
   36.1910   29.8520   48.7780 C   0  0  0  0  0  0  0  0  0  0  0  0
   36.2590   29.8760   50.1720 C   0  0  0  0  0  0  0  0  0  0  0  0
   37.2490   30.5850   50.8570 C   0  0  0  0  0  0  0  0  0  0  0  0
   38.1980   31.2870   50.0930 C   0  0  0  0  0  0  0  0  0  0  0  0
   38.1100   31.2480   48.7220 C   0  0  0  0  0  0  0  0  0  0  0  0
   37.1290   30.5490   48.0380 C   0  0  0  0  0  0  0  0  0  0  0  0
   35.5080   29.3180   50.7450 H   0  0  0  0  0  0  0  0  0  0  0  0
   37.2280   30.5480   51.9190 H   0  0  0  0  0  0  0  0  0  0  0  0
   38.9120   31.7930   50.7240 H   0  0  0  0  0  0  0  0  0  0  0  0
   38.9280   31.8340   48.3270 H   0  0  0  0  0  0  0  0  0  0  0  0
   35.1270   29.0590   48.1760 C   0  0  0  0  0  0  0  0  0  0  0  0
   34.8900   27.9460   48.7720 O   0  0  0  0  0  0  0  0  0  0  0  0
   32.7910   30.9860   46.1920 C   0  0  0  0  0  0  0  0  0  0  0  0
   32.8260   30.3640   44.9300 C   0  0  0  0  0  0  0  0  0  0  0  0
   33.6590   29.2570   44.7610 C   0  0  0  0  0  0  0  0  0  0  0  0
   34.4130   28.8070   45.8100 N   0  0  0  0  0  0  0  0  0  0  0  0
   34.3520   29.4300   46.9990 C   0  0  0  0  0  0  0  0  0  0  0  0
   33.5540   30.4820   47.1450 N   0  0  0  0  0  0  0  0  0  0  0  0
   32.1350   31.8310   46.2580 H   0  0  0  0  0  0  0  0  0  0  0  0
   32.2710   30.6460   44.0460 H   0  0  0  0  0  0  0  0  0  0  0  0
   33.7710   28.6920   43.8390 H   0  0  0  0  0  0  0  0  0  0  0  0
   37.1250   30.6080   46.5900 C   0  0  0  0  0  2  0  0  0  0  0  0
   38.2980   31.3020   46.0220 N   0  0  0  0  0  4  0  0  0  0  0  0
   38.9900   31.5740   46.7230 H   0  0  0  0  0  0  0  0  0  0  0  0
   38.9470   30.2340   45.2290 C   0  0  0  0  0  2  0  0  0  0  0  0
   38.4180   30.2130   44.2280 H   0  0  0  0  0  0  0  0  0  0  0  0
   37.9470   32.3070   45.0590 C   0  0  0  0  0  2  0  0  0  0  0  0
   38.6670   33.1720   45.1920 H   0  0  0  0  0  0  0  0  0  0  0  0
  1  2  1  0  0  0  0
  2  7  1  0  0  0  0
  2  3  2  0  0  0  0
  3  8  1  0  0  0  0
  4  9  1  0  0  0  0
  4  3  1  0  0  0  0
  5  4  2  0  0  0  0
  6  5  1  0  0  0  0
  6  1  2  0  0  0  0
 10  5  1  0  0  0  0
 11 12  2  0  0  0  0
 11  1  1  0  0  0  0
 13 19  1  0  0  0  0
 13 18  1  0  0  0  0
 14 13  2  0  0  0  0
 15 14  1  0  0  0  0
 15 16  2  0  0  0  0
 16 17  1  0  0  0  0
 17 18  2  0  0  0  0
 17 11  1  0  0  0  0
 20 14  1  0  0  0  0
 21 15  1  0  0  0  0
 22  6  1  0  0  0  0
 23 22  1  0  0  0  0
 23 24  1  0  0  0  0
 25 23  1  0  0  0  0
 26 25  1  0  0  0  0
 27 28  1  0  0  0  0
 27 23  1  0  0  0  0
M  END
>  <minimizedAffinity>
-4.85166693

>  <minimizedRMSD>
0.754670799

$$$$
