
     RDKit          3D

 46 48  0  0  0  0  0  0  0  0999 V2000
   36.0157   30.2767   48.6387 C   0  0  0  0  0  0  0  0  0  0  0  0
   36.0664   29.3252   49.6345 C   0  0  0  0  0  0  0  0  0  0  0  0
   35.0908   28.3384   49.7105 C   0  0  0  0  0  0  0  0  0  0  0  0
   34.1016   28.3756   48.7530 C   0  0  0  0  0  0  0  0  0  0  0  0
   34.0447   29.3307   47.7478 C   0  0  0  0  0  0  0  0  0  0  0  0
   35.0197   30.2581   47.7304 N   0  0  0  0  0  0  0  0  0  0  0  0
   32.9838   29.2695   46.8217 N   0  0  0  0  0  0  0  0  0  0  0  0
   31.8373   28.4526   47.1309 C   0  0  0  0  0  0  0  0  0  0  0  0
   30.9319   28.4788   45.9251 C   0  0  0  0  0  0  0  0  0  0  0  0
   30.5211   29.9125   45.6371 C   0  0  0  0  0  0  0  0  0  0  0  0
   31.7166   30.7909   45.4697 C   0  0  0  0  0  0  0  0  0  0  0  0
   32.9774   29.9859   45.5655 C   0  0  0  0  0  0  0  0  0  0  0  0
   38.0861   33.1807   49.4962 C   0  0  0  0  0  0  0  0  0  0  0  0
   39.0007   33.2331   48.4483 C   0  0  0  0  0  0  0  0  0  0  0  0
   38.9058   32.2778   47.4557 C   0  0  0  0  0  0  0  0  0  0  0  0
   37.9162   31.3267   47.5525 N   0  0  0  0  0  0  0  0  0  0  0  0
   37.0483   31.3027   48.5766 C   0  0  0  0  0  0  0  0  0  0  0  0
   37.1518   32.2311   49.5278 N   0  0  0  0  0  0  0  0  0  0  0  0
   36.8846   29.3815   50.3398 H   0  0  0  0  0  0  0  0  0  0  0  0
   35.1530   27.6086   50.4960 H   0  0  0  0  0  0  0  0  0  0  0  0
   33.3679   27.5661   48.8773 H   0  0  0  0  0  0  0  0  0  0  0  0
   32.0881   27.3832   47.2993 H   0  0  0  0  0  0  0  0  0  0  0  0
   31.2663   28.9082   47.9608 H   0  0  0  0  0  0  0  0  0  0  0  0
   31.3804   27.9858   45.0488 H   0  0  0  0  0  0  0  0  0  0  0  0
   30.0030   27.9497   46.2282 H   0  0  0  0  0  0  0  0  0  0  0  0
   29.9838   30.2637   46.5639 H   0  0  0  0  0  0  0  0  0  0  0  0
   29.7842   29.9896   44.8399 H   0  0  0  0  0  0  0  0  0  0  0  0
   31.7853   31.6395   46.1533 H   0  0  0  0  0  0  0  0  0  0  0  0
   31.6872   31.1975   44.4190 H   0  0  0  0  0  0  0  0  0  0  0  0
   33.8837   30.6241   45.5516 H   0  0  0  0  0  0  0  0  0  0  0  0
   33.0523   29.2060   44.7755 H   0  0  0  0  0  0  0  0  0  0  0  0
   38.1924   33.9445   50.2530 H   0  0  0  0  0  0  0  0  0  0  0  0
   39.7565   33.9945   48.4150 H   0  0  0  0  0  0  0  0  0  0  0  0
   39.8533   32.3056   46.3395 C   0  0  0  0  0  0  0  0  0  0  0  0
   39.6131   33.3328   45.3705 N   0  0  0  0  0  4  0  0  0  0  0  0
   40.1344   34.6244   45.7717 C   0  0  0  0  0  0  0  0  0  0  0  0
   40.2023   35.2772   44.8835 H   0  0  0  0  0  0  0  0  0  0  0  0
   38.2452   33.4768   44.9708 C   0  0  0  0  0  0  0  0  0  0  0  0
   38.0979   34.5152   44.5827 H   0  0  0  0  0  0  0  0  0  0  0  0
   40.8735   32.5060   46.7564 H   0  0  0  0  0  0  0  0  0  0  0  0
   39.8425   31.3338   45.7900 H   0  0  0  0  0  0  0  0  0  0  0  0
   40.1707   33.0740   44.5082 H   0  0  0  0  0  0  0  0  0  0  0  0
   41.1602   34.5239   46.2112 H   0  0  0  0  0  0  0  0  0  0  0  0
   39.4429   35.1075   46.5113 H   0  0  0  0  0  0  0  0  0  0  0  0
   37.9468   32.7717   44.1784 H   0  0  0  0  0  0  0  0  0  0  0  0
   37.6050   33.3570   45.8695 H   0  0  0  0  0  0  0  0  0  0  0  0
  1  2  2  0
  2  3  1  0
  4  3  2  0
  5  4  1  0
  6  5  2  0
  6  1  1  0
  7  8  1  0
  7  5  1  0
  9  8  1  0
 10  9  1  0
 11 12  1  0
 11 10  1  0
 12  7  1  0
 13 18  2  0
 14 13  1  0
 15 16  1  0
 15 14  2  0
 16 17  2  0
 17  1  1  0
 17 18  1  0
  2 19  1  0
  3 20  1  0
  4 21  1  0
  8 22  1  0
  8 23  1  0
  9 24  1  0
  9 25  1  0
 10 26  1  0
 10 27  1  0
 11 28  1  0
 11 29  1  0
 12 30  1  0
 12 31  1  0
 13 32  1  0
 14 33  1  0
 34 35  1  0
 35 36  1  0
 36 37  1  0
 35 38  1  0
 38 39  1  0
 34 40  1  0
 34 41  1  0
 35 42  1  0
 36 43  1  0
 36 44  1  0
 38 45  1  0
 38 46  1  0
 15 34  1  0
M  ISO  8  19  14  20  14  21  14  22  13  23  13  24  13  25  13  26  13
M  ISO  8  27  13  28  13  29  13  30  13  31  13  32  14  33  14  37   8
M  CHG  1  35   1
M  ISO  1  39   8
M  END
>  <DihAtoms>  (1) 
15,14,33,34

>  <DihDeg>  (1) 
90.0008517478081

$$$$
