
 OpenBabel03272508053D

 33 35  0  0  0  0  0  0  0  0999 V2000
   38.9210   30.9140   45.7910 C   0  0  0  0  0  0  0  0  0  0  0  0
   40.1010   31.5670   46.0390 C   0  0  0  0  0  0  0  0  0  0  0  0
   40.9250   31.4940   44.9320 C   0  0  0  0  0  0  0  0  0  0  0  0
   40.1890   30.7800   44.0310 N   0  0  0  0  0  0  0  0  0  0  0  0
   39.0220   30.4390   44.5230 N   0  0  0  0  0  0  0  0  0  0  0  0
   40.3750   32.0770   46.9700 H   0  0  0  0  0  0  0  0  0  0  0  0
   41.9180   31.8830   44.7530 H   0  0  0  0  0  0  0  0  0  0  0  0
   37.7790   30.7520   46.6860 C   0  0  0  0  0  0  0  0  0  0  0  0
   37.9990   30.9700   48.0720 C   0  0  0  0  0  0  0  0  0  0  0  0
   36.9150   30.8180   48.9320 C   0  0  0  0  0  0  0  0  0  0  0  0
   35.7100   30.4670   48.3910 N   0  0  0  0  0  0  0  0  0  0  0  0
   35.5320   30.2670   47.0680 C   0  0  0  0  0  0  0  0  0  0  0  0
   36.5730   30.4110   46.2260 N   0  0  0  0  0  0  0  0  0  0  0  0
   38.9930   31.2490   48.4360 H   0  0  0  0  0  0  0  0  0  0  0  0
   34.5820   29.9940   46.6600 H   0  0  0  0  0  0  0  0  0  0  0  0
   37.1240   31.0420   50.3940 C   0  0  0  0  0  0  0  0  0  0  0  0
   36.5960   32.2830   50.6510 F   0  0  0  0  0  0  0  0  0  0  0  0
   36.4460   30.1130   51.1680 F   0  0  0  0  0  0  0  0  0  0  0  0
   38.4690   31.0460   50.7290 F   0  0  0  0  0  0  0  0  0  0  0  0
   40.5640   30.3970   42.6730 C   0  0  0  0  0  0  0  0  0  0  0  0
   40.2060   31.1860   41.5710 C   0  0  0  0  0  0  0  0  0  0  0  0
   40.5750   30.8150   40.3220 C   0  0  0  0  0  0  0  0  0  0  0  0
   41.3240   29.6190   40.1590 C   0  0  0  0  0  0  0  0  0  0  0  0
   41.4860   29.0270   41.9170 S   0  0  0  0  0  0  0  0  0  0  0  0
   39.6320   32.1110   41.6460 H   0  0  0  0  0  0  0  0  0  0  0  0
   40.4140   31.2600   39.3590 H   0  0  0  0  0  0  0  0  0  0  0  0
   41.9290   28.8370   39.0750 C   0  0  0  0  0  2  0  0  0  0  0  0
   41.0290   27.9180   38.4430 N   0  0  0  0  0  4  0  0  0  0  0  0
   41.4280   27.6410   37.5270 H   0  0  0  0  0  0  0  0  0  0  0  0
   40.8390   26.7820   39.3240 C   0  0  0  0  0  2  0  0  0  0  0  0
   40.7660   25.8550   38.7390 H   0  0  0  0  0  0  0  0  0  0  0  0
   39.7420   28.5480   38.1920 C   0  0  0  0  0  2  0  0  0  0  0  0
   39.2650   28.0310   37.3560 H   0  0  0  0  0  0  0  0  0  0  0  0
  1  2  1  0  0  0  0
  1  8  1  0  0  0  0
  2  6  1  0  0  0  0
  3  2  2  0  0  0  0
  4  5  1  0  0  0  0
  4  3  1  0  0  0  0
  5  1  2  0  0  0  0
  7  3  1  0  0  0  0
  8  9  1  0  0  0  0
  9 14  1  0  0  0  0
  9 10  2  0  0  0  0
 10 16  1  0  0  0  0
 11 10  1  0  0  0  0
 12 11  2  0  0  0  0
 13  8  2  0  0  0  0
 13 12  1  0  0  0  0
 15 12  1  0  0  0  0
 16 17  1  0  0  0  0
 16 19  1  0  0  0  0
 16 18  1  0  0  0  0
 20  4  1  0  0  0  0
 21 25  1  0  0  0  0
 21 20  2  0  0  0  0
 22 21  1  0  0  0  0
 23 22  2  0  0  0  0
 23 24  1  0  0  0  0
 24 20  1  0  0  0  0
 26 22  1  0  0  0  0
 27 23  1  0  0  0  0
 28 27  1  0  0  0  0
 28 30  1  0  0  0  0
 29 28  1  0  0  0  0
 31 30  1  0  0  0  0
 32 28  1  0  0  0  0
 33 32  1  0  0  0  0
M  END
>  <minimizedAffinity>
-5.86168957

>  <minimizedRMSD>
0.186632708

$$$$
