
 OpenBabel03272509173D

 28 29  0  0  0  0  0  0  0  0999 V2000
   38.4650   26.2700   34.7250 C   0  0  0  0  0  0  0  0  0  0  0  0
   38.5130   24.8770   34.6590 C   0  0  0  0  0  0  0  0  0  0  0  0
   37.8330   24.2830   33.5960 C   0  0  0  0  0  0  0  0  0  0  0  0
   37.1750   25.0770   32.7040 N   0  0  0  0  0  0  0  0  0  0  0  0
   37.1630   26.4300   32.8180 C   0  0  0  0  0  0  0  0  0  0  0  0
   37.8170   27.0300   33.8430 N   0  0  0  0  0  0  0  0  0  0  0  0
   38.9860   26.7480   35.5440 H   0  0  0  0  0  0  0  0  0  0  0  0
   36.5950   26.9030   32.0280 H   0  0  0  0  0  0  0  0  0  0  0  0
   38.6810   23.7030   36.8230 C   0  0  0  0  0  0  0  0  0  0  0  0
   39.2230   24.1210   35.6380 C   0  0  0  0  0  0  0  0  0  0  0  0
   40.5510   23.7440   35.4520 C   0  0  0  0  0  0  0  0  0  0  0  0
   41.2610   23.0020   36.3950 C   0  0  0  0  0  0  0  0  0  0  0  0
   40.6230   22.6250   37.5680 C   0  0  0  0  0  0  0  0  0  0  0  0
   39.3070   22.9790   37.7910 C   0  0  0  0  0  0  0  0  0  0  0  0
   41.0850   24.0160   34.5590 H   0  0  0  0  0  0  0  0  0  0  0  0
   42.2900   22.7020   36.2630 H   0  0  0  0  0  0  0  0  0  0  0  0
   41.1220   22.0490   38.3370 H   0  0  0  0  0  0  0  0  0  0  0  0
   37.3390   24.0330   37.1090 O   0  0  0  0  0  0  0  0  0  0  0  0
   36.6800   23.2630   36.9550 H   0  0  0  0  0  0  0  0  0  0  0  0
   38.6900   22.5860   38.9750 O   0  0  0  0  0  0  0  0  0  0  0  0
   37.9890   21.8720   39.0150 H   0  0  0  0  0  0  0  0  0  0  0  0
   37.8150   22.8340   33.4050 C   0  0  0  0  0  2  0  0  0  0  0  0
   36.8540   22.3300   32.4800 N   0  0  0  0  0  4  0  0  0  0  0  0
   36.2220   23.0640   32.0970 H   0  0  0  0  0  0  0  0  0  0  0  0
   37.5850   21.7880   31.3200 C   0  0  0  0  0  2  0  0  0  0  0  0
   37.8050   22.6660   30.6660 H   0  0  0  0  0  0  0  0  0  0  0  0
   36.0140   21.2870   33.0450 C   0  0  0  0  0  2  0  0  0  0  0  0
   35.1820   21.0170   32.3640 H   0  0  0  0  0  0  0  0  0  0  0  0
  1  7  1  0  0  0  0
  2  1  1  0  0  0  0
  2 10  1  0  0  0  0
  3  2  2  0  0  0  0
  4  5  2  0  0  0  0
  4  3  1  0  0  0  0
  5  6  1  0  0  0  0
  6  1  2  0  0  0  0
  8  5  1  0  0  0  0
  9 18  1  0  0  0  0
  9 14  1  0  0  0  0
 10  9  2  0  0  0  0
 11 10  1  0  0  0  0
 11 12  2  0  0  0  0
 12 13  1  0  0  0  0
 13 14  2  0  0  0  0
 13 17  1  0  0  0  0
 14 20  1  0  0  0  0
 15 11  1  0  0  0  0
 16 12  1  0  0  0  0
 19 18  1  0  0  0  0
 20 21  1  0  0  0  0
 22  3  1  0  0  0  0
 23 27  1  0  0  0  0
 23 22  1  0  0  0  0
 24 23  1  0  0  0  0
 25 23  1  0  0  0  0
 26 25  1  0  0  0  0
 28 27  1  0  0  0  0
M  END
>  <minimizedAffinity>
-4.84519434

$$$$

 OpenBabel03272509173D

 28 29  0  0  0  0  0  0  0  0999 V2000
   37.5630   21.9220   33.5640 C   0  0  0  0  0  0  0  0  0  0  0  0
   38.1630   23.0180   34.1840 C   0  0  0  0  0  0  0  0  0  0  0  0
   37.8830   24.2700   33.6380 C   0  0  0  0  0  0  0  0  0  0  0  0
   37.0590   24.3520   32.5550 N   0  0  0  0  0  0  0  0  0  0  0  0
   36.5020   23.2490   31.9910 C   0  0  0  0  0  0  0  0  0  0  0  0
   36.7600   22.0210   32.5050 N   0  0  0  0  0  0  0  0  0  0  0  0
   37.7710   20.9420   33.9730 H   0  0  0  0  0  0  0  0  0  0  0  0
   35.8770   23.4940   31.1430 H   0  0  0  0  0  0  0  0  0  0  0  0
   38.6080   22.9850   36.6110 C   0  0  0  0  0  0  0  0  0  0  0  0
   39.0170   22.8430   35.3130 C   0  0  0  0  0  0  0  0  0  0  0  0
   40.3610   22.5060   35.1710 C   0  0  0  0  0  0  0  0  0  0  0  0
   41.2110   22.3270   36.2610 C   0  0  0  0  0  0  0  0  0  0  0  0
   40.7010   22.4940   37.5410 C   0  0  0  0  0  0  0  0  0  0  0  0
   39.3740   22.8290   37.7250 C   0  0  0  0  0  0  0  0  0  0  0  0
   40.7990   22.3680   34.1980 H   0  0  0  0  0  0  0  0  0  0  0  0
   42.2540   22.0650   36.1660 H   0  0  0  0  0  0  0  0  0  0  0  0
   41.3120   22.3690   38.4260 H   0  0  0  0  0  0  0  0  0  0  0  0
   37.2620   23.3260   36.8650 O   0  0  0  0  0  0  0  0  0  0  0  0
   36.6800   22.5320   37.1500 H   0  0  0  0  0  0  0  0  0  0  0  0
   38.8880   22.9880   39.0190 O   0  0  0  0  0  0  0  0  0  0  0  0
   38.2720   22.3300   39.4560 H   0  0  0  0  0  0  0  0  0  0  0  0
   38.4380   25.5000   34.2020 C   0  0  0  0  0  2  0  0  0  0  0  0
   37.6080   26.2040   35.1220 N   0  0  0  0  0  4  0  0  0  0  0  0
   36.8970   25.6010   35.5870 H   0  0  0  0  0  0  0  0  0  0  0  0
   38.4680   26.7150   36.2060 C   0  0  0  0  0  2  0  0  0  0  0  0
   38.5920   25.8640   36.9180 H   0  0  0  0  0  0  0  0  0  0  0  0
   36.8990   27.3160   34.5110 C   0  0  0  0  0  2  0  0  0  0  0  0
   36.1500   27.7540   35.2020 H   0  0  0  0  0  0  0  0  0  0  0  0
  1  7  1  0  0  0  0
  1  2  1  0  0  0  0
  2 10  1  0  0  0  0
  3  2  2  0  0  0  0
  3 22  1  0  0  0  0
  4  3  1  0  0  0  0
  5  6  1  0  0  0  0
  5  4  2  0  0  0  0
  6  1  2  0  0  0  0
  8  5  1  0  0  0  0
  9 18  1  0  0  0  0
  9 14  1  0  0  0  0
 10  9  2  0  0  0  0
 11 10  1  0  0  0  0
 11 12  2  0  0  0  0
 12 13  1  0  0  0  0
 13 14  2  0  0  0  0
 13 17  1  0  0  0  0
 14 20  1  0  0  0  0
 15 11  1  0  0  0  0
 16 12  1  0  0  0  0
 18 19  1  0  0  0  0
 20 21  1  0  0  0  0
 22 23  1  0  0  0  0
 23 24  1  0  0  0  0
 23 25  1  0  0  0  0
 25 26  1  0  0  0  0
 27 23  1  0  0  0  0
 27 28  1  0  0  0  0
M  END
>  <minimizedAffinity>
-4.78801441

$$$$

 OpenBabel03272509173D

 28 29  0  0  0  0  0  0  0  0999 V2000
   37.8060   24.2410   33.5930 C   0  0  0  0  0  0  0  0  0  0  0  0
   38.8100   24.6710   34.4600 C   0  0  0  0  0  0  0  0  0  0  0  0
   39.7610   25.5390   33.9260 C   0  0  0  0  0  0  0  0  0  0  0  0
   39.6610   25.9090   32.6170 N   0  0  0  0  0  0  0  0  0  0  0  0
   38.6600   25.4580   31.8180 C   0  0  0  0  0  0  0  0  0  0  0  0
   37.7230   24.6140   32.3150 N   0  0  0  0  0  0  0  0  0  0  0  0
   37.0590   23.5660   33.9890 H   0  0  0  0  0  0  0  0  0  0  0  0
   38.7310   25.8490   30.8130 H   0  0  0  0  0  0  0  0  0  0  0  0
   39.6390   23.2150   36.2730 C   0  0  0  0  0  0  0  0  0  0  0  0
   38.8430   24.2310   35.8170 C   0  0  0  0  0  0  0  0  0  0  0  0
   38.0500   24.8210   36.7990 C   0  0  0  0  0  0  0  0  0  0  0  0
   38.0710   24.4080   38.1300 C   0  0  0  0  0  0  0  0  0  0  0  0
   38.9130   23.3670   38.4950 C   0  0  0  0  0  0  0  0  0  0  0  0
   39.7150   22.7560   37.5510 C   0  0  0  0  0  0  0  0  0  0  0  0
   37.3820   25.6300   36.5600 H   0  0  0  0  0  0  0  0  0  0  0  0
   37.4620   24.8560   38.9010 H   0  0  0  0  0  0  0  0  0  0  0  0
   38.9720   23.0030   39.5130 H   0  0  0  0  0  0  0  0  0  0  0  0
   40.4830   22.5510   35.3570 O   0  0  0  0  0  0  0  0  0  0  0  0
   41.4620   22.8510   35.4030 H   0  0  0  0  0  0  0  0  0  0  0  0
   40.5520   21.7160   37.9450 O   0  0  0  0  0  0  0  0  0  0  0  0
   41.5470   21.8100   38.0110 H   0  0  0  0  0  0  0  0  0  0  0  0
   40.8580   26.0720   34.7330 C   0  0  0  0  0  2  0  0  0  0  0  0
   42.1760   25.7180   34.3190 N   0  0  0  0  0  4  0  0  0  0  0  0
   42.1960   25.0590   33.5130 H   0  0  0  0  0  0  0  0  0  0  0  0
   42.8470   26.9450   33.8500 C   0  0  0  0  0  2  0  0  0  0  0  0
   42.5160   27.0830   32.7920 H   0  0  0  0  0  0  0  0  0  0  0  0
   42.9640   25.1210   35.3850 C   0  0  0  0  0  2  0  0  0  0  0  0
   43.9260   24.7190   35.0070 H   0  0  0  0  0  0  0  0  0  0  0  0
  1  7  1  0  0  0  0
  1  2  1  0  0  0  0
  2 10  1  0  0  0  0
  3  2  2  0  0  0  0
  3 22  1  0  0  0  0
  4  3  1  0  0  0  0
  5  6  1  0  0  0  0
  5  4  2  0  0  0  0
  6  1  2  0  0  0  0
  8  5  1  0  0  0  0
  9 14  1  0  0  0  0
 10  9  2  0  0  0  0
 10 11  1  0  0  0  0
 11 12  2  0  0  0  0
 12 13  1  0  0  0  0
 12 16  1  0  0  0  0
 13 17  1  0  0  0  0
 14 20  1  0  0  0  0
 14 13  2  0  0  0  0
 15 11  1  0  0  0  0
 18 19  1  0  0  0  0
 18  9  1  0  0  0  0
 20 21  1  0  0  0  0
 23 22  1  0  0  0  0
 23 27  1  0  0  0  0
 24 23  1  0  0  0  0
 25 23  1  0  0  0  0
 26 25  1  0  0  0  0
 28 27  1  0  0  0  0
M  END
>  <minimizedAffinity>
-4.76460648

$$$$

 OpenBabel03272509173D

 28 29  0  0  0  0  0  0  0  0999 V2000
   40.3900   26.4490   34.7670 C   0  0  0  0  0  0  0  0  0  0  0  0
   39.4770   25.3940   34.7640 C   0  0  0  0  0  0  0  0  0  0  0  0
   38.8580   25.1140   33.5460 C   0  0  0  0  0  0  0  0  0  0  0  0
   39.1700   25.8680   32.4540 N   0  0  0  0  0  0  0  0  0  0  0  0
   40.0680   26.8850   32.5160 C   0  0  0  0  0  0  0  0  0  0  0  0
   40.6840   27.1760   33.6890 N   0  0  0  0  0  0  0  0  0  0  0  0
   40.8800   26.6820   35.7030 H   0  0  0  0  0  0  0  0  0  0  0  0
   40.1960   27.3770   31.5620 H   0  0  0  0  0  0  0  0  0  0  0  0
   39.9160   23.5580   36.3530 C   0  0  0  0  0  0  0  0  0  0  0  0
   39.2060   24.6570   35.9540 C   0  0  0  0  0  0  0  0  0  0  0  0
   38.1720   25.0140   36.8180 C   0  0  0  0  0  0  0  0  0  0  0  0
   37.8930   24.3090   37.9870 C   0  0  0  0  0  0  0  0  0  0  0  0
   38.6720   23.2060   38.3060 C   0  0  0  0  0  0  0  0  0  0  0  0
   39.7050   22.8190   37.4760 C   0  0  0  0  0  0  0  0  0  0  0  0
   37.5420   25.8610   36.6100 H   0  0  0  0  0  0  0  0  0  0  0  0
   37.0960   24.5750   38.6660 H   0  0  0  0  0  0  0  0  0  0  0  0
   38.5030   22.6200   39.2000 H   0  0  0  0  0  0  0  0  0  0  0  0
   40.9870   23.1130   35.5480 O   0  0  0  0  0  0  0  0  0  0  0  0
   41.9110   23.3870   35.8970 H   0  0  0  0  0  0  0  0  0  0  0  0
   40.4730   21.7100   37.8210 O   0  0  0  0  0  0  0  0  0  0  0  0
   41.4170   21.7790   38.1480 H   0  0  0  0  0  0  0  0  0  0  0  0
   37.8910   24.0260   33.4050 C   0  0  0  0  0  2  0  0  0  0  0  0
   38.3950   22.7950   32.8900 N   0  0  0  0  0  4  0  0  0  0  0  0
   39.4350   22.7390   32.8900 H   0  0  0  0  0  0  0  0  0  0  0  0
   37.9360   21.7120   33.7790 C   0  0  0  0  0  2  0  0  0  0  0  0
   38.6610   21.6920   34.6280 H   0  0  0  0  0  0  0  0  0  0  0  0
   37.9480   22.5220   31.5330 C   0  0  0  0  0  2  0  0  0  0  0  0
   38.4670   21.6430   31.1010 H   0  0  0  0  0  0  0  0  0  0  0  0
  1  7  1  0  0  0  0
  2  1  1  0  0  0  0
  2 10  1  0  0  0  0
  3  2  2  0  0  0  0
  4  5  2  0  0  0  0
  4  3  1  0  0  0  0
  5  6  1  0  0  0  0
  6  1  2  0  0  0  0
  8  5  1  0  0  0  0
  9 14  1  0  0  0  0
 10  9  2  0  0  0  0
 10 11  1  0  0  0  0
 11 12  2  0  0  0  0
 12 13  1  0  0  0  0
 12 16  1  0  0  0  0
 13 17  1  0  0  0  0
 14 20  1  0  0  0  0
 14 13  2  0  0  0  0
 15 11  1  0  0  0  0
 18 19  1  0  0  0  0
 18  9  1  0  0  0  0
 20 21  1  0  0  0  0
 22  3  1  0  0  0  0
 23 22  1  0  0  0  0
 23 25  1  0  0  0  0
 24 23  1  0  0  0  0
 25 26  1  0  0  0  0
 27 23  1  0  0  0  0
 28 27  1  0  0  0  0
M  END
>  <minimizedAffinity>
-4.72991276

$$$$

 OpenBabel03272509173D

 28 29  0  0  0  0  0  0  0  0999 V2000
   38.4440   23.8950   37.0430 C   0  0  0  0  0  0  0  0  0  0  0  0
   39.0400   24.5770   35.9830 C   0  0  0  0  0  0  0  0  0  0  0  0
   40.3350   24.1870   35.6440 C   0  0  0  0  0  0  0  0  0  0  0  0
   40.9330   23.1870   36.3530 N   0  0  0  0  0  0  0  0  0  0  0  0
   40.3030   22.5570   37.3780 C   0  0  0  0  0  0  0  0  0  0  0  0
   39.0430   22.9180   37.7250 N   0  0  0  0  0  0  0  0  0  0  0  0
   37.4390   24.1850   37.3210 H   0  0  0  0  0  0  0  0  0  0  0  0
   40.9200   21.7910   37.8280 H   0  0  0  0  0  0  0  0  0  0  0  0
   37.7080   25.4490   34.0970 C   0  0  0  0  0  0  0  0  0  0  0  0
   38.3440   25.6160   35.2970 C   0  0  0  0  0  0  0  0  0  0  0  0
   38.2580   26.9070   35.8140 C   0  0  0  0  0  0  0  0  0  0  0  0
   37.5800   27.9350   35.1610 C   0  0  0  0  0  0  0  0  0  0  0  0
   36.9660   27.6650   33.9460 C   0  0  0  0  0  0  0  0  0  0  0  0
   37.0280   26.3990   33.4000 C   0  0  0  0  0  0  0  0  0  0  0  0
   38.7200   27.1610   36.7520 H   0  0  0  0  0  0  0  0  0  0  0  0
   37.5050   28.9390   35.5510 H   0  0  0  0  0  0  0  0  0  0  0  0
   36.4250   28.4230   33.3930 H   0  0  0  0  0  0  0  0  0  0  0  0
   37.7340   24.1760   33.4870 O   0  0  0  0  0  0  0  0  0  0  0  0
   36.8680   23.6400   33.6070 H   0  0  0  0  0  0  0  0  0  0  0  0
   36.4020   26.1550   32.1800 O   0  0  0  0  0  0  0  0  0  0  0  0
   35.5620   25.6160   32.0960 H   0  0  0  0  0  0  0  0  0  0  0  0
   41.0670   24.8140   34.5440 C   0  0  0  0  0  2  0  0  0  0  0  0
   41.7930   25.9990   34.8620 N   0  0  0  0  0  4  0  0  0  0  0  0
   41.5950   26.3640   35.8180 H   0  0  0  0  0  0  0  0  0  0  0  0
   43.2290   25.6650   34.8500 C   0  0  0  0  0  2  0  0  0  0  0  0
   43.4440   25.2240   35.8540 H   0  0  0  0  0  0  0  0  0  0  0  0
   41.5460   27.0840   33.9260 C   0  0  0  0  0  2  0  0  0  0  0  0
   41.9990   28.0350   34.2740 H   0  0  0  0  0  0  0  0  0  0  0  0
  1  7  1  0  0  0  0
  1  6  1  0  0  0  0
  2  1  2  0  0  0  0
  3  2  1  0  0  0  0
  3  4  2  0  0  0  0
  4  5  1  0  0  0  0
  5  6  2  0  0  0  0
  5  8  1  0  0  0  0
  9 10  1  0  0  0  0
 10 11  2  0  0  0  0
 10  2  1  0  0  0  0
 11 15  1  0  0  0  0
 12 16  1  0  0  0  0
 12 11  1  0  0  0  0
 13 12  2  0  0  0  0
 14 13  1  0  0  0  0
 14  9  2  0  0  0  0
 17 13  1  0  0  0  0
 18 19  1  0  0  0  0
 18  9  1  0  0  0  0
 20 14  1  0  0  0  0
 21 20  1  0  0  0  0
 22 23  1  0  0  0  0
 22  3  1  0  0  0  0
 23 24  1  0  0  0  0
 25 23  1  0  0  0  0
 25 26  1  0  0  0  0
 27 28  1  0  0  0  0
 27 23  1  0  0  0  0
M  END
>  <minimizedAffinity>
-4.66641474

$$$$

 OpenBabel03272509173D

 28 29  0  0  0  0  0  0  0  0999 V2000
   38.6810   26.7270   35.7500 C   0  0  0  0  0  0  0  0  0  0  0  0
   38.8540   25.5090   35.0930 C   0  0  0  0  0  0  0  0  0  0  0  0
   38.0070   25.2590   34.0150 C   0  0  0  0  0  0  0  0  0  0  0  0
   37.0770   26.1960   33.6710 N   0  0  0  0  0  0  0  0  0  0  0  0
   36.9530   27.3670   34.3480 C   0  0  0  0  0  0  0  0  0  0  0  0
   37.7670   27.6320   35.4000 N   0  0  0  0  0  0  0  0  0  0  0  0
   39.3290   26.9370   36.5910 H   0  0  0  0  0  0  0  0  0  0  0  0
   36.1690   27.9930   33.9440 H   0  0  0  0  0  0  0  0  0  0  0  0
   39.6420   23.6180   36.4700 C   0  0  0  0  0  0  0  0  0  0  0  0
   39.8500   24.5810   35.5210 C   0  0  0  0  0  0  0  0  0  0  0  0
   41.1370   24.5900   34.9880 C   0  0  0  0  0  0  0  0  0  0  0  0
   42.1230   23.6900   35.3890 C   0  0  0  0  0  0  0  0  0  0  0  0
   41.8140   22.7480   36.3600 C   0  0  0  0  0  0  0  0  0  0  0  0
   40.5500   22.7070   36.9140 C   0  0  0  0  0  0  0  0  0  0  0  0
   41.4210   25.3030   34.2340 H   0  0  0  0  0  0  0  0  0  0  0  0
   43.1240   23.6850   34.9840 H   0  0  0  0  0  0  0  0  0  0  0  0
   42.5380   22.0240   36.7120 H   0  0  0  0  0  0  0  0  0  0  0  0
   38.3700   23.5230   37.0730 O   0  0  0  0  0  0  0  0  0  0  0  0
   37.7880   22.7660   36.6990 H   0  0  0  0  0  0  0  0  0  0  0  0
   40.2660   21.7510   37.8850 O   0  0  0  0  0  0  0  0  0  0  0  0
   39.6810   20.9560   37.7140 H   0  0  0  0  0  0  0  0  0  0  0  0
   38.0930   24.0260   33.2340 C   0  0  0  0  0  2  0  0  0  0  0  0
   37.1320   23.8690   32.1930 N   0  0  0  0  0  4  0  0  0  0  0  0
   36.3920   24.6020   32.1950 H   0  0  0  0  0  0  0  0  0  0  0  0
   37.8340   24.0150   30.9040 C   0  0  0  0  0  2  0  0  0  0  0  0
   37.9020   25.1150   30.7220 H   0  0  0  0  0  0  0  0  0  0  0  0
   36.4620   22.5790   32.2280 C   0  0  0  0  0  2  0  0  0  0  0  0
   35.6200   22.5350   31.5080 H   0  0  0  0  0  0  0  0  0  0  0  0
  1  7  1  0  0  0  0
  2 10  1  0  0  0  0
  2  1  2  0  0  0  0
  3  2  1  0  0  0  0
  4  3  2  0  0  0  0
  4  5  1  0  0  0  0
  5  6  2  0  0  0  0
  6  1  1  0  0  0  0
  8  5  1  0  0  0  0
  9 14  1  0  0  0  0
  9 18  1  0  0  0  0
 10  9  2  0  0  0  0
 11 12  2  0  0  0  0
 11 10  1  0  0  0  0
 12 13  1  0  0  0  0
 13 17  1  0  0  0  0
 13 14  2  0  0  0  0
 14 20  1  0  0  0  0
 15 11  1  0  0  0  0
 16 12  1  0  0  0  0
 19 18  1  0  0  0  0
 21 20  1  0  0  0  0
 22  3  1  0  0  0  0
 23 24  1  0  0  0  0
 23 27  1  0  0  0  0
 23 22  1  0  0  0  0
 25 23  1  0  0  0  0
 26 25  1  0  0  0  0
 28 27  1  0  0  0  0
M  END
>  <minimizedAffinity>
-4.6509285

$$$$

 OpenBabel03272509173D

 28 29  0  0  0  0  0  0  0  0999 V2000
   35.3910   25.8090   31.2390 C   0  0  0  0  0  0  0  0  0  0  0  0
   36.3690   26.6720   31.7340 C   0  0  0  0  0  0  0  0  0  0  0  0
   37.5070   26.0750   32.2750 C   0  0  0  0  0  0  0  0  0  0  0  0
   37.5980   24.7140   32.2910 N   0  0  0  0  0  0  0  0  0  0  0  0
   36.6130   23.9230   31.7940 C   0  0  0  0  0  0  0  0  0  0  0  0
   35.4970   24.4810   31.2620 N   0  0  0  0  0  0  0  0  0  0  0  0
   34.5010   26.2550   30.8170 H   0  0  0  0  0  0  0  0  0  0  0  0
   36.8470   22.8710   31.8860 H   0  0  0  0  0  0  0  0  0  0  0  0
   36.4130   28.8450   30.5640 C   0  0  0  0  0  0  0  0  0  0  0  0
   36.1920   28.0860   31.6820 C   0  0  0  0  0  0  0  0  0  0  0  0
   35.7700   28.8140   32.7930 C   0  0  0  0  0  0  0  0  0  0  0  0
   35.5880   30.1960   32.7610 C   0  0  0  0  0  0  0  0  0  0  0  0
   35.8380   30.8770   31.5780 C   0  0  0  0  0  0  0  0  0  0  0  0
   36.2580   30.1920   30.4550 C   0  0  0  0  0  0  0  0  0  0  0  0
   35.5660   28.3270   33.7300 H   0  0  0  0  0  0  0  0  0  0  0  0
   35.2610   30.7720   33.6140 H   0  0  0  0  0  0  0  0  0  0  0  0
   35.7150   31.9490   31.4930 H   0  0  0  0  0  0  0  0  0  0  0  0
   36.8420   28.2030   29.3830 O   0  0  0  0  0  0  0  0  0  0  0  0
   36.0970   28.0590   28.6940 H   0  0  0  0  0  0  0  0  0  0  0  0
   36.5000   30.9000   29.2810 O   0  0  0  0  0  0  0  0  0  0  0  0
   35.8990   30.8530   28.4810 H   0  0  0  0  0  0  0  0  0  0  0  0
   38.6110   26.8660   32.8160 C   0  0  0  0  0  2  0  0  0  0  0  0
   39.0130   26.5610   34.1500 N   0  0  0  0  0  4  0  0  0  0  0  0
   38.9540   25.5470   34.3800 H   0  0  0  0  0  0  0  0  0  0  0  0
   40.4370   26.9200   34.2850 C   0  0  0  0  0  2  0  0  0  0  0  0
   41.0060   26.0490   33.8790 H   0  0  0  0  0  0  0  0  0  0  0  0
   38.2420   27.2780   35.1530 C   0  0  0  0  0  2  0  0  0  0  0  0
   38.4670   26.9160   36.1770 H   0  0  0  0  0  0  0  0  0  0  0  0
  1  6  2  0  0  0  0
  1  2  1  0  0  0  0
  2  3  2  0  0  0  0
  3  4  1  0  0  0  0
  3 22  1  0  0  0  0
  5  8  1  0  0  0  0
  5  4  2  0  0  0  0
  6  5  1  0  0  0  0
  7  1  1  0  0  0  0
  9 10  1  0  0  0  0
 10  2  1  0  0  0  0
 10 11  2  0  0  0  0
 11 15  1  0  0  0  0
 12 11  1  0  0  0  0
 12 16  1  0  0  0  0
 13 12  2  0  0  0  0
 14  9  2  0  0  0  0
 14 13  1  0  0  0  0
 17 13  1  0  0  0  0
 18  9  1  0  0  0  0
 19 18  1  0  0  0  0
 20 14  1  0  0  0  0
 21 20  1  0  0  0  0
 22 23  1  0  0  0  0
 23 25  1  0  0  0  0
 23 24  1  0  0  0  0
 23 27  1  0  0  0  0
 26 25  1  0  0  0  0
 27 28  1  0  0  0  0
M  END
>  <minimizedAffinity>
-4.51077461

$$$$

 OpenBabel03272509173D

 28 29  0  0  0  0  0  0  0  0999 V2000
   37.3910   23.2820   33.0030 C   0  0  0  0  0  0  0  0  0  0  0  0
   37.8080   24.5540   32.6090 C   0  0  0  0  0  0  0  0  0  0  0  0
   37.2480   25.0530   31.4340 C   0  0  0  0  0  0  0  0  0  0  0  0
   36.3490   24.2890   30.7500 N   0  0  0  0  0  0  0  0  0  0  0  0
   35.9800   23.0560   31.1820 C   0  0  0  0  0  0  0  0  0  0  0  0
   36.5090   22.5490   32.3220 N   0  0  0  0  0  0  0  0  0  0  0  0
   37.8150   22.8780   33.9120 H   0  0  0  0  0  0  0  0  0  0  0  0
   35.2600   22.5900   30.5230 H   0  0  0  0  0  0  0  0  0  0  0  0
   38.4250   26.1240   34.4110 C   0  0  0  0  0  0  0  0  0  0  0  0
   38.7580   25.2850   33.3820 C   0  0  0  0  0  0  0  0  0  0  0  0
   40.1260   25.1940   33.1390 C   0  0  0  0  0  0  0  0  0  0  0  0
   41.0710   25.8970   33.8840 C   0  0  0  0  0  0  0  0  0  0  0  0
   40.6330   26.7240   34.9090 C   0  0  0  0  0  0  0  0  0  0  0  0
   39.2850   26.8430   35.1820 C   0  0  0  0  0  0  0  0  0  0  0  0
   40.5100   24.5660   32.3530 H   0  0  0  0  0  0  0  0  0  0  0  0
   42.1340   25.8350   33.7070 H   0  0  0  0  0  0  0  0  0  0  0  0
   41.3190   27.2950   35.5220 H   0  0  0  0  0  0  0  0  0  0  0  0
   37.0620   26.2870   34.7390 O   0  0  0  0  0  0  0  0  0  0  0  0
   36.7670   25.7510   35.5620 H   0  0  0  0  0  0  0  0  0  0  0  0
   38.8730   27.6770   36.2170 O   0  0  0  0  0  0  0  0  0  0  0  0
   38.5170   27.3330   37.0870 H   0  0  0  0  0  0  0  0  0  0  0  0
   37.5910   26.3780   30.9180 C   0  0  0  0  0  2  0  0  0  0  0  0
   36.4980   27.2030   30.5200 N   0  0  0  0  0  4  0  0  0  0  0  0
   35.7990   26.7100   29.9260 H   0  0  0  0  0  0  0  0  0  0  0  0
   35.7730   27.6090   31.7390 C   0  0  0  0  0  2  0  0  0  0  0  0
   35.0880   26.7600   31.9780 H   0  0  0  0  0  0  0  0  0  0  0  0
   36.9190   28.3920   29.7970 C   0  0  0  0  0  2  0  0  0  0  0  0
   36.0540   28.9390   29.3700 H   0  0  0  0  0  0  0  0  0  0  0  0
  1  7  1  0  0  0  0
  2  1  1  0  0  0  0
  2 10  1  0  0  0  0
  3  2  2  0  0  0  0
  4  5  2  0  0  0  0
  4  3  1  0  0  0  0
  5  6  1  0  0  0  0
  6  1  2  0  0  0  0
  8  5  1  0  0  0  0
  9 18  1  0  0  0  0
  9 14  1  0  0  0  0
 10  9  2  0  0  0  0
 11 10  1  0  0  0  0
 11 12  2  0  0  0  0
 12 13  1  0  0  0  0
 13 14  2  0  0  0  0
 13 17  1  0  0  0  0
 14 20  1  0  0  0  0
 15 11  1  0  0  0  0
 16 12  1  0  0  0  0
 18 19  1  0  0  0  0
 20 21  1  0  0  0  0
 22  3  1  0  0  0  0
 23 22  1  0  0  0  0
 23 25  1  0  0  0  0
 24 23  1  0  0  0  0
 25 26  1  0  0  0  0
 27 23  1  0  0  0  0
 28 27  1  0  0  0  0
M  END
>  <minimizedAffinity>
-4.48741817

$$$$

 OpenBabel03272509173D

 28 29  0  0  0  0  0  0  0  0999 V2000
   35.9780   23.8750   31.0960 C   0  0  0  0  0  0  0  0  0  0  0  0
   36.7180   22.9010   31.7660 C   0  0  0  0  0  0  0  0  0  0  0  0
   37.5180   23.3450   32.8180 C   0  0  0  0  0  0  0  0  0  0  0  0
   37.5340   24.6730   33.1250 N   0  0  0  0  0  0  0  0  0  0  0  0
   36.7910   25.5780   32.4370 C   0  0  0  0  0  0  0  0  0  0  0  0
   36.0050   25.1700   31.4110 N   0  0  0  0  0  0  0  0  0  0  0  0
   35.3510   23.5490   30.2760 H   0  0  0  0  0  0  0  0  0  0  0  0
   36.9210   26.5840   32.8110 H   0  0  0  0  0  0  0  0  0  0  0  0
   35.6980   20.6550   31.8310 C   0  0  0  0  0  0  0  0  0  0  0  0
   36.6460   21.5310   31.3770 C   0  0  0  0  0  0  0  0  0  0  0  0
   37.5590   20.9730   30.4840 C   0  0  0  0  0  0  0  0  0  0  0  0
   37.5040   19.6380   30.0890 C   0  0  0  0  0  0  0  0  0  0  0  0
   36.5030   18.8270   30.6060 C   0  0  0  0  0  0  0  0  0  0  0  0
   35.5790   19.3420   31.4940 C   0  0  0  0  0  0  0  0  0  0  0  0
   38.3520   21.5640   30.0600 H   0  0  0  0  0  0  0  0  0  0  0  0
   38.2050   19.1930   29.3980 H   0  0  0  0  0  0  0  0  0  0  0  0
   36.4100   17.7830   30.3360 H   0  0  0  0  0  0  0  0  0  0  0  0
   34.7240   21.1200   32.7400 O   0  0  0  0  0  0  0  0  0  0  0  0
   33.8140   21.3160   32.3100 H   0  0  0  0  0  0  0  0  0  0  0  0
   34.5840   18.5080   31.9950 O   0  0  0  0  0  0  0  0  0  0  0  0
   33.6230   18.5760   31.7190 H   0  0  0  0  0  0  0  0  0  0  0  0
   38.3330   22.4240   33.6090 C   0  0  0  0  0  2  0  0  0  0  0  0
   38.3420   22.6390   35.0190 N   0  0  0  0  0  4  0  0  0  0  0  0
   38.1370   23.6240   35.2910 H   0  0  0  0  0  0  0  0  0  0  0  0
   37.2590   21.8290   35.6060 C   0  0  0  0  0  2  0  0  0  0  0  0
   36.3300   22.4350   35.4850 H   0  0  0  0  0  0  0  0  0  0  0  0
   39.6040   22.2730   35.6410 C   0  0  0  0  0  2  0  0  0  0  0  0
   39.6420   22.5860   36.7040 H   0  0  0  0  0  0  0  0  0  0  0  0
  1  6  2  0  0  0  0
  1  2  1  0  0  0  0
  2  3  2  0  0  0  0
  3  4  1  0  0  0  0
  3 22  1  0  0  0  0
  5  8  1  0  0  0  0
  5  4  2  0  0  0  0
  6  5  1  0  0  0  0
  7  1  1  0  0  0  0
  9 18  1  0  0  0  0
 10  2  1  0  0  0  0
 10  9  2  0  0  0  0
 11 10  1  0  0  0  0
 12 11  2  0  0  0  0
 12 13  1  0  0  0  0
 13 14  2  0  0  0  0
 14  9  1  0  0  0  0
 14 20  1  0  0  0  0
 15 11  1  0  0  0  0
 16 12  1  0  0  0  0
 17 13  1  0  0  0  0
 19 18  1  0  0  0  0
 21 20  1  0  0  0  0
 22 23  1  0  0  0  0
 23 24  1  0  0  0  0
 23 25  1  0  0  0  0
 23 27  1  0  0  0  0
 26 25  1  0  0  0  0
 27 28  1  0  0  0  0
M  END
>  <minimizedAffinity>
-4.44279289

$$$$
