
 OpenBabel03272502443D

 33 35  0  0  0  0  0  0  0  0999 V2000
   35.8790   28.9980   31.6880 C   0  0  0  0  0  0  0  0  0  0  0  0
   36.5020   27.8170   32.0760 C   0  0  0  0  0  0  0  0  0  0  0  0
   36.6680   27.6260   33.4620 C   0  0  0  0  0  0  0  0  0  0  0  0
   36.2230   28.5810   34.3190 N   0  0  0  0  0  0  0  0  0  0  0  0
   35.6210   29.7160   33.8770 C   0  0  0  0  0  0  0  0  0  0  0  0
   35.4590   29.9050   32.5660 N   0  0  0  0  0  0  0  0  0  0  0  0
   35.7690   29.1060   30.6160 H   0  0  0  0  0  0  0  0  0  0  0  0
   36.8710   27.0320   31.4370 H   0  0  0  0  0  0  0  0  0  0  0  0
   32.7800   29.4340   34.6860 Cl  0  0  0  0  0  0  0  0  0  0  0  0
   33.8480   30.6440   35.2980 C   0  0  0  0  0  0  0  0  0  0  0  0
   35.1680   30.6970   34.8590 C   0  0  0  0  0  0  0  0  0  0  0  0
   36.0380   31.6380   35.3200 C   0  0  0  0  0  0  0  0  0  0  0  0
   35.6250   32.5810   36.2560 C   0  0  0  0  0  0  0  0  0  0  0  0
   34.3330   32.5620   36.7140 C   0  0  0  0  0  0  0  0  0  0  0  0
   33.6940   33.6950   37.8890 Cl  0  0  0  0  0  0  0  0  0  0  0  0
   33.4800   31.5920   36.2210 C   0  0  0  0  0  0  0  0  0  0  0  0
   37.0660   31.7160   35.0080 H   0  0  0  0  0  0  0  0  0  0  0  0
   36.3000   33.3370   36.6350 H   0  0  0  0  0  0  0  0  0  0  0  0
   32.4550   31.5630   36.5730 H   0  0  0  0  0  0  0  0  0  0  0  0
   37.3080   26.4240   33.9860 C   0  0  0  0  0  0  0  0  0  0  0  0
   37.5960   25.3040   33.2030 C   0  0  0  0  0  0  0  0  0  0  0  0
   38.1900   24.3390   33.9540 N   0  0  0  0  0  0  0  0  0  0  0  0
   38.2720   24.8570   35.2040 C   0  0  0  0  0  0  0  0  0  0  0  0
   37.7460   26.0870   35.1990 N   0  0  0  0  0  0  0  0  0  0  0  0
   37.3860   25.1930   32.1360 H   0  0  0  0  0  0  0  0  0  0  0  0
   38.5050   23.4030   33.6050 H   0  0  0  0  0  0  0  0  0  0  0  0
   38.8600   24.1490   36.3830 C   0  0  0  0  0  2  0  0  0  0  0  0
   37.8720   23.8550   37.4020 N   0  0  0  0  0  4  0  0  0  0  0  0
   37.2180   24.6340   37.5870 H   0  0  0  0  0  0  0  0  0  0  0  0
   37.0690   22.6840   37.0140 C   0  0  0  0  0  2  0  0  0  0  0  0
   36.1400   22.6260   37.5790 H   0  0  0  0  0  0  0  0  0  0  0  0
   38.5910   23.4370   38.6080 C   0  0  0  0  0  2  0  0  0  0  0  0
   39.1320   22.5030   38.2860 H   0  0  0  0  0  0  0  0  0  0  0  0
  1  2  2  0  0  0  0
  1  6  1  0  0  0  0
  2  3  1  0  0  0  0
  3 20  1  0  0  0  0
  3  4  2  0  0  0  0
  5  4  1  0  0  0  0
  5 11  1  0  0  0  0
  6  5  2  0  0  0  0
  7  1  1  0  0  0  0
  8  2  1  0  0  0  0
  9 10  1  0  0  0  0
 10 16  1  0  0  0  0
 11 10  2  0  0  0  0
 11 12  1  0  0  0  0
 12 13  2  0  0  0  0
 13 18  1  0  0  0  0
 13 14  1  0  0  0  0
 14 15  1  0  0  0  0
 16 19  1  0  0  0  0
 16 14  2  0  0  0  0
 17 12  1  0  0  0  0
 20 24  1  0  0  0  0
 21 22  1  0  0  0  0
 21 20  2  0  0  0  0
 22 23  1  0  0  0  0
 23 27  1  0  0  0  0
 24 23  2  0  0  0  0
 25 21  1  0  0  0  0
 26 22  1  0  0  0  0
 27 28  1  0  0  0  0
 28 29  1  0  0  0  0
 28 32  1  0  0  0  0
 30 28  1  0  0  0  0
 30 31  1  0  0  0  0
 33 32  1  0  0  0  0
M  END
>  <minimizedAffinity>
-5.54604912

$$$$

 OpenBabel03272502443D

 33 35  0  0  0  0  0  0  0  0999 V2000
   34.9900   30.0140   32.0260 C   0  0  0  0  0  0  0  0  0  0  0  0
   35.6580   28.8230   32.2890 C   0  0  0  0  0  0  0  0  0  0  0  0
   36.0450   28.6090   33.6270 C   0  0  0  0  0  0  0  0  0  0  0  0
   35.7510   29.5520   34.5590 N   0  0  0  0  0  0  0  0  0  0  0  0
   35.0930   30.6970   34.2380 C   0  0  0  0  0  0  0  0  0  0  0  0
   34.7240   30.9080   32.9740 N   0  0  0  0  0  0  0  0  0  0  0  0
   34.7100   30.1400   30.9870 H   0  0  0  0  0  0  0  0  0  0  0  0
   35.9150   28.0470   31.5870 H   0  0  0  0  0  0  0  0  0  0  0  0
   36.7470   33.1580   34.1310 Cl  0  0  0  0  0  0  0  0  0  0  0  0
   35.5400   32.8510   35.3260 C   0  0  0  0  0  0  0  0  0  0  0  0
   34.8120   31.6640   35.2950 C   0  0  0  0  0  0  0  0  0  0  0  0
   33.8530   31.3890   36.2220 C   0  0  0  0  0  0  0  0  0  0  0  0
   33.5710   32.2990   37.2350 C   0  0  0  0  0  0  0  0  0  0  0  0
   34.2660   33.4800   37.3000 C   0  0  0  0  0  0  0  0  0  0  0  0
   34.0030   34.7040   38.5270 Cl  0  0  0  0  0  0  0  0  0  0  0  0
   35.2320   33.7220   36.3410 C   0  0  0  0  0  0  0  0  0  0  0  0
   33.2680   30.4860   36.2350 H   0  0  0  0  0  0  0  0  0  0  0  0
   32.8130   32.1000   37.9810 H   0  0  0  0  0  0  0  0  0  0  0  0
   35.7900   34.6510   36.3790 H   0  0  0  0  0  0  0  0  0  0  0  0
   36.7520   27.3960   34.0230 C   0  0  0  0  0  0  0  0  0  0  0  0
   37.0080   26.3380   33.1480 C   0  0  0  0  0  0  0  0  0  0  0  0
   37.6810   25.3440   33.7880 N   0  0  0  0  0  0  0  0  0  0  0  0
   37.8440   25.7840   35.0610 C   0  0  0  0  0  0  0  0  0  0  0  0
   37.2890   26.9950   35.1750 N   0  0  0  0  0  0  0  0  0  0  0  0
   36.7210   26.2880   32.0940 H   0  0  0  0  0  0  0  0  0  0  0  0
   37.9920   24.4430   33.3560 H   0  0  0  0  0  0  0  0  0  0  0  0
   38.5370   25.0200   36.1440 C   0  0  0  0  0  2  0  0  0  0  0  0
   37.7910   23.8500   36.5600 N   0  0  0  0  0  4  0  0  0  0  0  0
   36.8160   23.8300   36.2150 H   0  0  0  0  0  0  0  0  0  0  0  0
   38.4540   22.6240   36.0870 C   0  0  0  0  0  2  0  0  0  0  0  0
   37.7800   21.7680   36.1030 H   0  0  0  0  0  0  0  0  0  0  0  0
   37.8610   23.7770   38.0220 C   0  0  0  0  0  2  0  0  0  0  0  0
   38.9610   23.6520   38.2300 H   0  0  0  0  0  0  0  0  0  0  0  0
  1  2  2  0  0  0  0
  1  6  1  0  0  0  0
  2  3  1  0  0  0  0
  3 20  1  0  0  0  0
  3  4  2  0  0  0  0
  5  4  1  0  0  0  0
  5 11  1  0  0  0  0
  6  5  2  0  0  0  0
  7  1  1  0  0  0  0
  8  2  1  0  0  0  0
  9 10  1  0  0  0  0
 10 16  1  0  0  0  0
 11 10  2  0  0  0  0
 11 12  1  0  0  0  0
 12 17  1  0  0  0  0
 12 13  2  0  0  0  0
 13 14  1  0  0  0  0
 13 18  1  0  0  0  0
 14 15  1  0  0  0  0
 16 19  1  0  0  0  0
 16 14  2  0  0  0  0
 20 24  1  0  0  0  0
 21 22  1  0  0  0  0
 21 20  2  0  0  0  0
 22 23  1  0  0  0  0
 23 24  2  0  0  0  0
 23 27  1  0  0  0  0
 25 21  1  0  0  0  0
 26 22  1  0  0  0  0
 27 28  1  0  0  0  0
 28 32  1  0  0  0  0
 29 28  1  0  0  0  0
 30 31  1  0  0  0  0
 30 28  1  0  0  0  0
 32 33  1  0  0  0  0
M  END
>  <minimizedAffinity>
-5.41802597

$$$$

 OpenBabel03272502443D

 33 35  0  0  0  0  0  0  0  0999 V2000
   36.7060   29.6930   30.6300 C   0  0  0  0  0  0  0  0  0  0  0  0
   36.6840   28.3080   30.5120 C   0  0  0  0  0  0  0  0  0  0  0  0
   36.1060   27.6010   31.5860 C   0  0  0  0  0  0  0  0  0  0  0  0
   35.6170   28.2930   32.6470 N   0  0  0  0  0  0  0  0  0  0  0  0
   35.6680   29.6490   32.7020 C   0  0  0  0  0  0  0  0  0  0  0  0
   36.2130   30.3270   31.6900 N   0  0  0  0  0  0  0  0  0  0  0  0
   37.1560   30.1990   29.7850 H   0  0  0  0  0  0  0  0  0  0  0  0
   37.0580   27.7150   29.6950 H   0  0  0  0  0  0  0  0  0  0  0  0
   32.7190   29.9820   32.6730 Cl  0  0  0  0  0  0  0  0  0  0  0  0
   33.7450   30.5260   33.9500 C   0  0  0  0  0  0  0  0  0  0  0  0
   35.1210   30.3240   33.8750 C   0  0  0  0  0  0  0  0  0  0  0  0
   35.9590   30.7410   34.8640 C   0  0  0  0  0  0  0  0  0  0  0  0
   35.4560   31.3850   35.9900 C   0  0  0  0  0  0  0  0  0  0  0  0
   34.1070   31.6020   36.1020 C   0  0  0  0  0  0  0  0  0  0  0  0
   33.3540   32.4020   37.4680 Cl  0  0  0  0  0  0  0  0  0  0  0  0
   33.2880   31.1650   35.0760 C   0  0  0  0  0  0  0  0  0  0  0  0
   37.0270   30.6050   34.8470 H   0  0  0  0  0  0  0  0  0  0  0  0
   36.1050   31.7230   36.7870 H   0  0  0  0  0  0  0  0  0  0  0  0
   32.2190   31.3300   35.1500 H   0  0  0  0  0  0  0  0  0  0  0  0
   36.0280   26.1440   31.5730 C   0  0  0  0  0  0  0  0  0  0  0  0
   35.0760   25.4330   30.8380 C   0  0  0  0  0  0  0  0  0  0  0  0
   35.2400   24.0950   31.0160 N   0  0  0  0  0  0  0  0  0  0  0  0
   36.2940   23.9720   31.8610 C   0  0  0  0  0  0  0  0  0  0  0  0
   36.7410   25.1930   32.1750 N   0  0  0  0  0  0  0  0  0  0  0  0
   34.2980   25.8650   30.2020 H   0  0  0  0  0  0  0  0  0  0  0  0
   34.6560   23.3460   30.5760 H   0  0  0  0  0  0  0  0  0  0  0  0
   36.8480   22.6720   32.3480 C   0  0  0  0  0  2  0  0  0  0  0  0
   35.9160   21.5760   32.1850 N   0  0  0  0  0  4  0  0  0  0  0  0
   34.9830   21.8670   31.8450 H   0  0  0  0  0  0  0  0  0  0  0  0
   36.4450   20.5880   31.2320 C   0  0  0  0  0  2  0  0  0  0  0  0
   35.6630   19.9330   30.8520 H   0  0  0  0  0  0  0  0  0  0  0  0
   35.8400   20.8640   33.4640 C   0  0  0  0  0  2  0  0  0  0  0  0
   36.8880   20.4840   33.6190 H   0  0  0  0  0  0  0  0  0  0  0  0
  1  6  1  0  0  0  0
  2  1  2  0  0  0  0
  2  3  1  0  0  0  0
  3  4  2  0  0  0  0
  4  5  1  0  0  0  0
  5 11  1  0  0  0  0
  6  5  2  0  0  0  0
  7  1  1  0  0  0  0
  8  2  1  0  0  0  0
  9 10  1  0  0  0  0
 10 16  1  0  0  0  0
 11 10  2  0  0  0  0
 11 12  1  0  0  0  0
 12 13  2  0  0  0  0
 13 14  1  0  0  0  0
 13 18  1  0  0  0  0
 14 15  1  0  0  0  0
 16 19  1  0  0  0  0
 16 14  2  0  0  0  0
 17 12  1  0  0  0  0
 20  3  1  0  0  0  0
 20 24  1  0  0  0  0
 21 22  1  0  0  0  0
 21 20  2  0  0  0  0
 22 23  1  0  0  0  0
 23 24  2  0  0  0  0
 23 27  1  0  0  0  0
 25 21  1  0  0  0  0
 26 22  1  0  0  0  0
 28 27  1  0  0  0  0
 28 32  1  0  0  0  0
 29 28  1  0  0  0  0
 30 28  1  0  0  0  0
 31 30  1  0  0  0  0
 32 33  1  0  0  0  0
M  END
>  <minimizedAffinity>
-5.3465004

$$$$

 OpenBabel03272502443D

 33 35  0  0  0  0  0  0  0  0999 V2000
   36.4860   28.9490   31.5870 C   0  0  0  0  0  0  0  0  0  0  0  0
   37.3670   28.0520   32.1800 C   0  0  0  0  0  0  0  0  0  0  0  0
   37.1340   27.7560   33.5380 C   0  0  0  0  0  0  0  0  0  0  0  0
   36.0910   28.3480   34.1750 N   0  0  0  0  0  0  0  0  0  0  0  0
   35.2640   29.2180   33.5390 C   0  0  0  0  0  0  0  0  0  0  0  0
   35.4770   29.5050   32.2530 N   0  0  0  0  0  0  0  0  0  0  0  0
   36.6980   29.1500   30.5440 H   0  0  0  0  0  0  0  0  0  0  0  0
   38.2060   27.5580   31.7190 H   0  0  0  0  0  0  0  0  0  0  0  0
   36.0980   31.1890   35.5950 Cl  0  0  0  0  0  0  0  0  0  0  0  0
   34.4580   30.7520   35.2770 C   0  0  0  0  0  0  0  0  0  0  0  0
   34.1640   29.8160   34.2890 C   0  0  0  0  0  0  0  0  0  0  0  0
   32.8820   29.4470   34.0120 C   0  0  0  0  0  0  0  0  0  0  0  0
   31.8210   30.0070   34.7160 C   0  0  0  0  0  0  0  0  0  0  0  0
   32.0690   30.9330   35.6970 C   0  0  0  0  0  0  0  0  0  0  0  0
   30.8190   31.7060   36.6520 Cl  0  0  0  0  0  0  0  0  0  0  0  0
   33.3830   31.2800   35.9490 C   0  0  0  0  0  0  0  0  0  0  0  0
   32.6100   28.7290   33.2580 H   0  0  0  0  0  0  0  0  0  0  0  0
   30.7950   29.7280   34.5110 H   0  0  0  0  0  0  0  0  0  0  0  0
   33.5960   32.0110   36.7210 H   0  0  0  0  0  0  0  0  0  0  0  0
   37.9940   26.8280   34.2650 C   0  0  0  0  0  0  0  0  0  0  0  0
   39.3700   27.0140   34.4170 C   0  0  0  0  0  0  0  0  0  0  0  0
   39.9110   25.9960   35.1370 N   0  0  0  0  0  0  0  0  0  0  0  0
   38.8730   25.1750   35.4330 C   0  0  0  0  0  0  0  0  0  0  0  0
   37.7530   25.6860   34.9090 N   0  0  0  0  0  0  0  0  0  0  0  0
   39.9540   27.8500   34.0240 H   0  0  0  0  0  0  0  0  0  0  0  0
   40.9220   25.8990   35.3900 H   0  0  0  0  0  0  0  0  0  0  0  0
   38.9850   23.9090   36.2210 C   0  0  0  0  0  2  0  0  0  0  0  0
   37.9760   23.8090   37.2560 N   0  0  0  0  0  4  0  0  0  0  0  0
   37.3890   24.6550   37.3500 H   0  0  0  0  0  0  0  0  0  0  0  0
   37.0780   22.6740   36.9900 C   0  0  0  0  0  2  0  0  0  0  0  0
   36.1470   22.7550   37.5490 H   0  0  0  0  0  0  0  0  0  0  0  0
   38.6570   23.4660   38.5070 C   0  0  0  0  0  2  0  0  0  0  0  0
   39.1180   22.4610   38.2930 H   0  0  0  0  0  0  0  0  0  0  0  0
  1  2  2  0  0  0  0
  1  6  1  0  0  0  0
  2  3  1  0  0  0  0
  3  4  2  0  0  0  0
  3 20  1  0  0  0  0
  5  4  1  0  0  0  0
  5 11  1  0  0  0  0
  6  5  2  0  0  0  0
  7  1  1  0  0  0  0
  8  2  1  0  0  0  0
 10  9  1  0  0  0  0
 10 16  1  0  0  0  0
 11 10  2  0  0  0  0
 12 11  1  0  0  0  0
 12 13  2  0  0  0  0
 13 14  1  0  0  0  0
 14 16  2  0  0  0  0
 14 15  1  0  0  0  0
 16 19  1  0  0  0  0
 17 12  1  0  0  0  0
 18 13  1  0  0  0  0
 20 21  2  0  0  0  0
 20 24  1  0  0  0  0
 21 22  1  0  0  0  0
 22 26  1  0  0  0  0
 22 23  1  0  0  0  0
 23 27  1  0  0  0  0
 24 23  2  0  0  0  0
 25 21  1  0  0  0  0
 27 28  1  0  0  0  0
 28 29  1  0  0  0  0
 28 32  1  0  0  0  0
 30 28  1  0  0  0  0
 30 31  1  0  0  0  0
 33 32  1  0  0  0  0
M  END
>  <minimizedAffinity>
-5.15720606

$$$$

 OpenBabel03272502443D

 33 35  0  0  0  0  0  0  0  0999 V2000
   36.3000   29.2350   30.8470 C   0  0  0  0  0  0  0  0  0  0  0  0
   36.7060   27.9150   31.0120 C   0  0  0  0  0  0  0  0  0  0  0  0
   36.5500   27.3740   32.3040 C   0  0  0  0  0  0  0  0  0  0  0  0
   36.0260   28.1500   33.2880 N   0  0  0  0  0  0  0  0  0  0  0  0
   35.6480   29.4350   33.0620 C   0  0  0  0  0  0  0  0  0  0  0  0
   35.7920   29.9560   31.8420 N   0  0  0  0  0  0  0  0  0  0  0  0
   36.4350   29.6140   29.8410 H   0  0  0  0  0  0  0  0  0  0  0  0
   37.1260   27.2610   30.2670 H   0  0  0  0  0  0  0  0  0  0  0  0
   32.6860   29.3860   33.2390 Cl  0  0  0  0  0  0  0  0  0  0  0  0
   33.7100   30.2440   34.3330 C   0  0  0  0  0  0  0  0  0  0  0  0
   35.0920   30.2070   34.1690 C   0  0  0  0  0  0  0  0  0  0  0  0
   35.9300   30.8720   35.0130 C   0  0  0  0  0  0  0  0  0  0  0  0
   35.4190   31.6120   36.0740 C   0  0  0  0  0  0  0  0  0  0  0  0
   34.0630   31.6730   36.2690 C   0  0  0  0  0  0  0  0  0  0  0  0
   33.3000   32.5720   37.5660 Cl  0  0  0  0  0  0  0  0  0  0  0  0
   33.2460   30.9850   35.3910 C   0  0  0  0  0  0  0  0  0  0  0  0
   37.0030   30.8710   34.9230 H   0  0  0  0  0  0  0  0  0  0  0  0
   36.0670   32.1480   36.7560 H   0  0  0  0  0  0  0  0  0  0  0  0
   32.1720   31.0240   35.5320 H   0  0  0  0  0  0  0  0  0  0  0  0
   36.9410   25.9990   32.5970 C   0  0  0  0  0  0  0  0  0  0  0  0
   36.5270   24.9050   31.8330 C   0  0  0  0  0  0  0  0  0  0  0  0
   37.0430   23.7520   32.3380 N   0  0  0  0  0  0  0  0  0  0  0  0
   37.7770   24.1280   33.4140 C   0  0  0  0  0  0  0  0  0  0  0  0
   37.7020   25.4570   33.5470 N   0  0  0  0  0  0  0  0  0  0  0  0
   35.8820   24.9400   30.9520 H   0  0  0  0  0  0  0  0  0  0  0  0
   36.8840   22.7930   31.9490 H   0  0  0  0  0  0  0  0  0  0  0  0
   38.5400   23.1900   34.2950 C   0  0  0  0  0  2  0  0  0  0  0  0
   38.6870   23.6960   35.6450 N   0  0  0  0  0  4  0  0  0  0  0  0
   38.4650   24.7010   35.7420 H   0  0  0  0  0  0  0  0  0  0  0  0
   37.8110   22.9580   36.5680 C   0  0  0  0  0  2  0  0  0  0  0  0
   37.6590   23.4990   37.5010 H   0  0  0  0  0  0  0  0  0  0  0  0
   40.0490   23.3850   36.0880 C   0  0  0  0  0  2  0  0  0  0  0  0
   40.0850   22.2600   36.0710 H   0  0  0  0  0  0  0  0  0  0  0  0
  1  2  2  0  0  0  0
  1  6  1  0  0  0  0
  2  3  1  0  0  0  0
  3 20  1  0  0  0  0
  3  4  2  0  0  0  0
  5  4  1  0  0  0  0
  5 11  1  0  0  0  0
  6  5  2  0  0  0  0
  7  1  1  0  0  0  0
  8  2  1  0  0  0  0
  9 10  1  0  0  0  0
 10 16  1  0  0  0  0
 11 10  2  0  0  0  0
 11 12  1  0  0  0  0
 12 13  2  0  0  0  0
 13 14  1  0  0  0  0
 13 18  1  0  0  0  0
 14 15  1  0  0  0  0
 16 19  1  0  0  0  0
 16 14  2  0  0  0  0
 17 12  1  0  0  0  0
 20 24  1  0  0  0  0
 21 22  1  0  0  0  0
 21 20  2  0  0  0  0
 22 23  1  0  0  0  0
 23 24  2  0  0  0  0
 23 27  1  0  0  0  0
 25 21  1  0  0  0  0
 26 22  1  0  0  0  0
 27 28  1  0  0  0  0
 28 29  1  0  0  0  0
 28 32  1  0  0  0  0
 28 30  1  0  0  0  0
 30 31  1  0  0  0  0
 33 32  1  0  0  0  0
M  END
>  <minimizedAffinity>
-5.14491367

$$$$

 OpenBabel03272502443D

 33 35  0  0  0  0  0  0  0  0999 V2000
   36.9750   27.2560   32.9800 C   0  0  0  0  0  0  0  0  0  0  0  0
   37.2780   27.6910   31.6950 C   0  0  0  0  0  0  0  0  0  0  0  0
   36.8870   29.0050   31.3730 C   0  0  0  0  0  0  0  0  0  0  0  0
   36.2520   29.7550   32.3110 N   0  0  0  0  0  0  0  0  0  0  0  0
   35.9830   29.2720   33.5520 C   0  0  0  0  0  0  0  0  0  0  0  0
   36.3500   28.0280   33.8650 N   0  0  0  0  0  0  0  0  0  0  0  0
   37.2920   26.2420   33.1880 H   0  0  0  0  0  0  0  0  0  0  0  0
   37.7780   27.1370   30.9170 H   0  0  0  0  0  0  0  0  0  0  0  0
   33.0230   29.2310   33.3500 Cl  0  0  0  0  0  0  0  0  0  0  0  0
   33.9050   30.1830   34.4880 C   0  0  0  0  0  0  0  0  0  0  0  0
   35.2970   30.1360   34.5080 C   0  0  0  0  0  0  0  0  0  0  0  0
   36.0250   30.8740   35.3910 C   0  0  0  0  0  0  0  0  0  0  0  0
   35.3880   31.7030   36.3090 C   0  0  0  0  0  0  0  0  0  0  0  0
   34.0190   31.7770   36.3220 C   0  0  0  0  0  0  0  0  0  0  0  0
   33.1030   32.7830   37.4280 Cl  0  0  0  0  0  0  0  0  0  0  0  0
   33.3160   31.0130   35.4090 C   0  0  0  0  0  0  0  0  0  0  0  0
   37.1000   30.8680   35.4410 H   0  0  0  0  0  0  0  0  0  0  0  0
   35.9480   32.2970   37.0200 H   0  0  0  0  0  0  0  0  0  0  0  0
   32.2330   31.0600   35.4070 H   0  0  0  0  0  0  0  0  0  0  0  0
   37.1530   29.5700   30.0550 C   0  0  0  0  0  0  0  0  0  0  0  0
   37.7490   28.8490   29.0170 C   0  0  0  0  0  0  0  0  0  0  0  0
   37.8720   29.6260   27.9080 N   0  0  0  0  0  0  0  0  0  0  0  0
   37.3550   30.8300   28.2540 C   0  0  0  0  0  0  0  0  0  0  0  0
   36.9370   30.7730   29.5240 N   0  0  0  0  0  0  0  0  0  0  0  0
   38.0780   27.8070   29.0620 H   0  0  0  0  0  0  0  0  0  0  0  0
   38.2870   29.3230   26.9950 H   0  0  0  0  0  0  0  0  0  0  0  0
   37.2730   32.0160   27.3470 C   0  0  0  0  0  2  0  0  0  0  0  0
   35.9140   32.4820   27.1650 N   0  0  0  0  0  4  0  0  0  0  0  0
   35.1970   31.8420   27.5470 H   0  0  0  0  0  0  0  0  0  0  0  0
   35.7280   33.7910   27.8120 C   0  0  0  0  0  2  0  0  0  0  0  0
   34.6750   34.0190   27.9680 H   0  0  0  0  0  0  0  0  0  0  0  0
   35.7200   32.7370   25.7350 C   0  0  0  0  0  2  0  0  0  0  0  0
   36.4620   33.5530   25.5070 H   0  0  0  0  0  0  0  0  0  0  0  0
  1  7  1  0  0  0  0
  1  6  1  0  0  0  0
  2  1  2  0  0  0  0
  3  2  1  0  0  0  0
  3  4  2  0  0  0  0
  4  5  1  0  0  0  0
  5  6  2  0  0  0  0
  5 11  1  0  0  0  0
  8  2  1  0  0  0  0
  9 10  1  0  0  0  0
 10 11  2  0  0  0  0
 10 16  1  0  0  0  0
 11 12  1  0  0  0  0
 12 17  1  0  0  0  0
 12 13  2  0  0  0  0
 13 14  1  0  0  0  0
 13 18  1  0  0  0  0
 14 15  1  0  0  0  0
 16 14  2  0  0  0  0
 19 16  1  0  0  0  0
 20  3  1  0  0  0  0
 21 25  1  0  0  0  0
 21 20  2  0  0  0  0
 22 23  1  0  0  0  0
 22 21  1  0  0  0  0
 23 24  2  0  0  0  0
 24 20  1  0  0  0  0
 26 22  1  0  0  0  0
 27 23  1  0  0  0  0
 28 27  1  0  0  0  0
 28 29  1  0  0  0  0
 28 30  1  0  0  0  0
 30 31  1  0  0  0  0
 32 28  1  0  0  0  0
 33 32  1  0  0  0  0
M  END
>  <minimizedAffinity>
-5.1307683

$$$$

 OpenBabel03272502443D

 33 35  0  0  0  0  0  0  0  0999 V2000
   35.1470   24.9120   30.8640 C   0  0  0  0  0  0  0  0  0  0  0  0
   36.0100   24.1020   31.5930 C   0  0  0  0  0  0  0  0  0  0  0  0
   36.8970   24.7630   32.4660 C   0  0  0  0  0  0  0  0  0  0  0  0
   36.8600   26.1190   32.5440 N   0  0  0  0  0  0  0  0  0  0  0  0
   35.9910   26.8550   31.8040 C   0  0  0  0  0  0  0  0  0  0  0  0
   35.1480   26.2380   30.9750 N   0  0  0  0  0  0  0  0  0  0  0  0
   34.4820   24.3660   30.2070 H   0  0  0  0  0  0  0  0  0  0  0  0
   36.0780   23.0270   31.5660 H   0  0  0  0  0  0  0  0  0  0  0  0
   37.3610   28.2870   29.5950 Cl  0  0  0  0  0  0  0  0  0  0  0  0
   36.6320   29.0670   30.9530 C   0  0  0  0  0  0  0  0  0  0  0  0
   36.0100   28.3090   31.9420 C   0  0  0  0  0  0  0  0  0  0  0  0
   35.4260   28.8900   33.0260 C   0  0  0  0  0  0  0  0  0  0  0  0
   35.4340   30.2730   33.1740 C   0  0  0  0  0  0  0  0  0  0  0  0
   36.0350   31.0540   32.2210 C   0  0  0  0  0  0  0  0  0  0  0  0
   36.1120   32.8040   32.2950 Cl  0  0  0  0  0  0  0  0  0  0  0  0
   36.6180   30.4270   31.1350 C   0  0  0  0  0  0  0  0  0  0  0  0
   34.9350   28.3430   33.8130 H   0  0  0  0  0  0  0  0  0  0  0  0
   34.9750   30.7550   34.0280 H   0  0  0  0  0  0  0  0  0  0  0  0
   37.0980   31.0310   30.3730 H   0  0  0  0  0  0  0  0  0  0  0  0
   37.8480   24.0170   33.2820 C   0  0  0  0  0  0  0  0  0  0  0  0
   38.1920   22.6850   33.0350 C   0  0  0  0  0  0  0  0  0  0  0  0
   39.0970   22.2500   33.9520 N   0  0  0  0  0  0  0  0  0  0  0  0
   39.3170   23.3090   34.7690 C   0  0  0  0  0  0  0  0  0  0  0  0
   38.5700   24.3390   34.3550 N   0  0  0  0  0  0  0  0  0  0  0  0
   37.8040   22.0590   32.2280 H   0  0  0  0  0  0  0  0  0  0  0  0
   39.5150   21.2910   33.9880 H   0  0  0  0  0  0  0  0  0  0  0  0
   40.2490   23.3050   35.9390 C   0  0  0  0  0  2  0  0  0  0  0  0
   39.8720   22.3320   36.9440 N   0  0  0  0  0  4  0  0  0  0  0  0
   39.2520   21.5830   36.5900 H   0  0  0  0  0  0  0  0  0  0  0  0
   41.0670   21.6870   37.5100 C   0  0  0  0  0  2  0  0  0  0  0  0
   40.8220   20.7570   38.0200 H   0  0  0  0  0  0  0  0  0  0  0  0
   39.2710   23.0620   38.0640 C   0  0  0  0  0  2  0  0  0  0  0  0
   40.1070   23.7210   38.4310 H   0  0  0  0  0  0  0  0  0  0  0  0
  1  6  2  0  0  0  0
  1  2  1  0  0  0  0
  2  3  2  0  0  0  0
  3  4  1  0  0  0  0
  3 20  1  0  0  0  0
  5 11  1  0  0  0  0
  5  4  2  0  0  0  0
  6  5  1  0  0  0  0
  7  1  1  0  0  0  0
  8  2  1  0  0  0  0
  9 10  1  0  0  0  0
 10 16  2  0  0  0  0
 10 11  1  0  0  0  0
 11 12  2  0  0  0  0
 12 13  1  0  0  0  0
 12 17  1  0  0  0  0
 13 18  1  0  0  0  0
 14 15  1  0  0  0  0
 14 13  2  0  0  0  0
 16 14  1  0  0  0  0
 19 16  1  0  0  0  0
 20 24  1  0  0  0  0
 21 20  2  0  0  0  0
 21 22  1  0  0  0  0
 22 26  1  0  0  0  0
 22 23  1  0  0  0  0
 23 27  1  0  0  0  0
 24 23  2  0  0  0  0
 25 21  1  0  0  0  0
 27 28  1  0  0  0  0
 28 30  1  0  0  0  0
 28 32  1  0  0  0  0
 29 28  1  0  0  0  0
 30 31  1  0  0  0  0
 32 33  1  0  0  0  0
M  END
>  <minimizedAffinity>
-5.10878468

$$$$

 OpenBabel03272502443D

 33 35  0  0  0  0  0  0  0  0999 V2000
   35.5090   25.8370   31.1710 C   0  0  0  0  0  0  0  0  0  0  0  0
   36.4060   25.0420   31.8760 C   0  0  0  0  0  0  0  0  0  0  0  0
   37.1890   25.6980   32.8470 C   0  0  0  0  0  0  0  0  0  0  0  0
   37.0280   27.0330   33.0350 N   0  0  0  0  0  0  0  0  0  0  0  0
   36.1320   27.7550   32.3130 C   0  0  0  0  0  0  0  0  0  0  0  0
   35.3870   27.1430   31.3910 N   0  0  0  0  0  0  0  0  0  0  0  0
   34.9260   25.2960   30.4350 H   0  0  0  0  0  0  0  0  0  0  0  0
   36.5710   23.9840   31.7630 H   0  0  0  0  0  0  0  0  0  0  0  0
   36.9530   29.4900   30.0490 Cl  0  0  0  0  0  0  0  0  0  0  0  0
   36.3780   30.0810   31.5670 C   0  0  0  0  0  0  0  0  0  0  0  0
   36.0150   29.1880   32.5710 C   0  0  0  0  0  0  0  0  0  0  0  0
   35.5580   29.6180   33.7800 C   0  0  0  0  0  0  0  0  0  0  0  0
   35.4390   30.9790   34.0430 C   0  0  0  0  0  0  0  0  0  0  0  0
   35.7860   31.8910   33.0800 C   0  0  0  0  0  0  0  0  0  0  0  0
   35.6830   33.6280   33.2920 Cl  0  0  0  0  0  0  0  0  0  0  0  0
   36.2470   31.4140   31.8660 C   0  0  0  0  0  0  0  0  0  0  0  0
   35.2660   28.9640   34.5830 H   0  0  0  0  0  0  0  0  0  0  0  0
   35.0780   31.3420   34.9970 H   0  0  0  0  0  0  0  0  0  0  0  0
   36.5250   32.1220   31.0940 H   0  0  0  0  0  0  0  0  0  0  0  0
   38.1640   24.9660   33.6480 C   0  0  0  0  0  0  0  0  0  0  0  0
   39.3320   25.5440   34.1510 C   0  0  0  0  0  0  0  0  0  0  0  0
   40.0490   24.6300   34.8580 N   0  0  0  0  0  0  0  0  0  0  0  0
   39.3280   23.4830   34.7950 C   0  0  0  0  0  0  0  0  0  0  0  0
   38.2210   23.7060   34.0770 N   0  0  0  0  0  0  0  0  0  0  0  0
   39.6500   26.5810   34.0120 H   0  0  0  0  0  0  0  0  0  0  0  0
   40.9620   24.8090   35.3360 H   0  0  0  0  0  0  0  0  0  0  0  0
   39.7240   22.1900   35.4340 C   0  0  0  0  0  2  0  0  0  0  0  0
   39.3310   22.1170   36.8260 N   0  0  0  0  0  4  0  0  0  0  0  0
   39.0390   21.1720   37.1290 H   0  0  0  0  0  0  0  0  0  0  0  0
   40.4420   22.5370   37.6960 C   0  0  0  0  0  2  0  0  0  0  0  0
   40.3000   22.2030   38.7230 H   0  0  0  0  0  0  0  0  0  0  0  0
   38.2820   23.1170   37.0440 C   0  0  0  0  0  2  0  0  0  0  0  0
   38.7950   24.0940   36.8190 H   0  0  0  0  0  0  0  0  0  0  0  0
  1  6  2  0  0  0  0
  1  2  1  0  0  0  0
  2  3  2  0  0  0  0
  3  4  1  0  0  0  0
  3 20  1  0  0  0  0
  5 11  1  0  0  0  0
  5  4  2  0  0  0  0
  6  5  1  0  0  0  0
  7  1  1  0  0  0  0
  8  2  1  0  0  0  0
  9 10  1  0  0  0  0
 10 16  2  0  0  0  0
 10 11  1  0  0  0  0
 11 12  2  0  0  0  0
 12 13  1  0  0  0  0
 12 17  1  0  0  0  0
 13 18  1  0  0  0  0
 14 15  1  0  0  0  0
 14 13  2  0  0  0  0
 16 14  1  0  0  0  0
 19 16  1  0  0  0  0
 20 24  1  0  0  0  0
 20 21  2  0  0  0  0
 21 22  1  0  0  0  0
 22 26  1  0  0  0  0
 23 22  1  0  0  0  0
 23 27  1  0  0  0  0
 24 23  2  0  0  0  0
 25 21  1  0  0  0  0
 27 28  1  0  0  0  0
 28 32  1  0  0  0  0
 28 29  1  0  0  0  0
 28 30  1  0  0  0  0
 30 31  1  0  0  0  0
 33 32  1  0  0  0  0
M  END
>  <minimizedAffinity>
-5.10873938

$$$$

 OpenBabel03272502443D

 33 35  0  0  0  0  0  0  0  0999 V2000
   39.5150   26.0130   32.0000 C   0  0  0  0  0  0  0  0  0  0  0  0
   38.8200   27.1780   32.3060 C   0  0  0  0  0  0  0  0  0  0  0  0
   37.4530   27.0260   32.6100 C   0  0  0  0  0  0  0  0  0  0  0  0
   36.9040   25.7830   32.5880 N   0  0  0  0  0  0  0  0  0  0  0  0
   37.6380   24.6820   32.2810 C   0  0  0  0  0  0  0  0  0  0  0  0
   38.9330   24.8160   31.9910 N   0  0  0  0  0  0  0  0  0  0  0  0
   40.5610   26.1720   31.7720 H   0  0  0  0  0  0  0  0  0  0  0  0
   39.2080   28.1820   32.3360 H   0  0  0  0  0  0  0  0  0  0  0  0
   38.2090   23.0040   34.6610 Cl  0  0  0  0  0  0  0  0  0  0  0  0
   37.1880   22.5210   33.3550 C   0  0  0  0  0  0  0  0  0  0  0  0
   36.9790   23.3790   32.2780 C   0  0  0  0  0  0  0  0  0  0  0  0
   36.1810   23.0310   31.2310 C   0  0  0  0  0  0  0  0  0  0  0  0
   35.5450   21.7940   31.2120 C   0  0  0  0  0  0  0  0  0  0  0  0
   35.7250   20.9210   32.2530 C   0  0  0  0  0  0  0  0  0  0  0  0
   34.9800   19.3370   32.3430 Cl  0  0  0  0  0  0  0  0  0  0  0  0
   36.5430   21.3110   33.2980 C   0  0  0  0  0  0  0  0  0  0  0  0
   35.9920   23.6620   30.3800 H   0  0  0  0  0  0  0  0  0  0  0  0
   34.9060   21.4980   30.3890 H   0  0  0  0  0  0  0  0  0  0  0  0
   36.6960   20.6320   34.1290 H   0  0  0  0  0  0  0  0  0  0  0  0
   36.6230   28.1770   32.9470 C   0  0  0  0  0  0  0  0  0  0  0  0
   36.1480   29.0850   31.9970 C   0  0  0  0  0  0  0  0  0  0  0  0
   35.4040   30.0530   32.5950 N   0  0  0  0  0  0  0  0  0  0  0  0
   35.4150   29.7490   33.9170 C   0  0  0  0  0  0  0  0  0  0  0  0
   36.1400   28.6390   34.1000 N   0  0  0  0  0  0  0  0  0  0  0  0
   36.3330   29.0470   30.9200 H   0  0  0  0  0  0  0  0  0  0  0  0
   34.9360   30.8520   32.1060 H   0  0  0  0  0  0  0  0  0  0  0  0
   34.7220   30.5410   34.9800 C   0  0  0  0  0  2  0  0  0  0  0  0
   35.6420   31.3380   35.7660 N   0  0  0  0  0  4  0  0  0  0  0  0
   36.4660   30.8120   36.1050 H   0  0  0  0  0  0  0  0  0  0  0  0
   36.1370   32.4770   34.9770 C   0  0  0  0  0  2  0  0  0  0  0  0
   37.0430   32.9030   35.4070 H   0  0  0  0  0  0  0  0  0  0  0  0
   34.8800   31.9410   36.8620 C   0  0  0  0  0  2  0  0  0  0  0  0
   34.1270   32.5920   36.3370 H   0  0  0  0  0  0  0  0  0  0  0  0
  1  2  1  0  0  0  0
  2  8  1  0  0  0  0
  2  3  2  0  0  0  0
  3 20  1  0  0  0  0
  4  3  1  0  0  0  0
  5  4  2  0  0  0  0
  6  1  2  0  0  0  0
  6  5  1  0  0  0  0
  7  1  1  0  0  0  0
 10  9  1  0  0  0  0
 11  5  1  0  0  0  0
 11 10  2  0  0  0  0
 12 11  1  0  0  0  0
 13 12  2  0  0  0  0
 13 14  1  0  0  0  0
 14 15  1  0  0  0  0
 14 16  2  0  0  0  0
 16 10  1  0  0  0  0
 16 19  1  0  0  0  0
 17 12  1  0  0  0  0
 18 13  1  0  0  0  0
 20 24  1  0  0  0  0
 21 22  1  0  0  0  0
 21 20  2  0  0  0  0
 22 23  1  0  0  0  0
 23 24  2  0  0  0  0
 23 27  1  0  0  0  0
 25 21  1  0  0  0  0
 26 22  1  0  0  0  0
 27 28  1  0  0  0  0
 28 29  1  0  0  0  0
 28 32  1  0  0  0  0
 30 31  1  0  0  0  0
 30 28  1  0  0  0  0
 33 32  1  0  0  0  0
M  END
>  <minimizedAffinity>
-5.09449768

$$$$
