
     RDKit          3D

 42 44  0  0  0  0  0  0  0  0999 V2000
   38.4181   31.1180   48.2187 C   0  0  2  0  0  0  0  0  0  0  0  0
   38.6734   32.5630   48.1019 C   0  0  0  0  0  0  0  0  0  0  0  0
   38.0540   31.7131   46.9585 C   0  0  1  0  0  0  0  0  0  0  0  0
   35.0934   30.2241   49.5551 C   0  0  0  0  0  0  0  0  0  0  0  0
   35.4207   29.5421   50.7574 C   0  0  0  0  0  0  0  0  0  0  0  0
   36.8198   29.4106   51.0929 C   0  0  0  0  0  0  0  0  0  0  0  0
   37.7493   29.9384   50.2538 N   0  0  0  0  0  0  0  0  0  0  0  0
   37.3624   30.5801   49.1161 C   0  0  0  0  0  0  0  0  0  0  0  0
   36.0432   30.7387   48.7407 N   0  0  0  0  0  0  0  0  0  0  0  0
   38.4117   31.8432   44.5215 C   0  0  0  0  0  0  0  0  0  0  0  0
   37.2945   32.4265   44.3980 O   0  0  0  0  0  0  0  0  0  0  0  0
   38.9433   31.5650   45.8207 N   0  0  0  0  0  0  0  0  0  0  0  0
   39.1832   31.4416   43.3336 C   0  0  0  0  0  0  0  0  0  0  0  0
   40.1485   30.4823   43.4832 C   0  0  0  0  0  0  0  0  0  0  0  0
   40.8745   30.1025   42.3629 C   0  0  0  0  0  0  0  0  0  0  0  0
   40.5808   30.7105   41.1770 C   0  0  0  0  0  0  0  0  0  0  0  0
   39.5946   31.6956   41.0071 C   0  0  0  0  0  0  0  0  0  0  0  0
   38.9406   32.0045   42.1356 N   0  0  0  0  0  0  0  0  0  0  0  0
   39.3686   30.5247   48.3164 H   0  0  0  0  0  0  0  0  0  0  0  0
   37.9834   33.2804   48.6016 H   0  0  0  0  0  0  0  0  0  0  0  0
   39.6803   32.9512   47.9516 H   0  0  0  0  0  0  0  0  0  0  0  0
   36.9876   31.9413   46.7449 H   0  0  0  0  0  0  0  0  0  0  0  0
   34.0323   30.2911   49.3574 H   0  0  0  0  0  0  0  0  0  0  0  0
   34.6561   29.1436   51.3855 H   0  0  0  0  0  0  0  0  0  0  0  0
   37.0769   28.8931   52.0065 H   0  0  0  0  0  0  0  0  0  0  0  0
   39.9143   31.2706   45.9636 H   0  0  0  0  0  0  0  0  0  0  0  0
   40.3715   30.0098   44.4234 H   0  0  0  0  0  0  0  0  0  0  0  0
   41.6485   29.3484   42.4281 H   0  0  0  0  0  0  0  0  0  0  0  0
   41.1522   30.4064   40.3140 H   0  0  0  0  0  0  0  0  0  0  0  0
   39.3402   32.3036   39.6876 C   0  0  0  0  0  0  0  0  0  0  0  0
   38.5625   33.5078   39.7280 N   0  0  0  0  0  4  0  0  0  0  0  0
   38.0584   33.8158   41.0556 C   0  0  0  0  0  0  0  0  0  0  0  0
   37.7099   32.8980   41.5399 H   0  0  0  0  0  0  0  0  0  0  0  0
   39.3295   34.6475   39.2033 C   0  0  0  0  0  0  0  0  0  0  0  0
   38.9184   35.0130   38.2589 H   0  0  0  0  0  0  0  0  0  0  0  0
   40.3461   32.5504   39.2380 H   0  0  0  0  0  0  0  0  0  0  0  0
   38.9023   31.5576   38.9921 H   0  0  0  0  0  0  0  0  0  0  0  0
   37.7296   33.3807   39.1099 H   0  0  0  0  0  0  0  0  0  0  0  0
   37.2088   34.5084   41.0081 H   0  0  0  0  0  0  0  0  0  0  0  0
   38.9214   34.2299   41.6275 H   0  0  0  0  0  0  0  0  0  0  0  0
   40.3881   34.2979   39.0982 H   0  0  0  0  0  0  0  0  0  0  0  0
   39.2829   35.4866   39.9469 H   0  0  0  0  0  0  0  0  0  0  0  0
  1  8  1  0
  2  1  1  0
  3  2  1  0
  3  1  1  0
  4  5  2  0
  5  6  1  0
  7  6  2  0
  8  7  1  0
  9  8  2  0
  9  4  1  0
 10 12  1  0
 11 10  2  0
 12  3  1  0
 13 14  2  0
 13 10  1  0
 15 14  1  0
 16 15  2  0
 17 16  1  0
 17 18  2  0
 18 13  1  0
  1 19  1  6
  2 20  1  0
  2 21  1  0
  3 22  1  6
  4 23  1  0
  5 24  1  0
  6 25  1  0
 12 26  1  0
 14 27  1  0
 15 28  1  0
 16 29  1  0
 30 31  1  0
 31 32  1  0
 32 33  1  0
 31 34  1  0
 34 35  1  0
 30 36  1  0
 30 37  1  0
 31 38  1  0
 32 39  1  0
 32 40  1  0
 34 41  1  0
 34 42  1  0
 17 30  1  0
M  ISO  8  19  13  20  13  21  13  22  13  23  14  24  14  25  14  27  14
M  CHG  1  31   1
M  ISO  4  28  14  29  14  33   8  35   8
M  END
>  <DihAtoms>  (1) 
15,16,29,30

>  <DihDeg>  (1) 
-89.99068408793529

$$$$
