
 OpenBabel03272505113D

 37 39  0  0  0  0  0  0  0  0999 V2000
   36.4060   30.8450   45.6340 Cl  0  0  0  0  0  0  0  0  0  0  0  0
   36.6580   30.7130   47.3610 C   0  0  0  0  0  0  0  0  0  0  0  0
   37.9120   31.0590   47.8440 C   0  0  0  0  0  0  0  0  0  0  0  0
   38.1270   30.9610   49.2040 C   0  0  0  0  0  0  0  0  0  0  0  0
   37.1180   30.5340   50.0290 C   0  0  0  0  0  0  0  0  0  0  0  0
   35.8800   30.2030   49.4710 C   0  0  0  0  0  0  0  0  0  0  0  0
   35.5930   30.2760   48.1260 C   0  0  0  0  0  0  0  0  0  0  0  0
   39.1050   31.2360   49.5490 H   0  0  0  0  0  0  0  0  0  0  0  0
   37.2790   30.4540   51.0920 H   0  0  0  0  0  0  0  0  0  0  0  0
   35.1050   29.8690   50.1540 H   0  0  0  0  0  0  0  0  0  0  0  0
   40.1850   33.3030   46.0900 C   0  0  0  0  0  0  0  0  0  0  0  0
   40.9100   32.4720   45.2240 C   0  0  0  0  0  0  0  0  0  0  0  0
   40.5980   31.0980   45.2530 C   0  0  0  0  0  0  0  0  0  0  0  0
   39.6280   30.6710   46.1060 N   0  0  0  0  0  0  0  0  0  0  0  0
   38.9670   31.5150   46.9130 C   0  0  0  0  0  0  0  0  0  0  0  0
   39.2500   32.8120   46.8970 N   0  0  0  0  0  0  0  0  0  0  0  0
   40.4310   34.3390   46.0540 H   0  0  0  0  0  0  0  0  0  0  0  0
   41.6860   32.7950   44.5340 H   0  0  0  0  0  0  0  0  0  0  0  0
   41.1020   30.3730   44.6220 H   0  0  0  0  0  0  0  0  0  0  0  0
   34.0360   29.8620   47.4190 S   0  0  0  0  0  0  0  0  0  0  0  0
   33.9620   29.0170   44.3800 Cl  0  0  0  0  0  0  0  0  0  0  0  0
   33.9000   27.8210   45.6660 C   0  0  0  0  0  0  0  0  0  0  0  0
   33.9250   28.1090   47.0300 C   0  0  0  0  0  0  0  0  0  0  0  0
   33.8700   27.0870   47.9490 C   0  0  0  0  0  0  0  0  0  0  0  0
   33.7880   25.7820   47.5280 C   0  0  0  0  0  0  0  0  0  0  0  0
   33.7600   25.4420   46.1900 C   0  0  0  0  0  0  0  0  0  0  0  0
   33.8180   26.4900   45.2960 C   0  0  0  0  0  0  0  0  0  0  0  0
   33.8930   27.3870   49.0020 H   0  0  0  0  0  0  0  0  0  0  0  0
   33.7500   25.0590   48.3380 H   0  0  0  0  0  0  0  0  0  0  0  0
   33.6970   24.4040   45.9150 H   0  0  0  0  0  0  0  0  0  0  0  0
   33.7920   26.1320   43.8390 C   0  0  0  0  0  0  0  0  0  0  0  0
   35.0910   25.7260   43.3490 N   0  0  0  0  0  0  0  0  0  0  0  0
   35.8270   25.7590   44.0890 H   0  0  0  0  0  0  0  0  0  0  0  0
   35.4120   26.5590   42.2090 C   0  0  0  0  0  0  0  0  0  0  0  0
   35.9870   27.4360   42.5710 H   0  0  0  0  0  0  0  0  0  0  0  0
   34.9500   24.3540   42.8480 C   0  0  0  0  0  0  0  0  0  0  0  0
   35.7770   24.0630   42.1740 H   0  0  0  0  0  0  0  0  0  0  0  0
  1  2  1  0  0  0  0
  2  3  2  0  0  0  0
  2  7  1  0  0  0  0
  3  4  1  0  0  0  0
  4  8  1  0  0  0  0
  4  5  2  0  0  0  0
  5  9  1  0  0  0  0
  6  5  1  0  0  0  0
  6 10  1  0  0  0  0
  7  6  2  0  0  0  0
 11 16  1  0  0  0  0
 12 13  1  0  0  0  0
 12 11  2  0  0  0  0
 13 14  2  0  0  0  0
 14 15  1  0  0  0  0
 15  3  1  0  0  0  0
 16 15  2  0  0  0  0
 17 11  1  0  0  0  0
 18 12  1  0  0  0  0
 19 13  1  0  0  0  0
 20  7  1  0  0  0  0
 21 22  1  0  0  0  0
 22 23  1  0  0  0  0
 23 20  1  0  0  0  0
 23 24  2  0  0  0  0
 24 28  1  0  0  0  0
 25 24  1  0  0  0  0
 25 29  1  0  0  0  0
 26 25  2  0  0  0  0
 27 22  2  0  0  0  0
 27 26  1  0  0  0  0
 30 26  1  0  0  0  0
 31 27  1  0  0  0  0
 32 31  1  0  0  0  0
 32 33  1  0  0  0  0
 34 35  1  0  0  0  0
 34 32  1  0  0  0  0
 36 32  1  0  0  0  0
 37 36  1  0  0  0  0
M  END
>  <minimizedAffinity>
-5.43028402

>  <minimizedRMSD>
0.593608201

$$$$
