REMARK  Name = 
REMARK  6 active torsions:
REMARK  status: ('A' for Active; 'I' for Inactive)
REMARK    1  A    between atoms: C_1  and  C_7
REMARK    2  A    between atoms: C_1  and  C_9
REMARK    3  A    between atoms: C_14  and  C_22
REMARK    4  A    between atoms: C_22  and  N_23
REMARK    5  A    between atoms: N_23  and  C_24
REMARK    6  A    between atoms: N_23  and  C_26
REMARK                            x       y       z     vdW  Elec       q    Type
REMARK                         _______ _______ _______ _____ _____    ______ ____
ROOT
ATOM      1  C   UNL     1      36.083  29.588  49.136  0.00  0.00    +0.000 A 
ATOM      2  C   UNL     1      36.269  29.715  50.513  0.00  0.00    +0.000 A 
ATOM      3  C   UNL     1      37.337  30.432  51.058  0.00  0.00    +0.000 A 
ATOM      4  C   UNL     1      38.242  31.035  50.167  0.00  0.00    +0.000 A 
ATOM      5  C   UNL     1      38.038  30.896  48.815  0.00  0.00    +0.000 A 
ATOM      6  C   UNL     1      36.979  30.188  48.270  0.00  0.00    +0.000 A 
ATOM      7  H   UNL     1      35.550  29.233  51.187  0.00  0.00    +0.000 HD
ATOM      8  H   UNL     1      37.404  30.476  52.118  0.00  0.00    +0.000 HD
ATOM      9  H   UNL     1      39.024  31.557  50.696  0.00  0.00    +0.000 HD
ATOM     10  H   UNL     1      38.840  31.416  48.310  0.00  0.00    +0.000 HD
ENDROOT
BRANCH   1  11
ATOM     11  C   UNL     1      34.946  28.797  48.686  0.00  0.00    +0.000 C 
ATOM     12  O   UNL     1      34.602  27.855  49.489  0.00  0.00    +0.000 OA
BRANCH  11  17
ATOM     13  C   UNL     1      33.006  30.589  46.210  0.00  0.00    +0.000 A 
ATOM     14  C   UNL     1      32.819  29.647  45.181  0.00  0.00    +0.000 A 
ATOM     15  C   UNL     1      33.360  28.372  45.345  0.00  0.00    +0.000 A 
ATOM     16  N   UNL     1      34.051  28.068  46.486  0.00  0.00    +0.000 NA
ATOM     17  C   UNL     1      34.208  28.996  47.445  0.00  0.00    +0.000 A 
ATOM     18  N   UNL     1      33.687  30.206  47.275  0.00  0.00    +0.000 NA
ATOM     19  H   UNL     1      32.569  31.550  46.024  0.00  0.00    +0.000 HD
ATOM     20  H   UNL     1      32.292  29.794  44.248  0.00  0.00    +0.000 HD
ATOM     21  H   UNL     1      33.282  27.560  44.626  0.00  0.00    +0.000 HD
ENDBRANCH  11  17
ENDBRANCH   1  11
BRANCH   6  22
ATOM     22  C   UNL     1      36.856  30.138  46.826  0.00  0.00    +0.000 C 
BRANCH  22  23
ATOM     23  N   UNL     1      38.019  29.529  46.153  0.00  0.00    +0.000 N 
ATOM     24  H   UNL     1      38.254  28.600  46.504  0.00  0.00    +0.000 HD
BRANCH  23  25
ATOM     25  C   UNL     1      37.514  29.309  44.779  0.00  0.00    +0.000 C 
ATOM     26  H   UNL     1      37.650  30.289  44.228  0.00  0.00    +0.000 HD
ENDBRANCH  23  25
BRANCH  23  27
ATOM     27  C   UNL     1      39.118  30.439  45.994  0.00  0.00    +0.000 C 
ATOM     28  H   UNL     1      40.074  29.849  46.147  0.00  0.00    +0.000 HD
ENDBRANCH  23  27
ENDBRANCH  22  23
ENDBRANCH   6  22
TORSDOF 6
