
 OpenBabel03272507223D

 41 44  0  0  1  0  0  0  0  0999 V2000
   34.8090   29.6980   48.6360 C   0  0  0  0  0  0  0  0  0  0  0  0
   34.7520   30.2600   49.8910 C   0  0  0  0  0  0  0  0  0  0  0  0
   35.7890   31.1510   50.1930 C   0  0  0  0  0  0  0  0  0  0  0  0
   36.7670   31.4150   49.2800 N   0  0  0  0  0  0  0  0  0  0  0  0
   36.7910   30.8420   48.0530 C   0  0  0  0  0  0  0  0  0  0  0  0
   35.7930   29.9750   47.7400 N   0  0  0  0  0  0  0  0  0  0  0  0
   34.0110   30.0840   50.6320 H   0  0  0  0  0  0  0  0  0  0  0  0
   35.8230   31.6410   51.1620 H   0  0  0  0  0  0  0  0  0  0  0  0
   38.5580   32.3030   47.2430 C   0  0  0  0  0  0  0  0  0  0  0  0
   37.8490   31.1320   47.0850 C   0  0  0  0  0  0  0  0  0  0  0  0
   38.1530   30.2800   46.0320 C   0  0  0  0  0  0  0  0  0  0  0  0
   39.1480   30.5450   45.1110 C   0  0  0  0  0  0  0  0  0  0  0  0
   39.6350   29.9110   44.0320 N   0  0  0  0  0  0  0  0  0  0  0  0
   40.6220   30.6950   43.5520 C   0  0  0  0  0  0  0  0  0  0  0  0
   40.7540   31.7920   44.3090 N   0  0  0  0  0  0  0  0  0  0  0  0
   39.8450   31.7380   45.3030 C   0  0  0  0  0  0  0  0  0  0  0  0
   39.5650   32.6080   46.3440 C   0  0  0  0  0  0  0  0  0  0  0  0
   38.3670   33.0000   48.0410 H   0  0  0  0  0  0  0  0  0  0  0  0
   37.5810   29.3650   45.9280 H   0  0  0  0  0  0  0  0  0  0  0  0
   39.2560   28.9890   43.7030 H   0  0  0  0  0  0  0  0  0  0  0  0
   41.2130   30.4560   42.6800 H   0  0  0  0  0  0  0  0  0  0  0  0
   40.1530   33.5210   46.4270 H   0  0  0  0  0  0  0  0  0  0  0  0
   33.7160   28.7180   48.2720 C   0  0  1  0  0  0  0  0  0  0  0  0
   32.8340   28.9620   47.1540 C   0  0  2  0  0  0  0  0  0  0  0  0
   34.0220   27.9890   46.9670 C   0  0  2  0  0  0  0  0  0  0  0  0
   33.3280   28.1660   49.1580 H   0  0  0  0  0  0  0  0  0  0  0  0
   31.9760   28.2320   46.9350 H   0  0  0  0  0  0  0  0  0  0  0  0
   34.8010   28.3800   46.3170 H   0  0  0  0  0  0  0  0  0  0  0  0
   32.9570   30.1090   46.4470 O   0  0  0  0  0  0  0  0  0  0  0  0
   32.2880   30.7740   45.5120 C   0  0  0  0  0  0  0  0  0  0  0  0
   31.7430   30.0500   44.6210 O   0  0  0  0  0  0  0  0  0  0  0  0
   32.2820   32.1410   45.6390 N   0  0  0  0  0  0  0  0  0  0  0  0
   31.5740   32.7690   46.0870 H   0  0  0  0  0  0  0  0  0  0  0  0
   33.0290   32.7860   45.2870 H   0  0  0  0  0  0  0  0  0  0  0  0
   33.8500   26.5180   47.0790 C   0  0  0  0  0  2  0  0  0  0  0  0
   33.8190   25.8070   45.8410 N   0  0  0  0  0  4  0  0  0  0  0  0
   32.8560   25.4360   45.6720 H   0  0  0  0  0  0  0  0  0  0  0  0
   34.2030   26.5550   44.6800 C   0  0  0  0  0  2  0  0  0  0  0  0
   34.3040   25.8110   43.8500 H   0  0  0  0  0  0  0  0  0  0  0  0
   34.6720   24.6360   45.9310 C   0  0  0  0  0  2  0  0  0  0  0  0
   35.6250   24.7940   45.3500 H   0  0  0  0  0  0  0  0  0  0  0  0
  1  2  1  0  0  0  0
  2  3  2  0  0  0  0
  2  7  1  0  0  0  0
  3  8  1  0  0  0  0
  4  3  1  0  0  0  0
  5  4  2  0  0  0  0
  6  5  1  0  0  0  0
  6  1  2  0  0  0  0
  9 18  1  0  0  0  0
 10  9  1  0  0  0  0
 10  5  1  0  0  0  0
 11 10  2  0  0  0  0
 12 16  2  0  0  0  0
 12 11  1  0  0  0  0
 13 12  1  0  0  0  0
 14 13  1  0  0  0  0
 14 15  2  0  0  0  0
 15 16  1  0  0  0  0
 16 17  1  0  0  0  0
 17 22  1  0  0  0  0
 17  9  2  0  0  0  0
 19 11  1  0  0  0  0
 20 13  1  0  0  0  0
 21 14  1  0  0  0  0
 23  1  1  0  0  0  0
 23 26  1  1  0  0  0
 24 27  1  1  0  0  0
 24 23  1  0  0  0  0
 25 28  1  6  0  0  0
 25 35  1  0  0  0  0
 25 24  1  0  0  0  0
 25 23  1  0  0  0  0
 29 24  1  0  0  0  0
 30 32  1  0  0  0  0
 30 29  1  0  0  0  0
 31 30  2  0  0  0  0
 32 33  1  0  0  0  0
 34 32  1  0  0  0  0
 36 40  1  0  0  0  0
 36 35  1  0  0  0  0
 37 36  1  0  0  0  0
 38 36  1  0  0  0  0
 39 38  1  0  0  0  0
 41 40  1  0  0  0  0
M  END
>  <minimizedAffinity>
-5.46585035

>  <minimizedRMSD>
2.77696323

$$$$
