REMARK  Name = 
REMARK  9 active torsions:
REMARK  status: ('A' for Active; 'I' for Inactive)
REMARK    1  A    between atoms: C_1  and  O_6
REMARK    2  A    between atoms: C_2  and  S_7
REMARK    3  A    between atoms: C_5  and  O_14
REMARK    4  A    between atoms: S_7  and  C_12
REMARK    5  A    between atoms: O_14  and  C_17
REMARK    6  A    between atoms: C_21  and  C_34
REMARK    7  A    between atoms: C_34  and  N_35
REMARK    8  A    between atoms: N_35  and  C_36
REMARK    9  A    between atoms: N_35  and  C_38
REMARK                            x       y       z     vdW  Elec       q    Type
REMARK                         _______ _______ _______ _____ _____    ______ ____
ROOT
ATOM      1  C   UNL     1      32.166  28.528  47.434  0.00  0.00    +0.000 C 
ATOM      2  C   UNL     1      33.411  28.369  48.254  0.00  0.00    +0.000 C 
ATOM      3  O   UNL     1      33.800  27.054  48.169  0.00  0.00    +0.000 OA
ATOM      4  C   UNL     1      33.106  26.439  47.131  0.00  0.00    +0.000 C 
ATOM      5  C   UNL     1      32.505  27.526  46.277  0.00  0.00    +0.000 C 
ATOM      6  H   UNL     1      31.254  28.168  47.890  0.00  0.00    +0.000 HD
ATOM      7  H   UNL     1      33.245  28.707  49.298  0.00  0.00    +0.000 HD
ATOM      8  H   UNL     1      33.920  25.978  46.480  0.00  0.00    +0.000 HD
ATOM      9  H   UNL     1      32.440  25.682  47.503  0.00  0.00    +0.000 HD
ATOM     10  H   UNL     1      33.213  28.076  45.659  0.00  0.00    +0.000 HD
ENDROOT
BRANCH   1  11
ATOM     11  O   UNL     1      32.091  29.829  46.906  0.00  0.00    +0.000 OA
ATOM     12  H   UNL     1      31.129  30.057  46.792  0.00  0.00    +0.000 HD
ENDBRANCH   1  11
BRANCH   2  13
ATOM     13  S   UNL     1      34.724  29.400  47.501  0.00  0.00    +0.000 S 
BRANCH  13  18
ATOM     14  C   UNL     1      37.126  29.308  50.637  0.00  0.00    +0.000 A 
ATOM     15  C   UNL     1      37.633  30.584  50.752  0.00  0.00    +0.000 A 
ATOM     16  C   UNL     1      37.218  31.533  49.815  0.00  0.00    +0.000 A 
ATOM     17  N   UNL     1      36.346  31.154  48.853  0.00  0.00    +0.000 NA
ATOM     18  C   UNL     1      35.869  29.892  48.771  0.00  0.00    +0.000 A 
ATOM     19  N   UNL     1      36.257  28.950  49.669  0.00  0.00    +0.000 NA
ATOM     20  H   UNL     1      37.492  28.595  51.401  0.00  0.00    +0.000 HD
ATOM     21  H   UNL     1      38.330  30.951  51.488  0.00  0.00    +0.000 HD
ATOM     22  H   UNL     1      37.503  32.580  49.742  0.00  0.00    +0.000 HD
ENDBRANCH  13  18
ENDBRANCH   2  13
BRANCH   5  23
ATOM     23  O   UNL     1      31.364  27.056  45.688  0.00  0.00    +0.000 OA
BRANCH  23  26
ATOM     24 CL   UNL     1      29.877  29.129  44.224  0.00  0.00    +0.000 Cl
ATOM     25  C   UNL     1      29.341  28.120  45.542  0.00  0.00    +0.000 A 
ATOM     26  C   UNL     1      30.125  27.173  46.158  0.00  0.00    +0.000 A 
ATOM     27  C   UNL     1      29.564  26.428  47.193  0.00  0.00    +0.000 A 
ATOM     28  C   UNL     1      28.260  26.634  47.589  0.00  0.00    +0.000 A 
ATOM     29  C   UNL     1      27.462  27.578  46.978  0.00  0.00    +0.000 A 
ATOM     30  C   UNL     1      28.026  28.325  45.937  0.00  0.00    +0.000 A 
ATOM     31  H   UNL     1      30.119  25.669  47.717  0.00  0.00    +0.000 HD
ATOM     32  H   UNL     1      27.854  26.041  48.395  0.00  0.00    +0.000 HD
ATOM     33  H   UNL     1      26.465  27.703  47.327  0.00  0.00    +0.000 HD
BRANCH  30  34
ATOM     34  C   UNL     1      27.098  29.312  45.329  0.00  0.00    +0.000 C 
BRANCH  34  35
ATOM     35  N   UNL     1      27.277  30.668  45.705  0.00  0.00    +0.000 N 
ATOM     36  H   UNL     1      27.951  30.855  46.481  0.00  0.00    +0.000 HD
BRANCH  35  37
ATOM     37  C   UNL     1      27.663  31.500  44.593  0.00  0.00    +0.000 C 
ATOM     38  H   UNL     1      27.913  32.540  44.913  0.00  0.00    +0.000 HD
ENDBRANCH  35  37
BRANCH  35  39
ATOM     39  C   UNL     1      25.929  31.142  46.087  0.00  0.00    +0.000 C 
ATOM     40  H   UNL     1      25.976  32.219  46.173  0.00  0.00    +0.000 HD
ENDBRANCH  35  39
ENDBRANCH  34  35
ENDBRANCH  30  34
ENDBRANCH  23  26
ENDBRANCH   5  23
TORSDOF 9
