
 OpenBabel03272507183D

 28 29  0  0  1  0  0  0  0  0999 V2000
   37.8490   31.4960   49.3550 C   0  0  0  0  0  0  0  0  0  0  0  0
   38.2430   32.8080   49.5740 C   0  0  0  0  0  0  0  0  0  0  0  0
   38.9820   33.3730   48.5140 C   0  0  0  0  0  0  0  0  0  0  0  0
   39.2630   32.6490   47.3810 N   0  0  0  0  0  0  0  0  0  0  0  0
   38.8520   31.3690   47.2210 C   0  0  0  0  0  0  0  0  0  0  0  0
   38.1300   30.7860   48.2360 N   0  0  0  0  0  0  0  0  0  0  0  0
   38.0100   33.3420   50.4620 H   0  0  0  0  0  0  0  0  0  0  0  0
   39.3170   34.3930   48.6260 H   0  0  0  0  0  0  0  0  0  0  0  0
   37.0380   30.8670   50.4460 C   0  0  1  0  0  0  0  0  0  0  0  0
   36.0290   29.8470   50.1700 C   0  0  2  0  0  0  0  0  0  0  0  0
   37.3730   29.3750   50.6370 C   0  0  0  0  0  0  0  0  0  0  0  0
   37.0000   31.4550   51.3960 H   0  0  0  0  0  0  0  0  0  0  0  0
   35.1460   29.9160   50.8630 H   0  0  0  0  0  0  0  0  0  0  0  0
   38.0560   28.8820   49.9470 H   0  0  0  0  0  0  0  0  0  0  0  0
   37.3530   29.0320   51.7060 H   0  0  0  0  0  0  0  0  0  0  0  0
   35.6740   29.6500   48.8420 O   0  0  0  0  0  0  0  0  0  0  0  0
   34.5210   29.1690   48.3150 C   0  0  0  0  0  0  0  0  0  0  0  0
   34.4090   28.8930   47.1020 O   0  0  0  0  0  0  0  0  0  0  0  0
   33.5800   29.0680   49.3420 N   0  0  0  0  0  0  0  0  0  0  0  0
   33.5210   28.3600   50.0880 H   0  0  0  0  0  0  0  0  0  0  0  0
   32.7440   29.6630   49.5880 H   0  0  0  0  0  0  0  0  0  0  0  0
   39.1680   30.6050   45.9880 C   0  0  0  0  0  2  0  0  0  0  0  0
   38.8890   31.3090   44.7840 N   0  0  0  0  0  4  0  0  0  0  0  0
   38.5720   30.6130   44.0710 H   0  0  0  0  0  0  0  0  0  0  0  0
   37.7890   32.2480   44.8990 C   0  0  0  0  0  2  0  0  0  0  0  0
   36.8130   31.7350   44.6720 H   0  0  0  0  0  0  0  0  0  0  0  0
   40.0770   31.9330   44.2460 C   0  0  0  0  0  2  0  0  0  0  0  0
   39.7350   32.6280   43.4420 H   0  0  0  0  0  0  0  0  0  0  0  0
  1  2  1  0  0  0  0
  1  9  1  0  0  0  0
  2  7  1  0  0  0  0
  3  8  1  0  0  0  0
  3  2  2  0  0  0  0
  4  3  1  0  0  0  0
  5  4  2  0  0  0  0
  5  6  1  0  0  0  0
  6  1  2  0  0  0  0
  9 11  1  0  0  0  0
  9 12  1  1  0  0  0
 10  9  1  0  0  0  0
 10 11  1  0  0  0  0
 10 13  1  1  0  0  0
 11 15  1  0  0  0  0
 14 11  1  0  0  0  0
 16 10  1  0  0  0  0
 17 16  1  0  0  0  0
 17 19  1  0  0  0  0
 18 17  2  0  0  0  0
 19 21  1  0  0  0  0
 19 20  1  0  0  0  0
 22  5  1  0  0  0  0
 23 25  1  0  0  0  0
 23 22  1  0  0  0  0
 24 23  1  0  0  0  0
 26 25  1  0  0  0  0
 27 23  1  0  0  0  0
 28 27  1  0  0  0  0
M  END
>  <minimizedAffinity>
-4.99162197

>  <minimizedRMSD>
1.45257163

$$$$
