
 OpenBabel03262522443D

 33 35  0  0  1  0  0  0  0  0999 V2000
   38.9620   26.4520   34.9410 C   0  0  1  0  0  0  0  0  0  0  0  0
   38.1560   26.4150   36.1760 C   0  0  0  0  0  0  0  0  0  0  0  0
   38.3150   25.1530   35.4980 C   0  0  2  0  0  0  0  0  0  0  0  0
   40.0430   26.3280   34.8840 H   0  0  0  0  0  0  0  0  0  0  0  0
   37.1680   26.9800   36.0990 H   0  0  0  0  0  0  0  0  0  0  0  0
   38.7340   26.8290   37.0190 H   0  0  0  0  0  0  0  0  0  0  0  0
   37.6840   24.7940   34.6320 H   0  0  0  0  0  0  0  0  0  0  0  0
   37.8090   24.0780   38.3930 Cl  0  0  0  0  0  0  0  0  0  0  0  0
   39.1300   23.5600   37.3750 C   0  0  0  0  0  0  0  0  0  0  0  0
   39.1300   24.1120   36.1030 C   0  0  0  0  0  0  0  0  0  0  0  0
   40.1020   23.6690   35.2650 C   0  0  0  0  0  0  0  0  0  0  0  0
   41.0600   22.7050   35.6540 C   0  0  0  0  0  0  0  0  0  0  0  0
   41.0200   22.1780   36.9430 C   0  0  0  0  0  0  0  0  0  0  0  0
   42.1150   20.9460   37.5460 Cl  0  0  0  0  0  0  0  0  0  0  0  0
   40.0230   22.6330   37.8040 C   0  0  0  0  0  0  0  0  0  0  0  0
   40.2770   23.9690   34.2420 H   0  0  0  0  0  0  0  0  0  0  0  0
   41.8440   22.3310   35.0160 H   0  0  0  0  0  0  0  0  0  0  0  0
   39.9110   22.2880   38.8210 H   0  0  0  0  0  0  0  0  0  0  0  0
   39.0490   27.0310   32.4490 C   0  0  0  0  0  0  0  0  0  0  0  0
   38.3370   27.0290   33.7090 C   0  0  0  0  0  0  0  0  0  0  0  0
   37.0650   27.6190   33.7480 C   0  0  0  0  0  0  0  0  0  0  0  0
   36.5620   28.1650   32.5970 N   0  0  0  0  0  0  0  0  0  0  0  0
   37.2690   28.1400   31.4440 C   0  0  0  0  0  0  0  0  0  0  0  0
   38.4910   27.5850   31.3630 N   0  0  0  0  0  0  0  0  0  0  0  0
   40.0340   26.5600   32.4670 H   0  0  0  0  0  0  0  0  0  0  0  0
   36.5100   27.6340   34.6670 H   0  0  0  0  0  0  0  0  0  0  0  0
   36.6870   28.7450   30.2150 C   0  0  0  0  0  2  0  0  0  0  0  0
   37.4110   29.8900   29.7340 N   0  0  0  0  0  4  0  0  0  0  0  0
   38.3060   29.9220   30.2740 H   0  0  0  0  0  0  0  0  0  0  0  0
   36.7190   31.1410   30.0640 C   0  0  0  0  0  2  0  0  0  0  0  0
   37.1850   31.6670   30.9220 H   0  0  0  0  0  0  0  0  0  0  0  0
   37.7740   29.8280   28.3470 C   0  0  0  0  0  2  0  0  0  0  0  0
   38.8890   29.7820   28.1880 H   0  0  0  0  0  0  0  0  0  0  0  0
  1  4  1  1  0  0  0
  1  3  1  0  0  0  0
  1  2  1  0  0  0  0
  2  6  1  0  0  0  0
  3  7  1  6  0  0  0
  3 10  1  0  0  0  0
  3  2  1  0  0  0  0
  5  2  1  0  0  0  0
  9 15  1  0  0  0  0
  9  8  1  0  0  0  0
 10  9  2  0  0  0  0
 11 12  2  0  0  0  0
 11 10  1  0  0  0  0
 12 13  1  0  0  0  0
 13 14  1  0  0  0  0
 13 15  2  0  0  0  0
 15 18  1  0  0  0  0
 16 11  1  0  0  0  0
 17 12  1  0  0  0  0
 19 25  1  0  0  0  0
 19 20  1  0  0  0  0
 20 21  2  0  0  0  0
 20  1  1  0  0  0  0
 21 26  1  0  0  0  0
 22 21  1  0  0  0  0
 23 22  2  0  0  0  0
 24 23  1  0  0  0  0
 24 19  2  0  0  0  0
 27 23  1  0  0  0  0
 28 30  1  0  0  0  0
 28 27  1  0  0  0  0
 28 29  1  0  0  0  0
 30 31  1  0  0  0  0
 32 28  1  0  0  0  0
 33 32  1  0  0  0  0
M  END
>  <minimizedAffinity>
-5.25539541

$$$$

 OpenBabel03262522443D

 33 35  0  0  1  0  0  0  0  0999 V2000
   35.6710   29.8400   33.7730 C   0  0  1  0  0  0  0  0  0  0  0  0
   34.3670   30.2750   33.2360 C   0  0  0  0  0  0  0  0  0  0  0  0
   34.3830   29.9410   34.6380 C   0  0  2  0  0  0  0  0  0  0  0  0
   36.4390   30.4950   34.1810 H   0  0  0  0  0  0  0  0  0  0  0  0
   33.9110   29.5460   32.4850 H   0  0  0  0  0  0  0  0  0  0  0  0
   34.4640   31.2620   32.7550 H   0  0  0  0  0  0  0  0  0  0  0  0
   34.2810   28.8990   35.0620 H   0  0  0  0  0  0  0  0  0  0  0  0
   31.9880   30.0330   36.6500 Cl  0  0  0  0  0  0  0  0  0  0  0  0
   33.2190   31.2670   36.5390 C   0  0  0  0  0  0  0  0  0  0  0  0
   34.2270   30.9960   35.6270 C   0  0  0  0  0  0  0  0  0  0  0  0
   35.2380   31.9020   35.5750 C   0  0  0  0  0  0  0  0  0  0  0  0
   35.2700   33.0520   36.3940 C   0  0  0  0  0  0  0  0  0  0  0  0
   34.2340   33.2830   37.2970 C   0  0  0  0  0  0  0  0  0  0  0  0
   34.1660   34.6430   38.4040 Cl  0  0  0  0  0  0  0  0  0  0  0  0
   33.1970   32.3540   37.3500 C   0  0  0  0  0  0  0  0  0  0  0  0
   36.1110   31.8790   34.9390 H   0  0  0  0  0  0  0  0  0  0  0  0
   36.0550   33.7920   36.3800 H   0  0  0  0  0  0  0  0  0  0  0  0
   32.3490   32.4460   38.0130 H   0  0  0  0  0  0  0  0  0  0  0  0
   35.8820   27.8760   32.1450 C   0  0  0  0  0  0  0  0  0  0  0  0
   36.1420   28.4570   33.4440 C   0  0  0  0  0  0  0  0  0  0  0  0
   36.8130   27.6730   34.3950 C   0  0  0  0  0  0  0  0  0  0  0  0
   37.1850   26.4020   34.0480 N   0  0  0  0  0  0  0  0  0  0  0  0
   36.9180   25.9050   32.8190 C   0  0  0  0  0  0  0  0  0  0  0  0
   36.2780   26.6230   31.8790 N   0  0  0  0  0  0  0  0  0  0  0  0
   35.3590   28.5240   31.4380 H   0  0  0  0  0  0  0  0  0  0  0  0
   37.0220   28.0760   35.3680 H   0  0  0  0  0  0  0  0  0  0  0  0
   37.3390   24.5180   32.4820 C   0  0  0  0  0  2  0  0  0  0  0  0
   36.9670   24.1050   31.1570 N   0  0  0  0  0  4  0  0  0  0  0  0
   36.5090   24.9310   30.7070 H   0  0  0  0  0  0  0  0  0  0  0  0
   35.9320   23.0630   31.1900 C   0  0  0  0  0  2  0  0  0  0  0  0
   34.9250   23.4620   30.9520 H   0  0  0  0  0  0  0  0  0  0  0  0
   38.0680   23.7400   30.3130 C   0  0  0  0  0  2  0  0  0  0  0  0
   38.1940   24.4330   29.4330 H   0  0  0  0  0  0  0  0  0  0  0  0
  1  4  1  1  0  0  0
  1  3  1  0  0  0  0
  2  1  1  0  0  0  0
  2  3  1  0  0  0  0
  3  7  1  1  0  0  0
  3 10  1  0  0  0  0
  5  2  1  0  0  0  0
  6  2  1  0  0  0  0
  9  8  1  0  0  0  0
  9 15  1  0  0  0  0
 10  9  2  0  0  0  0
 11 10  1  0  0  0  0
 11 12  2  0  0  0  0
 12 13  1  0  0  0  0
 13 15  2  0  0  0  0
 13 14  1  0  0  0  0
 15 18  1  0  0  0  0
 16 11  1  0  0  0  0
 17 12  1  0  0  0  0
 19 20  1  0  0  0  0
 20  1  1  0  0  0  0
 20 21  2  0  0  0  0
 21 26  1  0  0  0  0
 22 21  1  0  0  0  0
 23 22  2  0  0  0  0
 24 19  2  0  0  0  0
 24 23  1  0  0  0  0
 25 19  1  0  0  0  0
 27 23  1  0  0  0  0
 28 30  1  0  0  0  0
 28 27  1  0  0  0  0
 29 28  1  0  0  0  0
 31 30  1  0  0  0  0
 32 28  1  0  0  0  0
 33 32  1  0  0  0  0
M  END
>  <minimizedAffinity>
-5.16067648

$$$$

 OpenBabel03262522443D

 33 35  0  0  1  0  0  0  0  0999 V2000
   36.6470   28.8040   33.8550 C   0  0  1  0  0  0  0  0  0  0  0  0
   35.3550   28.7470   33.1440 C   0  0  0  0  0  0  0  0  0  0  0  0
   35.2950   29.2060   34.5090 C   0  0  2  0  0  0  0  0  0  0  0  0
   37.3270   29.6540   33.8670 H   0  0  0  0  0  0  0  0  0  0  0  0
   35.0170   27.6880   32.8870 H   0  0  0  0  0  0  0  0  0  0  0  0
   35.4070   29.3360   32.2140 H   0  0  0  0  0  0  0  0  0  0  0  0
   35.2470   28.5390   35.4200 H   0  0  0  0  0  0  0  0  0  0  0  0
   32.7410   30.6190   33.3790 Cl  0  0  0  0  0  0  0  0  0  0  0  0
   33.9680   31.4260   34.3240 C   0  0  0  0  0  0  0  0  0  0  0  0
   34.9810   30.5990   34.7830 C   0  0  0  0  0  0  0  0  0  0  0  0
   35.9080   31.1860   35.5830 C   0  0  0  0  0  0  0  0  0  0  0  0
   35.8520   32.5540   35.9340 C   0  0  0  0  0  0  0  0  0  0  0  0
   34.8140   33.3470   35.4490 C   0  0  0  0  0  0  0  0  0  0  0  0
   34.5970   35.0440   35.8370 Cl  0  0  0  0  0  0  0  0  0  0  0  0
   33.8640   32.7450   34.6260 C   0  0  0  0  0  0  0  0  0  0  0  0
   36.7700   30.7230   36.0420 H   0  0  0  0  0  0  0  0  0  0  0  0
   36.5690   33.0520   36.5660 H   0  0  0  0  0  0  0  0  0  0  0  0
   33.0250   33.2750   34.2000 H   0  0  0  0  0  0  0  0  0  0  0  0
   38.0130   27.4590   35.5500 C   0  0  0  0  0  0  0  0  0  0  0  0
   37.2520   27.5170   34.3210 C   0  0  0  0  0  0  0  0  0  0  0  0
   37.1350   26.3420   33.5630 C   0  0  0  0  0  0  0  0  0  0  0  0
   37.7440   25.2040   34.0220 N   0  0  0  0  0  0  0  0  0  0  0  0
   38.4440   25.2040   35.1790 C   0  0  0  0  0  0  0  0  0  0  0  0
   38.5810   26.3070   35.9350 N   0  0  0  0  0  0  0  0  0  0  0  0
   38.0760   28.3970   36.1060 H   0  0  0  0  0  0  0  0  0  0  0  0
   36.5760   26.3510   32.6460 H   0  0  0  0  0  0  0  0  0  0  0  0
   39.0920   23.9470   35.6420 C   0  0  0  0  0  2  0  0  0  0  0  0
   38.8500   23.6460   37.0270 N   0  0  0  0  0  4  0  0  0  0  0  0
   38.9480   24.5480   37.5460 H   0  0  0  0  0  0  0  0  0  0  0  0
   39.8950   22.7720   37.5760 C   0  0  0  0  0  2  0  0  0  0  0  0
   40.6220   23.3280   38.2030 H   0  0  0  0  0  0  0  0  0  0  0  0
   37.5340   23.1520   37.3110 C   0  0  0  0  0  2  0  0  0  0  0  0
   36.9340   23.8520   37.9600 H   0  0  0  0  0  0  0  0  0  0  0  0
  1  4  1  6  0  0  0
  1 20  1  0  0  0  0
  1  3  1  0  0  0  0
  2  1  1  0  0  0  0
  2  3  1  0  0  0  0
  3 10  1  0  0  0  0
  3  7  1  1  0  0  0
  5  2  1  0  0  0  0
  6  2  1  0  0  0  0
  8  9  1  0  0  0  0
  9 15  2  0  0  0  0
  9 10  1  0  0  0  0
 10 11  2  0  0  0  0
 11 12  1  0  0  0  0
 11 16  1  0  0  0  0
 12 17  1  0  0  0  0
 13 14  1  0  0  0  0
 13 12  2  0  0  0  0
 15 13  1  0  0  0  0
 18 15  1  0  0  0  0
 19 24  1  0  0  0  0
 19 25  1  0  0  0  0
 20 19  2  0  0  0  0
 21 22  2  0  0  0  0
 21 20  1  0  0  0  0
 22 23  1  0  0  0  0
 23 27  1  0  0  0  0
 23 24  2  0  0  0  0
 26 21  1  0  0  0  0
 27 28  1  0  0  0  0
 28 32  1  0  0  0  0
 28 29  1  0  0  0  0
 28 30  1  0  0  0  0
 30 31  1  0  0  0  0
 32 33  1  0  0  0  0
M  END
>  <minimizedAffinity>
-4.89037991

$$$$

 OpenBabel03262522443D

 33 35  0  0  1  0  0  0  0  0999 V2000
   36.9270   28.0550   32.0930 C   0  0  1  0  0  0  0  0  0  0  0  0
   36.5630   28.9440   30.9730 C   0  0  0  0  0  0  0  0  0  0  0  0
   35.6980   29.0060   32.1240 C   0  0  2  0  0  0  0  0  0  0  0  0
   37.6050   28.3050   32.9070 H   0  0  0  0  0  0  0  0  0  0  0  0
   36.2210   28.3900   30.0360 H   0  0  0  0  0  0  0  0  0  0  0  0
   37.4160   29.5910   30.7090 H   0  0  0  0  0  0  0  0  0  0  0  0
   34.8390   28.3030   32.3330 H   0  0  0  0  0  0  0  0  0  0  0  0
   35.7240   31.8990   30.9320 Cl  0  0  0  0  0  0  0  0  0  0  0  0
   35.7880   31.5460   32.6410 C   0  0  0  0  0  0  0  0  0  0  0  0
   35.6960   30.1990   32.9560 C   0  0  0  0  0  0  0  0  0  0  0  0
   35.6670   29.9010   34.2810 C   0  0  0  0  0  0  0  0  0  0  0  0
   35.7260   30.8940   35.2840 C   0  0  0  0  0  0  0  0  0  0  0  0
   35.8180   32.2360   34.9200 C   0  0  0  0  0  0  0  0  0  0  0  0
   35.8530   33.5720   36.0560 Cl  0  0  0  0  0  0  0  0  0  0  0  0
   35.8490   32.5410   33.5610 C   0  0  0  0  0  0  0  0  0  0  0  0
   35.5990   28.9220   34.7340 H   0  0  0  0  0  0  0  0  0  0  0  0
   35.7050   30.6940   36.3440 H   0  0  0  0  0  0  0  0  0  0  0  0
   35.9200   33.5490   33.1790 H   0  0  0  0  0  0  0  0  0  0  0  0
   35.6330   26.1240   31.0200 C   0  0  0  0  0  0  0  0  0  0  0  0
   36.6320   26.5930   31.9570 C   0  0  0  0  0  0  0  0  0  0  0  0
   37.2820   25.6430   32.7570 C   0  0  0  0  0  0  0  0  0  0  0  0
   36.9410   24.3240   32.6140 N   0  0  0  0  0  0  0  0  0  0  0  0
   36.0000   23.9380   31.7230 C   0  0  0  0  0  0  0  0  0  0  0  0
   35.3540   24.8160   30.9360 N   0  0  0  0  0  0  0  0  0  0  0  0
   35.1550   26.9000   30.4180 H   0  0  0  0  0  0  0  0  0  0  0  0
   38.0280   25.9590   33.4620 H   0  0  0  0  0  0  0  0  0  0  0  0
   35.6580   22.4950   31.5990 C   0  0  0  0  0  2  0  0  0  0  0  0
   36.4460   21.6380   32.4420 N   0  0  0  0  0  4  0  0  0  0  0  0
   37.0420   22.2660   33.0280 H   0  0  0  0  0  0  0  0  0  0  0  0
   37.3920   20.8340   31.6580 C   0  0  0  0  0  2  0  0  0  0  0  0
   38.4270   21.2280   31.7140 H   0  0  0  0  0  0  0  0  0  0  0  0
   35.6850   20.8320   33.3530 C   0  0  0  0  0  2  0  0  0  0  0  0
   35.8730   21.0960   34.4330 H   0  0  0  0  0  0  0  0  0  0  0  0
  1  3  1  0  0  0  0
  1  4  1  1  0  0  0
  2  1  1  0  0  0  0
  2  3  1  0  0  0  0
  3  7  1  6  0  0  0
  3 10  1  0  0  0  0
  5  2  1  0  0  0  0
  6  2  1  0  0  0  0
  8  9  1  0  0  0  0
  9 10  2  0  0  0  0
  9 15  1  0  0  0  0
 10 11  1  0  0  0  0
 11 16  1  0  0  0  0
 11 12  2  0  0  0  0
 12 17  1  0  0  0  0
 13 12  1  0  0  0  0
 13 14  1  0  0  0  0
 15 13  2  0  0  0  0
 18 15  1  0  0  0  0
 19 20  1  0  0  0  0
 20  1  1  0  0  0  0
 20 21  2  0  0  0  0
 21 26  1  0  0  0  0
 22 21  1  0  0  0  0
 23 22  2  0  0  0  0
 24 19  2  0  0  0  0
 24 23  1  0  0  0  0
 25 19  1  0  0  0  0
 27 23  1  0  0  0  0
 27 28  1  0  0  0  0
 28 29  1  0  0  0  0
 28 32  1  0  0  0  0
 30 31  1  0  0  0  0
 30 28  1  0  0  0  0
 32 33  1  0  0  0  0
M  END
>  <minimizedAffinity>
-4.88933611

$$$$

 OpenBabel03262522443D

 33 35  0  0  1  0  0  0  0  0999 V2000
   38.5360   26.8240   34.9730 C   0  0  1  0  0  0  0  0  0  0  0  0
   38.5230   27.0330   36.4340 C   0  0  0  0  0  0  0  0  0  0  0  0
   38.0790   25.7370   35.9860 C   0  0  2  0  0  0  0  0  0  0  0  0
   39.3800   26.4520   34.3930 H   0  0  0  0  0  0  0  0  0  0  0  0
   37.7590   27.8050   36.7820 H   0  0  0  0  0  0  0  0  0  0  0  0
   39.5220   27.3430   36.7810 H   0  0  0  0  0  0  0  0  0  0  0  0
   37.0330   25.4910   35.6370 H   0  0  0  0  0  0  0  0  0  0  0  0
   37.7820   24.0130   38.5800 Cl  0  0  0  0  0  0  0  0  0  0  0  0
   38.9890   23.7280   37.3500 C   0  0  0  0  0  0  0  0  0  0  0  0
   38.9010   24.5670   36.2500 C   0  0  0  0  0  0  0  0  0  0  0  0
   39.7800   24.3190   35.2450 C   0  0  0  0  0  0  0  0  0  0  0  0
   40.7280   23.2730   35.3050 C   0  0  0  0  0  0  0  0  0  0  0  0
   40.7790   22.4550   36.4310 C   0  0  0  0  0  0  0  0  0  0  0  0
   41.8730   21.0960   36.6220 Cl  0  0  0  0  0  0  0  0  0  0  0  0
   39.8790   22.7110   37.4640 C   0  0  0  0  0  0  0  0  0  0  0  0
   39.8770   24.8510   34.3090 H   0  0  0  0  0  0  0  0  0  0  0  0
   41.4390   23.0480   34.5260 H   0  0  0  0  0  0  0  0  0  0  0  0
   39.8420   22.1350   38.3770 H   0  0  0  0  0  0  0  0  0  0  0  0
   36.6380   28.5210   34.7180 C   0  0  0  0  0  0  0  0  0  0  0  0
   37.4580   27.4680   34.1590 C   0  0  0  0  0  0  0  0  0  0  0  0
   37.1860   27.0460   32.8490 C   0  0  0  0  0  0  0  0  0  0  0  0
   36.1610   27.6480   32.1680 N   0  0  0  0  0  0  0  0  0  0  0  0
   35.4230   28.6290   32.7380 C   0  0  0  0  0  0  0  0  0  0  0  0
   35.6510   29.0630   33.9900 N   0  0  0  0  0  0  0  0  0  0  0  0
   36.8880   28.8170   35.7400 H   0  0  0  0  0  0  0  0  0  0  0  0
   37.7770   26.2680   32.4050 H   0  0  0  0  0  0  0  0  0  0  0  0
   34.3180   29.2560   31.9640 C   0  0  0  0  0  2  0  0  0  0  0  0
   33.3290   29.8990   32.7850 N   0  0  0  0  0  4  0  0  0  0  0  0
   33.7740   30.0540   33.7180 H   0  0  0  0  0  0  0  0  0  0  0  0
   32.1880   29.0130   33.0450 C   0  0  0  0  0  2  0  0  0  0  0  0
   32.2180   28.5760   34.0640 H   0  0  0  0  0  0  0  0  0  0  0  0
   32.9090   31.1890   32.3150 C   0  0  0  0  0  2  0  0  0  0  0  0
   33.1930   32.0240   33.0170 H   0  0  0  0  0  0  0  0  0  0  0  0
  1  4  1  6  0  0  0
  1  3  1  0  0  0  0
  1  2  1  0  0  0  0
  2  6  1  0  0  0  0
  2  5  1  0  0  0  0
  3  7  1  1  0  0  0
  3 10  1  0  0  0  0
  3  2  1  0  0  0  0
  9 15  1  0  0  0  0
  9  8  1  0  0  0  0
 10  9  2  0  0  0  0
 11 12  2  0  0  0  0
 11 10  1  0  0  0  0
 12 13  1  0  0  0  0
 13 14  1  0  0  0  0
 13 15  2  0  0  0  0
 15 18  1  0  0  0  0
 16 11  1  0  0  0  0
 17 12  1  0  0  0  0
 19 25  1  0  0  0  0
 20 19  1  0  0  0  0
 20  1  1  0  0  0  0
 21 20  2  0  0  0  0
 22 23  2  0  0  0  0
 22 21  1  0  0  0  0
 23 24  1  0  0  0  0
 24 19  2  0  0  0  0
 26 21  1  0  0  0  0
 27 23  1  0  0  0  0
 27 28  1  0  0  0  0
 28 30  1  0  0  0  0
 28 29  1  0  0  0  0
 30 31  1  0  0  0  0
 32 28  1  0  0  0  0
 32 33  1  0  0  0  0
M  END
>  <minimizedAffinity>
-4.88406038

$$$$

 OpenBabel03262522443D

 33 35  0  0  1  0  0  0  0  0999 V2000
   38.9040   26.2260   35.2810 C   0  0  1  0  0  0  0  0  0  0  0  0
   38.1240   25.6650   36.4010 C   0  0  0  0  0  0  0  0  0  0  0  0
   38.5880   24.7110   35.4250 C   0  0  2  0  0  0  0  0  0  0  0  0
   39.9830   26.3760   35.2710 H   0  0  0  0  0  0  0  0  0  0  0  0
   37.0290   25.9840   36.4050 H   0  0  0  0  0  0  0  0  0  0  0  0
   38.5800   25.9530   37.3620 H   0  0  0  0  0  0  0  0  0  0  0  0
   38.0680   24.4670   34.4520 H   0  0  0  0  0  0  0  0  0  0  0  0
   40.8480   23.8320   33.4470 Cl  0  0  0  0  0  0  0  0  0  0  0  0
   40.6520   23.1840   35.0560 C   0  0  0  0  0  0  0  0  0  0  0  0
   39.6270   23.7610   35.7900 C   0  0  0  0  0  0  0  0  0  0  0  0
   39.5000   23.3280   37.0710 C   0  0  0  0  0  0  0  0  0  0  0  0
   40.3540   22.3520   37.6320 C   0  0  0  0  0  0  0  0  0  0  0  0
   41.3710   21.8000   36.8550 C   0  0  0  0  0  0  0  0  0  0  0  0
   42.5280   20.6150   37.4330 Cl  0  0  0  0  0  0  0  0  0  0  0  0
   41.5000   22.2420   35.5400 C   0  0  0  0  0  0  0  0  0  0  0  0
   38.7740   23.6470   37.8050 H   0  0  0  0  0  0  0  0  0  0  0  0
   40.2830   21.9860   38.6430 H   0  0  0  0  0  0  0  0  0  0  0  0
   42.2540   21.8740   34.8600 H   0  0  0  0  0  0  0  0  0  0  0  0
   38.7120   27.0590   32.8680 C   0  0  0  0  0  0  0  0  0  0  0  0
   38.1650   26.9580   34.2040 C   0  0  0  0  0  0  0  0  0  0  0  0
   36.9460   27.6000   34.4670 C   0  0  0  0  0  0  0  0  0  0  0  0
   36.3360   28.2870   33.4520 N   0  0  0  0  0  0  0  0  0  0  0  0
   36.8890   28.3500   32.2190 C   0  0  0  0  0  0  0  0  0  0  0  0
   38.0560   27.7500   31.9250 N   0  0  0  0  0  0  0  0  0  0  0  0
   39.6620   26.5430   32.7110 H   0  0  0  0  0  0  0  0  0  0  0  0
   36.5130   27.5430   35.4490 H   0  0  0  0  0  0  0  0  0  0  0  0
   36.1950   29.1090   31.1430 C   0  0  0  0  0  2  0  0  0  0  0  0
   35.9740   30.4930   31.4600 N   0  0  0  0  0  4  0  0  0  0  0  0
   36.2030   30.6050   32.4740 H   0  0  0  0  0  0  0  0  0  0  0  0
   34.5540   30.8490   31.3470 C   0  0  0  0  0  2  0  0  0  0  0  0
   34.0580   30.9230   32.3360 H   0  0  0  0  0  0  0  0  0  0  0  0
   36.8150   31.4120   30.7480 C   0  0  0  0  0  2  0  0  0  0  0  0
   37.5230   31.9720   31.4240 H   0  0  0  0  0  0  0  0  0  0  0  0
  1  4  1  1  0  0  0
  1  3  1  0  0  0  0
  1  2  1  0  0  0  0
  2  5  1  0  0  0  0
  2  6  1  0  0  0  0
  3  7  1  6  0  0  0
  3 10  1  0  0  0  0
  3  2  1  0  0  0  0
  8  9  1  0  0  0  0
  9 15  2  0  0  0  0
  9 10  1  0  0  0  0
 10 11  2  0  0  0  0
 11 12  1  0  0  0  0
 11 16  1  0  0  0  0
 12 17  1  0  0  0  0
 13 14  1  0  0  0  0
 13 12  2  0  0  0  0
 15 13  1  0  0  0  0
 18 15  1  0  0  0  0
 19 20  1  0  0  0  0
 20 21  2  0  0  0  0
 20  1  1  0  0  0  0
 21 26  1  0  0  0  0
 22 21  1  0  0  0  0
 23 22  2  0  0  0  0
 24 23  1  0  0  0  0
 24 19  2  0  0  0  0
 25 19  1  0  0  0  0
 27 28  1  0  0  0  0
 27 23  1  0  0  0  0
 28 29  1  0  0  0  0
 30 28  1  0  0  0  0
 30 31  1  0  0  0  0
 32 33  1  0  0  0  0
 32 28  1  0  0  0  0
M  END
>  <minimizedAffinity>
-4.86985683

$$$$

 OpenBabel03262522443D

 33 35  0  0  1  0  0  0  0  0999 V2000
   37.2090   26.9330   32.0570 C   0  0  1  0  0  0  0  0  0  0  0  0
   38.3530   26.2700   32.7120 C   0  0  0  0  0  0  0  0  0  0  0  0
   37.0760   25.6260   32.8870 C   0  0  2  0  0  0  0  0  0  0  0  0
   36.8710   26.7560   31.0370 H   0  0  0  0  0  0  0  0  0  0  0  0
   38.8060   26.8720   33.5680 H   0  0  0  0  0  0  0  0  0  0  0  0
   39.1420   26.0580   31.9720 H   0  0  0  0  0  0  0  0  0  0  0  0
   36.3080   25.9000   33.6700 H   0  0  0  0  0  0  0  0  0  0  0  0
   34.6330   25.1490   30.9900 Cl  0  0  0  0  0  0  0  0  0  0  0  0
   35.7750   23.9080   31.4430 C   0  0  0  0  0  0  0  0  0  0  0  0
   36.8210   24.3490   32.2370 C   0  0  0  0  0  0  0  0  0  0  0  0
   37.7660   23.4220   32.5420 C   0  0  0  0  0  0  0  0  0  0  0  0
   37.6960   22.0880   32.0820 C   0  0  0  0  0  0  0  0  0  0  0  0
   36.6250   21.6900   31.2850 C   0  0  0  0  0  0  0  0  0  0  0  0
   36.4340   20.0820   30.6090 Cl  0  0  0  0  0  0  0  0  0  0  0  0
   35.6560   22.6410   30.9740 C   0  0  0  0  0  0  0  0  0  0  0  0
   38.6530   23.5580   33.1430 H   0  0  0  0  0  0  0  0  0  0  0  0
   38.4270   21.3260   32.3040 H   0  0  0  0  0  0  0  0  0  0  0  0
   34.7890   22.4300   30.3650 H   0  0  0  0  0  0  0  0  0  0  0  0
   36.4740   28.2610   34.1180 C   0  0  0  0  0  0  0  0  0  0  0  0
   36.6610   28.1770   32.6860 C   0  0  0  0  0  0  0  0  0  0  0  0
   36.2780   29.2780   31.9050 C   0  0  0  0  0  0  0  0  0  0  0  0
   35.7480   30.3720   32.5340 N   0  0  0  0  0  0  0  0  0  0  0  0
   35.5940   30.4010   33.8780 C   0  0  0  0  0  0  0  0  0  0  0  0
   35.9480   29.3680   34.6630 N   0  0  0  0  0  0  0  0  0  0  0  0
   36.7880   27.3810   34.6840 H   0  0  0  0  0  0  0  0  0  0  0  0
   36.4050   29.2470   30.8390 H   0  0  0  0  0  0  0  0  0  0  0  0
   35.0120   31.6090   34.5230 C   0  0  0  0  0  2  0  0  0  0  0  0
   35.7360   32.0520   35.6830 N   0  0  0  0  0  4  0  0  0  0  0  0
   36.4160   31.2930   35.9150 H   0  0  0  0  0  0  0  0  0  0  0  0
   34.8590   32.1530   36.8560 C   0  0  0  0  0  2  0  0  0  0  0  0
   34.9890   31.3010   37.5540 H   0  0  0  0  0  0  0  0  0  0  0  0
   36.5080   33.2460   35.4870 C   0  0  0  0  0  2  0  0  0  0  0  0
   37.6180   33.0700   35.5800 H   0  0  0  0  0  0  0  0  0  0  0  0
  1  4  1  6  0  0  0
  1 20  1  0  0  0  0
  1  2  1  0  0  0  0
  1  3  1  0  0  0  0
  2  3  1  0  0  0  0
  2  5  1  0  0  0  0
  3  7  1  1  0  0  0
  6  2  1  0  0  0  0
  8  9  1  0  0  0  0
  9 10  1  0  0  0  0
 10 11  2  0  0  0  0
 10  3  1  0  0  0  0
 11 16  1  0  0  0  0
 12 17  1  0  0  0  0
 12 11  1  0  0  0  0
 13 12  2  0  0  0  0
 14 13  1  0  0  0  0
 15 13  1  0  0  0  0
 15  9  2  0  0  0  0
 18 15  1  0  0  0  0
 19 24  1  0  0  0  0
 19 25  1  0  0  0  0
 20 19  2  0  0  0  0
 21 22  2  0  0  0  0
 21 20  1  0  0  0  0
 22 23  1  0  0  0  0
 23 27  1  0  0  0  0
 23 24  2  0  0  0  0
 26 21  1  0  0  0  0
 27 28  1  0  0  0  0
 28 29  1  0  0  0  0
 28 30  1  0  0  0  0
 30 31  1  0  0  0  0
 32 33  1  0  0  0  0
 32 28  1  0  0  0  0
M  END
>  <minimizedAffinity>
-4.83632183

$$$$

 OpenBabel03262522443D

 33 35  0  0  1  0  0  0  0  0999 V2000
   38.3620   27.1860   32.9860 C   0  0  1  0  0  0  0  0  0  0  0  0
   38.2850   26.9120   31.5380 C   0  0  0  0  0  0  0  0  0  0  0  0
   37.0980   27.4770   32.1300 C   0  0  2  0  0  0  0  0  0  0  0  0
   38.7190   28.1100   33.4390 H   0  0  0  0  0  0  0  0  0  0  0  0
   38.3150   25.8020   31.2770 H   0  0  0  0  0  0  0  0  0  0  0  0
   39.1090   27.4210   31.0110 H   0  0  0  0  0  0  0  0  0  0  0  0
   36.2920   26.8910   32.6620 H   0  0  0  0  0  0  0  0  0  0  0  0
   35.6830   29.3740   34.1760 Cl  0  0  0  0  0  0  0  0  0  0  0  0
   36.0170   29.8030   32.5170 C   0  0  0  0  0  0  0  0  0  0  0  0
   36.7140   28.8410   31.8020 C   0  0  0  0  0  0  0  0  0  0  0  0
   37.0530   29.1780   30.5300 C   0  0  0  0  0  0  0  0  0  0  0  0
   36.7240   30.4290   29.9620 C   0  0  0  0  0  0  0  0  0  0  0  0
   36.0230   31.3650   30.7200 C   0  0  0  0  0  0  0  0  0  0  0  0
   35.5870   32.9700   30.1590 Cl  0  0  0  0  0  0  0  0  0  0  0  0
   35.6730   31.0180   32.0230 C   0  0  0  0  0  0  0  0  0  0  0  0
   37.5920   28.5780   29.8110 H   0  0  0  0  0  0  0  0  0  0  0  0
   36.9780   30.7300   28.9590 H   0  0  0  0  0  0  0  0  0  0  0  0
   35.1290   31.6740   32.6870 H   0  0  0  0  0  0  0  0  0  0  0  0
   38.6000   24.6880   33.4880 C   0  0  0  0  0  0  0  0  0  0  0  0
   38.2730   26.0260   33.9290 C   0  0  0  0  0  0  0  0  0  0  0  0
   37.8340   26.1960   35.2500 C   0  0  0  0  0  0  0  0  0  0  0  0
   37.7350   25.0910   36.0530 N   0  0  0  0  0  0  0  0  0  0  0  0
   38.0540   23.8600   35.5920 C   0  0  0  0  0  0  0  0  0  0  0  0
   38.4790   23.6540   34.3330 N   0  0  0  0  0  0  0  0  0  0  0  0
   38.9380   24.6050   32.4520 H   0  0  0  0  0  0  0  0  0  0  0  0
   37.5840   27.1770   35.6090 H   0  0  0  0  0  0  0  0  0  0  0  0
   37.9320   22.6850   36.4970 C   0  0  0  0  0  2  0  0  0  0  0  0
   38.9850   22.5920   37.4700 N   0  0  0  0  0  4  0  0  0  0  0  0
   38.9660   21.6120   37.8340 H   0  0  0  0  0  0  0  0  0  0  0  0
   38.7130   23.4400   38.6380 C   0  0  0  0  0  2  0  0  0  0  0  0
   38.3550   22.8550   39.5090 H   0  0  0  0  0  0  0  0  0  0  0  0
   40.3040   22.8080   36.9480 C   0  0  0  0  0  2  0  0  0  0  0  0
   40.9560   21.8900   37.0110 H   0  0  0  0  0  0  0  0  0  0  0  0
  1  4  1  1  0  0  0
  1 20  1  0  0  0  0
  2  3  1  0  0  0  0
  2  1  1  0  0  0  0
  3  7  1  1  0  0  0
  3  1  1  0  0  0  0
  5  2  1  0  0  0  0
  6  2  1  0  0  0  0
  9  8  1  0  0  0  0
 10  3  1  0  0  0  0
 10  9  2  0  0  0  0
 11 10  1  0  0  0  0
 12 11  2  0  0  0  0
 12 13  1  0  0  0  0
 13 15  2  0  0  0  0
 14 13  1  0  0  0  0
 15  9  1  0  0  0  0
 15 18  1  0  0  0  0
 16 11  1  0  0  0  0
 17 12  1  0  0  0  0
 19 20  2  0  0  0  0
 19 24  1  0  0  0  0
 20 21  1  0  0  0  0
 21 26  1  0  0  0  0
 21 22  2  0  0  0  0
 23 22  1  0  0  0  0
 23 27  1  0  0  0  0
 24 23  2  0  0  0  0
 25 19  1  0  0  0  0
 27 28  1  0  0  0  0
 28 29  1  0  0  0  0
 28 30  1  0  0  0  0
 30 31  1  0  0  0  0
 32 33  1  0  0  0  0
 32 28  1  0  0  0  0
M  END
>  <minimizedAffinity>
-4.82932329

$$$$

 OpenBabel03262522443D

 33 35  0  0  1  0  0  0  0  0999 V2000
   35.3790   28.9340   32.3960 C   0  0  1  0  0  0  0  0  0  0  0  0
   36.0960   28.8670   31.1080 C   0  0  0  0  0  0  0  0  0  0  0  0
   36.6100   28.0160   32.1520 C   0  0  2  0  0  0  0  0  0  0  0  0
   34.5190   28.3270   32.6760 H   0  0  0  0  0  0  0  0  0  0  0  0
   36.6470   29.8280   30.8370 H   0  0  0  0  0  0  0  0  0  0  0  0
   35.3930   28.6210   30.2950 H   0  0  0  0  0  0  0  0  0  0  0  0
   37.3300   28.3390   32.9610 H   0  0  0  0  0  0  0  0  0  0  0  0
   38.3730   26.0010   33.7700 Cl  0  0  0  0  0  0  0  0  0  0  0  0
   37.1750   25.5240   32.5930 C   0  0  0  0  0  0  0  0  0  0  0  0
   36.4590   26.5740   32.0410 C   0  0  0  0  0  0  0  0  0  0  0  0
   35.4690   26.2270   31.1780 C   0  0  0  0  0  0  0  0  0  0  0  0
   35.1780   24.8820   30.8560 C   0  0  0  0  0  0  0  0  0  0  0  0
   35.9260   23.8590   31.4360 C   0  0  0  0  0  0  0  0  0  0  0  0
   35.6470   22.1490   31.1630 Cl  0  0  0  0  0  0  0  0  0  0  0  0
   36.9420   24.2160   32.3200 C   0  0  0  0  0  0  0  0  0  0  0  0
   34.7990   26.8860   30.6440 H   0  0  0  0  0  0  0  0  0  0  0  0
   34.4010   24.5700   30.1770 H   0  0  0  0  0  0  0  0  0  0  0  0
   37.5760   23.4970   32.8180 H   0  0  0  0  0  0  0  0  0  0  0  0
   35.6280   30.0030   34.7080 C   0  0  0  0  0  0  0  0  0  0  0  0
   35.6060   30.1300   33.2670 C   0  0  0  0  0  0  0  0  0  0  0  0
   35.7630   31.4110   32.7160 C   0  0  0  0  0  0  0  0  0  0  0  0
   35.9280   32.4720   33.5650 N   0  0  0  0  0  0  0  0  0  0  0  0
   35.9420   32.2990   34.9070 C   0  0  0  0  0  0  0  0  0  0  0  0
   35.7950   31.0900   35.4760 N   0  0  0  0  0  0  0  0  0  0  0  0
   35.5030   28.9880   35.0910 H   0  0  0  0  0  0  0  0  0  0  0  0
   35.7530   31.5390   31.6500 H   0  0  0  0  0  0  0  0  0  0  0  0
   36.1230   33.4790   35.7950 C   0  0  0  0  0  2  0  0  0  0  0  0
   34.9000   34.1730   36.0930 N   0  0  0  0  0  4  0  0  0  0  0  0
   34.1930   33.8400   35.3980 H   0  0  0  0  0  0  0  0  0  0  0  0
   35.0280   35.6160   35.8480 C   0  0  0  0  0  2  0  0  0  0  0  0
   34.5440   35.9260   34.9000 H   0  0  0  0  0  0  0  0  0  0  0  0
   34.3560   33.8970   37.3910 C   0  0  0  0  0  2  0  0  0  0  0  0
   33.3620   33.3660   37.3460 H   0  0  0  0  0  0  0  0  0  0  0  0
  1  4  1  1  0  0  0
  1 20  1  0  0  0  0
  2  3  1  0  0  0  0
  2  1  1  0  0  0  0
  3  1  1  0  0  0  0
  3  7  1  1  0  0  0
  5  2  1  0  0  0  0
  6  2  1  0  0  0  0
  9  8  1  0  0  0  0
 10  3  1  0  0  0  0
 10  9  2  0  0  0  0
 11 10  1  0  0  0  0
 12 11  2  0  0  0  0
 12 13  1  0  0  0  0
 13 15  2  0  0  0  0
 14 13  1  0  0  0  0
 15  9  1  0  0  0  0
 15 18  1  0  0  0  0
 16 11  1  0  0  0  0
 17 12  1  0  0  0  0
 19 25  1  0  0  0  0
 19 24  1  0  0  0  0
 20 19  2  0  0  0  0
 21 20  1  0  0  0  0
 21 22  2  0  0  0  0
 22 23  1  0  0  0  0
 23 24  2  0  0  0  0
 23 27  1  0  0  0  0
 26 21  1  0  0  0  0
 27 28  1  0  0  0  0
 28 32  1  0  0  0  0
 29 28  1  0  0  0  0
 30 28  1  0  0  0  0
 31 30  1  0  0  0  0
 33 32  1  0  0  0  0
M  END
>  <minimizedAffinity>
-4.71112108

$$$$
