
 OpenBabel03262521543D

 37 38  0  0  1  0  0  0  0  0999 V2000
   32.9700   27.8110   47.0560 C   0  0  1  0  0  0  0  0  0  0  0  0
   33.6130   28.9050   47.8940 C   0  0  2  0  0  0  0  0  0  0  0  0
   34.4690   29.7250   46.9960 C   0  0  0  0  0  0  0  0  0  0  0  0
   34.4650   29.3070   45.6830 O   0  0  0  0  0  0  0  0  0  0  0  0
   33.1760   29.3090   45.1420 C   0  0  0  0  0  0  0  0  0  0  0  0
   32.2010   28.5080   45.9670 C   0  0  2  0  0  0  0  0  0  0  0  0
   32.3480   27.2280   47.7510 H   0  0  0  0  0  0  0  0  0  0  0  0
   32.7780   29.5540   48.2590 H   0  0  0  0  0  0  0  0  0  0  0  0
   35.5380   29.7420   47.3270 H   0  0  0  0  0  0  0  0  0  0  0  0
   34.1570   30.8100   46.9830 H   0  0  0  0  0  0  0  0  0  0  0  0
   33.2890   28.8530   44.1360 H   0  0  0  0  0  0  0  0  0  0  0  0
   32.8160   30.3470   44.9380 H   0  0  0  0  0  0  0  0  0  0  0  0
   31.6390   27.8500   45.3000 H   0  0  0  0  0  0  0  0  0  0  0  0
   33.9390   27.0340   46.4360 O   0  0  0  0  0  0  0  0  0  0  0  0
   34.4500   26.5830   47.1640 H   0  0  0  0  0  0  0  0  0  0  0  0
   34.5600   28.2330   49.2730 S   0  0  0  0  0  0  0  0  0  0  0  0
   35.3070   29.5550   50.2420 C   0  0  0  0  0  0  0  0  0  0  0  0
   34.8520   29.5330   51.2530 H   0  0  0  0  0  0  0  0  0  0  0  0
   34.9630   30.5290   49.7880 H   0  0  0  0  0  0  0  0  0  0  0  0
   37.0880   29.4960   50.3250 S   0  0  0  0  0  0  0  0  0  0  0  0
   37.7700   30.6380   49.1480 C   0  0  0  0  0  0  0  0  0  0  0  0
   38.1410   31.8600   49.6820 C   0  0  0  0  0  0  0  0  0  0  0  0
   38.6930   32.8210   48.8000 C   0  0  0  0  0  0  0  0  0  0  0  0
   38.8250   32.4870   47.4850 N   0  0  0  0  0  0  0  0  0  0  0  0
   38.4400   31.2750   47.0400 C   0  0  0  0  0  0  0  0  0  0  0  0
   37.9240   30.3660   47.8430 N   0  0  0  0  0  0  0  0  0  0  0  0
   38.0550   32.1690   50.7200 H   0  0  0  0  0  0  0  0  0  0  0  0
   38.9950   33.7820   49.1660 H   0  0  0  0  0  0  0  0  0  0  0  0
   38.5690   31.0630   45.9780 H   0  0  0  0  0  0  0  0  0  0  0  0
   31.3190   29.3850   46.6250 O   0  0  0  0  0  0  0  0  0  0  0  0
   30.0050   29.1560   46.2710 C   0  0  0  0  0  2  0  0  0  0  0  0
   29.3460   28.1000   46.9650 N   0  0  0  0  0  4  0  0  0  0  0  0
   29.7190   27.1500   46.8110 H   0  0  0  0  0  0  0  0  0  0  0  0
   29.3080   28.2790   48.4100 C   0  0  0  0  0  2  0  0  0  0  0  0
   30.2370   28.7170   48.7850 H   0  0  0  0  0  0  0  0  0  0  0  0
   27.9570   28.0910   46.5000 C   0  0  0  0  0  2  0  0  0  0  0  0
   27.2370   28.2480   47.3460 H   0  0  0  0  0  0  0  0  0  0  0  0
  1  7  1  1  0  0  0
  1  2  1  0  0  0  0
  2  8  1  1  0  0  0
  2 16  1  0  0  0  0
  3  9  1  0  0  0  0
  3  2  1  0  0  0  0
  4  3  1  0  0  0  0
  5  4  1  0  0  0  0
  5  6  1  0  0  0  0
  6 13  1  6  0  0  0
  6 30  1  0  0  0  0
  6  1  1  0  0  0  0
 10  3  1  0  0  0  0
 11  5  1  0  0  0  0
 12  5  1  0  0  0  0
 14  1  1  0  0  0  0
 14 15  1  0  0  0  0
 16 17  1  0  0  0  0
 17 20  1  0  0  0  0
 17 18  1  0  0  0  0
 19 17  1  0  0  0  0
 21 22  1  0  0  0  0
 21 20  1  0  0  0  0
 22 27  1  0  0  0  0
 23 28  1  0  0  0  0
 23 22  2  0  0  0  0
 24 23  1  0  0  0  0
 25 24  2  0  0  0  0
 25 26  1  0  0  0  0
 26 21  2  0  0  0  0
 29 25  1  0  0  0  0
 31 30  1  0  0  0  0
 31 32  1  0  0  0  0
 32 34  1  0  0  0  0
 33 32  1  0  0  0  0
 34 35  1  0  0  0  0
 36 32  1  0  0  0  0
 36 37  1  0  0  0  0
M  END
>  <minimizedAffinity>
-4.17010021

>  <minimizedRMSD>
1.29949689

$$$$
