
 OpenBabel03262521543D

 37 38  0  0  1  0  0  0  0  0999 V2000
   32.6640   27.0860   48.1660 C   0  0  1  0  0  0  0  0  0  0  0  0
   33.3120   28.4410   48.4030 C   0  0  2  0  0  0  0  0  0  0  0  0
   33.6030   29.0470   47.0770 C   0  0  0  0  0  0  0  0  0  0  0  0
   33.2280   28.2620   46.0080 O   0  0  0  0  0  0  0  0  0  0  0  0
   31.8620   27.9650   46.0370 C   0  0  0  0  0  0  0  0  0  0  0  0
   31.4330   27.3430   47.3410 C   0  0  2  0  0  0  0  0  0  0  0  0
   32.4660   26.6710   49.1640 H   0  0  0  0  0  0  0  0  0  0  0  0
   32.5410   29.0750   48.9080 H   0  0  0  0  0  0  0  0  0  0  0  0
   34.6900   29.2770   46.9430 H   0  0  0  0  0  0  0  0  0  0  0  0
   33.0830   30.0400   46.9370 H   0  0  0  0  0  0  0  0  0  0  0  0
   31.7090   27.2480   45.2040 H   0  0  0  0  0  0  0  0  0  0  0  0
   31.2410   28.8510   45.7590 H   0  0  0  0  0  0  0  0  0  0  0  0
   30.8260   26.4610   47.1240 H   0  0  0  0  0  0  0  0  0  0  0  0
   33.4960   26.2700   47.4110 O   0  0  0  0  0  0  0  0  0  0  0  0
   34.3140   26.1120   47.9590 H   0  0  0  0  0  0  0  0  0  0  0  0
   34.8030   28.3130   49.4080 S   0  0  0  0  0  0  0  0  0  0  0  0
   35.2220   29.9030   50.1400 C   0  0  0  0  0  0  0  0  0  0  0  0
   34.5830   30.0440   51.0350 H   0  0  0  0  0  0  0  0  0  0  0  0
   34.8860   30.6980   49.4130 H   0  0  0  0  0  0  0  0  0  0  0  0
   36.9510   30.1050   50.5330 S   0  0  0  0  0  0  0  0  0  0  0  0
   37.7630   30.9490   49.1990 C   0  0  0  0  0  0  0  0  0  0  0  0
   38.2050   32.2240   49.5090 C   0  0  0  0  0  0  0  0  0  0  0  0
   38.8620   32.9570   48.4920 C   0  0  0  0  0  0  0  0  0  0  0  0
   39.0200   32.3670   47.2730 N   0  0  0  0  0  0  0  0  0  0  0  0
   38.5610   31.1210   47.0460 C   0  0  0  0  0  0  0  0  0  0  0  0
   37.9470   30.4210   47.9790 N   0  0  0  0  0  0  0  0  0  0  0  0
   38.1020   32.7330   50.4640 H   0  0  0  0  0  0  0  0  0  0  0  0
   39.2220   33.9490   48.6840 H   0  0  0  0  0  0  0  0  0  0  0  0
   38.7150   30.6990   46.0520 H   0  0  0  0  0  0  0  0  0  0  0  0
   30.6730   28.2750   48.0730 O   0  0  0  0  0  0  0  0  0  0  0  0
   29.3280   27.9680   48.0570 C   0  0  0  0  0  2  0  0  0  0  0  0
   28.9100   26.9450   48.9540 N   0  0  0  0  0  4  0  0  0  0  0  0
   29.3250   26.0110   48.8080 H   0  0  0  0  0  0  0  0  0  0  0  0
   29.1400   27.2620   50.3590 C   0  0  0  0  0  2  0  0  0  0  0  0
   30.0830   27.7960   50.5000 H   0  0  0  0  0  0  0  0  0  0  0  0
   27.4630   26.7960   48.7830 C   0  0  0  0  0  2  0  0  0  0  0  0
   26.9110   26.9870   49.7420 H   0  0  0  0  0  0  0  0  0  0  0  0
  1  2  1  0  0  0  0
  1  7  1  1  0  0  0
  2  8  1  1  0  0  0
  2 16  1  0  0  0  0
  3  2  1  0  0  0  0
  4  5  1  0  0  0  0
  4  3  1  0  0  0  0
  5  6  1  0  0  0  0
  6 13  1  6  0  0  0
  6 30  1  0  0  0  0
  6  1  1  0  0  0  0
  9  3  1  0  0  0  0
 10  3  1  0  0  0  0
 11  5  1  0  0  0  0
 12  5  1  0  0  0  0
 14 15  1  0  0  0  0
 14  1  1  0  0  0  0
 16 17  1  0  0  0  0
 17 20  1  0  0  0  0
 17 18  1  0  0  0  0
 19 17  1  0  0  0  0
 21 22  1  0  0  0  0
 21 20  1  0  0  0  0
 22 27  1  0  0  0  0
 23 28  1  0  0  0  0
 23 22  2  0  0  0  0
 24 23  1  0  0  0  0
 25 24  2  0  0  0  0
 25 26  1  0  0  0  0
 26 21  2  0  0  0  0
 29 25  1  0  0  0  0
 31 30  1  0  0  0  0
 31 32  1  0  0  0  0
 32 34  1  0  0  0  0
 33 32  1  0  0  0  0
 34 35  1  0  0  0  0
 36 32  1  0  0  0  0
 36 37  1  0  0  0  0
M  END
>  <minimizedAffinity>
-4.44253588

>  <minimizedRMSD>
0.651486635

$$$$
