
 OpenBabel03262521543D

 37 38  0  0  1  0  0  0  0  0999 V2000
   33.0730   27.1180   48.3330 C   0  0  1  0  0  0  0  0  0  0  0  0
   33.5720   28.5050   48.7100 C   0  0  2  0  0  0  0  0  0  0  0  0
   33.3870   29.3920   47.5320 C   0  0  0  0  0  0  0  0  0  0  0  0
   32.8310   28.7640   46.4380 O   0  0  0  0  0  0  0  0  0  0  0  0
   31.5840   28.2070   46.7380 C   0  0  0  0  0  0  0  0  0  0  0  0
   31.6340   27.2810   47.9260 C   0  0  2  0  0  0  0  0  0  0  0  0
   33.2260   26.4930   49.2250 H   0  0  0  0  0  0  0  0  0  0  0  0
   32.8980   28.8710   49.5250 H   0  0  0  0  0  0  0  0  0  0  0  0
   34.3480   29.8490   47.1880 H   0  0  0  0  0  0  0  0  0  0  0  0
   32.7190   30.2740   47.7620 H   0  0  0  0  0  0  0  0  0  0  0  0
   31.2980   27.6420   45.8260 H   0  0  0  0  0  0  0  0  0  0  0  0
   30.7950   28.9920   46.8370 H   0  0  0  0  0  0  0  0  0  0  0  0
   31.1160   26.3550   47.6680 H   0  0  0  0  0  0  0  0  0  0  0  0
   33.7560   26.6350   47.2260 O   0  0  0  0  0  0  0  0  0  0  0  0
   34.7110   26.5390   47.5000 H   0  0  0  0  0  0  0  0  0  0  0  0
   35.2910   28.4820   49.2520 S   0  0  0  0  0  0  0  0  0  0  0  0
   35.5910   29.7610   50.4840 C   0  0  0  0  0  0  0  0  0  0  0  0
   35.0800   29.4580   51.4200 H   0  0  0  0  0  0  0  0  0  0  0  0
   35.0440   30.6850   50.1370 H   0  0  0  0  0  0  0  0  0  0  0  0
   37.3150   30.1230   50.7690 S   0  0  0  0  0  0  0  0  0  0  0  0
   37.9630   31.0280   49.3850 C   0  0  0  0  0  0  0  0  0  0  0  0
   38.3410   32.3270   49.6740 C   0  0  0  0  0  0  0  0  0  0  0  0
   38.8670   33.1090   48.6170 C   0  0  0  0  0  0  0  0  0  0  0  0
   38.9690   32.5370   47.3830 N   0  0  0  0  0  0  0  0  0  0  0  0
   38.5780   31.2640   47.1790 C   0  0  0  0  0  0  0  0  0  0  0  0
   38.0860   30.5200   48.1490 N   0  0  0  0  0  0  0  0  0  0  0  0
   38.2790   32.8230   50.6390 H   0  0  0  0  0  0  0  0  0  0  0  0
   39.1740   34.1220   48.7910 H   0  0  0  0  0  0  0  0  0  0  0  0
   38.6820   30.8590   46.1720 H   0  0  0  0  0  0  0  0  0  0  0  0
   30.9960   27.8940   49.0200 O   0  0  0  0  0  0  0  0  0  0  0  0
   29.8530   27.2180   49.3950 C   0  0  0  0  0  2  0  0  0  0  0  0
   28.6270   27.7330   48.8860 N   0  0  0  0  0  4  0  0  0  0  0  0
   28.6470   28.0850   47.9150 H   0  0  0  0  0  0  0  0  0  0  0  0
   27.5220   26.7830   48.9380 C   0  0  0  0  0  2  0  0  0  0  0  0
   27.8540   25.7670   48.7080 H   0  0  0  0  0  0  0  0  0  0  0  0
   28.2550   28.8640   49.7370 C   0  0  0  0  0  2  0  0  0  0  0  0
   27.2560   28.7060   50.2240 H   0  0  0  0  0  0  0  0  0  0  0  0
  1  2  1  0  0  0  0
  1  7  1  1  0  0  0
  2 16  1  0  0  0  0
  2  8  1  1  0  0  0
  3 10  1  0  0  0  0
  3  2  1  0  0  0  0
  4  5  1  0  0  0  0
  4  3  1  0  0  0  0
  5 12  1  0  0  0  0
  5  6  1  0  0  0  0
  6 13  1  6  0  0  0
  6  1  1  0  0  0  0
  6 30  1  0  0  0  0
  9  3  1  0  0  0  0
 11  5  1  0  0  0  0
 14 15  1  0  0  0  0
 14  1  1  0  0  0  0
 16 17  1  0  0  0  0
 17 20  1  0  0  0  0
 17 18  1  0  0  0  0
 19 17  1  0  0  0  0
 21 22  1  0  0  0  0
 21 20  1  0  0  0  0
 22 27  1  0  0  0  0
 23 28  1  0  0  0  0
 23 22  2  0  0  0  0
 24 23  1  0  0  0  0
 25 24  2  0  0  0  0
 25 26  1  0  0  0  0
 26 21  2  0  0  0  0
 29 25  1  0  0  0  0
 30 31  1  0  0  0  0
 32 34  1  0  0  0  0
 32 31  1  0  0  0  0
 32 36  1  0  0  0  0
 33 32  1  0  0  0  0
 35 34  1  0  0  0  0
 36 37  1  0  0  0  0
M  END
>  <minimizedAffinity>
-4.52019835

>  <minimizedRMSD>
0.878534794

$$$$
