REMARK  Name = 
REMARK  7 active torsions:
REMARK  status: ('A' for Active; 'I' for Inactive)
REMARK    1  A    between atoms: C_2  and  C_7
REMARK    2  A    between atoms: C_3  and  C_14
REMARK    3  A    between atoms: C_12  and  S_13
REMARK    4  A    between atoms: S_13  and  C_24
REMARK    5  A    between atoms: C_24  and  N_25
REMARK    6  A    between atoms: N_25  and  C_26
REMARK    7  A    between atoms: N_25  and  C_28
REMARK                            x       y       z     vdW  Elec       q    Type
REMARK                         _______ _______ _______ _____ _____    ______ ____
ROOT
ATOM      1  C   UNL     1      38.191  31.075  47.894  0.00  0.00    +0.000 A 
ATOM      2  C   UNL     1      38.527  30.282  46.815  0.00  0.00    +0.000 A 
ATOM      3  C   UNL     1      39.289  30.664  45.734  0.00  0.00    +0.000 A 
ATOM      4  C   UNL     1      39.773  31.979  45.718  0.00  0.00    +0.000 A 
ATOM      5  C   UNL     1      39.455  32.797  46.781  0.00  0.00    +0.000 A 
ATOM      6  C   UNL     1      38.688  32.373  47.843  0.00  0.00    +0.000 A 
ATOM      7  H   UNL     1      38.177  29.239  46.769  0.00  0.00    +0.000 HD
ATOM      8  H   UNL     1      39.517  29.997  44.922  0.00  0.00    +0.000 HD
ATOM      9  H   UNL     1      40.379  32.355  44.904  0.00  0.00    +0.000 HD
ATOM     10  H   UNL     1      39.827  33.815  46.774  0.00  0.00    +0.000 HD
ENDROOT
BRANCH   1  12
ATOM     11  C   UNL     1      38.016  30.317  50.192  0.00  0.00    +0.000 A 
ATOM     12  C   UNL     1      37.386  30.498  48.926  0.00  0.00    +0.000 A 
ATOM     13  C   UNL     1      36.067  30.104  48.805  0.00  0.00    +0.000 A 
ATOM     14  N   UNL     1      35.434  29.569  49.881  0.00  0.00    +0.000 NA
ATOM     15  C   UNL     1      36.059  29.407  51.083  0.00  0.00    +0.000 A 
ATOM     16  N   UNL     1      37.358  29.787  51.228  0.00  0.00    +0.000 NA
ATOM     17  H   UNL     1      39.057  30.619  50.318  0.00  0.00    +0.000 HD
ATOM     18  H   UNL     1      35.551  28.983  51.929  0.00  0.00    +0.000 HD
BRANCH  13  19
ATOM     19  C   UNL     1      35.289  30.236  47.542  0.00  0.00    +0.000 C 
ATOM     20  F   UNL     1      34.015  30.765  47.836  0.00  0.00    +0.000 F 
ATOM     21  F   UNL     1      35.848  30.974  46.556  0.00  0.00    +0.000 F 
ATOM     22  F   UNL     1      35.000  28.963  47.036  0.00  0.00    +0.000 F 
ENDBRANCH  13  19
ENDBRANCH   1  12
BRANCH   6  23
ATOM     23  S   UNL     1      38.266  33.418  49.230  0.00  0.00    +0.000 S 
BRANCH  23  24
ATOM     24  C   UNL     1      38.971  35.075  49.045  0.00  0.00    +0.000 C 
BRANCH  24  25
ATOM     25  N   UNL     1      40.295  35.155  49.637  0.00  0.00    +0.000 N 
ATOM     26  H   UNL     1      40.539  36.135  49.855  0.00  0.00    +0.000 HD
BRANCH  25  27
ATOM     27  C   UNL     1      41.264  34.620  48.700  0.00  0.00    +0.000 C 
ATOM     28  H   UNL     1      41.757  33.706  49.110  0.00  0.00    +0.000 HD
ENDBRANCH  25  27
BRANCH  25  29
ATOM     29  C   UNL     1      40.369  34.408  50.882  0.00  0.00    +0.000 C 
ATOM     30  H   UNL     1      40.015  33.373  50.781  0.00  0.00    +0.000 HD
ENDBRANCH  25  29
ENDBRANCH  24  25
ENDBRANCH  23  24
ENDBRANCH   6  23
TORSDOF 7
