
 OpenBabel03262521543D

 37 38  0  0  1  0  0  0  0  0999 V2000
   32.9620   27.1050   48.3090 C   0  0  1  0  0  0  0  0  0  0  0  0
   33.4890   28.4830   48.6820 C   0  0  2  0  0  0  0  0  0  0  0  0
   33.3080   29.3750   47.5060 C   0  0  0  0  0  0  0  0  0  0  0  0
   32.7320   28.7570   46.4180 O   0  0  0  0  0  0  0  0  0  0  0  0
   31.4780   28.2230   46.7280 C   0  0  0  0  0  0  0  0  0  0  0  0
   31.5230   27.2950   47.9150 C   0  0  2  0  0  0  0  0  0  0  0  0
   33.1130   26.4770   49.1980 H   0  0  0  0  0  0  0  0  0  0  0  0
   32.8300   28.8600   49.5030 H   0  0  0  0  0  0  0  0  0  0  0  0
   34.2750   29.8150   47.1540 H   0  0  0  0  0  0  0  0  0  0  0  0
   32.6590   30.2680   47.7430 H   0  0  0  0  0  0  0  0  0  0  0  0
   31.1730   27.6640   45.8190 H   0  0  0  0  0  0  0  0  0  0  0  0
   30.7040   29.0220   46.8360 H   0  0  0  0  0  0  0  0  0  0  0  0
   30.9850   26.3780   47.6610 H   0  0  0  0  0  0  0  0  0  0  0  0
   33.6260   26.6110   47.1950 O   0  0  0  0  0  0  0  0  0  0  0  0
   34.5810   26.4980   47.4600 H   0  0  0  0  0  0  0  0  0  0  0  0
   35.2130   28.4290   49.2080 S   0  0  0  0  0  0  0  0  0  0  0  0
   35.5580   29.7280   50.4050 C   0  0  0  0  0  0  0  0  0  0  0  0
   35.0470   29.4630   51.3520 H   0  0  0  0  0  0  0  0  0  0  0  0
   35.0340   30.6580   50.0400 H   0  0  0  0  0  0  0  0  0  0  0  0
   37.2930   30.0500   50.6680 S   0  0  0  0  0  0  0  0  0  0  0  0
   37.9380   30.9620   49.2880 C   0  0  0  0  0  0  0  0  0  0  0  0
   38.3440   32.2500   49.5890 C   0  0  0  0  0  0  0  0  0  0  0  0
   38.8690   33.0370   48.5350 C   0  0  0  0  0  0  0  0  0  0  0  0
   38.9440   32.4810   47.2930 N   0  0  0  0  0  0  0  0  0  0  0  0
   38.5280   31.2180   47.0770 C   0  0  0  0  0  0  0  0  0  0  0  0
   38.0360   30.4690   48.0440 N   0  0  0  0  0  0  0  0  0  0  0  0
   38.3040   32.7330   50.5610 H   0  0  0  0  0  0  0  0  0  0  0  0
   39.1970   34.0410   48.7190 H   0  0  0  0  0  0  0  0  0  0  0  0
   38.6110   30.8250   46.0630 H   0  0  0  0  0  0  0  0  0  0  0  0
   30.9060   27.9180   49.0160 O   0  0  0  0  0  0  0  0  0  0  0  0
   29.8180   27.2010   49.4710 C   0  0  0  0  0  2  0  0  0  0  0  0
   28.5400   27.7600   49.1900 N   0  0  0  0  0  4  0  0  0  0  0  0
   28.5290   28.5990   48.5880 H   0  0  0  0  0  0  0  0  0  0  0  0
   27.6090   26.8220   48.5740 C   0  0  0  0  0  2  0  0  0  0  0  0
   28.1140   26.1640   47.8620 H   0  0  0  0  0  0  0  0  0  0  0  0
   27.9570   28.1550   50.4750 C   0  0  0  0  0  2  0  0  0  0  0  0
   26.9850   27.6290   50.6680 H   0  0  0  0  0  0  0  0  0  0  0  0
  1  2  1  0  0  0  0
  1  7  1  1  0  0  0
  2 16  1  0  0  0  0
  2  8  1  1  0  0  0
  3 10  1  0  0  0  0
  3  2  1  0  0  0  0
  4  5  1  0  0  0  0
  4  3  1  0  0  0  0
  5 12  1  0  0  0  0
  5  6  1  0  0  0  0
  6 13  1  6  0  0  0
  6  1  1  0  0  0  0
  6 30  1  0  0  0  0
  9  3  1  0  0  0  0
 11  5  1  0  0  0  0
 14 15  1  0  0  0  0
 14  1  1  0  0  0  0
 16 17  1  0  0  0  0
 17 20  1  0  0  0  0
 17 18  1  0  0  0  0
 19 17  1  0  0  0  0
 21 22  1  0  0  0  0
 21 20  1  0  0  0  0
 22 27  1  0  0  0  0
 23 28  1  0  0  0  0
 23 22  2  0  0  0  0
 24 23  1  0  0  0  0
 25 24  2  0  0  0  0
 25 26  1  0  0  0  0
 26 21  2  0  0  0  0
 29 25  1  0  0  0  0
 30 31  1  0  0  0  0
 32 31  1  0  0  0  0
 32 36  1  0  0  0  0
 33 32  1  0  0  0  0
 34 32  1  0  0  0  0
 35 34  1  0  0  0  0
 36 37  1  0  0  0  0
M  END
>  <minimizedAffinity>
-4.47326517

>  <minimizedRMSD>
0.908187509

$$$$
