
 OpenBabel03262521543D

 37 38  0  0  1  0  0  0  0  0999 V2000
   32.5100   26.9180   48.2340 C   0  0  1  0  0  0  0  0  0  0  0  0
   33.1160   28.2890   48.4910 C   0  0  2  0  0  0  0  0  0  0  0  0
   33.0680   29.0560   47.2190 C   0  0  0  0  0  0  0  0  0  0  0  0
   32.5100   28.3630   46.1670 O   0  0  0  0  0  0  0  0  0  0  0  0
   31.2040   27.9520   46.4520 C   0  0  0  0  0  0  0  0  0  0  0  0
   31.1130   27.1590   47.7310 C   0  0  2  0  0  0  0  0  0  0  0  0
   32.5640   26.3830   49.1920 H   0  0  0  0  0  0  0  0  0  0  0  0
   32.4420   28.7980   49.2240 H   0  0  0  0  0  0  0  0  0  0  0  0
   34.0830   29.3890   46.8840 H   0  0  0  0  0  0  0  0  0  0  0  0
   32.4740   30.0120   47.3180 H   0  0  0  0  0  0  0  0  0  0  0  0
   30.9100   27.3180   45.5890 H   0  0  0  0  0  0  0  0  0  0  0  0
   30.4870   28.8080   46.4250 H   0  0  0  0  0  0  0  0  0  0  0  0
   30.5250   26.2580   47.5420 H   0  0  0  0  0  0  0  0  0  0  0  0
   33.1980   26.2600   47.2230 O   0  0  0  0  0  0  0  0  0  0  0  0
   34.1250   26.1130   47.5590 H   0  0  0  0  0  0  0  0  0  0  0  0
   34.7990   28.1770   49.1290 S   0  0  0  0  0  0  0  0  0  0  0  0
   35.0920   29.4320   50.3870 C   0  0  0  0  0  0  0  0  0  0  0  0
   34.5320   29.1380   51.2970 H   0  0  0  0  0  0  0  0  0  0  0  0
   34.5930   30.3780   50.0280 H   0  0  0  0  0  0  0  0  0  0  0  0
   36.8140   29.7300   50.7470 S   0  0  0  0  0  0  0  0  0  0  0  0
   37.5170   30.7390   49.4660 C   0  0  0  0  0  0  0  0  0  0  0  0
   37.7560   32.0520   49.8350 C   0  0  0  0  0  0  0  0  0  0  0  0
   38.3160   32.9150   48.8620 C   0  0  0  0  0  0  0  0  0  0  0  0
   38.5860   32.4040   47.6270 N   0  0  0  0  0  0  0  0  0  0  0  0
   38.3250   31.1140   47.3440 C   0  0  0  0  0  0  0  0  0  0  0  0
   37.8040   30.2930   48.2340 N   0  0  0  0  0  0  0  0  0  0  0  0
   37.5580   32.5010   50.8040 H   0  0  0  0  0  0  0  0  0  0  0  0
   38.5190   33.9410   49.1000 H   0  0  0  0  0  0  0  0  0  0  0  0
   38.5620   30.7600   46.3390 H   0  0  0  0  0  0  0  0  0  0  0  0
   30.4840   27.9400   48.7180 O   0  0  0  0  0  0  0  0  0  0  0  0
   29.8010   27.1630   49.6310 C   0  0  0  0  0  2  0  0  0  0  0  0
   28.4850   27.5960   49.9610 N   0  0  0  0  0  4  0  0  0  0  0  0
   28.3260   28.6160   49.9570 H   0  0  0  0  0  0  0  0  0  0  0  0
   27.4480   27.0330   49.1060 C   0  0  0  0  0  2  0  0  0  0  0  0
   27.7810   26.9550   48.0680 H   0  0  0  0  0  0  0  0  0  0  0  0
   28.2140   27.1320   51.3230 C   0  0  0  0  0  2  0  0  0  0  0  0
   27.3190   26.4550   51.3590 H   0  0  0  0  0  0  0  0  0  0  0  0
  1  2  1  0  0  0  0
  1  7  1  1  0  0  0
  2 16  1  0  0  0  0
  2  8  1  1  0  0  0
  3 10  1  0  0  0  0
  3  2  1  0  0  0  0
  4  5  1  0  0  0  0
  4  3  1  0  0  0  0
  5  6  1  0  0  0  0
  6 13  1  6  0  0  0
  6  1  1  0  0  0  0
  6 30  1  0  0  0  0
  9  3  1  0  0  0  0
 11  5  1  0  0  0  0
 12  5  1  0  0  0  0
 14 15  1  0  0  0  0
 14  1  1  0  0  0  0
 16 17  1  0  0  0  0
 17 20  1  0  0  0  0
 17 18  1  0  0  0  0
 19 17  1  0  0  0  0
 21 22  1  0  0  0  0
 21 20  1  0  0  0  0
 22 27  1  0  0  0  0
 23 28  1  0  0  0  0
 23 22  2  0  0  0  0
 24 23  1  0  0  0  0
 25 24  2  0  0  0  0
 25 26  1  0  0  0  0
 26 21  2  0  0  0  0
 29 25  1  0  0  0  0
 30 31  1  0  0  0  0
 31 32  1  0  0  0  0
 32 36  1  0  0  0  0
 33 32  1  0  0  0  0
 34 32  1  0  0  0  0
 35 34  1  0  0  0  0
 36 37  1  0  0  0  0
M  END
>  <minimizedAffinity>
-4.6070261

>  <minimizedRMSD>
1.25897908

$$$$
