
 OpenBabel03262521543D

 37 38  0  0  1  0  0  0  0  0999 V2000
   32.5120   26.9500   48.2290 C   0  0  1  0  0  0  0  0  0  0  0  0
   33.1410   28.3070   48.5030 C   0  0  2  0  0  0  0  0  0  0  0  0
   33.0970   29.0940   47.2420 C   0  0  0  0  0  0  0  0  0  0  0  0
   32.5210   28.4250   46.1840 O   0  0  0  0  0  0  0  0  0  0  0  0
   31.2110   28.0300   46.4710 C   0  0  0  0  0  0  0  0  0  0  0  0
   31.1160   27.2200   47.7390 C   0  0  2  0  0  0  0  0  0  0  0  0
   32.5640   26.3990   49.1790 H   0  0  0  0  0  0  0  0  0  0  0  0
   32.4790   28.8160   49.2480 H   0  0  0  0  0  0  0  0  0  0  0  0
   34.1140   29.4160   46.9060 H   0  0  0  0  0  0  0  0  0  0  0  0
   32.5180   30.0570   47.3590 H   0  0  0  0  0  0  0  0  0  0  0  0
   30.9020   27.4130   45.6010 H   0  0  0  0  0  0  0  0  0  0  0  0
   30.5070   28.8970   46.4610 H   0  0  0  0  0  0  0  0  0  0  0  0
   30.5130   26.3310   47.5400 H   0  0  0  0  0  0  0  0  0  0  0  0
   33.1830   26.2970   47.2040 O   0  0  0  0  0  0  0  0  0  0  0  0
   34.1110   26.1300   47.5320 H   0  0  0  0  0  0  0  0  0  0  0  0
   34.8250   28.1600   49.1280 S   0  0  0  0  0  0  0  0  0  0  0  0
   35.1920   29.4790   50.2990 C   0  0  0  0  0  0  0  0  0  0  0  0
   34.6260   29.2730   51.2300 H   0  0  0  0  0  0  0  0  0  0  0  0
   34.7370   30.4230   49.8820 H   0  0  0  0  0  0  0  0  0  0  0  0
   36.9290   29.7130   50.6290 S   0  0  0  0  0  0  0  0  0  0  0  0
   37.6420   30.7120   49.3470 C   0  0  0  0  0  0  0  0  0  0  0  0
   38.0370   31.9750   49.7550 C   0  0  0  0  0  0  0  0  0  0  0  0
   38.6150   32.8280   48.7830 C   0  0  0  0  0  0  0  0  0  0  0  0
   38.7480   32.3570   47.5100 N   0  0  0  0  0  0  0  0  0  0  0  0
   38.3380   31.1150   47.1890 C   0  0  0  0  0  0  0  0  0  0  0  0
   37.7980   30.3050   48.0780 N   0  0  0  0  0  0  0  0  0  0  0  0
   37.9520   32.3910   50.7540 H   0  0  0  0  0  0  0  0  0  0  0  0
   38.9360   33.8160   49.0510 H   0  0  0  0  0  0  0  0  0  0  0  0
   38.4690   30.7910   46.1560 H   0  0  0  0  0  0  0  0  0  0  0  0
   30.5040   27.9950   48.7410 O   0  0  0  0  0  0  0  0  0  0  0  0
   29.1440   28.1120   48.5440 C   0  0  0  0  0  2  0  0  0  0  0  0
   28.3440   27.0530   49.0620 N   0  0  0  0  0  4  0  0  0  0  0  0
   28.6010   26.0990   48.7640 H   0  0  0  0  0  0  0  0  0  0  0  0
   28.2940   27.0110   50.5170 C   0  0  0  0  0  2  0  0  0  0  0  0
   29.2600   27.2670   50.9600 H   0  0  0  0  0  0  0  0  0  0  0  0
   26.9760   27.2890   48.5940 C   0  0  0  0  0  2  0  0  0  0  0  0
   26.2610   27.4020   49.4510 H   0  0  0  0  0  0  0  0  0  0  0  0
  1  2  1  0  0  0  0
  1  7  1  1  0  0  0
  2 16  1  0  0  0  0
  2  8  1  1  0  0  0
  3 10  1  0  0  0  0
  3  2  1  0  0  0  0
  4  5  1  0  0  0  0
  4  3  1  0  0  0  0
  5  6  1  0  0  0  0
  6 13  1  6  0  0  0
  6  1  1  0  0  0  0
  6 30  1  0  0  0  0
  9  3  1  0  0  0  0
 11  5  1  0  0  0  0
 12  5  1  0  0  0  0
 14 15  1  0  0  0  0
 14  1  1  0  0  0  0
 16 17  1  0  0  0  0
 17 20  1  0  0  0  0
 17 18  1  0  0  0  0
 19 17  1  0  0  0  0
 21 22  1  0  0  0  0
 21 20  1  0  0  0  0
 22 27  1  0  0  0  0
 23 28  1  0  0  0  0
 23 22  2  0  0  0  0
 24 23  1  0  0  0  0
 25 24  2  0  0  0  0
 25 26  1  0  0  0  0
 26 21  2  0  0  0  0
 29 25  1  0  0  0  0
 31 30  1  0  0  0  0
 31 32  1  0  0  0  0
 32 34  1  0  0  0  0
 33 32  1  0  0  0  0
 34 35  1  0  0  0  0
 36 32  1  0  0  0  0
 36 37  1  0  0  0  0
M  END
>  <minimizedAffinity>
-4.47469807

>  <minimizedRMSD>
0.828785121

$$$$
