
 OpenBabel03262521543D

 37 38  0  0  1  0  0  0  0  0999 V2000
   32.5890   27.2500   47.6120 C   0  0  1  0  0  0  0  0  0  0  0  0
   33.2560   28.5260   48.1040 C   0  0  2  0  0  0  0  0  0  0  0  0
   33.7550   29.2680   46.9160 C   0  0  0  0  0  0  0  0  0  0  0  0
   33.4990   28.6420   45.7160 O   0  0  0  0  0  0  0  0  0  0  0  0
   32.1310   28.4260   45.5240 C   0  0  0  0  0  0  0  0  0  0  0  0
   31.4970   27.6790   46.6700 C   0  0  2  0  0  0  0  0  0  0  0  0
   32.2350   26.7310   48.5140 H   0  0  0  0  0  0  0  0  0  0  0  0
   32.4490   29.1400   48.5780 H   0  0  0  0  0  0  0  0  0  0  0  0
   34.8590   29.4460   46.9590 H   0  0  0  0  0  0  0  0  0  0  0  0
   33.3030   30.3000   46.8360 H   0  0  0  0  0  0  0  0  0  0  0  0
   32.0650   27.8250   44.5930 H   0  0  0  0  0  0  0  0  0  0  0  0
   31.5940   29.3750   45.2810 H   0  0  0  0  0  0  0  0  0  0  0  0
   30.8890   26.8680   46.2630 H   0  0  0  0  0  0  0  0  0  0  0  0
   33.4820   26.4830   46.8760 O   0  0  0  0  0  0  0  0  0  0  0  0
   34.2080   26.2110   47.5040 H   0  0  0  0  0  0  0  0  0  0  0  0
   34.5850   28.1880   49.2740 S   0  0  0  0  0  0  0  0  0  0  0  0
   35.0460   29.6810   50.1680 C   0  0  0  0  0  0  0  0  0  0  0  0
   34.4100   29.7450   51.0740 H   0  0  0  0  0  0  0  0  0  0  0  0
   34.7350   30.5560   49.5280 H   0  0  0  0  0  0  0  0  0  0  0  0
   36.7790   29.7910   50.5790 S   0  0  0  0  0  0  0  0  0  0  0  0
   37.6190   30.7420   49.3370 C   0  0  0  0  0  0  0  0  0  0  0  0
   38.0280   31.9970   49.7520 C   0  0  0  0  0  0  0  0  0  0  0  0
   38.7040   32.8130   48.8130 C   0  0  0  0  0  0  0  0  0  0  0  0
   38.9120   32.3140   47.5610 N   0  0  0  0  0  0  0  0  0  0  0  0
   38.4840   31.0810   47.2300 C   0  0  0  0  0  0  0  0  0  0  0  0
   37.8520   30.3060   48.0890 N   0  0  0  0  0  0  0  0  0  0  0  0
   37.8850   32.4340   50.7370 H   0  0  0  0  0  0  0  0  0  0  0  0
   39.0400   33.7930   49.0870 H   0  0  0  0  0  0  0  0  0  0  0  0
   38.6780   30.7340   46.2140 H   0  0  0  0  0  0  0  0  0  0  0  0
   30.6840   28.5600   47.4060 O   0  0  0  0  0  0  0  0  0  0  0  0
   29.3430   28.2740   47.2510 C   0  0  0  0  0  2  0  0  0  0  0  0
   28.9150   27.0030   47.7340 N   0  0  0  0  0  4  0  0  0  0  0  0
   29.6570   26.3080   47.9090 H   0  0  0  0  0  0  0  0  0  0  0  0
   28.1400   27.0720   48.9670 C   0  0  0  0  0  2  0  0  0  0  0  0
   28.5280   27.8400   49.6420 H   0  0  0  0  0  0  0  0  0  0  0  0
   28.0350   26.4350   46.7110 C   0  0  0  0  0  2  0  0  0  0  0  0
   27.0100   26.2290   47.1150 H   0  0  0  0  0  0  0  0  0  0  0  0
  1  2  1  0  0  0  0
  1  7  1  1  0  0  0
  2  8  1  1  0  0  0
  2 16  1  0  0  0  0
  3  9  1  0  0  0  0
  3  2  1  0  0  0  0
  4  3  1  0  0  0  0
  5  4  1  0  0  0  0
  5  6  1  0  0  0  0
  6 13  1  6  0  0  0
  6 30  1  0  0  0  0
  6  1  1  0  0  0  0
 10  3  1  0  0  0  0
 11  5  1  0  0  0  0
 12  5  1  0  0  0  0
 14 15  1  0  0  0  0
 14  1  1  0  0  0  0
 16 17  1  0  0  0  0
 17 20  1  0  0  0  0
 17 18  1  0  0  0  0
 19 17  1  0  0  0  0
 21 22  1  0  0  0  0
 21 20  1  0  0  0  0
 22 27  1  0  0  0  0
 23 28  1  0  0  0  0
 23 22  2  0  0  0  0
 24 23  1  0  0  0  0
 25 24  2  0  0  0  0
 25 26  1  0  0  0  0
 26 21  2  0  0  0  0
 29 25  1  0  0  0  0
 31 30  1  0  0  0  0
 31 32  1  0  0  0  0
 32 33  1  0  0  0  0
 32 34  1  0  0  0  0
 34 35  1  0  0  0  0
 36 37  1  0  0  0  0
 36 32  1  0  0  0  0
M  END
>  <minimizedAffinity>
-4.11516428

>  <minimizedRMSD>
0.758508742

$$$$
