
 OpenBabel03272500423D

 46 48  0  0  1  0  0  0  0  0999 V2000
   35.9970   30.8640   46.4950 C   0  0  1  0  0  0  0  0  0  0  0  0
   35.6770   29.6980   45.7550 C   0  0  0  0  0  0  0  0  0  0  0  0
   36.1020   29.5420   47.1800 C   0  0  2  0  0  0  0  0  0  0  0  0
   35.1900   31.5480   46.8870 H   0  0  0  0  0  0  0  0  0  0  0  0
   34.7450   29.3750   45.3280 H   0  0  0  0  0  0  0  0  0  0  0  0
   36.5070   29.3780   45.0460 H   0  0  0  0  0  0  0  0  0  0  0  0
   37.1020   29.1400   47.4430 H   0  0  0  0  0  0  0  0  0  0  0  0
   35.6310   28.6910   49.4500 C   0  0  2  0  0  0  0  0  0  0  0  0
   35.0610   29.1190   48.1780 C   0  0  1  0  0  0  0  0  0  0  0  0
   34.1790   30.2250   48.5150 C   0  0  0  0  0  0  0  0  0  0  0  0
   34.6160   30.7990   49.7220 O   0  0  0  0  0  0  0  0  0  0  0  0
   34.8260   29.6870   50.4550 C   0  0  0  0  0  0  0  0  0  0  0  0
   35.4410   27.6900   49.8280 H   0  0  0  0  0  0  0  0  0  0  0  0
   34.4770   28.2910   47.7060 H   0  0  0  0  0  0  0  0  0  0  0  0
   33.9970   31.0520   47.8640 H   0  0  0  0  0  0  0  0  0  0  0  0
   33.1660   29.8000   48.7780 H   0  0  0  0  0  0  0  0  0  0  0  0
   35.4100   29.7640   51.3680 H   0  0  0  0  0  0  0  0  0  0  0  0
   33.8820   29.1140   50.5860 H   0  0  0  0  0  0  0  0  0  0  0  0
   36.9140   29.1850   49.6480 O   0  0  0  0  0  0  0  0  0  0  0  0
   37.4200   29.1920   50.8280 C   0  0  0  0  0  0  0  0  0  0  0  0
   36.8560   29.7880   51.5750 H   0  0  0  0  0  0  0  0  0  0  0  0
   37.4630   28.1620   51.2800 H   0  0  0  0  0  0  0  0  0  0  0  0
   38.4640   29.5650   50.8440 H   0  0  0  0  0  0  0  0  0  0  0  0
   37.3440   31.5570   46.3510 C   0  0  0  0  0  0  0  0  0  0  0  0
   38.0610   31.8070   47.5060 C   0  0  0  0  0  0  0  0  0  0  0  0
   39.2670   32.4480   47.3500 C   0  0  0  0  0  0  0  0  0  0  0  0
   39.6920   32.8000   46.0970 N   0  0  0  0  0  0  0  0  0  0  0  0
   38.9710   32.5460   44.9690 C   0  0  0  0  0  0  0  0  0  0  0  0
   37.7810   31.9140   45.1160 N   0  0  0  0  0  0  0  0  0  0  0  0
   39.4510   32.9340   43.6930 N   0  0  0  0  0  0  0  0  0  0  0  0
   37.7310   31.5320   48.4910 H   0  0  0  0  0  0  0  0  0  0  0  0
   39.9350   32.7090   48.1530 H   0  0  0  0  0  0  0  0  0  0  0  0
   39.8820   33.8720   43.5670 H   0  0  0  0  0  0  0  0  0  0  0  0
   39.3410   31.8940   42.3390 S   0  0  0  0  0  0  0  0  0  0  0  0
   39.4460   32.6220   41.0360 O   0  0  0  0  0  0  0  0  0  0  0  0
   39.7460   33.5650   40.9870 H   0  0  0  0  0  0  0  0  0  0  0  0
   37.9960   31.2230   42.3660 O   0  0  0  0  0  0  0  0  0  0  0  0
   37.9110   30.2860   42.6640 H   0  0  0  0  0  0  0  0  0  0  0  0
   40.4880   30.6740   42.4050 O   0  0  0  0  0  0  0  0  0  0  0  0
   40.0690   29.5500   43.0770 C   0  0  0  0  0  2  0  0  0  0  0  0
   40.8030   28.4090   42.5080 N   0  0  0  0  0  4  0  0  0  0  0  0
   41.4080   27.9910   43.2490 H   0  0  0  0  0  0  0  0  0  0  0  0
   39.9450   27.3820   42.0050 C   0  0  0  0  0  2  0  0  0  0  0  0
   39.9930   27.3890   40.8830 H   0  0  0  0  0  0  0  0  0  0  0  0
   41.6940   28.9420   41.4930 C   0  0  0  0  0  2  0  0  0  0  0  0
   41.1690   29.3600   40.6240 H   0  0  0  0  0  0  0  0  0  0  0  0
  1  4  1  1  0  0  0
  1  3  1  0  0  0  0
  2  1  1  0  0  0  0
  2  3  1  0  0  0  0
  3  7  1  1  0  0  0
  3  9  1  0  0  0  0
  5  2  1  0  0  0  0
  6  2  1  0  0  0  0
  8 19  1  0  0  0  0
  8 13  1  1  0  0  0
  8 12  1  0  0  0  0
  9 14  1  6  0  0  0
  9 10  1  0  0  0  0
  9  8  1  0  0  0  0
 10 16  1  0  0  0  0
 10 11  1  0  0  0  0
 11 12  1  0  0  0  0
 12 18  1  0  0  0  0
 12 17  1  0  0  0  0
 15 10  1  0  0  0  0
 19 20  1  0  0  0  0
 20 23  1  0  0  0  0
 20 22  1  0  0  0  0
 20 21  1  0  0  0  0
 24  1  1  0  0  0  0
 24 25  1  0  0  0  0
 25 31  1  0  0  0  0
 26 25  2  0  0  0  0
 26 32  1  0  0  0  0
 27 26  1  0  0  0  0
 28 29  1  0  0  0  0
 28 27  2  0  0  0  0
 29 24  2  0  0  0  0
 30 28  1  0  0  0  0
 33 30  1  0  0  0  0
 34 37  1  0  0  0  0
 34 39  1  0  0  0  0
 34 30  1  0  0  0  0
 35 34  1  0  0  0  0
 36 35  1  0  0  0  0
 37 38  1  0  0  0  0
 39 40  1  0  0  0  0
 41 40  1  0  0  0  0
 41 42  1  0  0  0  0
 43 41  1  0  0  0  0
 44 43  1  0  0  0  0
 45 41  1  0  0  0  0
 46 45  1  0  0  0  0
M  END
>  <minimizedAffinity>
-4.47584963

>  <minimizedRMSD>
3.21559262

$$$$
