
 OpenBabel03262522143D

 43 45  0  0  1  0  0  0  0  0999 V2000
   39.5600   32.9040   43.7970 C   0  0  0  0  0  0  0  0  0  0  0  0
   38.5010   32.7490   44.0500 H   0  0  0  0  0  0  0  0  0  0  0  0
   39.7060   33.7930   43.1730 H   0  0  0  0  0  0  0  0  0  0  0  0
   38.8780   29.7510   42.3120 C   0  0  1  0  0  0  0  0  0  0  0  0
   38.9140   31.2500   42.0530 C   0  0  0  0  0  0  0  0  0  0  0  0
   40.0040   31.6880   42.9990 C   0  0  2  0  0  0  0  0  0  0  0  0
   40.3390   30.6290   43.7960 O   0  0  0  0  0  0  0  0  0  0  0  0
   39.2880   29.7180   43.7760 C   0  0  0  0  0  0  0  0  0  0  0  0
   39.6310   29.2320   41.7010 H   0  0  0  0  0  0  0  0  0  0  0  0
   39.2600   31.3750   41.0260 H   0  0  0  0  0  0  0  0  0  0  0  0
   37.9580   31.7220   42.2850 H   0  0  0  0  0  0  0  0  0  0  0  0
   40.9150   31.9990   42.4470 H   0  0  0  0  0  0  0  0  0  0  0  0
   38.4410   30.0330   44.3910 H   0  0  0  0  0  0  0  0  0  0  0  0
   39.6590   28.7020   44.0460 H   0  0  0  0  0  0  0  0  0  0  0  0
   37.6130   29.2350   42.1250 O   0  0  0  0  0  0  0  0  0  0  0  0
   37.4880   28.2720   41.1650 C   0  0  0  0  0  2  0  0  0  0  0  0
   37.9700   27.0290   41.7850 N   0  0  0  0  0  4  0  0  0  0  0  0
   38.7870   27.3470   42.3820 H   0  0  0  0  0  0  0  0  0  0  0  0
   38.4160   26.0690   40.8230 C   0  0  0  0  0  2  0  0  0  0  0  0
   38.8060   26.6070   39.9360 H   0  0  0  0  0  0  0  0  0  0  0  0
   36.9840   26.4940   42.7130 C   0  0  0  0  0  2  0  0  0  0  0  0
   37.4750   26.2130   43.6870 H   0  0  0  0  0  0  0  0  0  0  0  0
   40.6560   33.0180   45.2340 S   0  0  0  0  0  0  0  0  0  0  0  0
   37.7750   31.7620   47.6580 C   0  0  0  0  0  0  0  0  0  0  0  0
   37.9310   32.5400   48.8150 C   0  0  0  0  0  0  0  0  0  0  0  0
   38.9310   33.4860   48.9010 C   0  0  0  0  0  0  0  0  0  0  0  0
   39.7480   33.6130   47.7970 C   0  0  0  0  0  0  0  0  0  0  0  0
   39.5720   32.8460   46.6920 C   0  0  0  0  0  0  0  0  0  0  0  0
   38.5970   31.9170   46.5950 N   0  0  0  0  0  0  0  0  0  0  0  0
   37.2610   32.3960   49.6460 H   0  0  0  0  0  0  0  0  0  0  0  0
   39.0600   34.0950   49.7960 H   0  0  0  0  0  0  0  0  0  0  0  0
   40.5400   34.3510   47.8440 H   0  0  0  0  0  0  0  0  0  0  0  0
   36.7020   30.7930   47.6490 C   0  0  0  0  0  0  0  0  0  0  0  0
   36.2200   30.3910   46.5870 O   0  0  0  0  0  0  0  0  0  0  0  0
   37.0120   29.6250   49.8010 C   0  0  0  0  0  0  0  0  0  0  0  0
   36.1300   30.2360   48.8810 C   0  0  0  0  0  0  0  0  0  0  0  0
   34.7720   30.2820   49.1860 C   0  0  0  0  0  0  0  0  0  0  0  0
   34.3320   29.7380   50.3580 N   0  0  0  0  0  0  0  0  0  0  0  0
   35.2070   29.1560   51.2220 C   0  0  0  0  0  0  0  0  0  0  0  0
   36.5210   29.1020   50.9450 N   0  0  0  0  0  0  0  0  0  0  0  0
   38.0840   29.5510   49.6330 H   0  0  0  0  0  0  0  0  0  0  0  0
   34.1610   30.7560   48.4520 H   0  0  0  0  0  0  0  0  0  0  0  0
   34.6870   28.7810   52.0900 H   0  0  0  0  0  0  0  0  0  0  0  0
  1  2  1  0  0  0  0
  1 23  1  0  0  0  0
  3  1  1  0  0  0  0
  4  9  1  6  0  0  0
  4  8  1  0  0  0  0
  5 11  1  0  0  0  0
  5  4  1  0  0  0  0
  5  6  1  0  0  0  0
  6 12  1  6  0  0  0
  6  7  1  0  0  0  0
  6  1  1  0  0  0  0
  8  7  1  0  0  0  0
  8 14  1  0  0  0  0
  8 13  1  0  0  0  0
 10  5  1  0  0  0  0
 15  4  1  0  0  0  0
 16 17  1  0  0  0  0
 16 15  1  0  0  0  0
 17 18  1  0  0  0  0
 17 21  1  0  0  0  0
 19 17  1  0  0  0  0
 20 19  1  0  0  0  0
 21 22  1  0  0  0  0
 23 28  1  0  0  0  0
 24 25  1  0  0  0  0
 25 26  2  0  0  0  0
 25 30  1  0  0  0  0
 26 31  1  0  0  0  0
 27 32  1  0  0  0  0
 27 26  1  0  0  0  0
 28 27  2  0  0  0  0
 29 28  1  0  0  0  0
 29 24  2  0  0  0  0
 33 24  1  0  0  0  0
 33 36  1  0  0  0  0
 34 33  2  0  0  0  0
 35 40  1  0  0  0  0
 36 37  1  0  0  0  0
 36 35  2  0  0  0  0
 37 38  2  0  0  0  0
 38 39  1  0  0  0  0
 39 43  1  0  0  0  0
 40 39  2  0  0  0  0
 41 35  1  0  0  0  0
 42 37  1  0  0  0  0
M  END
>  <minimizedAffinity>
-4.86628962

>  <minimizedRMSD>
0.187070757

$$$$
