
 OpenBabel03272500423D

 46 48  0  0  1  0  0  0  0  0999 V2000
   36.0610   30.8900   46.6390 C   0  0  1  0  0  0  0  0  0  0  0  0
   35.7200   29.7690   45.8420 C   0  0  0  0  0  0  0  0  0  0  0  0
   36.1300   29.5340   47.2590 C   0  0  2  0  0  0  0  0  0  0  0  0
   35.2660   31.5730   47.0580 H   0  0  0  0  0  0  0  0  0  0  0  0
   34.7830   29.4890   45.3930 H   0  0  0  0  0  0  0  0  0  0  0  0
   36.5470   29.4650   45.1230 H   0  0  0  0  0  0  0  0  0  0  0  0
   37.1190   29.0970   47.5100 H   0  0  0  0  0  0  0  0  0  0  0  0
   35.6180   28.6610   49.5120 C   0  0  2  0  0  0  0  0  0  0  0  0
   35.0720   29.0880   48.2300 C   0  0  1  0  0  0  0  0  0  0  0  0
   34.1640   30.1780   48.5520 C   0  0  0  0  0  0  0  0  0  0  0  0
   34.5630   30.7500   49.7730 O   0  0  0  0  0  0  0  0  0  0  0  0
   34.7730   29.6370   50.5040 C   0  0  0  0  0  0  0  0  0  0  0  0
   35.4350   27.6540   49.8790 H   0  0  0  0  0  0  0  0  0  0  0  0
   34.5130   28.2550   47.7380 H   0  0  0  0  0  0  0  0  0  0  0  0
   33.9850   31.0060   47.9030 H   0  0  0  0  0  0  0  0  0  0  0  0
   33.1520   29.7350   48.7880 H   0  0  0  0  0  0  0  0  0  0  0  0
   35.3340   29.7170   51.4310 H   0  0  0  0  0  0  0  0  0  0  0  0
   33.8360   29.0480   50.6080 H   0  0  0  0  0  0  0  0  0  0  0  0
   36.8880   29.1740   49.7450 O   0  0  0  0  0  0  0  0  0  0  0  0
   37.3550   29.2050   50.9400 C   0  0  0  0  0  0  0  0  0  0  0  0
   36.7590   29.8050   51.6580 H   0  0  0  0  0  0  0  0  0  0  0  0
   37.3950   28.1820   51.4100 H   0  0  0  0  0  0  0  0  0  0  0  0
   38.3930   29.5920   50.9850 H   0  0  0  0  0  0  0  0  0  0  0  0
   37.4240   31.5570   46.5370 C   0  0  0  0  0  0  0  0  0  0  0  0
   38.0190   31.9780   47.7110 C   0  0  0  0  0  0  0  0  0  0  0  0
   39.2440   32.5920   47.5920 C   0  0  0  0  0  0  0  0  0  0  0  0
   39.8020   32.7560   46.3520 N   0  0  0  0  0  0  0  0  0  0  0  0
   39.2000   32.3350   45.2040 C   0  0  0  0  0  0  0  0  0  0  0  0
   37.9930   31.7280   45.3160 N   0  0  0  0  0  0  0  0  0  0  0  0
   39.8160   32.5300   43.9430 N   0  0  0  0  0  0  0  0  0  0  0  0
   37.5840   31.8520   48.6860 H   0  0  0  0  0  0  0  0  0  0  0  0
   39.8260   32.9710   48.4130 H   0  0  0  0  0  0  0  0  0  0  0  0
   40.2700   33.4400   43.7250 H   0  0  0  0  0  0  0  0  0  0  0  0
   39.8350   31.3000   42.7540 S   0  0  0  0  0  0  0  0  0  0  0  0
   40.0720   31.8280   41.3740 O   0  0  0  0  0  0  0  0  0  0  0  0
   40.3790   32.7570   41.2150 H   0  0  0  0  0  0  0  0  0  0  0  0
   38.4910   30.6280   42.7470 O   0  0  0  0  0  0  0  0  0  0  0  0
   38.3720   29.7440   43.1710 H   0  0  0  0  0  0  0  0  0  0  0  0
   40.9640   30.1150   43.1120 O   0  0  0  0  0  0  0  0  0  0  0  0
   41.3670   29.3800   42.0220 C   0  0  0  0  0  2  0  0  0  0  0  0
   40.1730   28.7100   41.4890 N   0  0  0  0  0  4  0  0  0  0  0  0
   39.3390   29.3140   41.6620 H   0  0  0  0  0  0  0  0  0  0  0  0
   40.2510   28.4580   40.0840 C   0  0  0  0  0  2  0  0  0  0  0  0
   40.3840   27.3540   39.9230 H   0  0  0  0  0  0  0  0  0  0  0  0
   39.9810   27.4990   42.2670 C   0  0  0  0  0  2  0  0  0  0  0  0
   40.7730   26.7540   42.1170 H   0  0  0  0  0  0  0  0  0  0  0  0
  1  4  1  1  0  0  0
  1  3  1  0  0  0  0
  2  1  1  0  0  0  0
  2  3  1  0  0  0  0
  3  7  1  1  0  0  0
  3  9  1  0  0  0  0
  5  2  1  0  0  0  0
  6  2  1  0  0  0  0
  8 19  1  0  0  0  0
  8 13  1  1  0  0  0
  8 12  1  0  0  0  0
  9 14  1  6  0  0  0
  9 10  1  0  0  0  0
  9  8  1  0  0  0  0
 10 16  1  0  0  0  0
 10 11  1  0  0  0  0
 11 12  1  0  0  0  0
 12 18  1  0  0  0  0
 12 17  1  0  0  0  0
 15 10  1  0  0  0  0
 19 20  1  0  0  0  0
 20 23  1  0  0  0  0
 20 22  1  0  0  0  0
 20 21  1  0  0  0  0
 24  1  1  0  0  0  0
 24 25  1  0  0  0  0
 25 31  1  0  0  0  0
 26 25  2  0  0  0  0
 26 32  1  0  0  0  0
 27 26  1  0  0  0  0
 28 29  1  0  0  0  0
 28 27  2  0  0  0  0
 29 24  2  0  0  0  0
 30 28  1  0  0  0  0
 33 30  1  0  0  0  0
 34 39  1  0  0  0  0
 34 30  1  0  0  0  0
 35 34  1  0  0  0  0
 36 35  1  0  0  0  0
 37 34  1  0  0  0  0
 37 38  1  0  0  0  0
 40 39  1  0  0  0  0
 41 42  1  0  0  0  0
 41 40  1  0  0  0  0
 41 45  1  0  0  0  0
 43 41  1  0  0  0  0
 44 43  1  0  0  0  0
 46 45  1  0  0  0  0
M  END
>  <minimizedAffinity>
-4.25491524

>  <minimizedRMSD>
3.29000425

$$$$
