
 OpenBabel03262522143D

 43 45  0  0  1  0  0  0  0  0999 V2000
   39.3790   33.0020   43.7520 C   0  0  0  0  0  0  0  0  0  0  0  0
   38.3740   32.6590   44.0370 H   0  0  0  0  0  0  0  0  0  0  0  0
   39.3460   33.9350   43.1780 H   0  0  0  0  0  0  0  0  0  0  0  0
   39.1810   29.8330   42.1620 C   0  0  1  0  0  0  0  0  0  0  0  0
   38.9180   31.3200   41.9760 C   0  0  0  0  0  0  0  0  0  0  0  0
   39.9780   31.9210   42.8660 C   0  0  2  0  0  0  0  0  0  0  0  0
   40.5640   30.9160   43.5830 O   0  0  0  0  0  0  0  0  0  0  0  0
   39.7030   29.8250   43.5910 C   0  0  0  0  0  0  0  0  0  0  0  0
   39.9670   29.4870   41.4750 H   0  0  0  0  0  0  0  0  0  0  0  0
   39.1540   31.5450   40.9360 H   0  0  0  0  0  0  0  0  0  0  0  0
   37.9120   31.5940   42.2980 H   0  0  0  0  0  0  0  0  0  0  0  0
   40.7700   32.4180   42.2680 H   0  0  0  0  0  0  0  0  0  0  0  0
   38.8630   29.9510   44.2780 H   0  0  0  0  0  0  0  0  0  0  0  0
   40.2760   28.8880   43.7820 H   0  0  0  0  0  0  0  0  0  0  0  0
   38.0230   29.0940   42.0380 O   0  0  0  0  0  0  0  0  0  0  0  0
   37.7570   28.2120   43.0450 C   0  0  0  0  0  2  0  0  0  0  0  0
   37.9360   26.8740   42.4590 N   0  0  0  0  0  4  0  0  0  0  0  0
   38.2190   27.0740   41.4570 H   0  0  0  0  0  0  0  0  0  0  0  0
   36.7340   26.0990   42.4790 C   0  0  0  0  0  2  0  0  0  0  0  0
   35.8650   26.7830   42.4090 H   0  0  0  0  0  0  0  0  0  0  0  0
   39.0680   26.1890   43.0640 C   0  0  0  0  0  2  0  0  0  0  0  0
   39.7240   25.7360   42.2680 H   0  0  0  0  0  0  0  0  0  0  0  0
   40.5110   33.2200   45.1490 S   0  0  0  0  0  0  0  0  0  0  0  0
   37.7700   31.7830   47.6350 C   0  0  0  0  0  0  0  0  0  0  0  0
   37.9670   32.5040   48.8230 C   0  0  0  0  0  0  0  0  0  0  0  0
   38.9530   33.4650   48.9120 C   0  0  0  0  0  0  0  0  0  0  0  0
   39.7140   33.6650   47.7800 C   0  0  0  0  0  0  0  0  0  0  0  0
   39.5000   32.9520   46.6450 C   0  0  0  0  0  0  0  0  0  0  0  0
   38.5390   32.0090   46.5450 N   0  0  0  0  0  0  0  0  0  0  0  0
   37.3390   32.3040   49.6750 H   0  0  0  0  0  0  0  0  0  0  0  0
   39.1130   34.0300   49.8300 H   0  0  0  0  0  0  0  0  0  0  0  0
   40.4940   34.4150   47.8280 H   0  0  0  0  0  0  0  0  0  0  0  0
   36.7160   30.7940   47.6250 C   0  0  0  0  0  0  0  0  0  0  0  0
   36.2520   30.3740   46.5620 O   0  0  0  0  0  0  0  0  0  0  0  0
   37.0240   29.6270   49.7780 C   0  0  0  0  0  0  0  0  0  0  0  0
   36.1430   30.2380   48.8570 C   0  0  0  0  0  0  0  0  0  0  0  0
   34.7850   30.2840   49.1610 C   0  0  0  0  0  0  0  0  0  0  0  0
   34.3440   29.7400   50.3330 N   0  0  0  0  0  0  0  0  0  0  0  0
   35.2180   29.1590   51.1970 C   0  0  0  0  0  0  0  0  0  0  0  0
   36.5330   29.1050   50.9220 N   0  0  0  0  0  0  0  0  0  0  0  0
   38.0970   29.5540   49.6110 H   0  0  0  0  0  0  0  0  0  0  0  0
   34.1740   30.7570   48.4260 H   0  0  0  0  0  0  0  0  0  0  0  0
   34.6970   28.7840   52.0660 H   0  0  0  0  0  0  0  0  0  0  0  0
  1  2  1  0  0  0  0
  1 23  1  0  0  0  0
  3  1  1  0  0  0  0
  4  9  1  6  0  0  0
  4  8  1  0  0  0  0
  5  4  1  0  0  0  0
  5 11  1  0  0  0  0
  5  6  1  0  0  0  0
  6 12  1  6  0  0  0
  6  7  1  0  0  0  0
  6  1  1  0  0  0  0
  7  8  1  0  0  0  0
  8 14  1  0  0  0  0
  8 13  1  0  0  0  0
 10  5  1  0  0  0  0
 15  4  1  0  0  0  0
 15 16  1  0  0  0  0
 17 19  1  0  0  0  0
 17 16  1  0  0  0  0
 17 21  1  0  0  0  0
 18 17  1  0  0  0  0
 20 19  1  0  0  0  0
 22 21  1  0  0  0  0
 23 28  1  0  0  0  0
 24 25  1  0  0  0  0
 25 26  2  0  0  0  0
 25 30  1  0  0  0  0
 26 31  1  0  0  0  0
 27 32  1  0  0  0  0
 27 26  1  0  0  0  0
 28 27  2  0  0  0  0
 29 28  1  0  0  0  0
 29 24  2  0  0  0  0
 33 24  1  0  0  0  0
 33 36  1  0  0  0  0
 34 33  2  0  0  0  0
 35 40  1  0  0  0  0
 36 37  1  0  0  0  0
 36 35  2  0  0  0  0
 37 38  2  0  0  0  0
 38 39  1  0  0  0  0
 39 43  1  0  0  0  0
 40 39  2  0  0  0  0
 41 35  1  0  0  0  0
 42 37  1  0  0  0  0
M  END
>  <minimizedAffinity>
-5.04394817

>  <minimizedRMSD>
1.42323184

$$$$
