
 OpenBabel03262522143D

 43 45  0  0  1  0  0  0  0  0999 V2000
   39.3420   32.9930   43.7540 C   0  0  0  0  0  0  0  0  0  0  0  0
   38.3310   32.6850   44.0590 H   0  0  0  0  0  0  0  0  0  0  0  0
   39.3220   33.8540   43.0770 H   0  0  0  0  0  0  0  0  0  0  0  0
   39.2070   29.6310   42.6180 C   0  0  1  0  0  0  0  0  0  0  0  0
   38.8950   31.0710   42.2370 C   0  0  0  0  0  0  0  0  0  0  0  0
   39.9540   31.8180   43.0090 C   0  0  2  0  0  0  0  0  0  0  0  0
   40.5870   30.9370   43.8410 O   0  0  0  0  0  0  0  0  0  0  0  0
   39.7600   29.8340   44.0200 C   0  0  0  0  0  0  0  0  0  0  0  0
   39.9890   29.2170   41.9640 H   0  0  0  0  0  0  0  0  0  0  0  0
   39.1010   31.1580   41.1700 H   0  0  0  0  0  0  0  0  0  0  0  0
   37.8880   31.3590   42.5440 H   0  0  0  0  0  0  0  0  0  0  0  0
   40.7180   32.2500   42.3290 H   0  0  0  0  0  0  0  0  0  0  0  0
   38.9320   30.0300   44.7040 H   0  0  0  0  0  0  0  0  0  0  0  0
   40.3660   28.9480   44.3220 H   0  0  0  0  0  0  0  0  0  0  0  0
   38.0710   28.8510   42.6250 O   0  0  0  0  0  0  0  0  0  0  0  0
   38.0340   27.8270   41.7230 C   0  0  0  0  0  2  0  0  0  0  0  0
   39.2620   27.0500   41.9530 N   0  0  0  0  0  4  0  0  0  0  0  0
   39.9440   27.7680   42.3340 H   0  0  0  0  0  0  0  0  0  0  0  0
   39.7830   26.4740   40.7530 C   0  0  0  0  0  2  0  0  0  0  0  0
   39.5170   27.1250   39.8970 H   0  0  0  0  0  0  0  0  0  0  0  0
   39.0710   26.0790   43.0210 C   0  0  0  0  0  2  0  0  0  0  0  0
   39.9300   26.1210   43.7480 H   0  0  0  0  0  0  0  0  0  0  0  0
   40.4490   33.3700   45.1380 S   0  0  0  0  0  0  0  0  0  0  0  0
   37.7840   31.8220   47.6400 C   0  0  0  0  0  0  0  0  0  0  0  0
   37.9980   32.5110   48.8440 C   0  0  0  0  0  0  0  0  0  0  0  0
   38.9710   33.4830   48.9390 C   0  0  0  0  0  0  0  0  0  0  0  0
   39.7040   33.7260   47.7970 C   0  0  0  0  0  0  0  0  0  0  0  0
   39.4760   33.0440   46.6470 C   0  0  0  0  0  0  0  0  0  0  0  0
   38.5250   32.0900   46.5410 N   0  0  0  0  0  0  0  0  0  0  0  0
   37.3920   32.2770   49.7040 H   0  0  0  0  0  0  0  0  0  0  0  0
   39.1440   34.0230   49.8700 H   0  0  0  0  0  0  0  0  0  0  0  0
   40.4750   34.4860   47.8500 H   0  0  0  0  0  0  0  0  0  0  0  0
   36.7440   30.8180   47.6240 C   0  0  0  0  0  0  0  0  0  0  0  0
   36.2940   30.3880   46.5590 O   0  0  0  0  0  0  0  0  0  0  0  0
   37.0460   29.6360   49.7690 C   0  0  0  0  0  0  0  0  0  0  0  0
   36.1680   30.2580   48.8530 C   0  0  0  0  0  0  0  0  0  0  0  0
   34.8110   30.3100   49.1570 C   0  0  0  0  0  0  0  0  0  0  0  0
   34.3670   29.7610   50.3260 N   0  0  0  0  0  0  0  0  0  0  0  0
   35.2380   29.1700   51.1870 C   0  0  0  0  0  0  0  0  0  0  0  0
   36.5520   29.1090   50.9100 N   0  0  0  0  0  0  0  0  0  0  0  0
   38.1180   29.5570   49.6010 H   0  0  0  0  0  0  0  0  0  0  0  0
   34.2020   30.7910   48.4260 H   0  0  0  0  0  0  0  0  0  0  0  0
   34.7150   28.7930   52.0530 H   0  0  0  0  0  0  0  0  0  0  0  0
  1  2  1  0  0  0  0
  1 23  1  0  0  0  0
  3  1  1  0  0  0  0
  4  9  1  6  0  0  0
  4 15  1  0  0  0  0
  4  8  1  0  0  0  0
  5 11  1  0  0  0  0
  5  4  1  0  0  0  0
  5  6  1  0  0  0  0
  6 12  1  6  0  0  0
  6  1  1  0  0  0  0
  6  7  1  0  0  0  0
  7  8  1  0  0  0  0
  8 14  1  0  0  0  0
  8 13  1  0  0  0  0
 10  5  1  0  0  0  0
 16 17  1  0  0  0  0
 16 15  1  0  0  0  0
 17 18  1  0  0  0  0
 17 21  1  0  0  0  0
 19 17  1  0  0  0  0
 20 19  1  0  0  0  0
 21 22  1  0  0  0  0
 23 28  1  0  0  0  0
 24 25  1  0  0  0  0
 25 26  2  0  0  0  0
 25 30  1  0  0  0  0
 26 31  1  0  0  0  0
 27 32  1  0  0  0  0
 27 26  1  0  0  0  0
 28 27  2  0  0  0  0
 29 28  1  0  0  0  0
 29 24  2  0  0  0  0
 33 24  1  0  0  0  0
 33 36  1  0  0  0  0
 34 33  2  0  0  0  0
 35 40  1  0  0  0  0
 36 37  1  0  0  0  0
 36 35  2  0  0  0  0
 37 38  2  0  0  0  0
 38 39  1  0  0  0  0
 39 43  1  0  0  0  0
 40 39  2  0  0  0  0
 41 35  1  0  0  0  0
 42 37  1  0  0  0  0
M  END
>  <minimizedAffinity>
-5.06997538

>  <minimizedRMSD>
0.497377664

$$$$
