
 OpenBabel03262522143D

 43 45  0  0  1  0  0  0  0  0999 V2000
   39.5840   32.9540   43.7920 C   0  0  0  0  0  0  0  0  0  0  0  0
   38.5170   32.8590   44.0410 H   0  0  0  0  0  0  0  0  0  0  0  0
   39.7860   33.8460   43.1890 H   0  0  0  0  0  0  0  0  0  0  0  0
   38.7500   29.8180   42.3480 C   0  0  1  0  0  0  0  0  0  0  0  0
   38.8010   31.3170   42.0880 C   0  0  0  0  0  0  0  0  0  0  0  0
   39.9540   31.7310   42.9680 C   0  0  2  0  0  0  0  0  0  0  0  0
   40.3150   30.6640   43.7420 O   0  0  0  0  0  0  0  0  0  0  0  0
   39.2480   29.7740   43.7850 C   0  0  0  0  0  0  0  0  0  0  0  0
   39.4540   29.2850   41.6920 H   0  0  0  0  0  0  0  0  0  0  0  0
   39.0860   31.4370   41.0430 H   0  0  0  0  0  0  0  0  0  0  0  0
   37.8700   31.8070   42.3790 H   0  0  0  0  0  0  0  0  0  0  0  0
   40.8370   32.0250   42.3620 H   0  0  0  0  0  0  0  0  0  0  0  0
   38.4460   30.1040   44.4500 H   0  0  0  0  0  0  0  0  0  0  0  0
   39.6140   28.7490   44.0300 H   0  0  0  0  0  0  0  0  0  0  0  0
   37.4660   29.3280   42.2370 O   0  0  0  0  0  0  0  0  0  0  0  0
   37.3320   27.9700   42.2750 C   0  0  0  0  0  2  0  0  0  0  0  0
   36.1850   27.7090   43.1590 N   0  0  0  0  0  4  0  0  0  0  0  0
   36.6340   27.4900   44.0950 H   0  0  0  0  0  0  0  0  0  0  0  0
   35.3980   26.5960   42.7260 C   0  0  0  0  0  2  0  0  0  0  0  0
   36.0530   25.8750   42.2000 H   0  0  0  0  0  0  0  0  0  0  0  0
   35.4030   28.9190   43.3670 C   0  0  0  0  0  2  0  0  0  0  0  0
   35.1780   29.0570   44.4620 H   0  0  0  0  0  0  0  0  0  0  0  0
   40.6820   32.9670   45.2320 S   0  0  0  0  0  0  0  0  0  0  0  0
   37.7760   31.7530   47.6490 C   0  0  0  0  0  0  0  0  0  0  0  0
   37.9290   32.5430   48.7990 C   0  0  0  0  0  0  0  0  0  0  0  0
   38.9340   33.4850   48.8820 C   0  0  0  0  0  0  0  0  0  0  0  0
   39.7590   33.5950   47.7830 C   0  0  0  0  0  0  0  0  0  0  0  0
   39.5870   32.8180   46.6850 C   0  0  0  0  0  0  0  0  0  0  0  0
   38.6070   31.8930   46.5910 N   0  0  0  0  0  0  0  0  0  0  0  0
   37.2520   32.4110   49.6270 H   0  0  0  0  0  0  0  0  0  0  0  0
   39.0600   34.1020   49.7710 H   0  0  0  0  0  0  0  0  0  0  0  0
   40.5550   34.3280   47.8270 H   0  0  0  0  0  0  0  0  0  0  0  0
   36.6980   30.7910   47.6430 C   0  0  0  0  0  0  0  0  0  0  0  0
   36.2090   30.3940   46.5820 O   0  0  0  0  0  0  0  0  0  0  0  0
   37.0120   29.6280   49.7960 C   0  0  0  0  0  0  0  0  0  0  0  0
   36.1280   30.2350   48.8760 C   0  0  0  0  0  0  0  0  0  0  0  0
   34.7710   30.2780   49.1820 C   0  0  0  0  0  0  0  0  0  0  0  0
   34.3320   29.7340   50.3550 N   0  0  0  0  0  0  0  0  0  0  0  0
   35.2090   29.1560   51.2190 C   0  0  0  0  0  0  0  0  0  0  0  0
   36.5230   29.1050   50.9420 N   0  0  0  0  0  0  0  0  0  0  0  0
   38.0850   29.5570   49.6280 H   0  0  0  0  0  0  0  0  0  0  0  0
   34.1580   30.7480   48.4470 H   0  0  0  0  0  0  0  0  0  0  0  0
   34.6900   28.7820   52.0890 H   0  0  0  0  0  0  0  0  0  0  0  0
  1  2  1  0  0  0  0
  1 23  1  0  0  0  0
  3  1  1  0  0  0  0
  4  9  1  6  0  0  0
  4  8  1  0  0  0  0
  5  4  1  0  0  0  0
  5 11  1  0  0  0  0
  5  6  1  0  0  0  0
  6 12  1  6  0  0  0
  6  7  1  0  0  0  0
  6  1  1  0  0  0  0
  7  8  1  0  0  0  0
  8 14  1  0  0  0  0
  8 13  1  0  0  0  0
 10  5  1  0  0  0  0
 15 16  1  0  0  0  0
 15  4  1  0  0  0  0
 16 17  1  0  0  0  0
 17 21  1  0  0  0  0
 17 18  1  0  0  0  0
 19 17  1  0  0  0  0
 20 19  1  0  0  0  0
 21 22  1  0  0  0  0
 23 28  1  0  0  0  0
 24 25  1  0  0  0  0
 25 26  2  0  0  0  0
 25 30  1  0  0  0  0
 26 31  1  0  0  0  0
 27 32  1  0  0  0  0
 27 26  1  0  0  0  0
 28 27  2  0  0  0  0
 29 28  1  0  0  0  0
 29 24  2  0  0  0  0
 33 24  1  0  0  0  0
 33 36  1  0  0  0  0
 34 33  2  0  0  0  0
 35 40  1  0  0  0  0
 36 37  1  0  0  0  0
 36 35  2  0  0  0  0
 37 38  2  0  0  0  0
 38 39  1  0  0  0  0
 39 43  1  0  0  0  0
 40 39  2  0  0  0  0
 41 35  1  0  0  0  0
 42 37  1  0  0  0  0
M  END
>  <minimizedAffinity>
-4.89084101

>  <minimizedRMSD>
0.742165148

$$$$
