
 OpenBabel03272504413D

 43 44  0  0  0  0  0  0  0  0999 V2000
   34.7900   29.4150   48.8350 C   0  0  0  0  0  0  0  0  0  0  0  0
   34.1240   30.2240   49.2480 H   0  0  0  0  0  0  0  0  0  0  0  0
   35.6880   29.4530   49.4840 H   0  0  0  0  0  0  0  0  0  0  0  0
   37.5580   30.4670   48.5250 Cl  0  0  0  0  0  0  0  0  0  0  0  0
   36.4030   30.3040   47.1880 C   0  0  0  0  0  0  0  0  0  0  0  0
   36.7840   30.6710   45.9460 C   0  0  0  0  0  0  0  0  0  0  0  0
   35.9010   30.5490   44.8990 C   0  0  0  0  0  0  0  0  0  0  0  0
   34.6330   30.0470   45.1570 C   0  0  0  0  0  0  0  0  0  0  0  0
   34.3070   29.6870   46.4720 C   0  0  0  0  0  0  0  0  0  0  0  0
   35.1660   29.8010   47.5050 C   0  0  0  0  0  0  0  0  0  0  0  0
   36.2310   30.8520   43.8990 H   0  0  0  0  0  0  0  0  0  0  0  0
   34.0180   29.9910   44.2710 H   0  0  0  0  0  0  0  0  0  0  0  0
   33.3040   29.3410   46.4340 H   0  0  0  0  0  0  0  0  0  0  0  0
   39.7690   32.8350   45.9950 C   0  0  0  0  0  0  0  0  0  0  0  0
   40.6420   32.1000   45.1100 C   0  0  0  0  0  0  0  0  0  0  0  0
   40.1630   30.9050   44.5440 C   0  0  0  0  0  0  0  0  0  0  0  0
   38.9060   30.4940   44.8520 N   0  0  0  0  0  0  0  0  0  0  0  0
   38.1110   31.2060   45.6860 C   0  0  0  0  0  0  0  0  0  0  0  0
   38.5460   32.3510   46.2400 N   0  0  0  0  0  0  0  0  0  0  0  0
   40.1430   33.7490   46.4250 H   0  0  0  0  0  0  0  0  0  0  0  0
   41.6170   32.5390   44.9500 H   0  0  0  0  0  0  0  0  0  0  0  0
   41.0440   30.2350   43.7010 N   0  0  0  0  0  0  0  0  0  0  0  0
   40.9250   29.7920   42.7720 H   0  0  0  0  0  0  0  0  0  0  0  0
   42.0510   30.0990   43.9750 H   0  0  0  0  0  0  0  0  0  0  0  0
   34.1400   28.1110   49.0600 C   0  0  0  0  0  0  0  0  0  0  0  0
   34.6150   27.5030   49.8630 H   0  0  0  0  0  0  0  0  0  0  0  0
   34.2670   27.4910   48.1320 H   0  0  0  0  0  0  0  0  0  0  0  0
   32.8070   28.2560   49.3430 O   0  0  0  0  0  0  0  0  0  0  0  0
   32.7030   26.4910   47.3910 O   0  0  0  0  0  0  0  0  0  0  0  0
   31.8770   27.4000   48.2550 P   0  0  2  0  0  0  0  0  0  0  0  0
   31.0800   28.5730   47.2660 O   0  0  0  0  0  0  0  0  0  0  0  0
   30.6720   27.9110   46.1110 C   0  0  0  0  0  0  0  0  0  0  0  0
   29.3600   28.2810   45.6750 N   0  0  0  0  0  0  0  0  0  0  0  0
   28.6210   27.6000   45.9620 H   0  0  0  0  0  0  0  0  0  0  0  0
   28.9510   29.5820   46.1630 C   0  0  0  0  0  0  0  0  0  0  0  0
   29.3550   30.3970   45.5250 H   0  0  0  0  0  0  0  0  0  0  0  0
   29.3560   28.3370   44.2250 C   0  0  0  0  0  0  0  0  0  0  0  0
   30.3900   28.3010   43.8330 H   0  0  0  0  0  0  0  0  0  0  0  0
   30.6760   26.5190   48.9880 O   0  0  0  0  0  0  0  0  0  0  0  0
   29.8620   27.3340   49.7500 C   0  0  0  0  0  0  0  0  0  0  0  0
   29.3110   26.6690   50.8450 F   0  0  0  0  0  0  0  0  0  0  0  0
   30.5650   28.4080   50.2680 F   0  0  0  0  0  0  0  0  0  0  0  0
   28.8100   27.8130   48.9760 F   0  0  0  0  0  0  0  0  0  0  0  0
  1 25  1  0  0  0  0
  1  2  1  0  0  0  0
  1  3  1  0  0  0  0
  5 10  1  0  0  0  0
  5  4  1  0  0  0  0
  6  5  2  0  0  0  0
  7  8  2  0  0  0  0
  7  6  1  0  0  0  0
  8  9  1  0  0  0  0
  9 10  2  0  0  0  0
 10  1  1  0  0  0  0
 11  7  1  0  0  0  0
 12  8  1  0  0  0  0
 13  9  1  0  0  0  0
 14 19  1  0  0  0  0
 14 20  1  0  0  0  0
 15 14  2  0  0  0  0
 16 17  2  0  0  0  0
 16 15  1  0  0  0  0
 17 18  1  0  0  0  0
 18  6  1  0  0  0  0
 18 19  2  0  0  0  0
 21 15  1  0  0  0  0
 22 24  1  0  0  0  0
 22 16  1  0  0  0  0
 23 22  1  0  0  0  0
 25 28  1  0  0  0  0
 25 26  1  0  0  0  0
 27 25  1  0  0  0  0
 30 29  2  6  0  0  0
 30 39  1  0  0  0  0
 30 28  1  0  0  0  0
 31 30  1  0  0  0  0
 32 31  1  0  0  0  0
 33 34  1  0  0  0  0
 33 32  1  0  0  0  0
 33 35  1  0  0  0  0
 36 35  1  0  0  0  0
 37 33  1  0  0  0  0
 38 37  1  0  0  0  0
 39 40  1  0  0  0  0
 40 42  1  0  0  0  0
 40 41  1  0  0  0  0
 43 40  1  0  0  0  0
M  END
>  <minimizedAffinity>
-5.46834755

>  <minimizedRMSD>
0.198268175

$$$$
