
 OpenBabel03272508263D

 36 38  0  0  1  0  0  0  0  0999 V2000
   33.7980   28.8720   47.2540 C   0  0  2  0  0  0  0  0  0  0  0  0
   34.5490   28.0990   48.3120 C   0  0  2  0  0  0  0  0  0  0  0  0
   33.6550   27.8970   49.3160 O   0  0  0  0  0  0  0  0  0  0  0  0
   32.3650   27.9920   48.8630 C   0  0  0  0  0  0  0  0  0  0  0  0
   32.4240   28.2280   47.3540 C   0  0  1  0  0  0  0  0  0  0  0  0
   33.6350   29.9350   47.5560 H   0  0  0  0  0  0  0  0  0  0  0  0
   34.8480   27.1360   47.8760 H   0  0  0  0  0  0  0  0  0  0  0  0
   31.7360   27.1410   49.1300 H   0  0  0  0  0  0  0  0  0  0  0  0
   31.9070   28.9110   49.2970 H   0  0  0  0  0  0  0  0  0  0  0  0
   32.4620   27.1950   46.9260 H   0  0  0  0  0  0  0  0  0  0  0  0
   35.6010   30.3700   49.0070 C   0  0  1  0  0  0  0  0  0  0  0  0
   35.6980   28.9500   48.7590 C   0  0  1  0  0  0  0  0  0  0  0  0
   35.8520   29.4000   50.1730 C   0  0  0  0  0  0  0  0  0  0  0  0
   34.6850   30.9670   49.1980 H   0  0  0  0  0  0  0  0  0  0  0  0
   36.6620   28.6180   48.2700 H   0  0  0  0  0  0  0  0  0  0  0  0
   35.0290   29.2120   50.8920 H   0  0  0  0  0  0  0  0  0  0  0  0
   36.8550   29.3700   50.6320 H   0  0  0  0  0  0  0  0  0  0  0  0
   36.7860   31.2860   48.7750 C   0  0  0  0  0  0  0  0  0  0  0  0
   37.0340   32.2770   49.7290 C   0  0  0  0  0  0  0  0  0  0  0  0
   38.1130   33.1040   49.4560 C   0  0  0  0  0  0  0  0  0  0  0  0
   38.8660   32.9380   48.3210 N   0  0  0  0  0  0  0  0  0  0  0  0
   38.5870   31.9590   47.4220 C   0  0  0  0  0  0  0  0  0  0  0  0
   37.5390   31.1300   47.6540 N   0  0  0  0  0  0  0  0  0  0  0  0
   36.4420   32.3960   50.6070 H   0  0  0  0  0  0  0  0  0  0  0  0
   38.4000   33.9050   50.1210 H   0  0  0  0  0  0  0  0  0  0  0  0
   39.1610   31.8070   46.5260 H   0  0  0  0  0  0  0  0  0  0  0  0
   34.3180   28.7640   45.9920 O   0  0  0  0  0  0  0  0  0  0  0  0
   34.2020   29.6380   45.5360 H   0  0  0  0  0  0  0  0  0  0  0  0
   31.4040   29.0060   46.9040 O   0  0  0  0  0  0  0  0  0  0  0  0
   30.1570   28.4540   47.0670 C   0  0  0  0  0  2  0  0  0  0  0  0
   29.1920   29.2380   47.7740 N   0  0  0  0  0  4  0  0  0  0  0  0
   29.6700   30.1100   48.1270 H   0  0  0  0  0  0  0  0  0  0  0  0
   28.6870   28.5080   48.9580 C   0  0  0  0  0  2  0  0  0  0  0  0
   28.2660   27.5560   48.6190 H   0  0  0  0  0  0  0  0  0  0  0  0
   28.0180   29.5750   47.0080 C   0  0  0  0  0  2  0  0  0  0  0  0
   27.0590   29.3610   47.5680 H   0  0  0  0  0  0  0  0  0  0  0  0
  1  5  1  0  0  0  0
  1  6  1  1  0  0  0
  1  2  1  0  0  0  0
  2  7  1  6  0  0  0
  2 12  1  0  0  0  0
  2  3  1  0  0  0  0
  4  8  1  0  0  0  0
  4  9  1  0  0  0  0
  4  3  1  0  0  0  0
  5 10  1  6  0  0  0
  5  4  1  0  0  0  0
 11 14  1  6  0  0  0
 11 13  1  0  0  0  0
 12 15  1  6  0  0  0
 12 11  1  0  0  0  0
 12 13  1  0  0  0  0
 13 17  1  0  0  0  0
 13 16  1  0  0  0  0
 18 11  1  0  0  0  0
 18 19  1  0  0  0  0
 19 24  1  0  0  0  0
 20 19  2  0  0  0  0
 20 25  1  0  0  0  0
 21 20  1  0  0  0  0
 22 23  1  0  0  0  0
 22 21  2  0  0  0  0
 23 18  2  0  0  0  0
 26 22  1  0  0  0  0
 27  1  1  0  0  0  0
 28 27  1  0  0  0  0
 29 30  1  0  0  0  0
 29  5  1  0  0  0  0
 30 31  1  0  0  0  0
 31 32  1  0  0  0  0
 31 33  1  0  0  0  0
 34 33  1  0  0  0  0
 35 36  1  0  0  0  0
 35 31  1  0  0  0  0
M  END
>  <minimizedAffinity>
-5.09500313

>  <minimizedRMSD>
1.17141938

$$$$
