
 OpenBabel03262521483D

 28 28  0  0  0  0  0  0  0  0999 V2000
   38.0290   25.4890   36.3970 C   0  0  0  0  0  0  0  0  0  0  0  0
   37.2400   25.1440   35.7050 H   0  0  0  0  0  0  0  0  0  0  0  0
   37.5810   25.5270   37.4100 H   0  0  0  0  0  0  0  0  0  0  0  0
   38.4980   26.8370   35.9640 C   0  0  0  0  0  0  0  0  0  0  0  0
   38.2320   27.6410   36.6960 H   0  0  0  0  0  0  0  0  0  0  0  0
   39.6100   26.8830   35.8950 H   0  0  0  0  0  0  0  0  0  0  0  0
   37.9880   27.2670   34.6620 C   0  0  0  0  0  0  0  0  0  0  0  0
   36.7630   27.8820   34.5040 C   0  0  0  0  0  0  0  0  0  0  0  0
   36.3590   28.2600   33.2140 C   0  0  0  0  0  0  0  0  0  0  0  0
   37.2110   27.9960   32.1700 N   0  0  0  0  0  0  0  0  0  0  0  0
   38.4170   27.3830   32.3780 C   0  0  0  0  0  0  0  0  0  0  0  0
   38.7970   27.0230   33.6220 N   0  0  0  0  0  0  0  0  0  0  0  0
   36.1320   28.0650   35.3670 H   0  0  0  0  0  0  0  0  0  0  0  0
   35.4070   28.7440   33.0500 H   0  0  0  0  0  0  0  0  0  0  0  0
   39.0690   27.1890   31.5190 H   0  0  0  0  0  0  0  0  0  0  0  0
   39.1220   24.6270   36.4100 O   0  0  0  0  0  0  0  0  0  0  0  0
   37.1630   22.9920   36.9580 O   0  0  0  0  0  0  0  0  0  0  0  0
   38.6860   23.0830   36.9660 P   0  0  2  0  0  0  0  0  0  0  0  0
   39.1680   22.8320   38.5470 O   0  0  0  0  0  0  0  0  0  0  0  0
   39.4220   23.7250   38.9380 H   0  0  0  0  0  0  0  0  0  0  0  0
   39.3570   21.8920   35.9810 O   0  0  0  0  0  0  0  0  0  0  0  0
   40.6470   22.1800   35.5850 C   0  0  0  0  0  2  0  0  0  0  0  0
   41.5220   22.4480   36.7150 N   0  0  0  0  0  4  0  0  0  0  0  0
   40.9580   22.8740   37.4840 H   0  0  0  0  0  0  0  0  0  0  0  0
   42.5760   23.3660   36.3480 C   0  0  0  0  0  2  0  0  0  0  0  0
   43.5460   22.8620   36.5770 H   0  0  0  0  0  0  0  0  0  0  0  0
   42.0470   21.1820   37.1760 C   0  0  0  0  0  2  0  0  0  0  0  0
   42.4160   20.5820   36.3080 H   0  0  0  0  0  0  0  0  0  0  0  0
  1 16  1  0  0  0  0
  1  3  1  0  0  0  0
  2  1  1  0  0  0  0
  4  1  1  0  0  0  0
  4  5  1  0  0  0  0
  6  4  1  0  0  0  0
  7  4  1  0  0  0  0
  8  7  1  0  0  0  0
  8 13  1  0  0  0  0
  9  8  2  0  0  0  0
 10 11  2  0  0  0  0
 10  9  1  0  0  0  0
 11 12  1  0  0  0  0
 12  7  2  0  0  0  0
 14  9  1  0  0  0  0
 15 11  1  0  0  0  0
 16 18  1  0  0  0  0
 18 17  2  6  0  0  0
 18 19  1  0  0  0  0
 19 20  1  0  0  0  0
 21 18  1  0  0  0  0
 22 21  1  0  0  0  0
 22 23  1  0  0  0  0
 23 27  1  0  0  0  0
 23 24  1  0  0  0  0
 25 26  1  0  0  0  0
 25 23  1  0  0  0  0
 28 27  1  0  0  0  0
M  END
>  <minimizedAffinity>
-3.93663836

$$$$

 OpenBabel03262521483D

 28 28  0  0  0  0  0  0  0  0999 V2000
   38.0700   25.5150   36.3640 C   0  0  0  0  0  0  0  0  0  0  0  0
   37.3370   25.2090   35.5970 H   0  0  0  0  0  0  0  0  0  0  0  0
   37.5400   25.5130   37.3380 H   0  0  0  0  0  0  0  0  0  0  0  0
   38.5840   26.8740   36.0310 C   0  0  0  0  0  0  0  0  0  0  0  0
   37.8000   27.6670   36.1320 H   0  0  0  0  0  0  0  0  0  0  0  0
   39.3900   27.1930   36.7310 H   0  0  0  0  0  0  0  0  0  0  0  0
   39.1370   26.9990   34.6820 C   0  0  0  0  0  0  0  0  0  0  0  0
   38.3480   27.0450   33.5510 C   0  0  0  0  0  0  0  0  0  0  0  0
   38.9720   27.1670   32.3000 C   0  0  0  0  0  0  0  0  0  0  0  0
   40.3430   27.2350   32.2670 N   0  0  0  0  0  0  0  0  0  0  0  0
   41.0810   27.1850   33.4180 C   0  0  0  0  0  0  0  0  0  0  0  0
   40.4740   27.0670   34.6180 N   0  0  0  0  0  0  0  0  0  0  0  0
   37.2700   26.9870   33.6390 H   0  0  0  0  0  0  0  0  0  0  0  0
   38.3890   27.2060   31.3910 H   0  0  0  0  0  0  0  0  0  0  0  0
   42.1740   27.2420   33.3520 H   0  0  0  0  0  0  0  0  0  0  0  0
   39.1510   24.6400   36.4290 O   0  0  0  0  0  0  0  0  0  0  0  0
   37.1510   23.0490   36.9610 O   0  0  0  0  0  0  0  0  0  0  0  0
   38.6760   23.1080   36.9860 P   0  0  2  0  0  0  0  0  0  0  0  0
   39.1330   22.8540   38.5740 O   0  0  0  0  0  0  0  0  0  0  0  0
   39.4020   23.7430   38.9640 H   0  0  0  0  0  0  0  0  0  0  0  0
   39.3340   21.8990   36.0150 O   0  0  0  0  0  0  0  0  0  0  0  0
   40.6200   22.1750   35.6020 C   0  0  0  0  0  2  0  0  0  0  0  0
   41.5080   22.4550   36.7200 N   0  0  0  0  0  4  0  0  0  0  0  0
   40.9560   22.9110   37.4820 H   0  0  0  0  0  0  0  0  0  0  0  0
   42.5770   23.3430   36.3240 C   0  0  0  0  0  2  0  0  0  0  0  0
   43.5380   22.8280   36.5610 H   0  0  0  0  0  0  0  0  0  0  0  0
   42.0120   21.1920   37.2100 C   0  0  0  0  0  2  0  0  0  0  0  0
   42.3640   20.5630   36.3560 H   0  0  0  0  0  0  0  0  0  0  0  0
  1 16  1  0  0  0  0
  1  3  1  0  0  0  0
  2  1  1  0  0  0  0
  4  5  1  0  0  0  0
  4  1  1  0  0  0  0
  4  6  1  0  0  0  0
  7  4  1  0  0  0  0
  8 13  1  0  0  0  0
  8  7  2  0  0  0  0
  9  8  1  0  0  0  0
 10  9  2  0  0  0  0
 10 11  1  0  0  0  0
 11 12  2  0  0  0  0
 12  7  1  0  0  0  0
 14  9  1  0  0  0  0
 15 11  1  0  0  0  0
 16 18  1  0  0  0  0
 18 17  2  6  0  0  0
 18 19  1  0  0  0  0
 19 20  1  0  0  0  0
 21 18  1  0  0  0  0
 22 21  1  0  0  0  0
 22 23  1  0  0  0  0
 23 27  1  0  0  0  0
 23 24  1  0  0  0  0
 25 26  1  0  0  0  0
 25 23  1  0  0  0  0
 28 27  1  0  0  0  0
M  END
>  <minimizedAffinity>
-3.8474555

$$$$

 OpenBabel03262521483D

 28 28  0  0  0  0  0  0  0  0999 V2000
   39.7680   26.3230   34.4990 C   0  0  0  0  0  0  0  0  0  0  0  0
   40.8290   26.6220   34.5710 H   0  0  0  0  0  0  0  0  0  0  0  0
   39.2500   26.7490   35.3810 H   0  0  0  0  0  0  0  0  0  0  0  0
   39.6830   24.8340   34.4880 C   0  0  0  0  0  0  0  0  0  0  0  0
   38.8780   24.4550   33.8090 H   0  0  0  0  0  0  0  0  0  0  0  0
   40.6170   24.3710   34.0950 H   0  0  0  0  0  0  0  0  0  0  0  0
   39.4460   24.2310   35.8000 C   0  0  0  0  0  0  0  0  0  0  0  0
   40.2510   23.2410   36.3250 C   0  0  0  0  0  0  0  0  0  0  0  0
   39.9430   22.7240   37.5930 C   0  0  0  0  0  0  0  0  0  0  0  0
   38.8500   23.2350   38.2490 N   0  0  0  0  0  0  0  0  0  0  0  0
   38.0820   24.2180   37.6850 C   0  0  0  0  0  0  0  0  0  0  0  0
   38.3850   24.7090   36.4650 N   0  0  0  0  0  0  0  0  0  0  0  0
   41.1010   22.8770   35.7600 H   0  0  0  0  0  0  0  0  0  0  0  0
   40.5490   21.9480   38.0370 H   0  0  0  0  0  0  0  0  0  0  0  0
   37.2180   24.6000   38.2390 H   0  0  0  0  0  0  0  0  0  0  0  0
   39.1700   26.8060   33.3380 O   0  0  0  0  0  0  0  0  0  0  0  0
   37.0230   28.2020   32.8320 O   0  0  0  0  0  0  0  0  0  0  0  0
   37.4840   26.9150   33.5100 P   0  0  2  0  0  0  0  0  0  0  0  0
   37.0290   27.0350   35.1150 O   0  0  0  0  0  0  0  0  0  0  0  0
   37.8520   27.2480   35.6540 H   0  0  0  0  0  0  0  0  0  0  0  0
   36.7340   25.5760   32.8160 O   0  0  0  0  0  0  0  0  0  0  0  0
   37.1910   25.2970   31.5440 C   0  0  0  0  0  2  0  0  0  0  0  0
   36.1790   24.6450   30.7270 N   0  0  0  0  0  4  0  0  0  0  0  0
   36.5030   24.6360   29.7340 H   0  0  0  0  0  0  0  0  0  0  0  0
   34.9200   25.3520   30.7980 C   0  0  0  0  0  2  0  0  0  0  0  0
   34.1510   24.6210   31.1440 H   0  0  0  0  0  0  0  0  0  0  0  0
   36.0550   23.2800   31.1850 C   0  0  0  0  0  2  0  0  0  0  0  0
   35.9800   23.2550   32.2990 H   0  0  0  0  0  0  0  0  0  0  0  0
  1  2  1  0  0  0  0
  1  3  1  0  0  0  0
  4  1  1  0  0  0  0
  4  7  1  0  0  0  0
  5  4  1  0  0  0  0
  6  4  1  0  0  0  0
  7  8  2  0  0  0  0
  7 12  1  0  0  0  0
  8  9  1  0  0  0  0
  9 14  1  0  0  0  0
  9 10  2  0  0  0  0
 11 15  1  0  0  0  0
 11 10  1  0  0  0  0
 12 11  2  0  0  0  0
 13  8  1  0  0  0  0
 16 18  1  0  0  0  0
 16  1  1  0  0  0  0
 18 17  2  6  0  0  0
 18 19  1  0  0  0  0
 19 20  1  0  0  0  0
 21 18  1  0  0  0  0
 22 21  1  0  0  0  0
 23 25  1  0  0  0  0
 23 27  1  0  0  0  0
 23 22  1  0  0  0  0
 24 23  1  0  0  0  0
 25 26  1  0  0  0  0
 27 28  1  0  0  0  0
M  END
>  <minimizedAffinity>
-3.82832074

$$$$

 OpenBabel03262521483D

 28 28  0  0  0  0  0  0  0  0999 V2000
   38.0740   25.5150   36.4880 C   0  0  0  0  0  0  0  0  0  0  0  0
   37.1480   25.2300   35.9580 H   0  0  0  0  0  0  0  0  0  0  0  0
   37.8370   25.5280   37.5710 H   0  0  0  0  0  0  0  0  0  0  0  0
   38.5110   26.8600   36.0150 C   0  0  0  0  0  0  0  0  0  0  0  0
   38.0250   27.6940   36.5810 H   0  0  0  0  0  0  0  0  0  0  0  0
   39.6020   27.0170   36.1740 H   0  0  0  0  0  0  0  0  0  0  0  0
   38.2610   27.1130   34.5960 C   0  0  0  0  0  0  0  0  0  0  0  0
   37.0160   27.4440   34.1020 C   0  0  0  0  0  0  0  0  0  0  0  0
   36.8760   27.6700   32.7240 C   0  0  0  0  0  0  0  0  0  0  0  0
   37.9920   27.5490   31.9340 N   0  0  0  0  0  0  0  0  0  0  0  0
   39.2070   27.2180   32.4730 C   0  0  0  0  0  0  0  0  0  0  0  0
   39.3330   27.0020   33.7980 N   0  0  0  0  0  0  0  0  0  0  0  0
   36.1700   27.5250   34.7740 H   0  0  0  0  0  0  0  0  0  0  0  0
   35.9170   27.9310   32.2990 H   0  0  0  0  0  0  0  0  0  0  0  0
   40.0760   27.1310   31.8100 H   0  0  0  0  0  0  0  0  0  0  0  0
   39.1060   24.6100   36.2550 O   0  0  0  0  0  0  0  0  0  0  0  0
   37.2020   23.0030   37.0340 O   0  0  0  0  0  0  0  0  0  0  0  0
   38.7130   23.0610   36.8300 P   0  0  2  0  0  0  0  0  0  0  0  0
   39.4050   22.7590   38.3220 O   0  0  0  0  0  0  0  0  0  0  0  0
   39.7330   23.6350   38.6940 H   0  0  0  0  0  0  0  0  0  0  0  0
   39.2110   21.8830   35.7340 O   0  0  0  0  0  0  0  0  0  0  0  0
   39.1260   22.2940   34.4200 C   0  0  0  0  0  2  0  0  0  0  0  0
   37.7760   22.6970   34.0570 N   0  0  0  0  0  4  0  0  0  0  0  0
   37.3120   23.1140   34.8960 H   0  0  0  0  0  0  0  0  0  0  0  0
   36.9980   21.5630   33.6120 C   0  0  0  0  0  2  0  0  0  0  0  0
   36.6240   21.8020   32.5870 H   0  0  0  0  0  0  0  0  0  0  0  0
   37.8790   23.7130   33.0340 C   0  0  0  0  0  2  0  0  0  0  0  0
   38.6010   23.3900   32.2460 H   0  0  0  0  0  0  0  0  0  0  0  0
  1  3  1  0  0  0  0
  2  1  1  0  0  0  0
  4  6  1  0  0  0  0
  4  1  1  0  0  0  0
  4  5  1  0  0  0  0
  7  4  1  0  0  0  0
  8  7  1  0  0  0  0
  8 13  1  0  0  0  0
  9  8  2  0  0  0  0
 10 11  2  0  0  0  0
 10  9  1  0  0  0  0
 11 12  1  0  0  0  0
 12  7  2  0  0  0  0
 14  9  1  0  0  0  0
 15 11  1  0  0  0  0
 16  1  1  0  0  0  0
 16 18  1  0  0  0  0
 18 17  2  1  0  0  0
 18 19  1  0  0  0  0
 19 20  1  0  0  0  0
 21 18  1  0  0  0  0
 22 21  1  0  0  0  0
 23 22  1  0  0  0  0
 23 24  1  0  0  0  0
 25 23  1  0  0  0  0
 26 25  1  0  0  0  0
 27 23  1  0  0  0  0
 28 27  1  0  0  0  0
M  END
>  <minimizedAffinity>
-3.8259685

$$$$

 OpenBabel03262521483D

 28 28  0  0  0  0  0  0  0  0999 V2000
   37.8340   25.0980   33.9650 C   0  0  0  0  0  0  0  0  0  0  0  0
   38.0560   26.1460   33.6940 H   0  0  0  0  0  0  0  0  0  0  0  0
   37.0690   25.1250   34.7670 H   0  0  0  0  0  0  0  0  0  0  0  0
   39.0880   24.4440   34.4380 C   0  0  0  0  0  0  0  0  0  0  0  0
   39.3630   23.5480   33.8260 H   0  0  0  0  0  0  0  0  0  0  0  0
   39.9670   25.1230   34.3430 H   0  0  0  0  0  0  0  0  0  0  0  0
   39.0550   24.0070   35.8340 C   0  0  0  0  0  0  0  0  0  0  0  0
   39.9910   23.1470   36.3710 C   0  0  0  0  0  0  0  0  0  0  0  0
   39.8760   22.7850   37.7220 C   0  0  0  0  0  0  0  0  0  0  0  0
   38.8320   23.3100   38.4430 N   0  0  0  0  0  0  0  0  0  0  0  0
   37.9290   24.1600   37.8630 C   0  0  0  0  0  0  0  0  0  0  0  0
   38.0460   24.5020   36.5640 N   0  0  0  0  0  0  0  0  0  0  0  0
   40.7950   22.7640   35.7530 H   0  0  0  0  0  0  0  0  0  0  0  0
   40.5890   22.1150   38.1790 H   0  0  0  0  0  0  0  0  0  0  0  0
   37.1080   24.5580   38.4710 H   0  0  0  0  0  0  0  0  0  0  0  0
   37.3410   24.3730   32.8840 O   0  0  0  0  0  0  0  0  0  0  0  0
   35.2350   24.9590   31.4580 O   0  0  0  0  0  0  0  0  0  0  0  0
   36.6750   25.3980   31.7040 P   0  0  2  0  0  0  0  0  0  0  0  0
   37.4700   25.2580   30.2400 O   0  0  0  0  0  0  0  0  0  0  0  0
   38.0430   24.4310   30.2770 H   0  0  0  0  0  0  0  0  0  0  0  0
   36.7280   27.0010   32.2190 O   0  0  0  0  0  0  0  0  0  0  0  0
   37.4160   27.8260   31.3530 C   0  0  0  0  0  2  0  0  0  0  0  0
   36.5530   28.3800   30.3210 N   0  0  0  0  0  4  0  0  0  0  0  0
   35.8410   27.6620   30.0560 H   0  0  0  0  0  0  0  0  0  0  0  0
   37.3140   28.7360   29.1450 C   0  0  0  0  0  2  0  0  0  0  0  0
   37.1220   29.8170   28.9430 H   0  0  0  0  0  0  0  0  0  0  0  0
   35.8690   29.5220   30.8850 C   0  0  0  0  0  2  0  0  0  0  0  0
   36.5970   30.1780   31.4210 H   0  0  0  0  0  0  0  0  0  0  0  0
  1  4  1  0  0  0  0
  1  3  1  0  0  0  0
  2  1  1  0  0  0  0
  4  7  1  0  0  0  0
  5  4  1  0  0  0  0
  6  4  1  0  0  0  0
  7  8  2  0  0  0  0
  7 12  1  0  0  0  0
  8  9  1  0  0  0  0
  9 14  1  0  0  0  0
  9 10  2  0  0  0  0
 11 10  1  0  0  0  0
 11 15  1  0  0  0  0
 12 11  2  0  0  0  0
 13  8  1  0  0  0  0
 16  1  1  0  0  0  0
 18 17  2  6  0  0  0
 18 21  1  0  0  0  0
 18 16  1  0  0  0  0
 19 20  1  0  0  0  0
 19 18  1  0  0  0  0
 22 21  1  0  0  0  0
 23 27  1  0  0  0  0
 23 22  1  0  0  0  0
 24 23  1  0  0  0  0
 25 23  1  0  0  0  0
 26 25  1  0  0  0  0
 27 28  1  0  0  0  0
M  END
>  <minimizedAffinity>
-3.81694436

$$$$

 OpenBabel03262521483D

 28 28  0  0  0  0  0  0  0  0999 V2000
   38.6230   22.0360   34.4240 C   0  0  0  0  0  0  0  0  0  0  0  0
   39.4170   22.7980   34.3300 H   0  0  0  0  0  0  0  0  0  0  0  0
   39.0430   21.0810   34.0490 H   0  0  0  0  0  0  0  0  0  0  0  0
   37.4440   22.4620   33.6160 C   0  0  0  0  0  0  0  0  0  0  0  0
   36.6560   22.9600   34.2360 H   0  0  0  0  0  0  0  0  0  0  0  0
   37.7210   23.2270   32.8550 H   0  0  0  0  0  0  0  0  0  0  0  0
   36.7850   21.3780   32.8880 C   0  0  0  0  0  0  0  0  0  0  0  0
   35.8280   20.5650   33.4610 C   0  0  0  0  0  0  0  0  0  0  0  0
   35.2510   19.5510   32.6810 C   0  0  0  0  0  0  0  0  0  0  0  0
   35.6720   19.4200   31.3810 N   0  0  0  0  0  0  0  0  0  0  0  0
   36.6250   20.2510   30.8590 C   0  0  0  0  0  0  0  0  0  0  0  0
   37.1750   21.2240   31.6150 N   0  0  0  0  0  0  0  0  0  0  0  0
   35.5350   20.7160   34.4930 H   0  0  0  0  0  0  0  0  0  0  0  0
   34.4980   18.8940   33.0930 H   0  0  0  0  0  0  0  0  0  0  0  0
   36.9360   20.1160   29.8160 H   0  0  0  0  0  0  0  0  0  0  0  0
   38.2150   21.8710   35.7440 O   0  0  0  0  0  0  0  0  0  0  0  0
   40.1230   23.5930   36.1990 O   0  0  0  0  0  0  0  0  0  0  0  0
   38.7640   23.1440   36.7260 P   0  0  2  0  0  0  0  0  0  0  0  0
   39.0080   22.6490   38.3050 O   0  0  0  0  0  0  0  0  0  0  0  0
   39.0000   21.6430   38.3180 H   0  0  0  0  0  0  0  0  0  0  0  0
   37.6650   24.4200   36.7030 O   0  0  0  0  0  0  0  0  0  0  0  0
   38.2610   25.6450   36.4880 C   0  0  0  0  0  2  0  0  0  0  0  0
   38.6370   25.8360   35.0960 N   0  0  0  0  0  4  0  0  0  0  0  0
   39.0580   24.9490   34.7360 H   0  0  0  0  0  0  0  0  0  0  0  0
   39.6080   26.8990   34.9620 C   0  0  0  0  0  2  0  0  0  0  0  0
   39.1820   27.6460   34.2500 H   0  0  0  0  0  0  0  0  0  0  0  0
   37.4320   26.1110   34.3470 C   0  0  0  0  0  2  0  0  0  0  0  0
   36.8210   26.8820   34.8760 H   0  0  0  0  0  0  0  0  0  0  0  0
  1 16  1  0  0  0  0
  2  1  1  0  0  0  0
  3  1  1  0  0  0  0
  4  5  1  0  0  0  0
  4  1  1  0  0  0  0
  6  4  1  0  0  0  0
  7  8  1  0  0  0  0
  7  4  1  0  0  0  0
  8 13  1  0  0  0  0
  9 14  1  0  0  0  0
  9  8  2  0  0  0  0
 10  9  1  0  0  0  0
 11 10  2  0  0  0  0
 11 12  1  0  0  0  0
 12  7  2  0  0  0  0
 15 11  1  0  0  0  0
 16 18  1  0  0  0  0
 18 17  2  6  0  0  0
 18 19  1  0  0  0  0
 19 20  1  0  0  0  0
 21 18  1  0  0  0  0
 22 21  1  0  0  0  0
 23 22  1  0  0  0  0
 24 23  1  0  0  0  0
 25 23  1  0  0  0  0
 26 25  1  0  0  0  0
 27 28  1  0  0  0  0
 27 23  1  0  0  0  0
M  END
>  <minimizedAffinity>
-3.80373478

$$$$

 OpenBabel03262521483D

 28 28  0  0  0  0  0  0  0  0999 V2000
   37.8950   21.8570   33.9660 C   0  0  0  0  0  0  0  0  0  0  0  0
   36.9590   21.5600   34.4710 H   0  0  0  0  0  0  0  0  0  0  0  0
   38.6520   21.0830   34.2020 H   0  0  0  0  0  0  0  0  0  0  0  0
   38.3150   23.1960   34.4710 C   0  0  0  0  0  0  0  0  0  0  0  0
   39.2580   23.5610   33.9890 H   0  0  0  0  0  0  0  0  0  0  0  0
   37.5610   23.9810   34.2320 H   0  0  0  0  0  0  0  0  0  0  0  0
   38.5300   23.2580   35.9160 C   0  0  0  0  0  0  0  0  0  0  0  0
   37.6200   23.8260   36.7850 C   0  0  0  0  0  0  0  0  0  0  0  0
   37.9140   23.8390   38.1560 C   0  0  0  0  0  0  0  0  0  0  0  0
   39.1000   23.2810   38.5660 N   0  0  0  0  0  0  0  0  0  0  0  0
   39.9700   22.7290   37.6650 C   0  0  0  0  0  0  0  0  0  0  0  0
   39.6800   22.7220   36.3470 N   0  0  0  0  0  0  0  0  0  0  0  0
   36.6990   24.2520   36.4030 H   0  0  0  0  0  0  0  0  0  0  0  0
   37.2270   24.2740   38.8680 H   0  0  0  0  0  0  0  0  0  0  0  0
   40.9070   22.2930   38.0300 H   0  0  0  0  0  0  0  0  0  0  0  0
   37.7380   21.9390   32.5850 O   0  0  0  0  0  0  0  0  0  0  0  0
   35.3810   21.0860   33.3130 O   0  0  0  0  0  0  0  0  0  0  0  0
   36.1170   21.7110   32.1310 P   0  0  2  0  0  0  0  0  0  0  0  0
   35.9730   20.6350   30.8600 O   0  0  0  0  0  0  0  0  0  0  0  0
   36.8530   20.1570   30.7580 H   0  0  0  0  0  0  0  0  0  0  0  0
   35.4140   23.1800   31.7030 O   0  0  0  0  0  0  0  0  0  0  0  0
   36.2790   24.0210   31.0340 C   0  0  0  0  0  2  0  0  0  0  0  0
   36.5100   25.2620   31.7580 N   0  0  0  0  0  4  0  0  0  0  0  0
   36.2880   25.1080   32.7680 H   0  0  0  0  0  0  0  0  0  0  0  0
   35.6660   26.3210   31.2540 C   0  0  0  0  0  2  0  0  0  0  0  0
   36.3380   27.1590   30.9480 H   0  0  0  0  0  0  0  0  0  0  0  0
   37.9130   25.5880   31.6390 C   0  0  0  0  0  2  0  0  0  0  0  0
   38.2390   25.4880   30.5750 H   0  0  0  0  0  0  0  0  0  0  0  0
  1  3  1  0  0  0  0
  1  2  1  0  0  0  0
  1  4  1  0  0  0  0
  4  7  1  0  0  0  0
  5  4  1  0  0  0  0
  6  4  1  0  0  0  0
  7 12  2  0  0  0  0
  7  8  1  0  0  0  0
  8  9  2  0  0  0  0
  9 10  1  0  0  0  0
  9 14  1  0  0  0  0
 11 15  1  0  0  0  0
 11 10  2  0  0  0  0
 12 11  1  0  0  0  0
 13  8  1  0  0  0  0
 16  1  1  0  0  0  0
 18 16  1  0  0  0  0
 18 17  2  1  0  0  0
 19 18  1  0  0  0  0
 20 19  1  0  0  0  0
 21 18  1  0  0  0  0
 22 21  1  0  0  0  0
 22 23  1  0  0  0  0
 23 24  1  0  0  0  0
 25 23  1  0  0  0  0
 26 25  1  0  0  0  0
 27 23  1  0  0  0  0
 28 27  1  0  0  0  0
M  END
>  <minimizedAffinity>
-3.73689747

$$$$

 OpenBabel03262521483D

 28 28  0  0  0  0  0  0  0  0999 V2000
   39.3510   27.0780   32.2600 C   0  0  0  0  0  0  0  0  0  0  0  0
   40.2460   27.6810   32.0250 H   0  0  0  0  0  0  0  0  0  0  0  0
   39.6770   26.0200   32.3160 H   0  0  0  0  0  0  0  0  0  0  0  0
   38.3380   27.2740   31.1830 C   0  0  0  0  0  0  0  0  0  0  0  0
   37.8050   28.2540   31.2670 H   0  0  0  0  0  0  0  0  0  0  0  0
   38.8110   27.3020   30.1740 H   0  0  0  0  0  0  0  0  0  0  0  0
   37.3070   26.2370   31.1250 C   0  0  0  0  0  0  0  0  0  0  0  0
   35.9610   26.5250   31.0320 C   0  0  0  0  0  0  0  0  0  0  0  0
   35.0470   25.4620   30.9810 C   0  0  0  0  0  0  0  0  0  0  0  0
   35.5430   24.1820   31.0270 N   0  0  0  0  0  0  0  0  0  0  0  0
   36.8890   23.9490   31.1190 C   0  0  0  0  0  0  0  0  0  0  0  0
   37.7610   24.9770   31.1680 N   0  0  0  0  0  0  0  0  0  0  0  0
   35.6270   27.5560   30.9990 H   0  0  0  0  0  0  0  0  0  0  0  0
   33.9850   25.6460   30.9080 H   0  0  0  0  0  0  0  0  0  0  0  0
   37.2470   22.9140   31.1530 H   0  0  0  0  0  0  0  0  0  0  0  0
   38.7790   27.4480   33.4740 O   0  0  0  0  0  0  0  0  0  0  0  0
   38.7950   27.0590   36.0550 O   0  0  0  0  0  0  0  0  0  0  0  0
   39.4330   26.5560   34.7630 P   0  0  2  0  0  0  0  0  0  0  0  0
   41.0790   26.8070   34.9190 O   0  0  0  0  0  0  0  0  0  0  0  0
   41.3240   27.6090   34.3630 H   0  0  0  0  0  0  0  0  0  0  0  0
   39.1350   24.9120   34.5530 O   0  0  0  0  0  0  0  0  0  0  0  0
   38.2070   24.4110   35.4420 C   0  0  0  0  0  2  0  0  0  0  0  0
   38.8050   24.0630   36.7220 N   0  0  0  0  0  4  0  0  0  0  0  0
   39.3620   24.8780   37.0660 H   0  0  0  0  0  0  0  0  0  0  0  0
   39.6820   22.9220   36.5920 C   0  0  0  0  0  2  0  0  0  0  0  0
   39.3220   22.1460   37.3090 H   0  0  0  0  0  0  0  0  0  0  0  0
   37.7300   23.8120   37.6570 C   0  0  0  0  0  2  0  0  0  0  0  0
   36.9680   23.1420   37.1910 H   0  0  0  0  0  0  0  0  0  0  0  0
  1  3  1  0  0  0  0
  1 16  1  0  0  0  0
  2  1  1  0  0  0  0
  4  5  1  0  0  0  0
  4  1  1  0  0  0  0
  6  4  1  0  0  0  0
  7 12  1  0  0  0  0
  7  4  1  0  0  0  0
  8  7  2  0  0  0  0
  9 10  2  0  0  0  0
  9  8  1  0  0  0  0
 10 11  1  0  0  0  0
 11 15  1  0  0  0  0
 11 12  2  0  0  0  0
 13  8  1  0  0  0  0
 14  9  1  0  0  0  0
 16 18  1  0  0  0  0
 18 19  1  0  0  0  0
 18 17  2  1  0  0  0
 20 19  1  0  0  0  0
 21 18  1  0  0  0  0
 21 22  1  0  0  0  0
 22 23  1  0  0  0  0
 23 24  1  0  0  0  0
 23 27  1  0  0  0  0
 25 23  1  0  0  0  0
 25 26  1  0  0  0  0
 28 27  1  0  0  0  0
M  END
>  <minimizedAffinity>
-3.69538379

$$$$

 OpenBabel03262521483D

 28 28  0  0  0  0  0  0  0  0999 V2000
   38.3570   24.3810   36.0300 C   0  0  0  0  0  0  0  0  0  0  0  0
   38.8620   24.8210   36.9080 H   0  0  0  0  0  0  0  0  0  0  0  0
   37.2710   24.5650   36.1530 H   0  0  0  0  0  0  0  0  0  0  0  0
   38.6550   22.9210   35.9810 C   0  0  0  0  0  0  0  0  0  0  0  0
   39.5420   22.6840   35.3390 H   0  0  0  0  0  0  0  0  0  0  0  0
   38.9270   22.5220   36.9850 H   0  0  0  0  0  0  0  0  0  0  0  0
   37.5510   22.0930   35.4950 C   0  0  0  0  0  0  0  0  0  0  0  0
   36.5880   21.5640   36.3300 C   0  0  0  0  0  0  0  0  0  0  0  0
   35.5670   20.7810   35.7710 C   0  0  0  0  0  0  0  0  0  0  0  0
   35.5790   20.5820   34.4120 N   0  0  0  0  0  0  0  0  0  0  0  0
   36.5570   21.1280   33.6260 C   0  0  0  0  0  0  0  0  0  0  0  0
   37.5360   21.8790   34.1720 N   0  0  0  0  0  0  0  0  0  0  0  0
   36.6300   21.7560   37.3960 H   0  0  0  0  0  0  0  0  0  0  0  0
   34.7950   20.3500   36.3910 H   0  0  0  0  0  0  0  0  0  0  0  0
   36.5330   20.9470   32.5450 H   0  0  0  0  0  0  0  0  0  0  0  0
   38.7880   24.9580   34.8390 O   0  0  0  0  0  0  0  0  0  0  0  0
   40.5070   26.9200   34.9370 O   0  0  0  0  0  0  0  0  0  0  0  0
   39.0100   26.6340   35.0070 P   0  0  2  0  0  0  0  0  0  0  0  0
   38.4910   27.1820   36.4990 O   0  0  0  0  0  0  0  0  0  0  0  0
   38.3580   26.3810   37.0930 H   0  0  0  0  0  0  0  0  0  0  0  0
   38.1890   27.4610   33.7900 O   0  0  0  0  0  0  0  0  0  0  0  0
   37.0140   26.8450   33.4140 C   0  0  0  0  0  2  0  0  0  0  0  0
   36.4040   27.4850   32.2580 N   0  0  0  0  0  4  0  0  0  0  0  0
   35.6400   28.1170   32.5880 H   0  0  0  0  0  0  0  0  0  0  0  0
   35.8390   26.5040   31.3600 C   0  0  0  0  0  2  0  0  0  0  0  0
   36.3080   26.6650   30.3590 H   0  0  0  0  0  0  0  0  0  0  0  0
   37.4190   28.2860   31.6110 C   0  0  0  0  0  2  0  0  0  0  0  0
   38.3580   27.6920   31.4950 H   0  0  0  0  0  0  0  0  0  0  0  0
  1  3  1  0  0  0  0
  1  2  1  0  0  0  0
  4  1  1  0  0  0  0
  4  6  1  0  0  0  0
  5  4  1  0  0  0  0
  7  4  1  0  0  0  0
  7  8  1  0  0  0  0
  8 13  1  0  0  0  0
  9  8  2  0  0  0  0
  9 14  1  0  0  0  0
 10  9  1  0  0  0  0
 11 12  1  0  0  0  0
 11 10  2  0  0  0  0
 12  7  2  0  0  0  0
 15 11  1  0  0  0  0
 16 18  1  0  0  0  0
 16  1  1  0  0  0  0
 18 17  2  6  0  0  0
 18 19  1  0  0  0  0
 19 20  1  0  0  0  0
 21 18  1  0  0  0  0
 22 21  1  0  0  0  0
 23 24  1  0  0  0  0
 23 22  1  0  0  0  0
 25 23  1  0  0  0  0
 26 25  1  0  0  0  0
 27 23  1  0  0  0  0
 28 27  1  0  0  0  0
M  END
>  <minimizedAffinity>
-3.68399572

$$$$
