
 OpenBabel03272503433D

 39 41  0  0  1  0  0  0  0  0999 V2000
   36.6180   27.5860   33.5900 C   0  0  0  0  0  0  0  0  0  0  0  0
   36.1850   27.9860   32.3550 C   0  0  0  0  0  0  0  0  0  0  0  0
   35.7040   29.2850   32.5610 C   0  0  0  0  0  0  0  0  0  0  0  0
   35.8510   29.6150   33.8460 N   0  0  0  0  0  0  0  0  0  0  0  0
   36.4090   28.5800   34.4750 N   0  0  0  0  0  0  0  0  0  0  0  0
   36.1990   27.4380   31.4060 H   0  0  0  0  0  0  0  0  0  0  0  0
   35.2880   29.8520   31.7150 H   0  0  0  0  0  0  0  0  0  0  0  0
   33.9360   30.9370   34.6200 C   0  0  2  0  0  0  0  0  0  0  0  0
   35.4540   30.8920   34.3910 C   0  0  1  0  0  0  0  0  0  0  0  0
   35.9080   31.0970   35.8070 C   0  0  0  0  0  0  0  0  0  0  0  0
   35.0010   31.9650   36.3910 O   0  0  0  0  0  0  0  0  0  0  0  0
   33.9030   32.1160   35.5920 C   0  0  0  0  0  0  0  0  0  0  0  0
   33.3870   31.1420   33.6980 H   0  0  0  0  0  0  0  0  0  0  0  0
   35.7910   31.7160   33.7530 H   0  0  0  0  0  0  0  0  0  0  0  0
   36.9500   31.4010   35.9110 H   0  0  0  0  0  0  0  0  0  0  0  0
   35.7980   30.1160   36.3350 H   0  0  0  0  0  0  0  0  0  0  0  0
   32.9730   32.0310   36.1960 H   0  0  0  0  0  0  0  0  0  0  0  0
   33.9000   33.0430   34.9880 H   0  0  0  0  0  0  0  0  0  0  0  0
   33.6040   29.7700   35.2700 O   0  0  0  0  0  0  0  0  0  0  0  0
   32.3600   29.2670   34.9360 C   0  0  0  0  0  2  0  0  0  0  0  0
   31.8320   28.3850   35.9660 N   0  0  0  0  0  4  0  0  0  0  0  0
   32.5500   27.6380   36.1550 H   0  0  0  0  0  0  0  0  0  0  0  0
   30.6480   27.7000   35.4830 C   0  0  0  0  0  2  0  0  0  0  0  0
   30.8470   27.3390   34.4650 H   0  0  0  0  0  0  0  0  0  0  0  0
   31.5680   29.0900   37.1960 C   0  0  0  0  0  2  0  0  0  0  0  0
   31.7730   30.1740   37.1550 H   0  0  0  0  0  0  0  0  0  0  0  0
   38.3270   24.7540   35.3620 C   0  0  0  0  0  0  0  0  0  0  0  0
   37.7770   25.9990   35.1150 C   0  0  0  0  0  0  0  0  0  0  0  0
   37.2100   26.2930   33.9000 C   0  0  0  0  0  0  0  0  0  0  0  0
   37.2110   25.3260   32.9610 N   0  0  0  0  0  0  0  0  0  0  0  0
   37.7570   24.1020   33.2170 C   0  0  0  0  0  0  0  0  0  0  0  0
   38.3020   23.8120   34.3800 N   0  0  0  0  0  0  0  0  0  0  0  0
   37.7440   26.8230   35.8330 H   0  0  0  0  0  0  0  0  0  0  0  0
   37.7270   23.3660   32.4230 H   0  0  0  0  0  0  0  0  0  0  0  0
   38.8570   24.6320   36.6460 O   0  0  0  0  0  0  0  0  0  0  0  0
   38.1830   24.0010   37.7030 C   0  0  0  0  0  0  0  0  0  0  0  0
   37.0210   23.3540   37.2750 F   0  0  0  0  0  0  0  0  0  0  0  0
   37.8980   24.9240   38.6630 F   0  0  0  0  0  0  0  0  0  0  0  0
   39.0320   23.0490   38.2610 F   0  0  0  0  0  0  0  0  0  0  0  0
  1 29  1  0  0  0  0
  1  5  2  0  0  0  0
  2  3  2  0  0  0  0
  2  1  1  0  0  0  0
  3  4  1  0  0  0  0
  4  9  1  0  0  0  0
  4  5  1  0  0  0  0
  6  2  1  0  0  0  0
  7  3  1  0  0  0  0
  8 13  1  6  0  0  0
  8 19  1  0  0  0  0
  8 12  1  0  0  0  0
  9 14  1  6  0  0  0
  9  8  1  0  0  0  0
  9 10  1  0  0  0  0
 10 15  1  0  0  0  0
 10 16  1  0  0  0  0
 10 11  1  0  0  0  0
 12 17  1  0  0  0  0
 12 11  1  0  0  0  0
 18 12  1  0  0  0  0
 20 19  1  0  0  0  0
 20 21  1  0  0  0  0
 21 22  1  0  0  0  0
 21 25  1  0  0  0  0
 23 21  1  0  0  0  0
 24 23  1  0  0  0  0
 26 25  1  0  0  0  0
 27 35  1  0  0  0  0
 28 27  1  0  0  0  0
 28 33  1  0  0  0  0
 29 28  2  0  0  0  0
 30 31  2  0  0  0  0
 30 29  1  0  0  0  0
 31 32  1  0  0  0  0
 32 27  2  0  0  0  0
 34 31  1  0  0  0  0
 35 36  1  0  0  0  0
 36 39  1  0  0  0  0
 36 38  1  0  0  0  0
 37 36  1  0  0  0  0
M  END
>  <minimizedAffinity>
-5.38195801

$$$$

 OpenBabel03272503433D

 39 41  0  0  1  0  0  0  0  0999 V2000
   37.1030   26.8050   33.2870 C   0  0  0  0  0  0  0  0  0  0  0  0
   37.4620   26.0040   32.2370 C   0  0  0  0  0  0  0  0  0  0  0  0
   37.9430   24.8350   32.8410 C   0  0  0  0  0  0  0  0  0  0  0  0
   37.8670   24.9570   34.1680 N   0  0  0  0  0  0  0  0  0  0  0  0
   37.3550   26.1570   34.4430 N   0  0  0  0  0  0  0  0  0  0  0  0
   37.3980   26.2040   31.1620 H   0  0  0  0  0  0  0  0  0  0  0  0
   38.3050   24.0080   32.2130 H   0  0  0  0  0  0  0  0  0  0  0  0
   39.8160   23.8270   35.1370 C   0  0  2  0  0  0  0  0  0  0  0  0
   38.2850   23.9250   35.0880 C   0  0  1  0  0  0  0  0  0  0  0  0
   38.0290   24.2750   36.5250 C   0  0  0  0  0  0  0  0  0  0  0  0
   38.9730   23.5910   37.2730 O   0  0  0  0  0  0  0  0  0  0  0  0
   39.9380   23.0700   36.4590 C   0  0  0  0  0  0  0  0  0  0  0  0
   40.2190   23.2610   34.2940 H   0  0  0  0  0  0  0  0  0  0  0  0
   37.8250   22.9630   34.8370 H   0  0  0  0  0  0  0  0  0  0  0  0
   37.0000   24.1230   36.8540 H   0  0  0  0  0  0  0  0  0  0  0  0
   38.2530   25.3660   36.6450 H   0  0  0  0  0  0  0  0  0  0  0  0
   40.9480   23.2790   36.8770 H   0  0  0  0  0  0  0  0  0  0  0  0
   39.8160   21.9930   36.2360 H   0  0  0  0  0  0  0  0  0  0  0  0
   40.2850   25.1130   35.2760 O   0  0  0  0  0  0  0  0  0  0  0  0
   41.6010   25.2840   34.8870 C   0  0  0  0  0  2  0  0  0  0  0  0
   41.8930   26.6660   34.5350 N   0  0  0  0  0  4  0  0  0  0  0  0
   41.9250   27.2290   35.4250 H   0  0  0  0  0  0  0  0  0  0  0  0
   40.8140   27.2210   33.7400 C   0  0  0  0  0  2  0  0  0  0  0  0
   39.8590   26.9350   34.2020 H   0  0  0  0  0  0  0  0  0  0  0  0
   43.1630   26.7950   33.8650 C   0  0  0  0  0  2  0  0  0  0  0  0
   43.6900   25.8400   33.6960 H   0  0  0  0  0  0  0  0  0  0  0  0
   35.4280   30.0690   34.0740 C   0  0  0  0  0  0  0  0  0  0  0  0
   35.9480   28.7960   34.2290 C   0  0  0  0  0  0  0  0  0  0  0  0
   36.5410   28.1420   33.1770 C   0  0  0  0  0  0  0  0  0  0  0  0
   36.5950   28.7850   31.9940 N   0  0  0  0  0  0  0  0  0  0  0  0
   36.0780   30.0400   31.8540 C   0  0  0  0  0  0  0  0  0  0  0  0
   35.5080   30.6740   32.8580 N   0  0  0  0  0  0  0  0  0  0  0  0
   35.9360   28.2230   35.1600 H   0  0  0  0  0  0  0  0  0  0  0  0
   36.1520   30.5050   30.8790 H   0  0  0  0  0  0  0  0  0  0  0  0
   34.8640   30.5790   35.2440 O   0  0  0  0  0  0  0  0  0  0  0  0
   35.3940   31.6750   35.9410 C   0  0  0  0  0  0  0  0  0  0  0  0
   35.0850   32.8900   35.3250 F   0  0  0  0  0  0  0  0  0  0  0  0
   36.7410   31.5190   36.0570 F   0  0  0  0  0  0  0  0  0  0  0  0
   34.8510   31.6860   37.2230 F   0  0  0  0  0  0  0  0  0  0  0  0
  1  5  2  0  0  0  0
  2  3  2  0  0  0  0
  2  1  1  0  0  0  0
  3  4  1  0  0  0  0
  4  5  1  0  0  0  0
  4  9  1  0  0  0  0
  6  2  1  0  0  0  0
  7  3  1  0  0  0  0
  8 13  1  6  0  0  0
  8 19  1  0  0  0  0
  8 12  1  0  0  0  0
  9 14  1  6  0  0  0
  9  8  1  0  0  0  0
  9 10  1  0  0  0  0
 10 16  1  0  0  0  0
 10 15  1  0  0  0  0
 10 11  1  0  0  0  0
 12 17  1  0  0  0  0
 12 11  1  0  0  0  0
 18 12  1  0  0  0  0
 20 19  1  0  0  0  0
 21 20  1  0  0  0  0
 21 22  1  0  0  0  0
 23 24  1  0  0  0  0
 23 21  1  0  0  0  0
 25 21  1  0  0  0  0
 26 25  1  0  0  0  0
 27 28  1  0  0  0  0
 27 35  1  0  0  0  0
 28 33  1  0  0  0  0
 29  1  1  0  0  0  0
 29 28  2  0  0  0  0
 30 29  1  0  0  0  0
 31 30  2  0  0  0  0
 31 32  1  0  0  0  0
 32 27  2  0  0  0  0
 34 31  1  0  0  0  0
 35 36  1  0  0  0  0
 36 38  1  0  0  0  0
 36 39  1  0  0  0  0
 37 36  1  0  0  0  0
M  END
>  <minimizedAffinity>
-5.27913475

$$$$

 OpenBabel03272503433D

 39 41  0  0  1  0  0  0  0  0999 V2000
   37.1030   27.5720   33.9180 C   0  0  0  0  0  0  0  0  0  0  0  0
   37.0480   27.9300   32.5980 C   0  0  0  0  0  0  0  0  0  0  0  0
   35.9770   28.8300   32.5270 C   0  0  0  0  0  0  0  0  0  0  0  0
   35.4430   28.9820   33.7420 N   0  0  0  0  0  0  0  0  0  0  0  0
   36.1280   28.2170   34.5910 N   0  0  0  0  0  0  0  0  0  0  0  0
   37.6830   27.6040   31.7660 H   0  0  0  0  0  0  0  0  0  0  0  0
   35.7080   29.2800   31.5600 H   0  0  0  0  0  0  0  0  0  0  0  0
   34.6760   30.8820   35.0890 C   0  0  2  0  0  0  0  0  0  0  0  0
   34.3180   29.8460   34.0140 C   0  0  1  0  0  0  0  0  0  0  0  0
   34.0070   30.7830   32.8830 C   0  0  0  0  0  0  0  0  0  0  0  0
   33.4110   31.8990   33.4470 O   0  0  0  0  0  0  0  0  0  0  0  0
   33.5520   31.8780   34.8060 C   0  0  0  0  0  0  0  0  0  0  0  0
   34.6180   30.4650   36.0970 H   0  0  0  0  0  0  0  0  0  0  0  0
   33.4320   29.2650   34.2900 H   0  0  0  0  0  0  0  0  0  0  0  0
   33.4400   30.3370   32.0650 H   0  0  0  0  0  0  0  0  0  0  0  0
   34.9850   31.1230   32.4560 H   0  0  0  0  0  0  0  0  0  0  0  0
   33.8810   32.8750   35.1730 H   0  0  0  0  0  0  0  0  0  0  0  0
   32.6550   31.5300   35.3530 H   0  0  0  0  0  0  0  0  0  0  0  0
   35.8920   31.4170   34.7270 O   0  0  0  0  0  0  0  0  0  0  0  0
   36.3370   32.4290   35.5570 C   0  0  0  0  0  2  0  0  0  0  0  0
   36.6780   33.6340   34.8160 N   0  0  0  0  0  4  0  0  0  0  0  0
   35.8810   34.3160   34.9190 H   0  0  0  0  0  0  0  0  0  0  0  0
   36.7820   33.3410   33.3990 C   0  0  0  0  0  2  0  0  0  0  0  0
   35.9300   32.7110   33.1110 H   0  0  0  0  0  0  0  0  0  0  0  0
   37.8790   34.2540   35.3170 C   0  0  0  0  0  2  0  0  0  0  0  0
   38.3620   33.7100   36.1460 H   0  0  0  0  0  0  0  0  0  0  0  0
   38.6400   24.7560   35.8630 C   0  0  0  0  0  0  0  0  0  0  0  0
   37.6930   25.6120   35.3310 C   0  0  0  0  0  0  0  0  0  0  0  0
   38.0590   26.6450   34.5040 C   0  0  0  0  0  0  0  0  0  0  0  0
   39.3710   26.7910   34.2320 N   0  0  0  0  0  0  0  0  0  0  0  0
   40.2960   25.9410   34.7630 C   0  0  0  0  0  0  0  0  0  0  0  0
   39.9520   24.9480   35.5580 N   0  0  0  0  0  0  0  0  0  0  0  0
   36.6170   25.5470   35.5120 H   0  0  0  0  0  0  0  0  0  0  0  0
   41.3340   26.1090   34.5080 H   0  0  0  0  0  0  0  0  0  0  0  0
   38.0910   23.7680   36.6810 O   0  0  0  0  0  0  0  0  0  0  0  0
   38.2710   23.7290   38.0720 C   0  0  0  0  0  0  0  0  0  0  0  0
   39.5490   23.2890   38.4260 F   0  0  0  0  0  0  0  0  0  0  0  0
   37.3140   22.9330   38.6220 F   0  0  0  0  0  0  0  0  0  0  0  0
   38.0990   25.0170   38.5740 F   0  0  0  0  0  0  0  0  0  0  0  0
  1 29  1  0  0  0  0
  1  5  2  0  0  0  0
  2  1  1  0  0  0  0
  3  2  2  0  0  0  0
  3  4  1  0  0  0  0
  4  9  1  0  0  0  0
  4  5  1  0  0  0  0
  6  2  1  0  0  0  0
  7  3  1  0  0  0  0
  8 13  1  1  0  0  0
  9 14  1  1  0  0  0
  9  8  1  0  0  0  0
 10 11  1  0  0  0  0
 10  9  1  0  0  0  0
 11 12  1  0  0  0  0
 12  8  1  0  0  0  0
 12 17  1  0  0  0  0
 12 18  1  0  0  0  0
 15 10  1  0  0  0  0
 16 10  1  0  0  0  0
 19  8  1  0  0  0  0
 19 20  1  0  0  0  0
 21 22  1  0  0  0  0
 21 25  1  0  0  0  0
 21 20  1  0  0  0  0
 23 21  1  0  0  0  0
 24 23  1  0  0  0  0
 25 26  1  0  0  0  0
 27 35  1  0  0  0  0
 28 33  1  0  0  0  0
 28 27  2  0  0  0  0
 29 28  1  0  0  0  0
 30 29  2  0  0  0  0
 30 31  1  0  0  0  0
 31 32  2  0  0  0  0
 32 27  1  0  0  0  0
 34 31  1  0  0  0  0
 35 36  1  0  0  0  0
 36 37  1  0  0  0  0
 36 39  1  0  0  0  0
 36 38  1  0  0  0  0
M  END
>  <minimizedAffinity>
-5.17511654

$$$$

 OpenBabel03272503433D

 39 41  0  0  1  0  0  0  0  0999 V2000
   37.3020   27.0920   33.0030 C   0  0  0  0  0  0  0  0  0  0  0  0
   38.6240   27.1130   33.3530 C   0  0  0  0  0  0  0  0  0  0  0  0
   39.0530   25.7920   33.1700 C   0  0  0  0  0  0  0  0  0  0  0  0
   38.0300   25.0500   32.7380 N   0  0  0  0  0  0  0  0  0  0  0  0
   36.9620   25.8400   32.6350 N   0  0  0  0  0  0  0  0  0  0  0  0
   39.2350   27.9540   33.7000 H   0  0  0  0  0  0  0  0  0  0  0  0
   40.0970   25.5240   33.3850 H   0  0  0  0  0  0  0  0  0  0  0  0
   38.6000   22.8640   33.6940 C   0  0  2  0  0  0  0  0  0  0  0  0
   38.1370   23.6380   32.4510 C   0  0  1  0  0  0  0  0  0  0  0  0
   36.8050   22.9750   32.2470 C   0  0  0  0  0  0  0  0  0  0  0  0
   36.9660   21.6470   32.6060 O   0  0  0  0  0  0  0  0  0  0  0  0
   38.1580   21.4690   33.2510 C   0  0  0  0  0  0  0  0  0  0  0  0
   39.6800   22.9310   33.8410 H   0  0  0  0  0  0  0  0  0  0  0  0
   38.7940   23.4580   31.5940 H   0  0  0  0  0  0  0  0  0  0  0  0
   36.3710   23.1220   31.2570 H   0  0  0  0  0  0  0  0  0  0  0  0
   36.0950   23.4240   32.9870 H   0  0  0  0  0  0  0  0  0  0  0  0
   38.0110   20.8530   34.1660 H   0  0  0  0  0  0  0  0  0  0  0  0
   38.9630   21.0520   32.6170 H   0  0  0  0  0  0  0  0  0  0  0  0
   37.8210   23.3030   34.7400 O   0  0  0  0  0  0  0  0  0  0  0  0
   38.1840   22.7920   35.9730 C   0  0  0  0  0  2  0  0  0  0  0  0
   38.7200   23.8190   36.8540 N   0  0  0  0  0  4  0  0  0  0  0  0
   39.7460   23.9280   36.6420 H   0  0  0  0  0  0  0  0  0  0  0  0
   38.6340   23.3890   38.2370 C   0  0  0  0  0  2  0  0  0  0  0  0
   38.9730   22.3460   38.2980 H   0  0  0  0  0  0  0  0  0  0  0  0
   38.0720   25.0920   36.6560 C   0  0  0  0  0  2  0  0  0  0  0  0
   37.2640   25.0810   35.9050 H   0  0  0  0  0  0  0  0  0  0  0  0
   35.1330   29.9310   34.1500 C   0  0  0  0  0  0  0  0  0  0  0  0
   35.9890   28.8440   34.1830 C   0  0  0  0  0  0  0  0  0  0  0  0
   36.4040   28.2370   33.0230 C   0  0  0  0  0  0  0  0  0  0  0  0
   35.9470   28.7380   31.8590 N   0  0  0  0  0  0  0  0  0  0  0  0
   35.1040   29.8110   31.8400 C   0  0  0  0  0  0  0  0  0  0  0  0
   34.7020   30.3990   32.9470 N   0  0  0  0  0  0  0  0  0  0  0  0
   36.3930   28.3920   35.0920 H   0  0  0  0  0  0  0  0  0  0  0  0
   34.7720   30.1680   30.8730 H   0  0  0  0  0  0  0  0  0  0  0  0
   34.8170   30.4200   35.4180 O   0  0  0  0  0  0  0  0  0  0  0  0
   35.3710   31.5920   35.9530 C   0  0  0  0  0  0  0  0  0  0  0  0
   35.0520   32.7210   35.1950 F   0  0  0  0  0  0  0  0  0  0  0  0
   36.7200   31.4410   36.0530 F   0  0  0  0  0  0  0  0  0  0  0  0
   34.8630   31.7720   37.2370 F   0  0  0  0  0  0  0  0  0  0  0  0
  1 29  1  0  0  0  0
  1  2  1  0  0  0  0
  2  6  1  0  0  0  0
  3  2  2  0  0  0  0
  3  7  1  0  0  0  0
  4  3  1  0  0  0  0
  5  4  1  0  0  0  0
  5  1  2  0  0  0  0
  8 13  1  1  0  0  0
  8 19  1  0  0  0  0
  9 14  1  6  0  0  0
  9  4  1  0  0  0  0
  9  8  1  0  0  0  0
 10  9  1  0  0  0  0
 10 11  1  0  0  0  0
 10 16  1  0  0  0  0
 11 12  1  0  0  0  0
 12  8  1  0  0  0  0
 12 17  1  0  0  0  0
 15 10  1  0  0  0  0
 18 12  1  0  0  0  0
 19 20  1  0  0  0  0
 20 21  1  0  0  0  0
 21 23  1  0  0  0  0
 22 21  1  0  0  0  0
 23 24  1  0  0  0  0
 25 21  1  0  0  0  0
 26 25  1  0  0  0  0
 27 28  1  0  0  0  0
 27 35  1  0  0  0  0
 28 33  1  0  0  0  0
 29 28  2  0  0  0  0
 30 29  1  0  0  0  0
 31 30  2  0  0  0  0
 31 32  1  0  0  0  0
 32 27  2  0  0  0  0
 34 31  1  0  0  0  0
 35 36  1  0  0  0  0
 36 38  1  0  0  0  0
 36 39  1  0  0  0  0
 37 36  1  0  0  0  0
M  END
>  <minimizedAffinity>
-5.05625963

$$$$

 OpenBabel03272503433D

 39 41  0  0  1  0  0  0  0  0999 V2000
   36.8510   27.5320   32.6350 C   0  0  0  0  0  0  0  0  0  0  0  0
   36.6290   26.4690   31.8040 C   0  0  0  0  0  0  0  0  0  0  0  0
   37.7180   25.6170   32.0330 C   0  0  0  0  0  0  0  0  0  0  0  0
   38.5230   26.1620   32.9480 N   0  0  0  0  0  0  0  0  0  0  0  0
   37.9960   27.3300   33.3170 N   0  0  0  0  0  0  0  0  0  0  0  0
   35.8010   26.2950   31.1080 H   0  0  0  0  0  0  0  0  0  0  0  0
   37.7920   24.6680   31.4830 H   0  0  0  0  0  0  0  0  0  0  0  0
   39.7070   25.3470   34.9350 C   0  0  2  0  0  0  0  0  0  0  0  0
   39.7390   25.5370   33.4120 C   0  0  1  0  0  0  0  0  0  0  0  0
   39.8560   24.0970   33.0020 C   0  0  0  0  0  0  0  0  0  0  0  0
   40.6420   23.4760   33.9580 O   0  0  0  0  0  0  0  0  0  0  0  0
   40.8070   24.2920   35.0410 C   0  0  0  0  0  0  0  0  0  0  0  0
   39.9580   26.2660   35.4700 H   0  0  0  0  0  0  0  0  0  0  0  0
   40.6210   26.1020   33.0930 H   0  0  0  0  0  0  0  0  0  0  0  0
   40.1920   23.9420   31.9750 H   0  0  0  0  0  0  0  0  0  0  0  0
   38.8340   23.6460   33.0830 H   0  0  0  0  0  0  0  0  0  0  0  0
   40.6410   23.7210   35.9810 H   0  0  0  0  0  0  0  0  0  0  0  0
   41.7760   24.8250   35.0680 H   0  0  0  0  0  0  0  0  0  0  0  0
   38.4820   24.7930   35.2340 O   0  0  0  0  0  0  0  0  0  0  0  0
   38.1090   24.9210   36.5590 C   0  0  0  0  0  2  0  0  0  0  0  0
   37.5430   23.6900   37.0890 N   0  0  0  0  0  4  0  0  0  0  0  0
   36.5020   23.8250   37.1860 H   0  0  0  0  0  0  0  0  0  0  0  0
   38.0460   23.4400   38.4270 C   0  0  0  0  0  2  0  0  0  0  0  0
   38.0090   24.3800   38.9940 H   0  0  0  0  0  0  0  0  0  0  0  0
   37.7810   22.5670   36.2170 C   0  0  0  0  0  2  0  0  0  0  0  0
   38.3740   22.8050   35.3170 H   0  0  0  0  0  0  0  0  0  0  0  0
   34.8290   30.3610   34.0460 C   0  0  0  0  0  0  0  0  0  0  0  0
   35.6530   29.2520   33.9750 C   0  0  0  0  0  0  0  0  0  0  0  0
   35.9890   28.6970   32.7650 C   0  0  0  0  0  0  0  0  0  0  0  0
   35.4860   29.2730   31.6550 N   0  0  0  0  0  0  0  0  0  0  0  0
   34.6750   30.3660   31.7380 C   0  0  0  0  0  0  0  0  0  0  0  0
   34.3480   30.9040   32.8950 N   0  0  0  0  0  0  0  0  0  0  0  0
   36.0910   28.7410   34.8360 H   0  0  0  0  0  0  0  0  0  0  0  0
   34.3030   30.7840   30.8110 H   0  0  0  0  0  0  0  0  0  0  0  0
   34.5940   30.7880   35.3530 O   0  0  0  0  0  0  0  0  0  0  0  0
   35.4230   31.6960   36.0290 C   0  0  0  0  0  0  0  0  0  0  0  0
   35.4470   32.9490   35.4110 F   0  0  0  0  0  0  0  0  0  0  0  0
   36.6770   31.1740   36.1150 F   0  0  0  0  0  0  0  0  0  0  0  0
   34.9360   31.8580   37.3230 F   0  0  0  0  0  0  0  0  0  0  0  0
  1 29  1  0  0  0  0
  1  5  2  0  0  0  0
  2  3  2  0  0  0  0
  2  1  1  0  0  0  0
  3  4  1  0  0  0  0
  4  5  1  0  0  0  0
  4  9  1  0  0  0  0
  6  2  1  0  0  0  0
  7  3  1  0  0  0  0
  8 12  1  0  0  0  0
  8 19  1  0  0  0  0
  8 13  1  1  0  0  0
  9 14  1  6  0  0  0
  9  8  1  0  0  0  0
 10 16  1  0  0  0  0
 10  9  1  0  0  0  0
 10 11  1  0  0  0  0
 11 12  1  0  0  0  0
 12 18  1  0  0  0  0
 12 17  1  0  0  0  0
 15 10  1  0  0  0  0
 19 20  1  0  0  0  0
 20 21  1  0  0  0  0
 21 22  1  0  0  0  0
 21 23  1  0  0  0  0
 23 24  1  0  0  0  0
 25 21  1  0  0  0  0
 26 25  1  0  0  0  0
 27 35  1  0  0  0  0
 28 27  1  0  0  0  0
 28 33  1  0  0  0  0
 29 28  2  0  0  0  0
 30 31  2  0  0  0  0
 30 29  1  0  0  0  0
 31 32  1  0  0  0  0
 32 27  2  0  0  0  0
 34 31  1  0  0  0  0
 35 36  1  0  0  0  0
 36 38  1  0  0  0  0
 36 39  1  0  0  0  0
 37 36  1  0  0  0  0
M  END
>  <minimizedAffinity>
-5.0450387

$$$$

 OpenBabel03272503433D

 39 41  0  0  1  0  0  0  0  0999 V2000
   37.7690   24.9690   33.7750 C   0  0  0  0  0  0  0  0  0  0  0  0
   38.1380   24.0270   32.8540 C   0  0  0  0  0  0  0  0  0  0  0  0
   38.7390   23.0150   33.6150 C   0  0  0  0  0  0  0  0  0  0  0  0
   38.7180   23.3580   34.9050 N   0  0  0  0  0  0  0  0  0  0  0  0
   38.1270   24.5490   35.0050 N   0  0  0  0  0  0  0  0  0  0  0  0
   38.0060   24.0330   31.7660 H   0  0  0  0  0  0  0  0  0  0  0  0
   39.1340   22.1190   33.1140 H   0  0  0  0  0  0  0  0  0  0  0  0
   40.7940   22.5800   35.9530 C   0  0  2  0  0  0  0  0  0  0  0  0
   39.2600   22.5300   35.9580 C   0  0  1  0  0  0  0  0  0  0  0  0
   39.0140   23.0860   37.3310 C   0  0  0  0  0  0  0  0  0  0  0  0
   40.0410   22.6200   38.1350 O   0  0  0  0  0  0  0  0  0  0  0  0
   41.0270   22.0620   37.3710 C   0  0  0  0  0  0  0  0  0  0  0  0
   41.2250   21.9220   35.1940 H   0  0  0  0  0  0  0  0  0  0  0  0
   38.8870   21.5030   35.8830 H   0  0  0  0  0  0  0  0  0  0  0  0
   38.0150   22.8970   37.7260 H   0  0  0  0  0  0  0  0  0  0  0  0
   39.1370   24.1970   37.2660 H   0  0  0  0  0  0  0  0  0  0  0  0
   42.0240   22.4260   37.7060 H   0  0  0  0  0  0  0  0  0  0  0  0
   41.0030   20.9570   37.3290 H   0  0  0  0  0  0  0  0  0  0  0  0
   41.1420   23.9090   35.8650 O   0  0  0  0  0  0  0  0  0  0  0  0
   42.2830   24.1500   35.1210 C   0  0  0  0  0  2  0  0  0  0  0  0
   42.7090   25.5390   35.2080 N   0  0  0  0  0  4  0  0  0  0  0  0
   42.3510   25.9330   36.1160 H   0  0  0  0  0  0  0  0  0  0  0  0
   42.0920   26.3210   34.1530 C   0  0  0  0  0  2  0  0  0  0  0  0
   41.0290   26.0490   34.0950 H   0  0  0  0  0  0  0  0  0  0  0  0
   44.1450   25.6640   35.1870 C   0  0  0  0  0  2  0  0  0  0  0  0
   44.6860   24.7090   35.0770 H   0  0  0  0  0  0  0  0  0  0  0  0
   36.3750   28.4430   34.0380 C   0  0  0  0  0  0  0  0  0  0  0  0
   37.0240   27.2670   34.3690 C   0  0  0  0  0  0  0  0  0  0  0  0
   37.0990   26.2250   33.4770 C   0  0  0  0  0  0  0  0  0  0  0  0
   36.5180   26.3940   32.2720 N   0  0  0  0  0  0  0  0  0  0  0  0
   35.8810   27.5580   31.9570 C   0  0  0  0  0  0  0  0  0  0  0  0
   35.8050   28.5610   32.8080 N   0  0  0  0  0  0  0  0  0  0  0  0
   37.5130   27.0690   35.3260 H   0  0  0  0  0  0  0  0  0  0  0  0
   35.4340   27.6330   30.9740 H   0  0  0  0  0  0  0  0  0  0  0  0
   36.3950   29.3890   35.0620 O   0  0  0  0  0  0  0  0  0  0  0  0
   35.5920   30.5400   35.0650 C   0  0  0  0  0  0  0  0  0  0  0  0
   35.8100   31.3380   33.9410 F   0  0  0  0  0  0  0  0  0  0  0  0
   35.8220   31.2400   36.2100 F   0  0  0  0  0  0  0  0  0  0  0  0
   34.2570   30.1440   35.0660 F   0  0  0  0  0  0  0  0  0  0  0  0
  1  5  2  0  0  0  0
  2  3  2  0  0  0  0
  2  1  1  0  0  0  0
  3  4  1  0  0  0  0
  4  5  1  0  0  0  0
  4  9  1  0  0  0  0
  6  2  1  0  0  0  0
  7  3  1  0  0  0  0
  8 13  1  6  0  0  0
  8  9  1  0  0  0  0
  8 12  1  0  0  0  0
  9 14  1  6  0  0  0
  9 10  1  0  0  0  0
 10 15  1  0  0  0  0
 10 11  1  0  0  0  0
 12 17  1  0  0  0  0
 12 11  1  0  0  0  0
 16 10  1  0  0  0  0
 18 12  1  0  0  0  0
 19  8  1  0  0  0  0
 20 21  1  0  0  0  0
 20 19  1  0  0  0  0
 21 22  1  0  0  0  0
 23 21  1  0  0  0  0
 24 23  1  0  0  0  0
 25 21  1  0  0  0  0
 26 25  1  0  0  0  0
 27 28  1  0  0  0  0
 27 35  1  0  0  0  0
 28 33  1  0  0  0  0
 29  1  1  0  0  0  0
 29 28  2  0  0  0  0
 30 29  1  0  0  0  0
 31 30  2  0  0  0  0
 31 32  1  0  0  0  0
 32 27  2  0  0  0  0
 34 31  1  0  0  0  0
 35 36  1  0  0  0  0
 36 39  1  0  0  0  0
 36 38  1  0  0  0  0
 37 36  1  0  0  0  0
M  END
>  <minimizedAffinity>
-5.02832937

$$$$

 OpenBabel03272503433D

 39 41  0  0  1  0  0  0  0  0999 V2000
   36.3130   28.4960   31.5450 C   0  0  0  0  0  0  0  0  0  0  0  0
   37.5660   28.4810   30.9950 C   0  0  0  0  0  0  0  0  0  0  0  0
   37.8080   27.1280   30.7220 C   0  0  0  0  0  0  0  0  0  0  0  0
   36.7500   26.4030   31.0960 N   0  0  0  0  0  0  0  0  0  0  0  0
   35.8380   27.2350   31.5980 N   0  0  0  0  0  0  0  0  0  0  0  0
   38.2460   29.3170   30.8010 H   0  0  0  0  0  0  0  0  0  0  0  0
   38.7630   26.8270   30.2680 H   0  0  0  0  0  0  0  0  0  0  0  0
   37.5330   24.2690   32.0160 C   0  0  2  0  0  0  0  0  0  0  0  0
   36.6770   24.9680   30.9500 C   0  0  1  0  0  0  0  0  0  0  0  0
   35.3360   24.4050   31.3240 C   0  0  0  0  0  0  0  0  0  0  0  0
   35.5580   23.1040   31.7460 O   0  0  0  0  0  0  0  0  0  0  0  0
   36.8940   22.8840   31.9250 C   0  0  0  0  0  0  0  0  0  0  0  0
   38.5920   24.2570   31.7500 H   0  0  0  0  0  0  0  0  0  0  0  0
   36.9590   24.6590   29.9380 H   0  0  0  0  0  0  0  0  0  0  0  0
   34.5710   24.5010   30.5510 H   0  0  0  0  0  0  0  0  0  0  0  0
   34.9740   24.9750   32.2160 H   0  0  0  0  0  0  0  0  0  0  0  0
   37.0710   22.3640   32.8940 H   0  0  0  0  0  0  0  0  0  0  0  0
   37.3850   22.3460   31.0920 H   0  0  0  0  0  0  0  0  0  0  0  0
   37.2210   24.8620   33.2180 O   0  0  0  0  0  0  0  0  0  0  0  0
   38.3200   25.1880   33.9930 C   0  0  0  0  0  2  0  0  0  0  0  0
   38.3830   26.6130   34.2820 N   0  0  0  0  0  4  0  0  0  0  0  0
   38.4890   27.1260   33.3680 H   0  0  0  0  0  0  0  0  0  0  0  0
   39.5690   26.9160   35.0600 C   0  0  0  0  0  2  0  0  0  0  0  0
   40.4210   26.3810   34.6190 H   0  0  0  0  0  0  0  0  0  0  0  0
   37.1870   27.0840   34.9370 C   0  0  0  0  0  2  0  0  0  0  0  0
   36.4400   26.2990   35.1430 H   0  0  0  0  0  0  0  0  0  0  0  0
   34.7020   31.1010   33.7120 C   0  0  0  0  0  0  0  0  0  0  0  0
   35.3800   29.9590   33.3280 C   0  0  0  0  0  0  0  0  0  0  0  0
   35.6050   29.6820   32.0010 C   0  0  0  0  0  0  0  0  0  0  0  0
   35.1410   30.5640   31.0940 N   0  0  0  0  0  0  0  0  0  0  0  0
   34.4730   31.6870   31.4850 C   0  0  0  0  0  0  0  0  0  0  0  0
   34.2530   31.9590   32.7550 N   0  0  0  0  0  0  0  0  0  0  0  0
   35.7810   29.2070   34.0130 H   0  0  0  0  0  0  0  0  0  0  0  0
   34.1240   32.3570   30.7100 H   0  0  0  0  0  0  0  0  0  0  0  0
   34.5640   31.2200   35.0950 O   0  0  0  0  0  0  0  0  0  0  0  0
   35.5970   31.6570   35.9380 C   0  0  0  0  0  0  0  0  0  0  0  0
   36.6170   30.7090   36.0560 F   0  0  0  0  0  0  0  0  0  0  0  0
   35.0760   31.9630   37.1580 F   0  0  0  0  0  0  0  0  0  0  0  0
   36.1430   32.8190   35.4000 F   0  0  0  0  0  0  0  0  0  0  0  0
  1  5  2  0  0  0  0
  1 29  1  0  0  0  0
  2  1  1  0  0  0  0
  3  2  2  0  0  0  0
  3  4  1  0  0  0  0
  4  5  1  0  0  0  0
  6  2  1  0  0  0  0
  7  3  1  0  0  0  0
  8 13  1  6  0  0  0
  8 19  1  0  0  0  0
  9 14  1  6  0  0  0
  9  4  1  0  0  0  0
  9 10  1  0  0  0  0
  9  8  1  0  0  0  0
 10 11  1  0  0  0  0
 10 16  1  0  0  0  0
 11 12  1  0  0  0  0
 12  8  1  0  0  0  0
 12 17  1  0  0  0  0
 15 10  1  0  0  0  0
 18 12  1  0  0  0  0
 19 20  1  0  0  0  0
 20 21  1  0  0  0  0
 21 25  1  0  0  0  0
 21 23  1  0  0  0  0
 22 21  1  0  0  0  0
 24 23  1  0  0  0  0
 25 26  1  0  0  0  0
 27 35  1  0  0  0  0
 28 27  1  0  0  0  0
 28 33  1  0  0  0  0
 29 28  2  0  0  0  0
 30 31  2  0  0  0  0
 30 29  1  0  0  0  0
 31 32  1  0  0  0  0
 32 27  2  0  0  0  0
 34 31  1  0  0  0  0
 35 36  1  0  0  0  0
 36 37  1  0  0  0  0
 36 38  1  0  0  0  0
 39 36  1  0  0  0  0
M  END
>  <minimizedAffinity>
-5.021523

$$$$

 OpenBabel03272503433D

 39 41  0  0  1  0  0  0  0  0999 V2000
   38.9630   26.5420   33.7750 C   0  0  0  0  0  0  0  0  0  0  0  0
   39.9360   27.1360   34.5310 C   0  0  0  0  0  0  0  0  0  0  0  0
   40.8920   26.1290   34.7190 C   0  0  0  0  0  0  0  0  0  0  0  0
   40.4880   25.0140   34.1050 N   0  0  0  0  0  0  0  0  0  0  0  0
   39.3130   25.2640   33.5280 N   0  0  0  0  0  0  0  0  0  0  0  0
   39.9850   28.1610   34.9150 H   0  0  0  0  0  0  0  0  0  0  0  0
   41.7980   26.3410   35.3050 H   0  0  0  0  0  0  0  0  0  0  0  0
   41.3040   23.1810   35.5160 C   0  0  2  0  0  0  0  0  0  0  0  0
   41.2480   23.7860   34.1060 C   0  0  1  0  0  0  0  0  0  0  0  0
   40.5510   22.6600   33.3990 C   0  0  0  0  0  0  0  0  0  0  0  0
   41.0080   21.4870   33.9770 O   0  0  0  0  0  0  0  0  0  0  0  0
   41.7010   21.7590   35.1220 C   0  0  0  0  0  0  0  0  0  0  0  0
   42.0570   23.6660   36.1420 H   0  0  0  0  0  0  0  0  0  0  0  0
   42.2500   23.9410   33.6920 H   0  0  0  0  0  0  0  0  0  0  0  0
   40.6330   22.6850   32.3110 H   0  0  0  0  0  0  0  0  0  0  0  0
   39.4620   22.7370   33.6470 H   0  0  0  0  0  0  0  0  0  0  0  0
   41.3750   21.0780   35.9390 H   0  0  0  0  0  0  0  0  0  0  0  0
   42.8010   21.7420   35.0060 H   0  0  0  0  0  0  0  0  0  0  0  0
   40.0160   23.2030   36.0010 O   0  0  0  0  0  0  0  0  0  0  0  0
   39.8830   22.7000   37.2820 C   0  0  0  0  0  2  0  0  0  0  0  0
   38.5130   22.7910   37.7660 N   0  0  0  0  0  4  0  0  0  0  0  0
   38.2950   21.9060   38.2950 H   0  0  0  0  0  0  0  0  0  0  0  0
   37.5870   22.8360   36.6500 C   0  0  0  0  0  2  0  0  0  0  0  0
   37.8880   22.0750   35.9170 H   0  0  0  0  0  0  0  0  0  0  0  0
   38.3270   23.9130   38.6520 C   0  0  0  0  0  2  0  0  0  0  0  0
   39.2270   24.5350   38.7960 H   0  0  0  0  0  0  0  0  0  0  0  0
   35.8040   28.5620   33.6270 C   0  0  0  0  0  0  0  0  0  0  0  0
   36.9560   27.9720   34.1150 C   0  0  0  0  0  0  0  0  0  0  0  0
   37.7430   27.1850   33.3100 C   0  0  0  0  0  0  0  0  0  0  0  0
   37.3510   27.0130   32.0330 N   0  0  0  0  0  0  0  0  0  0  0  0
   36.2130   27.6010   31.5620 C   0  0  0  0  0  0  0  0  0  0  0  0
   35.4540   28.3560   32.3280 N   0  0  0  0  0  0  0  0  0  0  0  0
   37.3270   28.0730   35.1390 H   0  0  0  0  0  0  0  0  0  0  0  0
   35.9520   27.4250   30.5270 H   0  0  0  0  0  0  0  0  0  0  0  0
   35.1300   29.3240   34.5810 O   0  0  0  0  0  0  0  0  0  0  0  0
   35.4280   30.6690   34.8460 C   0  0  0  0  0  0  0  0  0  0  0  0
   34.3110   31.3780   35.2940 F   0  0  0  0  0  0  0  0  0  0  0  0
   35.9470   31.2390   33.7230 F   0  0  0  0  0  0  0  0  0  0  0  0
   36.4020   30.7160   35.8400 F   0  0  0  0  0  0  0  0  0  0  0  0
  1  2  1  0  0  0  0
  2  3  2  0  0  0  0
  2  6  1  0  0  0  0
  3  7  1  0  0  0  0
  4  9  1  0  0  0  0
  4  3  1  0  0  0  0
  5  1  2  0  0  0  0
  5  4  1  0  0  0  0
  8 19  1  0  0  0  0
  8 13  1  1  0  0  0
  9 14  1  6  0  0  0
  9  8  1  0  0  0  0
 10 16  1  0  0  0  0
 10 11  1  0  0  0  0
 10  9  1  0  0  0  0
 11 12  1  0  0  0  0
 12  8  1  0  0  0  0
 12 17  1  0  0  0  0
 15 10  1  0  0  0  0
 18 12  1  0  0  0  0
 19 20  1  0  0  0  0
 20 21  1  0  0  0  0
 21 22  1  0  0  0  0
 21 25  1  0  0  0  0
 23 21  1  0  0  0  0
 24 23  1  0  0  0  0
 25 26  1  0  0  0  0
 27 28  1  0  0  0  0
 27 35  1  0  0  0  0
 28 33  1  0  0  0  0
 29  1  1  0  0  0  0
 29 28  2  0  0  0  0
 30 29  1  0  0  0  0
 31 30  2  0  0  0  0
 31 32  1  0  0  0  0
 32 27  2  0  0  0  0
 34 31  1  0  0  0  0
 35 36  1  0  0  0  0
 36 37  1  0  0  0  0
 36 39  1  0  0  0  0
 38 36  1  0  0  0  0
M  END
>  <minimizedAffinity>
-4.99754286

$$$$

 OpenBabel03272503433D

 39 41  0  0  1  0  0  0  0  0999 V2000
   36.5750   27.7560   33.2720 C   0  0  0  0  0  0  0  0  0  0  0  0
   36.3160   28.3460   32.0650 C   0  0  0  0  0  0  0  0  0  0  0  0
   35.8440   29.6230   32.3980 C   0  0  0  0  0  0  0  0  0  0  0  0
   35.8310   29.7590   33.7260 N   0  0  0  0  0  0  0  0  0  0  0  0
   36.2760   28.6230   34.2610 N   0  0  0  0  0  0  0  0  0  0  0  0
   36.4400   27.9400   31.0550 H   0  0  0  0  0  0  0  0  0  0  0  0
   35.5550   30.3210   31.5990 H   0  0  0  0  0  0  0  0  0  0  0  0
   33.8790   30.9390   34.6290 C   0  0  2  0  0  0  0  0  0  0  0  0
   35.3970   30.9620   34.3980 C   0  0  1  0  0  0  0  0  0  0  0  0
   35.8470   31.0330   35.8290 C   0  0  0  0  0  0  0  0  0  0  0  0
   34.9160   31.8110   36.4970 O   0  0  0  0  0  0  0  0  0  0  0  0
   33.8130   32.0100   35.7160 C   0  0  0  0  0  0  0  0  0  0  0  0
   33.3220   31.2210   33.7320 H   0  0  0  0  0  0  0  0  0  0  0  0
   35.7090   31.8560   33.8490 H   0  0  0  0  0  0  0  0  0  0  0  0
   36.8810   31.3560   35.9640 H   0  0  0  0  0  0  0  0  0  0  0  0
   35.7670   30.0010   36.2530 H   0  0  0  0  0  0  0  0  0  0  0  0
   32.8870   31.8370   36.3080 H   0  0  0  0  0  0  0  0  0  0  0  0
   33.7820   32.9940   35.2110 H   0  0  0  0  0  0  0  0  0  0  0  0
   33.5830   29.7020   35.1560 O   0  0  0  0  0  0  0  0  0  0  0  0
   32.2530   29.3400   35.0450 C   0  0  0  0  0  2  0  0  0  0  0  0
   31.8640   28.3650   36.0530 N   0  0  0  0  0  4  0  0  0  0  0  0
   32.6490   27.6700   36.1530 H   0  0  0  0  0  0  0  0  0  0  0  0
   30.7080   27.6120   35.6060 C   0  0  0  0  0  2  0  0  0  0  0  0
   30.8650   27.3230   34.5580 H   0  0  0  0  0  0  0  0  0  0  0  0
   31.6300   28.9800   37.3360 C   0  0  0  0  0  2  0  0  0  0  0  0
   31.7460   30.0780   37.3450 H   0  0  0  0  0  0  0  0  0  0  0  0
   37.5270   24.1690   32.7190 C   0  0  0  0  0  0  0  0  0  0  0  0
   37.0230   25.4370   32.4920 C   0  0  0  0  0  0  0  0  0  0  0  0
   37.0890   26.4080   33.4610 C   0  0  0  0  0  0  0  0  0  0  0  0
   37.6620   26.0790   34.6350 N   0  0  0  0  0  0  0  0  0  0  0  0
   38.1550   24.8250   34.8470 C   0  0  0  0  0  0  0  0  0  0  0  0
   38.0950   23.8880   33.9230 N   0  0  0  0  0  0  0  0  0  0  0  0
   36.5490   25.7660   31.5630 H   0  0  0  0  0  0  0  0  0  0  0  0
   38.6040   24.6210   35.8110 H   0  0  0  0  0  0  0  0  0  0  0  0
   37.3740   23.3130   31.6290 O   0  0  0  0  0  0  0  0  0  0  0  0
   36.2360   22.5180   31.4260 C   0  0  0  0  0  0  0  0  0  0  0  0
   36.5330   21.3360   30.7430 F   0  0  0  0  0  0  0  0  0  0  0  0
   35.3010   23.2440   30.7540 F   0  0  0  0  0  0  0  0  0  0  0  0
   35.7070   22.1810   32.6690 F   0  0  0  0  0  0  0  0  0  0  0  0
  1 29  1  0  0  0  0
  1  5  2  0  0  0  0
  2  3  2  0  0  0  0
  2  1  1  0  0  0  0
  3  4  1  0  0  0  0
  4  5  1  0  0  0  0
  4  9  1  0  0  0  0
  6  2  1  0  0  0  0
  7  3  1  0  0  0  0
  8 13  1  6  0  0  0
  8 19  1  0  0  0  0
  8 12  1  0  0  0  0
  9 14  1  6  0  0  0
  9  8  1  0  0  0  0
  9 10  1  0  0  0  0
 10 15  1  0  0  0  0
 10 16  1  0  0  0  0
 10 11  1  0  0  0  0
 12 17  1  0  0  0  0
 12 11  1  0  0  0  0
 18 12  1  0  0  0  0
 20 19  1  0  0  0  0
 20 21  1  0  0  0  0
 21 22  1  0  0  0  0
 21 25  1  0  0  0  0
 23 21  1  0  0  0  0
 24 23  1  0  0  0  0
 25 26  1  0  0  0  0
 27 32  1  0  0  0  0
 28 27  2  0  0  0  0
 28 29  1  0  0  0  0
 29 30  2  0  0  0  0
 30 31  1  0  0  0  0
 31 34  1  0  0  0  0
 32 31  2  0  0  0  0
 33 28  1  0  0  0  0
 35 27  1  0  0  0  0
 36 35  1  0  0  0  0
 36 39  1  0  0  0  0
 37 36  1  0  0  0  0
 38 36  1  0  0  0  0
M  END
>  <minimizedAffinity>
-4.90324306

$$$$
