
 OpenBabel03272505033D

 27 28  0  0  0  0  0  0  0  0999 V2000
   37.8540   23.5350   33.6880 Cl  0  0  0  0  0  0  0  0  0  0  0  0
   37.9210   25.1370   34.4120 C   0  0  0  0  0  0  0  0  0  0  0  0
   38.6330   25.3220   35.5630 C   0  0  0  0  0  0  0  0  0  0  0  0
   38.6420   26.6010   36.0740 C   0  0  0  0  0  0  0  0  0  0  0  0
   37.9470   27.6090   35.4150 C   0  0  0  0  0  0  0  0  0  0  0  0
   37.2500   27.3900   34.2750 C   0  0  0  0  0  0  0  0  0  0  0  0
   37.2330   26.1250   33.7560 C   0  0  0  0  0  0  0  0  0  0  0  0
   39.1730   26.8610   36.9800 H   0  0  0  0  0  0  0  0  0  0  0  0
   37.9560   28.6230   35.8250 H   0  0  0  0  0  0  0  0  0  0  0  0
   36.7180   28.2200   33.7950 H   0  0  0  0  0  0  0  0  0  0  0  0
   40.6080   23.8060   35.7800 C   0  0  0  0  0  0  0  0  0  0  0  0
   39.3590   24.2500   36.2440 C   0  0  0  0  0  0  0  0  0  0  0  0
   38.8450   23.6330   37.3680 C   0  0  0  0  0  0  0  0  0  0  0  0
   39.5640   22.6480   37.9530 N   0  0  0  0  0  0  0  0  0  0  0  0
   40.7510   22.2440   37.4900 C   0  0  0  0  0  0  0  0  0  0  0  0
   41.2910   22.8240   36.3890 N   0  0  0  0  0  0  0  0  0  0  0  0
   40.9920   24.2980   34.9020 H   0  0  0  0  0  0  0  0  0  0  0  0
   37.8830   23.9690   37.7330 H   0  0  0  0  0  0  0  0  0  0  0  0
   41.2690   21.4480   38.0120 H   0  0  0  0  0  0  0  0  0  0  0  0
   36.5130   25.8970   32.5790 O   0  0  0  0  0  0  0  0  0  0  0  0
   37.0050   26.1670   31.3060 C   0  0  0  0  0  2  0  0  0  0  0  0
   36.6670   25.0320   30.4630 N   0  0  0  0  0  4  0  0  0  0  0  0
   36.4150   25.3060   29.5030 H   0  0  0  0  0  0  0  0  0  0  0  0
   37.7970   24.1320   30.3750 C   0  0  0  0  0  2  0  0  0  0  0  0
   37.8790   23.5360   31.2960 H   0  0  0  0  0  0  0  0  0  0  0  0
   35.5300   24.3690   31.0600 C   0  0  0  0  0  2  0  0  0  0  0  0
   35.8630   23.9700   32.0510 H   0  0  0  0  0  0  0  0  0  0  0  0
  1  2  1  0  0  0  0
  2  3  1  0  0  0  0
  3  4  2  0  0  0  0
  3 12  1  0  0  0  0
  4  8  1  0  0  0  0
  5  9  1  0  0  0  0
  5  4  1  0  0  0  0
  6  5  2  0  0  0  0
  7  6  1  0  0  0  0
  7  2  2  0  0  0  0
 10  6  1  0  0  0  0
 11 12  2  0  0  0  0
 11 16  1  0  0  0  0
 12 13  1  0  0  0  0
 13 18  1  0  0  0  0
 13 14  2  0  0  0  0
 15 14  1  0  0  0  0
 15 19  1  0  0  0  0
 16 15  2  0  0  0  0
 17 11  1  0  0  0  0
 20  7  1  0  0  0  0
 21 20  1  0  0  0  0
 22 26  1  0  0  0  0
 22 21  1  0  0  0  0
 23 22  1  0  0  0  0
 24 22  1  0  0  0  0
 24 25  1  0  0  0  0
 26 27  1  0  0  0  0
M  END
>  <minimizedAffinity>
-4.72086334

$$$$

 OpenBabel03272505033D

 27 28  0  0  0  0  0  0  0  0999 V2000
   37.4670   24.3940   32.7210 Cl  0  0  0  0  0  0  0  0  0  0  0  0
   37.7990   25.4860   34.0590 C   0  0  0  0  0  0  0  0  0  0  0  0
   37.7800   26.8350   33.8430 C   0  0  0  0  0  0  0  0  0  0  0  0
   38.0490   27.6300   34.9350 C   0  0  0  0  0  0  0  0  0  0  0  0
   38.3210   27.0400   36.1640 C   0  0  0  0  0  0  0  0  0  0  0  0
   38.3320   25.6980   36.3430 C   0  0  0  0  0  0  0  0  0  0  0  0
   38.0660   24.8960   35.2690 C   0  0  0  0  0  0  0  0  0  0  0  0
   38.0610   28.7110   34.8780 H   0  0  0  0  0  0  0  0  0  0  0  0
   38.5340   27.6760   37.0290 H   0  0  0  0  0  0  0  0  0  0  0  0
   38.5530   25.2840   37.3350 H   0  0  0  0  0  0  0  0  0  0  0  0
   38.5000   27.6100   31.5790 C   0  0  0  0  0  0  0  0  0  0  0  0
   37.4930   27.4390   32.5420 C   0  0  0  0  0  0  0  0  0  0  0  0
   36.2210   27.8660   32.2120 C   0  0  0  0  0  0  0  0  0  0  0  0
   36.0190   28.4170   30.9920 N   0  0  0  0  0  0  0  0  0  0  0  0
   36.9970   28.5680   30.0940 C   0  0  0  0  0  0  0  0  0  0  0  0
   38.2590   28.1610   30.3800 N   0  0  0  0  0  0  0  0  0  0  0  0
   39.4850   27.2720   31.8560 H   0  0  0  0  0  0  0  0  0  0  0  0
   35.4380   27.7380   32.9470 H   0  0  0  0  0  0  0  0  0  0  0  0
   36.7590   29.0180   29.1370 H   0  0  0  0  0  0  0  0  0  0  0  0
   38.0780   23.5100   35.4520 O   0  0  0  0  0  0  0  0  0  0  0  0
   38.2160   22.8940   36.6910 C   0  0  0  0  0  2  0  0  0  0  0  0
   39.4050   22.0600   36.6290 N   0  0  0  0  0  4  0  0  0  0  0  0
   39.2110   21.0670   36.8210 H   0  0  0  0  0  0  0  0  0  0  0  0
   39.9920   22.1400   35.3080 C   0  0  0  0  0  2  0  0  0  0  0  0
   40.5420   23.0860   35.1950 H   0  0  0  0  0  0  0  0  0  0  0  0
   40.3290   22.5430   37.6300 C   0  0  0  0  0  2  0  0  0  0  0  0
   40.6250   23.5810   37.3330 H   0  0  0  0  0  0  0  0  0  0  0  0
  1  2  1  0  0  0  0
  2  7  1  0  0  0  0
  3  2  2  0  0  0  0
  3  4  1  0  0  0  0
  4  5  2  0  0  0  0
  5  6  1  0  0  0  0
  5  9  1  0  0  0  0
  6 10  1  0  0  0  0
  7 20  1  0  0  0  0
  7  6  2  0  0  0  0
  8  4  1  0  0  0  0
 11 17  1  0  0  0  0
 11 12  1  0  0  0  0
 12  3  1  0  0  0  0
 13 12  2  0  0  0  0
 13 18  1  0  0  0  0
 14 13  1  0  0  0  0
 15 16  1  0  0  0  0
 15 14  2  0  0  0  0
 16 11  2  0  0  0  0
 19 15  1  0  0  0  0
 20 21  1  0  0  0  0
 22 21  1  0  0  0  0
 22 23  1  0  0  0  0
 22 26  1  0  0  0  0
 24 22  1  0  0  0  0
 25 24  1  0  0  0  0
 27 26  1  0  0  0  0
M  END
>  <minimizedAffinity>
-4.64949226

$$$$

 OpenBabel03272505033D

 27 28  0  0  0  0  0  0  0  0999 V2000
   36.5420   27.8640   34.6820 Cl  0  0  0  0  0  0  0  0  0  0  0  0
   36.2790   28.7670   33.1950 C   0  0  0  0  0  0  0  0  0  0  0  0
   35.6100   29.9560   33.2430 C   0  0  0  0  0  0  0  0  0  0  0  0
   35.4400   30.6080   32.0410 C   0  0  0  0  0  0  0  0  0  0  0  0
   35.9410   30.0400   30.8750 C   0  0  0  0  0  0  0  0  0  0  0  0
   36.5990   28.8570   30.8630 C   0  0  0  0  0  0  0  0  0  0  0  0
   36.7760   28.1990   32.0480 C   0  0  0  0  0  0  0  0  0  0  0  0
   34.9250   31.5560   31.9620 H   0  0  0  0  0  0  0  0  0  0  0  0
   35.8030   30.5610   29.9230 H   0  0  0  0  0  0  0  0  0  0  0  0
   36.9740   28.4530   29.9150 H   0  0  0  0  0  0  0  0  0  0  0  0
   35.9020   31.3250   35.3140 C   0  0  0  0  0  0  0  0  0  0  0  0
   35.0900   30.5400   34.4790 C   0  0  0  0  0  0  0  0  0  0  0  0
   33.7810   30.3410   34.8730 C   0  0  0  0  0  0  0  0  0  0  0  0
   33.3580   30.9070   36.0280 N   0  0  0  0  0  0  0  0  0  0  0  0
   34.1530   31.6500   36.8040 C   0  0  0  0  0  0  0  0  0  0  0  0
   35.4450   31.8690   36.4520 N   0  0  0  0  0  0  0  0  0  0  0  0
   36.9190   31.4670   34.9900 H   0  0  0  0  0  0  0  0  0  0  0  0
   33.1470   29.7380   34.2360 H   0  0  0  0  0  0  0  0  0  0  0  0
   33.7440   32.0710   37.7150 H   0  0  0  0  0  0  0  0  0  0  0  0
   37.4550   26.9770   32.0380 O   0  0  0  0  0  0  0  0  0  0  0  0
   37.1630   25.9370   31.1630 C   0  0  0  0  0  2  0  0  0  0  0  0
   36.0420   25.2010   31.7250 N   0  0  0  0  0  4  0  0  0  0  0  0
   35.7470   25.5590   32.6450 H   0  0  0  0  0  0  0  0  0  0  0  0
   34.9020   25.2910   30.8380 C   0  0  0  0  0  2  0  0  0  0  0  0
   35.0330   24.6120   29.9830 H   0  0  0  0  0  0  0  0  0  0  0  0
   36.4590   23.8270   31.8850 C   0  0  0  0  0  2  0  0  0  0  0  0
   36.6540   23.4190   30.8620 H   0  0  0  0  0  0  0  0  0  0  0  0
  2  3  1  0  0  0  0
  2  1  1  0  0  0  0
  3 12  1  0  0  0  0
  4  3  2  0  0  0  0
  5  4  1  0  0  0  0
  6  5  2  0  0  0  0
  6  7  1  0  0  0  0
  7  2  2  0  0  0  0
  8  4  1  0  0  0  0
  9  5  1  0  0  0  0
 10  6  1  0  0  0  0
 11 16  1  0  0  0  0
 12 13  1  0  0  0  0
 12 11  2  0  0  0  0
 13 14  2  0  0  0  0
 14 15  1  0  0  0  0
 15 19  1  0  0  0  0
 16 15  2  0  0  0  0
 17 11  1  0  0  0  0
 18 13  1  0  0  0  0
 20  7  1  0  0  0  0
 21 22  1  0  0  0  0
 21 20  1  0  0  0  0
 22 26  1  0  0  0  0
 22 23  1  0  0  0  0
 24 22  1  0  0  0  0
 25 24  1  0  0  0  0
 27 26  1  0  0  0  0
M  END
>  <minimizedAffinity>
-4.32436943

$$$$

 OpenBabel03272505033D

 27 28  0  0  0  0  0  0  0  0999 V2000
   38.3870   26.9750   36.1670 Cl  0  0  0  0  0  0  0  0  0  0  0  0
   37.9330   26.0560   34.7380 C   0  0  0  0  0  0  0  0  0  0  0  0
   38.2760   24.7360   34.6530 C   0  0  0  0  0  0  0  0  0  0  0  0
   37.8890   24.0790   33.5060 C   0  0  0  0  0  0  0  0  0  0  0  0
   37.1920   24.7700   32.5210 C   0  0  0  0  0  0  0  0  0  0  0  0
   36.8690   26.0800   32.6370 C   0  0  0  0  0  0  0  0  0  0  0  0
   37.2460   26.7440   33.7700 C   0  0  0  0  0  0  0  0  0  0  0  0
   38.1080   23.0340   33.3330 H   0  0  0  0  0  0  0  0  0  0  0  0
   36.8870   24.2440   31.6110 H   0  0  0  0  0  0  0  0  0  0  0  0
   36.3180   26.5770   31.8300 H   0  0  0  0  0  0  0  0  0  0  0  0
   40.3720   23.7140   35.5520 C   0  0  0  0  0  0  0  0  0  0  0  0
   39.0100   24.0250   35.6990 C   0  0  0  0  0  0  0  0  0  0  0  0
   38.3940   23.6310   36.8710 C   0  0  0  0  0  0  0  0  0  0  0  0
   39.1270   22.9770   37.8010 N   0  0  0  0  0  0  0  0  0  0  0  0
   40.4220   22.6930   37.6350 C   0  0  0  0  0  0  0  0  0  0  0  0
   41.0650   23.0630   36.4980 N   0  0  0  0  0  0  0  0  0  0  0  0
   40.8350   24.0280   34.6310 H   0  0  0  0  0  0  0  0  0  0  0  0
   37.3450   23.8660   36.9940 H   0  0  0  0  0  0  0  0  0  0  0  0
   40.9450   22.1650   38.4250 H   0  0  0  0  0  0  0  0  0  0  0  0
   36.9140   28.0970   33.8920 O   0  0  0  0  0  0  0  0  0  0  0  0
   35.8180   28.6840   33.2680 C   0  0  0  0  0  2  0  0  0  0  0  0
   34.9690   29.2320   34.3130 N   0  0  0  0  0  4  0  0  0  0  0  0
   34.8050   28.5710   35.0860 H   0  0  0  0  0  0  0  0  0  0  0  0
   35.5840   30.4140   34.8770 C   0  0  0  0  0  2  0  0  0  0  0  0
   35.4520   31.2700   34.1980 H   0  0  0  0  0  0  0  0  0  0  0  0
   33.6940   29.5550   33.7130 C   0  0  0  0  0  2  0  0  0  0  0  0
   33.8770   30.3650   32.9640 H   0  0  0  0  0  0  0  0  0  0  0  0
  2  1  1  0  0  0  0
  3  2  1  0  0  0  0
  3 12  1  0  0  0  0
  4  3  2  0  0  0  0
  5  6  2  0  0  0  0
  5  4  1  0  0  0  0
  6  7  1  0  0  0  0
  7 20  1  0  0  0  0
  7  2  2  0  0  0  0
  8  4  1  0  0  0  0
  9  5  1  0  0  0  0
 10  6  1  0  0  0  0
 11 12  2  0  0  0  0
 11 16  1  0  0  0  0
 12 13  1  0  0  0  0
 13 18  1  0  0  0  0
 13 14  2  0  0  0  0
 15 14  1  0  0  0  0
 15 19  1  0  0  0  0
 16 15  2  0  0  0  0
 17 11  1  0  0  0  0
 21 20  1  0  0  0  0
 21 22  1  0  0  0  0
 22 24  1  0  0  0  0
 22 23  1  0  0  0  0
 25 24  1  0  0  0  0
 26 22  1  0  0  0  0
 27 26  1  0  0  0  0
M  END
>  <minimizedAffinity>
-4.30630684

$$$$

 OpenBabel03272505033D

 27 28  0  0  0  0  0  0  0  0999 V2000
   40.0270   23.7190   34.2680 Cl  0  0  0  0  0  0  0  0  0  0  0  0
   39.3300   23.7910   35.8810 C   0  0  0  0  0  0  0  0  0  0  0  0
   38.3590   24.7130   36.1510 C   0  0  0  0  0  0  0  0  0  0  0  0
   37.8590   24.7120   37.4340 C   0  0  0  0  0  0  0  0  0  0  0  0
   38.3530   23.8030   38.3630 C   0  0  0  0  0  0  0  0  0  0  0  0
   39.3170   22.9020   38.0620 C   0  0  0  0  0  0  0  0  0  0  0  0
   39.8220   22.8910   36.7920 C   0  0  0  0  0  0  0  0  0  0  0  0
   37.0890   25.4000   37.7580 H   0  0  0  0  0  0  0  0  0  0  0  0
   37.9530   23.8070   39.3820 H   0  0  0  0  0  0  0  0  0  0  0  0
   39.6720   22.2070   38.8330 H   0  0  0  0  0  0  0  0  0  0  0  0
   37.7580   27.0340   35.4470 C   0  0  0  0  0  0  0  0  0  0  0  0
   37.8510   25.6620   35.1610 C   0  0  0  0  0  0  0  0  0  0  0  0
   37.4430   25.2480   33.9080 C   0  0  0  0  0  0  0  0  0  0  0  0
   36.9830   26.1750   33.0360 N   0  0  0  0  0  0  0  0  0  0  0  0
   36.9050   27.4750   33.3350 C   0  0  0  0  0  0  0  0  0  0  0  0
   37.2960   27.9230   34.5550 N   0  0  0  0  0  0  0  0  0  0  0  0
   38.0800   27.3380   36.4290 H   0  0  0  0  0  0  0  0  0  0  0  0
   37.5120   24.1930   33.6780 H   0  0  0  0  0  0  0  0  0  0  0  0
   36.5250   28.1590   32.5850 H   0  0  0  0  0  0  0  0  0  0  0  0
   40.8190   21.9610   36.4790 O   0  0  0  0  0  0  0  0  0  0  0  0
   41.7000   21.4260   37.4130 C   0  0  0  0  0  2  0  0  0  0  0  0
   42.8770   20.9760   36.6880 N   0  0  0  0  0  4  0  0  0  0  0  0
   43.7280   21.4990   36.9400 H   0  0  0  0  0  0  0  0  0  0  0  0
   43.1250   19.5790   36.9740 C   0  0  0  0  0  2  0  0  0  0  0  0
   42.4260   18.9470   36.4080 H   0  0  0  0  0  0  0  0  0  0  0  0
   42.6230   21.1730   35.2790 C   0  0  0  0  0  2  0  0  0  0  0  0
   41.7740   20.5000   34.9990 H   0  0  0  0  0  0  0  0  0  0  0  0
  1  2  1  0  0  0  0
  2  3  2  0  0  0  0
  2  7  1  0  0  0  0
  3  4  1  0  0  0  0
  4  8  1  0  0  0  0
  4  5  2  0  0  0  0
  5  9  1  0  0  0  0
  6  5  1  0  0  0  0
  6 10  1  0  0  0  0
  7  6  2  0  0  0  0
 11 17  1  0  0  0  0
 12 11  1  0  0  0  0
 12  3  1  0  0  0  0
 13 12  2  0  0  0  0
 14 15  2  0  0  0  0
 14 13  1  0  0  0  0
 15 16  1  0  0  0  0
 16 11  2  0  0  0  0
 18 13  1  0  0  0  0
 19 15  1  0  0  0  0
 20  7  1  0  0  0  0
 20 21  1  0  0  0  0
 22 23  1  0  0  0  0
 22 24  1  0  0  0  0
 22 21  1  0  0  0  0
 25 24  1  0  0  0  0
 26 22  1  0  0  0  0
 27 26  1  0  0  0  0
M  END
>  <minimizedAffinity>
-4.26931906

$$$$

 OpenBabel03272505033D

 27 28  0  0  0  0  0  0  0  0999 V2000
   38.9320   24.2830   32.6360 Cl  0  0  0  0  0  0  0  0  0  0  0  0
   38.3600   25.5940   33.6590 C   0  0  0  0  0  0  0  0  0  0  0  0
   38.6280   25.5650   34.9980 C   0  0  0  0  0  0  0  0  0  0  0  0
   38.1500   26.6230   35.7390 C   0  0  0  0  0  0  0  0  0  0  0  0
   37.4380   27.6370   35.1070 C   0  0  0  0  0  0  0  0  0  0  0  0
   37.1900   27.6350   33.7760 C   0  0  0  0  0  0  0  0  0  0  0  0
   37.6590   26.5910   33.0290 C   0  0  0  0  0  0  0  0  0  0  0  0
   38.3040   26.7020   36.8070 H   0  0  0  0  0  0  0  0  0  0  0  0
   37.0600   28.4750   35.6990 H   0  0  0  0  0  0  0  0  0  0  0  0
   36.6230   28.4590   33.3280 H   0  0  0  0  0  0  0  0  0  0  0  0
   38.7620   23.6170   36.5590 C   0  0  0  0  0  0  0  0  0  0  0  0
   39.3780   24.4890   35.6470 C   0  0  0  0  0  0  0  0  0  0  0  0
   40.7210   24.2900   35.3880 C   0  0  0  0  0  0  0  0  0  0  0  0
   41.3600   23.2780   36.0200 N   0  0  0  0  0  0  0  0  0  0  0  0
   40.7490   22.4620   36.8840 C   0  0  0  0  0  0  0  0  0  0  0  0
   39.4310   22.6240   37.1650 N   0  0  0  0  0  0  0  0  0  0  0  0
   37.7150   23.7890   36.7480 H   0  0  0  0  0  0  0  0  0  0  0  0
   41.2050   24.9570   34.6870 H   0  0  0  0  0  0  0  0  0  0  0  0
   41.3260   21.6730   37.3520 H   0  0  0  0  0  0  0  0  0  0  0  0
   37.4020   26.5860   31.6540 O   0  0  0  0  0  0  0  0  0  0  0  0
   36.1960   26.9890   31.0910 C   0  0  0  0  0  2  0  0  0  0  0  0
   36.5040   27.9920   30.0840 N   0  0  0  0  0  4  0  0  0  0  0  0
   35.9530   27.8780   29.2210 H   0  0  0  0  0  0  0  0  0  0  0  0
   36.2230   29.3130   30.6060 C   0  0  0  0  0  2  0  0  0  0  0  0
   37.0240   29.6270   31.2910 H   0  0  0  0  0  0  0  0  0  0  0  0
   37.9040   27.8600   29.7510 C   0  0  0  0  0  2  0  0  0  0  0  0
   38.4880   28.1120   30.6710 H   0  0  0  0  0  0  0  0  0  0  0  0
  1  2  1  0  0  0  0
  2  3  1  0  0  0  0
  3 12  1  0  0  0  0
  3  4  2  0  0  0  0
  4  8  1  0  0  0  0
  5  9  1  0  0  0  0
  5  4  1  0  0  0  0
  6  5  2  0  0  0  0
  7  2  2  0  0  0  0
  7  6  1  0  0  0  0
 10  6  1  0  0  0  0
 11 17  1  0  0  0  0
 11 16  1  0  0  0  0
 12 11  2  0  0  0  0
 13 12  1  0  0  0  0
 13 14  2  0  0  0  0
 14 15  1  0  0  0  0
 15 16  2  0  0  0  0
 15 19  1  0  0  0  0
 18 13  1  0  0  0  0
 20  7  1  0  0  0  0
 21 20  1  0  0  0  0
 22 24  1  0  0  0  0
 22 21  1  0  0  0  0
 23 22  1  0  0  0  0
 24 25  1  0  0  0  0
 26 22  1  0  0  0  0
 26 27  1  0  0  0  0
M  END
>  <minimizedAffinity>
-4.25243425

$$$$

 OpenBabel03272505033D

 27 28  0  0  0  0  0  0  0  0999 V2000
   38.2800   26.9570   33.2610 Cl  0  0  0  0  0  0  0  0  0  0  0  0
   37.1770   25.8650   32.4350 C   0  0  0  0  0  0  0  0  0  0  0  0
   36.1900   26.3820   31.6440 C   0  0  0  0  0  0  0  0  0  0  0  0
   35.3630   25.4690   31.0290 C   0  0  0  0  0  0  0  0  0  0  0  0
   35.5650   24.1090   31.2370 C   0  0  0  0  0  0  0  0  0  0  0  0
   36.5530   23.6300   32.0290 C   0  0  0  0  0  0  0  0  0  0  0  0
   37.3820   24.5250   32.6460 C   0  0  0  0  0  0  0  0  0  0  0  0
   34.5480   25.7670   30.3810 H   0  0  0  0  0  0  0  0  0  0  0  0
   34.9050   23.3880   30.7470 H   0  0  0  0  0  0  0  0  0  0  0  0
   36.6680   22.5480   32.1600 H   0  0  0  0  0  0  0  0  0  0  0  0
   35.1600   28.5680   32.2820 C   0  0  0  0  0  0  0  0  0  0  0  0
   35.9920   27.8160   31.4360 C   0  0  0  0  0  0  0  0  0  0  0  0
   36.6130   28.4860   30.4000 C   0  0  0  0  0  0  0  0  0  0  0  0
   36.3900   29.8130   30.2600 N   0  0  0  0  0  0  0  0  0  0  0  0
   35.5920   30.5050   31.0790 C   0  0  0  0  0  0  0  0  0  0  0  0
   34.9640   29.8830   32.1090 N   0  0  0  0  0  0  0  0  0  0  0  0
   34.6840   28.0270   33.0830 H   0  0  0  0  0  0  0  0  0  0  0  0
   37.2560   27.9150   29.7430 H   0  0  0  0  0  0  0  0  0  0  0  0
   35.4610   31.5660   30.9050 H   0  0  0  0  0  0  0  0  0  0  0  0
   38.4040   24.0330   33.4650 O   0  0  0  0  0  0  0  0  0  0  0  0
   38.1800   23.3500   34.6560 C   0  0  0  0  0  2  0  0  0  0  0  0
   38.9080   24.0540   35.6990 N   0  0  0  0  0  4  0  0  0  0  0  0
   39.7170   24.5810   35.3400 H   0  0  0  0  0  0  0  0  0  0  0  0
   38.0320   24.9990   36.3580 C   0  0  0  0  0  2  0  0  0  0  0  0
   37.3630   24.4730   37.0550 H   0  0  0  0  0  0  0  0  0  0  0  0
   39.3900   23.0650   36.6360 C   0  0  0  0  0  2  0  0  0  0  0  0
   38.4930   22.5910   37.1080 H   0  0  0  0  0  0  0  0  0  0  0  0
  2  7  1  0  0  0  0
  2  1  1  0  0  0  0
  3  2  2  0  0  0  0
  4  5  2  0  0  0  0
  4  3  1  0  0  0  0
  5  6  1  0  0  0  0
  6 10  1  0  0  0  0
  6  7  2  0  0  0  0
  7 20  1  0  0  0  0
  8  4  1  0  0  0  0
  9  5  1  0  0  0  0
 11 17  1  0  0  0  0
 12  3  1  0  0  0  0
 12 11  2  0  0  0  0
 13 12  1  0  0  0  0
 14 13  2  0  0  0  0
 14 15  1  0  0  0  0
 15 16  2  0  0  0  0
 16 11  1  0  0  0  0
 18 13  1  0  0  0  0
 19 15  1  0  0  0  0
 20 21  1  0  0  0  0
 21 22  1  0  0  0  0
 22 24  1  0  0  0  0
 22 26  1  0  0  0  0
 23 22  1  0  0  0  0
 24 25  1  0  0  0  0
 26 27  1  0  0  0  0
M  END
>  <minimizedAffinity>
-4.24830627

$$$$

 OpenBabel03272505033D

 27 28  0  0  0  0  0  0  0  0999 V2000
   38.2720   27.0950   35.5780 Cl  0  0  0  0  0  0  0  0  0  0  0  0
   37.9880   25.8930   34.3260 C   0  0  0  0  0  0  0  0  0  0  0  0
   38.1110   24.5670   34.6300 C   0  0  0  0  0  0  0  0  0  0  0  0
   37.8750   23.6820   33.6010 C   0  0  0  0  0  0  0  0  0  0  0  0
   37.5350   24.1670   32.3430 C   0  0  0  0  0  0  0  0  0  0  0  0
   37.4220   25.4890   32.0760 C   0  0  0  0  0  0  0  0  0  0  0  0
   37.6530   26.3790   33.0880 C   0  0  0  0  0  0  0  0  0  0  0  0
   37.9450   22.6100   33.7300 H   0  0  0  0  0  0  0  0  0  0  0  0
   37.3490   23.4600   31.5290 H   0  0  0  0  0  0  0  0  0  0  0  0
   37.1520   25.8180   31.0650 H   0  0  0  0  0  0  0  0  0  0  0  0
   37.5690   24.1510   37.0340 C   0  0  0  0  0  0  0  0  0  0  0  0
   38.4700   24.0750   35.9600 C   0  0  0  0  0  0  0  0  0  0  0  0
   39.7090   23.5170   36.2110 C   0  0  0  0  0  0  0  0  0  0  0  0
   39.9820   23.0790   37.4620 N   0  0  0  0  0  0  0  0  0  0  0  0
   39.1050   23.1640   38.4670 C   0  0  0  0  0  0  0  0  0  0  0  0
   37.8780   23.7050   38.2610 N   0  0  0  0  0  0  0  0  0  0  0  0
   36.6090   24.5900   36.8190 H   0  0  0  0  0  0  0  0  0  0  0  0
   40.4100   23.4530   35.3890 H   0  0  0  0  0  0  0  0  0  0  0  0
   39.3950   22.7920   39.4430 H   0  0  0  0  0  0  0  0  0  0  0  0
   37.5370   27.7460   32.8130 O   0  0  0  0  0  0  0  0  0  0  0  0
   36.3980   28.3330   32.2730 C   0  0  0  0  0  2  0  0  0  0  0  0
   36.8340   29.2280   31.2150 N   0  0  0  0  0  4  0  0  0  0  0  0
   37.7440   29.6700   31.4110 H   0  0  0  0  0  0  0  0  0  0  0  0
   36.9670   28.4940   29.9740 C   0  0  0  0  0  2  0  0  0  0  0  0
   35.9760   28.3130   29.5340 H   0  0  0  0  0  0  0  0  0  0  0  0
   35.8410   30.2700   31.0880 C   0  0  0  0  0  2  0  0  0  0  0  0
   34.8920   29.7830   30.7520 H   0  0  0  0  0  0  0  0  0  0  0  0
  2  3  1  0  0  0  0
  2  1  1  0  0  0  0
  3 12  1  0  0  0  0
  4  8  1  0  0  0  0
  4  3  2  0  0  0  0
  5  4  1  0  0  0  0
  6  5  2  0  0  0  0
  6  7  1  0  0  0  0
  7  2  2  0  0  0  0
  9  5  1  0  0  0  0
 10  6  1  0  0  0  0
 11 16  1  0  0  0  0
 12 13  1  0  0  0  0
 12 11  2  0  0  0  0
 13 14  2  0  0  0  0
 14 15  1  0  0  0  0
 15 19  1  0  0  0  0
 16 15  2  0  0  0  0
 17 11  1  0  0  0  0
 18 13  1  0  0  0  0
 20  7  1  0  0  0  0
 21 20  1  0  0  0  0
 22 23  1  0  0  0  0
 22 21  1  0  0  0  0
 24 22  1  0  0  0  0
 25 24  1  0  0  0  0
 26 22  1  0  0  0  0
 27 26  1  0  0  0  0
M  END
>  <minimizedAffinity>
-4.20482397

$$$$

 OpenBabel03272505033D

 27 28  0  0  0  0  0  0  0  0999 V2000
   34.7290   25.3720   30.7030 Cl  0  0  0  0  0  0  0  0  0  0  0  0
   36.1750   25.2500   31.6970 C   0  0  0  0  0  0  0  0  0  0  0  0
   36.8150   26.3900   32.0900 C   0  0  0  0  0  0  0  0  0  0  0  0
   37.9400   26.2200   32.8660 C   0  0  0  0  0  0  0  0  0  0  0  0
   38.3570   24.9360   33.1980 C   0  0  0  0  0  0  0  0  0  0  0  0
   37.6980   23.8250   32.7910 C   0  0  0  0  0  0  0  0  0  0  0  0
   36.5790   23.9800   32.0210 C   0  0  0  0  0  0  0  0  0  0  0  0
   38.5250   27.0530   33.2320 H   0  0  0  0  0  0  0  0  0  0  0  0
   39.2520   24.8050   33.8140 H   0  0  0  0  0  0  0  0  0  0  0  0
   38.0700   22.8350   33.0810 H   0  0  0  0  0  0  0  0  0  0  0  0
   36.8090   28.3640   30.5570 C   0  0  0  0  0  0  0  0  0  0  0  0
   36.3630   27.7340   31.7300 C   0  0  0  0  0  0  0  0  0  0  0  0
   35.4820   28.4350   32.5300 C   0  0  0  0  0  0  0  0  0  0  0  0
   35.1000   29.6750   32.1430 N   0  0  0  0  0  0  0  0  0  0  0  0
   35.5410   30.2520   31.0210 C   0  0  0  0  0  0  0  0  0  0  0  0
   36.4070   29.5960   30.2080 N   0  0  0  0  0  0  0  0  0  0  0  0
   37.4960   27.8020   29.9470 H   0  0  0  0  0  0  0  0  0  0  0  0
   35.1320   27.9580   33.4360 H   0  0  0  0  0  0  0  0  0  0  0  0
   35.1910   31.2480   30.7760 H   0  0  0  0  0  0  0  0  0  0  0  0
   35.8980   22.8340   31.5980 O   0  0  0  0  0  0  0  0  0  0  0  0
   36.2500   21.5420   31.9720 C   0  0  0  0  0  2  0  0  0  0  0  0
   35.1320   20.9880   32.7170 N   0  0  0  0  0  4  0  0  0  0  0  0
   34.3470   21.6480   32.8150 H   0  0  0  0  0  0  0  0  0  0  0  0
   34.6270   19.8110   32.0430 C   0  0  0  0  0  2  0  0  0  0  0  0
   35.2900   18.9540   32.2300 H   0  0  0  0  0  0  0  0  0  0  0  0
   35.6120   20.6540   34.0390 C   0  0  0  0  0  2  0  0  0  0  0  0
   36.3740   19.8440   33.9190 H   0  0  0  0  0  0  0  0  0  0  0  0
  1  2  1  0  0  0  0
  2  7  2  0  0  0  0
  2  3  1  0  0  0  0
  3  4  2  0  0  0  0
  4  5  1  0  0  0  0
  4  8  1  0  0  0  0
  5  9  1  0  0  0  0
  6 10  1  0  0  0  0
  6  5  2  0  0  0  0
  7  6  1  0  0  0  0
 11 12  1  0  0  0  0
 12  3  1  0  0  0  0
 12 13  2  0  0  0  0
 13 18  1  0  0  0  0
 14 13  1  0  0  0  0
 15 14  2  0  0  0  0
 16 11  2  0  0  0  0
 16 15  1  0  0  0  0
 17 11  1  0  0  0  0
 19 15  1  0  0  0  0
 20 21  1  0  0  0  0
 20  7  1  0  0  0  0
 21 22  1  0  0  0  0
 22 23  1  0  0  0  0
 22 26  1  0  0  0  0
 24 25  1  0  0  0  0
 24 22  1  0  0  0  0
 27 26  1  0  0  0  0
M  END
>  <minimizedAffinity>
-4.19187975

$$$$
