
 OpenBabel03272508263D

 36 38  0  0  1  0  0  0  0  0999 V2000
   33.8040   28.8740   47.2030 C   0  0  2  0  0  0  0  0  0  0  0  0
   34.5100   28.1110   48.2990 C   0  0  2  0  0  0  0  0  0  0  0  0
   33.5890   27.9610   49.2880 O   0  0  0  0  0  0  0  0  0  0  0  0
   32.3120   28.0770   48.8030 C   0  0  0  0  0  0  0  0  0  0  0  0
   32.4120   28.2690   47.2890 C   0  0  1  0  0  0  0  0  0  0  0  0
   33.6640   29.9490   47.4730 H   0  0  0  0  0  0  0  0  0  0  0  0
   34.7920   27.1290   47.8970 H   0  0  0  0  0  0  0  0  0  0  0  0
   31.6540   27.2510   49.0790 H   0  0  0  0  0  0  0  0  0  0  0  0
   31.8700   29.0200   49.2010 H   0  0  0  0  0  0  0  0  0  0  0  0
   32.4310   27.2240   46.8910 H   0  0  0  0  0  0  0  0  0  0  0  0
   35.5930   30.3630   49.0120 C   0  0  1  0  0  0  0  0  0  0  0  0
   35.6720   28.9440   48.7490 C   0  0  1  0  0  0  0  0  0  0  0  0
   35.8370   29.3780   50.1670 C   0  0  0  0  0  0  0  0  0  0  0  0
   34.6860   30.9690   49.2120 H   0  0  0  0  0  0  0  0  0  0  0  0
   36.6290   28.6050   48.2520 H   0  0  0  0  0  0  0  0  0  0  0  0
   35.0160   29.1940   50.8880 H   0  0  0  0  0  0  0  0  0  0  0  0
   36.8420   29.3310   50.6210 H   0  0  0  0  0  0  0  0  0  0  0  0
   36.7890   31.2660   48.7830 C   0  0  0  0  0  0  0  0  0  0  0  0
   37.0370   32.2620   49.7300 C   0  0  0  0  0  0  0  0  0  0  0  0
   38.1250   33.0780   49.4610 C   0  0  0  0  0  0  0  0  0  0  0  0
   38.8870   32.8960   48.3350 N   0  0  0  0  0  0  0  0  0  0  0  0
   38.6070   31.9120   47.4410 C   0  0  0  0  0  0  0  0  0  0  0  0
   37.5500   31.0940   47.6700 N   0  0  0  0  0  0  0  0  0  0  0  0
   36.4370   32.3940   50.6020 H   0  0  0  0  0  0  0  0  0  0  0  0
   38.4130   33.8820   50.1220 H   0  0  0  0  0  0  0  0  0  0  0  0
   39.1880   31.7480   46.5510 H   0  0  0  0  0  0  0  0  0  0  0  0
   34.3490   28.7180   45.9570 O   0  0  0  0  0  0  0  0  0  0  0  0
   34.2670   29.5810   45.4750 H   0  0  0  0  0  0  0  0  0  0  0  0
   31.4230   29.0610   46.7950 O   0  0  0  0  0  0  0  0  0  0  0  0
   30.8050   28.5620   45.6740 C   0  0  0  0  0  2  0  0  0  0  0  0
   30.5300   29.4900   44.6230 N   0  0  0  0  0  4  0  0  0  0  0  0
   30.0230   30.3170   45.0370 H   0  0  0  0  0  0  0  0  0  0  0  0
   29.6330   28.8890   43.6110 C   0  0  0  0  0  2  0  0  0  0  0  0
   30.1050   27.9760   43.2330 H   0  0  0  0  0  0  0  0  0  0  0  0
   31.6920   29.9230   43.8860 C   0  0  0  0  0  2  0  0  0  0  0  0
   31.5480   29.8530   42.7670 H   0  0  0  0  0  0  0  0  0  0  0  0
  1  5  1  0  0  0  0
  1  6  1  1  0  0  0
  1  2  1  0  0  0  0
  2  7  1  6  0  0  0
  2 12  1  0  0  0  0
  2  3  1  0  0  0  0
  4  8  1  0  0  0  0
  4  9  1  0  0  0  0
  4  3  1  0  0  0  0
  5 10  1  6  0  0  0
  5  4  1  0  0  0  0
 11 14  1  6  0  0  0
 11 13  1  0  0  0  0
 12 15  1  6  0  0  0
 12 11  1  0  0  0  0
 12 13  1  0  0  0  0
 13 17  1  0  0  0  0
 13 16  1  0  0  0  0
 18 11  1  0  0  0  0
 18 19  1  0  0  0  0
 19 24  1  0  0  0  0
 20 19  2  0  0  0  0
 20 25  1  0  0  0  0
 21 20  1  0  0  0  0
 22 23  1  0  0  0  0
 22 21  2  0  0  0  0
 23 18  2  0  0  0  0
 26 22  1  0  0  0  0
 27  1  1  0  0  0  0
 28 27  1  0  0  0  0
 29  5  1  0  0  0  0
 30 29  1  0  0  0  0
 31 32  1  0  0  0  0
 31 30  1  0  0  0  0
 33 31  1  0  0  0  0
 34 33  1  0  0  0  0
 35 31  1  0  0  0  0
 36 35  1  0  0  0  0
M  END
>  <minimizedAffinity>
-4.41256809

>  <minimizedRMSD>
0.521048665

$$$$
