
 OpenBabel03272508263D

 36 38  0  0  1  0  0  0  0  0999 V2000
   33.9460   28.9000   47.3260 C   0  0  2  0  0  0  0  0  0  0  0  0
   34.6790   28.1800   48.4340 C   0  0  2  0  0  0  0  0  0  0  0  0
   33.7630   28.0140   49.4260 O   0  0  0  0  0  0  0  0  0  0  0  0
   32.4830   28.0770   48.9390 C   0  0  0  0  0  0  0  0  0  0  0  0
   32.5760   28.2480   47.4220 C   0  0  1  0  0  0  0  0  0  0  0  0
   33.7680   29.9730   47.5780 H   0  0  0  0  0  0  0  0  0  0  0  0
   34.9950   27.2030   48.0480 H   0  0  0  0  0  0  0  0  0  0  0  0
   31.8540   27.2330   49.2280 H   0  0  0  0  0  0  0  0  0  0  0  0
   32.0080   29.0110   49.3220 H   0  0  0  0  0  0  0  0  0  0  0  0
   32.6320   27.1980   47.0410 H   0  0  0  0  0  0  0  0  0  0  0  0
   35.7090   30.4950   49.0080 C   0  0  1  0  0  0  0  0  0  0  0  0
   35.8100   29.0600   48.8700 C   0  0  1  0  0  0  0  0  0  0  0  0
   35.9000   29.6140   50.2530 C   0  0  0  0  0  0  0  0  0  0  0  0
   34.7880   31.1060   49.1110 H   0  0  0  0  0  0  0  0  0  0  0  0
   36.7940   28.6920   48.4530 H   0  0  0  0  0  0  0  0  0  0  0  0
   35.0440   29.4810   50.9450 H   0  0  0  0  0  0  0  0  0  0  0  0
   36.8810   29.6160   50.7590 H   0  0  0  0  0  0  0  0  0  0  0  0
   36.9080   31.3900   48.7640 C   0  0  0  0  0  0  0  0  0  0  0  0
   37.1450   32.4170   49.6810 C   0  0  0  0  0  0  0  0  0  0  0  0
   38.2380   33.2220   49.3990 C   0  0  0  0  0  0  0  0  0  0  0  0
   39.0140   33.0010   48.2890 N   0  0  0  0  0  0  0  0  0  0  0  0
   38.7440   31.9880   47.4250 C   0  0  0  0  0  0  0  0  0  0  0  0
   37.6840   31.1790   47.6680 N   0  0  0  0  0  0  0  0  0  0  0  0
   36.5350   32.5780   50.5400 H   0  0  0  0  0  0  0  0  0  0  0  0
   38.5180   34.0470   50.0360 H   0  0  0  0  0  0  0  0  0  0  0  0
   39.3370   31.7940   46.5490 H   0  0  0  0  0  0  0  0  0  0  0  0
   34.4970   28.7430   46.0830 O   0  0  0  0  0  0  0  0  0  0  0  0
   34.3850   29.5940   45.5870 H   0  0  0  0  0  0  0  0  0  0  0  0
   31.5600   28.9970   46.9150 O   0  0  0  0  0  0  0  0  0  0  0  0
   30.7690   28.3360   46.0080 C   0  0  0  0  0  2  0  0  0  0  0  0
   30.4220   26.9840   46.3190 N   0  0  0  0  0  4  0  0  0  0  0  0
   31.1740   26.5860   46.9430 H   0  0  0  0  0  0  0  0  0  0  0  0
   30.3850   26.1560   45.0950 C   0  0  0  0  0  2  0  0  0  0  0  0
   29.6720   26.6060   44.3970 H   0  0  0  0  0  0  0  0  0  0  0  0
   29.1220   26.8240   46.9230 C   0  0  0  0  0  2  0  0  0  0  0  0
   28.5090   26.0140   46.4270 H   0  0  0  0  0  0  0  0  0  0  0  0
  1  5  1  0  0  0  0
  1  6  1  1  0  0  0
  1  2  1  0  0  0  0
  2  7  1  6  0  0  0
  2 12  1  0  0  0  0
  2  3  1  0  0  0  0
  4  8  1  0  0  0  0
  4  9  1  0  0  0  0
  4  3  1  0  0  0  0
  5 10  1  6  0  0  0
  5  4  1  0  0  0  0
 11 14  1  6  0  0  0
 11 13  1  0  0  0  0
 12 15  1  6  0  0  0
 12 11  1  0  0  0  0
 12 13  1  0  0  0  0
 13 17  1  0  0  0  0
 13 16  1  0  0  0  0
 18 11  1  0  0  0  0
 18 19  1  0  0  0  0
 19 24  1  0  0  0  0
 20 19  2  0  0  0  0
 20 25  1  0  0  0  0
 21 20  1  0  0  0  0
 22 23  1  0  0  0  0
 22 21  2  0  0  0  0
 23 18  2  0  0  0  0
 26 22  1  0  0  0  0
 27  1  1  0  0  0  0
 28 27  1  0  0  0  0
 29  5  1  0  0  0  0
 30 31  1  0  0  0  0
 30 29  1  0  0  0  0
 31 35  1  0  0  0  0
 31 32  1  0  0  0  0
 33 31  1  0  0  0  0
 34 33  1  0  0  0  0
 36 35  1  0  0  0  0
M  END
>  <minimizedAffinity>
-4.54728127

>  <minimizedRMSD>
0.198168695

$$$$
