
 OpenBabel03272508263D

 36 38  0  0  1  0  0  0  0  0999 V2000
   33.9220   28.8900   47.3140 C   0  0  2  0  0  0  0  0  0  0  0  0
   34.6430   28.1640   48.4260 C   0  0  2  0  0  0  0  0  0  0  0  0
   33.7200   28.0050   49.4110 O   0  0  0  0  0  0  0  0  0  0  0  0
   32.4430   28.0780   48.9180 C   0  0  0  0  0  0  0  0  0  0  0  0
   32.5460   28.2490   47.4020 C   0  0  1  0  0  0  0  0  0  0  0  0
   33.7510   29.9650   47.5650 H   0  0  0  0  0  0  0  0  0  0  0  0
   34.9530   27.1840   48.0400 H   0  0  0  0  0  0  0  0  0  0  0  0
   31.8070   27.2380   49.2030 H   0  0  0  0  0  0  0  0  0  0  0  0
   31.9730   29.0150   49.2990 H   0  0  0  0  0  0  0  0  0  0  0  0
   32.5960   27.1990   47.0200 H   0  0  0  0  0  0  0  0  0  0  0  0
   35.6820   30.4690   49.0240 C   0  0  1  0  0  0  0  0  0  0  0  0
   35.7780   29.0350   48.8680 C   0  0  1  0  0  0  0  0  0  0  0  0
   35.8740   29.5720   50.2580 C   0  0  0  0  0  0  0  0  0  0  0  0
   34.7630   31.0820   49.1370 H   0  0  0  0  0  0  0  0  0  0  0  0
   36.7590   28.6690   48.4430 H   0  0  0  0  0  0  0  0  0  0  0  0
   35.0210   29.4330   50.9510 H   0  0  0  0  0  0  0  0  0  0  0  0
   36.8570   29.5640   50.7600 H   0  0  0  0  0  0  0  0  0  0  0  0
   36.8830   31.3620   48.7870 C   0  0  0  0  0  0  0  0  0  0  0  0
   37.1030   32.4040   49.6920 C   0  0  0  0  0  0  0  0  0  0  0  0
   38.1990   33.2070   49.4160 C   0  0  0  0  0  0  0  0  0  0  0  0
   38.9940   32.9720   48.3230 N   0  0  0  0  0  0  0  0  0  0  0  0
   38.7410   31.9450   47.4700 C   0  0  0  0  0  0  0  0  0  0  0  0
   37.6780   31.1370   47.7080 N   0  0  0  0  0  0  0  0  0  0  0  0
   36.4770   32.5770   50.5380 H   0  0  0  0  0  0  0  0  0  0  0  0
   38.4660   34.0430   50.0450 H   0  0  0  0  0  0  0  0  0  0  0  0
   39.3480   31.7390   46.6070 H   0  0  0  0  0  0  0  0  0  0  0  0
   34.4790   28.7290   46.0730 O   0  0  0  0  0  0  0  0  0  0  0  0
   34.3760   29.5820   45.5770 H   0  0  0  0  0  0  0  0  0  0  0  0
   31.5390   29.0060   46.8890 O   0  0  0  0  0  0  0  0  0  0  0  0
   30.7470   28.3510   45.9790 C   0  0  0  0  0  2  0  0  0  0  0  0
   30.3840   27.0040   46.2910 N   0  0  0  0  0  4  0  0  0  0  0  0
   31.1230   26.6010   46.9270 H   0  0  0  0  0  0  0  0  0  0  0  0
   30.3580   26.1700   45.0690 C   0  0  0  0  0  2  0  0  0  0  0  0
   29.6600   26.6230   44.3580 H   0  0  0  0  0  0  0  0  0  0  0  0
   29.0740   26.8560   46.8750 C   0  0  0  0  0  2  0  0  0  0  0  0
   28.4630   26.0490   46.3720 H   0  0  0  0  0  0  0  0  0  0  0  0
  1  5  1  0  0  0  0
  1  6  1  1  0  0  0
  1  2  1  0  0  0  0
  2  7  1  6  0  0  0
  2 12  1  0  0  0  0
  2  3  1  0  0  0  0
  4  8  1  0  0  0  0
  4  9  1  0  0  0  0
  4  3  1  0  0  0  0
  5 10  1  6  0  0  0
  5  4  1  0  0  0  0
 11 14  1  6  0  0  0
 11 13  1  0  0  0  0
 12 15  1  6  0  0  0
 12 11  1  0  0  0  0
 12 13  1  0  0  0  0
 13 17  1  0  0  0  0
 13 16  1  0  0  0  0
 18 11  1  0  0  0  0
 18 19  1  0  0  0  0
 19 24  1  0  0  0  0
 20 19  2  0  0  0  0
 20 25  1  0  0  0  0
 21 20  1  0  0  0  0
 22 23  1  0  0  0  0
 22 21  2  0  0  0  0
 23 18  2  0  0  0  0
 26 22  1  0  0  0  0
 27  1  1  0  0  0  0
 28 27  1  0  0  0  0
 29  5  1  0  0  0  0
 30 31  1  0  0  0  0
 30 29  1  0  0  0  0
 31 35  1  0  0  0  0
 31 32  1  0  0  0  0
 33 31  1  0  0  0  0
 34 33  1  0  0  0  0
 36 35  1  0  0  0  0
M  END
>  <minimizedAffinity>
-4.53675652

>  <minimizedRMSD>
0.472648084

$$$$
