
 OpenBabel03272508263D

 36 38  0  0  1  0  0  0  0  0999 V2000
   33.9030   28.9060   47.2600 C   0  0  2  0  0  0  0  0  0  0  0  0
   34.6110   28.1570   48.3640 C   0  0  2  0  0  0  0  0  0  0  0  0
   33.6880   28.0100   49.3520 O   0  0  0  0  0  0  0  0  0  0  0  0
   32.4120   28.1130   48.8620 C   0  0  0  0  0  0  0  0  0  0  0  0
   32.5140   28.2930   47.3480 C   0  0  1  0  0  0  0  0  0  0  0  0
   33.7540   29.9810   47.5190 H   0  0  0  0  0  0  0  0  0  0  0  0
   34.9000   27.1730   47.9720 H   0  0  0  0  0  0  0  0  0  0  0  0
   31.7580   27.2850   49.1440 H   0  0  0  0  0  0  0  0  0  0  0  0
   31.9620   29.0570   49.2510 H   0  0  0  0  0  0  0  0  0  0  0  0
   32.5410   27.2440   46.9580 H   0  0  0  0  0  0  0  0  0  0  0  0
   35.6790   30.4230   49.0540 C   0  0  1  0  0  0  0  0  0  0  0  0
   35.7660   29.0010   48.8100 C   0  0  1  0  0  0  0  0  0  0  0  0
   35.9210   29.4540   50.2240 C   0  0  0  0  0  0  0  0  0  0  0  0
   34.7670   31.0270   49.2430 H   0  0  0  0  0  0  0  0  0  0  0  0
   36.7270   28.6610   48.3230 H   0  0  0  0  0  0  0  0  0  0  0  0
   35.0960   29.2740   50.9420 H   0  0  0  0  0  0  0  0  0  0  0  0
   36.9240   29.4180   50.6830 H   0  0  0  0  0  0  0  0  0  0  0  0
   36.8710   31.3290   48.8210 C   0  0  0  0  0  0  0  0  0  0  0  0
   37.0730   32.3760   49.7230 C   0  0  0  0  0  0  0  0  0  0  0  0
   38.1610   33.1920   49.4500 C   0  0  0  0  0  0  0  0  0  0  0  0
   38.9640   32.9620   48.3620 N   0  0  0  0  0  0  0  0  0  0  0  0
   38.7280   31.9300   47.5110 C   0  0  0  0  0  0  0  0  0  0  0  0
   37.6730   31.1100   47.7460 N   0  0  0  0  0  0  0  0  0  0  0  0
   36.4410   32.5450   50.5660 H   0  0  0  0  0  0  0  0  0  0  0  0
   38.4150   34.0320   50.0780 H   0  0  0  0  0  0  0  0  0  0  0  0
   39.3420   31.7280   46.6520 H   0  0  0  0  0  0  0  0  0  0  0  0
   34.4520   28.7420   46.0170 O   0  0  0  0  0  0  0  0  0  0  0  0
   34.3660   29.6000   45.5270 H   0  0  0  0  0  0  0  0  0  0  0  0
   31.5210   29.0740   46.8430 O   0  0  0  0  0  0  0  0  0  0  0  0
   30.3500   28.4040   46.5850 C   0  0  0  0  0  2  0  0  0  0  0  0
   30.4640   27.1210   45.9640 N   0  0  0  0  0  4  0  0  0  0  0  0
   31.4750   26.8230   46.0060 H   0  0  0  0  0  0  0  0  0  0  0  0
   30.0910   27.1960   44.5340 C   0  0  0  0  0  2  0  0  0  0  0  0
   29.0720   27.5900   44.4660 H   0  0  0  0  0  0  0  0  0  0  0  0
   29.6090   26.1060   46.5250 C   0  0  0  0  0  2  0  0  0  0  0  0
   29.0320   25.5380   45.7360 H   0  0  0  0  0  0  0  0  0  0  0  0
  1  5  1  0  0  0  0
  1  6  1  1  0  0  0
  1  2  1  0  0  0  0
  2  7  1  6  0  0  0
  2 12  1  0  0  0  0
  2  3  1  0  0  0  0
  4  8  1  0  0  0  0
  4  9  1  0  0  0  0
  4  3  1  0  0  0  0
  5 10  1  6  0  0  0
  5  4  1  0  0  0  0
 11 14  1  6  0  0  0
 11 13  1  0  0  0  0
 12 15  1  6  0  0  0
 12 11  1  0  0  0  0
 12 13  1  0  0  0  0
 13 17  1  0  0  0  0
 13 16  1  0  0  0  0
 18 11  1  0  0  0  0
 18 19  1  0  0  0  0
 19 24  1  0  0  0  0
 20 19  2  0  0  0  0
 20 25  1  0  0  0  0
 21 20  1  0  0  0  0
 22 23  1  0  0  0  0
 22 21  2  0  0  0  0
 23 18  2  0  0  0  0
 26 22  1  0  0  0  0
 27  1  1  0  0  0  0
 28 27  1  0  0  0  0
 29  5  1  0  0  0  0
 30 29  1  0  0  0  0
 31 32  1  0  0  0  0
 31 35  1  0  0  0  0
 31 30  1  0  0  0  0
 33 31  1  0  0  0  0
 34 33  1  0  0  0  0
 36 35  1  0  0  0  0
M  END
>  <minimizedAffinity>
-4.52854633

>  <minimizedRMSD>
0.536460698

$$$$
