
 OpenBabel03272508263D

 36 38  0  0  1  0  0  0  0  0999 V2000
   33.7980   28.8700   47.2540 C   0  0  2  0  0  0  0  0  0  0  0  0
   34.5480   28.0970   48.3140 C   0  0  2  0  0  0  0  0  0  0  0  0
   33.6540   27.8990   49.3180 O   0  0  0  0  0  0  0  0  0  0  0  0
   32.3640   27.9940   48.8650 C   0  0  0  0  0  0  0  0  0  0  0  0
   32.4230   28.2270   47.3550 C   0  0  1  0  0  0  0  0  0  0  0  0
   33.6370   29.9330   47.5540 H   0  0  0  0  0  0  0  0  0  0  0  0
   34.8450   27.1340   47.8800 H   0  0  0  0  0  0  0  0  0  0  0  0
   31.7330   27.1440   49.1330 H   0  0  0  0  0  0  0  0  0  0  0  0
   31.9070   28.9150   49.2970 H   0  0  0  0  0  0  0  0  0  0  0  0
   32.4600   27.1930   46.9290 H   0  0  0  0  0  0  0  0  0  0  0  0
   35.6020   30.3680   49.0100 C   0  0  1  0  0  0  0  0  0  0  0  0
   35.6980   28.9480   48.7590 C   0  0  1  0  0  0  0  0  0  0  0  0
   35.8550   29.3960   50.1740 C   0  0  0  0  0  0  0  0  0  0  0  0
   34.6860   30.9640   49.2040 H   0  0  0  0  0  0  0  0  0  0  0  0
   36.6610   28.6170   48.2670 H   0  0  0  0  0  0  0  0  0  0  0  0
   35.0350   29.2060   50.8950 H   0  0  0  0  0  0  0  0  0  0  0  0
   36.8600   29.3650   50.6300 H   0  0  0  0  0  0  0  0  0  0  0  0
   36.7860   31.2840   48.7760 C   0  0  0  0  0  0  0  0  0  0  0  0
   37.0330   32.2760   49.7290 C   0  0  0  0  0  0  0  0  0  0  0  0
   38.1110   33.1040   49.4550 C   0  0  0  0  0  0  0  0  0  0  0  0
   38.8650   32.9370   48.3200 N   0  0  0  0  0  0  0  0  0  0  0  0
   38.5860   31.9570   47.4220 C   0  0  0  0  0  0  0  0  0  0  0  0
   37.5390   31.1270   47.6560 N   0  0  0  0  0  0  0  0  0  0  0  0
   36.4400   32.3970   50.6070 H   0  0  0  0  0  0  0  0  0  0  0  0
   38.3970   33.9060   50.1190 H   0  0  0  0  0  0  0  0  0  0  0  0
   39.1600   31.8040   46.5260 H   0  0  0  0  0  0  0  0  0  0  0  0
   34.3180   28.7590   45.9920 O   0  0  0  0  0  0  0  0  0  0  0  0
   34.2030   29.6320   45.5340 H   0  0  0  0  0  0  0  0  0  0  0  0
   31.4040   29.0060   46.9030 O   0  0  0  0  0  0  0  0  0  0  0  0
   30.1570   28.4540   47.0650 C   0  0  0  0  0  2  0  0  0  0  0  0
   29.1920   29.2380   47.7730 N   0  0  0  0  0  4  0  0  0  0  0  0
   29.6700   30.1090   48.1270 H   0  0  0  0  0  0  0  0  0  0  0  0
   28.6870   28.5060   48.9560 C   0  0  0  0  0  2  0  0  0  0  0  0
   28.2660   27.5540   48.6170 H   0  0  0  0  0  0  0  0  0  0  0  0
   28.0170   29.5760   47.0080 C   0  0  0  0  0  2  0  0  0  0  0  0
   27.0590   29.3610   47.5680 H   0  0  0  0  0  0  0  0  0  0  0  0
  1  5  1  0  0  0  0
  1  6  1  1  0  0  0
  1  2  1  0  0  0  0
  2  7  1  6  0  0  0
  2 12  1  0  0  0  0
  2  3  1  0  0  0  0
  4  8  1  0  0  0  0
  4  9  1  0  0  0  0
  4  3  1  0  0  0  0
  5 10  1  6  0  0  0
  5  4  1  0  0  0  0
 11 14  1  6  0  0  0
 11 13  1  0  0  0  0
 12 15  1  6  0  0  0
 12 11  1  0  0  0  0
 12 13  1  0  0  0  0
 13 17  1  0  0  0  0
 13 16  1  0  0  0  0
 18 11  1  0  0  0  0
 18 19  1  0  0  0  0
 19 24  1  0  0  0  0
 20 19  2  0  0  0  0
 20 25  1  0  0  0  0
 21 20  1  0  0  0  0
 22 23  1  0  0  0  0
 22 21  2  0  0  0  0
 23 18  2  0  0  0  0
 26 22  1  0  0  0  0
 27  1  1  0  0  0  0
 28 27  1  0  0  0  0
 29 30  1  0  0  0  0
 29  5  1  0  0  0  0
 30 31  1  0  0  0  0
 31 32  1  0  0  0  0
 31 33  1  0  0  0  0
 34 33  1  0  0  0  0
 35 36  1  0  0  0  0
 35 31  1  0  0  0  0
M  END
>  <minimizedAffinity>
-5.09414864

>  <minimizedRMSD>
0.868319571

$$$$
