
 OpenBabel03272508083D

 22 22  0  0  0  0  0  0  0  0999 V2000
   39.1320   32.7460   48.0460 O   0  0  0  0  0  0  0  0  0  0  0  0
   38.7100   31.7500   47.0250 P   0  0  2  0  0  0  0  0  0  0  0  0
   37.7100   32.4720   45.8580 O   0  0  0  0  0  0  0  0  0  0  0  0
   37.4800   33.4050   46.1160 H   0  0  0  0  0  0  0  0  0  0  0  0
   37.9830   30.3550   47.6530 O   0  0  0  0  0  0  0  0  0  0  0  0
   37.3490   30.2170   51.2910 C   0  0  0  0  0  0  0  0  0  0  0  0
   38.0370   30.5500   50.1250 C   0  0  0  0  0  0  0  0  0  0  0  0
   37.5090   30.1550   48.9030 C   0  0  0  0  0  0  0  0  0  0  0  0
   36.3330   29.4530   48.9300 N   0  0  0  0  0  0  0  0  0  0  0  0
   35.6990   29.1500   50.0720 C   0  0  0  0  0  0  0  0  0  0  0  0
   36.2060   29.5310   51.2540 N   0  0  0  0  0  0  0  0  0  0  0  0
   37.8210   30.5580   52.2180 H   0  0  0  0  0  0  0  0  0  0  0  0
   38.9650   31.0980   50.0390 H   0  0  0  0  0  0  0  0  0  0  0  0
   34.7660   28.5920   50.0740 H   0  0  0  0  0  0  0  0  0  0  0  0
   40.1250   31.2490   46.1900 O   0  0  0  0  0  0  0  0  0  0  0  0
   40.2690   31.8720   44.9770 C   0  0  0  0  0  2  0  0  0  0  0  0
   39.4160   31.3170   43.9300 N   0  0  0  0  0  4  0  0  0  0  0  0
   38.3980   31.4950   44.1670 H   0  0  0  0  0  0  0  0  0  0  0  0
   39.7650   32.0130   42.7050 C   0  0  0  0  0  2  0  0  0  0  0  0
   38.8790   32.1650   42.0570 H   0  0  0  0  0  0  0  0  0  0  0  0
   39.6170   29.9130   43.7250 C   0  0  0  0  0  2  0  0  0  0  0  0
   39.8130   29.3310   44.6470 H   0  0  0  0  0  0  0  0  0  0  0  0
  2  5  1  0  0  0  0
  2  1  2  1  0  0  0
  3  4  1  0  0  0  0
  3  2  1  0  0  0  0
  5  8  1  0  0  0  0
  6 12  1  0  0  0  0
  7  6  2  0  0  0  0
  8  9  2  0  0  0  0
  8  7  1  0  0  0  0
  9 10  1  0  0  0  0
 10 14  1  0  0  0  0
 10 11  2  0  0  0  0
 11  6  1  0  0  0  0
 13  7  1  0  0  0  0
 15  2  1  0  0  0  0
 16 15  1  0  0  0  0
 17 18  1  0  0  0  0
 17 16  1  0  0  0  0
 19 17  1  0  0  0  0
 20 19  1  0  0  0  0
 21 17  1  0  0  0  0
 21 22  1  0  0  0  0
M  END
>  <minimizedAffinity>
-4.5959444

>  <minimizedRMSD>
0.593617976

$$$$
