
 OpenBabel03262521443D

 44 46  0  0  1  0  0  0  0  0999 V2000
   38.5280   22.8940   35.6660 C   0  0  2  0  0  0  0  0  0  0  0  0
   38.5250   24.3250   36.1600 C   0  0  2  0  0  0  0  0  0  0  0  0
   38.0600   24.3140   37.5770 C   0  0  0  0  0  0  0  0  0  0  0  0
   38.4540   23.1800   38.2280 O   0  0  0  0  0  0  0  0  0  0  0  0
   39.7350   22.8360   37.8330 C   0  0  0  0  0  0  0  0  0  0  0  0
   39.6670   22.2130   36.4720 C   0  0  2  0  0  0  0  0  0  0  0  0
   37.5790   22.4220   35.9930 H   0  0  0  0  0  0  0  0  0  0  0  0
   39.6190   24.4580   36.2180 H   0  0  0  0  0  0  0  0  0  0  0  0
   38.3830   25.2260   38.1440 H   0  0  0  0  0  0  0  0  0  0  0  0
   36.9410   24.3270   37.5820 H   0  0  0  0  0  0  0  0  0  0  0  0
   40.0740   22.0330   38.5440 H   0  0  0  0  0  0  0  0  0  0  0  0
   40.4160   23.6670   37.9630 H   0  0  0  0  0  0  0  0  0  0  0  0
   39.4340   21.1440   36.5620 H   0  0  0  0  0  0  0  0  0  0  0  0
   38.8430   22.6900   34.3650 O   0  0  0  0  0  0  0  0  0  0  0  0
   39.0650   21.7840   34.1080 H   0  0  0  0  0  0  0  0  0  0  0  0
   37.8820   25.2390   35.3830 O   0  0  0  0  0  0  0  0  0  0  0  0
   38.7340   26.0860   34.7990 C   0  0  1  0  0  0  0  0  0  0  0  0
   38.2070   26.7520   33.5550 C   0  0  2  0  0  0  0  0  0  0  0  0
   37.0240   27.4880   34.2010 C   0  0  0  0  0  0  0  0  0  0  0  0
   37.4810   27.9990   35.3900 O   0  0  0  0  0  0  0  0  0  0  0  0
   38.6330   27.3790   35.6720 C   0  0  0  0  0  0  0  0  0  0  0  0
   39.8230   25.9150   34.9630 H   0  0  0  0  0  0  0  0  0  0  0  0
   38.9090   27.4980   33.1810 H   0  0  0  0  0  0  0  0  0  0  0  0
   36.1330   26.8460   34.2950 H   0  0  0  0  0  0  0  0  0  0  0  0
   36.7530   28.3270   33.5330 H   0  0  0  0  0  0  0  0  0  0  0  0
   39.2040   27.4870   36.5250 H   0  0  0  0  0  0  0  0  0  0  0  0
   39.3320   28.0130   34.9870 H   0  0  0  0  0  0  0  0  0  0  0  0
   37.7620   25.7820   32.5480 C   0  0  0  0  0  0  0  0  0  0  0  0
   36.4290   25.8400   32.1290 C   0  0  0  0  0  0  0  0  0  0  0  0
   36.0220   24.8810   31.1680 C   0  0  0  0  0  0  0  0  0  0  0  0
   36.9410   23.9710   30.7150 N   0  0  0  0  0  0  0  0  0  0  0  0
   38.2270   23.9510   31.1510 C   0  0  0  0  0  0  0  0  0  0  0  0
   38.6160   24.8650   32.0660 N   0  0  0  0  0  0  0  0  0  0  0  0
   35.7780   26.5870   32.5360 H   0  0  0  0  0  0  0  0  0  0  0  0
   35.0120   24.8990   30.8280 H   0  0  0  0  0  0  0  0  0  0  0  0
   38.9260   23.2170   30.7700 H   0  0  0  0  0  0  0  0  0  0  0  0
   40.8870   22.4560   35.8400 O   0  0  0  0  0  0  0  0  0  0  0  0
   41.9430   22.7510   36.6390 C   0  0  0  0  0  2  0  0  0  0  0  0
   42.8580   23.5840   35.8380 N   0  0  0  0  0  4  0  0  0  0  0  0
   43.3010   22.9590   35.1270 H   0  0  0  0  0  0  0  0  0  0  0  0
   43.8780   24.1750   36.6750 C   0  0  0  0  0  2  0  0  0  0  0  0
   44.2560   23.4760   37.4450 H   0  0  0  0  0  0  0  0  0  0  0  0
   42.1440   24.6230   35.1310 C   0  0  0  0  0  2  0  0  0  0  0  0
   42.6770   24.9110   34.2020 H   0  0  0  0  0  0  0  0  0  0  0  0
  1  7  1  1  0  0  0
  1  2  1  0  0  0  0
  1  6  1  0  0  0  0
  2  8  1  1  0  0  0
  2  3  1  0  0  0  0
  3 10  1  0  0  0  0
  3  9  1  0  0  0  0
  3  4  1  0  0  0  0
  5 12  1  0  0  0  0
  5  4  1  0  0  0  0
  5 11  1  0  0  0  0
  6 13  1  1  0  0  0
  6  5  1  0  0  0  0
 14  1  1  0  0  0  0
 15 14  1  0  0  0  0
 16  2  1  0  0  0  0
 17 22  1  6  0  0  0
 17 16  1  0  0  0  0
 17 21  1  0  0  0  0
 18 23  1  6  0  0  0
 18 19  1  0  0  0  0
 18 17  1  0  0  0  0
 19 24  1  0  0  0  0
 19 20  1  0  0  0  0
 20 21  1  0  0  0  0
 21 26  1  0  0  0  0
 25 19  1  0  0  0  0
 27 21  1  0  0  0  0
 28 18  1  0  0  0  0
 29 34  1  0  0  0  0
 29 28  1  0  0  0  0
 30 29  2  0  0  0  0
 31 32  2  0  0  0  0
 31 30  1  0  0  0  0
 32 33  1  0  0  0  0
 33 28  2  0  0  0  0
 35 30  1  0  0  0  0
 36 32  1  0  0  0  0
 37  6  1  0  0  0  0
 37 38  1  0  0  0  0
 39 38  1  0  0  0  0
 39 41  1  0  0  0  0
 40 39  1  0  0  0  0
 41 42  1  0  0  0  0
 43 39  1  0  0  0  0
 44 43  1  0  0  0  0
M  END
>  <minimizedAffinity>
-4.9619503

$$$$

 OpenBabel03262521443D

 44 46  0  0  1  0  0  0  0  0999 V2000
   39.0140   27.2840   34.9210 C   0  0  2  0  0  0  0  0  0  0  0  0
   38.4760   26.9160   33.5540 C   0  0  2  0  0  0  0  0  0  0  0  0
   39.6220   26.4350   32.7300 C   0  0  0  0  0  0  0  0  0  0  0  0
   40.5520   25.7850   33.4910 O   0  0  0  0  0  0  0  0  0  0  0  0
   39.9160   25.0200   34.4530 C   0  0  0  0  0  0  0  0  0  0  0  0
   39.4320   25.9250   35.5440 C   0  0  2  0  0  0  0  0  0  0  0  0
   39.9460   27.8660   34.7710 H   0  0  0  0  0  0  0  0  0  0  0  0
   37.9350   26.0030   33.8540 H   0  0  0  0  0  0  0  0  0  0  0  0
   39.2970   25.7900   31.8720 H   0  0  0  0  0  0  0  0  0  0  0  0
   40.1290   27.3220   32.2750 H   0  0  0  0  0  0  0  0  0  0  0  0
   40.7110   24.3620   34.9010 H   0  0  0  0  0  0  0  0  0  0  0  0
   39.1900   24.3570   34.0010 H   0  0  0  0  0  0  0  0  0  0  0  0
   40.2420   26.1090   36.2630 H   0  0  0  0  0  0  0  0  0  0  0  0
   38.1420   27.8260   35.8030 O   0  0  0  0  0  0  0  0  0  0  0  0
   38.4180   27.8490   36.7290 H   0  0  0  0  0  0  0  0  0  0  0  0
   37.7100   27.8510   32.9270 O   0  0  0  0  0  0  0  0  0  0  0  0
   36.4170   27.5170   32.9260 C   0  0  1  0  0  0  0  0  0  0  0  0
   35.4810   28.6280   32.5260 C   0  0  2  0  0  0  0  0  0  0  0  0
   36.0150   28.8470   31.1040 C   0  0  0  0  0  0  0  0  0  0  0  0
   36.2370   27.6000   30.5710 O   0  0  0  0  0  0  0  0  0  0  0  0
   36.2350   26.7290   31.5870 C   0  0  0  0  0  0  0  0  0  0  0  0
   36.0990   26.6870   33.5980 H   0  0  0  0  0  0  0  0  0  0  0  0
   34.4530   28.2690   32.4530 H   0  0  0  0  0  0  0  0  0  0  0  0
   36.8920   29.5120   31.0840 H   0  0  0  0  0  0  0  0  0  0  0  0
   35.2140   29.3430   30.5230 H   0  0  0  0  0  0  0  0  0  0  0  0
   36.4350   25.7180   31.5380 H   0  0  0  0  0  0  0  0  0  0  0  0
   35.0800   26.6120   31.7000 H   0  0  0  0  0  0  0  0  0  0  0  0
   35.6440   29.8240   33.3610 C   0  0  0  0  0  0  0  0  0  0  0  0
   35.6840   31.0660   32.7210 C   0  0  0  0  0  0  0  0  0  0  0  0
   35.8600   32.2030   33.5490 C   0  0  0  0  0  0  0  0  0  0  0  0
   35.9800   32.0210   34.9020 N   0  0  0  0  0  0  0  0  0  0  0  0
   35.9370   30.7930   35.4810 C   0  0  0  0  0  0  0  0  0  0  0  0
   35.7680   29.7090   34.6920 N   0  0  0  0  0  0  0  0  0  0  0  0
   35.5810   31.1180   31.6550 H   0  0  0  0  0  0  0  0  0  0  0  0
   35.8930   33.1650   33.0910 H   0  0  0  0  0  0  0  0  0  0  0  0
   36.0350   30.6880   36.5540 H   0  0  0  0  0  0  0  0  0  0  0  0
   38.3150   25.3210   36.1230 O   0  0  0  0  0  0  0  0  0  0  0  0
   38.1860   23.9810   35.9520 C   0  0  0  0  0  2  0  0  0  0  0  0
   38.2670   23.3750   37.2940 N   0  0  0  0  0  4  0  0  0  0  0  0
   37.6240   22.5520   37.2990 H   0  0  0  0  0  0  0  0  0  0  0  0
   37.8610   24.3210   38.3090 C   0  0  0  0  0  2  0  0  0  0  0  0
   36.9900   24.9310   38.0020 H   0  0  0  0  0  0  0  0  0  0  0  0
   39.6010   22.8970   37.5760 C   0  0  0  0  0  2  0  0  0  0  0  0
   39.5770   22.0500   38.2930 H   0  0  0  0  0  0  0  0  0  0  0  0
  1  7  1  6  0  0  0
  1  6  1  0  0  0  0
  1 14  1  0  0  0  0
  2  8  1  1  0  0  0
  2  1  1  0  0  0  0
  3  4  1  0  0  0  0
  3  2  1  0  0  0  0
  4  5  1  0  0  0  0
  5 11  1  0  0  0  0
  5  6  1  0  0  0  0
  6 37  1  0  0  0  0
  6 13  1  1  0  0  0
  9  3  1  0  0  0  0
 10  3  1  0  0  0  0
 12  5  1  0  0  0  0
 14 15  1  0  0  0  0
 16  2  1  0  0  0  0
 17 16  1  0  0  0  0
 17 22  1  1  0  0  0
 18 23  1  6  0  0  0
 18 17  1  0  0  0  0
 18 28  1  0  0  0  0
 19 18  1  0  0  0  0
 20 19  1  0  0  0  0
 20 21  1  0  0  0  0
 21 27  1  0  0  0  0
 21 17  1  0  0  0  0
 24 19  1  0  0  0  0
 25 19  1  0  0  0  0
 26 21  1  0  0  0  0
 28 33  1  0  0  0  0
 29 28  2  0  0  0  0
 29 30  1  0  0  0  0
 30 31  2  0  0  0  0
 31 32  1  0  0  0  0
 32 36  1  0  0  0  0
 33 32  2  0  0  0  0
 34 29  1  0  0  0  0
 35 30  1  0  0  0  0
 38 37  1  0  0  0  0
 38 39  1  0  0  0  0
 39 40  1  0  0  0  0
 39 43  1  0  0  0  0
 39 41  1  0  0  0  0
 42 41  1  0  0  0  0
 43 44  1  0  0  0  0
M  END
>  <minimizedAffinity>
-4.76123953

$$$$

 OpenBabel03262521443D

 44 46  0  0  1  0  0  0  0  0999 V2000
   38.6030   23.1830   32.3620 C   0  0  2  0  0  0  0  0  0  0  0  0
   37.2820   23.9120   32.2250 C   0  0  2  0  0  0  0  0  0  0  0  0
   36.3090   22.9700   31.6000 C   0  0  0  0  0  0  0  0  0  0  0  0
   36.5440   21.6790   31.9760 O   0  0  0  0  0  0  0  0  0  0  0  0
   36.9080   21.6400   33.3110 C   0  0  0  0  0  0  0  0  0  0  0  0
   38.3300   22.0950   33.4340 C   0  0  2  0  0  0  0  0  0  0  0  0
   38.7950   22.6510   31.4080 H   0  0  0  0  0  0  0  0  0  0  0  0
   37.0180   23.9290   33.2960 H   0  0  0  0  0  0  0  0  0  0  0  0
   35.2430   23.2520   31.8060 H   0  0  0  0  0  0  0  0  0  0  0  0
   36.4320   23.0190   30.4890 H   0  0  0  0  0  0  0  0  0  0  0  0
   36.8850   20.5550   33.6070 H   0  0  0  0  0  0  0  0  0  0  0  0
   36.1730   22.1410   33.9270 H   0  0  0  0  0  0  0  0  0  0  0  0
   39.0090   21.2520   33.2510 H   0  0  0  0  0  0  0  0  0  0  0  0
   39.6540   23.8940   32.8360 O   0  0  0  0  0  0  0  0  0  0  0  0
   40.4220   23.3880   33.1350 H   0  0  0  0  0  0  0  0  0  0  0  0
   37.3170   25.1340   31.6290 O   0  0  0  0  0  0  0  0  0  0  0  0
   36.6300   26.0470   32.3210 C   0  0  1  0  0  0  0  0  0  0  0  0
   37.3630   27.3420   32.5560 C   0  0  2  0  0  0  0  0  0  0  0  0
   37.5360   27.7510   31.0860 C   0  0  0  0  0  0  0  0  0  0  0  0
   36.3470   27.4730   30.4590 O   0  0  0  0  0  0  0  0  0  0  0  0
   35.6530   26.6600   31.2640 C   0  0  0  0  0  0  0  0  0  0  0  0
   35.8400   25.6790   33.0150 H   0  0  0  0  0  0  0  0  0  0  0  0
   36.7190   28.0760   33.0410 H   0  0  0  0  0  0  0  0  0  0  0  0
   38.4160   27.2800   30.6210 H   0  0  0  0  0  0  0  0  0  0  0  0
   37.7020   28.8450   31.0660 H   0  0  0  0  0  0  0  0  0  0  0  0
   34.7450   26.2150   31.0640 H   0  0  0  0  0  0  0  0  0  0  0  0
   35.2270   27.4710   31.9870 H   0  0  0  0  0  0  0  0  0  0  0  0
   38.6550   27.1390   33.2220 C   0  0  0  0  0  0  0  0  0  0  0  0
   38.6480   26.8770   34.5950 C   0  0  0  0  0  0  0  0  0  0  0  0
   39.9100   26.7020   35.2160 C   0  0  0  0  0  0  0  0  0  0  0  0
   41.0410   26.8000   34.4500 N   0  0  0  0  0  0  0  0  0  0  0  0
   41.0010   27.0590   33.1170 C   0  0  0  0  0  0  0  0  0  0  0  0
   39.7990   27.2240   32.5240 N   0  0  0  0  0  0  0  0  0  0  0  0
   37.7150   26.8160   35.1190 H   0  0  0  0  0  0  0  0  0  0  0  0
   39.9380   26.4990   36.2620 H   0  0  0  0  0  0  0  0  0  0  0  0
   41.9160   27.1290   32.5420 H   0  0  0  0  0  0  0  0  0  0  0  0
   38.4820   22.6520   34.7050 O   0  0  0  0  0  0  0  0  0  0  0  0
   37.7580   22.0960   35.7080 C   0  0  0  0  0  2  0  0  0  0  0  0
   38.2730   22.6660   36.9660 N   0  0  0  0  0  4  0  0  0  0  0  0
   37.9640   22.0340   37.7400 H   0  0  0  0  0  0  0  0  0  0  0  0
   37.7470   23.9950   37.1800 C   0  0  0  0  0  2  0  0  0  0  0  0
   36.6800   24.0830   36.8990 H   0  0  0  0  0  0  0  0  0  0  0  0
   39.7170   22.7040   36.9760 C   0  0  0  0  0  2  0  0  0  0  0  0
   40.1100   22.6450   38.0120 H   0  0  0  0  0  0  0  0  0  0  0  0
  1  7  1  6  0  0  0
  1 14  1  0  0  0  0
  1  6  1  0  0  0  0
  2  1  1  0  0  0  0
  2  8  1  1  0  0  0
  3  9  1  0  0  0  0
  3  4  1  0  0  0  0
  3  2  1  0  0  0  0
  4  5  1  0  0  0  0
  5  6  1  0  0  0  0
  5 11  1  0  0  0  0
  5 12  1  0  0  0  0
  6 13  1  6  0  0  0
  6 37  1  0  0  0  0
 10  3  1  0  0  0  0
 14 15  1  0  0  0  0
 16  2  1  0  0  0  0
 16 17  1  0  0  0  0
 17 18  1  0  0  0  0
 17 22  1  1  0  0  0
 18 23  1  1  0  0  0
 18 28  1  0  0  0  0
 19 18  1  0  0  0  0
 20 19  1  0  0  0  0
 20 21  1  0  0  0  0
 21 27  1  0  0  0  0
 21 17  1  0  0  0  0
 24 19  1  0  0  0  0
 25 19  1  0  0  0  0
 26 21  1  0  0  0  0
 28 29  1  0  0  0  0
 29 34  1  0  0  0  0
 29 30  2  0  0  0  0
 30 35  1  0  0  0  0
 31 30  1  0  0  0  0
 32 31  2  0  0  0  0
 33 32  1  0  0  0  0
 33 28  2  0  0  0  0
 36 32  1  0  0  0  0
 37 38  1  0  0  0  0
 38 39  1  0  0  0  0
 39 43  1  0  0  0  0
 39 41  1  0  0  0  0
 39 40  1  0  0  0  0
 42 41  1  0  0  0  0
 43 44  1  0  0  0  0
M  END
>  <minimizedAffinity>
-4.7603159

$$$$

 OpenBabel03262521443D

 44 46  0  0  1  0  0  0  0  0999 V2000
   39.1560   26.0510   34.0310 C   0  0  2  0  0  0  0  0  0  0  0  0
   38.5770   25.5840   35.3510 C   0  0  2  0  0  0  0  0  0  0  0  0
   38.2240   26.7970   36.1440 C   0  0  0  0  0  0  0  0  0  0  0  0
   37.8150   27.8240   35.3420 O   0  0  0  0  0  0  0  0  0  0  0  0
   37.0450   27.3270   34.3040 C   0  0  0  0  0  0  0  0  0  0  0  0
   37.9510   26.6950   33.2930 C   0  0  2  0  0  0  0  0  0  0  0  0
   39.8720   26.8700   34.2470 H   0  0  0  0  0  0  0  0  0  0  0  0
   37.6170   25.2070   34.9600 H   0  0  0  0  0  0  0  0  0  0  0  0
   37.4570   26.5870   36.9350 H   0  0  0  0  0  0  0  0  0  0  0  0
   39.1390   27.1450   36.6870 H   0  0  0  0  0  0  0  0  0  0  0  0
   36.5760   28.2230   33.8100 H   0  0  0  0  0  0  0  0  0  0  0  0
   36.2290   26.7250   34.6830 H   0  0  0  0  0  0  0  0  0  0  0  0
   38.3360   27.4600   32.6070 H   0  0  0  0  0  0  0  0  0  0  0  0
   39.6210   25.0980   33.1890 O   0  0  0  0  0  0  0  0  0  0  0  0
   39.7760   25.3660   32.2730 H   0  0  0  0  0  0  0  0  0  0  0  0
   39.3060   24.6710   36.0480 O   0  0  0  0  0  0  0  0  0  0  0  0
   38.7790   23.4460   35.9690 C   0  0  1  0  0  0  0  0  0  0  0  0
   39.7130   22.3320   36.3650 C   0  0  2  0  0  0  0  0  0  0  0  0
   39.9410   22.7610   37.8210 C   0  0  0  0  0  0  0  0  0  0  0  0
   38.7190   23.1500   38.3120 O   0  0  0  0  0  0  0  0  0  0  0  0
   37.9080   23.3290   37.2620 C   0  0  0  0  0  0  0  0  0  0  0  0
   37.9440   23.2910   35.2470 H   0  0  0  0  0  0  0  0  0  0  0  0
   39.1980   21.3710   36.3690 H   0  0  0  0  0  0  0  0  0  0  0  0
   40.7310   23.5230   37.9140 H   0  0  0  0  0  0  0  0  0  0  0  0
   40.2800   21.8680   38.3790 H   0  0  0  0  0  0  0  0  0  0  0  0
   36.9380   23.6800   37.2800 H   0  0  0  0  0  0  0  0  0  0  0  0
   37.6210   22.2120   37.0850 H   0  0  0  0  0  0  0  0  0  0  0  0
   40.9590   22.3460   35.5900 C   0  0  0  0  0  0  0  0  0  0  0  0
   42.1660   22.3180   36.2950 C   0  0  0  0  0  0  0  0  0  0  0  0
   43.3550   22.3490   35.5220 C   0  0  0  0  0  0  0  0  0  0  0  0
   43.2520   22.4060   34.1570 N   0  0  0  0  0  0  0  0  0  0  0  0
   42.0560   22.4330   33.5140 C   0  0  0  0  0  0  0  0  0  0  0  0
   40.9230   22.4020   34.2490 N   0  0  0  0  0  0  0  0  0  0  0  0
   42.1540   22.2720   37.3650 H   0  0  0  0  0  0  0  0  0  0  0  0
   44.2910   22.3280   36.0300 H   0  0  0  0  0  0  0  0  0  0  0  0
   42.0140   22.4770   32.4330 H   0  0  0  0  0  0  0  0  0  0  0  0
   37.2220   25.6970   32.6450 O   0  0  0  0  0  0  0  0  0  0  0  0
   36.6500   26.0270   31.4610 C   0  0  0  0  0  2  0  0  0  0  0  0
   36.4670   24.7690   30.7140 N   0  0  0  0  0  4  0  0  0  0  0  0
   36.0800   25.0200   29.7770 H   0  0  0  0  0  0  0  0  0  0  0  0
   35.5480   23.8920   31.4040 C   0  0  0  0  0  2  0  0  0  0  0  0
   34.6890   24.4340   31.8440 H   0  0  0  0  0  0  0  0  0  0  0  0
   37.7260   24.0910   30.5070 C   0  0  0  0  0  2  0  0  0  0  0  0
   37.6970   23.4700   29.5870 H   0  0  0  0  0  0  0  0  0  0  0  0
  1  7  1  1  0  0  0
  1  2  1  0  0  0  0
  2  8  1  6  0  0  0
  2 16  1  0  0  0  0
  2  3  1  0  0  0  0
  3 10  1  0  0  0  0
  3  9  1  0  0  0  0
  4  3  1  0  0  0  0
  5 12  1  0  0  0  0
  5  4  1  0  0  0  0
  6 13  1  6  0  0  0
  6  1  1  0  0  0  0
  6  5  1  0  0  0  0
 11  5  1  0  0  0  0
 14  1  1  0  0  0  0
 15 14  1  0  0  0  0
 17 22  1  6  0  0  0
 17 16  1  0  0  0  0
 17 18  1  0  0  0  0
 17 21  1  0  0  0  0
 18 23  1  6  0  0  0
 18 19  1  0  0  0  0
 19 24  1  0  0  0  0
 19 20  1  0  0  0  0
 19 25  1  0  0  0  0
 21 26  1  0  0  0  0
 21 20  1  0  0  0  0
 27 21  1  0  0  0  0
 28 29  1  0  0  0  0
 28 18  1  0  0  0  0
 29 34  1  0  0  0  0
 30 35  1  0  0  0  0
 30 29  2  0  0  0  0
 31 30  1  0  0  0  0
 32 31  2  0  0  0  0
 32 33  1  0  0  0  0
 33 28  2  0  0  0  0
 36 32  1  0  0  0  0
 37  6  1  0  0  0  0
 38 37  1  0  0  0  0
 39 41  1  0  0  0  0
 39 38  1  0  0  0  0
 40 39  1  0  0  0  0
 41 42  1  0  0  0  0
 43 39  1  0  0  0  0
 44 43  1  0  0  0  0
M  END
>  <minimizedAffinity>
-4.74415112

$$$$

 OpenBabel03262521443D

 44 46  0  0  1  0  0  0  0  0999 V2000
   38.9880   22.2710   34.2160 C   0  0  2  0  0  0  0  0  0  0  0  0
   37.5070   21.9620   34.1650 C   0  0  2  0  0  0  0  0  0  0  0  0
   37.0610   21.6520   35.5540 C   0  0  0  0  0  0  0  0  0  0  0  0
   37.7570   22.3750   36.4800 O   0  0  0  0  0  0  0  0  0  0  0  0
   37.9730   23.6580   36.0060 C   0  0  0  0  0  0  0  0  0  0  0  0
   39.0720   23.6150   34.9880 C   0  0  2  0  0  0  0  0  0  0  0  0
   39.4710   21.5050   34.8550 H   0  0  0  0  0  0  0  0  0  0  0  0
   37.1530   22.9890   33.9730 H   0  0  0  0  0  0  0  0  0  0  0  0
   35.9570   21.7920   35.6950 H   0  0  0  0  0  0  0  0  0  0  0  0
   37.2640   20.5710   35.7590 H   0  0  0  0  0  0  0  0  0  0  0  0
   38.3590   24.2510   36.8800 H   0  0  0  0  0  0  0  0  0  0  0  0
   37.0410   24.1210   35.7080 H   0  0  0  0  0  0  0  0  0  0  0  0
   40.0470   23.6640   35.4900 H   0  0  0  0  0  0  0  0  0  0  0  0
   39.6120   22.5000   33.0360 O   0  0  0  0  0  0  0  0  0  0  0  0
   40.4850   22.9140   33.0780 H   0  0  0  0  0  0  0  0  0  0  0  0
   37.1050   21.0410   33.2470 O   0  0  0  0  0  0  0  0  0  0  0  0
   35.8100   21.1680   32.9470 C   0  0  1  0  0  0  0  0  0  0  0  0
   35.5330   21.6630   31.5510 C   0  0  2  0  0  0  0  0  0  0  0  0
   36.1860   20.5020   30.7860 C   0  0  0  0  0  0  0  0  0  0  0  0
   35.8220   19.3490   31.4380 O   0  0  0  0  0  0  0  0  0  0  0  0
   35.3520   19.7040   32.6400 C   0  0  0  0  0  0  0  0  0  0  0  0
   35.1010   21.3420   33.7880 H   0  0  0  0  0  0  0  0  0  0  0  0
   34.4640   21.6550   31.3350 H   0  0  0  0  0  0  0  0  0  0  0  0
   37.2730   20.6350   30.6710 H   0  0  0  0  0  0  0  0  0  0  0  0
   35.7480   20.4890   29.7700 H   0  0  0  0  0  0  0  0  0  0  0  0
   35.0530   19.0750   33.4000 H   0  0  0  0  0  0  0  0  0  0  0  0
   34.2750   20.0070   32.3120 H   0  0  0  0  0  0  0  0  0  0  0  0
   36.1960   22.9420   31.2700 C   0  0  0  0  0  0  0  0  0  0  0  0
   35.4790   24.1170   31.5180 C   0  0  0  0  0  0  0  0  0  0  0  0
   36.1370   25.3380   31.2220 C   0  0  0  0  0  0  0  0  0  0  0  0
   37.4110   25.2950   30.7190 N   0  0  0  0  0  0  0  0  0  0  0  0
   38.0690   24.1280   30.4920 C   0  0  0  0  0  0  0  0  0  0  0  0
   37.4440   22.9650   30.7750 N   0  0  0  0  0  0  0  0  0  0  0  0
   34.4850   24.0580   31.9140 H   0  0  0  0  0  0  0  0  0  0  0  0
   35.6180   26.2510   31.4000 H   0  0  0  0  0  0  0  0  0  0  0  0
   39.0760   24.1340   30.0940 H   0  0  0  0  0  0  0  0  0  0  0  0
   38.8600   24.6710   34.1000 O   0  0  0  0  0  0  0  0  0  0  0  0
   37.8350   25.5130   34.3830 C   0  0  0  0  0  2  0  0  0  0  0  0
   38.3870   26.8790   34.3350 N   0  0  0  0  0  4  0  0  0  0  0  0
   37.6130   27.5130   34.0340 H   0  0  0  0  0  0  0  0  0  0  0  0
   39.4800   26.9580   33.3930 C   0  0  0  0  0  2  0  0  0  0  0  0
   39.2910   26.3780   32.4690 H   0  0  0  0  0  0  0  0  0  0  0  0
   38.8330   27.3140   35.6390 C   0  0  0  0  0  2  0  0  0  0  0  0
   38.7760   28.4180   35.7320 H   0  0  0  0  0  0  0  0  0  0  0  0
  1  7  1  1  0  0  0
  1  6  1  0  0  0  0
  2  8  1  6  0  0  0
  2  1  1  0  0  0  0
  2  3  1  0  0  0  0
  3  9  1  0  0  0  0
  3 10  1  0  0  0  0
  3  4  1  0  0  0  0
  5  4  1  0  0  0  0
  5 11  1  0  0  0  0
  6 13  1  1  0  0  0
  6  5  1  0  0  0  0
 12  5  1  0  0  0  0
 14 15  1  0  0  0  0
 14  1  1  0  0  0  0
 16  2  1  0  0  0  0
 17 16  1  0  0  0  0
 17 22  1  1  0  0  0
 18 23  1  6  0  0  0
 18 17  1  0  0  0  0
 19 20  1  0  0  0  0
 19 18  1  0  0  0  0
 20 21  1  0  0  0  0
 21 17  1  0  0  0  0
 21 26  1  0  0  0  0
 24 19  1  0  0  0  0
 25 19  1  0  0  0  0
 27 21  1  0  0  0  0
 28 29  1  0  0  0  0
 28 18  1  0  0  0  0
 29 34  1  0  0  0  0
 30 35  1  0  0  0  0
 30 29  2  0  0  0  0
 31 30  1  0  0  0  0
 32 31  2  0  0  0  0
 32 33  1  0  0  0  0
 33 28  2  0  0  0  0
 36 32  1  0  0  0  0
 37 38  1  0  0  0  0
 37  6  1  0  0  0  0
 39 38  1  0  0  0  0
 39 43  1  0  0  0  0
 40 39  1  0  0  0  0
 41 39  1  0  0  0  0
 42 41  1  0  0  0  0
 43 44  1  0  0  0  0
M  END
>  <minimizedAffinity>
-4.70765734

$$$$

 OpenBabel03262521443D

 44 46  0  0  1  0  0  0  0  0999 V2000
   39.1000   26.1540   34.1100 C   0  0  2  0  0  0  0  0  0  0  0  0
   38.4710   25.6370   35.3870 C   0  0  2  0  0  0  0  0  0  0  0  0
   38.1490   26.8150   36.2420 C   0  0  0  0  0  0  0  0  0  0  0  0
   37.8030   27.9030   35.4930 O   0  0  0  0  0  0  0  0  0  0  0  0
   37.0390   27.5010   34.4120 C   0  0  0  0  0  0  0  0  0  0  0  0
   37.9420   26.8910   33.3850 C   0  0  2  0  0  0  0  0  0  0  0  0
   39.8440   26.9270   34.3900 H   0  0  0  0  0  0  0  0  0  0  0  0
   37.5060   25.3240   34.9530 H   0  0  0  0  0  0  0  0  0  0  0  0
   37.3540   26.5930   37.0020 H   0  0  0  0  0  0  0  0  0  0  0  0
   39.0640   27.0910   36.8250 H   0  0  0  0  0  0  0  0  0  0  0  0
   36.6200   28.4430   33.9610 H   0  0  0  0  0  0  0  0  0  0  0  0
   36.1900   26.9140   34.7360 H   0  0  0  0  0  0  0  0  0  0  0  0
   38.3760   27.6770   32.7540 H   0  0  0  0  0  0  0  0  0  0  0  0
   39.5460   25.2330   33.2240 O   0  0  0  0  0  0  0  0  0  0  0  0
   39.7340   25.5460   32.3290 H   0  0  0  0  0  0  0  0  0  0  0  0
   39.1430   24.6540   36.0450 O   0  0  0  0  0  0  0  0  0  0  0  0
   38.3850   23.5700   36.2330 C   0  0  1  0  0  0  0  0  0  0  0  0
   39.1150   22.2590   36.0920 C   0  0  2  0  0  0  0  0  0  0  0  0
   40.1200   22.4580   37.2360 C   0  0  0  0  0  0  0  0  0  0  0  0
   39.4200   23.0090   38.2810 O   0  0  0  0  0  0  0  0  0  0  0  0
   38.2620   23.4640   37.7880 C   0  0  0  0  0  0  0  0  0  0  0  0
   37.2940   23.6640   36.0310 H   0  0  0  0  0  0  0  0  0  0  0  0
   38.4690   21.4190   36.3480 H   0  0  0  0  0  0  0  0  0  0  0  0
   41.0010   23.0400   36.9230 H   0  0  0  0  0  0  0  0  0  0  0  0
   40.4790   21.4560   37.5380 H   0  0  0  0  0  0  0  0  0  0  0  0
   37.5340   23.9880   38.2960 H   0  0  0  0  0  0  0  0  0  0  0  0
   37.6830   22.4520   37.7700 H   0  0  0  0  0  0  0  0  0  0  0  0
   39.7860   22.1300   34.7930 C   0  0  0  0  0  0  0  0  0  0  0  0
   41.1850   22.1280   34.7780 C   0  0  0  0  0  0  0  0  0  0  0  0
   41.8070   22.0190   33.5080 C   0  0  0  0  0  0  0  0  0  0  0  0
   41.0170   21.9260   32.3930 N   0  0  0  0  0  0  0  0  0  0  0  0
   39.6600   21.9330   32.4550 C   0  0  0  0  0  0  0  0  0  0  0  0
   39.0660   22.0350   33.6640 N   0  0  0  0  0  0  0  0  0  0  0  0
   41.7250   22.2050   35.7000 H   0  0  0  0  0  0  0  0  0  0  0  0
   42.8720   22.0140   33.4640 H   0  0  0  0  0  0  0  0  0  0  0  0
   39.0680   21.8560   31.5520 H   0  0  0  0  0  0  0  0  0  0  0  0
   37.1880   25.9640   32.6630 O   0  0  0  0  0  0  0  0  0  0  0  0
   36.8540   26.3030   31.3930 C   0  0  0  0  0  2  0  0  0  0  0  0
   36.2120   25.1180   30.7950 N   0  0  0  0  0  4  0  0  0  0  0  0
   36.5610   25.0420   29.8120 H   0  0  0  0  0  0  0  0  0  0  0  0
   34.7740   25.2590   30.7950 C   0  0  0  0  0  2  0  0  0  0  0  0
   34.4450   26.2850   30.5420 H   0  0  0  0  0  0  0  0  0  0  0  0
   36.5840   23.9080   31.4920 C   0  0  0  0  0  2  0  0  0  0  0  0
   36.5420   23.0300   30.8150 H   0  0  0  0  0  0  0  0  0  0  0  0
  1  7  1  1  0  0  0
  1  2  1  0  0  0  0
  2  8  1  6  0  0  0
  2 16  1  0  0  0  0
  2  3  1  0  0  0  0
  3 10  1  0  0  0  0
  3  9  1  0  0  0  0
  4  3  1  0  0  0  0
  5 12  1  0  0  0  0
  5  4  1  0  0  0  0
  6 13  1  6  0  0  0
  6  1  1  0  0  0  0
  6  5  1  0  0  0  0
 11  5  1  0  0  0  0
 14  1  1  0  0  0  0
 15 14  1  0  0  0  0
 16 17  1  0  0  0  0
 17 22  1  6  0  0  0
 17 21  1  0  0  0  0
 18 17  1  0  0  0  0
 18 23  1  1  0  0  0
 18 19  1  0  0  0  0
 19 25  1  0  0  0  0
 19 20  1  0  0  0  0
 21 20  1  0  0  0  0
 21 26  1  0  0  0  0
 24 19  1  0  0  0  0
 27 21  1  0  0  0  0
 28 18  1  0  0  0  0
 29 28  1  0  0  0  0
 29 34  1  0  0  0  0
 30 29  2  0  0  0  0
 31 32  2  0  0  0  0
 31 30  1  0  0  0  0
 32 33  1  0  0  0  0
 33 28  2  0  0  0  0
 35 30  1  0  0  0  0
 36 32  1  0  0  0  0
 37  6  1  0  0  0  0
 38 37  1  0  0  0  0
 39 41  1  0  0  0  0
 39 38  1  0  0  0  0
 39 43  1  0  0  0  0
 40 39  1  0  0  0  0
 42 41  1  0  0  0  0
 44 43  1  0  0  0  0
M  END
>  <minimizedAffinity>
-4.69627714

$$$$

 OpenBabel03262521443D

 44 46  0  0  1  0  0  0  0  0999 V2000
   37.5120   24.6150   31.5590 C   0  0  2  0  0  0  0  0  0  0  0  0
   36.9110   25.5780   32.5610 C   0  0  2  0  0  0  0  0  0  0  0  0
   36.1100   26.5810   31.8010 C   0  0  0  0  0  0  0  0  0  0  0  0
   35.5400   26.0320   30.6880 O   0  0  0  0  0  0  0  0  0  0  0  0
   35.1050   24.7480   30.9710 C   0  0  0  0  0  0  0  0  0  0  0  0
   36.2920   23.8350   31.0010 C   0  0  2  0  0  0  0  0  0  0  0  0
   37.9200   25.2130   30.7190 H   0  0  0  0  0  0  0  0  0  0  0  0
   36.1690   24.8880   32.9960 H   0  0  0  0  0  0  0  0  0  0  0  0
   35.3320   27.0820   32.4350 H   0  0  0  0  0  0  0  0  0  0  0  0
   36.7960   27.3940   31.4550 H   0  0  0  0  0  0  0  0  0  0  0  0
   34.4730   24.4350   30.0950 H   0  0  0  0  0  0  0  0  0  0  0  0
   34.4550   24.7430   31.8360 H   0  0  0  0  0  0  0  0  0  0  0  0
   36.5330   23.5020   29.9830 H   0  0  0  0  0  0  0  0  0  0  0  0
   38.3510   23.6670   32.0400 O   0  0  0  0  0  0  0  0  0  0  0  0
   38.5510   22.9260   31.4530 H   0  0  0  0  0  0  0  0  0  0  0  0
   37.7660   26.1350   33.4630 O   0  0  0  0  0  0  0  0  0  0  0  0
   37.3040   26.0400   34.7120 C   0  0  1  0  0  0  0  0  0  0  0  0
   38.3390   25.6520   35.7370 C   0  0  2  0  0  0  0  0  0  0  0  0
   39.2670   26.8630   35.5620 C   0  0  0  0  0  0  0  0  0  0  0  0
   38.4570   27.9660   35.4510 O   0  0  0  0  0  0  0  0  0  0  0  0
   37.2190   27.5250   35.1940 C   0  0  0  0  0  0  0  0  0  0  0  0
   36.2230   25.8080   34.8460 H   0  0  0  0  0  0  0  0  0  0  0  0
   37.9240   25.6830   36.7450 H   0  0  0  0  0  0  0  0  0  0  0  0
   39.9730   26.7320   34.7270 H   0  0  0  0  0  0  0  0  0  0  0  0
   39.8670   26.9550   36.4870 H   0  0  0  0  0  0  0  0  0  0  0  0
   36.3860   28.0980   34.9940 H   0  0  0  0  0  0  0  0  0  0  0  0
   36.9120   27.2550   36.2870 H   0  0  0  0  0  0  0  0  0  0  0  0
   39.0140   24.3940   35.4010 C   0  0  0  0  0  0  0  0  0  0  0  0
   40.3950   24.4310   35.1840 C   0  0  0  0  0  0  0  0  0  0  0  0
   41.0190   23.2040   34.8440 C   0  0  0  0  0  0  0  0  0  0  0  0
   40.2470   22.0770   34.7480 N   0  0  0  0  0  0  0  0  0  0  0  0
   38.9070   22.0870   34.9660 C   0  0  0  0  0  0  0  0  0  0  0  0
   38.3120   23.2550   35.2920 N   0  0  0  0  0  0  0  0  0  0  0  0
   40.9220   25.3590   35.2810 H   0  0  0  0  0  0  0  0  0  0  0  0
   42.0710   23.2000   34.6730 H   0  0  0  0  0  0  0  0  0  0  0  0
   38.3290   21.1750   34.8820 H   0  0  0  0  0  0  0  0  0  0  0  0
   35.9860   22.7810   31.8630 O   0  0  0  0  0  0  0  0  0  0  0  0
   35.5520   21.6290   31.2930 C   0  0  0  0  0  2  0  0  0  0  0  0
   35.9740   20.5320   32.1830 N   0  0  0  0  0  4  0  0  0  0  0  0
   35.4520   19.6770   31.8860 H   0  0  0  0  0  0  0  0  0  0  0  0
   35.6630   20.8420   33.5610 C   0  0  0  0  0  2  0  0  0  0  0  0
   34.6790   21.3350   33.6760 H   0  0  0  0  0  0  0  0  0  0  0  0
   37.3860   20.2590   32.0510 C   0  0  0  0  0  2  0  0  0  0  0  0
   37.6110   19.1990   32.2930 H   0  0  0  0  0  0  0  0  0  0  0  0
  1  7  1  6  0  0  0
  1 14  1  0  0  0  0
  1  2  1  0  0  0  0
  2  8  1  1  0  0  0
  2 16  1  0  0  0  0
  3  9  1  0  0  0  0
  3  2  1  0  0  0  0
  4  5  1  0  0  0  0
  4  3  1  0  0  0  0
  5  6  1  0  0  0  0
  5 12  1  0  0  0  0
  6 13  1  6  0  0  0
  6  1  1  0  0  0  0
  6 37  1  0  0  0  0
 10  3  1  0  0  0  0
 11  5  1  0  0  0  0
 15 14  1  0  0  0  0
 16 17  1  0  0  0  0
 17 22  1  1  0  0  0
 17 21  1  0  0  0  0
 17 18  1  0  0  0  0
 18 23  1  1  0  0  0
 19 18  1  0  0  0  0
 19 25  1  0  0  0  0
 20 19  1  0  0  0  0
 21 20  1  0  0  0  0
 21 27  1  0  0  0  0
 24 19  1  0  0  0  0
 26 21  1  0  0  0  0
 28 18  1  0  0  0  0
 29 34  1  0  0  0  0
 29 28  2  0  0  0  0
 30 29  1  0  0  0  0
 31 30  2  0  0  0  0
 31 32  1  0  0  0  0
 32 33  2  0  0  0  0
 33 28  1  0  0  0  0
 35 30  1  0  0  0  0
 36 32  1  0  0  0  0
 38 37  1  0  0  0  0
 38 39  1  0  0  0  0
 39 41  1  0  0  0  0
 40 39  1  0  0  0  0
 41 42  1  0  0  0  0
 43 39  1  0  0  0  0
 43 44  1  0  0  0  0
M  END
>  <minimizedAffinity>
-4.59318972

$$$$

 OpenBabel03262521443D

 44 46  0  0  1  0  0  0  0  0999 V2000
   38.0230   24.3370   30.8500 C   0  0  2  0  0  0  0  0  0  0  0  0
   38.0720   24.7880   32.2940 C   0  0  2  0  0  0  0  0  0  0  0  0
   37.0130   25.8210   32.4820 C   0  0  0  0  0  0  0  0  0  0  0  0
   35.9250   25.5770   31.6940 O   0  0  0  0  0  0  0  0  0  0  0  0
   35.6770   24.2160   31.6490 C   0  0  0  0  0  0  0  0  0  0  0  0
   36.6750   23.5760   30.7330 C   0  0  2  0  0  0  0  0  0  0  0  0
   37.9340   25.2420   30.2160 H   0  0  0  0  0  0  0  0  0  0  0  0
   37.6600   23.8690   32.7450 H   0  0  0  0  0  0  0  0  0  0  0  0
   36.7040   25.9340   33.5540 H   0  0  0  0  0  0  0  0  0  0  0  0
   37.4280   26.8140   32.1740 H   0  0  0  0  0  0  0  0  0  0  0  0
   34.6680   24.1000   31.1660 H   0  0  0  0  0  0  0  0  0  0  0  0
   35.5880   23.8060   32.6470 H   0  0  0  0  0  0  0  0  0  0  0  0
   36.3270   23.6480   29.6940 H   0  0  0  0  0  0  0  0  0  0  0  0
   38.9660   23.4520   30.4470 O   0  0  0  0  0  0  0  0  0  0  0  0
   38.8050   22.9960   29.6100 H   0  0  0  0  0  0  0  0  0  0  0  0
   39.2880   25.1620   32.7770 O   0  0  0  0  0  0  0  0  0  0  0  0
   39.2150   26.2810   33.5020 C   0  0  1  0  0  0  0  0  0  0  0  0
   39.8620   26.1940   34.8600 C   0  0  2  0  0  0  0  0  0  0  0  0
   41.2960   25.9130   34.3890 C   0  0  0  0  0  0  0  0  0  0  0  0
   41.5250   26.7390   33.3150 O   0  0  0  0  0  0  0  0  0  0  0  0
   40.3360   27.1910   32.9010 C   0  0  0  0  0  0  0  0  0  0  0  0
   38.3700   26.9760   33.2920 H   0  0  0  0  0  0  0  0  0  0  0  0
   39.8530   27.1620   35.3630 H   0  0  0  0  0  0  0  0  0  0  0  0
   41.4670   24.8440   34.1840 H   0  0  0  0  0  0  0  0  0  0  0  0
   41.9770   26.2020   35.2110 H   0  0  0  0  0  0  0  0  0  0  0  0
   40.1490   27.7830   32.0770 H   0  0  0  0  0  0  0  0  0  0  0  0
   40.2010   28.0420   33.6870 H   0  0  0  0  0  0  0  0  0  0  0  0
   39.3260   25.0910   35.6660 C   0  0  0  0  0  0  0  0  0  0  0  0
   38.0740   25.2680   36.2640 C   0  0  0  0  0  0  0  0  0  0  0  0
   37.5880   24.1920   37.0510 C   0  0  0  0  0  0  0  0  0  0  0  0
   38.3580   23.0670   37.1760 N   0  0  0  0  0  0  0  0  0  0  0  0
   39.5710   22.9390   36.5770 C   0  0  0  0  0  0  0  0  0  0  0  0
   40.0340   23.9620   35.8260 N   0  0  0  0  0  0  0  0  0  0  0  0
   37.5380   26.1830   36.1120 H   0  0  0  0  0  0  0  0  0  0  0  0
   36.6370   24.2960   37.5190 H   0  0  0  0  0  0  0  0  0  0  0  0
   40.1510   22.0330   36.6980 H   0  0  0  0  0  0  0  0  0  0  0  0
   36.8500   22.2590   31.1610 O   0  0  0  0  0  0  0  0  0  0  0  0
   35.9450   21.7780   32.0480 C   0  0  0  0  0  2  0  0  0  0  0  0
   36.0270   20.3070   31.9790 N   0  0  0  0  0  4  0  0  0  0  0  0
   36.5290   19.9860   32.8390 H   0  0  0  0  0  0  0  0  0  0  0  0
   36.7550   19.8890   30.8020 C   0  0  0  0  0  2  0  0  0  0  0  0
   37.6340   20.5280   30.5940 H   0  0  0  0  0  0  0  0  0  0  0  0
   34.7140   19.7050   31.9820 C   0  0  0  0  0  2  0  0  0  0  0  0
   34.7450   18.6850   32.4180 H   0  0  0  0  0  0  0  0  0  0  0  0
  1  7  1  6  0  0  0
  1  2  1  0  0  0  0
  2  3  1  0  0  0  0
  2  8  1  1  0  0  0
  2 16  1  0  0  0  0
  3  9  1  0  0  0  0
  4  3  1  0  0  0  0
  5  4  1  0  0  0  0
  5 12  1  0  0  0  0
  6 13  1  6  0  0  0
  6  1  1  0  0  0  0
  6 37  1  0  0  0  0
  6  5  1  0  0  0  0
 10  3  1  0  0  0  0
 11  5  1  0  0  0  0
 14  1  1  0  0  0  0
 15 14  1  0  0  0  0
 16 17  1  0  0  0  0
 17 22  1  1  0  0  0
 17 18  1  0  0  0  0
 18 23  1  1  0  0  0
 18 28  1  0  0  0  0
 19 18  1  0  0  0  0
 19 25  1  0  0  0  0
 20 19  1  0  0  0  0
 21 20  1  0  0  0  0
 21 17  1  0  0  0  0
 21 27  1  0  0  0  0
 24 19  1  0  0  0  0
 26 21  1  0  0  0  0
 28 33  2  0  0  0  0
 28 29  1  0  0  0  0
 29 30  2  0  0  0  0
 30 31  1  0  0  0  0
 30 35  1  0  0  0  0
 32 36  1  0  0  0  0
 32 31  2  0  0  0  0
 33 32  1  0  0  0  0
 34 29  1  0  0  0  0
 37 38  1  0  0  0  0
 39 43  1  0  0  0  0
 39 38  1  0  0  0  0
 39 40  1  0  0  0  0
 41 39  1  0  0  0  0
 42 41  1  0  0  0  0
 43 44  1  0  0  0  0
M  END
>  <minimizedAffinity>
-4.44696999

$$$$

 OpenBabel03262521443D

 44 46  0  0  1  0  0  0  0  0999 V2000
   39.4070   26.1230   34.2130 C   0  0  2  0  0  0  0  0  0  0  0  0
   38.2980   25.6330   35.1200 C   0  0  2  0  0  0  0  0  0  0  0  0
   37.3360   26.7570   35.3070 C   0  0  0  0  0  0  0  0  0  0  0  0
   37.2510   27.5380   34.1900 O   0  0  0  0  0  0  0  0  0  0  0  0
   37.2990   26.7430   33.0590 C   0  0  0  0  0  0  0  0  0  0  0  0
   38.7170   26.3120   32.8350 C   0  0  2  0  0  0  0  0  0  0  0  0
   39.7070   27.1310   34.5610 H   0  0  0  0  0  0  0  0  0  0  0  0
   37.8110   24.9550   34.3980 H   0  0  0  0  0  0  0  0  0  0  0  0
   36.3180   26.4060   35.6200 H   0  0  0  0  0  0  0  0  0  0  0  0
   37.7080   27.4070   36.1390 H   0  0  0  0  0  0  0  0  0  0  0  0
   37.0200   27.4110   32.1980 H   0  0  0  0  0  0  0  0  0  0  0  0
   36.5470   25.9660   33.1000 H   0  0  0  0  0  0  0  0  0  0  0  0
   39.2600   27.0890   32.2810 H   0  0  0  0  0  0  0  0  0  0  0  0
   40.4360   25.2730   33.9810 O   0  0  0  0  0  0  0  0  0  0  0  0
   41.0170   25.4870   33.2380 H   0  0  0  0  0  0  0  0  0  0  0  0
   38.6780   25.0420   36.2860 O   0  0  0  0  0  0  0  0  0  0  0  0
   37.7970   24.1240   36.6910 C   0  0  1  0  0  0  0  0  0  0  0  0
   38.3150   22.7090   36.6830 C   0  0  2  0  0  0  0  0  0  0  0  0
   39.4500   22.8980   37.7000 C   0  0  0  0  0  0  0  0  0  0  0  0
   38.9470   23.6840   38.7080 O   0  0  0  0  0  0  0  0  0  0  0  0
   37.8210   24.2440   38.2500 C   0  0  0  0  0  0  0  0  0  0  0  0
   36.7150   24.3600   36.5690 H   0  0  0  0  0  0  0  0  0  0  0  0
   37.5850   22.0210   37.1120 H   0  0  0  0  0  0  0  0  0  0  0  0
   40.3680   23.2890   37.2340 H   0  0  0  0  0  0  0  0  0  0  0  0
   39.6910   21.9010   38.1140 H   0  0  0  0  0  0  0  0  0  0  0  0
   37.2310   24.9380   38.7350 H   0  0  0  0  0  0  0  0  0  0  0  0
   37.1050   23.3410   38.4280 H   0  0  0  0  0  0  0  0  0  0  0  0
   38.8230   22.3070   35.3670 C   0  0  0  0  0  0  0  0  0  0  0  0
   37.8890   21.9580   34.3850 C   0  0  0  0  0  0  0  0  0  0  0  0
   38.4080   21.5580   33.1280 C   0  0  0  0  0  0  0  0  0  0  0  0
   39.7660   21.5350   32.9530 N   0  0  0  0  0  0  0  0  0  0  0  0
   40.6370   21.8810   33.9360 C   0  0  0  0  0  0  0  0  0  0  0  0
   40.1440   22.2640   35.1340 N   0  0  0  0  0  0  0  0  0  0  0  0
   36.8420   22.0060   34.6080 H   0  0  0  0  0  0  0  0  0  0  0  0
   37.7220   21.2870   32.3590 H   0  0  0  0  0  0  0  0  0  0  0  0
   41.7050   21.8510   33.7600 H   0  0  0  0  0  0  0  0  0  0  0  0
   38.6800   25.0880   32.1660 O   0  0  0  0  0  0  0  0  0  0  0  0
   37.6530   24.8920   31.3030 C   0  0  0  0  0  2  0  0  0  0  0  0
   38.2540   24.6280   29.9830 N   0  0  0  0  0  4  0  0  0  0  0  0
   37.4980   24.7460   29.2710 H   0  0  0  0  0  0  0  0  0  0  0  0
   38.7810   23.2830   29.9190 C   0  0  0  0  0  2  0  0  0  0  0  0
   38.1240   22.5430   30.4150 H   0  0  0  0  0  0  0  0  0  0  0  0
   39.3000   25.5770   29.6810 C   0  0  0  0  0  2  0  0  0  0  0  0
   39.4060   25.7180   28.5850 H   0  0  0  0  0  0  0  0  0  0  0  0
  1  7  1  1  0  0  0
  1  2  1  0  0  0  0
  2  8  1  6  0  0  0
  2  3  1  0  0  0  0
  2 16  1  0  0  0  0
  3  9  1  0  0  0  0
  3 10  1  0  0  0  0
  4  3  1  0  0  0  0
  5 12  1  0  0  0  0
  5  4  1  0  0  0  0
  6 13  1  6  0  0  0
  6  5  1  0  0  0  0
  6  1  1  0  0  0  0
 11  5  1  0  0  0  0
 14  1  1  0  0  0  0
 15 14  1  0  0  0  0
 16 17  1  0  0  0  0
 17 22  1  6  0  0  0
 17 21  1  0  0  0  0
 18 17  1  0  0  0  0
 18 23  1  1  0  0  0
 18 19  1  0  0  0  0
 19 25  1  0  0  0  0
 19 20  1  0  0  0  0
 21 27  1  0  0  0  0
 21 20  1  0  0  0  0
 21 26  1  0  0  0  0
 24 19  1  0  0  0  0
 28 18  1  0  0  0  0
 29 34  1  0  0  0  0
 29 28  2  0  0  0  0
 30 29  1  0  0  0  0
 31 30  2  0  0  0  0
 31 32  1  0  0  0  0
 32 33  2  0  0  0  0
 33 28  1  0  0  0  0
 35 30  1  0  0  0  0
 36 32  1  0  0  0  0
 37  6  1  0  0  0  0
 38 37  1  0  0  0  0
 39 38  1  0  0  0  0
 40 39  1  0  0  0  0
 41 39  1  0  0  0  0
 41 42  1  0  0  0  0
 43 39  1  0  0  0  0
 44 43  1  0  0  0  0
M  END
>  <minimizedAffinity>
-4.43473339

$$$$
