REMARK  Name = 
REMARK  5 active torsions:
REMARK  status: ('A' for Active; 'I' for Inactive)
REMARK    1  A    between atoms: C_1  and  O_10
REMARK    2  A    between atoms: O_10  and  C_15
REMARK    3  A    between atoms: C_15  and  N_16
REMARK    4  A    between atoms: N_16  and  C_17
REMARK    5  A    between atoms: N_16  and  C_19
REMARK                            x       y       z     vdW  Elec       q    Type
REMARK                         _______ _______ _______ _____ _____    ______ ____
ROOT
ATOM      1  C   UNL     1      37.396  30.141  51.082  0.00  0.00    +0.000 A 
ATOM      2  C   UNL     1      38.228  30.903  50.246  0.00  0.00    +0.000 A 
ATOM      3  C   UNL     1      37.684  31.437  49.101  0.00  0.00    +0.000 A 
ATOM      4  N   UNL     1      36.367  31.199  48.835  0.00  0.00    +0.000 NA
ATOM      5  C   UNL     1      35.592  30.464  49.654  0.00  0.00    +0.000 A 
ATOM      6  N   UNL     1      36.099  29.932  50.778  0.00  0.00    +0.000 NA
ATOM      7  C   UNL     1      33.911  28.836  49.201  0.00  0.00    +0.000 C 
ATOM      8  O   UNL     1      34.683  27.845  49.320  0.00  0.00    +0.000 OA
ATOM      9  N   UNL     1      34.216  30.238  49.340  0.00  0.00    +0.000 N 
ATOM     10  H   UNL     1      39.256  31.125  50.395  0.00  0.00    +0.000 HD
ATOM     11  H   UNL     1      38.257  32.037  48.403  0.00  0.00    +0.000 HD
ATOM     12  H   UNL     1      32.864  28.589  48.959  0.00  0.00    +0.000 HD
ATOM     13  H   UNL     1      33.562  31.020  49.236  0.00  0.00    +0.000 HD
ENDROOT
BRANCH   1  14
ATOM     14  O   UNL     1      38.055  29.653  52.209  0.00  0.00    +0.000 OA
BRANCH  14  15
ATOM     15  C   UNL     1      37.351  28.865  53.149  0.00  0.00    +0.000 C 
BRANCH  15  16
ATOM     16  N   UNL     1      36.535  27.864  52.538  0.00  0.00    +0.000 N 
ATOM     17  H   UNL     1      36.442  27.087  53.238  0.00  0.00    +0.000 HD
BRANCH  16  18
ATOM     18  C   UNL     1      37.141  27.332  51.347  0.00  0.00    +0.000 C 
ATOM     19  H   UNL     1      37.654  28.146  50.768  0.00  0.00    +0.000 HD
ENDBRANCH  16  18
BRANCH  16  20
ATOM     20  C   UNL     1      35.220  28.398  52.291  0.00  0.00    +0.000 C 
ATOM     21  H   UNL     1      35.033  28.466  51.211  0.00  0.00    +0.000 HD
ENDBRANCH  16  20
ENDBRANCH  15  16
ENDBRANCH  14  15
ENDBRANCH   1  14
TORSDOF 5
