
 OpenBabel03272501063D

 28 29  0  0  1  0  0  0  0  0999 V2000
   38.1020   25.6840   34.0760 C   0  0  2  0  0  0  0  0  0  0  0  0
   37.7620   25.7180   35.5840 C   0  0  2  0  0  0  0  0  0  0  0  0
   38.1160   27.1160   35.8900 C   0  0  0  0  0  0  0  0  0  0  0  0
   37.6890   27.8810   34.8090 O   0  0  0  0  0  0  0  0  0  0  0  0
   37.5050   27.0580   33.7310 C   0  0  0  0  0  0  0  0  0  0  0  0
   39.1840   25.6860   33.9690 H   0  0  0  0  0  0  0  0  0  0  0  0
   36.6410   25.5820   35.5980 H   0  0  0  0  0  0  0  0  0  0  0  0
   39.2410   27.1830   35.8570 H   0  0  0  0  0  0  0  0  0  0  0  0
   37.7700   27.4940   36.8710 H   0  0  0  0  0  0  0  0  0  0  0  0
   36.4370   26.9560   33.4270 H   0  0  0  0  0  0  0  0  0  0  0  0
   38.1050   27.4360   32.8770 H   0  0  0  0  0  0  0  0  0  0  0  0
   38.7730   23.2910   38.3000 C   0  0  0  0  0  0  0  0  0  0  0  0
   38.0280   24.2920   37.6220 C   0  0  0  0  0  0  0  0  0  0  0  0
   38.4560   24.6930   36.3290 C   0  0  0  0  0  0  0  0  0  0  0  0
   39.5760   24.0830   35.8070 N   0  0  0  0  0  0  0  0  0  0  0  0
   40.2480   23.1460   36.4760 C   0  0  0  0  0  0  0  0  0  0  0  0
   39.8610   22.7380   37.7210 N   0  0  0  0  0  0  0  0  0  0  0  0
   38.3610   23.0600   39.2730 H   0  0  0  0  0  0  0  0  0  0  0  0
   37.1460   24.7490   38.0750 H   0  0  0  0  0  0  0  0  0  0  0  0
   41.1280   22.6890   36.0280 H   0  0  0  0  0  0  0  0  0  0  0  0
   37.4170   24.6860   33.4240 O   0  0  0  0  0  0  0  0  0  0  0  0
   37.1700   24.8780   32.0950 C   0  0  0  0  0  2  0  0  0  0  0  0
   35.8420   24.3260   31.8250 N   0  0  0  0  0  4  0  0  0  0  0  0
   35.3330   24.2890   32.7190 H   0  0  0  0  0  0  0  0  0  0  0  0
   35.1760   25.2930   30.9530 C   0  0  0  0  0  2  0  0  0  0  0  0
   35.4880   25.0080   29.9110 H   0  0  0  0  0  0  0  0  0  0  0  0
   35.8990   23.0360   31.2060 C   0  0  0  0  0  2  0  0  0  0  0  0
   35.1060   23.0170   30.4130 H   0  0  0  0  0  0  0  0  0  0  0  0
  1  6  1  6  0  0  0
  1  2  1  0  0  0  0
  2  7  1  1  0  0  0
  2  3  1  0  0  0  0
  2 14  1  0  0  0  0
  3  9  1  0  0  0  0
  4  3  1  0  0  0  0
  5  1  1  0  0  0  0
  5  4  1  0  0  0  0
  8  3  1  0  0  0  0
 10  5  1  0  0  0  0
 11  5  1  0  0  0  0
 12 18  1  0  0  0  0
 13 19  1  0  0  0  0
 13 12  2  0  0  0  0
 14 13  1  0  0  0  0
 15 14  2  0  0  0  0
 15 16  1  0  0  0  0
 16 17  2  0  0  0  0
 17 12  1  0  0  0  0
 20 16  1  0  0  0  0
 21  1  1  0  0  0  0
 22 21  1  0  0  0  0
 23 22  1  0  0  0  0
 23 24  1  0  0  0  0
 25 23  1  0  0  0  0
 26 25  1  0  0  0  0
 27 23  1  0  0  0  0
 28 27  1  0  0  0  0
M  END
>  <minimizedAffinity>
-4.19855404

$$$$

 OpenBabel03272501063D

 28 29  0  0  1  0  0  0  0  0999 V2000
   37.6600   25.4630   35.5070 C   0  0  2  0  0  0  0  0  0  0  0  0
   38.3570   25.5500   34.1280 C   0  0  2  0  0  0  0  0  0  0  0  0
   38.5430   27.0100   34.0330 C   0  0  0  0  0  0  0  0  0  0  0  0
   38.9040   27.4490   35.3030 O   0  0  0  0  0  0  0  0  0  0  0  0
   38.5500   26.4950   36.2180 C   0  0  0  0  0  0  0  0  0  0  0  0
   36.6410   25.8280   35.3990 H   0  0  0  0  0  0  0  0  0  0  0  0
   39.3460   25.0370   34.3070 H   0  0  0  0  0  0  0  0  0  0  0  0
   37.5230   27.4590   33.8590 H   0  0  0  0  0  0  0  0  0  0  0  0
   39.2200   27.3550   33.2300 H   0  0  0  0  0  0  0  0  0  0  0  0
   39.4230   25.9940   36.6990 H   0  0  0  0  0  0  0  0  0  0  0  0
   37.9050   26.9560   36.9950 H   0  0  0  0  0  0  0  0  0  0  0  0
   37.0530   23.0480   31.6140 C   0  0  0  0  0  0  0  0  0  0  0  0
   37.8410   23.5910   32.6630 C   0  0  0  0  0  0  0  0  0  0  0  0
   37.5860   24.9230   33.0800 C   0  0  0  0  0  0  0  0  0  0  0  0
   36.5820   25.6150   32.4370 N   0  0  0  0  0  0  0  0  0  0  0  0
   35.8640   25.0700   31.4550 C   0  0  0  0  0  0  0  0  0  0  0  0
   36.0850   23.7900   31.0320 N   0  0  0  0  0  0  0  0  0  0  0  0
   37.3280   22.0300   31.3760 H   0  0  0  0  0  0  0  0  0  0  0  0
   38.6270   23.0050   33.1440 H   0  0  0  0  0  0  0  0  0  0  0  0
   35.0800   25.6500   30.9730 H   0  0  0  0  0  0  0  0  0  0  0  0
   37.8170   24.2210   36.0750 O   0  0  0  0  0  0  0  0  0  0  0  0
   39.0990   23.7900   36.2630 C   0  0  0  0  0  2  0  0  0  0  0  0
   39.0720   22.8440   37.3790 N   0  0  0  0  0  4  0  0  0  0  0  0
   38.5110   22.0320   37.0840 H   0  0  0  0  0  0  0  0  0  0  0  0
   40.4540   22.4070   37.5670 C   0  0  0  0  0  2  0  0  0  0  0  0
   40.9110   23.1730   38.2510 H   0  0  0  0  0  0  0  0  0  0  0  0
   38.5520   23.4250   38.5800 C   0  0  0  0  0  2  0  0  0  0  0  0
   39.1880   23.0540   39.4260 H   0  0  0  0  0  0  0  0  0  0  0  0
  1  6  1  6  0  0  0
  1 21  1  0  0  0  0
  1  5  1  0  0  0  0
  2  7  1  1  0  0  0
  2  1  1  0  0  0  0
  3  2  1  0  0  0  0
  3  4  1  0  0  0  0
  4  5  1  0  0  0  0
  5 10  1  0  0  0  0
  5 11  1  0  0  0  0
  8  3  1  0  0  0  0
  9  3  1  0  0  0  0
 12 13  1  0  0  0  0
 13 14  2  0  0  0  0
 13 19  1  0  0  0  0
 14  2  1  0  0  0  0
 15 14  1  0  0  0  0
 16 15  2  0  0  0  0
 17 16  1  0  0  0  0
 17 12  2  0  0  0  0
 18 12  1  0  0  0  0
 20 16  1  0  0  0  0
 21 22  1  0  0  0  0
 22 23  1  0  0  0  0
 23 25  1  0  0  0  0
 23 27  1  0  0  0  0
 24 23  1  0  0  0  0
 25 26  1  0  0  0  0
 27 28  1  0  0  0  0
M  END
>  <minimizedAffinity>
-4.02059031

$$$$

 OpenBabel03272501063D

 28 29  0  0  1  0  0  0  0  0999 V2000
   39.1760   26.5150   34.7110 C   0  0  2  0  0  0  0  0  0  0  0  0
   39.0830   24.9720   34.6560 C   0  0  2  0  0  0  0  0  0  0  0  0
   37.8860   24.8230   33.8070 C   0  0  0  0  0  0  0  0  0  0  0  0
   37.9740   25.7990   32.8200 O   0  0  0  0  0  0  0  0  0  0  0  0
   38.8560   26.7620   33.2280 C   0  0  0  0  0  0  0  0  0  0  0  0
   38.3790   26.8830   35.3530 H   0  0  0  0  0  0  0  0  0  0  0  0
   40.0120   24.6780   34.0850 H   0  0  0  0  0  0  0  0  0  0  0  0
   37.0010   25.1330   34.4330 H   0  0  0  0  0  0  0  0  0  0  0  0
   37.7010   23.8050   33.4170 H   0  0  0  0  0  0  0  0  0  0  0  0
   39.7940   26.7910   32.6250 H   0  0  0  0  0  0  0  0  0  0  0  0
   38.3560   27.7530   33.1940 H   0  0  0  0  0  0  0  0  0  0  0  0
   39.7820   22.7860   37.6600 C   0  0  0  0  0  0  0  0  0  0  0  0
   39.9110   23.3350   36.3560 C   0  0  0  0  0  0  0  0  0  0  0  0
   39.0260   24.3760   35.9710 C   0  0  0  0  0  0  0  0  0  0  0  0
   38.0890   24.7940   36.8920 N   0  0  0  0  0  0  0  0  0  0  0  0
   38.0010   24.2530   38.1060 C   0  0  0  0  0  0  0  0  0  0  0  0
   38.8370   23.2510   38.5070 N   0  0  0  0  0  0  0  0  0  0  0  0
   40.5030   22.0040   37.8500 H   0  0  0  0  0  0  0  0  0  0  0  0
   40.6680   22.9720   35.6590 H   0  0  0  0  0  0  0  0  0  0  0  0
   37.2470   24.6120   38.8040 H   0  0  0  0  0  0  0  0  0  0  0  0
   40.4510   26.9360   35.0040 O   0  0  0  0  0  0  0  0  0  0  0  0
   41.3660   26.8700   33.9920 C   0  0  0  0  0  2  0  0  0  0  0  0
   42.6850   26.7600   34.6160 N   0  0  0  0  0  4  0  0  0  0  0  0
   42.6910   27.3790   35.4400 H   0  0  0  0  0  0  0  0  0  0  0  0
   42.7960   25.3760   35.0760 C   0  0  0  0  0  2  0  0  0  0  0  0
   43.1870   24.8060   34.1900 H   0  0  0  0  0  0  0  0  0  0  0  0
   43.7490   27.0850   33.7150 C   0  0  0  0  0  2  0  0  0  0  0  0
   44.5700   26.3430   33.8960 H   0  0  0  0  0  0  0  0  0  0  0  0
  1 21  1  0  0  0  0
  1  6  1  1  0  0  0
  2  7  1  6  0  0  0
  2  1  1  0  0  0  0
  2 14  1  0  0  0  0
  3  8  1  0  0  0  0
  3  2  1  0  0  0  0
  4  5  1  0  0  0  0
  4  3  1  0  0  0  0
  5  1  1  0  0  0  0
  9  3  1  0  0  0  0
 10  5  1  0  0  0  0
 11  5  1  0  0  0  0
 12 18  1  0  0  0  0
 12 17  1  0  0  0  0
 13 12  2  0  0  0  0
 14 13  1  0  0  0  0
 14 15  2  0  0  0  0
 15 16  1  0  0  0  0
 16 17  2  0  0  0  0
 16 20  1  0  0  0  0
 19 13  1  0  0  0  0
 22 23  1  0  0  0  0
 22 21  1  0  0  0  0
 23 25  1  0  0  0  0
 23 24  1  0  0  0  0
 26 25  1  0  0  0  0
 27 28  1  0  0  0  0
 27 23  1  0  0  0  0
M  END
>  <minimizedAffinity>
-3.95834255

$$$$

 OpenBabel03272501063D

 28 29  0  0  1  0  0  0  0  0999 V2000
   38.1010   25.7330   34.0850 C   0  0  2  0  0  0  0  0  0  0  0  0
   37.8020   25.7130   35.6020 C   0  0  2  0  0  0  0  0  0  0  0  0
   38.1290   27.1100   35.9420 C   0  0  0  0  0  0  0  0  0  0  0  0
   37.6540   27.8950   34.8960 O   0  0  0  0  0  0  0  0  0  0  0  0
   37.4600   27.1010   33.7990 C   0  0  0  0  0  0  0  0  0  0  0  0
   39.1800   25.7670   33.9490 H   0  0  0  0  0  0  0  0  0  0  0  0
   36.6860   25.5470   35.6430 H   0  0  0  0  0  0  0  0  0  0  0  0
   39.2510   27.2070   35.8790 H   0  0  0  0  0  0  0  0  0  0  0  0
   37.8020   27.4480   36.9420 H   0  0  0  0  0  0  0  0  0  0  0  0
   36.3870   26.9800   33.5210 H   0  0  0  0  0  0  0  0  0  0  0  0
   38.0260   27.5200   32.9410 H   0  0  0  0  0  0  0  0  0  0  0  0
   40.3560   23.0600   36.4560 C   0  0  0  0  0  0  0  0  0  0  0  0
   39.6900   24.0770   35.7220 C   0  0  0  0  0  0  0  0  0  0  0  0
   38.5430   24.6840   36.2960 C   0  0  0  0  0  0  0  0  0  0  0  0
   38.1410   24.2470   37.5400 N   0  0  0  0  0  0  0  0  0  0  0  0
   38.7930   23.2880   38.1970 C   0  0  0  0  0  0  0  0  0  0  0  0
   39.9000   22.6860   37.6730 N   0  0  0  0  0  0  0  0  0  0  0  0
   41.2150   22.6670   35.9310 H   0  0  0  0  0  0  0  0  0  0  0  0
   40.0440   24.3920   34.7380 H   0  0  0  0  0  0  0  0  0  0  0  0
   38.4430   22.9710   39.1770 H   0  0  0  0  0  0  0  0  0  0  0  0
   37.4230   24.7380   33.4220 O   0  0  0  0  0  0  0  0  0  0  0  0
   36.7440   25.1030   32.2950 C   0  0  0  0  0  2  0  0  0  0  0  0
   36.6670   23.9170   31.4410 N   0  0  0  0  0  4  0  0  0  0  0  0
   35.7980   23.9850   30.8930 H   0  0  0  0  0  0  0  0  0  0  0  0
   37.8010   24.0110   30.5220 C   0  0  0  0  0  2  0  0  0  0  0  0
   38.6600   23.5380   31.0720 H   0  0  0  0  0  0  0  0  0  0  0  0
   36.7160   22.6970   32.1880 C   0  0  0  0  0  2  0  0  0  0  0  0
   37.3710   21.9880   31.6170 H   0  0  0  0  0  0  0  0  0  0  0  0
  1  6  1  6  0  0  0
  1  2  1  0  0  0  0
  2  7  1  1  0  0  0
  2  3  1  0  0  0  0
  2 14  1  0  0  0  0
  3  9  1  0  0  0  0
  4  3  1  0  0  0  0
  5  1  1  0  0  0  0
  5  4  1  0  0  0  0
  8  3  1  0  0  0  0
 10  5  1  0  0  0  0
 11  5  1  0  0  0  0
 12 17  1  0  0  0  0
 13 14  1  0  0  0  0
 13 12  2  0  0  0  0
 14 15  2  0  0  0  0
 15 16  1  0  0  0  0
 16 20  1  0  0  0  0
 17 16  2  0  0  0  0
 18 12  1  0  0  0  0
 19 13  1  0  0  0  0
 21  1  1  0  0  0  0
 22 21  1  0  0  0  0
 23 27  1  0  0  0  0
 23 22  1  0  0  0  0
 24 23  1  0  0  0  0
 25 26  1  0  0  0  0
 25 23  1  0  0  0  0
 28 27  1  0  0  0  0
M  END
>  <minimizedAffinity>
-3.89807844

$$$$

 OpenBabel03272501063D

 28 29  0  0  1  0  0  0  0  0999 V2000
   38.8240   25.4790   33.0500 C   0  0  2  0  0  0  0  0  0  0  0  0
   38.9100   26.0750   34.4750 C   0  0  2  0  0  0  0  0  0  0  0  0
   40.1740   26.8260   34.3570 C   0  0  0  0  0  0  0  0  0  0  0  0
   40.1770   27.4020   33.0910 O   0  0  0  0  0  0  0  0  0  0  0  0
   39.2710   26.7460   32.3040 C   0  0  0  0  0  0  0  0  0  0  0  0
   39.5660   24.6880   32.9650 H   0  0  0  0  0  0  0  0  0  0  0  0
   38.0310   26.7830   34.5120 H   0  0  0  0  0  0  0  0  0  0  0  0
   41.0040   26.0640   34.3220 H   0  0  0  0  0  0  0  0  0  0  0  0
   40.3840   27.5390   35.1750 H   0  0  0  0  0  0  0  0  0  0  0  0
   38.3880   27.3690   32.0270 H   0  0  0  0  0  0  0  0  0  0  0  0
   39.7790   26.3850   31.3850 H   0  0  0  0  0  0  0  0  0  0  0  0
   39.6510   23.0230   36.5780 C   0  0  0  0  0  0  0  0  0  0  0  0
   39.7850   23.9940   35.5500 C   0  0  0  0  0  0  0  0  0  0  0  0
   38.8500   25.0600   35.5020 C   0  0  0  0  0  0  0  0  0  0  0  0
   37.8610   25.0890   36.4610 N   0  0  0  0  0  0  0  0  0  0  0  0
   37.7690   24.1580   37.4100 C   0  0  0  0  0  0  0  0  0  0  0  0
   38.6530   23.1210   37.4850 N   0  0  0  0  0  0  0  0  0  0  0  0
   40.4130   22.2580   36.5240 H   0  0  0  0  0  0  0  0  0  0  0  0
   40.5850   23.9300   34.8100 H   0  0  0  0  0  0  0  0  0  0  0  0
   36.9730   24.2180   38.1500 H   0  0  0  0  0  0  0  0  0  0  0  0
   37.5310   25.1550   32.7140 O   0  0  0  0  0  0  0  0  0  0  0  0
   36.9240   25.9430   31.7780 C   0  0  0  0  0  2  0  0  0  0  0  0
   36.2260   25.0470   30.8560 N   0  0  0  0  0  4  0  0  0  0  0  0
   36.6710   25.1420   29.9320 H   0  0  0  0  0  0  0  0  0  0  0  0
   36.4720   23.6920   31.3500 C   0  0  0  0  0  2  0  0  0  0  0  0
   35.6660   23.5100   32.1110 H   0  0  0  0  0  0  0  0  0  0  0  0
   34.8210   25.3160   30.7850 C   0  0  0  0  0  2  0  0  0  0  0  0
   34.2980   24.3240   30.7600 H   0  0  0  0  0  0  0  0  0  0  0  0
  1  6  1  6  0  0  0
  1  2  1  0  0  0  0
  2  7  1  1  0  0  0
  2 14  1  0  0  0  0
  3  2  1  0  0  0  0
  3  9  1  0  0  0  0
  4  3  1  0  0  0  0
  5  1  1  0  0  0  0
  5  4  1  0  0  0  0
  8  3  1  0  0  0  0
 10  5  1  0  0  0  0
 11  5  1  0  0  0  0
 12 17  1  0  0  0  0
 13 12  2  0  0  0  0
 14 13  1  0  0  0  0
 14 15  2  0  0  0  0
 15 16  1  0  0  0  0
 16 17  2  0  0  0  0
 16 20  1  0  0  0  0
 18 12  1  0  0  0  0
 19 13  1  0  0  0  0
 21  1  1  0  0  0  0
 22 21  1  0  0  0  0
 23 25  1  0  0  0  0
 23 22  1  0  0  0  0
 24 23  1  0  0  0  0
 25 26  1  0  0  0  0
 27 23  1  0  0  0  0
 28 27  1  0  0  0  0
M  END
>  <minimizedAffinity>
-3.78852749

$$$$

 OpenBabel03272501063D

 28 29  0  0  1  0  0  0  0  0999 V2000
   37.8000   26.2060   33.7560 C   0  0  2  0  0  0  0  0  0  0  0  0
   37.8120   25.6950   35.2160 C   0  0  2  0  0  0  0  0  0  0  0  0
   38.1410   26.9500   35.9180 C   0  0  0  0  0  0  0  0  0  0  0  0
   37.4320   27.9620   35.2770 O   0  0  0  0  0  0  0  0  0  0  0  0
   37.0570   27.5220   34.0370 C   0  0  0  0  0  0  0  0  0  0  0  0
   38.8270   26.3900   33.4490 H   0  0  0  0  0  0  0  0  0  0  0  0
   36.7350   25.4110   35.3990 H   0  0  0  0  0  0  0  0  0  0  0  0
   39.2220   27.1770   35.6920 H   0  0  0  0  0  0  0  0  0  0  0  0
   38.0060   26.9340   37.0150 H   0  0  0  0  0  0  0  0  0  0  0  0
   35.9560   27.3800   33.9300 H   0  0  0  0  0  0  0  0  0  0  0  0
   37.4220   28.2370   33.2710 H   0  0  0  0  0  0  0  0  0  0  0  0
   40.8970   23.5110   35.1720 C   0  0  0  0  0  0  0  0  0  0  0  0
   40.0690   24.6470   34.9680 C   0  0  0  0  0  0  0  0  0  0  0  0
   38.7200   24.5870   35.4050 C   0  0  0  0  0  0  0  0  0  0  0  0
   38.2920   23.4230   36.0050 N   0  0  0  0  0  0  0  0  0  0  0  0
   39.1000   22.3780   36.1780 C   0  0  0  0  0  0  0  0  0  0  0  0
   40.4030   22.4040   35.7700 N   0  0  0  0  0  0  0  0  0  0  0  0
   41.9020   23.6620   34.8040 H   0  0  0  0  0  0  0  0  0  0  0  0
   40.4520   25.5490   34.4860 H   0  0  0  0  0  0  0  0  0  0  0  0
   38.7230   21.4760   36.6570 H   0  0  0  0  0  0  0  0  0  0  0  0
   37.0470   25.3930   32.9420 O   0  0  0  0  0  0  0  0  0  0  0  0
   37.5250   25.1740   31.6820 C   0  0  0  0  0  2  0  0  0  0  0  0
   36.3690   24.8880   30.8320 N   0  0  0  0  0  4  0  0  0  0  0  0
   36.7020   24.8510   29.8570 H   0  0  0  0  0  0  0  0  0  0  0  0
   35.9110   23.5530   31.2140 C   0  0  0  0  0  2  0  0  0  0  0  0
   35.2120   23.7220   32.0780 H   0  0  0  0  0  0  0  0  0  0  0  0
   35.3210   25.8500   30.9860 C   0  0  0  0  0  2  0  0  0  0  0  0
   34.3530   25.2840   30.9900 H   0  0  0  0  0  0  0  0  0  0  0  0
  1  6  1  6  0  0  0
  1  5  1  0  0  0  0
  1  2  1  0  0  0  0
  2  7  1  1  0  0  0
  2 14  1  0  0  0  0
  2  3  1  0  0  0  0
  3  9  1  0  0  0  0
  4  3  1  0  0  0  0
  5  4  1  0  0  0  0
  8  3  1  0  0  0  0
 10  5  1  0  0  0  0
 11  5  1  0  0  0  0
 12 17  1  0  0  0  0
 13 12  2  0  0  0  0
 13 14  1  0  0  0  0
 14 15  2  0  0  0  0
 15 16  1  0  0  0  0
 16 20  1  0  0  0  0
 17 16  2  0  0  0  0
 18 12  1  0  0  0  0
 19 13  1  0  0  0  0
 21  1  1  0  0  0  0
 22 21  1  0  0  0  0
 23 27  1  0  0  0  0
 23 25  1  0  0  0  0
 23 22  1  0  0  0  0
 24 23  1  0  0  0  0
 25 26  1  0  0  0  0
 27 28  1  0  0  0  0
M  END
>  <minimizedAffinity>
-3.78356862

$$$$

 OpenBabel03272501063D

 28 29  0  0  1  0  0  0  0  0999 V2000
   37.9620   24.1870   33.6760 C   0  0  2  0  0  0  0  0  0  0  0  0
   38.4900   22.9160   34.3820 C   0  0  2  0  0  0  0  0  0  0  0  0
   37.4600   21.9490   33.9620 C   0  0  0  0  0  0  0  0  0  0  0  0
   37.1620   22.2360   32.6340 O   0  0  0  0  0  0  0  0  0  0  0  0
   37.5840   23.5060   32.3500 C   0  0  0  0  0  0  0  0  0  0  0  0
   37.0780   24.5320   34.2080 H   0  0  0  0  0  0  0  0  0  0  0  0
   39.4650   22.7120   33.8490 H   0  0  0  0  0  0  0  0  0  0  0  0
   36.5180   22.2100   34.5250 H   0  0  0  0  0  0  0  0  0  0  0  0
   37.6980   20.8850   34.1490 H   0  0  0  0  0  0  0  0  0  0  0  0
   38.4380   23.5420   31.6350 H   0  0  0  0  0  0  0  0  0  0  0  0
   36.7320   24.0930   31.9490 H   0  0  0  0  0  0  0  0  0  0  0  0
   39.8610   22.7680   37.9020 C   0  0  0  0  0  0  0  0  0  0  0  0
   39.7680   22.5530   36.5010 C   0  0  0  0  0  0  0  0  0  0  0  0
   38.6630   23.1070   35.8040 C   0  0  0  0  0  0  0  0  0  0  0  0
   37.7400   23.8250   36.5330 N   0  0  0  0  0  0  0  0  0  0  0  0
   37.8620   24.0050   37.8480 C   0  0  0  0  0  0  0  0  0  0  0  0
   38.9140   23.4850   38.5470 N   0  0  0  0  0  0  0  0  0  0  0  0
   40.7370   22.3060   38.3320 H   0  0  0  0  0  0  0  0  0  0  0  0
   40.5240   21.9760   35.9640 H   0  0  0  0  0  0  0  0  0  0  0  0
   37.1110   24.5780   38.3870 H   0  0  0  0  0  0  0  0  0  0  0  0
   38.9630   25.1080   33.4740 O   0  0  0  0  0  0  0  0  0  0  0  0
   38.6020   26.4250   33.5170 C   0  0  0  0  0  2  0  0  0  0  0  0
   37.9050   26.6350   34.7860 N   0  0  0  0  0  4  0  0  0  0  0  0
   37.5930   25.7130   35.1250 H   0  0  0  0  0  0  0  0  0  0  0  0
   38.9100   27.1530   35.7140 C   0  0  0  0  0  2  0  0  0  0  0  0
   38.9100   28.2650   35.5490 H   0  0  0  0  0  0  0  0  0  0  0  0
   36.8050   27.5430   34.6650 C   0  0  0  0  0  2  0  0  0  0  0  0
   36.8230   28.2020   35.5730 H   0  0  0  0  0  0  0  0  0  0  0  0
  1  6  1  1  0  0  0
  1  2  1  0  0  0  0
  2  7  1  6  0  0  0
  2 14  1  0  0  0  0
  3  9  1  0  0  0  0
  3  2  1  0  0  0  0
  3  8  1  0  0  0  0
  4  3  1  0  0  0  0
  5  4  1  0  0  0  0
  5  1  1  0  0  0  0
 10  5  1  0  0  0  0
 11  5  1  0  0  0  0
 12 18  1  0  0  0  0
 12 17  1  0  0  0  0
 13 12  2  0  0  0  0
 14 13  1  0  0  0  0
 14 15  2  0  0  0  0
 15 16  1  0  0  0  0
 16 20  1  0  0  0  0
 16 17  2  0  0  0  0
 19 13  1  0  0  0  0
 21 22  1  0  0  0  0
 21  1  1  0  0  0  0
 22 23  1  0  0  0  0
 23 24  1  0  0  0  0
 23 25  1  0  0  0  0
 26 25  1  0  0  0  0
 27 23  1  0  0  0  0
 27 28  1  0  0  0  0
M  END
>  <minimizedAffinity>
-3.77461624

$$$$

 OpenBabel03272501063D

 28 29  0  0  1  0  0  0  0  0999 V2000
   38.5430   22.7780   33.5170 C   0  0  2  0  0  0  0  0  0  0  0  0
   38.2290   23.9970   34.4170 C   0  0  2  0  0  0  0  0  0  0  0  0
   39.0480   25.0220   33.7440 C   0  0  0  0  0  0  0  0  0  0  0  0
   38.9200   24.8000   32.3770 O   0  0  0  0  0  0  0  0  0  0  0  0
   38.4650   23.5250   32.1760 C   0  0  0  0  0  0  0  0  0  0  0  0
   39.5580   22.4500   33.7280 H   0  0  0  0  0  0  0  0  0  0  0  0
   37.1310   24.1810   34.2270 H   0  0  0  0  0  0  0  0  0  0  0  0
   40.1260   24.7790   33.9690 H   0  0  0  0  0  0  0  0  0  0  0  0
   38.8520   26.0670   34.0490 H   0  0  0  0  0  0  0  0  0  0  0  0
   37.4290   23.4820   31.7640 H   0  0  0  0  0  0  0  0  0  0  0  0
   39.1620   22.9910   31.4990 H   0  0  0  0  0  0  0  0  0  0  0  0
   39.8870   22.8040   37.5980 C   0  0  0  0  0  0  0  0  0  0  0  0
   39.6790   23.0310   36.2110 C   0  0  0  0  0  0  0  0  0  0  0  0
   38.5190   23.7430   35.8090 C   0  0  0  0  0  0  0  0  0  0  0  0
   37.6580   24.1750   36.7960 N   0  0  0  0  0  0  0  0  0  0  0  0
   37.8890   23.9420   38.0870 C   0  0  0  0  0  0  0  0  0  0  0  0
   38.9960   23.2610   38.5060 N   0  0  0  0  0  0  0  0  0  0  0  0
   40.7970   22.2560   37.7930 H   0  0  0  0  0  0  0  0  0  0  0  0
   40.3880   22.6690   35.4640 H   0  0  0  0  0  0  0  0  0  0  0  0
   37.1840   24.3000   38.8350 H   0  0  0  0  0  0  0  0  0  0  0  0
   37.5550   21.8250   33.5940 O   0  0  0  0  0  0  0  0  0  0  0  0
   36.7300   21.7070   32.5120 C   0  0  0  0  0  2  0  0  0  0  0  0
   35.4470   21.2080   33.0060 N   0  0  0  0  0  4  0  0  0  0  0  0
   34.8000   22.0090   33.0560 H   0  0  0  0  0  0  0  0  0  0  0  0
   34.9570   20.2820   31.9860 C   0  0  0  0  0  2  0  0  0  0  0  0
   35.4220   19.2920   32.2450 H   0  0  0  0  0  0  0  0  0  0  0  0
   35.5620   20.5540   34.2750 C   0  0  0  0  0  2  0  0  0  0  0  0
   34.9060   19.6460   34.2370 H   0  0  0  0  0  0  0  0  0  0  0  0
  1 21  1  0  0  0  0
  1  6  1  1  0  0  0
  1  2  1  0  0  0  0
  2  7  1  6  0  0  0
  2 14  1  0  0  0  0
  3  8  1  0  0  0  0
  3  9  1  0  0  0  0
  3  2  1  0  0  0  0
  4  3  1  0  0  0  0
  5  4  1  0  0  0  0
  5  1  1  0  0  0  0
 10  5  1  0  0  0  0
 11  5  1  0  0  0  0
 12 18  1  0  0  0  0
 12 17  1  0  0  0  0
 13 12  2  0  0  0  0
 14 13  1  0  0  0  0
 14 15  2  0  0  0  0
 15 16  1  0  0  0  0
 16 17  2  0  0  0  0
 16 20  1  0  0  0  0
 19 13  1  0  0  0  0
 22 23  1  0  0  0  0
 22 21  1  0  0  0  0
 23 24  1  0  0  0  0
 23 27  1  0  0  0  0
 25 26  1  0  0  0  0
 25 23  1  0  0  0  0
 28 27  1  0  0  0  0
M  END
>  <minimizedAffinity>
-3.76975894

$$$$

 OpenBabel03272501063D

 28 29  0  0  1  0  0  0  0  0999 V2000
   38.2910   22.6650   33.2430 C   0  0  2  0  0  0  0  0  0  0  0  0
   37.1180   22.6060   32.2360 C   0  0  2  0  0  0  0  0  0  0  0  0
   37.7790   21.9000   31.1230 C   0  0  0  0  0  0  0  0  0  0  0  0
   38.5820   20.9190   31.6950 O   0  0  0  0  0  0  0  0  0  0  0  0
   38.7940   21.2320   33.0100 C   0  0  0  0  0  0  0  0  0  0  0  0
   39.0100   23.3990   32.8870 H   0  0  0  0  0  0  0  0  0  0  0  0
   36.3730   21.9290   32.7480 H   0  0  0  0  0  0  0  0  0  0  0  0
   38.5060   22.6260   30.6610 H   0  0  0  0  0  0  0  0  0  0  0  0
   37.1060   21.5230   30.3300 H   0  0  0  0  0  0  0  0  0  0  0  0
   38.3040   20.5250   33.7200 H   0  0  0  0  0  0  0  0  0  0  0  0
   39.8860   21.2660   33.2060 H   0  0  0  0  0  0  0  0  0  0  0  0
   34.9290   25.3900   30.9160 C   0  0  0  0  0  0  0  0  0  0  0  0
   35.3930   24.0730   31.1750 C   0  0  0  0  0  0  0  0  0  0  0  0
   36.5740   23.9130   31.9460 C   0  0  0  0  0  0  0  0  0  0  0  0
   37.2030   25.0520   32.3990 N   0  0  0  0  0  0  0  0  0  0  0  0
   36.7360   26.2710   32.1340 C   0  0  0  0  0  0  0  0  0  0  0  0
   35.6020   26.4590   31.3970 N   0  0  0  0  0  0  0  0  0  0  0  0
   34.0250   25.3990   30.3240 H   0  0  0  0  0  0  0  0  0  0  0  0
   34.8620   23.1990   30.7950 H   0  0  0  0  0  0  0  0  0  0  0  0
   37.2630   27.1450   32.5110 H   0  0  0  0  0  0  0  0  0  0  0  0
   37.8420   22.8130   34.5340 O   0  0  0  0  0  0  0  0  0  0  0  0
   38.7050   23.3920   35.4210 C   0  0  0  0  0  2  0  0  0  0  0  0
   38.5870   22.6500   36.6760 N   0  0  0  0  0  4  0  0  0  0  0  0
   38.2920   21.6900   36.4440 H   0  0  0  0  0  0  0  0  0  0  0  0
   39.9360   22.5940   37.2370 C   0  0  0  0  0  2  0  0  0  0  0  0
   40.0440   23.5440   37.8290 H   0  0  0  0  0  0  0  0  0  0  0  0
   37.6770   23.2640   37.5950 C   0  0  0  0  0  2  0  0  0  0  0  0
   38.1410   23.1920   38.6140 H   0  0  0  0  0  0  0  0  0  0  0  0
  1  6  1  6  0  0  0
  1 21  1  0  0  0  0
  2  7  1  1  0  0  0
  2  1  1  0  0  0  0
  3  4  1  0  0  0  0
  3  2  1  0  0  0  0
  4  5  1  0  0  0  0
  5 11  1  0  0  0  0
  5  1  1  0  0  0  0
  5 10  1  0  0  0  0
  8  3  1  0  0  0  0
  9  3  1  0  0  0  0
 12 13  2  0  0  0  0
 12 17  1  0  0  0  0
 13 14  1  0  0  0  0
 14  2  1  0  0  0  0
 14 15  2  0  0  0  0
 16 15  1  0  0  0  0
 16 20  1  0  0  0  0
 17 16  2  0  0  0  0
 18 12  1  0  0  0  0
 19 13  1  0  0  0  0
 21 22  1  0  0  0  0
 22 23  1  0  0  0  0
 23 25  1  0  0  0  0
 23 27  1  0  0  0  0
 24 23  1  0  0  0  0
 25 26  1  0  0  0  0
 27 28  1  0  0  0  0
M  END
>  <minimizedAffinity>
-3.74644518

$$$$
