
     RDKit          3D

 28 28  0  0  0  0  0  0  0  0999 V2000
   37.3371   30.1576   51.3469 C   0  0  0  0  0  0  0  0  0  0  0  0
   37.9917   30.5130   50.1677 C   0  0  0  0  0  0  0  0  0  0  0  0
   37.4232   30.1516   48.9540 C   0  0  0  0  0  0  0  0  0  0  0  0
   36.2420   29.4613   49.0005 N   0  0  0  0  0  0  0  0  0  0  0  0
   35.6398   29.1359   50.1536 C   0  0  0  0  0  0  0  0  0  0  0  0
   36.1870   29.4839   51.3290 N   0  0  0  0  0  0  0  0  0  0  0  0
   37.8610   30.3783   47.6947 O   0  0  0  0  0  0  0  0  0  0  0  0
   39.0634   32.7328   48.1435 O   0  0  0  0  0  0  0  0  0  0  0  0
   38.6928   31.7313   47.1076 P   0  0  2  0  0  0  0  0  0  0  0  0
   37.8272   32.4654   45.8452 O   0  0  0  0  0  0  0  0  0  0  0  0
   40.1548   31.1609   46.4104 O   0  0  0  0  0  0  0  0  0  0  0  0
   37.8396   30.4734   52.2670 H   0  0  0  0  0  0  0  0  0  0  0  0
   38.9215   31.0549   50.0668 H   0  0  0  0  0  0  0  0  0  0  0  0
   34.7015   28.5871   50.1713 H   0  0  0  0  0  0  0  0  0  0  0  0
   37.6107   33.4115   46.0645 H   0  0  0  0  0  0  0  0  0  0  0  0
   40.2392   31.4328   45.0675 C   0  0  0  0  0  0  0  0  0  0  0  0
   38.9444   31.4755   44.3977 N   0  0  0  0  0  4  0  0  0  0  0  0
   39.2160   31.3871   42.9741 C   0  0  0  0  0  0  0  0  0  0  0  0
   38.4995   31.9937   42.3845 H   0  0  0  0  0  0  0  0  0  0  0  0
   38.0843   30.3881   44.7615 C   0  0  0  0  0  0  0  0  0  0  0  0
   38.1487   30.0792   45.8239 H   0  0  0  0  0  0  0  0  0  0  0  0
   40.8426   30.6889   44.5178 H   0  0  0  0  0  0  0  0  0  0  0  0
   40.6643   32.4472   44.9587 H   0  0  0  0  0  0  0  0  0  0  0  0
   38.4592   32.3941   44.6149 H   0  0  0  0  0  0  0  0  0  0  0  0
   39.1004   30.3330   42.6675 H   0  0  0  0  0  0  0  0  0  0  0  0
   40.2727   31.6518   42.7483 H   0  0  0  0  0  0  0  0  0  0  0  0
   37.0429   30.6976   44.4768 H   0  0  0  0  0  0  0  0  0  0  0  0
   38.3133   29.5331   44.0933 H   0  0  0  0  0  0  0  0  0  0  0  0
  2  1  2  0
  3  4  2  0
  3  2  1  0
  4  5  1  0
  5  6  2  0
  6  1  1  0
  7  3  1  0
  9  7  1  1
  9  8  2  0
 10  9  1  0
 11  9  1  0
  1 12  1  0
  2 13  1  0
  5 14  1  0
 10 15  1  0
 16 17  1  0
 17 18  1  0
 18 19  1  0
 17 20  1  0
 20 21  1  0
 16 22  1  0
 16 23  1  0
 17 24  1  0
 18 25  1  0
 18 26  1  0
 20 27  1  0
 20 28  1  0
 11 16  1  0
M  CHG  1  17   1
M  ISO  6  12  14  13  14  14  14  15   3  19   8  21   8
M  END
>  <DihAtoms>  (1) 
8,10,15,16

>  <DihDeg>  (1) 
-179.99989913271642

$$$$
