
 OpenBabel03272508083D

 22 22  0  0  0  0  0  0  0  0999 V2000
   39.1330   32.7440   48.0480 O   0  0  0  0  0  0  0  0  0  0  0  0
   38.7100   31.7490   47.0260 P   0  0  2  0  0  0  0  0  0  0  0  0
   37.7110   32.4730   45.8590 O   0  0  0  0  0  0  0  0  0  0  0  0
   37.4810   33.4060   46.1180 H   0  0  0  0  0  0  0  0  0  0  0  0
   37.9820   30.3550   47.6540 O   0  0  0  0  0  0  0  0  0  0  0  0
   37.3490   30.2150   51.2920 C   0  0  0  0  0  0  0  0  0  0  0  0
   38.0360   30.5490   50.1260 C   0  0  0  0  0  0  0  0  0  0  0  0
   37.5080   30.1540   48.9040 C   0  0  0  0  0  0  0  0  0  0  0  0
   36.3320   29.4530   48.9320 N   0  0  0  0  0  0  0  0  0  0  0  0
   35.6980   29.1500   50.0730 C   0  0  0  0  0  0  0  0  0  0  0  0
   36.2060   29.5300   51.2560 N   0  0  0  0  0  0  0  0  0  0  0  0
   37.8210   30.5570   52.2190 H   0  0  0  0  0  0  0  0  0  0  0  0
   38.9640   31.0970   50.0400 H   0  0  0  0  0  0  0  0  0  0  0  0
   34.7650   28.5920   50.0750 H   0  0  0  0  0  0  0  0  0  0  0  0
   40.1250   31.2470   46.1920 O   0  0  0  0  0  0  0  0  0  0  0  0
   40.2690   31.8700   44.9780 C   0  0  0  0  0  2  0  0  0  0  0  0
   39.4160   31.3160   43.9320 N   0  0  0  0  0  4  0  0  0  0  0  0
   38.3980   31.4940   44.1690 H   0  0  0  0  0  0  0  0  0  0  0  0
   39.7660   32.0120   42.7060 C   0  0  0  0  0  2  0  0  0  0  0  0
   38.8790   32.1650   42.0590 H   0  0  0  0  0  0  0  0  0  0  0  0
   39.6160   29.9120   43.7250 C   0  0  0  0  0  2  0  0  0  0  0  0
   39.8110   29.3290   44.6480 H   0  0  0  0  0  0  0  0  0  0  0  0
  2  5  1  0  0  0  0
  2  1  2  1  0  0  0
  3  4  1  0  0  0  0
  3  2  1  0  0  0  0
  5  8  1  0  0  0  0
  6 12  1  0  0  0  0
  7  6  2  0  0  0  0
  8  9  2  0  0  0  0
  8  7  1  0  0  0  0
  9 10  1  0  0  0  0
 10 14  1  0  0  0  0
 10 11  2  0  0  0  0
 11  6  1  0  0  0  0
 13  7  1  0  0  0  0
 15  2  1  0  0  0  0
 16 15  1  0  0  0  0
 17 18  1  0  0  0  0
 17 16  1  0  0  0  0
 19 17  1  0  0  0  0
 20 19  1  0  0  0  0
 21 17  1  0  0  0  0
 21 22  1  0  0  0  0
M  END
>  <minimizedAffinity>
-4.59848738

>  <minimizedRMSD>
0.590869546

$$$$
