
 OpenBabel03272503513D

 35 36  0  0  1  0  0  0  0  0999 V2000
   37.6940   26.1330   31.6860 C   0  0  1  0  0  0  0  0  0  0  0  0
   37.6140   27.0010   32.9610 C   0  0  2  0  0  0  0  0  0  0  0  0
   36.8150   28.0340   32.5830 O   0  0  0  0  0  0  0  0  0  0  0  0
   35.7630   27.4340   31.9190 C   0  0  0  0  0  0  0  0  0  0  0  0
   36.2890   26.2510   31.1770 C   0  0  2  0  0  0  0  0  0  0  0  0
   37.9260   25.0940   31.9700 H   0  0  0  0  0  0  0  0  0  0  0  0
   37.1460   26.3110   33.7020 H   0  0  0  0  0  0  0  0  0  0  0  0
   35.0000   27.2040   32.6810 H   0  0  0  0  0  0  0  0  0  0  0  0
   35.3490   28.1820   31.2130 H   0  0  0  0  0  0  0  0  0  0  0  0
   36.3000   26.4570   30.0870 H   0  0  0  0  0  0  0  0  0  0  0  0
   38.6650   26.6150   30.8330 O   0  0  0  0  0  0  0  0  0  0  0  0
   38.5070   27.5420   30.5770 H   0  0  0  0  0  0  0  0  0  0  0  0
   38.9130   27.2990   33.2560 O   0  0  0  0  0  0  0  0  0  0  0  0
   40.9460   26.7900   34.8580 O   0  0  0  0  0  0  0  0  0  0  0  0
   39.4290   26.7160   34.7480 P   0  0  1  0  0  0  0  0  0  0  0  0
   38.8480   27.7100   35.9900 O   0  0  0  0  0  0  0  0  0  0  0  0
   39.5060   28.3430   36.3200 H   0  0  0  0  0  0  0  0  0  0  0  0
   38.8220   25.1320   34.9100 O   0  0  0  0  0  0  0  0  0  0  0  0
   38.9060   24.4260   36.0920 C   0  0  0  0  0  0  0  0  0  0  0  0
   39.8240   23.3810   36.3440 C   0  0  0  0  0  0  0  0  0  0  0  0
   39.7830   22.7660   37.5880 C   0  0  0  0  0  0  0  0  0  0  0  0
   38.8620   23.2000   38.5030 N   0  0  0  0  0  0  0  0  0  0  0  0
   37.9900   24.2100   38.2300 C   0  0  0  0  0  0  0  0  0  0  0  0
   38.0160   24.8240   37.0160 N   0  0  0  0  0  0  0  0  0  0  0  0
   40.4960   23.1320   35.5470 H   0  0  0  0  0  0  0  0  0  0  0  0
   40.4720   21.9780   37.7830 H   0  0  0  0  0  0  0  0  0  0  0  0
   37.2990   24.4830   39.0150 H   0  0  0  0  0  0  0  0  0  0  0  0
   35.5830   25.0970   31.4710 O   0  0  0  0  0  0  0  0  0  0  0  0
   36.1860   23.9430   31.0050 C   0  0  0  0  0  2  0  0  0  0  0  0
   35.9330   22.8350   31.9100 N   0  0  0  0  0  4  0  0  0  0  0  0
   35.1520   23.0550   32.5660 H   0  0  0  0  0  0  0  0  0  0  0  0
   35.6010   21.6240   31.2100 C   0  0  0  0  0  2  0  0  0  0  0  0
   36.4950   21.0070   30.9410 H   0  0  0  0  0  0  0  0  0  0  0  0
   37.1100   22.5730   32.7290 C   0  0  0  0  0  2  0  0  0  0  0  0
   37.2220   23.3750   33.4670 H   0  0  0  0  0  0  0  0  0  0  0  0
  1  6  1  1  0  0  0
  1  2  1  0  0  0  0
  2 13  1  0  0  0  0
  2  7  1  1  0  0  0
  3  2  1  0  0  0  0
  4  3  1  0  0  0  0
  4  8  1  0  0  0  0
  5 10  1  6  0  0  0
  5 28  1  0  0  0  0
  5  1  1  0  0  0  0
  5  4  1  0  0  0  0
  9  4  1  0  0  0  0
 11  1  1  0  0  0  0
 12 11  1  0  0  0  0
 13 15  1  0  0  0  0
 15 14  2  1  0  0  0
 15 18  1  0  0  0  0
 15 16  1  0  0  0  0
 16 17  1  0  0  0  0
 18 19  1  0  0  0  0
 19 20  2  0  0  0  0
 19 24  1  0  0  0  0
 20 21  1  0  0  0  0
 21 26  1  0  0  0  0
 21 22  2  0  0  0  0
 23 22  1  0  0  0  0
 23 27  1  0  0  0  0
 24 23  2  0  0  0  0
 25 20  1  0  0  0  0
 29 28  1  0  0  0  0
 29 30  1  0  0  0  0
 30 31  1  0  0  0  0
 30 34  1  0  0  0  0
 32 30  1  0  0  0  0
 33 32  1  0  0  0  0
 34 35  1  0  0  0  0
M  END
>  <minimizedAffinity>
-5.01956606

$$$$

 OpenBabel03272503513D

 35 36  0  0  1  0  0  0  0  0999 V2000
   37.9230   26.6650   35.7870 C   0  0  1  0  0  0  0  0  0  0  0  0
   37.3050   26.6060   34.3720 C   0  0  2  0  0  0  0  0  0  0  0  0
   38.3100   26.0900   33.6170 O   0  0  0  0  0  0  0  0  0  0  0  0
   38.7930   25.0290   34.3570 C   0  0  0  0  0  0  0  0  0  0  0  0
   38.7100   25.3890   35.8030 C   0  0  2  0  0  0  0  0  0  0  0  0
   37.1140   26.6400   36.5360 H   0  0  0  0  0  0  0  0  0  0  0  0
   36.4380   25.9170   34.5080 H   0  0  0  0  0  0  0  0  0  0  0  0
   38.2030   24.1460   34.0630 H   0  0  0  0  0  0  0  0  0  0  0  0
   39.8480   24.8700   34.0570 H   0  0  0  0  0  0  0  0  0  0  0  0
   39.7250   25.5790   36.2090 H   0  0  0  0  0  0  0  0  0  0  0  0
   38.6710   27.8130   35.9400 O   0  0  0  0  0  0  0  0  0  0  0  0
   39.3830   27.8830   35.2790 H   0  0  0  0  0  0  0  0  0  0  0  0
   36.9280   27.8910   34.1080 O   0  0  0  0  0  0  0  0  0  0  0  0
   37.2040   28.8890   31.6820 O   0  0  0  0  0  0  0  0  0  0  0  0
   36.2550   28.1090   32.5810 P   0  0  1  0  0  0  0  0  0  0  0  0
   36.0550   26.6100   31.8180 O   0  0  0  0  0  0  0  0  0  0  0  0
   36.7550   26.4060   31.1780 H   0  0  0  0  0  0  0  0  0  0  0  0
   34.7510   28.8820   32.7960 O   0  0  0  0  0  0  0  0  0  0  0  0
   34.5270   29.7940   33.8060 C   0  0  0  0  0  0  0  0  0  0  0  0
   35.3290   30.9300   34.0590 C   0  0  0  0  0  0  0  0  0  0  0  0
   34.9710   31.7550   35.1170 C   0  0  0  0  0  0  0  0  0  0  0  0
   33.8670   31.4300   35.8570 N   0  0  0  0  0  0  0  0  0  0  0  0
   33.1140   30.3270   35.5890 C   0  0  0  0  0  0  0  0  0  0  0  0
   33.4490   29.5080   34.5560 N   0  0  0  0  0  0  0  0  0  0  0  0
   36.1680   31.0770   33.4090 H   0  0  0  0  0  0  0  0  0  0  0  0
   35.5720   32.6120   35.3120 H   0  0  0  0  0  0  0  0  0  0  0  0
   32.2600   30.1520   36.2280 H   0  0  0  0  0  0  0  0  0  0  0  0
   38.0370   24.4300   36.5400 O   0  0  0  0  0  0  0  0  0  0  0  0
   38.4950   23.1430   36.3270 C   0  0  0  0  0  2  0  0  0  0  0  0
   39.0150   22.5770   37.5600 N   0  0  0  0  0  4  0  0  0  0  0  0
   38.6300   21.6210   37.7280 H   0  0  0  0  0  0  0  0  0  0  0  0
   40.4500   22.4860   37.5570 C   0  0  0  0  0  2  0  0  0  0  0  0
   40.9530   23.4080   37.9410 H   0  0  0  0  0  0  0  0  0  0  0  0
   38.6180   23.3950   38.6990 C   0  0  0  0  0  2  0  0  0  0  0  0
   37.5470   23.2610   38.8850 H   0  0  0  0  0  0  0  0  0  0  0  0
  1  5  1  0  0  0  0
  1 11  1  0  0  0  0
  1  6  1  1  0  0  0
  2  7  1  6  0  0  0
  2  1  1  0  0  0  0
  3  4  1  0  0  0  0
  3  2  1  0  0  0  0
  4  5  1  0  0  0  0
  5 10  1  1  0  0  0
  5 28  1  0  0  0  0
  8  4  1  0  0  0  0
  9  4  1  0  0  0  0
 12 11  1  0  0  0  0
 13  2  1  0  0  0  0
 15 14  2  6  0  0  0
 15 18  1  0  0  0  0
 15 13  1  0  0  0  0
 16 15  1  0  0  0  0
 17 16  1  0  0  0  0
 18 19  1  0  0  0  0
 19 20  2  0  0  0  0
 19 24  1  0  0  0  0
 20 21  1  0  0  0  0
 21 26  1  0  0  0  0
 21 22  2  0  0  0  0
 23 22  1  0  0  0  0
 23 27  1  0  0  0  0
 24 23  2  0  0  0  0
 25 20  1  0  0  0  0
 29 28  1  0  0  0  0
 29 30  1  0  0  0  0
 30 31  1  0  0  0  0
 30 34  1  0  0  0  0
 32 30  1  0  0  0  0
 32 33  1  0  0  0  0
 34 35  1  0  0  0  0
M  END
>  <minimizedAffinity>
-4.84273767

$$$$

 OpenBabel03272503513D

 35 36  0  0  1  0  0  0  0  0999 V2000
   36.1360   28.4080   32.4010 C   0  0  1  0  0  0  0  0  0  0  0  0
   36.6520   27.9170   33.7720 C   0  0  2  0  0  0  0  0  0  0  0  0
   36.6260   29.0430   34.5330 O   0  0  0  0  0  0  0  0  0  0  0  0
   35.3980   29.6160   34.2630 C   0  0  0  0  0  0  0  0  0  0  0  0
   35.0690   29.3690   32.8300 C   0  0  2  0  0  0  0  0  0  0  0  0
   35.7030   27.5550   31.8510 H   0  0  0  0  0  0  0  0  0  0  0  0
   35.8940   27.1530   34.0640 H   0  0  0  0  0  0  0  0  0  0  0  0
   34.6850   29.1860   34.9860 H   0  0  0  0  0  0  0  0  0  0  0  0
   35.4920   30.7030   34.4590 H   0  0  0  0  0  0  0  0  0  0  0  0
   35.1560   30.3100   32.2490 H   0  0  0  0  0  0  0  0  0  0  0  0
   37.1630   28.9650   31.6690 O   0  0  0  0  0  0  0  0  0  0  0  0
   37.5880   29.7090   32.1330 H   0  0  0  0  0  0  0  0  0  0  0  0
   37.8770   27.3780   33.5060 O   0  0  0  0  0  0  0  0  0  0  0  0
   40.1870   27.0120   34.7260 O   0  0  0  0  0  0  0  0  0  0  0  0
   38.6850   26.8040   34.8660 P   0  0  1  0  0  0  0  0  0  0  0  0
   38.2390   27.7070   36.2270 O   0  0  0  0  0  0  0  0  0  0  0  0
   38.8870   28.3880   36.4690 H   0  0  0  0  0  0  0  0  0  0  0  0
   38.2520   25.1670   35.0590 O   0  0  0  0  0  0  0  0  0  0  0  0
   38.5700   24.4480   36.1920 C   0  0  0  0  0  0  0  0  0  0  0  0
   39.5690   23.4510   36.2600 C   0  0  0  0  0  0  0  0  0  0  0  0
   39.7710   22.8140   37.4780 C   0  0  0  0  0  0  0  0  0  0  0  0
   38.9980   23.1820   38.5450 N   0  0  0  0  0  0  0  0  0  0  0  0
   38.0410   24.1470   38.4480 C   0  0  0  0  0  0  0  0  0  0  0  0
   37.8300   24.7810   37.2630 N   0  0  0  0  0  0  0  0  0  0  0  0
   40.1090   23.2520   35.3560 H   0  0  0  0  0  0  0  0  0  0  0  0
   40.5230   22.0620   37.5340 H   0  0  0  0  0  0  0  0  0  0  0  0
   37.4800   24.3700   39.3440 H   0  0  0  0  0  0  0  0  0  0  0  0
   33.8220   28.7880   32.6750 O   0  0  0  0  0  0  0  0  0  0  0  0
   32.8220   29.4180   33.3940 C   0  0  0  0  0  2  0  0  0  0  0  0
   31.7470   29.8370   32.5110 N   0  0  0  0  0  4  0  0  0  0  0  0
   31.5710   29.1260   31.7680 H   0  0  0  0  0  0  0  0  0  0  0  0
   30.5150   30.0590   33.2190 C   0  0  0  0  0  2  0  0  0  0  0  0
   30.4070   31.1030   33.6050 H   0  0  0  0  0  0  0  0  0  0  0  0
   32.1050   31.0760   31.8320 C   0  0  0  0  0  2  0  0  0  0  0  0
   32.8740   30.8660   31.0800 H   0  0  0  0  0  0  0  0  0  0  0  0
  1  6  1  6  0  0  0
  1  5  1  0  0  0  0
  1  2  1  0  0  0  0
  2  7  1  1  0  0  0
  2  3  1  0  0  0  0
  4  9  1  0  0  0  0
  4  3  1  0  0  0  0
  4  8  1  0  0  0  0
  5 10  1  6  0  0  0
  5  4  1  0  0  0  0
 11 12  1  0  0  0  0
 11  1  1  0  0  0  0
 13  2  1  0  0  0  0
 13 15  1  0  0  0  0
 15 14  2  6  0  0  0
 15 18  1  0  0  0  0
 15 16  1  0  0  0  0
 16 17  1  0  0  0  0
 18 19  1  0  0  0  0
 19 20  2  0  0  0  0
 19 24  1  0  0  0  0
 20 21  1  0  0  0  0
 21 26  1  0  0  0  0
 21 22  2  0  0  0  0
 23 22  1  0  0  0  0
 23 27  1  0  0  0  0
 24 23  2  0  0  0  0
 25 20  1  0  0  0  0
 28  5  1  0  0  0  0
 28 29  1  0  0  0  0
 30 32  1  0  0  0  0
 30 29  1  0  0  0  0
 31 30  1  0  0  0  0
 32 33  1  0  0  0  0
 34 30  1  0  0  0  0
 35 34  1  0  0  0  0
M  END
>  <minimizedAffinity>
-4.82104301

$$$$

 OpenBabel03272503513D

 35 36  0  0  1  0  0  0  0  0999 V2000
   38.2380   24.7070   31.5840 C   0  0  1  0  0  0  0  0  0  0  0  0
   37.5470   25.1910   32.8790 C   0  0  2  0  0  0  0  0  0  0  0  0
   36.3920   25.7460   32.4240 O   0  0  0  0  0  0  0  0  0  0  0  0
   35.9020   24.8310   31.5130 C   0  0  0  0  0  0  0  0  0  0  0  0
   37.0580   24.2060   30.8070 C   0  0  2  0  0  0  0  0  0  0  0  0
   38.9290   23.8850   31.8290 H   0  0  0  0  0  0  0  0  0  0  0  0
   37.4030   24.2450   33.4510 H   0  0  0  0  0  0  0  0  0  0  0  0
   35.2690   24.1300   32.0810 H   0  0  0  0  0  0  0  0  0  0  0  0
   35.2650   25.3880   30.7970 H   0  0  0  0  0  0  0  0  0  0  0  0
   37.1120   24.5740   29.7620 H   0  0  0  0  0  0  0  0  0  0  0  0
   38.9300   25.7420   30.9900 O   0  0  0  0  0  0  0  0  0  0  0  0
   38.3550   26.5000   30.7790 H   0  0  0  0  0  0  0  0  0  0  0  0
   38.4530   26.0330   33.4580 O   0  0  0  0  0  0  0  0  0  0  0  0
   39.1580   27.2800   35.6720 O   0  0  0  0  0  0  0  0  0  0  0  0
   37.9870   26.6070   34.9690 P   0  0  1  0  0  0  0  0  0  0  0  0
   36.8190   27.8210   34.7930 O   0  0  0  0  0  0  0  0  0  0  0  0
   37.1810   28.7190   34.8690 H   0  0  0  0  0  0  0  0  0  0  0  0
   37.3550   25.2840   35.8400 O   0  0  0  0  0  0  0  0  0  0  0  0
   38.1460   24.4690   36.6220 C   0  0  0  0  0  0  0  0  0  0  0  0
   37.9570   24.2470   38.0040 C   0  0  0  0  0  0  0  0  0  0  0  0
   38.8420   23.3950   38.6530 C   0  0  0  0  0  0  0  0  0  0  0  0
   39.8450   22.8150   37.9250 N   0  0  0  0  0  0  0  0  0  0  0  0
   40.0020   23.0500   36.5920 C   0  0  0  0  0  0  0  0  0  0  0  0
   39.1450   23.8820   35.9410 N   0  0  0  0  0  0  0  0  0  0  0  0
   37.1340   24.7570   38.4630 H   0  0  0  0  0  0  0  0  0  0  0  0
   38.7030   23.2240   39.6950 H   0  0  0  0  0  0  0  0  0  0  0  0
   40.8240   22.5480   36.1020 H   0  0  0  0  0  0  0  0  0  0  0  0
   37.0130   22.8230   30.8590 O   0  0  0  0  0  0  0  0  0  0  0  0
   35.7960   22.3220   31.2810 C   0  0  0  0  0  2  0  0  0  0  0  0
   35.9830   21.0880   32.0250 N   0  0  0  0  0  4  0  0  0  0  0  0
   36.6460   20.4490   31.5340 H   0  0  0  0  0  0  0  0  0  0  0  0
   36.4890   21.3220   33.3510 C   0  0  0  0  0  2  0  0  0  0  0  0
   35.6840   21.4850   34.1100 H   0  0  0  0  0  0  0  0  0  0  0  0
   34.7190   20.3730   32.1450 C   0  0  0  0  0  2  0  0  0  0  0  0
   34.4510   19.9480   31.1720 H   0  0  0  0  0  0  0  0  0  0  0  0
  1  6  1  1  0  0  0
  1  2  1  0  0  0  0
  2  7  1  1  0  0  0
  2 13  1  0  0  0  0
  3  2  1  0  0  0  0
  4  8  1  0  0  0  0
  4  3  1  0  0  0  0
  5 10  1  6  0  0  0
  5 28  1  0  0  0  0
  5  4  1  0  0  0  0
  5  1  1  0  0  0  0
  9  4  1  0  0  0  0
 11  1  1  0  0  0  0
 12 11  1  0  0  0  0
 13 15  1  0  0  0  0
 15 14  2  1  0  0  0
 15 18  1  0  0  0  0
 16 17  1  0  0  0  0
 16 15  1  0  0  0  0
 18 19  1  0  0  0  0
 19 20  1  0  0  0  0
 20 25  1  0  0  0  0
 20 21  2  0  0  0  0
 21 26  1  0  0  0  0
 22 21  1  0  0  0  0
 23 22  2  0  0  0  0
 24 23  1  0  0  0  0
 24 19  2  0  0  0  0
 27 23  1  0  0  0  0
 28 29  1  0  0  0  0
 29 30  1  0  0  0  0
 30 34  1  0  0  0  0
 30 32  1  0  0  0  0
 31 30  1  0  0  0  0
 32 33  1  0  0  0  0
 35 34  1  0  0  0  0
M  END
>  <minimizedAffinity>
-4.76714945

$$$$

 OpenBabel03272503513D

 35 36  0  0  1  0  0  0  0  0999 V2000
   37.3180   26.4430   35.1350 C   0  0  1  0  0  0  0  0  0  0  0  0
   37.2870   25.9680   33.6650 C   0  0  2  0  0  0  0  0  0  0  0  0
   38.6010   25.7770   33.3730 O   0  0  0  0  0  0  0  0  0  0  0  0
   39.1010   25.0860   34.4600 C   0  0  0  0  0  0  0  0  0  0  0  0
   38.4090   25.5760   35.6870 C   0  0  2  0  0  0  0  0  0  0  0  0
   36.3500   26.2130   35.6090 H   0  0  0  0  0  0  0  0  0  0  0  0
   36.6920   25.0260   33.7210 H   0  0  0  0  0  0  0  0  0  0  0  0
   38.9620   24.0150   34.2430 H   0  0  0  0  0  0  0  0  0  0  0  0
   40.1870   25.3010   34.5150 H   0  0  0  0  0  0  0  0  0  0  0  0
   39.1020   26.1880   36.2990 H   0  0  0  0  0  0  0  0  0  0  0  0
   37.5630   27.7990   35.1990 O   0  0  0  0  0  0  0  0  0  0  0  0
   38.4010   28.0450   34.7670 H   0  0  0  0  0  0  0  0  0  0  0  0
   36.6430   26.9660   32.9940 O   0  0  0  0  0  0  0  0  0  0  0  0
   36.2440   28.1180   30.6540 O   0  0  0  0  0  0  0  0  0  0  0  0
   36.7350   26.8390   31.3180 P   0  0  1  0  0  0  0  0  0  0  0  0
   38.3520   26.6830   30.8380 O   0  0  0  0  0  0  0  0  0  0  0  0
   38.7430   27.5130   30.5210 H   0  0  0  0  0  0  0  0  0  0  0  0
   35.8370   25.4620   30.8650 O   0  0  0  0  0  0  0  0  0  0  0  0
   36.3300   24.1810   31.0000 C   0  0  0  0  0  0  0  0  0  0  0  0
   35.6390   23.1120   31.6140 C   0  0  0  0  0  0  0  0  0  0  0  0
   36.2730   21.8780   31.6730 C   0  0  0  0  0  0  0  0  0  0  0  0
   37.5250   21.7580   31.1350 N   0  0  0  0  0  0  0  0  0  0  0  0
   38.1660   22.8080   30.5500 C   0  0  0  0  0  0  0  0  0  0  0  0
   37.5600   24.0250   30.4840 N   0  0  0  0  0  0  0  0  0  0  0  0
   34.6630   23.3310   31.9970 H   0  0  0  0  0  0  0  0  0  0  0  0
   35.7560   21.0690   32.1340 H   0  0  0  0  0  0  0  0  0  0  0  0
   39.1530   22.6190   30.1540 H   0  0  0  0  0  0  0  0  0  0  0  0
   37.8580   24.5390   36.4220 O   0  0  0  0  0  0  0  0  0  0  0  0
   38.4340   23.3090   36.1650 C   0  0  0  0  0  2  0  0  0  0  0  0
   38.8490   22.6710   37.4020 N   0  0  0  0  0  4  0  0  0  0  0  0
   38.4650   21.7030   37.4750 H   0  0  0  0  0  0  0  0  0  0  0  0
   40.2790   22.5950   37.5240 C   0  0  0  0  0  2  0  0  0  0  0  0
   40.7320   23.4950   38.0090 H   0  0  0  0  0  0  0  0  0  0  0  0
   38.3380   23.4130   38.5490 C   0  0  0  0  0  2  0  0  0  0  0  0
   37.2570   23.2560   38.6280 H   0  0  0  0  0  0  0  0  0  0  0  0
  1 11  1  0  0  0  0
  1  6  1  1  0  0  0
  1  5  1  0  0  0  0
  2  7  1  6  0  0  0
  2  1  1  0  0  0  0
  3  2  1  0  0  0  0
  3  4  1  0  0  0  0
  4  9  1  0  0  0  0
  4  5  1  0  0  0  0
  5 10  1  1  0  0  0
  5 28  1  0  0  0  0
  8  4  1  0  0  0  0
 12 11  1  0  0  0  0
 13  2  1  0  0  0  0
 15 14  2  6  0  0  0
 15 13  1  0  0  0  0
 16 15  1  0  0  0  0
 17 16  1  0  0  0  0
 18 19  1  0  0  0  0
 18 15  1  0  0  0  0
 19 20  1  0  0  0  0
 20 21  2  0  0  0  0
 20 25  1  0  0  0  0
 21 26  1  0  0  0  0
 22 21  1  0  0  0  0
 23 22  2  0  0  0  0
 24 23  1  0  0  0  0
 24 19  2  0  0  0  0
 27 23  1  0  0  0  0
 29 28  1  0  0  0  0
 29 30  1  0  0  0  0
 30 31  1  0  0  0  0
 30 32  1  0  0  0  0
 30 34  1  0  0  0  0
 32 33  1  0  0  0  0
 34 35  1  0  0  0  0
M  END
>  <minimizedAffinity>
-4.71127033

$$$$

 OpenBabel03272503513D

 35 36  0  0  1  0  0  0  0  0999 V2000
   38.0690   24.8370   34.7740 C   0  0  1  0  0  0  0  0  0  0  0  0
   38.0190   24.8030   33.2300 C   0  0  2  0  0  0  0  0  0  0  0  0
   39.1050   25.5380   32.8700 O   0  0  0  0  0  0  0  0  0  0  0  0
   40.1230   25.0740   33.6790 C   0  0  0  0  0  0  0  0  0  0  0  0
   39.5450   24.7280   35.0100 C   0  0  2  0  0  0  0  0  0  0  0  0
   37.5380   23.9560   35.1720 H   0  0  0  0  0  0  0  0  0  0  0  0
   38.1110   23.7150   33.0020 H   0  0  0  0  0  0  0  0  0  0  0  0
   40.5930   24.2330   33.1430 H   0  0  0  0  0  0  0  0  0  0  0  0
   40.8640   25.8920   33.7780 H   0  0  0  0  0  0  0  0  0  0  0  0
   39.8600   25.4730   35.7690 H   0  0  0  0  0  0  0  0  0  0  0  0
   37.4860   25.9920   35.2510 O   0  0  0  0  0  0  0  0  0  0  0  0
   37.9130   26.7940   34.9020 H   0  0  0  0  0  0  0  0  0  0  0  0
   36.7930   25.3130   32.9140 O   0  0  0  0  0  0  0  0  0  0  0  0
   35.6590   26.2990   30.7460 O   0  0  0  0  0  0  0  0  0  0  0  0
   36.3360   25.0590   31.3140 P   0  0  1  0  0  0  0  0  0  0  0  0
   37.7090   24.8240   30.3510 O   0  0  0  0  0  0  0  0  0  0  0  0
   37.9770   25.6170   29.8590 H   0  0  0  0  0  0  0  0  0  0  0  0
   35.3360   23.6790   31.2870 O   0  0  0  0  0  0  0  0  0  0  0  0
   35.8090   22.4180   31.5830 C   0  0  0  0  0  0  0  0  0  0  0  0
   35.1470   21.4810   32.4070 C   0  0  0  0  0  0  0  0  0  0  0  0
   35.7550   20.2490   32.6100 C   0  0  0  0  0  0  0  0  0  0  0  0
   36.9570   20.0050   32.0050 N   0  0  0  0  0  0  0  0  0  0  0  0
   37.5720   20.9290   31.2150 C   0  0  0  0  0  0  0  0  0  0  0  0
   36.9900   22.1410   31.0060 N   0  0  0  0  0  0  0  0  0  0  0  0
   34.2090   21.7900   32.8240 H   0  0  0  0  0  0  0  0  0  0  0  0
   35.2590   19.5400   33.2310 H   0  0  0  0  0  0  0  0  0  0  0  0
   38.5200   20.6460   30.7800 H   0  0  0  0  0  0  0  0  0  0  0  0
   39.8660   23.4380   35.3980 O   0  0  0  0  0  0  0  0  0  0  0  0
   38.8400   22.7830   36.0530 C   0  0  0  0  0  2  0  0  0  0  0  0
   39.2620   22.3740   37.3810 N   0  0  0  0  0  4  0  0  0  0  0  0
   38.8380   21.4580   37.6460 H   0  0  0  0  0  0  0  0  0  0  0  0
   40.6910   22.2510   37.4860 C   0  0  0  0  0  2  0  0  0  0  0  0
   41.1980   23.2040   37.7790 H   0  0  0  0  0  0  0  0  0  0  0  0
   38.8200   23.3460   38.3740 C   0  0  0  0  0  2  0  0  0  0  0  0
   37.7360   23.2620   38.5040 H   0  0  0  0  0  0  0  0  0  0  0  0
  1  5  1  0  0  0  0
  1  6  1  1  0  0  0
  1 11  1  0  0  0  0
  2  7  1  6  0  0  0
  2  1  1  0  0  0  0
  3  2  1  0  0  0  0
  3  4  1  0  0  0  0
  4  9  1  0  0  0  0
  4  5  1  0  0  0  0
  5 28  1  0  0  0  0
  5 10  1  1  0  0  0
  8  4  1  0  0  0  0
 12 11  1  0  0  0  0
 13  2  1  0  0  0  0
 15 14  2  6  0  0  0
 15 13  1  0  0  0  0
 16 15  1  0  0  0  0
 17 16  1  0  0  0  0
 18 15  1  0  0  0  0
 18 19  1  0  0  0  0
 19 20  1  0  0  0  0
 20 21  2  0  0  0  0
 20 25  1  0  0  0  0
 21 26  1  0  0  0  0
 22 21  1  0  0  0  0
 23 22  2  0  0  0  0
 24 23  1  0  0  0  0
 24 19  2  0  0  0  0
 27 23  1  0  0  0  0
 28 29  1  0  0  0  0
 29 30  1  0  0  0  0
 30 32  1  0  0  0  0
 30 31  1  0  0  0  0
 30 34  1  0  0  0  0
 32 33  1  0  0  0  0
 34 35  1  0  0  0  0
M  END
>  <minimizedAffinity>
-4.68547297

$$$$

 OpenBabel03272503513D

 35 36  0  0  1  0  0  0  0  0999 V2000
   38.7560   23.5170   36.1700 C   0  0  1  0  0  0  0  0  0  0  0  0
   38.2400   24.8130   36.8350 C   0  0  2  0  0  0  0  0  0  0  0  0
   37.7270   24.3720   38.0140 O   0  0  0  0  0  0  0  0  0  0  0  0
   38.6840   23.5080   38.5080 C   0  0  0  0  0  0  0  0  0  0  0  0
   39.3100   22.7920   37.3590 C   0  0  2  0  0  0  0  0  0  0  0  0
   39.5540   23.7730   35.4530 H   0  0  0  0  0  0  0  0  0  0  0  0
   39.1680   25.4230   36.9430 H   0  0  0  0  0  0  0  0  0  0  0  0
   39.3780   24.1180   39.1100 H   0  0  0  0  0  0  0  0  0  0  0  0
   38.1670   22.7910   39.1770 H   0  0  0  0  0  0  0  0  0  0  0  0
   38.9790   21.7340   37.3410 H   0  0  0  0  0  0  0  0  0  0  0  0
   37.7290   22.8680   35.5170 O   0  0  0  0  0  0  0  0  0  0  0  0
   36.9910   22.6470   36.1140 H   0  0  0  0  0  0  0  0  0  0  0  0
   37.3590   25.3360   35.9330 O   0  0  0  0  0  0  0  0  0  0  0  0
   37.0170   27.7630   34.9560 O   0  0  0  0  0  0  0  0  0  0  0  0
   37.9890   26.5920   35.0070 P   0  0  1  0  0  0  0  0  0  0  0  0
   39.3860   27.2080   35.7410 O   0  0  0  0  0  0  0  0  0  0  0  0
   39.2310   28.0240   36.2430 H   0  0  0  0  0  0  0  0  0  0  0  0
   38.3490   25.9540   33.4670 O   0  0  0  0  0  0  0  0  0  0  0  0
   37.4080   25.3000   32.7010 C   0  0  0  0  0  0  0  0  0  0  0  0
   36.4030   25.9380   31.9390 C   0  0  0  0  0  0  0  0  0  0  0  0
   35.5270   25.1380   31.2180 C   0  0  0  0  0  0  0  0  0  0  0  0
   35.6800   23.7790   31.2790 N   0  0  0  0  0  0  0  0  0  0  0  0
   36.6590   23.1930   32.0230 C   0  0  0  0  0  0  0  0  0  0  0  0
   37.5260   23.9620   32.7360 N   0  0  0  0  0  0  0  0  0  0  0  0
   36.3870   27.0090   31.9720 H   0  0  0  0  0  0  0  0  0  0  0  0
   34.7690   25.6140   30.6420 H   0  0  0  0  0  0  0  0  0  0  0  0
   36.7010   22.1130   32.0100 H   0  0  0  0  0  0  0  0  0  0  0  0
   40.6910   22.8950   37.3710 O   0  0  0  0  0  0  0  0  0  0  0  0
   41.3390   21.6740   37.3190 C   0  0  0  0  0  2  0  0  0  0  0  0
   42.4060   21.7060   36.3350 N   0  0  0  0  0  4  0  0  0  0  0  0
   42.0250   21.6540   35.3640 H   0  0  0  0  0  0  0  0  0  0  0  0
   43.2080   22.8950   36.4370 C   0  0  0  0  0  2  0  0  0  0  0  0
   44.0660   22.7910   37.1470 H   0  0  0  0  0  0  0  0  0  0  0  0
   43.2840   20.5550   36.5040 C   0  0  0  0  0  2  0  0  0  0  0  0
   42.7640   19.6510   36.1660 H   0  0  0  0  0  0  0  0  0  0  0  0
  1  6  1  6  0  0  0
  1  2  1  0  0  0  0
  1  5  1  0  0  0  0
  2  7  1  1  0  0  0
  2  3  1  0  0  0  0
  3  4  1  0  0  0  0
  4  8  1  0  0  0  0
  4  9  1  0  0  0  0
  5 10  1  6  0  0  0
  5 28  1  0  0  0  0
  5  4  1  0  0  0  0
 11 12  1  0  0  0  0
 11  1  1  0  0  0  0
 13  2  1  0  0  0  0
 15 14  2  6  0  0  0
 15 16  1  0  0  0  0
 15 13  1  0  0  0  0
 16 17  1  0  0  0  0
 18 15  1  0  0  0  0
 19 24  1  0  0  0  0
 19 18  1  0  0  0  0
 20 25  1  0  0  0  0
 20 19  2  0  0  0  0
 21 22  2  0  0  0  0
 21 20  1  0  0  0  0
 22 23  1  0  0  0  0
 23 24  2  0  0  0  0
 26 21  1  0  0  0  0
 27 23  1  0  0  0  0
 29 28  1  0  0  0  0
 30 32  1  0  0  0  0
 30 34  1  0  0  0  0
 30 29  1  0  0  0  0
 31 30  1  0  0  0  0
 32 33  1  0  0  0  0
 35 34  1  0  0  0  0
M  END
>  <minimizedAffinity>
-4.67481804

$$$$

 OpenBabel03272503513D

 35 36  0  0  1  0  0  0  0  0999 V2000
   38.7050   23.4000   36.3060 C   0  0  1  0  0  0  0  0  0  0  0  0
   38.2820   24.7590   36.9080 C   0  0  2  0  0  0  0  0  0  0  0  0
   37.8110   24.4190   38.1370 O   0  0  0  0  0  0  0  0  0  0  0  0
   38.7530   23.5430   38.6410 C   0  0  0  0  0  0  0  0  0  0  0  0
   39.2860   22.7270   37.5120 C   0  0  2  0  0  0  0  0  0  0  0  0
   39.4770   23.5710   35.5370 H   0  0  0  0  0  0  0  0  0  0  0  0
   39.2410   25.3300   36.9310 H   0  0  0  0  0  0  0  0  0  0  0  0
   39.5020   24.1560   39.1670 H   0  0  0  0  0  0  0  0  0  0  0  0
   38.2390   22.8960   39.3800 H   0  0  0  0  0  0  0  0  0  0  0  0
   38.9070   21.6860   37.5800 H   0  0  0  0  0  0  0  0  0  0  0  0
   37.6180   22.7610   35.7480 O   0  0  0  0  0  0  0  0  0  0  0  0
   36.9030   22.6140   36.3930 H   0  0  0  0  0  0  0  0  0  0  0  0
   37.3810   25.2650   36.0170 O   0  0  0  0  0  0  0  0  0  0  0  0
   36.7210   27.5260   34.8280 O   0  0  0  0  0  0  0  0  0  0  0  0
   37.9050   26.6540   35.2250 P   0  0  1  0  0  0  0  0  0  0  0  0
   38.8240   27.6100   36.2780 O   0  0  0  0  0  0  0  0  0  0  0  0
   38.3270   28.3500   36.6630 H   0  0  0  0  0  0  0  0  0  0  0  0
   38.8430   26.1530   33.8920 O   0  0  0  0  0  0  0  0  0  0  0  0
   40.1840   26.4520   33.7790 C   0  0  0  0  0  0  0  0  0  0  0  0
   40.7370   27.3240   32.8140 C   0  0  0  0  0  0  0  0  0  0  0  0
   42.1120   27.5230   32.8290 C   0  0  0  0  0  0  0  0  0  0  0  0
   42.8570   26.8700   33.7730 N   0  0  0  0  0  0  0  0  0  0  0  0
   42.2950   26.0350   34.6900 C   0  0  0  0  0  0  0  0  0  0  0  0
   40.9500   25.8280   34.6900 N   0  0  0  0  0  0  0  0  0  0  0  0
   40.0490   27.7760   32.1280 H   0  0  0  0  0  0  0  0  0  0  0  0
   42.5330   28.1790   32.1040 H   0  0  0  0  0  0  0  0  0  0  0  0
   42.9640   25.5630   35.3960 H   0  0  0  0  0  0  0  0  0  0  0  0
   40.6690   22.7640   37.4520 O   0  0  0  0  0  0  0  0  0  0  0  0
   41.1730   22.6270   36.1710 C   0  0  0  0  0  2  0  0  0  0  0  0
   42.4260   21.8940   36.1930 N   0  0  0  0  0  4  0  0  0  0  0  0
   42.5770   21.3790   35.2970 H   0  0  0  0  0  0  0  0  0  0  0  0
   43.5580   22.7540   36.4090 C   0  0  0  0  0  2  0  0  0  0  0  0
   43.7990   22.9060   37.4910 H   0  0  0  0  0  0  0  0  0  0  0  0
   42.4100   20.8950   37.2540 C   0  0  0  0  0  2  0  0  0  0  0  0
   41.7370   20.0780   36.9720 H   0  0  0  0  0  0  0  0  0  0  0  0
  1  6  1  6  0  0  0
  1  2  1  0  0  0  0
  1  5  1  0  0  0  0
  2  7  1  1  0  0  0
  2  3  1  0  0  0  0
  3  4  1  0  0  0  0
  4  8  1  0  0  0  0
  4  9  1  0  0  0  0
  5 10  1  1  0  0  0
  5  4  1  0  0  0  0
 11  1  1  0  0  0  0
 11 12  1  0  0  0  0
 13  2  1  0  0  0  0
 15 14  2  6  0  0  0
 15 13  1  0  0  0  0
 15 16  1  0  0  0  0
 16 17  1  0  0  0  0
 18 15  1  0  0  0  0
 19 18  1  0  0  0  0
 19 24  1  0  0  0  0
 20 21  1  0  0  0  0
 20 19  2  0  0  0  0
 21 22  2  0  0  0  0
 22 23  1  0  0  0  0
 23 27  1  0  0  0  0
 24 23  2  0  0  0  0
 25 20  1  0  0  0  0
 26 21  1  0  0  0  0
 28  5  1  0  0  0  0
 29 30  1  0  0  0  0
 29 28  1  0  0  0  0
 30 32  1  0  0  0  0
 30 34  1  0  0  0  0
 31 30  1  0  0  0  0
 32 33  1  0  0  0  0
 35 34  1  0  0  0  0
M  END
>  <minimizedAffinity>
-4.54128313

$$$$

 OpenBabel03272503513D

 35 36  0  0  1  0  0  0  0  0999 V2000
   35.7290   29.5070   33.5460 C   0  0  1  0  0  0  0  0  0  0  0  0
   36.6380   28.2580   33.4830 C   0  0  2  0  0  0  0  0  0  0  0  0
   36.1000   27.5370   32.4640 O   0  0  0  0  0  0  0  0  0  0  0  0
   35.8840   28.4600   31.4600 C   0  0  0  0  0  0  0  0  0  0  0  0
   35.4880   29.7540   32.0880 C   0  0  2  0  0  0  0  0  0  0  0  0
   36.2910   30.3390   34.0020 H   0  0  0  0  0  0  0  0  0  0  0  0
   37.6400   28.6920   33.2540 H   0  0  0  0  0  0  0  0  0  0  0  0
   36.8100   28.4970   30.8620 H   0  0  0  0  0  0  0  0  0  0  0  0
   35.0640   28.0700   30.8240 H   0  0  0  0  0  0  0  0  0  0  0  0
   34.4110   29.9500   31.9130 H   0  0  0  0  0  0  0  0  0  0  0  0
   34.5970   29.2430   34.2880 O   0  0  0  0  0  0  0  0  0  0  0  0
   34.0850   28.4950   33.9290 H   0  0  0  0  0  0  0  0  0  0  0  0
   36.5640   27.7150   34.7320 O   0  0  0  0  0  0  0  0  0  0  0  0
   38.9850   26.8900   34.0850 O   0  0  0  0  0  0  0  0  0  0  0  0
   37.9450   26.8720   35.1960 P   0  0  1  0  0  0  0  0  0  0  0  0
   38.6840   27.6490   36.5070 O   0  0  0  0  0  0  0  0  0  0  0  0
   39.4410   28.2000   36.2530 H   0  0  0  0  0  0  0  0  0  0  0  0
   37.4550   25.2970   35.6280 O   0  0  0  0  0  0  0  0  0  0  0  0
   38.2020   24.4930   36.4630 C   0  0  0  0  0  0  0  0  0  0  0  0
   37.9260   24.2740   37.8310 C   0  0  0  0  0  0  0  0  0  0  0  0
   38.7760   23.4360   38.5400 C   0  0  0  0  0  0  0  0  0  0  0  0
   39.8320   22.8660   37.8820 N   0  0  0  0  0  0  0  0  0  0  0  0
   40.0730   23.0970   36.5620 C   0  0  0  0  0  0  0  0  0  0  0  0
   39.2500   23.9160   35.8520 N   0  0  0  0  0  0  0  0  0  0  0  0
   37.0690   24.7770   38.2320 H   0  0  0  0  0  0  0  0  0  0  0  0
   38.5720   23.2670   39.5710 H   0  0  0  0  0  0  0  0  0  0  0  0
   40.9310   22.6030   36.1280 H   0  0  0  0  0  0  0  0  0  0  0  0
   36.2760   30.8060   31.6520 O   0  0  0  0  0  0  0  0  0  0  0  0
   35.5980   31.7170   30.8620 C   0  0  0  0  0  2  0  0  0  0  0  0
   34.4460   32.2470   31.5700 N   0  0  0  0  0  4  0  0  0  0  0  0
   34.0490   31.5390   32.2270 H   0  0  0  0  0  0  0  0  0  0  0  0
   34.7640   33.4280   32.3260 C   0  0  0  0  0  2  0  0  0  0  0  0
   34.6530   34.3730   31.7390 H   0  0  0  0  0  0  0  0  0  0  0  0
   33.3870   32.5870   30.6280 C   0  0  0  0  0  2  0  0  0  0  0  0
   32.9410   31.6660   30.2370 H   0  0  0  0  0  0  0  0  0  0  0  0
  1  6  1  1  0  0  0
  1 11  1  0  0  0  0
  2  7  1  6  0  0  0
  2  1  1  0  0  0  0
  2 13  1  0  0  0  0
  3  2  1  0  0  0  0
  4  5  1  0  0  0  0
  4  3  1  0  0  0  0
  5 10  1  6  0  0  0
  5  1  1  0  0  0  0
  8  4  1  0  0  0  0
  9  4  1  0  0  0  0
 12 11  1  0  0  0  0
 13 15  1  0  0  0  0
 15 14  2  6  0  0  0
 15 18  1  0  0  0  0
 15 16  1  0  0  0  0
 17 16  1  0  0  0  0
 18 19  1  0  0  0  0
 19 20  1  0  0  0  0
 20 25  1  0  0  0  0
 20 21  2  0  0  0  0
 21 26  1  0  0  0  0
 22 21  1  0  0  0  0
 23 22  2  0  0  0  0
 24 19  2  0  0  0  0
 24 23  1  0  0  0  0
 27 23  1  0  0  0  0
 28  5  1  0  0  0  0
 29 30  1  0  0  0  0
 29 28  1  0  0  0  0
 30 31  1  0  0  0  0
 30 32  1  0  0  0  0
 33 32  1  0  0  0  0
 34 30  1  0  0  0  0
 35 34  1  0  0  0  0
M  END
>  <minimizedAffinity>
-4.50358057

$$$$
