
 OpenBabel03262521443D

 44 46  0  0  1  0  0  0  0  0999 V2000
   37.9420   30.5340   45.1610 C   0  0  2  0  0  0  0  0  0  0  0  0
   38.5160   31.2160   46.3860 C   0  0  2  0  0  0  0  0  0  0  0  0
   39.9990   31.2570   46.2280 C   0  0  0  0  0  0  0  0  0  0  0  0
   40.3630   31.3910   44.9180 O   0  0  0  0  0  0  0  0  0  0  0  0
   39.4930   32.2570   44.2780 C   0  0  0  0  0  0  0  0  0  0  0  0
   38.2100   31.5350   44.0060 C   0  0  2  0  0  0  0  0  0  0  0  0
   38.5590   29.6360   44.9550 H   0  0  0  0  0  0  0  0  0  0  0  0
   38.1740   32.2390   46.1520 H   0  0  0  0  0  0  0  0  0  0  0  0
   40.4780   32.0550   46.8530 H   0  0  0  0  0  0  0  0  0  0  0  0
   40.4200   30.2860   46.5910 H   0  0  0  0  0  0  0  0  0  0  0  0
   39.9600   32.4840   43.2800 H   0  0  0  0  0  0  0  0  0  0  0  0
   39.4280   33.1990   44.8070 H   0  0  0  0  0  0  0  0  0  0  0  0
   38.2920   30.9670   43.0700 H   0  0  0  0  0  0  0  0  0  0  0  0
   36.6050   30.3190   45.1440 O   0  0  0  0  0  0  0  0  0  0  0  0
   36.2110   30.0990   44.2890 H   0  0  0  0  0  0  0  0  0  0  0  0
   38.1110   30.7430   47.5960 O   0  0  0  0  0  0  0  0  0  0  0  0
   37.4240   31.6580   48.2850 C   0  0  1  0  0  0  0  0  0  0  0  0
   36.5770   31.1020   49.3990 C   0  0  2  0  0  0  0  0  0  0  0  0
   37.7100   30.4900   50.2350 C   0  0  0  0  0  0  0  0  0  0  0  0
   38.7370   31.4030   50.2320 O   0  0  0  0  0  0  0  0  0  0  0  0
   38.4880   32.2770   49.2490 C   0  0  0  0  0  0  0  0  0  0  0  0
   37.1670   32.6090   47.7640 H   0  0  0  0  0  0  0  0  0  0  0  0
   36.1180   31.9020   49.9810 H   0  0  0  0  0  0  0  0  0  0  0  0
   37.9950   29.4860   49.8840 H   0  0  0  0  0  0  0  0  0  0  0  0
   37.3350   30.3810   51.2700 H   0  0  0  0  0  0  0  0  0  0  0  0
   39.0950   33.0510   48.9390 H   0  0  0  0  0  0  0  0  0  0  0  0
   37.7240   32.9500   49.8170 H   0  0  0  0  0  0  0  0  0  0  0  0
   35.6340   30.0810   48.9280 C   0  0  0  0  0  0  0  0  0  0  0  0
   34.7450   30.4340   47.9090 C   0  0  0  0  0  0  0  0  0  0  0  0
   33.8330   29.4340   47.4840 C   0  0  0  0  0  0  0  0  0  0  0  0
   33.8760   28.2050   48.0880 N   0  0  0  0  0  0  0  0  0  0  0  0
   34.7580   27.9060   49.0770 C   0  0  0  0  0  0  0  0  0  0  0  0
   35.6270   28.8580   49.4810 N   0  0  0  0  0  0  0  0  0  0  0  0
   34.7810   31.4200   47.4910 H   0  0  0  0  0  0  0  0  0  0  0  0
   33.1430   29.6720   46.7080 H   0  0  0  0  0  0  0  0  0  0  0  0
   34.7620   26.9230   49.5310 H   0  0  0  0  0  0  0  0  0  0  0  0
   37.1910   32.4890   43.9780 O   0  0  0  0  0  0  0  0  0  0  0  0
   36.6310   32.7530   42.7720 C   0  0  0  0  0  0  0  0  0  0  0  0
   35.6860   31.6550   42.4970 N   0  0  0  0  0  0  0  0  0  0  0  0
   35.9550   30.8550   43.1130 H   0  0  0  0  0  0  0  0  0  0  0  0
   35.7590   31.2510   41.1100 C   0  0  0  0  0  0  0  0  0  0  0  0
   36.7970   31.2320   40.7250 H   0  0  0  0  0  0  0  0  0  0  0  0
   34.3300   32.0310   42.8250 C   0  0  0  0  0  0  0  0  0  0  0  0
   33.7250   31.1420   43.0980 H   0  0  0  0  0  0  0  0  0  0  0  0
  1  7  1  6  0  0  0
  1  2  1  0  0  0  0
  2  8  1  6  0  0  0
  2 16  1  0  0  0  0
  3  2  1  0  0  0  0
  3 10  1  0  0  0  0
  3  9  1  0  0  0  0
  4  3  1  0  0  0  0
  5 12  1  0  0  0  0
  5  4  1  0  0  0  0
  6 13  1  6  0  0  0
  6  5  1  0  0  0  0
  6  1  1  0  0  0  0
 11  5  1  0  0  0  0
 14  1  1  0  0  0  0
 15 14  1  0  0  0  0
 16 17  1  0  0  0  0
 17 22  1  6  0  0  0
 17 21  1  0  0  0  0
 17 18  1  0  0  0  0
 18 23  1  1  0  0  0
 18 19  1  0  0  0  0
 19 25  1  0  0  0  0
 20 19  1  0  0  0  0
 21 27  1  0  0  0  0
 21 20  1  0  0  0  0
 24 19  1  0  0  0  0
 26 21  1  0  0  0  0
 28 18  1  0  0  0  0
 28 33  1  0  0  0  0
 29 28  2  0  0  0  0
 30 29  1  0  0  0  0
 30 31  2  0  0  0  0
 31 32  1  0  0  0  0
 32 33  2  0  0  0  0
 32 36  1  0  0  0  0
 34 29  1  0  0  0  0
 35 30  1  0  0  0  0
 37  6  1  0  0  0  0
 38 37  1  0  0  0  0
 39 38  1  0  0  0  0
 39 43  1  0  0  0  0
 39 40  1  0  0  0  0
 41 39  1  0  0  0  0
 42 41  1  0  0  0  0
 43 44  1  0  0  0  0
M  END
>  <minimizedAffinity>
-5.06336737

>  <minimizedRMSD>
2.13405967

$$$$
