
     RDKit          3D

 27 27  0  0  0  0  0  0  0  0999 V2000
   37.3962   30.1407   51.0818 C   0  0  0  0  0  0  0  0  0  0  0  0
   38.2285   30.9033   50.2465 C   0  0  0  0  0  0  0  0  0  0  0  0
   37.6835   31.4371   49.1006 C   0  0  0  0  0  0  0  0  0  0  0  0
   36.3673   31.1994   48.8350 N   0  0  0  0  0  0  0  0  0  0  0  0
   35.5923   30.4643   49.6536 C   0  0  0  0  0  0  0  0  0  0  0  0
   36.0994   29.9324   50.7775 N   0  0  0  0  0  0  0  0  0  0  0  0
   33.9106   28.8362   49.2013 C   0  0  0  0  0  0  0  0  0  0  0  0
   34.6828   27.8448   49.3203 O   0  0  0  0  0  0  0  0  0  0  0  0
   34.2157   30.2377   49.3398 N   0  0  0  0  0  0  0  0  0  0  0  0
   38.0547   29.6530   52.2086 O   0  0  0  0  0  0  0  0  0  0  0  0
   39.2561   31.1248   50.3952 H   0  0  0  0  0  0  0  0  0  0  0  0
   38.2566   32.0372   48.4027 H   0  0  0  0  0  0  0  0  0  0  0  0
   32.8643   28.5889   48.9590 H   0  0  0  0  0  0  0  0  0  0  0  0
   33.5623   31.0204   49.2362 H   0  0  0  0  0  0  0  0  0  0  0  0
   37.3507   28.8649   53.1494 C   0  0  0  0  0  0  0  0  0  0  0  0
   36.1037   28.3801   52.6479 N   0  0  0  0  0  4  0  0  0  0  0  0
   36.1736   28.0738   51.2441 C   0  0  0  0  0  0  0  0  0  0  0  0
   36.7998   28.8338   50.7054 H   0  0  0  0  0  0  0  0  0  0  0  0
   35.0617   29.3265   52.9504 C   0  0  0  0  0  0  0  0  0  0  0  0
   34.6655   29.7662   52.0250 H   0  0  0  0  0  0  0  0  0  0  0  0
   37.2606   29.4234   54.1004 H   0  0  0  0  0  0  0  0  0  0  0  0
   38.0023   27.9806   53.3814 H   0  0  0  0  0  0  0  0  0  0  0  0
   35.8971   27.4928   53.1701 H   0  0  0  0  0  0  0  0  0  0  0  0
   36.6662   27.0844   51.1482 H   0  0  0  0  0  0  0  0  0  0  0  0
   35.1556   28.0116   50.7886 H   0  0  0  0  0  0  0  0  0  0  0  0
   34.1999   28.8172   53.4695 H   0  0  0  0  0  0  0  0  0  0  0  0
   35.4530   30.1374   53.5633 H   0  0  0  0  0  0  0  0  0  0  0  0
  1 10  1  0
  2  1  2  0
  3  2  1  0
  4  3  2  0
  4  5  1  0
  5  6  2  0
  6  1  1  0
  7  8  2  0
  7  9  1  0
  9  5  1  0
  2 11  1  0
  3 12  1  0
  7 13  1  0
  9 14  1  0
 15 16  1  0
 16 17  1  0
 17 18  1  0
 16 19  1  0
 19 20  1  0
 15 21  1  0
 15 22  1  0
 16 23  1  0
 17 24  1  0
 17 25  1  0
 19 26  1  0
 19 27  1  0
 10 15  1  0
M  CHG  1  16   1
M  ISO  5  11  14  12  14  13   6  18   8  20   8
M  END
>  <DihAtoms>  (1) 
0,9,14,15

>  <DihDeg>  (1) 
179.9962719905154

$$$$
