
     RDKit          3D

 41 42  0  0  0  0  0  0  0  0999 V2000
   35.3522   29.8340   46.7688 O   0  0  0  0  0  0  0  0  0  0  0  0
   34.0968   29.9957   47.6157 P   0  0  2  0  0  0  0  0  0  0  0  0
   33.0942   31.0320   46.7268 O   0  0  0  0  0  0  0  0  0  0  0  0
   34.4119   30.6425   49.1620 O   0  0  0  0  0  0  0  0  0  0  0  0
   35.6363   30.5081   49.7832 C   0  0  0  0  0  0  0  0  0  0  0  0
   35.9650   29.4888   50.7050 C   0  0  0  0  0  0  0  0  0  0  0  0
   37.2441   29.4897   51.2456 C   0  0  0  0  0  0  0  0  0  0  0  0
   38.1171   30.4714   50.8610 N   0  0  0  0  0  0  0  0  0  0  0  0
   37.7702   31.4406   49.9699 C   0  0  0  0  0  0  0  0  0  0  0  0
   36.5213   31.4553   49.4303 N   0  0  0  0  0  0  0  0  0  0  0  0
   33.3357   28.5115   47.8402 O   0  0  0  0  0  0  0  0  0  0  0  0
   33.0897   27.3372   45.8720 C   0  0  1  0  0  0  0  0  0  0  0  0
   33.9211   27.4794   47.1673 C   0  0  2  0  0  0  0  0  0  0  0  0
   33.8291   26.2447   47.7302 O   0  0  0  0  0  0  0  0  0  0  0  0
   34.0577   25.3686   46.6866 C   0  0  0  0  0  0  0  0  0  0  0  0
   33.4673   25.9498   45.4475 C   0  0  2  0  0  0  0  0  0  0  0  0
   31.7491   27.5219   46.1358 O   0  0  0  0  0  0  0  0  0  0  0  0
   34.3840   26.0079   44.4113 O   0  0  0  0  0  0  0  0  0  0  0  0
   33.3265   31.0825   45.7862 H   0  0  0  0  0  0  0  0  0  0  0  0
   35.1952   28.7770   50.9260 H   0  0  0  0  0  0  0  0  0  0  0  0
   37.4973   28.7237   51.9409 H   0  0  0  0  0  0  0  0  0  0  0  0
   38.5263   32.1742   49.7265 H   0  0  0  0  0  0  0  0  0  0  0  0
   33.4350   28.0844   45.1375 H   0  0  0  0  0  0  0  0  0  0  0  0
   34.9378   27.7287   46.7835 H   0  0  0  0  0  0  0  0  0  0  0  0
   35.1469   25.2024   46.6496 H   0  0  0  0  0  0  0  0  0  0  0  0
   33.5588   24.4129   46.9445 H   0  0  0  0  0  0  0  0  0  0  0  0
   32.5571   25.3859   45.1560 H   0  0  0  0  0  0  0  0  0  0  0  0
   31.4123   26.8937   46.7997 H   0  0  0  0  0  0  0  0  0  0  0  0
   33.9670   25.3605   43.2632 C   0  0  0  0  0  0  0  0  0  0  0  0
   32.6491   24.7794   43.4552 N   0  0  0  0  0  4  0  0  0  0  0  0
   32.6960   23.5640   44.2227 C   0  0  0  0  0  0  0  0  0  0  0  0
   32.6201   23.7324   45.3256 H   0  0  0  0  0  0  0  0  0  0  0  0
   31.7792   25.7188   44.1522 C   0  0  0  0  0  0  0  0  0  0  0  0
   31.5107   26.5348   43.4722 H   0  0  0  0  0  0  0  0  0  0  0  0
   33.7982   26.1793   42.5040 H   0  0  0  0  0  0  0  0  0  0  0  0
   34.6260   24.5738   42.8993 H   0  0  0  0  0  0  0  0  0  0  0  0
   32.1933   24.5682   42.5402 H   0  0  0  0  0  0  0  0  0  0  0  0
   31.7894   22.9706   43.9581 H   0  0  0  0  0  0  0  0  0  0  0  0
   33.5535   22.9097   43.9565 H   0  0  0  0  0  0  0  0  0  0  0  0
   32.4006   26.1682   44.9708 H   0  0  0  0  0  0  0  0  0  0  0  0
   30.9300   25.2099   44.6391 H   0  0  0  0  0  0  0  0  0  0  0  0
  2  1  2  0
  2 11  1  1
  2  4  1  0
  3  2  1  0
  4  5  1  0
  5  6  2  0
  6  7  1  0
  8  7  2  0
  9  8  1  0
 10  5  1  0
 10  9  2  0
 12 17  1  0
 12 13  1  0
 13 14  1  0
 13 11  1  0
 15 14  1  0
 16 18  1  0
 16 12  1  0
 16 15  1  0
  3 19  1  0
  6 20  1  0
  7 21  1  0
  9 22  1  0
 12 23  1  6
 13 24  1  6
 15 25  1  0
 15 26  1  0
 16 27  1  6
 17 28  1  0
 29 30  1  0
 30 31  1  0
 31 32  1  0
 30 33  1  0
 33 34  1  0
 29 35  1  0
 29 36  1  0
 30 37  1  0
 31 38  1  0
 31 39  1  0
 33 40  1  0
 33 41  1  0
 18 29  1  0
M  ISO  8  19   3  20  14  21  14  22  14  23  13  24  13  25  13  26  13
M  CHG  1  30   1
M  ISO  4  27  13  28   3  32   8  34   8
M  END
>  <DihAtoms>  (1) 
15,17,28,29

>  <DihDeg>  (1) 
-179.99994595950812

$$$$
