
 OpenBabel03272502303D

 22 22  0  0  0  0  0  0  0  0999 V2000
   37.8010   25.4720   35.1450 C   0  0  0  0  0  3  0  0  0  0  0  0
   37.5990   26.7250   35.4090 C   0  0  0  0  0  3  0  0  0  0  0  0
   38.5670   23.5600   38.2460 C   0  0  0  0  0  0  0  0  0  0  0  0
   37.9330   24.4310   37.3580 C   0  0  0  0  0  0  0  0  0  0  0  0
   38.4320   24.5750   36.0750 C   0  0  0  0  0  0  0  0  0  0  0  0
   39.5310   23.8700   35.6920 N   0  0  0  0  0  0  0  0  0  0  0  0
   40.1080   23.0390   36.6000 C   0  0  0  0  0  0  0  0  0  0  0  0
   39.6400   22.8800   37.8590 N   0  0  0  0  0  0  0  0  0  0  0  0
   38.1110   23.5050   39.2220 H   0  0  0  0  0  0  0  0  0  0  0  0
   37.0420   25.0090   37.6410 H   0  0  0  0  0  0  0  0  0  0  0  0
   41.0060   22.4430   36.3640 H   0  0  0  0  0  0  0  0  0  0  0  0
   36.9600   27.6340   34.4130 C   0  0  0  0  0  0  0  0  0  0  0  0
   35.8730   27.6310   34.4370 H   0  0  0  0  0  0  0  0  0  0  0  0
   37.3790   28.6460   34.6790 H   0  0  0  0  0  0  0  0  0  0  0  0
   37.4970   27.1450   32.7500 S   0  0  0  0  0  0  0  0  0  0  0  0
   36.1180   27.1240   31.5810 C   0  0  0  0  0  2  0  0  0  0  0  0
   36.1360   25.9300   30.7540 N   0  0  0  0  0  4  0  0  0  0  0  0
   36.3090   26.1510   29.7480 H   0  0  0  0  0  0  0  0  0  0  0  0
   34.8470   25.2620   30.7890 C   0  0  0  0  0  2  0  0  0  0  0  0
   34.8580   24.4690   29.9930 H   0  0  0  0  0  0  0  0  0  0  0  0
   37.1780   25.0090   31.1650 C   0  0  0  0  0  2  0  0  0  0  0  0
   36.8950   23.9600   30.8640 H   0  0  0  0  0  0  0  0  0  0  0  0
  1  2  2  0  0  0  0
  1  5  1  0  0  0  0
  3  9  1  0  0  0  0
  4 10  1  0  0  0  0
  4  3  2  0  0  0  0
  5  4  1  0  0  0  0
  6  5  2  0  0  0  0
  6  7  1  0  0  0  0
  7  8  2  0  0  0  0
  8  3  1  0  0  0  0
 11  7  1  0  0  0  0
 12 13  1  0  0  0  0
 12 14  1  0  0  0  0
 12  2  1  0  0  0  0
 15 12  1  0  0  0  0
 16 15  1  0  0  0  0
 17 19  1  0  0  0  0
 17 21  1  0  0  0  0
 17 16  1  0  0  0  0
 18 17  1  0  0  0  0
 20 19  1  0  0  0  0
 22 21  1  0  0  0  0
M  END
>  <minimizedAffinity>
-3.84255219

$$$$

 OpenBabel03272502303D

 22 22  0  0  0  0  0  0  0  0999 V2000
   37.2340   27.0300   34.3450 C   0  0  0  0  0  3  0  0  0  0  0  0
   37.8870   27.5220   35.3510 C   0  0  0  0  0  3  0  0  0  0  0  0
   35.3620   29.7290   32.5920 C   0  0  0  0  0  0  0  0  0  0  0  0
   35.8970   28.9490   33.6200 C   0  0  0  0  0  0  0  0  0  0  0  0
   36.6790   27.8520   33.3040 C   0  0  0  0  0  0  0  0  0  0  0  0
   36.9190   27.5440   32.0000 N   0  0  0  0  0  0  0  0  0  0  0  0
   36.3710   28.3380   31.0420 C   0  0  0  0  0  0  0  0  0  0  0  0
   35.6040   29.4150   31.3250 N   0  0  0  0  0  0  0  0  0  0  0  0
   34.7690   30.5650   32.9260 H   0  0  0  0  0  0  0  0  0  0  0  0
   35.7200   29.1800   34.6800 H   0  0  0  0  0  0  0  0  0  0  0  0
   36.5150   28.1440   29.9650 H   0  0  0  0  0  0  0  0  0  0  0  0
   38.4320   26.6420   36.4250 C   0  0  0  0  0  0  0  0  0  0  0  0
   39.5120   26.6910   36.5390 H   0  0  0  0  0  0  0  0  0  0  0  0
   37.8990   27.0030   37.3510 H   0  0  0  0  0  0  0  0  0  0  0  0
   37.9720   24.9250   36.0620 S   0  0  0  0  0  0  0  0  0  0  0  0
   38.1090   23.8720   37.5250 C   0  0  0  0  0  2  0  0  0  0  0  0
   38.7730   22.6160   37.2200 N   0  0  0  0  0  4  0  0  0  0  0  0
   38.3420   21.8110   37.7240 H   0  0  0  0  0  0  0  0  0  0  0  0
   40.1590   22.6510   37.6550 C   0  0  0  0  0  2  0  0  0  0  0  0
   40.5620   21.6050   37.5730 H   0  0  0  0  0  0  0  0  0  0  0  0
   38.7100   22.3060   35.8050 C   0  0  0  0  0  2  0  0  0  0  0  0
   39.5750   21.6410   35.5250 H   0  0  0  0  0  0  0  0  0  0  0  0
  1  2  2  0  0  0  0
  2 12  1  0  0  0  0
  3  9  1  0  0  0  0
  3  4  1  0  0  0  0
  4 10  1  0  0  0  0
  5  4  2  0  0  0  0
  5  1  1  0  0  0  0
  6  5  1  0  0  0  0
  7  8  1  0  0  0  0
  7  6  2  0  0  0  0
  8  3  2  0  0  0  0
 11  7  1  0  0  0  0
 12 13  1  0  0  0  0
 12 14  1  0  0  0  0
 15 12  1  0  0  0  0
 15 16  1  0  0  0  0
 17 16  1  0  0  0  0
 17 19  1  0  0  0  0
 17 18  1  0  0  0  0
 20 19  1  0  0  0  0
 21 17  1  0  0  0  0
 22 21  1  0  0  0  0
M  END
>  <minimizedAffinity>
-3.75612116

$$$$

 OpenBabel03272502303D

 22 22  0  0  0  0  0  0  0  0999 V2000
   37.9400   25.2520   35.0800 C   0  0  0  0  0  3  0  0  0  0  0  0
   37.5890   26.4830   35.2830 C   0  0  0  0  0  3  0  0  0  0  0  0
   38.5180   23.5650   38.3480 C   0  0  0  0  0  0  0  0  0  0  0  0
   37.9350   24.3640   37.3620 C   0  0  0  0  0  0  0  0  0  0  0  0
   38.5180   24.4300   36.1090 C   0  0  0  0  0  0  0  0  0  0  0  0
   39.6490   23.7190   35.8490 N   0  0  0  0  0  0  0  0  0  0  0  0
   40.1730   22.9600   36.8470 C   0  0  0  0  0  0  0  0  0  0  0  0
   39.6230   22.8780   38.0800 N   0  0  0  0  0  0  0  0  0  0  0  0
   37.9980   23.5690   39.2920 H   0  0  0  0  0  0  0  0  0  0  0  0
   37.0200   24.9450   37.5460 H   0  0  0  0  0  0  0  0  0  0  0  0
   41.0920   22.3640   36.7120 H   0  0  0  0  0  0  0  0  0  0  0  0
   37.0120   27.3150   34.1880 C   0  0  0  0  0  0  0  0  0  0  0  0
   36.0280   27.7230   34.4060 H   0  0  0  0  0  0  0  0  0  0  0  0
   37.7790   28.1310   34.0500 H   0  0  0  0  0  0  0  0  0  0  0  0
   36.8920   26.3020   32.6880 S   0  0  0  0  0  0  0  0  0  0  0  0
   36.1300   27.2130   31.3240 C   0  0  0  0  0  2  0  0  0  0  0  0
   37.0070   27.2780   30.1680 N   0  0  0  0  0  4  0  0  0  0  0  0
   36.6620   26.6870   29.3800 H   0  0  0  0  0  0  0  0  0  0  0  0
   38.3250   26.7620   30.4950 C   0  0  0  0  0  2  0  0  0  0  0  0
   38.8920   26.6560   29.5310 H   0  0  0  0  0  0  0  0  0  0  0  0
   37.1220   28.6310   29.6580 C   0  0  0  0  0  2  0  0  0  0  0  0
   38.1020   28.7470   29.1150 H   0  0  0  0  0  0  0  0  0  0  0  0
  1  2  2  0  0  0  0
  1  5  1  0  0  0  0
  3  9  1  0  0  0  0
  4 10  1  0  0  0  0
  4  3  2  0  0  0  0
  5  4  1  0  0  0  0
  6  5  2  0  0  0  0
  6  7  1  0  0  0  0
  7  8  2  0  0  0  0
  8  3  1  0  0  0  0
 11  7  1  0  0  0  0
 12 13  1  0  0  0  0
 12  2  1  0  0  0  0
 14 12  1  0  0  0  0
 15 12  1  0  0  0  0
 16 15  1  0  0  0  0
 17 19  1  0  0  0  0
 17 16  1  0  0  0  0
 18 17  1  0  0  0  0
 20 19  1  0  0  0  0
 21 17  1  0  0  0  0
 22 21  1  0  0  0  0
M  END
>  <minimizedAffinity>
-3.6408453

$$$$

 OpenBabel03272502303D

 22 22  0  0  0  0  0  0  0  0999 V2000
   36.2500   28.5590   33.7690 C   0  0  0  0  0  3  0  0  0  0  0  0
   35.4290   29.2910   34.4540 C   0  0  0  0  0  3  0  0  0  0  0  0
   38.0490   25.3680   34.4330 C   0  0  0  0  0  0  0  0  0  0  0  0
   37.2210   26.3120   33.8200 C   0  0  0  0  0  0  0  0  0  0  0  0
   37.1020   27.5730   34.3760 C   0  0  0  0  0  0  0  0  0  0  0  0
   37.7890   27.8810   35.5100 N   0  0  0  0  0  0  0  0  0  0  0  0
   38.5780   26.9220   36.0640 C   0  0  0  0  0  0  0  0  0  0  0  0
   38.7120   25.6830   35.5390 N   0  0  0  0  0  0  0  0  0  0  0  0
   38.0870   24.4140   33.9320 H   0  0  0  0  0  0  0  0  0  0  0  0
   36.6590   26.0880   32.9030 H   0  0  0  0  0  0  0  0  0  0  0  0
   39.1570   27.0970   36.9860 H   0  0  0  0  0  0  0  0  0  0  0  0
   34.5740   30.3210   33.7940 C   0  0  0  0  0  0  0  0  0  0  0  0
   34.7860   30.4690   32.7380 H   0  0  0  0  0  0  0  0  0  0  0  0
   33.5280   29.9340   33.9580 H   0  0  0  0  0  0  0  0  0  0  0  0
   34.8030   31.9040   34.6510 S   0  0  0  0  0  0  0  0  0  0  0  0
   35.5400   31.6790   36.2860 C   0  0  0  0  0  2  0  0  0  0  0  0
   34.6700   32.1770   37.3380 N   0  0  0  0  0  4  0  0  0  0  0  0
   35.0380   31.9560   38.2890 H   0  0  0  0  0  0  0  0  0  0  0  0
   33.3660   31.5400   37.2680 C   0  0  0  0  0  2  0  0  0  0  0  0
   32.8090   31.8130   38.2060 H   0  0  0  0  0  0  0  0  0  0  0  0
   34.5170   33.6170   37.2710 C   0  0  0  0  0  2  0  0  0  0  0  0
   33.5380   33.9150   37.7420 H   0  0  0  0  0  0  0  0  0  0  0  0
  1  5  1  0  0  0  0
  1  2  2  0  0  0  0
  3  8  1  0  0  0  0
  4  5  1  0  0  0  0
  4  3  2  0  0  0  0
  5  6  2  0  0  0  0
  6  7  1  0  0  0  0
  7 11  1  0  0  0  0
  8  7  2  0  0  0  0
  9  3  1  0  0  0  0
 10  4  1  0  0  0  0
 12 14  1  0  0  0  0
 12  2  1  0  0  0  0
 12 15  1  0  0  0  0
 13 12  1  0  0  0  0
 15 16  1  0  0  0  0
 16 17  1  0  0  0  0
 17 18  1  0  0  0  0
 19 17  1  0  0  0  0
 19 20  1  0  0  0  0
 21 17  1  0  0  0  0
 21 22  1  0  0  0  0
M  END
>  <minimizedAffinity>
-3.63280582

$$$$

 OpenBabel03272502303D

 22 22  0  0  0  0  0  0  0  0999 V2000
   35.5560   29.6310   34.1270 C   0  0  0  0  0  3  0  0  0  0  0  0
   36.2450   28.5840   34.4570 C   0  0  0  0  0  3  0  0  0  0  0  0
   35.0830   32.2030   36.7760 C   0  0  0  0  0  0  0  0  0  0  0  0
   35.7030   31.3830   35.8310 C   0  0  0  0  0  0  0  0  0  0  0  0
   34.9390   30.4910   35.1000 C   0  0  0  0  0  0  0  0  0  0  0  0
   33.5960   30.4220   35.3060 N   0  0  0  0  0  0  0  0  0  0  0  0
   33.0470   31.2430   36.2400 C   0  0  0  0  0  0  0  0  0  0  0  0
   33.7720   32.1230   36.9680 N   0  0  0  0  0  0  0  0  0  0  0  0
   35.7510   32.8700   37.2970 H   0  0  0  0  0  0  0  0  0  0  0  0
   36.7860   31.4230   35.6430 H   0  0  0  0  0  0  0  0  0  0  0  0
   31.9670   31.2360   36.4680 H   0  0  0  0  0  0  0  0  0  0  0  0
   36.8550   27.6990   33.4210 C   0  0  0  0  0  0  0  0  0  0  0  0
   37.8790   27.9540   33.1620 H   0  0  0  0  0  0  0  0  0  0  0  0
   36.7850   26.6730   33.8830 H   0  0  0  0  0  0  0  0  0  0  0  0
   35.8460   27.7830   31.9160 S   0  0  0  0  0  0  0  0  0  0  0  0
   36.8570   27.6440   30.4240 C   0  0  0  0  0  2  0  0  0  0  0  0
   36.7080   28.8070   29.5660 N   0  0  0  0  0  4  0  0  0  0  0  0
   35.8390   28.7600   28.9890 H   0  0  0  0  0  0  0  0  0  0  0  0
   37.8030   28.8860   28.6150 C   0  0  0  0  0  2  0  0  0  0  0  0
   37.5370   29.6780   27.8630 H   0  0  0  0  0  0  0  0  0  0  0  0
   36.6340   30.0340   30.3340 C   0  0  0  0  0  2  0  0  0  0  0  0
   36.9840   30.8980   29.7000 H   0  0  0  0  0  0  0  0  0  0  0  0
  1  2  2  0  0  0  0
  1  5  1  0  0  0  0
  3  8  1  0  0  0  0
  3  9  1  0  0  0  0
  4  3  2  0  0  0  0
  5  6  2  0  0  0  0
  5  4  1  0  0  0  0
  6  7  1  0  0  0  0
  7 11  1  0  0  0  0
  7  8  2  0  0  0  0
 10  4  1  0  0  0  0
 12 14  1  0  0  0  0
 12  2  1  0  0  0  0
 13 12  1  0  0  0  0
 15 12  1  0  0  0  0
 16 15  1  0  0  0  0
 17 21  1  0  0  0  0
 17 16  1  0  0  0  0
 18 17  1  0  0  0  0
 19 17  1  0  0  0  0
 20 19  1  0  0  0  0
 22 21  1  0  0  0  0
M  END
>  <minimizedAffinity>
-3.49074388

$$$$

 OpenBabel03272502303D

 22 22  0  0  0  0  0  0  0  0999 V2000
   36.4590   28.4560   32.8340 C   0  0  0  0  0  3  0  0  0  0  0  0
   35.3910   29.1730   32.9890 C   0  0  0  0  0  3  0  0  0  0  0  0
   35.5770   25.3210   31.0300 C   0  0  0  0  0  0  0  0  0  0  0  0
   35.6100   26.6700   31.3900 C   0  0  0  0  0  0  0  0  0  0  0  0
   36.4150   27.0740   32.4400 C   0  0  0  0  0  0  0  0  0  0  0  0
   37.1640   26.1570   33.1110 N   0  0  0  0  0  0  0  0  0  0  0  0
   37.0910   24.8570   32.7180 C   0  0  0  0  0  0  0  0  0  0  0  0
   36.3130   24.4370   31.6950 N   0  0  0  0  0  0  0  0  0  0  0  0
   34.9270   25.0950   30.2000 H   0  0  0  0  0  0  0  0  0  0  0  0
   35.0170   27.4300   30.8620 H   0  0  0  0  0  0  0  0  0  0  0  0
   37.6630   24.0580   33.2200 H   0  0  0  0  0  0  0  0  0  0  0  0
   35.4710   30.6000   33.4200 C   0  0  0  0  0  0  0  0  0  0  0  0
   36.4840   30.9680   33.5620 H   0  0  0  0  0  0  0  0  0  0  0  0
   34.9410   31.1510   32.5910 H   0  0  0  0  0  0  0  0  0  0  0  0
   34.5690   30.7890   34.9810 S   0  0  0  0  0  0  0  0  0  0  0  0
   35.5870   31.5740   36.2520 C   0  0  0  0  0  2  0  0  0  0  0  0
   34.7720   32.2110   37.2730 N   0  0  0  0  0  4  0  0  0  0  0  0
   35.1560   32.0620   38.2320 H   0  0  0  0  0  0  0  0  0  0  0  0
   33.4370   31.6390   37.2930 C   0  0  0  0  0  2  0  0  0  0  0  0
   32.9210   32.0250   38.2140 H   0  0  0  0  0  0  0  0  0  0  0  0
   34.6890   33.6460   37.0740 C   0  0  0  0  0  2  0  0  0  0  0  0
   33.7390   34.0360   37.5380 H   0  0  0  0  0  0  0  0  0  0  0  0
  1  2  2  0  0  0  0
  2 12  1  0  0  0  0
  3  4  2  0  0  0  0
  3  8  1  0  0  0  0
  4  5  1  0  0  0  0
  5  1  1  0  0  0  0
  5  6  2  0  0  0  0
  7  6  1  0  0  0  0
  7 11  1  0  0  0  0
  8  7  2  0  0  0  0
  9  3  1  0  0  0  0
 10  4  1  0  0  0  0
 12 13  1  0  0  0  0
 12 15  1  0  0  0  0
 14 12  1  0  0  0  0
 15 16  1  0  0  0  0
 16 17  1  0  0  0  0
 17 19  1  0  0  0  0
 17 18  1  0  0  0  0
 19 20  1  0  0  0  0
 21 17  1  0  0  0  0
 21 22  1  0  0  0  0
M  END
>  <minimizedAffinity>
-3.458359

$$$$

 OpenBabel03272502303D

 22 22  0  0  0  0  0  0  0  0999 V2000
   35.4700   29.9580   33.7450 C   0  0  0  0  0  3  0  0  0  0  0  0
   36.0030   28.7760   33.7780 C   0  0  0  0  0  3  0  0  0  0  0  0
   33.0210   30.9960   36.3490 C   0  0  0  0  0  0  0  0  0  0  0  0
   33.5620   30.3740   35.2220 C   0  0  0  0  0  0  0  0  0  0  0  0
   34.8930   30.5810   34.9050 C   0  0  0  0  0  0  0  0  0  0  0  0
   35.6600   31.3850   35.6910 N   0  0  0  0  0  0  0  0  0  0  0  0
   35.0790   31.9650   36.7750 C   0  0  0  0  0  0  0  0  0  0  0  0
   33.7810   31.7790   37.1060 N   0  0  0  0  0  0  0  0  0  0  0  0
   31.9800   30.7780   36.5240 H   0  0  0  0  0  0  0  0  0  0  0  0
   32.9650   29.7180   34.5730 H   0  0  0  0  0  0  0  0  0  0  0  0
   35.6360   32.6350   37.4520 H   0  0  0  0  0  0  0  0  0  0  0  0
   36.5750   28.1490   32.5510 C   0  0  0  0  0  0  0  0  0  0  0  0
   35.8760   27.5250   32.0000 H   0  0  0  0  0  0  0  0  0  0  0  0
   36.9110   29.0350   31.9400 H   0  0  0  0  0  0  0  0  0  0  0  0
   38.0000   27.1320   33.0260 S   0  0  0  0  0  0  0  0  0  0  0  0
   37.5490   25.8760   34.2450 C   0  0  0  0  0  2  0  0  0  0  0  0
   38.4660   25.8700   35.3720 N   0  0  0  0  0  4  0  0  0  0  0  0
   39.4190   25.5430   35.1010 H   0  0  0  0  0  0  0  0  0  0  0  0
   38.0130   24.9450   36.3960 C   0  0  0  0  0  2  0  0  0  0  0  0
   38.8460   24.8380   37.1430 H   0  0  0  0  0  0  0  0  0  0  0  0
   38.6230   27.1950   35.9410 C   0  0  0  0  0  2  0  0  0  0  0  0
   38.9230   27.1070   37.0240 H   0  0  0  0  0  0  0  0  0  0  0  0
  1  2  2  0  0  0  0
  1  5  1  0  0  0  0
  3  9  1  0  0  0  0
  3  8  1  0  0  0  0
  4  3  2  0  0  0  0
  5  4  1  0  0  0  0
  5  6  2  0  0  0  0
  6  7  1  0  0  0  0
  7  8  2  0  0  0  0
  7 11  1  0  0  0  0
 10  4  1  0  0  0  0
 12 15  1  0  0  0  0
 12  2  1  0  0  0  0
 13 12  1  0  0  0  0
 14 12  1  0  0  0  0
 15 16  1  0  0  0  0
 16 17  1  0  0  0  0
 17 21  1  0  0  0  0
 17 19  1  0  0  0  0
 18 17  1  0  0  0  0
 19 20  1  0  0  0  0
 21 22  1  0  0  0  0
M  END
>  <minimizedAffinity>
-3.4290061

$$$$

 OpenBabel03272502303D

 22 22  0  0  0  0  0  0  0  0999 V2000
   35.8100   29.1340   33.9120 C   0  0  0  0  0  3  0  0  0  0  0  0
   36.5510   28.1490   34.3120 C   0  0  0  0  0  3  0  0  0  0  0  0
   35.2820   31.7930   36.4630 C   0  0  0  0  0  0  0  0  0  0  0  0
   35.9240   30.9240   35.5790 C   0  0  0  0  0  0  0  0  0  0  0  0
   35.1710   30.0430   34.8230 C   0  0  0  0  0  0  0  0  0  0  0  0
   33.8160   30.0320   34.9480 N   0  0  0  0  0  0  0  0  0  0  0  0
   33.2440   30.8990   35.8260 C   0  0  0  0  0  0  0  0  0  0  0  0
   33.9590   31.7690   36.5750 N   0  0  0  0  0  0  0  0  0  0  0  0
   35.9430   32.4470   37.0080 H   0  0  0  0  0  0  0  0  0  0  0  0
   37.0170   30.9160   35.4580 H   0  0  0  0  0  0  0  0  0  0  0  0
   32.1530   30.9400   35.9860 H   0  0  0  0  0  0  0  0  0  0  0  0
   37.1840   27.2100   33.3400 C   0  0  0  0  0  0  0  0  0  0  0  0
   36.4810   26.5610   32.8230 H   0  0  0  0  0  0  0  0  0  0  0  0
   37.7190   27.8980   32.6250 H   0  0  0  0  0  0  0  0  0  0  0  0
   38.3770   26.1700   34.2260 S   0  0  0  0  0  0  0  0  0  0  0  0
   37.8310   25.8130   35.9130 C   0  0  0  0  0  2  0  0  0  0  0  0
   38.1120   24.4370   36.2860 N   0  0  0  0  0  4  0  0  0  0  0  0
   37.4320   23.7690   35.8620 H   0  0  0  0  0  0  0  0  0  0  0  0
   37.9880   24.2610   37.7230 C   0  0  0  0  0  2  0  0  0  0  0  0
   38.0230   23.1560   37.9280 H   0  0  0  0  0  0  0  0  0  0  0  0
   39.4320   24.0230   35.8520 C   0  0  0  0  0  2  0  0  0  0  0  0
   39.8040   23.1920   36.5160 H   0  0  0  0  0  0  0  0  0  0  0  0
  1  2  2  0  0  0  0
  1  5  1  0  0  0  0
  3  8  1  0  0  0  0
  3  9  1  0  0  0  0
  4  3  2  0  0  0  0
  5  6  2  0  0  0  0
  5  4  1  0  0  0  0
  6  7  1  0  0  0  0
  7 11  1  0  0  0  0
  7  8  2  0  0  0  0
 10  4  1  0  0  0  0
 12 15  1  0  0  0  0
 12  2  1  0  0  0  0
 13 12  1  0  0  0  0
 14 12  1  0  0  0  0
 15 16  1  0  0  0  0
 16 17  1  0  0  0  0
 17 19  1  0  0  0  0
 18 17  1  0  0  0  0
 19 20  1  0  0  0  0
 21 17  1  0  0  0  0
 21 22  1  0  0  0  0
M  END
>  <minimizedAffinity>
-3.4281311

$$$$

 OpenBabel03272502303D

 22 22  0  0  0  0  0  0  0  0999 V2000
   35.4780   23.1330   31.8400 C   0  0  0  0  0  3  0  0  0  0  0  0
   36.0410   24.0200   31.0820 C   0  0  0  0  0  3  0  0  0  0  0  0
   36.8570   19.8660   30.7080 C   0  0  0  0  0  0  0  0  0  0  0  0
   36.7130   21.2430   30.8940 C   0  0  0  0  0  0  0  0  0  0  0  0
   35.6510   21.7200   31.6420 C   0  0  0  0  0  0  0  0  0  0  0  0
   34.7600   20.8480   32.1870 N   0  0  0  0  0  0  0  0  0  0  0  0
   34.9490   19.5190   31.9710 C   0  0  0  0  0  0  0  0  0  0  0  0
   35.9790   19.0270   31.2450 N   0  0  0  0  0  0  0  0  0  0  0  0
   37.7120   19.5810   30.1170 H   0  0  0  0  0  0  0  0  0  0  0  0
   37.4210   21.9670   30.4660 H   0  0  0  0  0  0  0  0  0  0  0  0
   34.2630   18.7540   32.3740 H   0  0  0  0  0  0  0  0  0  0  0  0
   35.8230   25.4800   31.3020 C   0  0  0  0  0  0  0  0  0  0  0  0
   35.6200   26.0440   30.3950 H   0  0  0  0  0  0  0  0  0  0  0  0
   34.9490   25.5070   32.0140 H   0  0  0  0  0  0  0  0  0  0  0  0
   37.3010   26.1770   32.0900 S   0  0  0  0  0  0  0  0  0  0  0  0
   37.3710   25.7790   33.8520 C   0  0  0  0  0  2  0  0  0  0  0  0
   37.0500   26.9330   34.6750 N   0  0  0  0  0  4  0  0  0  0  0  0
   36.2720   26.7350   35.3420 H   0  0  0  0  0  0  0  0  0  0  0  0
   36.5860   28.0360   33.8510 C   0  0  0  0  0  2  0  0  0  0  0  0
   36.1740   28.8200   34.5430 H   0  0  0  0  0  0  0  0  0  0  0  0
   38.1860   27.3570   35.4700 C   0  0  0  0  0  2  0  0  0  0  0  0
   38.0880   28.4530   35.7130 H   0  0  0  0  0  0  0  0  0  0  0  0
  2 12  1  0  0  0  0
  2  1  2  0  0  0  0
  3  4  2  0  0  0  0
  3  8  1  0  0  0  0
  4  5  1  0  0  0  0
  5  1  1  0  0  0  0
  5  6  2  0  0  0  0
  7  6  1  0  0  0  0
  7 11  1  0  0  0  0
  8  7  2  0  0  0  0
  9  3  1  0  0  0  0
 10  4  1  0  0  0  0
 12 14  1  0  0  0  0
 12 15  1  0  0  0  0
 13 12  1  0  0  0  0
 15 16  1  0  0  0  0
 16 17  1  0  0  0  0
 17 18  1  0  0  0  0
 17 21  1  0  0  0  0
 19 20  1  0  0  0  0
 19 17  1  0  0  0  0
 21 22  1  0  0  0  0
M  END
>  <minimizedAffinity>
-3.39536977

$$$$
