
 OpenBabel03272504203D

 25 25  0  0  0  0  0  0  0  0999 V2000
   37.4060   25.5190   34.6690 O   0  0  0  0  0  0  0  0  0  0  0  0
   38.5310   24.7190   34.8050 C   0  0  0  0  0  0  0  0  0  0  0  0
   39.4250   25.3260   34.5710 H   0  0  0  0  0  0  0  0  0  0  0  0
   38.5310   23.8450   34.1220 H   0  0  0  0  0  0  0  0  0  0  0  0
   38.6900   24.2040   36.1930 C   0  0  0  0  0  0  0  0  0  0  0  0
   39.7210   23.2900   36.4300 C   0  0  0  0  0  0  0  0  0  0  0  0
   39.8800   22.8000   37.7320 C   0  0  0  0  0  0  0  0  0  0  0  0
   39.0170   23.2450   38.6900 N   0  0  0  0  0  0  0  0  0  0  0  0
   38.0370   24.1260   38.4200 C   0  0  0  0  0  0  0  0  0  0  0  0
   37.8670   24.6080   37.1800 N   0  0  0  0  0  0  0  0  0  0  0  0
   40.4010   22.9470   35.6490 H   0  0  0  0  0  0  0  0  0  0  0  0
   40.6720   22.0980   37.9110 H   0  0  0  0  0  0  0  0  0  0  0  0
   37.3920   24.4290   39.2380 H   0  0  0  0  0  0  0  0  0  0  0  0
   39.2780   27.1780   33.8810 O   0  0  0  0  0  0  0  0  0  0  0  0
   37.9490   27.1240   34.6170 P   0  0  2  0  0  0  0  0  0  0  0  0
   38.2510   27.6880   36.1890 O   0  0  0  0  0  0  0  0  0  0  0  0
   38.8680   28.4660   36.1280 H   0  0  0  0  0  0  0  0  0  0  0  0
   36.8650   28.1070   33.7970 O   0  0  0  0  0  0  0  0  0  0  0  0
   36.5480   27.6780   32.5340 C   0  0  0  0  0  2  0  0  0  0  0  0
   35.5880   28.4820   31.8290 N   0  0  0  0  0  4  0  0  0  0  0  0
   35.0140   27.8260   31.2280 H   0  0  0  0  0  0  0  0  0  0  0  0
   34.6380   29.1140   32.7450 C   0  0  0  0  0  2  0  0  0  0  0  0
   35.1330   29.8490   33.3900 H   0  0  0  0  0  0  0  0  0  0  0  0
   36.1440   29.5030   30.9950 C   0  0  0  0  0  2  0  0  0  0  0  0
   37.1890   29.7530   31.2480 H   0  0  0  0  0  0  0  0  0  0  0  0
  1  2  1  0  0  0  0
  2  5  1  0  0  0  0
  3  2  1  0  0  0  0
  4  2  1  0  0  0  0
  5  6  2  0  0  0  0
  5 10  1  0  0  0  0
  6  7  1  0  0  0  0
  7 12  1  0  0  0  0
  7  8  2  0  0  0  0
  9  8  1  0  0  0  0
  9 13  1  0  0  0  0
 10  9  2  0  0  0  0
 11  6  1  0  0  0  0
 15 14  2  6  0  0  0
 15  1  1  0  0  0  0
 15 16  1  0  0  0  0
 17 16  1  0  0  0  0
 18 15  1  0  0  0  0
 19 18  1  0  0  0  0
 20 19  1  0  0  0  0
 20 22  1  0  0  0  0
 21 20  1  0  0  0  0
 22 23  1  0  0  0  0
 24 25  1  0  0  0  0
 24 20  1  0  0  0  0
M  END
>  <minimizedAffinity>
-3.89404106

$$$$

 OpenBabel03272504203D

 25 25  0  0  0  0  0  0  0  0999 V2000
   37.7010   25.4240   34.4420 O   0  0  0  0  0  0  0  0  0  0  0  0
   38.9130   24.8220   34.7440 C   0  0  0  0  0  0  0  0  0  0  0  0
   39.7090   25.5870   34.6900 H   0  0  0  0  0  0  0  0  0  0  0  0
   39.1830   24.0070   34.0420 H   0  0  0  0  0  0  0  0  0  0  0  0
   38.9310   24.2530   36.1200 C   0  0  0  0  0  0  0  0  0  0  0  0
   37.9840   24.7310   37.0300 C   0  0  0  0  0  0  0  0  0  0  0  0
   37.9910   24.2020   38.3270 C   0  0  0  0  0  0  0  0  0  0  0  0
   38.9260   23.2530   38.6220 N   0  0  0  0  0  0  0  0  0  0  0  0
   39.8210   22.8210   37.7160 C   0  0  0  0  0  0  0  0  0  0  0  0
   39.8310   23.3130   36.4680 N   0  0  0  0  0  0  0  0  0  0  0  0
   37.2450   25.4910   36.7740 H   0  0  0  0  0  0  0  0  0  0  0  0
   37.2640   24.5710   39.0230 H   0  0  0  0  0  0  0  0  0  0  0  0
   40.5320   22.0630   38.0310 H   0  0  0  0  0  0  0  0  0  0  0  0
   39.4200   27.2750   33.7390 O   0  0  0  0  0  0  0  0  0  0  0  0
   38.0410   26.7230   33.4090 P   0  0  2  0  0  0  0  0  0  0  0  0
   36.9440   27.9890   33.6830 O   0  0  0  0  0  0  0  0  0  0  0  0
   37.3480   28.8310   33.3400 H   0  0  0  0  0  0  0  0  0  0  0  0
   38.0510   26.2390   31.8030 O   0  0  0  0  0  0  0  0  0  0  0  0
   36.9030   26.5290   31.1130 C   0  0  0  0  0  2  0  0  0  0  0  0
   36.2330   25.4030   30.5240 N   0  0  0  0  0  4  0  0  0  0  0  0
   36.2770   25.5280   29.4730 H   0  0  0  0  0  0  0  0  0  0  0  0
   36.9370   24.1500   30.8030 C   0  0  0  0  0  2  0  0  0  0  0  0
   36.9110   23.9080   31.8710 H   0  0  0  0  0  0  0  0  0  0  0  0
   34.8650   25.2370   30.9100 C   0  0  0  0  0  2  0  0  0  0  0  0
   34.6040   25.7780   31.8350 H   0  0  0  0  0  0  0  0  0  0  0  0
  1  2  1  0  0  0  0
  2  5  1  0  0  0  0
  3  2  1  0  0  0  0
  4  2  1  0  0  0  0
  5 10  2  0  0  0  0
  5  6  1  0  0  0  0
  6  7  2  0  0  0  0
  7  8  1  0  0  0  0
  7 12  1  0  0  0  0
  9 13  1  0  0  0  0
  9  8  2  0  0  0  0
 10  9  1  0  0  0  0
 11  6  1  0  0  0  0
 15 16  1  0  0  0  0
 15 14  2  1  0  0  0
 15  1  1  0  0  0  0
 17 16  1  0  0  0  0
 18 15  1  0  0  0  0
 19 18  1  0  0  0  0
 20 22  1  0  0  0  0
 20 24  1  0  0  0  0
 20 19  1  0  0  0  0
 21 20  1  0  0  0  0
 22 23  1  0  0  0  0
 24 25  1  0  0  0  0
M  END
>  <minimizedAffinity>
-3.8548255

$$$$

 OpenBabel03272504203D

 25 25  0  0  0  0  0  0  0  0999 V2000
   35.1010   21.9110   32.3880 O   0  0  0  0  0  0  0  0  0  0  0  0
   35.7160   22.1970   31.1780 C   0  0  0  0  0  0  0  0  0  0  0  0
   34.9770   22.0630   30.3670 H   0  0  0  0  0  0  0  0  0  0  0  0
   36.5790   21.5370   30.9590 H   0  0  0  0  0  0  0  0  0  0  0  0
   36.1990   23.6050   31.1130 C   0  0  0  0  0  0  0  0  0  0  0  0
   35.2490   24.6210   31.2370 C   0  0  0  0  0  0  0  0  0  0  0  0
   35.6930   25.9480   31.1790 C   0  0  0  0  0  0  0  0  0  0  0  0
   37.0280   26.1660   31.0020 N   0  0  0  0  0  0  0  0  0  0  0  0
   37.9100   25.1570   30.8860 C   0  0  0  0  0  0  0  0  0  0  0  0
   37.5070   23.8800   30.9400 N   0  0  0  0  0  0  0  0  0  0  0  0
   34.1850   24.4260   31.3780 H   0  0  0  0  0  0  0  0  0  0  0  0
   34.9610   26.7270   31.2740 H   0  0  0  0  0  0  0  0  0  0  0  0
   38.9560   25.4150   30.7470 H   0  0  0  0  0  0  0  0  0  0  0  0
   36.9390   20.0410   32.4380 O   0  0  0  0  0  0  0  0  0  0  0  0
   36.2280   21.0550   33.3200 P   0  0  2  0  0  0  0  0  0  0  0  0
   35.4320   20.1630   34.5240 O   0  0  0  0  0  0  0  0  0  0  0  0
   36.0370   19.4320   34.8230 H   0  0  0  0  0  0  0  0  0  0  0  0
   37.3890   22.0810   33.9660 O   0  0  0  0  0  0  0  0  0  0  0  0
   37.5590   21.9690   35.3210 C   0  0  0  0  0  2  0  0  0  0  0  0
   38.2010   23.0840   35.9600 N   0  0  0  0  0  4  0  0  0  0  0  0
   39.1970   22.7940   36.1670 H   0  0  0  0  0  0  0  0  0  0  0  0
   38.3030   24.2350   35.0600 C   0  0  0  0  0  2  0  0  0  0  0  0
   37.3150   24.6390   34.8160 H   0  0  0  0  0  0  0  0  0  0  0  0
   37.5870   23.5260   37.1750 C   0  0  0  0  0  2  0  0  0  0  0  0
   36.5450   23.1830   37.2880 H   0  0  0  0  0  0  0  0  0  0  0  0
  1 15  1  0  0  0  0
  2  1  1  0  0  0  0
  3  2  1  0  0  0  0
  4  2  1  0  0  0  0
  5  2  1  0  0  0  0
  5  6  1  0  0  0  0
  6 11  1  0  0  0  0
  7  6  2  0  0  0  0
  7 12  1  0  0  0  0
  8  7  1  0  0  0  0
  9 10  1  0  0  0  0
  9  8  2  0  0  0  0
 10  5  2  0  0  0  0
 13  9  1  0  0  0  0
 15 14  2  6  0  0  0
 15 18  1  0  0  0  0
 15 16  1  0  0  0  0
 16 17  1  0  0  0  0
 18 19  1  0  0  0  0
 19 20  1  0  0  0  0
 20 21  1  0  0  0  0
 20 24  1  0  0  0  0
 22 20  1  0  0  0  0
 23 22  1  0  0  0  0
 24 25  1  0  0  0  0
M  END
>  <minimizedAffinity>
-3.81708908

$$$$

 OpenBabel03272504203D

 25 25  0  0  0  0  0  0  0  0999 V2000
   37.5690   26.3150   34.2110 O   0  0  0  0  0  0  0  0  0  0  0  0
   38.1870   25.6930   33.1360 C   0  0  0  0  0  0  0  0  0  0  0  0
   39.0300   25.0870   33.5170 H   0  0  0  0  0  0  0  0  0  0  0  0
   38.5950   26.4070   32.3930 H   0  0  0  0  0  0  0  0  0  0  0  0
   37.2650   24.7720   32.4140 C   0  0  0  0  0  0  0  0  0  0  0  0
   37.5950   23.4140   32.3910 C   0  0  0  0  0  0  0  0  0  0  0  0
   36.7350   22.5390   31.7150 C   0  0  0  0  0  0  0  0  0  0  0  0
   35.6270   23.0680   31.1200 N   0  0  0  0  0  0  0  0  0  0  0  0
   35.3470   24.3830   31.1660 C   0  0  0  0  0  0  0  0  0  0  0  0
   36.1560   25.2380   31.8070 N   0  0  0  0  0  0  0  0  0  0  0  0
   38.4860   23.0110   32.8740 H   0  0  0  0  0  0  0  0  0  0  0  0
   36.9900   21.4970   31.6980 H   0  0  0  0  0  0  0  0  0  0  0  0
   34.4450   24.7240   30.6660 H   0  0  0  0  0  0  0  0  0  0  0  0
   38.4390   27.0060   36.5860 O   0  0  0  0  0  0  0  0  0  0  0  0
   38.4160   25.8470   35.6020 P   0  0  2  0  0  0  0  0  0  0  0  0
   40.0350   25.5190   35.2160 O   0  0  0  0  0  0  0  0  0  0  0  0
   40.5750   25.5830   36.0500 H   0  0  0  0  0  0  0  0  0  0  0  0
   37.6760   24.5440   36.3570 O   0  0  0  0  0  0  0  0  0  0  0  0
   38.3220   23.3470   36.1920 C   0  0  0  0  0  2  0  0  0  0  0  0
   38.8150   22.7370   37.3960 N   0  0  0  0  0  4  0  0  0  0  0  0
   38.3780   21.7750   37.4600 H   0  0  0  0  0  0  0  0  0  0  0  0
   40.2610   22.5120   37.3340 C   0  0  0  0  0  2  0  0  0  0  0  0
   40.8100   23.4590   37.3060 H   0  0  0  0  0  0  0  0  0  0  0  0
   38.5310   23.4530   38.6020 C   0  0  0  0  0  2  0  0  0  0  0  0
   38.2700   24.5110   38.4310 H   0  0  0  0  0  0  0  0  0  0  0  0
  1 15  1  0  0  0  0
  2  3  1  0  0  0  0
  2  1  1  0  0  0  0
  4  2  1  0  0  0  0
  5  2  1  0  0  0  0
  6  5  1  0  0  0  0
  6 11  1  0  0  0  0
  7  6  2  0  0  0  0
  8  9  2  0  0  0  0
  8  7  1  0  0  0  0
  9 10  1  0  0  0  0
 10  5  2  0  0  0  0
 12  7  1  0  0  0  0
 13  9  1  0  0  0  0
 15 18  1  0  0  0  0
 15 14  2  1  0  0  0
 16 15  1  0  0  0  0
 16 17  1  0  0  0  0
 19 18  1  0  0  0  0
 19 20  1  0  0  0  0
 20 21  1  0  0  0  0
 20 24  1  0  0  0  0
 22 20  1  0  0  0  0
 23 22  1  0  0  0  0
 25 24  1  0  0  0  0
M  END
>  <minimizedAffinity>
-3.79837847

$$$$

 OpenBabel03272504203D

 25 25  0  0  0  0  0  0  0  0999 V2000
   38.1130   21.9510   35.7510 O   0  0  0  0  0  0  0  0  0  0  0  0
   38.6740   22.1010   34.4910 C   0  0  0  0  0  0  0  0  0  0  0  0
   39.0400   21.1160   34.1490 H   0  0  0  0  0  0  0  0  0  0  0  0
   39.5320   22.8020   34.4760 H   0  0  0  0  0  0  0  0  0  0  0  0
   37.6830   22.5830   33.4880 C   0  0  0  0  0  0  0  0  0  0  0  0
   36.7260   21.6710   33.0360 C   0  0  0  0  0  0  0  0  0  0  0  0
   35.7890   22.1130   32.0930 C   0  0  0  0  0  0  0  0  0  0  0  0
   35.8710   23.4090   31.6740 N   0  0  0  0  0  0  0  0  0  0  0  0
   36.8100   24.2550   32.1350 C   0  0  0  0  0  0  0  0  0  0  0  0
   37.7160   23.8520   33.0380 N   0  0  0  0  0  0  0  0  0  0  0  0
   36.6770   20.6380   33.3840 H   0  0  0  0  0  0  0  0  0  0  0  0
   35.0550   21.4110   31.7470 H   0  0  0  0  0  0  0  0  0  0  0  0
   36.8070   25.2700   31.7500 H   0  0  0  0  0  0  0  0  0  0  0  0
   40.0340   23.6980   36.1180 O   0  0  0  0  0  0  0  0  0  0  0  0
   38.7240   23.2050   36.7130 P   0  0  2  0  0  0  0  0  0  0  0  0
   39.0960   22.6220   38.2630 O   0  0  0  0  0  0  0  0  0  0  0  0
   39.7450   23.2470   38.6840 H   0  0  0  0  0  0  0  0  0  0  0  0
   37.6630   24.5030   36.7700 O   0  0  0  0  0  0  0  0  0  0  0  0
   38.2390   25.7220   36.5210 C   0  0  0  0  0  2  0  0  0  0  0  0
   38.2420   26.1360   35.1450 N   0  0  0  0  0  4  0  0  0  0  0  0
   38.1690   25.2600   34.5550 H   0  0  0  0  0  0  0  0  0  0  0  0
   37.0560   26.9320   34.8190 C   0  0  0  0  0  2  0  0  0  0  0  0
   37.0580   27.8870   35.3540 H   0  0  0  0  0  0  0  0  0  0  0  0
   39.3960   26.8740   34.7330 C   0  0  0  0  0  2  0  0  0  0  0  0
   39.9630   27.3040   35.5760 H   0  0  0  0  0  0  0  0  0  0  0  0
  1 15  1  0  0  0  0
  2  1  1  0  0  0  0
  3  2  1  0  0  0  0
  4  2  1  0  0  0  0
  5  2  1  0  0  0  0
  6 11  1  0  0  0  0
  6  5  2  0  0  0  0
  7  6  1  0  0  0  0
  8  7  2  0  0  0  0
  8  9  1  0  0  0  0
  9 10  2  0  0  0  0
 10  5  1  0  0  0  0
 12  7  1  0  0  0  0
 13  9  1  0  0  0  0
 15 14  2  6  0  0  0
 15 18  1  0  0  0  0
 15 16  1  0  0  0  0
 16 17  1  0  0  0  0
 19 18  1  0  0  0  0
 20 19  1  0  0  0  0
 21 20  1  0  0  0  0
 22 20  1  0  0  0  0
 22 23  1  0  0  0  0
 24 20  1  0  0  0  0
 24 25  1  0  0  0  0
M  END
>  <minimizedAffinity>
-3.71170592

$$$$

 OpenBabel03272504203D

 25 25  0  0  0  0  0  0  0  0999 V2000
   37.5710   22.7320   33.6320 O   0  0  0  0  0  0  0  0  0  0  0  0
   37.4230   21.8630   34.7030 C   0  0  0  0  0  0  0  0  0  0  0  0
   37.8260   20.8750   34.4130 H   0  0  0  0  0  0  0  0  0  0  0  0
   36.3660   21.7190   35.0060 H   0  0  0  0  0  0  0  0  0  0  0  0
   38.1760   22.3170   35.9050 C   0  0  0  0  0  0  0  0  0  0  0  0
   37.4680   23.0200   36.8830 C   0  0  0  0  0  0  0  0  0  0  0  0
   38.1660   23.4520   38.0180 C   0  0  0  0  0  0  0  0  0  0  0  0
   39.4970   23.1600   38.0970 N   0  0  0  0  0  0  0  0  0  0  0  0
   40.1410   22.4810   37.1310 C   0  0  0  0  0  0  0  0  0  0  0  0
   39.4910   22.0580   36.0360 N   0  0  0  0  0  0  0  0  0  0  0  0
   36.4040   23.2430   36.8020 H   0  0  0  0  0  0  0  0  0  0  0  0
   37.6210   23.9910   38.7680 H   0  0  0  0  0  0  0  0  0  0  0  0
   41.2000   22.2890   37.2690 H   0  0  0  0  0  0  0  0  0  0  0  0
   35.3950   21.8870   32.4380 O   0  0  0  0  0  0  0  0  0  0  0  0
   36.9060   21.9610   32.2780 P   0  0  2  0  0  0  0  0  0  0  0  0
   37.4540   20.3570   32.1920 O   0  0  0  0  0  0  0  0  0  0  0  0
   36.8180   19.8400   31.6280 H   0  0  0  0  0  0  0  0  0  0  0  0
   37.2340   22.8110   30.8690 O   0  0  0  0  0  0  0  0  0  0  0  0
   37.3270   24.1690   31.0310 C   0  0  0  0  0  2  0  0  0  0  0  0
   36.2450   24.7830   31.7510 N   0  0  0  0  0  4  0  0  0  0  0  0
   35.9360   24.0960   32.4950 H   0  0  0  0  0  0  0  0  0  0  0  0
   36.6880   25.9760   32.4750 C   0  0  0  0  0  2  0  0  0  0  0  0
   36.9940   26.7700   31.7850 H   0  0  0  0  0  0  0  0  0  0  0  0
   35.1110   25.1430   30.9570 C   0  0  0  0  0  2  0  0  0  0  0  0
   35.3360   25.2070   29.8790 H   0  0  0  0  0  0  0  0  0  0  0  0
  1  2  1  0  0  0  0
  2  4  1  0  0  0  0
  2  5  1  0  0  0  0
  3  2  1  0  0  0  0
  5 10  2  0  0  0  0
  5  6  1  0  0  0  0
  6  7  2  0  0  0  0
  7  8  1  0  0  0  0
  7 12  1  0  0  0  0
  9 13  1  0  0  0  0
  9  8  2  0  0  0  0
 10  9  1  0  0  0  0
 11  6  1  0  0  0  0
 15 14  2  1  0  0  0
 15  1  1  0  0  0  0
 16 15  1  0  0  0  0
 17 16  1  0  0  0  0
 18 19  1  0  0  0  0
 18 15  1  0  0  0  0
 19 20  1  0  0  0  0
 20 22  1  0  0  0  0
 20 21  1  0  0  0  0
 23 22  1  0  0  0  0
 24 20  1  0  0  0  0
 25 24  1  0  0  0  0
M  END
>  <minimizedAffinity>
-3.66565418

$$$$

 OpenBabel03272504203D

 25 25  0  0  0  0  0  0  0  0999 V2000
   36.9170   25.4070   32.7700 O   0  0  0  0  0  0  0  0  0  0  0  0
   38.1270   24.8000   33.0710 C   0  0  0  0  0  0  0  0  0  0  0  0
   38.9260   25.5620   33.0180 H   0  0  0  0  0  0  0  0  0  0  0  0
   38.3940   23.9850   32.3690 H   0  0  0  0  0  0  0  0  0  0  0  0
   38.1430   24.2310   34.4470 C   0  0  0  0  0  0  0  0  0  0  0  0
   37.9980   25.1190   35.5160 C   0  0  0  0  0  0  0  0  0  0  0  0
   38.0110   24.5940   36.8150 C   0  0  0  0  0  0  0  0  0  0  0  0
   38.1670   23.2450   36.9550 N   0  0  0  0  0  0  0  0  0  0  0  0
   38.3040   22.4250   35.8980 C   0  0  0  0  0  0  0  0  0  0  0  0
   38.2940   22.9070   34.6460 N   0  0  0  0  0  0  0  0  0  0  0  0
   37.8750   26.1940   35.3830 H   0  0  0  0  0  0  0  0  0  0  0  0
   37.9000   25.2780   37.6340 H   0  0  0  0  0  0  0  0  0  0  0  0
   38.4240   21.3640   36.0950 H   0  0  0  0  0  0  0  0  0  0  0  0
   37.5000   24.0500   30.6030 O   0  0  0  0  0  0  0  0  0  0  0  0
   36.3350   24.6670   31.3610 P   0  0  2  0  0  0  0  0  0  0  0  0
   35.6590   25.8320   30.3280 O   0  0  0  0  0  0  0  0  0  0  0  0
   35.6410   25.4580   29.4050 H   0  0  0  0  0  0  0  0  0  0  0  0
   35.2460   23.4420   31.7200 O   0  0  0  0  0  0  0  0  0  0  0  0
   35.6890   22.1800   31.4210 C   0  0  0  0  0  2  0  0  0  0  0  0
   36.4960   21.5510   32.4310 N   0  0  0  0  0  4  0  0  0  0  0  0
   36.9560   22.3240   32.9890 H   0  0  0  0  0  0  0  0  0  0  0  0
   35.6770   20.8050   33.3880 C   0  0  0  0  0  2  0  0  0  0  0  0
   35.1860   19.9500   32.9120 H   0  0  0  0  0  0  0  0  0  0  0  0
   37.5120   20.6710   31.9390 C   0  0  0  0  0  2  0  0  0  0  0  0
   37.3370   20.3400   30.9010 H   0  0  0  0  0  0  0  0  0  0  0  0
  1  2  1  0  0  0  0
  2  5  1  0  0  0  0
  3  2  1  0  0  0  0
  4  2  1  0  0  0  0
  5 10  2  0  0  0  0
  5  6  1  0  0  0  0
  6  7  2  0  0  0  0
  7  8  1  0  0  0  0
  7 12  1  0  0  0  0
  9 13  1  0  0  0  0
  9  8  2  0  0  0  0
 10  9  1  0  0  0  0
 11  6  1  0  0  0  0
 15 14  2  6  0  0  0
 15 18  1  0  0  0  0
 15  1  1  0  0  0  0
 16 15  1  0  0  0  0
 17 16  1  0  0  0  0
 19 18  1  0  0  0  0
 19 20  1  0  0  0  0
 20 21  1  0  0  0  0
 20 22  1  0  0  0  0
 23 22  1  0  0  0  0
 24 20  1  0  0  0  0
 25 24  1  0  0  0  0
M  END
>  <minimizedAffinity>
-3.64052844

$$$$

 OpenBabel03272504203D

 25 25  0  0  0  0  0  0  0  0999 V2000
   38.6280   25.1230   35.9720 O   0  0  0  0  0  0  0  0  0  0  0  0
   39.0010   24.1390   35.0690 C   0  0  0  0  0  0  0  0  0  0  0  0
   39.4570   24.6240   34.1870 H   0  0  0  0  0  0  0  0  0  0  0  0
   38.1480   23.5270   34.7120 H   0  0  0  0  0  0  0  0  0  0  0  0
   40.0140   23.2080   35.6400 C   0  0  0  0  0  0  0  0  0  0  0  0
   39.8790   22.8510   36.9850 C   0  0  0  0  0  0  0  0  0  0  0  0
   40.8250   21.9760   37.5320 C   0  0  0  0  0  0  0  0  0  0  0  0
   41.8230   21.5250   36.7160 N   0  0  0  0  0  0  0  0  0  0  0  0
   41.9160   21.8940   35.4260 C   0  0  0  0  0  0  0  0  0  0  0  0
   41.0200   22.7310   34.8820 N   0  0  0  0  0  0  0  0  0  0  0  0
   39.0740   23.2230   37.6200 H   0  0  0  0  0  0  0  0  0  0  0  0
   40.7200   21.7040   38.5640 H   0  0  0  0  0  0  0  0  0  0  0  0
   42.7400   21.4910   34.8450 H   0  0  0  0  0  0  0  0  0  0  0  0
   40.4040   26.7320   34.9070 O   0  0  0  0  0  0  0  0  0  0  0  0
   38.9210   26.6140   35.2210 P   0  0  2  0  0  0  0  0  0  0  0  0
   38.5580   27.8840   36.2860 O   0  0  0  0  0  0  0  0  0  0  0  0
   39.0400   28.6980   35.9780 H   0  0  0  0  0  0  0  0  0  0  0  0
   38.0760   26.7470   33.7780 O   0  0  0  0  0  0  0  0  0  0  0  0
   36.9290   27.4930   33.8540 C   0  0  0  0  0  2  0  0  0  0  0  0
   36.4880   28.0800   32.6190 N   0  0  0  0  0  4  0  0  0  0  0  0
   37.3180   28.5840   32.1990 H   0  0  0  0  0  0  0  0  0  0  0  0
   36.1100   27.0570   31.6420 C   0  0  0  0  0  2  0  0  0  0  0  0
   35.2250   26.5000   31.9690 H   0  0  0  0  0  0  0  0  0  0  0  0
   35.4000   29.0010   32.7360 C   0  0  0  0  0  2  0  0  0  0  0  0
   34.8390   28.8970   33.6810 H   0  0  0  0  0  0  0  0  0  0  0  0
  2  5  1  0  0  0  0
  2  1  1  0  0  0  0
  3  2  1  0  0  0  0
  4  2  1  0  0  0  0
  5  6  1  0  0  0  0
  6  7  2  0  0  0  0
  6 11  1  0  0  0  0
  7 12  1  0  0  0  0
  8  7  1  0  0  0  0
  9  8  2  0  0  0  0
 10  9  1  0  0  0  0
 10  5  2  0  0  0  0
 13  9  1  0  0  0  0
 15 14  2  6  0  0  0
 15  1  1  0  0  0  0
 15 16  1  0  0  0  0
 17 16  1  0  0  0  0
 18 19  1  0  0  0  0
 18 15  1  0  0  0  0
 20 24  1  0  0  0  0
 20 19  1  0  0  0  0
 21 20  1  0  0  0  0
 22 23  1  0  0  0  0
 22 20  1  0  0  0  0
 24 25  1  0  0  0  0
M  END
>  <minimizedAffinity>
-3.62112665

$$$$

 OpenBabel03272504203D

 25 25  0  0  0  0  0  0  0  0999 V2000
   37.7310   25.3260   34.8560 O   0  0  0  0  0  0  0  0  0  0  0  0
   38.8800   24.6120   34.5480 C   0  0  0  0  0  0  0  0  0  0  0  0
   39.6530   25.3220   34.2000 H   0  0  0  0  0  0  0  0  0  0  0  0
   38.7270   23.8620   33.7460 H   0  0  0  0  0  0  0  0  0  0  0  0
   39.4300   23.8960   35.7320 C   0  0  0  0  0  0  0  0  0  0  0  0
   40.7460   23.4330   35.6540 C   0  0  0  0  0  0  0  0  0  0  0  0
   41.2750   22.7590   36.7620 C   0  0  0  0  0  0  0  0  0  0  0  0
   40.4690   22.5940   37.8510 N   0  0  0  0  0  0  0  0  0  0  0  0
   39.2060   23.0550   37.8850 C   0  0  0  0  0  0  0  0  0  0  0  0
   38.6810   23.7040   36.8350 N   0  0  0  0  0  0  0  0  0  0  0  0
   41.3750   23.5750   34.7730 H   0  0  0  0  0  0  0  0  0  0  0  0
   42.2850   22.4040   36.6990 H   0  0  0  0  0  0  0  0  0  0  0  0
   38.6310   22.8830   38.7890 H   0  0  0  0  0  0  0  0  0  0  0  0
   39.4820   27.1310   34.1130 O   0  0  0  0  0  0  0  0  0  0  0  0
   38.1520   26.9670   34.8310 P   0  0  2  0  0  0  0  0  0  0  0  0
   38.3940   27.5310   36.4140 O   0  0  0  0  0  0  0  0  0  0  0  0
   38.9510   28.3540   36.3710 H   0  0  0  0  0  0  0  0  0  0  0  0
   37.0070   27.8780   34.0100 O   0  0  0  0  0  0  0  0  0  0  0  0
   37.1530   27.8840   32.6480 C   0  0  0  0  0  2  0  0  0  0  0  0
   37.2280   26.5910   32.0270 N   0  0  0  0  0  4  0  0  0  0  0  0
   37.5060   25.9000   32.7790 H   0  0  0  0  0  0  0  0  0  0  0  0
   35.9180   26.1460   31.5460 C   0  0  0  0  0  2  0  0  0  0  0  0
   35.5570   26.7800   30.7290 H   0  0  0  0  0  0  0  0  0  0  0  0
   38.1540   26.4890   30.9410 C   0  0  0  0  0  2  0  0  0  0  0  0
   38.4400   27.4670   30.5170 H   0  0  0  0  0  0  0  0  0  0  0  0
  2  1  1  0  0  0  0
  2  5  1  0  0  0  0
  3  2  1  0  0  0  0
  4  2  1  0  0  0  0
  5 10  1  0  0  0  0
  6  5  2  0  0  0  0
  6  7  1  0  0  0  0
  7  8  2  0  0  0  0
  8  9  1  0  0  0  0
  9 13  1  0  0  0  0
 10  9  2  0  0  0  0
 11  6  1  0  0  0  0
 12  7  1  0  0  0  0
 15 14  2  6  0  0  0
 15  1  1  0  0  0  0
 15 16  1  0  0  0  0
 17 16  1  0  0  0  0
 18 15  1  0  0  0  0
 19 18  1  0  0  0  0
 20 19  1  0  0  0  0
 20 21  1  0  0  0  0
 22 20  1  0  0  0  0
 23 22  1  0  0  0  0
 24 20  1  0  0  0  0
 25 24  1  0  0  0  0
M  END
>  <minimizedAffinity>
-3.61164403

$$$$
