
 OpenBabel03272506423D

 30 31  0  0  1  0  0  0  0  0999 V2000
   32.2250   28.1770   47.6160 C   0  0  2  0  0  0  0  0  0  0  0  0
   33.5050   28.1740   48.4200 C   0  0  1  0  0  0  0  0  0  0  0  0
   34.0790   26.9340   48.2900 O   0  0  0  0  0  0  0  0  0  0  0  0
   33.4140   26.2200   47.3070 C   0  0  0  0  0  0  0  0  0  0  0  0
   32.6330   27.2390   46.4880 C   0  0  1  0  0  0  0  0  0  0  0  0
   31.4170   27.7470   48.2100 H   0  0  0  0  0  0  0  0  0  0  0  0
   33.3710   28.4270   49.4830 H   0  0  0  0  0  0  0  0  0  0  0  0
   34.1930   25.7130   46.7170 H   0  0  0  0  0  0  0  0  0  0  0  0
   32.7240   25.5310   47.8490 H   0  0  0  0  0  0  0  0  0  0  0  0
   33.3260   27.7500   45.8200 H   0  0  0  0  0  0  0  0  0  0  0  0
   31.9460   29.4550   47.1200 O   0  0  0  0  0  0  0  0  0  0  0  0
   32.4770   29.5370   46.2830 H   0  0  0  0  0  0  0  0  0  0  0  0
   34.6360   29.3760   47.6110 S   0  0  0  0  0  0  0  0  0  0  0  0
   37.2730   29.3060   50.5780 C   0  0  0  0  0  0  0  0  0  0  0  0
   37.7400   30.6150   50.6890 C   0  0  0  0  0  0  0  0  0  0  0  0
   37.2130   31.5720   49.7980 C   0  0  0  0  0  0  0  0  0  0  0  0
   36.2880   31.1650   48.8930 N   0  0  0  0  0  0  0  0  0  0  0  0
   35.8610   29.8880   48.8190 C   0  0  0  0  0  0  0  0  0  0  0  0
   36.3460   28.9390   49.6590 N   0  0  0  0  0  0  0  0  0  0  0  0
   37.6340   28.5170   51.2310 H   0  0  0  0  0  0  0  0  0  0  0  0
   38.4750   30.8810   51.4250 H   0  0  0  0  0  0  0  0  0  0  0  0
   37.5450   32.6010   49.8450 H   0  0  0  0  0  0  0  0  0  0  0  0
   31.5710   26.6690   45.8530 O   0  0  0  0  0  0  0  0  0  0  0  0
   31.3290   27.0030   44.5540 C   0  0  0  0  0  2  0  0  0  0  0  0
   32.4610   26.4690   43.7860 N   0  0  0  0  0  4  0  0  0  0  0  0
   33.3290   26.4900   44.3340 H   0  0  0  0  0  0  0  0  0  0  0  0
   32.2070   25.0540   43.4710 C   0  0  0  0  0  2  0  0  0  0  0  0
   32.1220   24.4250   44.3610 H   0  0  0  0  0  0  0  0  0  0  0  0
   32.5400   27.1550   42.5080 C   0  0  0  0  0  2  0  0  0  0  0  0
   33.1920   26.5840   41.8230 H   0  0  0  0  0  0  0  0  0  0  0  0
  1  6  1  1  0  0  0
  1  2  1  0  0  0  0
  2  7  1  1  0  0  0
  3  2  1  0  0  0  0
  4  9  1  0  0  0  0
  4  3  1  0  0  0  0
  5 10  1  6  0  0  0
  5  4  1  0  0  0  0
  5  1  1  0  0  0  0
  8  4  1  0  0  0  0
 11  1  1  0  0  0  0
 12 11  1  0  0  0  0
 13  2  1  0  0  0  0
 13 18  1  0  0  0  0
 14 15  1  0  0  0  0
 14 20  1  0  0  0  0
 15 21  1  0  0  0  0
 16 22  1  0  0  0  0
 16 15  2  0  0  0  0
 17 16  1  0  0  0  0
 18 17  2  0  0  0  0
 18 19  1  0  0  0  0
 19 14  2  0  0  0  0
 23  5  1  0  0  0  0
 24 23  1  0  0  0  0
 25 26  1  0  0  0  0
 25 24  1  0  0  0  0
 27 25  1  0  0  0  0
 27 28  1  0  0  0  0
 29 25  1  0  0  0  0
 30 29  1  0  0  0  0
M  END
>  <minimizedAffinity>
-3.47779918

>  <minimizedRMSD>
0.708803713

$$$$
