
 OpenBabel03272506423D

 30 31  0  0  1  0  0  0  0  0999 V2000
   32.2210   28.1680   47.5590 C   0  0  2  0  0  0  0  0  0  0  0  0
   33.4920   28.1400   48.3770 C   0  0  1  0  0  0  0  0  0  0  0  0
   34.0730   26.9070   48.2080 O   0  0  0  0  0  0  0  0  0  0  0  0
   33.4210   26.2280   47.1920 C   0  0  0  0  0  0  0  0  0  0  0  0
   32.6450   27.2740   46.4020 C   0  0  1  0  0  0  0  0  0  0  0  0
   31.4090   27.7130   48.1280 H   0  0  0  0  0  0  0  0  0  0  0  0
   33.3460   28.3540   49.4470 H   0  0  0  0  0  0  0  0  0  0  0  0
   34.2100   25.7450   46.5930 H   0  0  0  0  0  0  0  0  0  0  0  0
   32.7280   25.5170   47.7010 H   0  0  0  0  0  0  0  0  0  0  0  0
   33.3440   27.8110   45.7620 H   0  0  0  0  0  0  0  0  0  0  0  0
   31.9430   29.4620   47.1080 O   0  0  0  0  0  0  0  0  0  0  0  0
   32.4830   29.5770   46.2800 H   0  0  0  0  0  0  0  0  0  0  0  0
   34.6280   29.3750   47.6260 S   0  0  0  0  0  0  0  0  0  0  0  0
   37.2060   29.2650   50.6420 C   0  0  0  0  0  0  0  0  0  0  0  0
   37.6360   30.5810   50.8090 C   0  0  0  0  0  0  0  0  0  0  0  0
   37.1010   31.5560   49.9440 C   0  0  0  0  0  0  0  0  0  0  0  0
   36.2050   31.1590   49.0050 N   0  0  0  0  0  0  0  0  0  0  0  0
   35.8150   29.8740   48.8760 C   0  0  0  0  0  0  0  0  0  0  0  0
   36.3080   28.9080   49.6910 N   0  0  0  0  0  0  0  0  0  0  0  0
   37.5760   28.4620   51.2730 H   0  0  0  0  0  0  0  0  0  0  0  0
   38.3480   30.8400   51.5700 H   0  0  0  0  0  0  0  0  0  0  0  0
   37.4050   32.5910   50.0350 H   0  0  0  0  0  0  0  0  0  0  0  0
   31.5930   26.7240   45.7350 O   0  0  0  0  0  0  0  0  0  0  0  0
   30.6200   26.0950   46.4520 C   0  0  0  0  0  2  0  0  0  0  0  0
   30.0600   25.0740   45.5570 N   0  0  0  0  0  4  0  0  0  0  0  0
   30.2780   25.2760   44.5740 H   0  0  0  0  0  0  0  0  0  0  0  0
   30.6830   23.7740   45.8580 C   0  0  0  0  0  2  0  0  0  0  0  0
   31.7630   23.7670   45.6870 H   0  0  0  0  0  0  0  0  0  0  0  0
   28.6450   24.9120   45.8390 C   0  0  0  0  0  2  0  0  0  0  0  0
   28.2820   23.9730   45.3840 H   0  0  0  0  0  0  0  0  0  0  0  0
  1  6  1  1  0  0  0
  1  2  1  0  0  0  0
  2  7  1  1  0  0  0
  3  2  1  0  0  0  0
  4  9  1  0  0  0  0
  4  3  1  0  0  0  0
  5 10  1  6  0  0  0
  5  4  1  0  0  0  0
  5  1  1  0  0  0  0
  8  4  1  0  0  0  0
 11  1  1  0  0  0  0
 12 11  1  0  0  0  0
 13  2  1  0  0  0  0
 13 18  1  0  0  0  0
 14 15  1  0  0  0  0
 14 20  1  0  0  0  0
 15 21  1  0  0  0  0
 16 22  1  0  0  0  0
 16 15  2  0  0  0  0
 17 16  1  0  0  0  0
 18 17  2  0  0  0  0
 18 19  1  0  0  0  0
 19 14  2  0  0  0  0
 23  5  1  0  0  0  0
 23 24  1  0  0  0  0
 25 29  1  0  0  0  0
 25 27  1  0  0  0  0
 25 24  1  0  0  0  0
 26 25  1  0  0  0  0
 28 27  1  0  0  0  0
 30 29  1  0  0  0  0
M  END
>  <minimizedAffinity>
-3.82100844

>  <minimizedRMSD>
2.14151621

$$$$
