REMARK  Name = 
REMARK  6 active torsions:
REMARK  status: ('A' for Active; 'I' for Inactive)
REMARK    1  A    between atoms: C_3  and  C_12
REMARK    2  A    between atoms: C_9  and  O_14
REMARK    3  A    between atoms: O_14  and  C_21
REMARK    4  A    between atoms: C_21  and  N_22
REMARK    5  A    between atoms: N_22  and  C_23
REMARK    6  A    between atoms: N_22  and  C_25
REMARK                            x       y       z     vdW  Elec       q    Type
REMARK                         _______ _______ _______ _____ _____    ______ ____
ROOT
ATOM      1  C   UNL     1      37.842  33.245  49.474  0.00  0.00    +0.000 A 
ATOM      2  C   UNL     1      38.887  33.276  48.503  0.00  0.00    +0.000 A 
ATOM      3  C   UNL     1      38.953  32.234  47.569  0.00  0.00    +0.000 A 
ATOM      4  N   UNL     1      38.011  31.253  47.649  0.00  0.00    +0.000 NA
ATOM      5  C   UNL     1      37.036  31.241  48.569  0.00  0.00    +0.000 A 
ATOM      6  N   UNL     1      36.956  32.245  49.485  0.00  0.00    +0.000 NA
ATOM      7  H   UNL     1      37.837  34.081  50.177  0.00  0.00    +0.000 HD
ATOM      8  H   UNL     1      39.726  32.248  46.843  0.00  0.00    +0.000 HD
ENDROOT
BRANCH   5  11
ATOM      9 BR   UNL     1      37.284  29.445  51.115  0.00  0.00    +0.000 Br
ATOM     10  C   UNL     1      36.000  29.315  49.718  0.00  0.00    +0.000 A 
ATOM     11  C   UNL     1      36.027  30.191  48.656  0.00  0.00    +0.000 A 
ATOM     12  C   UNL     1      35.058  30.043  47.664  0.00  0.00    +0.000 A 
ATOM     13  C   UNL     1      34.082  29.067  47.700  0.00  0.00    +0.000 A 
ATOM     14  C   UNL     1      34.101  28.205  48.799  0.00  0.00    +0.000 A 
ATOM     15  C   UNL     1      35.060  28.341  49.795  0.00  0.00    +0.000 A 
ATOM     16  H   UNL     1      35.037  30.707  46.809  0.00  0.00    +0.000 HD
ATOM     17  H   UNL     1      33.334  28.956  46.931  0.00  0.00    +0.000 HD
ATOM     18  H   UNL     1      33.377  27.407  48.919  0.00  0.00    +0.000 HD
ATOM     19  H   UNL     1      35.043  27.654  50.632  0.00  0.00    +0.000 HD
ENDBRANCH   5  11
BRANCH   2  20
ATOM     20  O   UNL     1      39.789  34.323  48.516  0.00  0.00    +0.000 OA
BRANCH  20  21
ATOM     21  C   UNL     1      40.814  34.314  47.530  0.00  0.00    +0.000 C 
BRANCH  21  22
ATOM     22  N   UNL     1      40.833  32.968  46.971  0.00  0.00    +0.000 N 
ATOM     23  H   UNL     1      41.734  32.728  46.507  0.00  0.00    +0.000 HD
BRANCH  22  24
ATOM     24  C   UNL     1      39.775  32.918  45.987  0.00  0.00    +0.000 C 
ATOM     25  H   UNL     1      39.109  33.802  46.002  0.00  0.00    +0.000 HD
ENDBRANCH  22  24
BRANCH  22  26
ATOM     26  C   UNL     1      40.598  31.962  47.996  0.00  0.00    +0.000 C 
ATOM     27  H   UNL     1      41.562  31.546  48.374  0.00  0.00    +0.000 HD
ENDBRANCH  22  26
ENDBRANCH  21  22
ENDBRANCH  20  21
ENDBRANCH   2  20
TORSDOF 6
