
     RDKit          3D

 28 28  0  0  0  0  0  0  0  0999 V2000
   37.2001   30.3001   51.2057 C   0  0  0  0  0  0  0  0  0  0  0  0
   37.7089   30.6697   49.9433 C   0  0  0  0  0  0  0  0  0  0  0  0
   37.1203   30.0710   48.8314 C   0  0  0  0  0  0  0  0  0  0  0  0
   36.1033   29.1757   48.9985 N   0  0  0  0  0  0  0  0  0  0  0  0
   35.6551   28.8581   50.2311 C   0  0  0  0  0  0  0  0  0  0  0  0
   36.2068   29.4236   51.3400 N   0  0  0  0  0  0  0  0  0  0  0  0
   38.7273   31.5727   49.8723 O   0  0  0  0  0  0  0  0  0  0  0  0
   37.3017   33.7020   49.5148 O   0  0  0  0  0  0  0  0  0  0  0  0
   38.6994   33.1335   49.2267 P   0  0  1  0  0  0  0  0  0  0  0  0
   39.8046   34.0629   50.1216 O   0  0  0  0  0  0  0  0  0  0  0  0
   38.9373   33.2218   47.5917 O   0  0  0  0  0  0  0  0  0  0  0  0
   37.5866   30.7062   52.1319 H   0  0  0  0  0  0  0  0  0  0  0  0
   37.4848   30.3303   47.8454 H   0  0  0  0  0  0  0  0  0  0  0  0
   34.8502   28.1504   50.3778 H   0  0  0  0  0  0  0  0  0  0  0  0
   39.3987   34.9008   50.4605 H   0  0  0  0  0  0  0  0  0  0  0  0
   40.0921   33.9367   47.2785 C   0  0  0  0  0  0  0  0  0  0  0  0
   40.0371   34.6262   46.0248 N   0  0  0  0  0  4  0  0  0  0  0  0
   39.6693   36.0202   46.2419 C   0  0  0  0  0  0  0  0  0  0  0  0
   39.6154   36.5110   45.2434 H   0  0  0  0  0  0  0  0  0  0  0  0
   41.3945   34.6795   45.4590 C   0  0  0  0  0  0  0  0  0  0  0  0
   41.8904   33.6994   45.5820 H   0  0  0  0  0  0  0  0  0  0  0  0
   40.9468   33.2062   47.2164 H   0  0  0  0  0  0  0  0  0  0  0  0
   40.2921   34.7028   48.0683 H   0  0  0  0  0  0  0  0  0  0  0  0
   39.3545   34.1910   45.3904 H   0  0  0  0  0  0  0  0  0  0  0  0
   38.7169   36.1532   46.7671 H   0  0  0  0  0  0  0  0  0  0  0  0
   40.5182   36.5188   46.7623 H   0  0  0  0  0  0  0  0  0  0  0  0
   41.9307   35.4394   46.0990 H   0  0  0  0  0  0  0  0  0  0  0  0
   41.3715   34.9976   44.4001 H   0  0  0  0  0  0  0  0  0  0  0  0
  1  6  2  0
  2  1  1  0
  3  4  1  0
  3  2  2  0
  4  5  2  0
  5  6  1  0
  7  2  1  0
  9  8  2  0
  9  7  1  1
  9 10  1  0
 11  9  1  0
  1 12  1  0
  3 13  1  0
  5 14  1  0
 10 15  1  0
 16 17  1  0
 17 18  1  0
 18 19  1  0
 17 20  1  0
 20 21  1  0
 16 22  1  0
 16 23  1  0
 17 24  1  0
 18 25  1  0
 18 26  1  0
 20 27  1  0
 20 28  1  0
 11 16  1  0
M  CHG  1  17   1
M  ISO  6  12  14  13  14  14  14  15   3  19   8  21   8
M  END
>  <DihAtoms>  (1) 
8,10,15,16

>  <DihDeg>  (1) 
60.00127359821085

$$$$
