
 OpenBabel03272506423D

 30 31  0  0  1  0  0  0  0  0999 V2000
   32.2390   28.1710   47.5630 C   0  0  2  0  0  0  0  0  0  0  0  0
   33.5130   28.1430   48.3760 C   0  0  1  0  0  0  0  0  0  0  0  0
   34.0980   26.9130   48.1970 O   0  0  0  0  0  0  0  0  0  0  0  0
   33.4450   26.2380   47.1790 C   0  0  0  0  0  0  0  0  0  0  0  0
   32.6630   27.2860   46.3980 C   0  0  1  0  0  0  0  0  0  0  0  0
   31.4300   27.7090   48.1310 H   0  0  0  0  0  0  0  0  0  0  0  0
   33.3700   28.3490   49.4470 H   0  0  0  0  0  0  0  0  0  0  0  0
   34.2330   25.7620   46.5740 H   0  0  0  0  0  0  0  0  0  0  0  0
   32.7570   25.5200   47.6850 H   0  0  0  0  0  0  0  0  0  0  0  0
   33.3570   27.8300   45.7590 H   0  0  0  0  0  0  0  0  0  0  0  0
   31.9550   29.4660   47.1200 O   0  0  0  0  0  0  0  0  0  0  0  0
   32.4910   29.5890   46.2920 H   0  0  0  0  0  0  0  0  0  0  0  0
   34.6420   29.3870   47.6280 S   0  0  0  0  0  0  0  0  0  0  0  0
   37.2220   29.2730   50.6430 C   0  0  0  0  0  0  0  0  0  0  0  0
   37.6520   30.5890   50.8110 C   0  0  0  0  0  0  0  0  0  0  0  0
   37.1160   31.5640   49.9470 C   0  0  0  0  0  0  0  0  0  0  0  0
   36.2200   31.1680   49.0090 N   0  0  0  0  0  0  0  0  0  0  0  0
   35.8290   29.8840   48.8780 C   0  0  0  0  0  0  0  0  0  0  0  0
   36.3230   28.9170   49.6920 N   0  0  0  0  0  0  0  0  0  0  0  0
   37.5920   28.4690   51.2730 H   0  0  0  0  0  0  0  0  0  0  0  0
   38.3650   30.8460   51.5720 H   0  0  0  0  0  0  0  0  0  0  0  0
   37.4200   32.5990   50.0390 H   0  0  0  0  0  0  0  0  0  0  0  0
   31.6100   26.7360   45.7310 O   0  0  0  0  0  0  0  0  0  0  0  0
   31.2570   27.2570   44.5230 C   0  0  0  0  0  2  0  0  0  0  0  0
   29.7930   27.1490   44.4540 N   0  0  0  0  0  4  0  0  0  0  0  0
   29.4640   26.2590   44.8460 H   0  0  0  0  0  0  0  0  0  0  0  0
   29.1910   28.2080   45.2800 C   0  0  0  0  0  2  0  0  0  0  0  0
   29.4510   28.1260   46.3390 H   0  0  0  0  0  0  0  0  0  0  0  0
   29.3570   27.4070   43.0940 C   0  0  0  0  0  2  0  0  0  0  0  0
   28.2690   27.6050   43.0870 H   0  0  0  0  0  0  0  0  0  0  0  0
  1  6  1  1  0  0  0
  1  2  1  0  0  0  0
  2  7  1  1  0  0  0
  3  2  1  0  0  0  0
  4  9  1  0  0  0  0
  4  3  1  0  0  0  0
  5 10  1  6  0  0  0
  5  4  1  0  0  0  0
  5  1  1  0  0  0  0
  8  4  1  0  0  0  0
 11  1  1  0  0  0  0
 12 11  1  0  0  0  0
 13  2  1  0  0  0  0
 13 18  1  0  0  0  0
 14 15  1  0  0  0  0
 14 20  1  0  0  0  0
 15 21  1  0  0  0  0
 16 22  1  0  0  0  0
 16 15  2  0  0  0  0
 17 16  1  0  0  0  0
 18 17  2  0  0  0  0
 18 19  1  0  0  0  0
 19 14  2  0  0  0  0
 23  5  1  0  0  0  0
 24 23  1  0  0  0  0
 25 24  1  0  0  0  0
 25 26  1  0  0  0  0
 25 27  1  0  0  0  0
 27 28  1  0  0  0  0
 29 25  1  0  0  0  0
 30 29  1  0  0  0  0
M  END
>  <minimizedAffinity>
-3.57022667

>  <minimizedRMSD>
0.50079155

$$$$
