
 OpenBabel03272506433D

 30 31  0  0  1  0  0  0  0  0999 V2000
   32.2440   28.1580   47.6830 C   0  0  2  0  0  0  0  0  0  0  0  0
   33.5410   28.1730   48.4580 C   0  0  1  0  0  0  0  0  0  0  0  0
   34.1140   26.9310   48.3430 O   0  0  0  0  0  0  0  0  0  0  0  0
   33.4280   26.1950   47.3910 C   0  0  0  0  0  0  0  0  0  0  0  0
   32.6280   27.1960   46.5660 C   0  0  1  0  0  0  0  0  0  0  0  0
   31.4490   27.7400   48.3030 H   0  0  0  0  0  0  0  0  0  0  0  0
   33.4300   28.4500   49.5180 H   0  0  0  0  0  0  0  0  0  0  0  0
   34.1950   25.6750   46.7950 H   0  0  0  0  0  0  0  0  0  0  0  0
   32.7510   25.5170   47.9620 H   0  0  0  0  0  0  0  0  0  0  0  0
   33.3060   27.6920   45.8730 H   0  0  0  0  0  0  0  0  0  0  0  0
   31.9530   29.4240   47.1650 O   0  0  0  0  0  0  0  0  0  0  0  0
   32.4650   29.4880   46.3150 H   0  0  0  0  0  0  0  0  0  0  0  0
   34.6530   29.3580   47.5990 S   0  0  0  0  0  0  0  0  0  0  0  0
   37.2700   29.3870   50.5840 C   0  0  0  0  0  0  0  0  0  0  0  0
   37.8160   30.6700   50.5850 C   0  0  0  0  0  0  0  0  0  0  0  0
   37.3510   31.5760   49.6100 C   0  0  0  0  0  0  0  0  0  0  0  0
   36.4060   31.1490   48.7360 N   0  0  0  0  0  0  0  0  0  0  0  0
   35.9030   29.8980   48.7680 C   0  0  0  0  0  0  0  0  0  0  0  0
   36.3260   28.9980   49.6920 N   0  0  0  0  0  0  0  0  0  0  0  0
   37.5810   28.6370   51.3050 H   0  0  0  0  0  0  0  0  0  0  0  0
   38.5630   30.9540   51.3010 H   0  0  0  0  0  0  0  0  0  0  0  0
   37.7460   32.5830   49.5710 H   0  0  0  0  0  0  0  0  0  0  0  0
   31.5540   26.6110   45.9670 O   0  0  0  0  0  0  0  0  0  0  0  0
   30.6920   25.8850   46.7330 C   0  0  0  0  0  0  0  0  0  0  0  0
   29.3460   26.3470   46.3690 N   0  0  0  0  0  0  0  0  0  0  0  0
   29.3720   26.9830   45.5640 H   0  0  0  0  0  0  0  0  0  0  0  0
   28.5360   25.1900   45.9540 C   0  0  0  0  0  0  0  0  0  0  0  0
   28.9330   24.6850   45.0680 H   0  0  0  0  0  0  0  0  0  0  0  0
   28.6910   26.8900   47.5460 C   0  0  0  0  0  0  0  0  0  0  0  0
   27.6050   26.9760   47.3570 H   0  0  0  0  0  0  0  0  0  0  0  0
  1  6  1  1  0  0  0
  1  2  1  0  0  0  0
  2  7  1  1  0  0  0
  3  2  1  0  0  0  0
  4  9  1  0  0  0  0
  4  3  1  0  0  0  0
  5 10  1  6  0  0  0
  5  4  1  0  0  0  0
  5  1  1  0  0  0  0
  8  4  1  0  0  0  0
 11  1  1  0  0  0  0
 12 11  1  0  0  0  0
 13  2  1  0  0  0  0
 13 18  1  0  0  0  0
 14 15  1  0  0  0  0
 14 20  1  0  0  0  0
 15 21  1  0  0  0  0
 16 15  2  0  0  0  0
 17 18  2  0  0  0  0
 17 16  1  0  0  0  0
 18 19  1  0  0  0  0
 19 14  2  0  0  0  0
 22 16  1  0  0  0  0
 23  5  1  0  0  0  0
 23 24  1  0  0  0  0
 25 24  1  0  0  0  0
 25 29  1  0  0  0  0
 26 25  1  0  0  0  0
 27 25  1  0  0  0  0
 28 27  1  0  0  0  0
 30 29  1  0  0  0  0
M  END
>  <minimizedAffinity>
-3.93205428

>  <minimizedRMSD>
2.03415132

$$$$
