
 OpenBabel03262520343D

 27 27  0  0  0  0  0  0  0  0999 V2000
   37.7050   22.7820   32.2880 C   0  0  0  0  0  0  0  0  0  0  0  0
   37.7390   21.6690   32.1010 H   0  0  0  0  0  0  0  0  0  0  0  0
   38.3900   23.2940   31.6160 H   0  0  0  0  0  0  0  0  0  0  0  0
   37.8030   22.1940   34.7090 C   0  0  0  0  0  3  0  0  0  0  0  0
   38.1150   22.9590   33.7060 C   0  0  0  0  0  3  0  0  0  0  0  0
   40.0250   22.6370   37.5870 C   0  0  0  0  0  0  0  0  0  0  0  0
   39.1850   23.2630   38.5100 C   0  0  0  0  0  0  0  0  0  0  0  0
   37.8550   23.5280   38.1300 C   0  0  0  0  0  0  0  0  0  0  0  0
   37.4710   23.1500   36.8680 N   0  0  0  0  0  0  0  0  0  0  0  0
   38.3160   22.5540   36.0230 C   0  0  0  0  0  0  0  0  0  0  0  0
   39.5710   22.3000   36.3740 N   0  0  0  0  0  0  0  0  0  0  0  0
   41.0260   22.4720   37.9610 H   0  0  0  0  0  0  0  0  0  0  0  0
   39.3900   23.5950   39.5100 H   0  0  0  0  0  0  0  0  0  0  0  0
   37.1000   24.0040   38.7360 H   0  0  0  0  0  0  0  0  0  0  0  0
   36.3560   23.1400   32.1230 O   0  0  0  0  0  0  0  0  0  0  0  0
   34.8560   24.8450   30.9630 O   0  0  0  0  0  0  0  0  0  0  0  0
   36.2940   24.7030   31.4700 P   0  0  2  0  0  0  0  0  0  0  0  0
   37.3950   24.7790   30.1810 O   0  0  0  0  0  0  0  0  0  0  0  0
   37.0550   24.2930   29.3990 H   0  0  0  0  0  0  0  0  0  0  0  0
   36.6440   25.8810   32.6220 O   0  0  0  0  0  0  0  0  0  0  0  0
   37.2940   26.9270   31.9890 C   0  0  0  0  0  2  0  0  0  0  0  0
   36.2640   27.6050   31.1870 N   0  0  0  0  0  4  0  0  0  0  0  0
   35.6980   26.8180   30.7820 H   0  0  0  0  0  0  0  0  0  0  0  0
   36.8760   28.3430   30.1010 C   0  0  0  0  0  2  0  0  0  0  0  0
   37.6260   27.6830   29.6260 H   0  0  0  0  0  0  0  0  0  0  0  0
   35.4600   28.4700   32.0300 C   0  0  0  0  0  2  0  0  0  0  0  0
   35.3760   29.4660   31.5040 H   0  0  0  0  0  0  0  0  0  0  0  0
  1  5  1  0  0  0  0
  2  1  1  0  0  0  0
  3  1  1  0  0  0  0
  4 10  1  0  0  0  0
  5  4  2  0  0  0  0
  6 12  1  0  0  0  0
  6  7  1  0  0  0  0
  7 13  1  0  0  0  0
  8  7  2  0  0  0  0
  8 14  1  0  0  0  0
  9  8  1  0  0  0  0
 10 11  1  0  0  0  0
 10  9  2  0  0  0  0
 11  6  2  0  0  0  0
 15  1  1  0  0  0  0
 17 16  2  6  0  0  0
 17 15  1  0  0  0  0
 17 20  1  0  0  0  0
 18 17  1  0  0  0  0
 19 18  1  0  0  0  0
 21 20  1  0  0  0  0
 22 21  1  0  0  0  0
 22 26  1  0  0  0  0
 23 22  1  0  0  0  0
 24 22  1  0  0  0  0
 25 24  1  0  0  0  0
 27 26  1  0  0  0  0
M  END
>  <minimizedAffinity>
-4.18086958

$$$$

 OpenBabel03262520343D

 27 27  0  0  0  0  0  0  0  0999 V2000
   37.9190   25.4370   32.7140 C   0  0  0  0  0  0  0  0  0  0  0  0
   38.1500   24.5290   32.0860 H   0  0  0  0  0  0  0  0  0  0  0  0
   38.5970   26.2490   32.4580 H   0  0  0  0  0  0  0  0  0  0  0  0
   38.8160   23.9960   34.5400 C   0  0  0  0  0  3  0  0  0  0  0  0
   38.1110   25.0050   34.1240 C   0  0  0  0  0  3  0  0  0  0  0  0
   39.8840   22.8280   37.8430 C   0  0  0  0  0  0  0  0  0  0  0  0
   38.8820   23.3390   38.6710 C   0  0  0  0  0  0  0  0  0  0  0  0
   37.8430   24.0840   38.0800 C   0  0  0  0  0  0  0  0  0  0  0  0
   37.8860   24.2600   36.7190 N   0  0  0  0  0  0  0  0  0  0  0  0
   38.8690   23.7490   35.9730 C   0  0  0  0  0  0  0  0  0  0  0  0
   39.8520   23.0460   36.5240 N   0  0  0  0  0  0  0  0  0  0  0  0
   40.6400   22.2710   38.3790 H   0  0  0  0  0  0  0  0  0  0  0  0
   38.7620   23.2580   39.7340 H   0  0  0  0  0  0  0  0  0  0  0  0
   37.0090   24.5360   38.5920 H   0  0  0  0  0  0  0  0  0  0  0  0
   36.5630   25.7170   32.4700 O   0  0  0  0  0  0  0  0  0  0  0  0
   37.3180   24.3470   30.4570 O   0  0  0  0  0  0  0  0  0  0  0  0
   36.0340   24.7280   31.1990 P   0  0  2  0  0  0  0  0  0  0  0  0
   35.0170   25.6510   30.2020 O   0  0  0  0  0  0  0  0  0  0  0  0
   35.5340   26.2910   29.6680 H   0  0  0  0  0  0  0  0  0  0  0  0
   35.2350   23.3560   31.7590 O   0  0  0  0  0  0  0  0  0  0  0  0
   35.8730   22.2410   31.2420 C   0  0  0  0  0  2  0  0  0  0  0  0
   36.9440   21.9210   32.1980 N   0  0  0  0  0  4  0  0  0  0  0  0
   37.3870   22.8500   32.4040 H   0  0  0  0  0  0  0  0  0  0  0  0
   37.9330   21.0630   31.5770 C   0  0  0  0  0  2  0  0  0  0  0  0
   38.1650   21.4830   30.5800 H   0  0  0  0  0  0  0  0  0  0  0  0
   36.3860   21.3100   33.3900 C   0  0  0  0  0  2  0  0  0  0  0  0
   37.0110   20.3990   33.6230 H   0  0  0  0  0  0  0  0  0  0  0  0
  1  5  1  0  0  0  0
  2  1  1  0  0  0  0
  3  1  1  0  0  0  0
  4 10  1  0  0  0  0
  5  4  2  0  0  0  0
  6 12  1  0  0  0  0
  6  7  1  0  0  0  0
  7 13  1  0  0  0  0
  8 14  1  0  0  0  0
  8  7  2  0  0  0  0
  9  8  1  0  0  0  0
 10 11  1  0  0  0  0
 10  9  2  0  0  0  0
 11  6  2  0  0  0  0
 15  1  1  0  0  0  0
 17 16  2  6  0  0  0
 17 20  1  0  0  0  0
 17 15  1  0  0  0  0
 18 17  1  0  0  0  0
 19 18  1  0  0  0  0
 21 20  1  0  0  0  0
 21 22  1  0  0  0  0
 22 23  1  0  0  0  0
 22 26  1  0  0  0  0
 24 22  1  0  0  0  0
 25 24  1  0  0  0  0
 26 27  1  0  0  0  0
M  END
>  <minimizedAffinity>
-4.0971303

$$$$

 OpenBabel03262520343D

 27 27  0  0  0  0  0  0  0  0999 V2000
   37.0150   27.0870   33.7930 C   0  0  0  0  0  0  0  0  0  0  0  0
   37.9060   27.7370   33.5550 H   0  0  0  0  0  0  0  0  0  0  0  0
   36.1650   27.7070   34.0710 H   0  0  0  0  0  0  0  0  0  0  0  0
   38.1940   25.1680   34.8630 C   0  0  0  0  0  3  0  0  0  0  0  0
   37.4420   26.2260   34.9280 C   0  0  0  0  0  3  0  0  0  0  0  0
   38.0830   24.0390   38.3450 C   0  0  0  0  0  0  0  0  0  0  0  0
   39.1280   23.1140   38.3850 C   0  0  0  0  0  0  0  0  0  0  0  0
   39.8640   22.8870   37.2060 C   0  0  0  0  0  0  0  0  0  0  0  0
   39.5020   23.5960   36.0880 N   0  0  0  0  0  0  0  0  0  0  0  0
   38.4920   24.4700   36.1040 C   0  0  0  0  0  0  0  0  0  0  0  0
   37.7940   24.6890   37.2120 N   0  0  0  0  0  0  0  0  0  0  0  0
   37.5730   24.1510   39.2920 H   0  0  0  0  0  0  0  0  0  0  0  0
   39.4840   22.5150   39.2010 H   0  0  0  0  0  0  0  0  0  0  0  0
   40.6920   22.2050   37.0900 H   0  0  0  0  0  0  0  0  0  0  0  0
   36.8120   26.3080   32.6400 O   0  0  0  0  0  0  0  0  0  0  0  0
   37.0000   28.7030   31.7890 O   0  0  0  0  0  0  0  0  0  0  0  0
   37.1470   27.2650   31.2830 P   0  0  2  0  0  0  0  0  0  0  0  0
   35.9820   26.9250   30.0970 O   0  0  0  0  0  0  0  0  0  0  0  0
   35.1160   27.3220   30.3310 H   0  0  0  0  0  0  0  0  0  0  0  0
   38.6990   26.9940   30.6880 O   0  0  0  0  0  0  0  0  0  0  0  0
   39.1040   28.1250   30.0000 C   0  0  0  0  0  2  0  0  0  0  0  0
   38.5110   28.0060   28.6600 N   0  0  0  0  0  4  0  0  0  0  0  0
   37.7040   27.3480   28.7970 H   0  0  0  0  0  0  0  0  0  0  0  0
   39.4550   27.4000   27.7430 C   0  0  0  0  0  2  0  0  0  0  0  0
   39.9000   26.5230   28.2490 H   0  0  0  0  0  0  0  0  0  0  0  0
   38.0730   29.3070   28.1870 C   0  0  0  0  0  2  0  0  0  0  0  0
   38.4470   29.4220   27.1280 H   0  0  0  0  0  0  0  0  0  0  0  0
  1  3  1  0  0  0  0
  1  5  1  0  0  0  0
  2  1  1  0  0  0  0
  4  5  2  0  0  0  0
  4 10  1  0  0  0  0
  6  7  1  0  0  0  0
  6 12  1  0  0  0  0
  7 13  1  0  0  0  0
  8  7  2  0  0  0  0
  9 10  2  0  0  0  0
  9  8  1  0  0  0  0
 10 11  1  0  0  0  0
 11  6  2  0  0  0  0
 14  8  1  0  0  0  0
 15  1  1  0  0  0  0
 17 16  2  1  0  0  0
 17 15  1  0  0  0  0
 18 19  1  0  0  0  0
 18 17  1  0  0  0  0
 20 17  1  0  0  0  0
 21 20  1  0  0  0  0
 22 23  1  0  0  0  0
 22 21  1  0  0  0  0
 24 25  1  0  0  0  0
 24 22  1  0  0  0  0
 26 22  1  0  0  0  0
 27 26  1  0  0  0  0
M  END
>  <minimizedAffinity>
-4.09465694

$$$$

 OpenBabel03262520343D

 27 27  0  0  0  0  0  0  0  0999 V2000
   36.9830   27.5930   33.6750 C   0  0  0  0  0  0  0  0  0  0  0  0
   38.0510   27.9530   33.6280 H   0  0  0  0  0  0  0  0  0  0  0  0
   36.5610   27.5490   32.6730 H   0  0  0  0  0  0  0  0  0  0  0  0
   35.6700   29.6690   34.1030 C   0  0  0  0  0  3  0  0  0  0  0  0
   36.2640   28.5880   34.5130 C   0  0  0  0  0  3  0  0  0  0  0  0
   35.1010   32.1150   36.7690 C   0  0  0  0  0  0  0  0  0  0  0  0
   33.7180   32.0390   36.9450 C   0  0  0  0  0  0  0  0  0  0  0  0
   32.9910   31.1410   36.1390 C   0  0  0  0  0  0  0  0  0  0  0  0
   33.6970   30.3960   35.2280 N   0  0  0  0  0  0  0  0  0  0  0  0
   35.0220   30.5080   35.1000 C   0  0  0  0  0  0  0  0  0  0  0  0
   35.7140   31.3520   35.8570 N   0  0  0  0  0  0  0  0  0  0  0  0
   35.5780   32.8280   37.4280 H   0  0  0  0  0  0  0  0  0  0  0  0
   33.0810   32.5740   37.6220 H   0  0  0  0  0  0  0  0  0  0  0  0
   31.9250   30.9780   36.1630 H   0  0  0  0  0  0  0  0  0  0  0  0
   37.0420   26.3530   34.3340 O   0  0  0  0  0  0  0  0  0  0  0  0
   38.3590   26.7030   36.4890 O   0  0  0  0  0  0  0  0  0  0  0  0
   38.5690   26.2050   35.0560 P   0  0  2  0  0  0  0  0  0  0  0  0
   39.6470   27.2150   34.2220 O   0  0  0  0  0  0  0  0  0  0  0  0
   39.4850   28.1580   34.4400 H   0  0  0  0  0  0  0  0  0  0  0  0
   39.1180   24.6130   35.0490 O   0  0  0  0  0  0  0  0  0  0  0  0
   38.2440   23.8490   35.8040 C   0  0  0  0  0  2  0  0  0  0  0  0
   38.8600   23.7430   37.1350 N   0  0  0  0  0  4  0  0  0  0  0  0
   39.3230   24.6750   37.2750 H   0  0  0  0  0  0  0  0  0  0  0  0
   39.8800   22.7130   37.1360 C   0  0  0  0  0  2  0  0  0  0  0  0
   40.4990   22.8520   36.2300 H   0  0  0  0  0  0  0  0  0  0  0  0
   37.8450   23.4860   38.1390 C   0  0  0  0  0  2  0  0  0  0  0  0
   38.2210   22.6410   38.7870 H   0  0  0  0  0  0  0  0  0  0  0  0
  1 15  1  0  0  0  0
  1  5  1  0  0  0  0
  2  1  1  0  0  0  0
  3  1  1  0  0  0  0
  4  5  2  0  0  0  0
  4 10  1  0  0  0  0
  6  7  1  0  0  0  0
  6 12  1  0  0  0  0
  7 13  1  0  0  0  0
  8 14  1  0  0  0  0
  8  7  2  0  0  0  0
  9  8  1  0  0  0  0
 10  9  2  0  0  0  0
 10 11  1  0  0  0  0
 11  6  2  0  0  0  0
 15 17  1  0  0  0  0
 17 16  2  1  0  0  0
 18 19  1  0  0  0  0
 18 17  1  0  0  0  0
 20 17  1  0  0  0  0
 20 21  1  0  0  0  0
 21 22  1  0  0  0  0
 22 24  1  0  0  0  0
 22 23  1  0  0  0  0
 22 26  1  0  0  0  0
 25 24  1  0  0  0  0
 26 27  1  0  0  0  0
M  END
>  <minimizedAffinity>
-4.05200386

$$$$

 OpenBabel03262520343D

 27 27  0  0  0  0  0  0  0  0999 V2000
   35.2280   25.3810   30.7440 C   0  0  0  0  0  0  0  0  0  0  0  0
   34.1840   25.5370   30.3470 H   0  0  0  0  0  0  0  0  0  0  0  0
   35.9500   25.4550   29.9330 H   0  0  0  0  0  0  0  0  0  0  0  0
   36.0420   23.0450   31.0520 C   0  0  0  0  0  3  0  0  0  0  0  0
   35.2280   24.0180   31.3360 C   0  0  0  0  0  3  0  0  0  0  0  0
   35.6460   20.5580   33.7120 C   0  0  0  0  0  0  0  0  0  0  0  0
   35.5330   19.3710   32.9860 C   0  0  0  0  0  0  0  0  0  0  0  0
   35.5940   19.4380   31.5810 C   0  0  0  0  0  0  0  0  0  0  0  0
   35.7630   20.6770   31.0140 N   0  0  0  0  0  0  0  0  0  0  0  0
   35.8650   21.7830   31.7560 C   0  0  0  0  0  0  0  0  0  0  0  0
   35.8080   21.7270   33.0810 N   0  0  0  0  0  0  0  0  0  0  0  0
   35.5880   20.4140   34.7820 H   0  0  0  0  0  0  0  0  0  0  0  0
   35.4000   18.3640   33.3330 H   0  0  0  0  0  0  0  0  0  0  0  0
   35.5210   18.6080   30.8960 H   0  0  0  0  0  0  0  0  0  0  0  0
   35.3860   26.3500   31.7510 O   0  0  0  0  0  0  0  0  0  0  0  0
   36.4240   28.6450   32.1420 O   0  0  0  0  0  0  0  0  0  0  0  0
   36.6500   27.3860   31.3000 P   0  0  2  0  0  0  0  0  0  0  0  0
   36.4840   27.7320   29.6470 O   0  0  0  0  0  0  0  0  0  0  0  0
   35.7390   28.3510   29.4910 H   0  0  0  0  0  0  0  0  0  0  0  0
   38.1600   26.7140   31.6190 O   0  0  0  0  0  0  0  0  0  0  0  0
   38.4500   26.9120   32.9590 C   0  0  0  0  0  2  0  0  0  0  0  0
   37.5090   26.0550   33.6970 N   0  0  0  0  0  4  0  0  0  0  0  0
   36.6250   26.1020   33.1310 H   0  0  0  0  0  0  0  0  0  0  0  0
   37.2500   26.6080   35.0110 C   0  0  0  0  0  2  0  0  0  0  0  0
   37.0600   27.6910   34.8890 H   0  0  0  0  0  0  0  0  0  0  0  0
   38.0250   24.7010   33.7830 C   0  0  0  0  0  2  0  0  0  0  0  0
   37.9120   24.3680   34.8550 H   0  0  0  0  0  0  0  0  0  0  0  0
  1  5  1  0  0  0  0
  1 15  1  0  0  0  0
  2  1  1  0  0  0  0
  3  1  1  0  0  0  0
  4  5  2  0  0  0  0
  4 10  1  0  0  0  0
  6 12  1  0  0  0  0
  7 13  1  0  0  0  0
  7  6  2  0  0  0  0
  8  7  1  0  0  0  0
  9  8  2  0  0  0  0
  9 10  1  0  0  0  0
 10 11  2  0  0  0  0
 11  6  1  0  0  0  0
 14  8  1  0  0  0  0
 17 20  1  0  0  0  0
 17 15  1  0  0  0  0
 17 16  2  1  0  0  0
 18 17  1  0  0  0  0
 19 18  1  0  0  0  0
 20 21  1  0  0  0  0
 21 22  1  0  0  0  0
 22 26  1  0  0  0  0
 22 24  1  0  0  0  0
 23 22  1  0  0  0  0
 25 24  1  0  0  0  0
 26 27  1  0  0  0  0
M  END
>  <minimizedAffinity>
-4.04487228

$$$$

 OpenBabel03262520343D

 27 27  0  0  0  0  0  0  0  0999 V2000
   37.6670   27.3660   33.7700 C   0  0  0  0  0  0  0  0  0  0  0  0
   38.4990   27.6740   33.0730 H   0  0  0  0  0  0  0  0  0  0  0  0
   37.3370   28.2210   34.3570 H   0  0  0  0  0  0  0  0  0  0  0  0
   37.6470   25.6760   35.6020 C   0  0  0  0  0  3  0  0  0  0  0  0
   38.2490   26.3120   34.6420 C   0  0  0  0  0  3  0  0  0  0  0  0
   40.1530   23.1560   36.4890 C   0  0  0  0  0  0  0  0  0  0  0  0
   39.7690   22.8050   37.7840 C   0  0  0  0  0  0  0  0  0  0  0  0
   38.6440   23.4440   38.3430 C   0  0  0  0  0  0  0  0  0  0  0  0
   37.9970   24.3750   37.5700 N   0  0  0  0  0  0  0  0  0  0  0  0
   38.4070   24.6740   36.3350 C   0  0  0  0  0  0  0  0  0  0  0  0
   39.4660   24.0760   35.8010 N   0  0  0  0  0  0  0  0  0  0  0  0
   41.0240   22.6180   36.1390 H   0  0  0  0  0  0  0  0  0  0  0  0
   40.2050   22.0980   38.4620 H   0  0  0  0  0  0  0  0  0  0  0  0
   38.2360   23.2750   39.3270 H   0  0  0  0  0  0  0  0  0  0  0  0
   36.6760   26.8180   32.9380 O   0  0  0  0  0  0  0  0  0  0  0  0
   37.9900   28.1290   31.1900 O   0  0  0  0  0  0  0  0  0  0  0  0
   37.2690   26.7880   31.3500 P   0  0  2  0  0  0  0  0  0  0  0  0
   35.9440   26.6890   30.2940 O   0  0  0  0  0  0  0  0  0  0  0  0
   35.4700   27.5470   30.2450 H   0  0  0  0  0  0  0  0  0  0  0  0
   38.3280   25.5020   31.0970 O   0  0  0  0  0  0  0  0  0  0  0  0
   37.5880   24.4030   30.6960 C   0  0  0  0  0  2  0  0  0  0  0  0
   36.8060   24.0010   31.8760 N   0  0  0  0  0  4  0  0  0  0  0  0
   36.5860   24.9090   32.3560 H   0  0  0  0  0  0  0  0  0  0  0  0
   37.6150   23.1910   32.7630 C   0  0  0  0  0  2  0  0  0  0  0  0
   38.5970   23.6880   32.8720 H   0  0  0  0  0  0  0  0  0  0  0  0
   35.6030   23.3010   31.4650 C   0  0  0  0  0  2  0  0  0  0  0  0
   35.5250   22.3700   32.1000 H   0  0  0  0  0  0  0  0  0  0  0  0
  1  3  1  0  0  0  0
  1  5  1  0  0  0  0
  2  1  1  0  0  0  0
  4 10  1  0  0  0  0
  5  4  2  0  0  0  0
  6  7  1  0  0  0  0
  7  8  2  0  0  0  0
  7 13  1  0  0  0  0
  8 14  1  0  0  0  0
  9  8  1  0  0  0  0
 10  9  2  0  0  0  0
 11 10  1  0  0  0  0
 11  6  2  0  0  0  0
 12  6  1  0  0  0  0
 15  1  1  0  0  0  0
 17 16  2  6  0  0  0
 17 15  1  0  0  0  0
 18 17  1  0  0  0  0
 19 18  1  0  0  0  0
 20 17  1  0  0  0  0
 21 20  1  0  0  0  0
 21 22  1  0  0  0  0
 22 23  1  0  0  0  0
 22 24  1  0  0  0  0
 24 25  1  0  0  0  0
 26 22  1  0  0  0  0
 26 27  1  0  0  0  0
M  END
>  <minimizedAffinity>
-4.00315189

$$$$

 OpenBabel03262520343D

 27 27  0  0  0  0  0  0  0  0999 V2000
   37.6350   25.5740   32.8470 C   0  0  0  0  0  0  0  0  0  0  0  0
   37.1660   26.2270   32.0560 H   0  0  0  0  0  0  0  0  0  0  0  0
   38.7200   25.6010   32.7570 H   0  0  0  0  0  0  0  0  0  0  0  0
   37.1750   23.5400   31.4820 C   0  0  0  0  0  3  0  0  0  0  0  0
   37.1130   24.2050   32.5970 C   0  0  0  0  0  3  0  0  0  0  0  0
   36.6020   19.9980   30.7430 C   0  0  0  0  0  0  0  0  0  0  0  0
   35.4370   19.7340   31.4650 C   0  0  0  0  0  0  0  0  0  0  0  0
   34.8570   20.7840   32.2040 C   0  0  0  0  0  0  0  0  0  0  0  0
   35.4820   22.0060   32.1630 N   0  0  0  0  0  0  0  0  0  0  0  0
   36.5970   22.2040   31.4550 C   0  0  0  0  0  0  0  0  0  0  0  0
   37.1490   21.2190   30.7570 N   0  0  0  0  0  0  0  0  0  0  0  0
   36.9790   19.1380   30.2060 H   0  0  0  0  0  0  0  0  0  0  0  0
   34.8790   18.8230   31.5600 H   0  0  0  0  0  0  0  0  0  0  0  0
   33.9630   20.7260   32.8050 H   0  0  0  0  0  0  0  0  0  0  0  0
   37.1430   26.0680   34.0680 O   0  0  0  0  0  0  0  0  0  0  0  0
   38.4460   27.1280   35.9860 O   0  0  0  0  0  0  0  0  0  0  0  0
   38.3080   25.7830   35.2670 P   0  0  2  0  0  0  0  0  0  0  0  0
   39.7610   25.3600   34.5000 O   0  0  0  0  0  0  0  0  0  0  0  0
   40.1820   26.1450   34.0880 H   0  0  0  0  0  0  0  0  0  0  0  0
   37.8260   24.5760   36.3390 O   0  0  0  0  0  0  0  0  0  0  0  0
   38.5430   23.4270   36.0480 C   0  0  0  0  0  2  0  0  0  0  0  0
   38.7690   22.7660   37.3420 N   0  0  0  0  0  4  0  0  0  0  0  0
   38.3140   21.8260   37.2310 H   0  0  0  0  0  0  0  0  0  0  0  0
   38.0930   23.4870   38.4010 C   0  0  0  0  0  2  0  0  0  0  0  0
   37.0690   23.7190   38.0510 H   0  0  0  0  0  0  0  0  0  0  0  0
   40.1920   22.6490   37.6040 C   0  0  0  0  0  2  0  0  0  0  0  0
   40.3660   22.9950   38.6640 H   0  0  0  0  0  0  0  0  0  0  0  0
  1 15  1  0  0  0  0
  2  1  1  0  0  0  0
  3  1  1  0  0  0  0
  4  5  2  0  0  0  0
  5  1  1  0  0  0  0
  6 11  2  0  0  0  0
  6  7  1  0  0  0  0
  7 13  1  0  0  0  0
  7  8  2  0  0  0  0
  8 14  1  0  0  0  0
  9  8  1  0  0  0  0
 10  4  1  0  0  0  0
 10  9  2  0  0  0  0
 11 10  1  0  0  0  0
 12  6  1  0  0  0  0
 15 17  1  0  0  0  0
 17 16  2  1  0  0  0
 17 20  1  0  0  0  0
 18 17  1  0  0  0  0
 19 18  1  0  0  0  0
 21 20  1  0  0  0  0
 21 22  1  0  0  0  0
 22 26  1  0  0  0  0
 22 24  1  0  0  0  0
 23 22  1  0  0  0  0
 25 24  1  0  0  0  0
 26 27  1  0  0  0  0
M  END
>  <minimizedAffinity>
-4.00002718

$$$$

 OpenBabel03262520343D

 27 27  0  0  0  0  0  0  0  0999 V2000
   37.1640   27.3330   32.6860 C   0  0  0  0  0  0  0  0  0  0  0  0
   38.2460   27.2710   33.0020 H   0  0  0  0  0  0  0  0  0  0  0  0
   37.0960   27.6790   31.6570 H   0  0  0  0  0  0  0  0  0  0  0  0
   35.4690   29.0170   33.3970 C   0  0  0  0  0  3  0  0  0  0  0  0
   36.5320   28.3020   33.6190 C   0  0  0  0  0  3  0  0  0  0  0  0
   33.3400   30.8080   35.7790 C   0  0  0  0  0  0  0  0  0  0  0  0
   34.2650   31.6110   36.4500 C   0  0  0  0  0  0  0  0  0  0  0  0
   35.6190   31.5270   36.0740 C   0  0  0  0  0  0  0  0  0  0  0  0
   35.9420   30.6550   35.0640 N   0  0  0  0  0  0  0  0  0  0  0  0
   35.0170   29.9080   34.4550 C   0  0  0  0  0  0  0  0  0  0  0  0
   33.7380   29.9820   34.8050 N   0  0  0  0  0  0  0  0  0  0  0  0
   32.3260   30.9350   36.1320 H   0  0  0  0  0  0  0  0  0  0  0  0
   34.1130   32.3160   37.2440 H   0  0  0  0  0  0  0  0  0  0  0  0
   36.4380   32.0840   36.5020 H   0  0  0  0  0  0  0  0  0  0  0  0
   36.6470   26.0430   32.8990 O   0  0  0  0  0  0  0  0  0  0  0  0
   37.7310   24.8690   30.9130 O   0  0  0  0  0  0  0  0  0  0  0  0
   36.3510   25.3310   31.3890 P   0  0  2  0  0  0  0  0  0  0  0  0
   35.7280   26.5250   30.3570 O   0  0  0  0  0  0  0  0  0  0  0  0
   36.4320   27.1490   30.0760 H   0  0  0  0  0  0  0  0  0  0  0  0
   35.2880   24.0290   31.5040 O   0  0  0  0  0  0  0  0  0  0  0  0
   35.9790   22.8750   31.1740 C   0  0  0  0  0  2  0  0  0  0  0  0
   35.9860   22.0570   32.3960 N   0  0  0  0  0  4  0  0  0  0  0  0
   35.7670   22.7410   33.1620 H   0  0  0  0  0  0  0  0  0  0  0  0
   37.3080   21.5100   32.6280 C   0  0  0  0  0  2  0  0  0  0  0  0
   38.0400   22.3270   32.4840 H   0  0  0  0  0  0  0  0  0  0  0  0
   34.9870   21.0090   32.3040 C   0  0  0  0  0  2  0  0  0  0  0  0
   35.4820   20.0450   32.6250 H   0  0  0  0  0  0  0  0  0  0  0  0
  1 15  1  0  0  0  0
  1  2  1  0  0  0  0
  1  5  1  0  0  0  0
  3  1  1  0  0  0  0
  4  5  2  0  0  0  0
  4 10  1  0  0  0  0
  6 12  1  0  0  0  0
  6  7  1  0  0  0  0
  7 13  1  0  0  0  0
  8  7  2  0  0  0  0
  8 14  1  0  0  0  0
  9  8  1  0  0  0  0
 10 11  1  0  0  0  0
 10  9  2  0  0  0  0
 11  6  2  0  0  0  0
 17 16  2  6  0  0  0
 17 20  1  0  0  0  0
 17 15  1  0  0  0  0
 18 17  1  0  0  0  0
 19 18  1  0  0  0  0
 21 20  1  0  0  0  0
 21 22  1  0  0  0  0
 22 24  1  0  0  0  0
 22 23  1  0  0  0  0
 25 24  1  0  0  0  0
 26 22  1  0  0  0  0
 26 27  1  0  0  0  0
M  END
>  <minimizedAffinity>
-3.98787212

$$$$

 OpenBabel03262520343D

 27 27  0  0  0  0  0  0  0  0999 V2000
   35.5060   29.8100   31.4880 C   0  0  0  0  0  0  0  0  0  0  0  0
   35.4920   30.7250   30.8280 H   0  0  0  0  0  0  0  0  0  0  0  0
   34.8970   29.0230   31.0470 H   0  0  0  0  0  0  0  0  0  0  0  0
   35.6080   30.4710   33.8900 C   0  0  0  0  0  3  0  0  0  0  0  0
   34.9470   30.2510   32.7930 C   0  0  0  0  0  3  0  0  0  0  0  0
   34.6930   32.0750   37.0530 C   0  0  0  0  0  0  0  0  0  0  0  0
   33.3730   31.6540   37.2220 C   0  0  0  0  0  0  0  0  0  0  0  0
   32.8070   30.8170   36.2410 C   0  0  0  0  0  0  0  0  0  0  0  0
   33.5990   30.4700   35.1740 N   0  0  0  0  0  0  0  0  0  0  0  0
   34.8580   30.9010   35.0600 C   0  0  0  0  0  0  0  0  0  0  0  0
   35.3970   31.6900   35.9820 N   0  0  0  0  0  0  0  0  0  0  0  0
   35.0460   32.7130   37.8520 H   0  0  0  0  0  0  0  0  0  0  0  0
   32.6790   31.8700   38.0120 H   0  0  0  0  0  0  0  0  0  0  0  0
   31.8060   30.4180   36.2400 H   0  0  0  0  0  0  0  0  0  0  0  0
   36.8660   29.4800   31.6280 O   0  0  0  0  0  0  0  0  0  0  0  0
   38.5910   27.6670   31.1440 O   0  0  0  0  0  0  0  0  0  0  0  0
   37.0730   27.8630   31.1620 P   0  0  2  0  0  0  0  0  0  0  0  0
   36.4250   27.6770   29.6040 O   0  0  0  0  0  0  0  0  0  0  0  0
   37.0090   28.0870   28.9300 H   0  0  0  0  0  0  0  0  0  0  0  0
   36.3420   26.7970   32.2420 O   0  0  0  0  0  0  0  0  0  0  0  0
   37.0290   25.5960   32.1980 C   0  0  0  0  0  2  0  0  0  0  0  0
   36.6810   24.9880   30.9050 N   0  0  0  0  0  4  0  0  0  0  0  0
   36.6070   25.8070   30.2510 H   0  0  0  0  0  0  0  0  0  0  0  0
   35.3880   24.3390   30.9860 C   0  0  0  0  0  2  0  0  0  0  0  0
   34.6940   25.0340   31.4940 H   0  0  0  0  0  0  0  0  0  0  0  0
   37.7170   24.0590   30.4930 C   0  0  0  0  0  2  0  0  0  0  0  0
   37.2020   23.1100   30.1620 H   0  0  0  0  0  0  0  0  0  0  0  0
  1 15  1  0  0  0  0
  1  5  1  0  0  0  0
  2  1  1  0  0  0  0
  3  1  1  0  0  0  0
  4 10  1  0  0  0  0
  5  4  2  0  0  0  0
  6  7  1  0  0  0  0
  6 12  1  0  0  0  0
  7 13  1  0  0  0  0
  8  7  2  0  0  0  0
  9  8  1  0  0  0  0
 10  9  2  0  0  0  0
 10 11  1  0  0  0  0
 11  6  2  0  0  0  0
 14  8  1  0  0  0  0
 17 16  2  6  0  0  0
 17 15  1  0  0  0  0
 17 20  1  0  0  0  0
 18 17  1  0  0  0  0
 19 18  1  0  0  0  0
 21 20  1  0  0  0  0
 22 24  1  0  0  0  0
 22 21  1  0  0  0  0
 23 22  1  0  0  0  0
 24 25  1  0  0  0  0
 26 22  1  0  0  0  0
 27 26  1  0  0  0  0
M  END
>  <minimizedAffinity>
-3.97897315

$$$$
