
 OpenBabel03262522183D

 22 22  0  0  0  0  0  0  0  0999 V2000
   37.1740   33.6580   49.6370 O   0  0  0  0  0  0  0  0  0  0  0  0
   38.4810   33.0050   49.1660 P   0  0  1  0  0  0  0  0  0  0  0  0
   39.7550   33.9220   49.8180 O   0  0  0  0  0  0  0  0  0  0  0  0
   39.4440   34.7960   50.1680 H   0  0  0  0  0  0  0  0  0  0  0  0
   38.5470   31.4810   49.8880 O   0  0  0  0  0  0  0  0  0  0  0  0
   37.0730   30.2290   51.2990 C   0  0  0  0  0  0  0  0  0  0  0  0
   37.5490   30.5610   50.0130 C   0  0  0  0  0  0  0  0  0  0  0  0
   36.9510   29.9100   48.9360 C   0  0  0  0  0  0  0  0  0  0  0  0
   35.9550   29.0020   49.1570 N   0  0  0  0  0  0  0  0  0  0  0  0
   35.5380   28.7220   50.4100 C   0  0  0  0  0  0  0  0  0  0  0  0
   36.1000   29.3390   51.4860 N   0  0  0  0  0  0  0  0  0  0  0  0
   37.4700   30.6760   52.2010 H   0  0  0  0  0  0  0  0  0  0  0  0
   37.2910   30.1390   47.9340 H   0  0  0  0  0  0  0  0  0  0  0  0
   34.7510   28.0040   50.5990 H   0  0  0  0  0  0  0  0  0  0  0  0
   38.4570   32.9980   47.5110 O   0  0  0  0  0  0  0  0  0  0  0  0
   39.7120   32.7070   46.9800 C   0  0  0  0  0  2  0  0  0  0  0  0
   39.6960   32.3420   45.5950 N   0  0  0  0  0  4  0  0  0  0  0  0
   38.7830   31.9560   45.3220 H   0  0  0  0  0  0  0  0  0  0  0  0
   39.9890   33.5100   44.7720 C   0  0  0  0  0  2  0  0  0  0  0  0
   39.9430   33.1870   43.7060 H   0  0  0  0  0  0  0  0  0  0  0  0
   40.8100   31.4140   45.3420 C   0  0  0  0  0  2  0  0  0  0  0  0
   40.8700   30.6700   46.1560 H   0  0  0  0  0  0  0  0  0  0  0  0
  2  1  2  1  0  0  0
  2  3  1  0  0  0  0
  2  5  1  0  0  0  0
  3  4  1  0  0  0  0
  5  7  1  0  0  0  0
  6 11  1  0  0  0  0
  6 12  1  0  0  0  0
  7  6  2  0  0  0  0
  8  9  2  0  0  0  0
  8  7  1  0  0  0  0
  9 10  1  0  0  0  0
 10 14  1  0  0  0  0
 10 11  2  0  0  0  0
 13  8  1  0  0  0  0
 15  2  1  0  0  0  0
 16 15  1  0  0  0  0
 17 16  1  0  0  0  0
 18 17  1  0  0  0  0
 19 17  1  0  0  0  0
 20 19  1  0  0  0  0
 21 17  1  0  0  0  0
 21 22  1  0  0  0  0
M  END
>  <minimizedAffinity>
-4.02105331

>  <minimizedRMSD>
1.35899186

$$$$
