
     RDKit          3D

 33 34  0  0  0  0  0  0  0  0999 V2000
   37.2837   29.4453   51.1153 Br  0  0  0  0  0  0  0  0  0  0  0  0
   36.0000   29.3148   49.7179 C   0  0  0  0  0  0  0  0  0  0  0  0
   36.0269   30.1907   48.6562 C   0  0  0  0  0  0  0  0  0  0  0  0
   35.0579   30.0432   47.6644 C   0  0  0  0  0  0  0  0  0  0  0  0
   34.0816   29.0669   47.6995 C   0  0  0  0  0  0  0  0  0  0  0  0
   34.1006   28.2053   48.7991 C   0  0  0  0  0  0  0  0  0  0  0  0
   35.0605   28.3406   49.7950 C   0  0  0  0  0  0  0  0  0  0  0  0
   37.8415   33.2445   49.4742 C   0  0  0  0  0  0  0  0  0  0  0  0
   38.8872   33.2763   48.5026 C   0  0  0  0  0  0  0  0  0  0  0  0
   38.9529   32.2339   47.5694 C   0  0  0  0  0  0  0  0  0  0  0  0
   38.0110   31.2531   47.6494 N   0  0  0  0  0  0  0  0  0  0  0  0
   37.0365   31.2409   48.5694 C   0  0  0  0  0  0  0  0  0  0  0  0
   36.9557   32.2453   49.4854 N   0  0  0  0  0  0  0  0  0  0  0  0
   39.7890   34.3233   48.5161 O   0  0  0  0  0  0  0  0  0  0  0  0
   35.0367   30.7068   46.8095 H   0  0  0  0  0  0  0  0  0  0  0  0
   33.3337   28.9558   46.9308 H   0  0  0  0  0  0  0  0  0  0  0  0
   33.3774   27.4071   48.9189 H   0  0  0  0  0  0  0  0  0  0  0  0
   35.0430   27.6540   50.6315 H   0  0  0  0  0  0  0  0  0  0  0  0
   37.8373   34.0814   50.1771 H   0  0  0  0  0  0  0  0  0  0  0  0
   39.7259   32.2481   46.8433 H   0  0  0  0  0  0  0  0  0  0  0  0
   40.8140   34.3136   47.5296 C   0  0  0  0  0  0  0  0  0  0  0  0
   40.8334   32.9675   46.9715 N   0  0  0  0  0  4  0  0  0  0  0  0
   39.7745   32.9176   45.9867 C   0  0  0  0  0  0  0  0  0  0  0  0
   39.1093   33.8020   46.0016 H   0  0  0  0  0  0  0  0  0  0  0  0
   40.5976   31.9623   47.9958 C   0  0  0  0  0  0  0  0  0  0  0  0
   41.5617   31.5460   48.3741 H   0  0  0  0  0  0  0  0  0  0  0  0
   41.8018   34.5778   47.9855 H   0  0  0  0  0  0  0  0  0  0  0  0
   40.5950   35.0204   46.6981 H   0  0  0  0  0  0  0  0  0  0  0  0
   41.7339   32.7277   46.5068 H   0  0  0  0  0  0  0  0  0  0  0  0
   39.1040   32.0323   46.1831 H   0  0  0  0  0  0  0  0  0  0  0  0
   40.2072   32.8852   44.9564 H   0  0  0  0  0  0  0  0  0  0  0  0
   40.0812   32.4324   48.8402 H   0  0  0  0  0  0  0  0  0  0  0  0
   40.0126   31.1282   47.5198 H   0  0  0  0  0  0  0  0  0  0  0  0
  2  7  2  0
  2  1  1  0
  3  2  1  0
  4  5  1  0
  4  3  2  0
  5  6  2  0
  6  7  1  0
  8 13  2  0
  9 14  1  0
  9  8  1  0
 10 11  1  0
 10  9  2  0
 11 12  2  0
 12  3  1  0
 12 13  1  0
  4 15  1  0
  5 16  1  0
  6 17  1  0
  7 18  1  0
  8 19  1  0
 10 20  1  0
 21 22  1  0
 22 23  1  0
 23 24  1  0
 22 25  1  0
 25 26  1  0
 21 27  1  0
 21 28  1  0
 22 29  1  0
 23 30  1  0
 23 31  1  0
 25 32  1  0
 25 33  1  0
 14 21  1  0
M  ISO  8  15  14  16  14  17  14  18  14  19  14  20  14  24   8  26   8
M  CHG  1  22   1
M  END
>  <DihAtoms>  (1) 
8,13,20,21

>  <DihDeg>  (1) 
179.99979851313944

$$$$
