
 OpenBabel03272506433D

 30 31  0  0  1  0  0  0  0  0999 V2000
   32.3970   28.3690   47.5190 C   0  0  2  0  0  0  0  0  0  0  0  0
   33.6390   28.4330   48.3780 C   0  0  1  0  0  0  0  0  0  0  0  0
   34.2070   27.1830   48.3870 O   0  0  0  0  0  0  0  0  0  0  0  0
   33.5800   26.3860   47.4440 C   0  0  0  0  0  0  0  0  0  0  0  0
   32.8470   27.3310   46.5000 C   0  0  1  0  0  0  0  0  0  0  0  0
   31.5590   27.9990   48.1110 H   0  0  0  0  0  0  0  0  0  0  0  0
   33.4600   28.7820   49.4060 H   0  0  0  0  0  0  0  0  0  0  0  0
   34.3810   25.8230   46.9390 H   0  0  0  0  0  0  0  0  0  0  0  0
   32.8600   25.7530   48.0130 H   0  0  0  0  0  0  0  0  0  0  0  0
   33.5750   27.7750   45.8220 H   0  0  0  0  0  0  0  0  0  0  0  0
   32.1540   29.5980   46.8970 O   0  0  0  0  0  0  0  0  0  0  0  0
   32.7230   29.6010   46.0810 H   0  0  0  0  0  0  0  0  0  0  0  0
   34.8180   29.5510   47.5170 S   0  0  0  0  0  0  0  0  0  0  0  0
   37.3990   29.4920   50.5330 C   0  0  0  0  0  0  0  0  0  0  0  0
   38.0070   30.7460   50.5230 C   0  0  0  0  0  0  0  0  0  0  0  0
   37.5990   31.6600   49.5310 C   0  0  0  0  0  0  0  0  0  0  0  0
   36.6440   31.2680   48.6510 N   0  0  0  0  0  0  0  0  0  0  0  0
   36.0790   30.0440   48.6940 C   0  0  0  0  0  0  0  0  0  0  0  0
   36.4470   29.1380   49.6340 N   0  0  0  0  0  0  0  0  0  0  0  0
   37.6640   28.7380   51.2670 H   0  0  0  0  0  0  0  0  0  0  0  0
   38.7590   31.0040   51.2450 H   0  0  0  0  0  0  0  0  0  0  0  0
   38.0430   32.6470   49.4830 H   0  0  0  0  0  0  0  0  0  0  0  0
   31.8100   26.7110   45.8710 O   0  0  0  0  0  0  0  0  0  0  0  0
   31.6800   26.8590   44.5230 C   0  0  0  0  0  2  0  0  0  0  0  0
   30.7240   25.8260   44.0990 N   0  0  0  0  0  4  0  0  0  0  0  0
   31.2030   24.9530   43.8480 H   0  0  0  0  0  0  0  0  0  0  0  0
   29.8350   25.4990   45.2260 C   0  0  0  0  0  2  0  0  0  0  0  0
   30.3680   25.0840   46.0850 H   0  0  0  0  0  0  0  0  0  0  0  0
   29.8670   26.3650   43.0580 C   0  0  0  0  0  2  0  0  0  0  0  0
   28.9840   25.7110   42.9330 H   0  0  0  0  0  0  0  0  0  0  0  0
  1  6  1  1  0  0  0
  1  2  1  0  0  0  0
  2  3  1  0  0  0  0
  2  7  1  1  0  0  0
  4  9  1  0  0  0  0
  4  3  1  0  0  0  0
  5 10  1  6  0  0  0
  5  4  1  0  0  0  0
  5  1  1  0  0  0  0
  8  4  1  0  0  0  0
 11  1  1  0  0  0  0
 12 11  1  0  0  0  0
 13  2  1  0  0  0  0
 13 18  1  0  0  0  0
 14 20  1  0  0  0  0
 15 14  1  0  0  0  0
 15 21  1  0  0  0  0
 16 15  2  0  0  0  0
 17 18  2  0  0  0  0
 17 16  1  0  0  0  0
 18 19  1  0  0  0  0
 19 14  2  0  0  0  0
 22 16  1  0  0  0  0
 23  5  1  0  0  0  0
 24 23  1  0  0  0  0
 25 24  1  0  0  0  0
 25 27  1  0  0  0  0
 26 25  1  0  0  0  0
 27 28  1  0  0  0  0
 29 25  1  0  0  0  0
 30 29  1  0  0  0  0
M  END
>  <minimizedAffinity>
-3.5670011

>  <minimizedRMSD>
0.152739793

$$$$
