
 OpenBabel03262523593D

 27 28  0  0  0  0  0  0  0  0999 V2000
   37.9570   32.0430   47.8650 C   0  0  0  0  0  0  0  0  0  0  0  0
   38.3190   32.0780   46.4860 C   0  0  0  0  0  0  0  0  0  0  0  0
   37.5990   31.2740   45.5930 C   0  0  0  0  0  0  0  0  0  0  0  0
   36.5950   30.5060   46.1020 N   0  0  0  0  0  0  0  0  0  0  0  0
   36.2690   30.4870   47.4020 C   0  0  0  0  0  0  0  0  0  0  0  0
   36.9580   31.2610   48.2850 N   0  0  0  0  0  0  0  0  0  0  0  0
   38.5510   32.6890   48.5170 H   0  0  0  0  0  0  0  0  0  0  0  0
   37.8600   31.2930   44.5650 H   0  0  0  0  0  0  0  0  0  0  0  0
   36.8980   29.2760   50.2140 Br  0  0  0  0  0  0  0  0  0  0  0  0
   35.3160   29.0600   49.1790 C   0  0  0  0  0  0  0  0  0  0  0  0
   35.1950   29.6650   47.9490 C   0  0  0  0  0  0  0  0  0  0  0  0
   34.0110   29.4680   47.2390 C   0  0  0  0  0  0  0  0  0  0  0  0
   32.9650   28.7010   47.7120 C   0  0  0  0  0  0  0  0  0  0  0  0
   33.1410   28.1100   48.9660 C   0  0  0  0  0  0  0  0  0  0  0  0
   34.3150   28.2980   49.6840 C   0  0  0  0  0  0  0  0  0  0  0  0
   33.8670   29.9230   46.2670 H   0  0  0  0  0  0  0  0  0  0  0  0
   32.0500   28.5510   47.1610 H   0  0  0  0  0  0  0  0  0  0  0  0
   32.3780   27.4900   49.4240 H   0  0  0  0  0  0  0  0  0  0  0  0
   34.4150   27.8230   50.6520 H   0  0  0  0  0  0  0  0  0  0  0  0
   39.3570   32.8960   46.0810 O   0  0  0  0  0  0  0  0  0  0  0  0
   39.5190   33.1010   44.6830 C   0  0  0  0  0  2  0  0  0  0  0  0
   40.6960   32.3350   44.2900 N   0  0  0  0  0  4  0  0  0  0  0  0
   41.4720   32.9290   43.9300 H   0  0  0  0  0  0  0  0  0  0  0  0
   40.2700   31.4390   43.2390 C   0  0  0  0  0  2  0  0  0  0  0  0
   39.1720   31.4070   43.0970 H   0  0  0  0  0  0  0  0  0  0  0  0
   41.2280   31.5670   45.4060 C   0  0  0  0  0  2  0  0  0  0  0  0
   42.0620   32.1140   45.9050 H   0  0  0  0  0  0  0  0  0  0  0  0
  1  6  1  0  0  0  0
  1  7  1  0  0  0  0
  2  1  2  0  0  0  0
  3  4  2  0  0  0  0
  3  2  1  0  0  0  0
  4  5  1  0  0  0  0
  5 11  1  0  0  0  0
  5  6  2  0  0  0  0
  8  3  1  0  0  0  0
 10 15  1  0  0  0  0
 10  9  1  0  0  0  0
 11 10  2  0  0  0  0
 12 13  2  0  0  0  0
 12 11  1  0  0  0  0
 13 14  1  0  0  0  0
 14 18  1  0  0  0  0
 14 15  2  0  0  0  0
 15 19  1  0  0  0  0
 16 12  1  0  0  0  0
 17 13  1  0  0  0  0
 20  2  1  0  0  0  0
 21 20  1  0  0  0  0
 22 21  1  0  0  0  0
 22 26  1  0  0  0  0
 23 22  1  0  0  0  0
 24 22  1  0  0  0  0
 25 24  1  0  0  0  0
 26 27  1  0  0  0  0
M  END
>  <minimizedAffinity>
-4.97233534

>  <minimizedRMSD>
2.08799291

$$$$
