
 OpenBabel03272507323D

 34 36  0  0  1  0  0  0  0  0999 V2000
   35.8670   29.1940   49.8340 C   0  0  0  0  0  0  0  0  0  0  0  0
   34.9380   29.7160   50.7070 C   0  0  0  0  0  0  0  0  0  0  0  0
   33.6780   29.2490   50.3050 C   0  0  0  0  0  0  0  0  0  0  0  0
   33.9230   28.4640   49.2020 C   0  0  0  0  0  0  0  0  0  0  0  0
   35.2170   28.4620   48.9640 O   0  0  0  0  0  0  0  0  0  0  0  0
   35.0560   30.3620   51.5590 H   0  0  0  0  0  0  0  0  0  0  0  0
   32.7200   29.4490   50.7490 H   0  0  0  0  0  0  0  0  0  0  0  0
   37.2860   29.4740   49.9560 C   0  0  0  0  0  0  0  0  0  0  0  0
   37.9730   28.8000   50.7380 O   0  0  0  0  0  0  0  0  0  0  0  0
   37.8140   30.5370   49.1460 C   0  0  0  0  0  0  0  0  0  0  0  0
   38.1630   31.7110   49.7960 C   0  0  0  0  0  0  0  0  0  0  0  0
   38.6760   32.7660   49.0340 C   0  0  0  0  0  0  0  0  0  0  0  0
   38.8090   32.5810   47.6780 N   0  0  0  0  0  0  0  0  0  0  0  0
   38.4630   31.4340   47.0870 C   0  0  0  0  0  0  0  0  0  0  0  0
   37.9690   30.4180   47.8080 N   0  0  0  0  0  0  0  0  0  0  0  0
   38.0720   31.8890   50.8570 H   0  0  0  0  0  0  0  0  0  0  0  0
   38.9630   33.6910   49.4740 H   0  0  0  0  0  0  0  0  0  0  0  0
   38.5690   31.2940   46.0150 H   0  0  0  0  0  0  0  0  0  0  0  0
   32.9180   27.7430   48.4190 C   0  0  0  0  0  0  0  0  0  0  0  0
   31.7210   27.7120   48.8610 O   0  0  0  0  0  0  0  0  0  0  0  0
   33.2980   27.0580   47.1390 C   0  0  1  0  0  0  0  0  0  0  0  0
   33.7540   25.5790   47.4380 C   0  0  0  0  0  0  0  0  0  0  0  0
   32.5360   25.9050   46.6550 C   0  0  2  0  0  0  0  0  0  0  0  0
   34.1490   27.5580   46.6270 H   0  0  0  0  0  0  0  0  0  0  0  0
   34.6680   25.2240   46.9640 H   0  0  0  0  0  0  0  0  0  0  0  0
   33.5960   25.2000   48.4480 H   0  0  0  0  0  0  0  0  0  0  0  0
   31.5470   25.7490   47.1240 H   0  0  0  0  0  0  0  0  0  0  0  0
   32.5780   25.5360   45.1940 C   0  0  0  0  0  2  0  0  0  0  0  0
   31.3000   25.1470   44.6530 N   0  0  0  0  0  4  0  0  0  0  0  0
   31.3810   24.5930   43.7710 H   0  0  0  0  0  0  0  0  0  0  0  0
   30.5720   26.3760   44.3480 C   0  0  0  0  0  2  0  0  0  0  0  0
   29.6000   26.4470   44.8740 H   0  0  0  0  0  0  0  0  0  0  0  0
   30.4980   24.4530   45.6710 C   0  0  0  0  0  2  0  0  0  0  0  0
   30.9280   24.6820   46.6710 H   0  0  0  0  0  0  0  0  0  0  0  0
  1  8  1  0  0  0  0
  1  2  2  0  0  0  0
  2  6  1  0  0  0  0
  3  2  1  0  0  0  0
  3  7  1  0  0  0  0
  4  3  2  0  0  0  0
  5  4  1  0  0  0  0
  5  1  1  0  0  0  0
  8  9  2  0  0  0  0
 10 11  1  0  0  0  0
 10  8  1  0  0  0  0
 11 16  1  0  0  0  0
 12 17  1  0  0  0  0
 12 11  2  0  0  0  0
 13 12  1  0  0  0  0
 14 13  2  0  0  0  0
 14 15  1  0  0  0  0
 15 10  2  0  0  0  0
 18 14  1  0  0  0  0
 19 20  2  0  0  0  0
 19  4  1  0  0  0  0
 21 24  1  6  0  0  0
 21 22  1  0  0  0  0
 21 19  1  0  0  0  0
 22 26  1  0  0  0  0
 23 27  1  1  0  0  0
 23 21  1  0  0  0  0
 23 22  1  0  0  0  0
 25 22  1  0  0  0  0
 28 23  1  0  0  0  0
 29 28  1  0  0  0  0
 29 33  1  0  0  0  0
 30 29  1  0  0  0  0
 31 29  1  0  0  0  0
 31 32  1  0  0  0  0
 33 34  1  0  0  0  0
M  END
>  <minimizedAffinity>
-4.67012835

>  <minimizedRMSD>
0.902538478

$$$$
