
 OpenBabel03272507333D

 34 36  0  0  1  0  0  0  0  0999 V2000
   35.8150   29.1400   49.8050 C   0  0  0  0  0  0  0  0  0  0  0  0
   34.8080   29.6590   50.5890 C   0  0  0  0  0  0  0  0  0  0  0  0
   33.5970   29.1330   50.1160 C   0  0  0  0  0  0  0  0  0  0  0  0
   33.9470   28.3200   49.0630 C   0  0  0  0  0  0  0  0  0  0  0  0
   35.2540   28.3560   48.9180 O   0  0  0  0  0  0  0  0  0  0  0  0
   34.8420   30.3380   51.4220 H   0  0  0  0  0  0  0  0  0  0  0  0
   32.6030   29.3140   50.4820 H   0  0  0  0  0  0  0  0  0  0  0  0
   37.2110   29.4750   50.0170 C   0  0  0  0  0  0  0  0  0  0  0  0
   37.8600   28.8580   50.8740 O   0  0  0  0  0  0  0  0  0  0  0  0
   37.7630   30.5230   49.2030 C   0  0  0  0  0  0  0  0  0  0  0  0
   38.1110   31.7010   49.8430 C   0  0  0  0  0  0  0  0  0  0  0  0
   38.6470   32.7420   49.0770 C   0  0  0  0  0  0  0  0  0  0  0  0
   38.8020   32.5380   47.7260 N   0  0  0  0  0  0  0  0  0  0  0  0
   38.4560   31.3860   47.1440 C   0  0  0  0  0  0  0  0  0  0  0  0
   37.9400   30.3840   47.8690 N   0  0  0  0  0  0  0  0  0  0  0  0
   38.0030   31.8950   50.9000 H   0  0  0  0  0  0  0  0  0  0  0  0
   38.9340   33.6700   49.5100 H   0  0  0  0  0  0  0  0  0  0  0  0
   38.5790   31.2310   46.0760 H   0  0  0  0  0  0  0  0  0  0  0  0
   33.0260   27.5360   48.2380 C   0  0  0  0  0  0  0  0  0  0  0  0
   31.8040   27.4690   48.6000 O   0  0  0  0  0  0  0  0  0  0  0  0
   33.5180   26.8310   47.0080 C   0  0  1  0  0  0  0  0  0  0  0  0
   33.7880   25.3130   47.3330 C   0  0  0  0  0  0  0  0  0  0  0  0
   32.7280   25.7620   46.3950 C   0  0  2  0  0  0  0  0  0  0  0  0
   34.4750   27.2530   46.6310 H   0  0  0  0  0  0  0  0  0  0  0  0
   34.7230   24.8780   46.9820 H   0  0  0  0  0  0  0  0  0  0  0  0
   33.4550   24.9400   48.3010 H   0  0  0  0  0  0  0  0  0  0  0  0
   31.6730   25.6950   46.7170 H   0  0  0  0  0  0  0  0  0  0  0  0
   32.9420   25.4050   44.9460 C   0  0  0  0  0  2  0  0  0  0  0  0
   33.2000   24.0060   44.7200 N   0  0  0  0  0  4  0  0  0  0  0  0
   33.9090   23.6100   45.3790 H   0  0  0  0  0  0  0  0  0  0  0  0
   33.7270   23.8830   43.3640 C   0  0  0  0  0  2  0  0  0  0  0  0
   33.1240   23.2100   42.7240 H   0  0  0  0  0  0  0  0  0  0  0  0
   31.9450   23.2410   44.7310 C   0  0  0  0  0  2  0  0  0  0  0  0
   31.1020   23.9520   44.5840 H   0  0  0  0  0  0  0  0  0  0  0  0
  1  8  1  0  0  0  0
  1  2  2  0  0  0  0
  2  6  1  0  0  0  0
  3  7  1  0  0  0  0
  3  2  1  0  0  0  0
  4  3  2  0  0  0  0
  5  4  1  0  0  0  0
  5  1  1  0  0  0  0
  8  9  2  0  0  0  0
 10 11  1  0  0  0  0
 10  8  1  0  0  0  0
 11 16  1  0  0  0  0
 12 17  1  0  0  0  0
 12 11  2  0  0  0  0
 13 12  1  0  0  0  0
 14 13  2  0  0  0  0
 14 15  1  0  0  0  0
 15 10  2  0  0  0  0
 18 14  1  0  0  0  0
 19 20  2  0  0  0  0
 19  4  1  0  0  0  0
 21 24  1  6  0  0  0
 21 22  1  0  0  0  0
 21 19  1  0  0  0  0
 22 26  1  0  0  0  0
 23 27  1  1  0  0  0
 23 21  1  0  0  0  0
 23 22  1  0  0  0  0
 25 22  1  0  0  0  0
 28 23  1  0  0  0  0
 29 33  1  0  0  0  0
 29 28  1  0  0  0  0
 29 30  1  0  0  0  0
 31 29  1  0  0  0  0
 32 31  1  0  0  0  0
 34 33  1  0  0  0  0
M  END
>  <minimizedAffinity>
-4.59549713

>  <minimizedRMSD>
0.263878912

$$$$
