
 OpenBabel03272507333D

 34 36  0  0  1  0  0  0  0  0999 V2000
   35.8530   29.1400   49.8030 C   0  0  0  0  0  0  0  0  0  0  0  0
   34.8020   29.6180   50.5530 C   0  0  0  0  0  0  0  0  0  0  0  0
   33.6280   29.0470   50.0400 C   0  0  0  0  0  0  0  0  0  0  0  0
   34.0450   28.2480   49.0000 C   0  0  0  0  0  0  0  0  0  0  0  0
   35.3530   28.3350   48.8980 O   0  0  0  0  0  0  0  0  0  0  0  0
   34.7830   30.2980   51.3860 H   0  0  0  0  0  0  0  0  0  0  0  0
   32.6170   29.1900   50.3730 H   0  0  0  0  0  0  0  0  0  0  0  0
   37.2280   29.5280   50.0610 C   0  0  0  0  0  0  0  0  0  0  0  0
   37.8590   28.9620   50.9660 O   0  0  0  0  0  0  0  0  0  0  0  0
   37.7810   30.5640   49.2330 C   0  0  0  0  0  0  0  0  0  0  0  0
   38.1170   31.7560   49.8560 C   0  0  0  0  0  0  0  0  0  0  0  0
   38.6540   32.7860   49.0760 C   0  0  0  0  0  0  0  0  0  0  0  0
   38.8210   32.5600   47.7300 N   0  0  0  0  0  0  0  0  0  0  0  0
   38.4860   31.3960   47.1650 C   0  0  0  0  0  0  0  0  0  0  0  0
   37.9690   30.4040   47.9030 N   0  0  0  0  0  0  0  0  0  0  0  0
   38.0000   31.9660   50.9080 H   0  0  0  0  0  0  0  0  0  0  0  0
   38.9330   33.7230   49.4950 H   0  0  0  0  0  0  0  0  0  0  0  0
   38.6190   31.2230   46.1010 H   0  0  0  0  0  0  0  0  0  0  0  0
   33.1820   27.4310   48.1460 C   0  0  0  0  0  0  0  0  0  0  0  0
   31.9320   27.4080   48.4000 O   0  0  0  0  0  0  0  0  0  0  0  0
   33.7640   26.6410   47.0100 C   0  0  1  0  0  0  0  0  0  0  0  0
   33.7550   25.1050   47.3660 C   0  0  0  0  0  0  0  0  0  0  0  0
   32.9410   25.6840   46.2680 C   0  0  2  0  0  0  0  0  0  0  0  0
   34.8210   26.9150   46.8000 H   0  0  0  0  0  0  0  0  0  0  0  0
   34.6630   24.5350   47.1730 H   0  0  0  0  0  0  0  0  0  0  0  0
   33.2170   24.8010   48.2630 H   0  0  0  0  0  0  0  0  0  0  0  0
   31.8490   25.7740   46.4090 H   0  0  0  0  0  0  0  0  0  0  0  0
   33.3380   25.2740   44.8720 C   0  0  0  0  0  2  0  0  0  0  0  0
   34.7190   25.5390   44.5560 N   0  0  0  0  0  4  0  0  0  0  0  0
   35.2300   26.0220   45.3290 H   0  0  0  0  0  0  0  0  0  0  0  0
   34.7290   26.4160   43.3890 C   0  0  0  0  0  2  0  0  0  0  0  0
   35.2870   25.9920   42.5320 H   0  0  0  0  0  0  0  0  0  0  0  0
   35.3940   24.3040   44.1310 C   0  0  0  0  0  2  0  0  0  0  0  0
   34.6160   23.5600   43.8500 H   0  0  0  0  0  0  0  0  0  0  0  0
  1  8  1  0  0  0  0
  1  2  2  0  0  0  0
  2  6  1  0  0  0  0
  3  7  1  0  0  0  0
  3  2  1  0  0  0  0
  4  3  2  0  0  0  0
  5  4  1  0  0  0  0
  5  1  1  0  0  0  0
  8  9  2  0  0  0  0
 10 11  1  0  0  0  0
 10  8  1  0  0  0  0
 11 16  1  0  0  0  0
 12 17  1  0  0  0  0
 12 11  2  0  0  0  0
 13 12  1  0  0  0  0
 14 13  2  0  0  0  0
 14 15  1  0  0  0  0
 15 10  2  0  0  0  0
 18 14  1  0  0  0  0
 19 20  2  0  0  0  0
 19  4  1  0  0  0  0
 21 24  1  6  0  0  0
 21 22  1  0  0  0  0
 21 19  1  0  0  0  0
 22 26  1  0  0  0  0
 23 27  1  1  0  0  0
 23 21  1  0  0  0  0
 23 22  1  0  0  0  0
 25 22  1  0  0  0  0
 28 23  1  0  0  0  0
 29 28  1  0  0  0  0
 29 30  1  0  0  0  0
 31 29  1  0  0  0  0
 32 31  1  0  0  0  0
 33 29  1  0  0  0  0
 34 33  1  0  0  0  0
M  END
>  <minimizedAffinity>
-4.70366001

>  <minimizedRMSD>
0.328755826

$$$$
