
 OpenBabel03272507323D

 34 36  0  0  1  0  0  0  0  0999 V2000
   35.8570   29.1450   49.8100 C   0  0  0  0  0  0  0  0  0  0  0  0
   34.8060   29.6250   50.5610 C   0  0  0  0  0  0  0  0  0  0  0  0
   33.6330   29.0480   50.0540 C   0  0  0  0  0  0  0  0  0  0  0  0
   34.0490   28.2460   49.0170 C   0  0  0  0  0  0  0  0  0  0  0  0
   35.3560   28.3350   48.9110 O   0  0  0  0  0  0  0  0  0  0  0  0
   34.7880   30.3080   51.3910 H   0  0  0  0  0  0  0  0  0  0  0  0
   32.6220   29.1900   50.3890 H   0  0  0  0  0  0  0  0  0  0  0  0
   37.2320   29.5380   50.0630 C   0  0  0  0  0  0  0  0  0  0  0  0
   37.8640   28.9830   50.9740 O   0  0  0  0  0  0  0  0  0  0  0  0
   37.7830   30.5660   49.2230 C   0  0  0  0  0  0  0  0  0  0  0  0
   38.1330   31.7590   49.8350 C   0  0  0  0  0  0  0  0  0  0  0  0
   38.6680   32.7800   49.0430 C   0  0  0  0  0  0  0  0  0  0  0  0
   38.8200   32.5450   47.6970 N   0  0  0  0  0  0  0  0  0  0  0  0
   38.4720   31.3800   47.1430 C   0  0  0  0  0  0  0  0  0  0  0  0
   37.9570   30.3960   47.8930 N   0  0  0  0  0  0  0  0  0  0  0  0
   38.0270   31.9770   50.8870 H   0  0  0  0  0  0  0  0  0  0  0  0
   38.9570   33.7180   49.4540 H   0  0  0  0  0  0  0  0  0  0  0  0
   38.5930   31.2000   46.0790 H   0  0  0  0  0  0  0  0  0  0  0  0
   33.1860   27.4220   48.1680 C   0  0  0  0  0  0  0  0  0  0  0  0
   31.9420   27.3700   48.4470 O   0  0  0  0  0  0  0  0  0  0  0  0
   33.7610   26.6590   47.0100 C   0  0  1  0  0  0  0  0  0  0  0  0
   33.7570   25.1160   47.3310 C   0  0  0  0  0  0  0  0  0  0  0  0
   32.9340   25.7180   46.2520 C   0  0  2  0  0  0  0  0  0  0  0  0
   34.8160   26.9400   46.7990 H   0  0  0  0  0  0  0  0  0  0  0  0
   34.6650   24.5520   47.1190 H   0  0  0  0  0  0  0  0  0  0  0  0
   33.2250   24.7910   48.2250 H   0  0  0  0  0  0  0  0  0  0  0  0
   31.8430   25.8040   46.4030 H   0  0  0  0  0  0  0  0  0  0  0  0
   33.3220   25.3420   44.8450 C   0  0  0  0  0  2  0  0  0  0  0  0
   34.5980   25.8680   44.4300 N   0  0  0  0  0  4  0  0  0  0  0  0
   35.0490   26.4680   45.1580 H   0  0  0  0  0  0  0  0  0  0  0  0
   34.3570   26.6940   43.2510 C   0  0  0  0  0  2  0  0  0  0  0  0
   34.9330   26.3650   42.3650 H   0  0  0  0  0  0  0  0  0  0  0  0
   35.4820   24.7820   43.9820 C   0  0  0  0  0  2  0  0  0  0  0  0
   34.8540   23.8880   43.7670 H   0  0  0  0  0  0  0  0  0  0  0  0
  1  8  1  0  0  0  0
  1  2  2  0  0  0  0
  2  6  1  0  0  0  0
  3  7  1  0  0  0  0
  3  2  1  0  0  0  0
  4  3  2  0  0  0  0
  5  4  1  0  0  0  0
  5  1  1  0  0  0  0
  8  9  2  0  0  0  0
 10 11  1  0  0  0  0
 10  8  1  0  0  0  0
 11 16  1  0  0  0  0
 12 17  1  0  0  0  0
 12 11  2  0  0  0  0
 13 12  1  0  0  0  0
 14 13  2  0  0  0  0
 14 15  1  0  0  0  0
 15 10  2  0  0  0  0
 18 14  1  0  0  0  0
 19 20  2  0  0  0  0
 19  4  1  0  0  0  0
 21 24  1  6  0  0  0
 21 22  1  0  0  0  0
 21 19  1  0  0  0  0
 22 26  1  0  0  0  0
 23 27  1  1  0  0  0
 23 21  1  0  0  0  0
 23 22  1  0  0  0  0
 25 22  1  0  0  0  0
 28 23  1  0  0  0  0
 29 28  1  0  0  0  0
 29 30  1  0  0  0  0
 31 29  1  0  0  0  0
 32 31  1  0  0  0  0
 33 29  1  0  0  0  0
 34 33  1  0  0  0  0
M  END
>  <minimizedAffinity>
-4.69300699

>  <minimizedRMSD>
0.742239058

$$$$
