REMARK  Name = 
REMARK  4 active torsions:
REMARK  status: ('A' for Active; 'I' for Inactive)
REMARK    1  A    between atoms: C_5  and  O_7
REMARK    2  A    between atoms: O_7  and  C_8
REMARK    3  A    between atoms: C_8  and  C_9
REMARK    4  A    between atoms: C_9  and  C_17
REMARK                            x       y       z     vdW  Elec       q    Type
REMARK                         _______ _______ _______ _____ _____    ______ ____
ROOT
ATOM      1  C   UNL     1      33.837  27.035  47.936  0.00  0.00    +0.000 C 
ATOM      2  H   UNL     1      33.036  26.653  48.621  0.00  0.00    +0.000 HD
ATOM      3  H   UNL     1      34.658  26.296  48.049  0.00  0.00    +0.000 HD
ENDROOT
BRANCH   1   4
ATOM      4  C   UNL     1      33.269  27.052  46.575  0.00  0.00    +0.000 A 
ATOM      5  N   UNL     1      33.480  28.099  45.742  0.00  0.00    +0.000 NA
ATOM      6  C   UNL     1      33.020  28.163  44.502  0.00  0.00    +0.000 A 
ATOM      7  N   UNL     1      32.294  27.150  43.999  0.00  0.00    +0.000 NA
ATOM      8  C   UNL     1      32.025  26.068  44.733  0.00  0.00    +0.000 A 
ATOM      9  C   UNL     1      31.273  25.053  44.188  0.00  0.00    +0.000 A 
ATOM     10  C   UNL     1      31.026  23.968  45.003  0.00  0.00    +0.000 A 
ATOM     11  H   UNL     1      30.434  23.172  44.568  0.00  0.00    +0.000 HD
ATOM     12  C   UNL     1      31.493  23.871  46.307  0.00  0.00    +0.000 A 
ATOM     13  H   UNL     1      31.240  22.969  46.867  0.00  0.00    +0.000 HD
ATOM     14  C   UNL     1      32.241  24.930  46.786  0.00  0.00    +0.000 A 
ATOM     15  C   UNL     1      32.520  26.039  46.015  0.00  0.00    +0.000 A 
ENDBRANCH   1   4
BRANCH   1  16
ATOM     16  C   UNL     1      34.198  28.393  48.438  0.00  0.00    +0.000 C 
ATOM     17  H   UNL     1      33.285  29.032  48.440  0.00  0.00    +0.000 HD
ATOM     18  H   UNL     1      34.891  28.879  47.736  0.00  0.00    +0.000 HD
BRANCH  16  19
ATOM     19  O   UNL     1      34.745  28.308  49.746  0.00  0.00    +0.000 OA
BRANCH  19  24
ATOM     20  C   UNL     1      37.325  30.207  51.417  0.00  0.00    +0.000 A 
ATOM     21  C   UNL     1      38.050  30.661  50.315  0.00  0.00    +0.000 A 
ATOM     22  C   UNL     1      37.614  30.288  49.038  0.00  0.00    +0.000 A 
ATOM     23  N   UNL     1      36.497  29.500  48.973  0.00  0.00    +0.000 NA
ATOM     24  C   UNL     1      35.831  29.087  50.056  0.00  0.00    +0.000 A 
ATOM     25  N   UNL     1      36.259  29.451  51.282  0.00  0.00    +0.000 NA
ATOM     26  H   UNL     1      37.644  30.483  52.422  0.00  0.00    +0.000 HD
ATOM     27  H   UNL     1      38.924  31.281  50.426  0.00  0.00    +0.000 HD
ATOM     28  H   UNL     1      38.134  30.607  48.141  0.00  0.00    +0.000 HD
ENDBRANCH  19  24
ENDBRANCH  16  19
ENDBRANCH   1  16
TORSDOF 4
