REMARK  Name = 
REMARK  6 active torsions:
REMARK  status: ('A' for Active; 'I' for Inactive)
REMARK    1  A    between atoms: C_1  and  C_4
REMARK    2  A    between atoms: C_3  and  O_11
REMARK    3  A    between atoms: O_11  and  P_13
REMARK    4  A    between atoms: P_13  and  O_14
REMARK    5  A    between atoms: P_13  and  O_15
REMARK    6  A    between atoms: O_15  and  C_25
REMARK                            x       y       z     vdW  Elec       q    Type
REMARK                         _______ _______ _______ _____ _____    ______ ____
ROOT
ATOM      1  C   UNL     1      36.982  31.572  48.669  0.00  0.00    +0.000 C 
ATOM      2  C   UNL     1      36.213  30.920  47.635  0.00  0.00    +0.000 C 
ATOM      3  C   UNL     1      37.176  30.134  48.468  0.00  0.00    +0.000 C 
ATOM      4  H   UNL     1      36.541  31.840  49.690  0.00  0.00    +0.000 HD
ATOM      5  H   UNL     1      35.179  31.167  47.800  0.00  0.00    +0.000 HD
ATOM      6  H   UNL     1      36.516  31.107  46.585  0.00  0.00    +0.000 HD
ATOM      7  H   UNL     1      37.877  29.621  47.832  0.00  0.00    +0.000 HD
ENDROOT
BRANCH   1   8
ATOM      8  C   UNL     1      38.145  32.462  48.326  0.00  0.00    +0.000 A 
ATOM      9  C   UNL     1      38.536  33.374  49.321  0.00  0.00    +0.000 A 
ATOM     10  C   UNL     1      39.604  34.175  48.985  0.00  0.00    +0.000 A 
ATOM     11  N   UNL     1      40.199  34.054  47.777  0.00  0.00    +0.000 NA
ATOM     12  C   UNL     1      39.793  33.160  46.844  0.00  0.00    +0.000 A 
ATOM     13  N   UNL     1      38.729  32.336  47.128  0.00  0.00    +0.000 NA
ATOM     14  N   UNL     1      40.405  32.996  45.597  0.00  0.00    +0.000 N 
ATOM     15  H   UNL     1      38.080  33.479  50.272  0.00  0.00    +0.000 HD
ATOM     16  H   UNL     1      39.962  34.903  49.701  0.00  0.00    +0.000 HD
ATOM     17  H   UNL     1      41.322  32.471  45.479  0.00  0.00    +0.000 HD
ATOM     18  H   UNL     1      39.943  33.403  44.760  0.00  0.00    +0.000 HD
ENDBRANCH   1   8
BRANCH   3  19
ATOM     19  O   UNL     1      36.596  29.309  49.435  0.00  0.00    +0.000 OA
BRANCH  19  21
ATOM     20  O   UNL     1      34.627  27.668  49.697  0.00  0.00    +0.000 OA
ATOM     21  P   UNL     1      35.019  28.951  49.037  0.00  0.00    +0.000 P 
BRANCH  21  22
ATOM     22  O   UNL     1      33.973  30.148  49.730  0.00  0.00    +0.000 OA
ATOM     23  H   UNL     1      33.070  29.783  49.561  0.00  0.00    +0.000 HD
ENDBRANCH  21  22
BRANCH  21  24
ATOM     24  O   UNL     1      34.857  28.949  47.367  0.00  0.00    +0.000 OA
BRANCH  24  25
ATOM     25  C   UNL     1      35.079  27.933  46.488  0.00  0.00    +0.000 A 
ATOM     26  N   UNL     1      35.966  26.952  46.660  0.00  0.00    +0.000 NA
ATOM     27  C   UNL     1      36.067  26.020  45.697  0.00  0.00    +0.000 A 
ATOM     28  N   UNL     1      35.310  26.043  44.574  0.00  0.00    +0.000 NA
ATOM     29  C   UNL     1      34.402  27.011  44.354  0.00  0.00    +0.000 A 
ATOM     30  C   UNL     1      33.611  27.064  43.218  0.00  0.00    +0.000 A 
ATOM     31  C   UNL     1      32.700  28.065  43.032  0.00  0.00    +0.000 A 
ATOM     32  H   UNL     1      32.070  28.134  42.158  0.00  0.00    +0.000 HD
ATOM     33  C   UNL     1      32.568  29.031  43.989  0.00  0.00    +0.000 A 
ATOM     34  H   UNL     1      31.851  29.834  43.863  0.00  0.00    +0.000 HD
ATOM     35  C   UNL     1      33.360  28.968  45.117  0.00  0.00    +0.000 A 
ATOM     36  C   UNL     1      34.283  27.982  45.338  0.00  0.00    +0.000 A 
ENDBRANCH  24  25
ENDBRANCH  21  24
ENDBRANCH  19  21
ENDBRANCH   3  19
TORSDOF 6
