
 OpenBabel03272503303D

 37 40  0  0  1  0  0  0  0  0999 V2000
   36.9630   30.5830   46.4410 C   0  0  0  0  0  0  0  0  0  0  0  0
   37.8310   30.5470   45.3340 C   0  0  0  0  0  0  0  0  0  0  0  0
   37.2620   30.2610   44.0970 C   0  0  0  0  0  0  0  0  0  0  0  0
   35.9060   30.0370   44.0470 N   0  0  0  0  0  0  0  0  0  0  0  0
   35.1230   30.0810   45.1210 C   0  0  0  0  0  0  0  0  0  0  0  0
   35.6520   30.3550   46.3230 N   0  0  0  0  0  0  0  0  0  0  0  0
   38.8920   30.7330   45.4320 H   0  0  0  0  0  0  0  0  0  0  0  0
   37.8620   30.2170   43.2030 H   0  0  0  0  0  0  0  0  0  0  0  0
   37.5540   30.8770   47.7140 N   0  0  0  0  0  0  0  0  0  0  0  0
   38.8240   31.4940   47.9620 C   0  0  0  0  0  0  0  0  0  0  0  0
   38.6070   32.1730   49.3060 C   0  0  2  0  0  0  0  0  0  0  0  0
   37.1540   31.9560   49.6560 C   0  0  0  0  0  0  0  0  0  0  0  0
   36.9590   30.5980   49.0030 C   0  0  0  0  0  0  0  0  0  0  0  0
   39.0930   32.2480   47.2000 H   0  0  0  0  0  0  0  0  0  0  0  0
   39.6230   30.7330   48.0000 H   0  0  0  0  0  0  0  0  0  0  0  0
   39.2290   31.6500   50.0500 H   0  0  0  0  0  0  0  0  0  0  0  0
   36.4690   32.7030   49.2510 H   0  0  0  0  0  0  0  0  0  0  0  0
   37.0840   31.7920   50.7480 H   0  0  0  0  0  0  0  0  0  0  0  0
   35.8620   30.4350   48.9150 H   0  0  0  0  0  0  0  0  0  0  0  0
   37.4780   29.8160   49.5800 H   0  0  0  0  0  0  0  0  0  0  0  0
   38.9840   33.6290   49.2840 C   0  0  0  0  0  0  0  0  0  0  0  0
   37.7960   34.3420   49.1790 F   0  0  0  0  0  0  0  0  0  0  0  0
   39.6710   33.8570   48.1090 F   0  0  0  0  0  0  0  0  0  0  0  0
   39.7310   34.0100   50.3590 F   0  0  0  0  0  0  0  0  0  0  0  0
   33.3700   29.7770   44.9860 S   0  0  0  0  0  0  0  0  0  0  0  0
   32.8840   28.6880   46.3150 C   0  0  0  0  0  0  0  0  0  0  0  0
   33.9080   27.9380   46.7970 N   0  0  0  0  0  0  0  0  0  0  0  0
   33.7080   27.0610   47.8060 C   0  0  0  0  0  3  0  0  0  0  0  0
   32.4860   26.9240   48.3420 N   0  0  0  0  0  0  0  0  0  0  0  0
   31.4330   27.6580   47.8850 C   0  0  0  0  0  0  0  0  0  0  0  0
   30.1460   27.5620   48.3980 C   0  0  0  0  0  3  0  0  0  0  0  0
   29.1430   28.3580   47.8600 C   0  0  0  0  0  0  0  0  0  0  0  0
   28.1910   28.1920   48.3410 H   0  0  0  0  0  0  0  0  0  0  0  0
   29.3760   29.2430   46.8310 C   0  0  0  0  0  0  0  0  0  0  0  0
   28.5590   29.8280   46.4610 H   0  0  0  0  0  0  0  0  0  0  0  0
   30.6590   29.3610   46.2960 C   0  0  0  0  0  3  0  0  0  0  0  0
   31.6270   28.5560   46.8570 C   0  0  0  0  0  0  0  0  0  0  0  0
  1  9  1  0  0  0  0
  2  7  1  0  0  0  0
  2  1  2  0  0  0  0
  3  2  1  0  0  0  0
  4  3  2  0  0  0  0
  4  5  1  0  0  0  0
  5  6  2  0  0  0  0
  6  1  1  0  0  0  0
  8  3  1  0  0  0  0
  9 10  1  0  0  0  0
  9 13  1  0  0  0  0
 10 15  1  0  0  0  0
 10 11  1  0  0  0  0
 11 12  1  0  0  0  0
 11 16  1  1  0  0  0
 12 18  1  0  0  0  0
 13 20  1  0  0  0  0
 13 12  1  0  0  0  0
 14 10  1  0  0  0  0
 17 12  1  0  0  0  0
 19 13  1  0  0  0  0
 21 11  1  0  0  0  0
 21 24  1  0  0  0  0
 22 21  1  0  0  0  0
 23 21  1  0  0  0  0
 25  5  1  0  0  0  0
 25 26  1  0  0  0  0
 26 27  2  0  0  0  0
 26 37  1  0  0  0  0
 27 28  1  0  0  0  0
 28 29  2  0  0  0  0
 30 29  1  0  0  0  0
 30 31  1  0  0  0  0
 32 33  1  0  0  0  0
 32 31  2  0  0  0  0
 34 32  1  0  0  0  0
 35 34  1  0  0  0  0
 36 34  2  0  0  0  0
 36 37  1  0  0  0  0
 37 30  2  0  0  0  0
M  END
>  <minimizedAffinity>
-6.11745596

>  <minimizedRMSD>
3.2982986

$$$$
