
     RDKit          3D

 29 31  0  0  0  0  0  0  0  0999 V2000
   37.7684   30.5283   49.3460 C   0  0  0  0  0  0  0  0  0  0  0  0
   38.2361   31.7308   49.8456 C   0  0  0  0  0  0  0  0  0  0  0  0
   38.6232   32.6953   48.9244 C   0  0  0  0  0  0  0  0  0  0  0  0
   38.5291   32.4249   47.5725 N   0  0  0  0  0  0  0  0  0  0  0  0
   38.0614   31.2242   47.1536 C   0  0  0  0  0  0  0  0  0  0  0  0
   37.6909   30.3007   48.0205 N   0  0  0  0  0  0  0  0  0  0  0  0
   37.2888   29.3353   50.5794 S   0  0  0  0  0  0  0  0  0  0  0  0
   35.5014   29.3417   50.7264 C   0  0  0  0  0  0  0  0  0  0  0  0
   34.6847   28.4028   49.4037 S   0  0  0  0  0  0  0  0  0  0  0  0
   38.3295   31.9926   50.8918 H   0  0  0  0  0  0  0  0  0  0  0  0
   39.0016   33.6654   49.2040 H   0  0  0  0  0  0  0  0  0  0  0  0
   38.0223   31.1002   46.0780 H   0  0  0  0  0  0  0  0  0  0  0  0
   35.1423   29.0375   51.7247 H   0  0  0  0  0  0  0  0  0  0  0  0
   35.1661   30.4115   50.5901 H   0  0  0  0  0  0  0  0  0  0  0  0
   32.9186   28.4407   49.5955 C   0  0  0  0  0  0  0  0  0  0  0  0
   32.4966   28.8632   50.8051 N   0  0  0  0  0  0  0  0  0  0  0  0
   31.1817   28.9372   51.0768 C   0  0  0  0  0  0  0  0  0  0  0  0
   30.2649   28.5940   50.1547 N   0  0  0  0  0  0  0  0  0  0  0  0
   30.6479   28.1697   48.9419 C   0  0  0  0  0  0  0  0  0  0  0  0
   29.7052   27.8107   47.9764 C   0  0  0  0  0  0  0  0  0  0  0  0
   30.1960   27.3831   46.7486 C   0  0  0  0  0  0  0  0  0  0  0  0
   29.4225   27.1184   46.0407 H   0  0  0  0  0  0  0  0  0  0  0  0
   31.5433   27.3102   46.4786 C   0  0  0  0  0  0  0  0  0  0  0  0
   31.8704   26.9674   45.4980 H   0  0  0  0  0  0  0  0  0  0  0  0
   32.4843   27.6666   47.4369 C   0  0  0  0  0  0  0  0  0  0  0  0
   31.9773   28.0892   48.6510 C   0  0  0  0  0  0  0  0  0  0  0  0
   30.7807   29.2734   52.0423 H   0  0  0  0  0  0  0  0  0  0  0  0
   28.6740   27.8941   48.2604 H   0  0  0  0  0  0  0  0  0  0  0  0
   33.5383   27.6156   47.2426 H   0  0  0  0  0  0  0  0  0  0  0  0
  1  2  2  0
  1  7  1  0
  3  2  1  0
  4  3  2  0
  5  4  1  0
  5  6  2  0
  6  1  1  0
  7  8  1  0
  9  8  1  0
  2 10  1  0
  3 11  1  0
  5 12  1  0
  8 13  1  0
  8 14  1  0
 15 16  2  0
 16 17  1  0
 17 18  2  0
 18 19  1  0
 19 20  2  0
 20 21  1  0
 21 22  1  0
 21 23  2  0
 23 24  1  0
 23 25  1  0
 25 26  2  0
 26 15  1  0
 26 19  1  0
 17 27  1  0
 20 28  1  0
 25 29  1  0
  9 15  1  0
M  ISO  7  10  14  11  14  12  14  13   8  14   8  22  16  24  16
M  END
>  <DihAtoms>  (1) 
7,8,14,15

>  <DihDeg>  (1) 
-89.64093797528307

$$$$
