
 OpenBabel03272503143D

 49 54  0  0  0  0  0  0  0  0999 V2000
   36.8050   28.1100   33.9100 C   0  0  0  0  0  0  0  0  0  0  0  0
   37.6550   27.0900   33.5420 C   0  0  0  0  0  0  0  0  0  0  0  0
   38.0330   26.8740   32.2550 C   0  0  0  0  0  0  0  0  0  0  0  0
   37.5610   27.6960   31.2440 C   0  0  0  0  0  0  0  0  0  0  0  0
   37.7500   27.7310   29.9250 N   0  0  0  0  0  0  0  0  0  0  0  0
   37.0370   28.7540   29.4360 C   0  0  0  0  0  0  0  0  0  0  0  0
   36.4030   29.3590   30.4510 N   0  0  0  0  0  0  0  0  0  0  0  0
   36.7070   28.7220   31.6060 C   0  0  0  0  0  0  0  0  0  0  0  0
   36.3030   28.9680   32.9150 C   0  0  0  0  0  0  0  0  0  0  0  0
   36.4990   28.2890   34.9330 H   0  0  0  0  0  0  0  0  0  0  0  0
   38.7060   26.0490   32.0410 H   0  0  0  0  0  0  0  0  0  0  0  0
   38.3620   27.0530   29.3940 H   0  0  0  0  0  0  0  0  0  0  0  0
   36.9980   29.0260   28.3860 H   0  0  0  0  0  0  0  0  0  0  0  0
   38.1220   26.2580   34.6320 C   0  0  0  0  0  0  0  0  0  0  0  0
   38.8920   26.7370   35.5240 O   0  0  0  0  0  0  0  0  0  0  0  0
   37.7720   24.8780   34.7940 N   0  0  0  0  0  0  0  0  0  0  0  0
   37.1560   24.4660   34.0890 H   0  0  0  0  0  0  0  0  0  0  0  0
   40.2110   23.6910   34.6700 F   0  0  0  0  0  0  0  0  0  0  0  0
   39.5900   23.6790   35.8770 C   0  0  0  0  0  0  0  0  0  0  0  0
   40.1900   23.0930   36.9510 C   0  0  0  0  0  0  0  0  0  0  0  0
   39.5000   23.1200   38.1380 C   0  0  0  0  0  0  0  0  0  0  0  0
   38.2730   23.6980   38.2700 C   0  0  0  0  0  0  0  0  0  0  0  0
   37.6800   24.2900   37.1630 C   0  0  0  0  0  0  0  0  0  0  0  0
   38.3550   24.2760   35.9520 C   0  0  0  0  0  0  0  0  0  0  0  0
   39.9690   22.6540   39.0030 H   0  0  0  0  0  0  0  0  0  0  0  0
   37.7410   23.7110   39.2160 H   0  0  0  0  0  0  0  0  0  0  0  0
   36.7090   24.7710   37.1800 H   0  0  0  0  0  0  0  0  0  0  0  0
   43.0080   20.5830   36.7140 C   0  0  0  0  0  0  0  0  0  0  0  0
   41.7140   21.1270   36.9120 C   0  0  0  0  0  0  0  0  0  0  0  0
   41.5050   22.4860   36.7590 C   0  0  0  0  0  0  0  0  0  0  0  0
   42.5850   23.2530   36.4150 N   0  0  0  0  0  0  0  0  0  0  0  0
   43.8040   22.7280   36.2310 C   0  0  0  0  0  0  0  0  0  0  0  0
   44.0070   21.4160   36.3780 N   0  0  0  0  0  0  0  0  0  0  0  0
   43.0790   19.5080   36.8560 H   0  0  0  0  0  0  0  0  0  0  0  0
   40.8350   20.5570   37.1840 H   0  0  0  0  0  0  0  0  0  0  0  0
   44.6760   23.2820   35.9630 H   0  0  0  0  0  0  0  0  0  0  0  0
   35.4530   29.9900   33.2700 O   0  0  0  0  0  0  0  0  0  0  0  0
   34.1780   29.8630   33.7510 C   0  0  0  0  0  0  0  0  0  0  0  0
   33.1440   29.1860   33.2080 N   0  0  0  0  0  0  0  0  0  0  0  0
   31.9320   29.1410   33.7900 C   0  0  0  0  0  3  0  0  0  0  0  0
   31.7220   29.7920   34.9630 N   0  0  0  0  0  0  0  0  0  0  0  0
   32.7090   30.4810   35.5520 C   0  0  0  0  0  0  0  0  0  0  0  0
   32.4260   31.1200   36.7460 C   0  0  0  0  0  3  0  0  0  0  0  0
   33.4330   31.8210   37.3430 C   0  0  0  0  0  0  0  0  0  0  0  0
   33.2980   32.3480   38.2740 H   0  0  0  0  0  0  0  0  0  0  0  0
   34.6770   31.8990   36.7970 C   0  0  0  0  0  0  0  0  0  0  0  0
   35.5220   32.4440   37.2280 H   0  0  0  0  0  0  0  0  0  0  0  0
   34.9280   31.2510   35.6060 C   0  0  0  0  0  3  0  0  0  0  0  0
   33.9410   30.5210   34.9530 C   0  0  0  0  0  0  0  0  0  0  0  0
  1 10  1  0  0  0  0
  2  1  1  0  0  0  0
  2 14  1  0  0  0  0
  3  2  2  0  0  0  0
  4  8  2  0  0  0  0
  4  3  1  0  0  0  0
  5  4  1  0  0  0  0
  6  5  1  0  0  0  0
  6  7  2  0  0  0  0
  7  8  1  0  0  0  0
  8  9  1  0  0  0  0
  9 37  1  0  0  0  0
  9  1  2  0  0  0  0
 11  3  1  0  0  0  0
 12  5  1  0  0  0  0
 13  6  1  0  0  0  0
 14 16  1  0  0  0  0
 14 15  2  0  0  0  0
 16 24  1  0  0  0  0
 17 16  1  0  0  0  0
 18 19  1  0  0  0  0
 19 24  2  0  0  0  0
 19 20  1  0  0  0  0
 20 21  2  0  0  0  0
 21 22  1  0  0  0  0
 21 25  1  0  0  0  0
 22 26  1  0  0  0  0
 23 27  1  0  0  0  0
 23 22  2  0  0  0  0
 24 23  1  0  0  0  0
 28 34  1  0  0  0  0
 28 29  1  0  0  0  0
 29 35  1  0  0  0  0
 30 29  2  0  0  0  0
 30 20  1  0  0  0  0
 31 30  1  0  0  0  0
 32 33  1  0  0  0  0
 32 31  2  0  0  0  0
 33 28  2  0  0  0  0
 36 32  1  0  0  0  0
 37 38  1  0  0  0  0
 38 49  1  0  0  0  0
 39 38  2  0  0  0  0
 39 40  1  0  0  0  0
 40 41  2  0  0  0  0
 41 42  1  0  0  0  0
 42 43  1  0  0  0  0
 43 44  2  0  0  0  0
 44 45  1  0  0  0  0
 46 47  1  0  0  0  0
 46 44  1  0  0  0  0
 48 46  2  0  0  0  0
 49 42  2  0  0  0  0
 49 48  1  0  0  0  0
M  END
>  <minimizedAffinity>
-8.0892849

$$$$

 OpenBabel03272503143D

 49 54  0  0  0  0  0  0  0  0999 V2000
   36.6520   27.9720   34.0740 C   0  0  0  0  0  0  0  0  0  0  0  0
   37.6980   27.1570   33.7010 C   0  0  0  0  0  0  0  0  0  0  0  0
   38.2250   27.1600   32.4480 C   0  0  0  0  0  0  0  0  0  0  0  0
   37.7110   28.0080   31.4810 C   0  0  0  0  0  0  0  0  0  0  0  0
   38.0110   28.2300   30.2010 N   0  0  0  0  0  0  0  0  0  0  0  0
   37.1780   29.1730   29.7420 C   0  0  0  0  0  0  0  0  0  0  0  0
   36.3570   29.5410   30.7370 N   0  0  0  0  0  0  0  0  0  0  0  0
   36.6610   28.8290   31.8480 C   0  0  0  0  0  0  0  0  0  0  0  0
   36.1010   28.8480   33.1220 C   0  0  0  0  0  0  0  0  0  0  0  0
   36.2260   27.9750   35.0700 H   0  0  0  0  0  0  0  0  0  0  0  0
   39.0490   26.4880   32.2280 H   0  0  0  0  0  0  0  0  0  0  0  0
   38.7790   27.7300   29.6750 H   0  0  0  0  0  0  0  0  0  0  0  0
   37.1890   29.5580   28.7270 H   0  0  0  0  0  0  0  0  0  0  0  0
   38.2020   26.2880   34.7460 C   0  0  0  0  0  0  0  0  0  0  0  0
   38.9980   26.7400   35.6300 O   0  0  0  0  0  0  0  0  0  0  0  0
   37.8620   24.9020   34.8700 N   0  0  0  0  0  0  0  0  0  0  0  0
   37.2260   24.5120   34.1700 H   0  0  0  0  0  0  0  0  0  0  0  0
   40.3160   23.7620   34.6370 F   0  0  0  0  0  0  0  0  0  0  0  0
   39.7250   23.6900   35.8570 C   0  0  0  0  0  0  0  0  0  0  0  0
   40.3610   23.0690   36.8910 C   0  0  0  0  0  0  0  0  0  0  0  0
   39.7000   23.0360   38.0940 C   0  0  0  0  0  0  0  0  0  0  0  0
   38.4680   23.5870   38.2810 C   0  0  0  0  0  0  0  0  0  0  0  0
   37.8380   24.2150   37.2140 C   0  0  0  0  0  0  0  0  0  0  0  0
   38.4840   24.2620   35.9870 C   0  0  0  0  0  0  0  0  0  0  0  0
   40.1980   22.5430   38.9270 H   0  0  0  0  0  0  0  0  0  0  0  0
   37.9600   23.5530   39.2380 H   0  0  0  0  0  0  0  0  0  0  0  0
   36.8610   24.6780   37.2740 H   0  0  0  0  0  0  0  0  0  0  0  0
   43.1910   20.6130   36.3900 C   0  0  0  0  0  0  0  0  0  0  0  0
   41.8940   21.1260   36.6380 C   0  0  0  0  0  0  0  0  0  0  0  0
   41.6800   22.4930   36.6410 C   0  0  0  0  0  0  0  0  0  0  0  0
   42.7600   23.2980   36.3990 N   0  0  0  0  0  0  0  0  0  0  0  0
   43.9830   22.8010   36.1660 C   0  0  0  0  0  0  0  0  0  0  0  0
   44.1900   21.4810   36.1620 N   0  0  0  0  0  0  0  0  0  0  0  0
   43.2650   19.5280   36.4070 H   0  0  0  0  0  0  0  0  0  0  0  0
   41.0140   20.5260   36.8340 H   0  0  0  0  0  0  0  0  0  0  0  0
   44.8540   23.3860   35.9720 H   0  0  0  0  0  0  0  0  0  0  0  0
   35.0560   29.6670   33.4830 O   0  0  0  0  0  0  0  0  0  0  0  0
   35.0300   30.5430   34.5350 C   0  0  0  0  0  0  0  0  0  0  0  0
   35.9540   31.4650   34.8770 N   0  0  0  0  0  0  0  0  0  0  0  0
   35.8040   32.2700   35.9450 C   0  0  0  0  0  3  0  0  0  0  0  0
   34.6920   32.1650   36.7160 N   0  0  0  0  0  0  0  0  0  0  0  0
   33.7380   31.2690   36.4280 C   0  0  0  0  0  0  0  0  0  0  0  0
   32.6310   31.2170   37.2570 C   0  0  0  0  0  3  0  0  0  0  0  0
   31.6610   30.3030   36.9600 C   0  0  0  0  0  0  0  0  0  0  0  0
   30.7670   30.1960   37.5530 H   0  0  0  0  0  0  0  0  0  0  0  0
   31.7640   29.4660   35.8930 C   0  0  0  0  0  0  0  0  0  0  0  0
   31.0210   28.7160   35.6060 H   0  0  0  0  0  0  0  0  0  0  0  0
   32.8800   29.5430   35.0860 C   0  0  0  0  0  3  0  0  0  0  0  0
   33.8990   30.4540   35.3380 C   0  0  0  0  0  0  0  0  0  0  0  0
  1 10  1  0  0  0  0
  2  1  1  0  0  0  0
  2 14  1  0  0  0  0
  3  2  2  0  0  0  0
  4  8  2  0  0  0  0
  4  3  1  0  0  0  0
  5  4  1  0  0  0  0
  6  5  1  0  0  0  0
  6  7  2  0  0  0  0
  7  8  1  0  0  0  0
  8  9  1  0  0  0  0
  9 37  1  0  0  0  0
  9  1  2  0  0  0  0
 11  3  1  0  0  0  0
 12  5  1  0  0  0  0
 13  6  1  0  0  0  0
 14 16  1  0  0  0  0
 14 15  2  0  0  0  0
 16 24  1  0  0  0  0
 17 16  1  0  0  0  0
 18 19  1  0  0  0  0
 19 24  2  0  0  0  0
 19 20  1  0  0  0  0
 20 21  2  0  0  0  0
 21 22  1  0  0  0  0
 21 25  1  0  0  0  0
 22 26  1  0  0  0  0
 23 27  1  0  0  0  0
 23 22  2  0  0  0  0
 24 23  1  0  0  0  0
 28 34  1  0  0  0  0
 28 29  1  0  0  0  0
 29 30  2  0  0  0  0
 29 35  1  0  0  0  0
 30 20  1  0  0  0  0
 31 30  1  0  0  0  0
 32 31  2  0  0  0  0
 33 32  1  0  0  0  0
 33 28  2  0  0  0  0
 36 32  1  0  0  0  0
 37 38  1  0  0  0  0
 38 39  2  0  0  0  0
 38 49  1  0  0  0  0
 39 40  1  0  0  0  0
 40 41  2  0  0  0  0
 42 41  1  0  0  0  0
 42 43  1  0  0  0  0
 44 43  2  0  0  0  0
 44 45  1  0  0  0  0
 46 44  1  0  0  0  0
 47 46  1  0  0  0  0
 48 49  1  0  0  0  0
 48 46  2  0  0  0  0
 49 42  2  0  0  0  0
M  END
>  <minimizedAffinity>
-7.97901726

$$$$

 OpenBabel03272503143D

 49 54  0  0  0  0  0  0  0  0999 V2000
   37.6980   24.1440   32.7690 C   0  0  0  0  0  0  0  0  0  0  0  0
   36.5980   24.5320   32.0370 C   0  0  0  0  0  0  0  0  0  0  0  0
   35.8150   23.6510   31.3600 C   0  0  0  0  0  0  0  0  0  0  0  0
   36.1080   22.2980   31.3870 C   0  0  0  0  0  0  0  0  0  0  0  0
   35.5400   21.2230   30.8380 N   0  0  0  0  0  0  0  0  0  0  0  0
   36.2540   20.1500   31.2030 C   0  0  0  0  0  0  0  0  0  0  0  0
   37.2680   20.5550   31.9820 N   0  0  0  0  0  0  0  0  0  0  0  0
   37.2110   21.9010   32.1210 C   0  0  0  0  0  0  0  0  0  0  0  0
   38.0310   22.7790   32.8240 C   0  0  0  0  0  0  0  0  0  0  0  0
   38.3270   24.8400   33.3110 H   0  0  0  0  0  0  0  0  0  0  0  0
   34.9640   24.0320   30.8030 H   0  0  0  0  0  0  0  0  0  0  0  0
   34.6790   21.2540   30.2270 H   0  0  0  0  0  0  0  0  0  0  0  0
   36.0250   19.1330   30.9040 H   0  0  0  0  0  0  0  0  0  0  0  0
   36.3310   25.9560   32.0370 C   0  0  0  0  0  0  0  0  0  0  0  0
   35.2620   26.4100   31.5190 O   0  0  0  0  0  0  0  0  0  0  0  0
   37.2110   26.9380   32.6000 N   0  0  0  0  0  0  0  0  0  0  0  0
   38.0790   26.6000   33.0210 H   0  0  0  0  0  0  0  0  0  0  0  0
   35.9930   28.1680   34.6920 F   0  0  0  0  0  0  0  0  0  0  0  0
   36.1070   28.8870   33.5460 C   0  0  0  0  0  0  0  0  0  0  0  0
   35.6230   30.1600   33.4850 C   0  0  0  0  0  0  0  0  0  0  0  0
   35.7760   30.8230   32.2930 C   0  0  0  0  0  0  0  0  0  0  0  0
   36.3760   30.2660   31.2040 C   0  0  0  0  0  0  0  0  0  0  0  0
   36.8620   28.9680   31.2880 C   0  0  0  0  0  0  0  0  0  0  0  0
   36.7200   28.2750   32.4810 C   0  0  0  0  0  0  0  0  0  0  0  0
   35.3930   31.8410   32.2310 H   0  0  0  0  0  0  0  0  0  0  0  0
   36.4880   30.8050   30.2680 H   0  0  0  0  0  0  0  0  0  0  0  0
   37.3520   28.4500   30.4730 H   0  0  0  0  0  0  0  0  0  0  0  0
   35.0360   31.9670   36.7540 C   0  0  0  0  0  0  0  0  0  0  0  0
   35.6960   31.4490   35.6110 C   0  0  0  0  0  0  0  0  0  0  0  0
   34.9870   30.7130   34.6780 C   0  0  0  0  0  0  0  0  0  0  0  0
   33.6540   30.5180   34.9130 N   0  0  0  0  0  0  0  0  0  0  0  0
   33.0400   31.0120   35.9980 C   0  0  0  0  0  0  0  0  0  0  0  0
   33.7230   31.7240   36.8990 N   0  0  0  0  0  0  0  0  0  0  0  0
   35.6710   32.5310   37.4320 H   0  0  0  0  0  0  0  0  0  0  0  0
   36.7470   31.5800   35.3880 H   0  0  0  0  0  0  0  0  0  0  0  0
   32.0050   30.8880   36.2250 H   0  0  0  0  0  0  0  0  0  0  0  0
   39.1270   22.3790   33.5530 O   0  0  0  0  0  0  0  0  0  0  0  0
   39.3010   22.5100   34.9040 C   0  0  0  0  0  0  0  0  0  0  0  0
   38.4340   23.0000   35.8140 N   0  0  0  0  0  0  0  0  0  0  0  0
   38.7330   23.0730   37.1240 C   0  0  0  0  0  3  0  0  0  0  0  0
   39.9430   22.6440   37.5640 N   0  0  0  0  0  0  0  0  0  0  0  0
   40.8480   22.1460   36.7090 C   0  0  0  0  0  0  0  0  0  0  0  0
   42.0610   21.7280   37.2260 C   0  0  0  0  0  3  0  0  0  0  0  0
   42.9800   21.2210   36.3520 C   0  0  0  0  0  0  0  0  0  0  0  0
   43.9490   20.8720   36.6710 H   0  0  0  0  0  0  0  0  0  0  0  0
   42.7270   21.1250   35.0190 C   0  0  0  0  0  0  0  0  0  0  0  0
   43.4230   20.7290   34.2730 H   0  0  0  0  0  0  0  0  0  0  0  0
   41.5090   21.5520   34.5350 C   0  0  0  0  0  3  0  0  0  0  0  0
   40.5350   22.0750   35.3770 C   0  0  0  0  0  0  0  0  0  0  0  0
  1  9  1  0  0  0  0
  1 10  1  0  0  0  0
  2 14  1  0  0  0  0
  2  1  2  0  0  0  0
  3  4  2  0  0  0  0
  3  2  1  0  0  0  0
  4  8  1  0  0  0  0
  5  6  1  0  0  0  0
  5  4  1  0  0  0  0
  6  7  2  0  0  0  0
  7  8  1  0  0  0  0
  8  9  2  0  0  0  0
  9 37  1  0  0  0  0
 11  3  1  0  0  0  0
 12  5  1  0  0  0  0
 13  6  1  0  0  0  0
 14 16  1  0  0  0  0
 15 14  2  0  0  0  0
 16 17  1  0  0  0  0
 19 18  1  0  0  0  0
 20 19  1  0  0  0  0
 20 30  1  0  0  0  0
 21 20  2  0  0  0  0
 22 23  2  0  0  0  0
 22 21  1  0  0  0  0
 23 24  1  0  0  0  0
 24 16  1  0  0  0  0
 24 19  2  0  0  0  0
 25 21  1  0  0  0  0
 26 22  1  0  0  0  0
 27 23  1  0  0  0  0
 28 33  1  0  0  0  0
 28 34  1  0  0  0  0
 29 28  2  0  0  0  0
 30 31  2  0  0  0  0
 30 29  1  0  0  0  0
 31 32  1  0  0  0  0
 32 36  1  0  0  0  0
 32 33  2  0  0  0  0
 35 29  1  0  0  0  0
 37 38  1  0  0  0  0
 38 49  2  0  0  0  0
 38 39  1  0  0  0  0
 39 40  2  0  0  0  0
 40 41  1  0  0  0  0
 42 43  1  0  0  0  0
 42 41  2  0  0  0  0
 44 45  1  0  0  0  0
 44 43  2  0  0  0  0
 46 44  1  0  0  0  0
 47 46  1  0  0  0  0
 48 46  2  0  0  0  0
 48 49  1  0  0  0  0
 49 42  1  0  0  0  0
M  END
>  <minimizedAffinity>
-7.51741171

$$$$

 OpenBabel03272503143D

 49 54  0  0  0  0  0  0  0  0999 V2000
   36.7650   28.0810   33.7910 C   0  0  0  0  0  0  0  0  0  0  0  0
   37.6600   27.0930   33.4410 C   0  0  0  0  0  0  0  0  0  0  0  0
   38.0850   26.9030   32.1640 C   0  0  0  0  0  0  0  0  0  0  0  0
   37.6180   27.7190   31.1470 C   0  0  0  0  0  0  0  0  0  0  0  0
   37.8470   27.7740   29.8340 N   0  0  0  0  0  0  0  0  0  0  0  0
   37.1160   28.7780   29.3320 C   0  0  0  0  0  0  0  0  0  0  0  0
   36.4310   29.3510   30.3320 N   0  0  0  0  0  0  0  0  0  0  0  0
   36.7200   28.7130   31.4910 C   0  0  0  0  0  0  0  0  0  0  0  0
   36.2670   28.9310   32.7890 C   0  0  0  0  0  0  0  0  0  0  0  0
   36.4220   28.2390   34.8060 H   0  0  0  0  0  0  0  0  0  0  0  0
   38.7920   26.1030   31.9640 H   0  0  0  0  0  0  0  0  0  0  0  0
   38.4970   27.1210   29.3170 H   0  0  0  0  0  0  0  0  0  0  0  0
   37.1010   29.0590   28.2840 H   0  0  0  0  0  0  0  0  0  0  0  0
   38.1200   26.2650   34.5370 C   0  0  0  0  0  0  0  0  0  0  0  0
   38.8950   26.7450   35.4250 O   0  0  0  0  0  0  0  0  0  0  0  0
   37.7590   24.8900   34.7100 N   0  0  0  0  0  0  0  0  0  0  0  0
   37.1390   24.4780   34.0090 H   0  0  0  0  0  0  0  0  0  0  0  0
   40.2150   23.7370   34.6100 F   0  0  0  0  0  0  0  0  0  0  0  0
   39.5810   23.7130   35.8100 C   0  0  0  0  0  0  0  0  0  0  0  0
   40.1770   23.1310   36.8890 C   0  0  0  0  0  0  0  0  0  0  0  0
   39.4730   23.1450   38.0680 C   0  0  0  0  0  0  0  0  0  0  0  0
   38.2370   23.7050   38.1880 C   0  0  0  0  0  0  0  0  0  0  0  0
   37.6480   24.2930   37.0760 C   0  0  0  0  0  0  0  0  0  0  0  0
   38.3370   24.2920   35.8730 C   0  0  0  0  0  0  0  0  0  0  0  0
   39.9380   22.6830   38.9370 H   0  0  0  0  0  0  0  0  0  0  0  0
   37.6940   23.7080   39.1280 H   0  0  0  0  0  0  0  0  0  0  0  0
   36.6710   24.7600   37.0840 H   0  0  0  0  0  0  0  0  0  0  0  0
   43.0260   20.6570   36.6470 C   0  0  0  0  0  0  0  0  0  0  0  0
   41.7220   21.1820   36.8310 C   0  0  0  0  0  0  0  0  0  0  0  0
   41.5020   22.5430   36.7100 C   0  0  0  0  0  0  0  0  0  0  0  0
   42.5810   23.3300   36.4110 N   0  0  0  0  0  0  0  0  0  0  0  0
   43.8090   22.8220   36.2400 C   0  0  0  0  0  0  0  0  0  0  0  0
   44.0230   21.5080   36.3560 N   0  0  0  0  0  0  0  0  0  0  0  0
   43.1050   19.5790   36.7610 H   0  0  0  0  0  0  0  0  0  0  0  0
   40.8430   20.5970   37.0670 H   0  0  0  0  0  0  0  0  0  0  0  0
   44.6810   23.3920   36.0070 H   0  0  0  0  0  0  0  0  0  0  0  0
   35.3730   29.9220   33.1260 O   0  0  0  0  0  0  0  0  0  0  0  0
   35.5210   30.8530   34.1190 C   0  0  0  0  0  0  0  0  0  0  0  0
   35.1820   30.7460   35.4210 N   0  0  0  0  0  0  0  0  0  0  0  0
   35.3850   31.7450   36.2990 C   0  0  0  0  0  3  0  0  0  0  0  0
   35.9470   32.9070   35.8800 N   0  0  0  0  0  0  0  0  0  0  0  0
   36.3060   33.0740   34.5990 C   0  0  0  0  0  0  0  0  0  0  0  0
   36.8740   34.2840   34.2410 C   0  0  0  0  0  3  0  0  0  0  0  0
   37.2390   34.4500   32.9360 C   0  0  0  0  0  0  0  0  0  0  0  0
   37.6880   35.3610   32.5730 H   0  0  0  0  0  0  0  0  0  0  0  0
   37.0560   33.4720   32.0090 C   0  0  0  0  0  0  0  0  0  0  0  0
   37.3270   33.5470   30.9510 H   0  0  0  0  0  0  0  0  0  0  0  0
   36.4860   32.2770   32.3970 C   0  0  0  0  0  3  0  0  0  0  0  0
   36.0970   32.0510   33.7120 C   0  0  0  0  0  0  0  0  0  0  0  0
  1 10  1  0  0  0  0
  2  1  1  0  0  0  0
  2 14  1  0  0  0  0
  3  2  2  0  0  0  0
  4  8  2  0  0  0  0
  4  3  1  0  0  0  0
  5  4  1  0  0  0  0
  6  5  1  0  0  0  0
  6  7  2  0  0  0  0
  7  8  1  0  0  0  0
  8  9  1  0  0  0  0
  9 37  1  0  0  0  0
  9  1  2  0  0  0  0
 11  3  1  0  0  0  0
 12  5  1  0  0  0  0
 13  6  1  0  0  0  0
 14 16  1  0  0  0  0
 14 15  2  0  0  0  0
 16 24  1  0  0  0  0
 17 16  1  0  0  0  0
 18 19  1  0  0  0  0
 19 24  2  0  0  0  0
 19 20  1  0  0  0  0
 20 21  2  0  0  0  0
 21 22  1  0  0  0  0
 21 25  1  0  0  0  0
 22 26  1  0  0  0  0
 23 27  1  0  0  0  0
 23 22  2  0  0  0  0
 24 23  1  0  0  0  0
 28 34  1  0  0  0  0
 28 29  1  0  0  0  0
 29 35  1  0  0  0  0
 30 29  2  0  0  0  0
 30 20  1  0  0  0  0
 31 30  1  0  0  0  0
 32 33  1  0  0  0  0
 32 31  2  0  0  0  0
 33 28  2  0  0  0  0
 36 32  1  0  0  0  0
 37 38  1  0  0  0  0
 38 39  1  0  0  0  0
 39 40  2  0  0  0  0
 41 40  1  0  0  0  0
 42 41  2  0  0  0  0
 43 42  1  0  0  0  0
 44 43  2  0  0  0  0
 45 44  1  0  0  0  0
 46 48  2  0  0  0  0
 46 44  1  0  0  0  0
 47 46  1  0  0  0  0
 48 49  1  0  0  0  0
 49 38  2  0  0  0  0
 49 42  1  0  0  0  0
M  END
>  <minimizedAffinity>
-7.50940847

$$$$

 OpenBabel03272503143D

 49 54  0  0  0  0  0  0  0  0999 V2000
   38.6670   24.9400   33.0670 C   0  0  0  0  0  0  0  0  0  0  0  0
   37.5440   24.9680   32.2690 C   0  0  0  0  0  0  0  0  0  0  0  0
   37.1110   23.8880   31.5660 C   0  0  0  0  0  0  0  0  0  0  0  0
   37.8060   22.6910   31.6330 C   0  0  0  0  0  0  0  0  0  0  0  0
   37.6310   21.4940   31.0730 N   0  0  0  0  0  0  0  0  0  0  0  0
   38.6190   20.6950   31.4950 C   0  0  0  0  0  0  0  0  0  0  0  0
   39.4130   21.3940   32.3200 N   0  0  0  0  0  0  0  0  0  0  0  0
   38.9350   22.6560   32.4320 C   0  0  0  0  0  0  0  0  0  0  0  0
   39.4010   23.7450   33.1630 C   0  0  0  0  0  0  0  0  0  0  0  0
   39.0180   25.7960   33.6290 H   0  0  0  0  0  0  0  0  0  0  0  0
   36.2170   23.9870   30.9580 H   0  0  0  0  0  0  0  0  0  0  0  0
   36.8380   21.2560   30.4160 H   0  0  0  0  0  0  0  0  0  0  0  0
   38.7340   19.6570   31.2010 H   0  0  0  0  0  0  0  0  0  0  0  0
   36.8500   26.2390   32.2310 C   0  0  0  0  0  0  0  0  0  0  0  0
   35.6240   26.2930   31.8960 O   0  0  0  0  0  0  0  0  0  0  0  0
   37.4580   27.4960   32.5530 N   0  0  0  0  0  0  0  0  0  0  0  0
   38.4450   27.4820   32.8220 H   0  0  0  0  0  0  0  0  0  0  0  0
   36.2550   28.5370   34.7540 F   0  0  0  0  0  0  0  0  0  0  0  0
   35.9610   29.1230   33.5650 C   0  0  0  0  0  0  0  0  0  0  0  0
   35.1010   30.1800   33.5160 C   0  0  0  0  0  0  0  0  0  0  0  0
   34.8540   30.7200   32.2790 C   0  0  0  0  0  0  0  0  0  0  0  0
   35.4220   30.2470   31.1340 C   0  0  0  0  0  0  0  0  0  0  0  0
   36.2960   29.1690   31.2070 C   0  0  0  0  0  0  0  0  0  0  0  0
   36.5630   28.6050   32.4450 C   0  0  0  0  0  0  0  0  0  0  0  0
   34.1680   31.5640   32.2260 H   0  0  0  0  0  0  0  0  0  0  0  0
   35.2160   30.6850   30.1630 H   0  0  0  0  0  0  0  0  0  0  0  0
   36.7910   28.7320   30.3490 H   0  0  0  0  0  0  0  0  0  0  0  0
   34.5850   31.9430   36.8210 C   0  0  0  0  0  0  0  0  0  0  0  0
   35.1930   31.5120   35.6150 C   0  0  0  0  0  0  0  0  0  0  0  0
   34.5170   30.6500   34.7700 C   0  0  0  0  0  0  0  0  0  0  0  0
   33.2660   30.2480   35.1520 N   0  0  0  0  0  0  0  0  0  0  0  0
   32.7010   30.6610   36.2950 C   0  0  0  0  0  0  0  0  0  0  0  0
   33.3530   31.4940   37.1120 N   0  0  0  0  0  0  0  0  0  0  0  0
   35.1880   32.6180   37.4220 H   0  0  0  0  0  0  0  0  0  0  0  0
   36.1780   31.8060   35.2760 H   0  0  0  0  0  0  0  0  0  0  0  0
   31.7310   30.3770   36.6360 H   0  0  0  0  0  0  0  0  0  0  0  0
   40.5240   23.7030   33.9570 O   0  0  0  0  0  0  0  0  0  0  0  0
   40.6730   23.0070   35.1260 C   0  0  0  0  0  0  0  0  0  0  0  0
   41.5190   21.9890   35.3900 N   0  0  0  0  0  0  0  0  0  0  0  0
   41.5650   21.3880   36.5920 C   0  0  0  0  0  3  0  0  0  0  0  0
   40.7390   21.8040   37.5860 N   0  0  0  0  0  0  0  0  0  0  0  0
   39.8760   22.8100   37.3860 C   0  0  0  0  0  0  0  0  0  0  0  0
   39.0640   23.1820   38.4420 C   0  0  0  0  0  3  0  0  0  0  0  0
   38.1870   24.2080   38.2350 C   0  0  0  0  0  0  0  0  0  0  0  0
   37.5190   24.5610   39.0040 H   0  0  0  0  0  0  0  0  0  0  0  0
   38.1010   24.8490   37.0390 C   0  0  0  0  0  0  0  0  0  0  0  0
   37.4200   25.6750   36.8140 H   0  0  0  0  0  0  0  0  0  0  0  0
   38.9240   24.4540   36.0050 C   0  0  0  0  0  3  0  0  0  0  0  0
   39.8370   23.4180   36.1580 C   0  0  0  0  0  0  0  0  0  0  0  0
  1  9  1  0  0  0  0
  1 10  1  0  0  0  0
  2  1  2  0  0  0  0
  3  4  2  0  0  0  0
  3  2  1  0  0  0  0
  4  8  1  0  0  0  0
  5  6  1  0  0  0  0
  5  4  1  0  0  0  0
  6  7  2  0  0  0  0
  7  8  1  0  0  0  0
  8  9  2  0  0  0  0
  9 37  1  0  0  0  0
 11  3  1  0  0  0  0
 12  5  1  0  0  0  0
 13  6  1  0  0  0  0
 14  2  1  0  0  0  0
 14 16  1  0  0  0  0
 15 14  2  0  0  0  0
 16 17  1  0  0  0  0
 19 18  1  0  0  0  0
 20 19  1  0  0  0  0
 20 30  1  0  0  0  0
 21 20  2  0  0  0  0
 22 23  2  0  0  0  0
 22 21  1  0  0  0  0
 23 24  1  0  0  0  0
 24 16  1  0  0  0  0
 24 19  2  0  0  0  0
 25 21  1  0  0  0  0
 26 22  1  0  0  0  0
 27 23  1  0  0  0  0
 28 33  1  0  0  0  0
 28 34  1  0  0  0  0
 29 28  2  0  0  0  0
 30 31  2  0  0  0  0
 30 29  1  0  0  0  0
 31 32  1  0  0  0  0
 32 36  1  0  0  0  0
 32 33  2  0  0  0  0
 35 29  1  0  0  0  0
 37 38  1  0  0  0  0
 38 39  2  0  0  0  0
 38 49  1  0  0  0  0
 39 40  1  0  0  0  0
 40 41  2  0  0  0  0
 42 41  1  0  0  0  0
 42 43  1  0  0  0  0
 44 43  2  0  0  0  0
 44 45  1  0  0  0  0
 46 44  1  0  0  0  0
 47 46  1  0  0  0  0
 48 49  1  0  0  0  0
 48 46  2  0  0  0  0
 49 42  2  0  0  0  0
M  END
>  <minimizedAffinity>
-7.43879938

$$$$

 OpenBabel03272503143D

 49 54  0  0  0  0  0  0  0  0999 V2000
   36.2490   28.2200   32.9700 C   0  0  0  0  0  0  0  0  0  0  0  0
   36.6730   27.8970   31.7000 C   0  0  0  0  0  0  0  0  0  0  0  0
   36.6070   28.7680   30.6580 C   0  0  0  0  0  0  0  0  0  0  0  0
   36.0980   30.0420   30.8470 C   0  0  0  0  0  0  0  0  0  0  0  0
   35.9120   31.0870   30.0410 N   0  0  0  0  0  0  0  0  0  0  0  0
   35.3770   32.0760   30.7670 C   0  0  0  0  0  0  0  0  0  0  0  0
   35.2280   31.6490   32.0300 N   0  0  0  0  0  0  0  0  0  0  0  0
   35.6710   30.3720   32.1210 C   0  0  0  0  0  0  0  0  0  0  0  0
   35.7260   29.5030   33.2060 C   0  0  0  0  0  0  0  0  0  0  0  0
   36.2980   27.5320   33.8050 H   0  0  0  0  0  0  0  0  0  0  0  0
   36.9600   28.4420   29.6840 H   0  0  0  0  0  0  0  0  0  0  0  0
   36.1570   31.0940   29.0130 H   0  0  0  0  0  0  0  0  0  0  0  0
   35.1170   33.0530   30.3730 H   0  0  0  0  0  0  0  0  0  0  0  0
   37.1980   26.5550   31.5490 C   0  0  0  0  0  0  0  0  0  0  0  0
   37.9590   26.0580   32.4390 O   0  0  0  0  0  0  0  0  0  0  0  0
   36.9160   25.7040   30.4320 N   0  0  0  0  0  0  0  0  0  0  0  0
   36.3090   26.0800   29.7000 H   0  0  0  0  0  0  0  0  0  0  0  0
   35.6360   23.5910   31.5590 F   0  0  0  0  0  0  0  0  0  0  0  0
   36.8900   23.3630   31.0900 C   0  0  0  0  0  0  0  0  0  0  0  0
   37.4460   22.1230   31.1960 C   0  0  0  0  0  0  0  0  0  0  0  0
   38.7170   21.9710   30.6990 C   0  0  0  0  0  0  0  0  0  0  0  0
   39.4160   22.9870   30.1210 C   0  0  0  0  0  0  0  0  0  0  0  0
   38.8300   24.2430   30.0240 C   0  0  0  0  0  0  0  0  0  0  0  0
   37.5470   24.4240   30.5180 C   0  0  0  0  0  0  0  0  0  0  0  0
   39.1730   20.9850   30.7780 H   0  0  0  0  0  0  0  0  0  0  0  0
   40.4200   22.8500   29.7340 H   0  0  0  0  0  0  0  0  0  0  0  0
   39.3130   25.1040   29.5800 H   0  0  0  0  0  0  0  0  0  0  0  0
   35.4290   18.9750   31.7590 C   0  0  0  0  0  0  0  0  0  0  0  0
   36.1900   19.9780   31.1070 C   0  0  0  0  0  0  0  0  0  0  0  0
   36.6580   21.0660   31.8230 C   0  0  0  0  0  0  0  0  0  0  0  0
   36.3530   21.1190   33.1560 N   0  0  0  0  0  0  0  0  0  0  0  0
   35.6320   20.1650   33.7620 C   0  0  0  0  0  0  0  0  0  0  0  0
   35.1800   19.1140   33.0720 N   0  0  0  0  0  0  0  0  0  0  0  0
   35.1040   18.1590   31.1190 H   0  0  0  0  0  0  0  0  0  0  0  0
   36.4530   19.9750   30.0570 H   0  0  0  0  0  0  0  0  0  0  0  0
   35.3680   20.1600   34.7960 H   0  0  0  0  0  0  0  0  0  0  0  0
   35.3000   29.8370   34.4710 O   0  0  0  0  0  0  0  0  0  0  0  0
   34.0100   30.0820   34.8610 C   0  0  0  0  0  0  0  0  0  0  0  0
   32.8890   29.4240   34.4980 N   0  0  0  0  0  0  0  0  0  0  0  0
   31.6730   29.7710   34.9590 C   0  0  0  0  0  3  0  0  0  0  0  0
   31.5500   30.8150   35.8170 N   0  0  0  0  0  0  0  0  0  0  0  0
   32.6260   31.5080   36.2150 C   0  0  0  0  0  0  0  0  0  0  0  0
   32.4280   32.5600   37.0910 C   0  0  0  0  0  3  0  0  0  0  0  0
   33.5260   33.2630   37.4950 C   0  0  0  0  0  0  0  0  0  0  0  0
   33.4610   34.0970   38.1750 H   0  0  0  0  0  0  0  0  0  0  0  0
   34.7770   32.9540   37.0580 C   0  0  0  0  0  0  0  0  0  0  0  0
   35.6930   33.4800   37.3460 H   0  0  0  0  0  0  0  0  0  0  0  0
   34.9420   31.9000   36.1850 C   0  0  0  0  0  3  0  0  0  0  0  0
   33.8610   31.1480   35.7410 C   0  0  0  0  0  0  0  0  0  0  0  0
  1  9  1  0  0  0  0
  1 10  1  0  0  0  0
  2  1  2  0  0  0  0
  3  4  2  0  0  0  0
  3  2  1  0  0  0  0
  4  8  1  0  0  0  0
  5  6  1  0  0  0  0
  5  4  1  0  0  0  0
  6  7  2  0  0  0  0
  7  8  1  0  0  0  0
  8  9  2  0  0  0  0
  9 37  1  0  0  0  0
 11  3  1  0  0  0  0
 12  5  1  0  0  0  0
 13  6  1  0  0  0  0
 14  2  1  0  0  0  0
 14 15  2  0  0  0  0
 16 24  1  0  0  0  0
 16 14  1  0  0  0  0
 17 16  1  0  0  0  0
 19 20  1  0  0  0  0
 19 18  1  0  0  0  0
 20 30  1  0  0  0  0
 21 25  1  0  0  0  0
 21 20  2  0  0  0  0
 22 21  1  0  0  0  0
 23 22  2  0  0  0  0
 23 24  1  0  0  0  0
 24 19  2  0  0  0  0
 26 22  1  0  0  0  0
 27 23  1  0  0  0  0
 28 33  1  0  0  0  0
 29 28  2  0  0  0  0
 29 30  1  0  0  0  0
 30 31  2  0  0  0  0
 31 32  1  0  0  0  0
 32 36  1  0  0  0  0
 33 32  2  0  0  0  0
 34 28  1  0  0  0  0
 35 29  1  0  0  0  0
 37 38  1  0  0  0  0
 38 49  1  0  0  0  0
 39 38  2  0  0  0  0
 39 40  1  0  0  0  0
 40 41  2  0  0  0  0
 41 42  1  0  0  0  0
 42 43  1  0  0  0  0
 43 44  2  0  0  0  0
 44 45  1  0  0  0  0
 46 47  1  0  0  0  0
 46 44  1  0  0  0  0
 48 46  2  0  0  0  0
 49 48  1  0  0  0  0
 49 42  2  0  0  0  0
M  END
>  <minimizedAffinity>
-7.34633636

$$$$

 OpenBabel03272503143D

 49 54  0  0  0  0  0  0  0  0999 V2000
   36.5160   28.6800   31.7200 C   0  0  0  0  0  0  0  0  0  0  0  0
   37.1360   27.6920   30.9890 C   0  0  0  0  0  0  0  0  0  0  0  0
   37.6430   27.9030   29.7450 C   0  0  0  0  0  0  0  0  0  0  0  0
   37.5470   29.1540   29.1590 C   0  0  0  0  0  0  0  0  0  0  0  0
   37.9380   29.6520   27.9850 N   0  0  0  0  0  0  0  0  0  0  0  0
   37.5810   30.9430   27.9470 C   0  0  0  0  0  0  0  0  0  0  0  0
   36.9670   31.2510   29.0990 N   0  0  0  0  0  0  0  0  0  0  0  0
   36.9250   30.1520   29.8880 C   0  0  0  0  0  0  0  0  0  0  0  0
   36.3980   29.9650   31.1630 C   0  0  0  0  0  0  0  0  0  0  0  0
   36.1100   28.5200   32.7120 H   0  0  0  0  0  0  0  0  0  0  0  0
   38.1180   27.0740   29.2280 H   0  0  0  0  0  0  0  0  0  0  0  0
   38.4390   29.0940   27.2410 H   0  0  0  0  0  0  0  0  0  0  0  0
   37.7710   31.6050   27.1090 H   0  0  0  0  0  0  0  0  0  0  0  0
   37.2130   26.4010   31.6410 C   0  0  0  0  0  0  0  0  0  0  0  0
   36.1880   25.9040   32.2090 O   0  0  0  0  0  0  0  0  0  0  0  0
   38.4010   25.6010   31.7010 N   0  0  0  0  0  0  0  0  0  0  0  0
   39.2400   25.9780   31.2550 H   0  0  0  0  0  0  0  0  0  0  0  0
   38.8570   25.4220   34.3720 F   0  0  0  0  0  0  0  0  0  0  0  0
   38.4530   24.2870   33.7460 C   0  0  0  0  0  0  0  0  0  0  0  0
   38.2930   23.1330   34.4550 C   0  0  0  0  0  0  0  0  0  0  0  0
   37.8820   22.0270   33.7530 C   0  0  0  0  0  0  0  0  0  0  0  0
   37.6360   22.0460   32.4130 C   0  0  0  0  0  0  0  0  0  0  0  0
   37.8050   23.2320   31.7100 C   0  0  0  0  0  0  0  0  0  0  0  0
   38.2190   24.3650   32.3960 C   0  0  0  0  0  0  0  0  0  0  0  0
   37.7520   21.0990   34.3070 H   0  0  0  0  0  0  0  0  0  0  0  0
   37.3120   21.1630   31.8730 H   0  0  0  0  0  0  0  0  0  0  0  0
   37.6310   23.3370   30.6470 H   0  0  0  0  0  0  0  0  0  0  0  0
   39.9950   22.7630   37.8110 C   0  0  0  0  0  0  0  0  0  0  0  0
   39.7700   22.7140   36.4120 C   0  0  0  0  0  0  0  0  0  0  0  0
   38.5700   23.1620   35.8890 C   0  0  0  0  0  0  0  0  0  0  0  0
   37.6390   23.6400   36.7710 N   0  0  0  0  0  0  0  0  0  0  0  0
   37.8630   23.6800   38.0920 C   0  0  0  0  0  0  0  0  0  0  0  0
   39.0210   23.2490   38.5980 N   0  0  0  0  0  0  0  0  0  0  0  0
   40.9640   22.3910   38.1320 H   0  0  0  0  0  0  0  0  0  0  0  0
   40.4780   22.3450   35.6810 H   0  0  0  0  0  0  0  0  0  0  0  0
   37.1700   24.0430   38.8190 H   0  0  0  0  0  0  0  0  0  0  0  0
   35.7810   30.9610   31.8840 O   0  0  0  0  0  0  0  0  0  0  0  0
   34.6120   30.8550   32.5890 C   0  0  0  0  0  0  0  0  0  0  0  0
   33.3970   30.4760   32.1390 N   0  0  0  0  0  0  0  0  0  0  0  0
   32.3210   30.4140   32.9440 C   0  0  0  0  0  3  0  0  0  0  0  0
   32.4420   30.7390   34.2560 N   0  0  0  0  0  0  0  0  0  0  0  0
   33.6220   31.1230   34.7640 C   0  0  0  0  0  0  0  0  0  0  0  0
   33.6720   31.4400   36.1090 C   0  0  0  0  0  3  0  0  0  0  0  0
   34.8760   31.8300   36.6220 C   0  0  0  0  0  0  0  0  0  0  0  0
   35.0040   32.0950   37.6600 H   0  0  0  0  0  0  0  0  0  0  0  0
   35.9940   31.9100   35.8510 C   0  0  0  0  0  0  0  0  0  0  0  0
   36.9830   32.2150   36.2060 H   0  0  0  0  0  0  0  0  0  0  0  0
   35.9110   31.5880   34.5130 C   0  0  0  0  0  3  0  0  0  0  0  0
   34.7120   31.1830   33.9360 C   0  0  0  0  0  0  0  0  0  0  0  0
  1 10  1  0  0  0  0
  2 14  1  0  0  0  0
  2  1  2  0  0  0  0
  3  2  1  0  0  0  0
  4  3  2  0  0  0  0
  4  8  1  0  0  0  0
  5  4  1  0  0  0  0
  6  5  1  0  0  0  0
  6  7  2  0  0  0  0
  7  8  1  0  0  0  0
  8  9  2  0  0  0  0
  9  1  1  0  0  0  0
  9 37  1  0  0  0  0
 11  3  1  0  0  0  0
 12  5  1  0  0  0  0
 13  6  1  0  0  0  0
 14 16  1  0  0  0  0
 14 15  2  0  0  0  0
 16 24  1  0  0  0  0
 17 16  1  0  0  0  0
 19 18  1  0  0  0  0
 19 20  1  0  0  0  0
 20 30  1  0  0  0  0
 21 25  1  0  0  0  0
 21 20  2  0  0  0  0
 22 21  1  0  0  0  0
 23 24  1  0  0  0  0
 23 22  2  0  0  0  0
 24 19  2  0  0  0  0
 26 22  1  0  0  0  0
 27 23  1  0  0  0  0
 28 34  1  0  0  0  0
 28 33  1  0  0  0  0
 29 28  2  0  0  0  0
 30 29  1  0  0  0  0
 30 31  2  0  0  0  0
 31 32  1  0  0  0  0
 32 33  2  0  0  0  0
 32 36  1  0  0  0  0
 35 29  1  0  0  0  0
 37 38  1  0  0  0  0
 38 49  1  0  0  0  0
 39 38  2  0  0  0  0
 39 40  1  0  0  0  0
 40 41  2  0  0  0  0
 41 42  1  0  0  0  0
 42 43  1  0  0  0  0
 43 44  2  0  0  0  0
 44 45  1  0  0  0  0
 46 47  1  0  0  0  0
 46 44  1  0  0  0  0
 48 46  2  0  0  0  0
 49 48  1  0  0  0  0
 49 42  2  0  0  0  0
M  END
>  <minimizedAffinity>
-7.29141092

$$$$

 OpenBabel03272503143D

 49 54  0  0  0  0  0  0  0  0999 V2000
   37.5370   26.9830   33.7950 C   0  0  0  0  0  0  0  0  0  0  0  0
   36.6230   27.3700   32.8400 C   0  0  0  0  0  0  0  0  0  0  0  0
   36.4110   26.6670   31.6950 C   0  0  0  0  0  0  0  0  0  0  0  0
   37.1270   25.5080   31.4480 C   0  0  0  0  0  0  0  0  0  0  0  0
   37.1380   24.6310   30.4450 N   0  0  0  0  0  0  0  0  0  0  0  0
   38.0420   23.6860   30.7350 C   0  0  0  0  0  0  0  0  0  0  0  0
   38.5970   23.9740   31.9220 N   0  0  0  0  0  0  0  0  0  0  0  0
   38.0470   25.1140   32.4030 C   0  0  0  0  0  0  0  0  0  0  0  0
   38.2860   25.8120   33.5830 C   0  0  0  0  0  0  0  0  0  0  0  0
   37.7130   27.5380   34.7080 H   0  0  0  0  0  0  0  0  0  0  0  0
   35.6730   27.0350   30.9880 H   0  0  0  0  0  0  0  0  0  0  0  0
   36.5260   24.7020   29.5860 H   0  0  0  0  0  0  0  0  0  0  0  0
   38.2680   22.8390   30.0960 H   0  0  0  0  0  0  0  0  0  0  0  0
   35.8980   28.5870   33.1410 C   0  0  0  0  0  0  0  0  0  0  0  0
   35.2630   29.2020   32.2250 O   0  0  0  0  0  0  0  0  0  0  0  0
   35.8320   29.1810   34.4430 N   0  0  0  0  0  0  0  0  0  0  0  0
   36.3360   28.7090   35.1970 H   0  0  0  0  0  0  0  0  0  0  0  0
   33.1630   29.0820   34.9300 F   0  0  0  0  0  0  0  0  0  0  0  0
   33.7000   30.3140   34.7320 C   0  0  0  0  0  0  0  0  0  0  0  0
   32.9090   31.4230   34.7830 C   0  0  0  0  0  0  0  0  0  0  0  0
   33.5240   32.6320   34.5730 C   0  0  0  0  0  0  0  0  0  0  0  0
   34.8580   32.7540   34.3230 C   0  0  0  0  0  0  0  0  0  0  0  0
   35.6450   31.6110   34.2760 C   0  0  0  0  0  0  0  0  0  0  0  0
   35.0490   30.3760   34.4850 C   0  0  0  0  0  0  0  0  0  0  0  0
   32.9030   33.5250   34.6100 H   0  0  0  0  0  0  0  0  0  0  0  0
   35.3290   33.7170   34.1590 H   0  0  0  0  0  0  0  0  0  0  0  0
   36.7110   31.6170   34.0840 H   0  0  0  0  0  0  0  0  0  0  0  0
   29.5660   31.2090   36.5370 C   0  0  0  0  0  0  0  0  0  0  0  0
   30.9550   31.3950   36.3220 C   0  0  0  0  0  0  0  0  0  0  0  0
   31.4850   31.2410   35.0530 C   0  0  0  0  0  0  0  0  0  0  0  0
   30.6190   30.9090   34.0470 N   0  0  0  0  0  0  0  0  0  0  0  0
   29.3080   30.7350   34.2620 C   0  0  0  0  0  0  0  0  0  0  0  0
   28.7950   30.8840   35.4860 N   0  0  0  0  0  0  0  0  0  0  0  0
   29.2390   31.3500   37.5630 H   0  0  0  0  0  0  0  0  0  0  0  0
   31.6720   31.6580   37.0880 H   0  0  0  0  0  0  0  0  0  0  0  0
   28.5930   30.4760   33.5120 H   0  0  0  0  0  0  0  0  0  0  0  0
   39.2020   25.4150   34.5300 O   0  0  0  0  0  0  0  0  0  0  0  0
   38.9440   24.6930   35.6640 C   0  0  0  0  0  0  0  0  0  0  0  0
   37.8620   24.7600   36.4680 N   0  0  0  0  0  0  0  0  0  0  0  0
   37.7320   23.9860   37.5610 C   0  0  0  0  0  3  0  0  0  0  0  0
   38.7110   23.1020   37.8820 N   0  0  0  0  0  0  0  0  0  0  0  0
   39.8100   22.9880   37.1220 C   0  0  0  0  0  0  0  0  0  0  0  0
   40.7670   22.0670   37.5070 C   0  0  0  0  0  3  0  0  0  0  0  0
   41.8850   21.9540   36.7310 C   0  0  0  0  0  0  0  0  0  0  0  0
   42.6790   21.2610   36.9590 H   0  0  0  0  0  0  0  0  0  0  0  0
   42.0650   22.7120   35.6170 C   0  0  0  0  0  0  0  0  0  0  0  0
   42.9370   22.6660   34.9570 H   0  0  0  0  0  0  0  0  0  0  0  0
   41.0920   23.6220   35.2590 C   0  0  0  0  0  3  0  0  0  0  0  0
   39.9340   23.7800   36.0110 C   0  0  0  0  0  0  0  0  0  0  0  0
  1 10  1  0  0  0  0
  2 14  1  0  0  0  0
  2  1  2  0  0  0  0
  3  2  1  0  0  0  0
  4  3  2  0  0  0  0
  4  8  1  0  0  0  0
  5  6  1  0  0  0  0
  5  4  1  0  0  0  0
  6  7  2  0  0  0  0
  7  8  1  0  0  0  0
  8  9  2  0  0  0  0
  9  1  1  0  0  0  0
  9 37  1  0  0  0  0
 11  3  1  0  0  0  0
 12  5  1  0  0  0  0
 13  6  1  0  0  0  0
 14 16  1  0  0  0  0
 15 14  2  0  0  0  0
 16 24  1  0  0  0  0
 16 17  1  0  0  0  0
 19 20  1  0  0  0  0
 19 18  1  0  0  0  0
 20 30  1  0  0  0  0
 21 25  1  0  0  0  0
 21 20  2  0  0  0  0
 22 21  1  0  0  0  0
 23 22  2  0  0  0  0
 23 24  1  0  0  0  0
 24 19  2  0  0  0  0
 26 22  1  0  0  0  0
 27 23  1  0  0  0  0
 28 34  1  0  0  0  0
 29 28  1  0  0  0  0
 29 35  1  0  0  0  0
 30 29  2  0  0  0  0
 31 32  2  0  0  0  0
 31 30  1  0  0  0  0
 32 33  1  0  0  0  0
 33 28  2  0  0  0  0
 36 32  1  0  0  0  0
 37 38  1  0  0  0  0
 38 49  2  0  0  0  0
 38 39  1  0  0  0  0
 39 40  2  0  0  0  0
 40 41  1  0  0  0  0
 42 43  1  0  0  0  0
 42 41  2  0  0  0  0
 44 45  1  0  0  0  0
 44 43  2  0  0  0  0
 46 44  1  0  0  0  0
 47 46  1  0  0  0  0
 48 46  2  0  0  0  0
 48 49  1  0  0  0  0
 49 42  1  0  0  0  0
M  END
>  <minimizedAffinity>
-7.17430687

$$$$

 OpenBabel03272503143D

 49 54  0  0  0  0  0  0  0  0999 V2000
   37.0340   26.3470   32.4720 C   0  0  0  0  0  0  0  0  0  0  0  0
   37.1350   27.7170   32.3760 C   0  0  0  0  0  0  0  0  0  0  0  0
   37.8830   28.3370   31.4250 C   0  0  0  0  0  0  0  0  0  0  0  0
   38.5870   27.5880   30.4960 C   0  0  0  0  0  0  0  0  0  0  0  0
   39.3830   27.9030   29.4750 N   0  0  0  0  0  0  0  0  0  0  0  0
   39.7970   26.7610   28.9100 C   0  0  0  0  0  0  0  0  0  0  0  0
   39.2580   25.7310   29.5800 N   0  0  0  0  0  0  0  0  0  0  0  0
   38.4900   26.2110   30.5860 C   0  0  0  0  0  0  0  0  0  0  0  0
   37.7320   25.5490   31.5490 C   0  0  0  0  0  0  0  0  0  0  0  0
   36.4410   25.8460   33.2260 H   0  0  0  0  0  0  0  0  0  0  0  0
   37.9150   29.4220   31.4130 H   0  0  0  0  0  0  0  0  0  0  0  0
   39.6220   28.8920   29.1910 H   0  0  0  0  0  0  0  0  0  0  0  0
   40.4590   26.7080   28.0520 H   0  0  0  0  0  0  0  0  0  0  0  0
   36.3830   28.4590   33.3670 C   0  0  0  0  0  0  0  0  0  0  0  0
   36.2990   28.0330   34.5630 O   0  0  0  0  0  0  0  0  0  0  0  0
   35.6970   29.6890   33.1000 N   0  0  0  0  0  0  0  0  0  0  0  0
   35.7470   30.0520   32.1460 H   0  0  0  0  0  0  0  0  0  0  0  0
   33.1240   29.0270   33.6610 F   0  0  0  0  0  0  0  0  0  0  0  0
   33.7320   29.8870   34.5180 C   0  0  0  0  0  0  0  0  0  0  0  0
   33.0540   30.3740   35.5960 C   0  0  0  0  0  0  0  0  0  0  0  0
   33.7350   31.2390   36.4160 C   0  0  0  0  0  0  0  0  0  0  0  0
   35.0260   31.6130   36.1940 C   0  0  0  0  0  0  0  0  0  0  0  0
   35.6980   31.1050   35.0900 C   0  0  0  0  0  0  0  0  0  0  0  0
   35.0330   30.2300   34.2440 C   0  0  0  0  0  0  0  0  0  0  0  0
   33.2040   31.6350   37.2800 H   0  0  0  0  0  0  0  0  0  0  0  0
   35.5500   32.2980   36.8520 H   0  0  0  0  0  0  0  0  0  0  0  0
   36.7230   31.3490   34.8390 H   0  0  0  0  0  0  0  0  0  0  0  0
   29.2790   30.1960   35.4850 C   0  0  0  0  0  0  0  0  0  0  0  0
   30.6040   30.6530   35.2700 C   0  0  0  0  0  0  0  0  0  0  0  0
   31.6720   29.9440   35.7920 C   0  0  0  0  0  0  0  0  0  0  0  0
   31.3860   28.8120   36.5050 N   0  0  0  0  0  0  0  0  0  0  0  0
   30.1290   28.3900   36.7020 C   0  0  0  0  0  0  0  0  0  0  0  0
   29.0970   29.0730   36.1990 N   0  0  0  0  0  0  0  0  0  0  0  0
   28.5040   30.8150   35.0400 H   0  0  0  0  0  0  0  0  0  0  0  0
   30.8730   31.5410   34.7130 H   0  0  0  0  0  0  0  0  0  0  0  0
   29.8560   27.5160   37.2490 H   0  0  0  0  0  0  0  0  0  0  0  0
   37.6390   24.1790   31.6330 O   0  0  0  0  0  0  0  0  0  0  0  0
   37.6030   23.4320   32.7800 C   0  0  0  0  0  0  0  0  0  0  0  0
   38.2890   23.6260   33.9250 N   0  0  0  0  0  0  0  0  0  0  0  0
   38.1580   22.8100   34.9870 C   0  0  0  0  0  3  0  0  0  0  0  0
   37.3140   21.7500   34.9230 N   0  0  0  0  0  0  0  0  0  0  0  0
   36.6040   21.5030   33.8130 C   0  0  0  0  0  0  0  0  0  0  0  0
   35.7630   20.4050   33.8160 C   0  0  0  0  0  3  0  0  0  0  0  0
   35.0410   20.1580   32.6840 C   0  0  0  0  0  0  0  0  0  0  0  0
   34.3620   19.3240   32.6020 H   0  0  0  0  0  0  0  0  0  0  0  0
   35.1360   20.9510   31.5830 C   0  0  0  0  0  0  0  0  0  0  0  0
   34.5840   20.8030   30.6500 H   0  0  0  0  0  0  0  0  0  0  0  0
   35.9840   22.0380   31.6110 C   0  0  0  0  0  3  0  0  0  0  0  0
   36.7420   22.3400   32.7360 C   0  0  0  0  0  0  0  0  0  0  0  0
  1 10  1  0  0  0  0
  2  1  1  0  0  0  0
  2 14  1  0  0  0  0
  3  2  2  0  0  0  0
  4  8  2  0  0  0  0
  4  3  1  0  0  0  0
  5  4  1  0  0  0  0
  6  5  1  0  0  0  0
  6  7  2  0  0  0  0
  7  8  1  0  0  0  0
  8  9  1  0  0  0  0
  9 37  1  0  0  0  0
  9  1  2  0  0  0  0
 11  3  1  0  0  0  0
 12  5  1  0  0  0  0
 13  6  1  0  0  0  0
 14 15  2  0  0  0  0
 16 14  1  0  0  0  0
 16 24  1  0  0  0  0
 17 16  1  0  0  0  0
 18 19  1  0  0  0  0
 19 20  1  0  0  0  0
 20 30  1  0  0  0  0
 20 21  2  0  0  0  0
 21 25  1  0  0  0  0
 22 21  1  0  0  0  0
 22 26  1  0  0  0  0
 23 22  2  0  0  0  0
 24 19  2  0  0  0  0
 24 23  1  0  0  0  0
 27 23  1  0  0  0  0
 28 33  1  0  0  0  0
 29 28  2  0  0  0  0
 29 30  1  0  0  0  0
 30 31  2  0  0  0  0
 31 32  1  0  0  0  0
 32 36  1  0  0  0  0
 33 32  2  0  0  0  0
 34 28  1  0  0  0  0
 35 29  1  0  0  0  0
 37 38  1  0  0  0  0
 38 39  1  0  0  0  0
 39 40  2  0  0  0  0
 41 40  1  0  0  0  0
 42 43  1  0  0  0  0
 42 41  2  0  0  0  0
 44 43  2  0  0  0  0
 45 44  1  0  0  0  0
 46 48  2  0  0  0  0
 46 44  1  0  0  0  0
 47 46  1  0  0  0  0
 48 49  1  0  0  0  0
 49 38  2  0  0  0  0
 49 42  1  0  0  0  0
M  END
>  <minimizedAffinity>
-7.12258577

$$$$
