REMARK  Name = 
REMARK  4 active torsions:
REMARK  status: ('A' for Active; 'I' for Inactive)
REMARK    1  A    between atoms: N_1  and  C_6
REMARK    2  A    between atoms: C_3  and  C_13
REMARK    3  A    between atoms: C_10  and  S_12
REMARK    4  A    between atoms: S_12  and  C_26
REMARK                            x       y       z     vdW  Elec       q    Type
REMARK                         _______ _______ _______ _____ _____    ______ ____
ROOT
ATOM      1  C   UNL     1      35.292  29.545  47.935  0.00  0.00    +0.000 A 
ATOM      2  C   UNL     1      35.230  30.002  46.606  0.00  0.00    +0.000 A 
ATOM      3  C   UNL     1      34.094  29.666  45.876  0.00  0.00    +0.000 A 
ATOM      4  N   UNL     1      33.124  28.919  46.502  0.00  0.00    +0.000 NA
ATOM      5  C   UNL     1      33.224  28.508  47.763  0.00  0.00    +0.000 A 
ATOM      6  N   UNL     1      34.311  28.822  48.483  0.00  0.00    +0.000 NA
ATOM      7  H   UNL     1      36.025  30.588  46.164  0.00  0.00    +0.000 HD
ATOM      8  H   UNL     1      33.975  29.980  44.852  0.00  0.00    +0.000 HD
ENDROOT
BRANCH   1   9
ATOM      9  N   UNL     1      36.465  29.893  48.683  0.00  0.00    +0.000 N 
ATOM     10  C   UNL     1      37.590  30.656  48.230  0.00  0.00    +0.000 C 
ATOM     11  C   UNL     1      38.103  31.287  49.516  0.00  0.00    +0.000 C 
ATOM     12  C   UNL     1      37.125  30.892  50.596  0.00  0.00    +0.000 C 
ATOM     13  C   UNL     1      36.725  29.528  50.059  0.00  0.00    +0.000 C 
ATOM     14  H   UNL     1      37.314  31.446  47.509  0.00  0.00    +0.000 HD
ATOM     15  H   UNL     1      38.340  29.997  47.758  0.00  0.00    +0.000 HD
ATOM     16  H   UNL     1      39.081  30.834  49.745  0.00  0.00    +0.000 HD
ATOM     17  H   UNL     1      36.265  31.555  50.700  0.00  0.00    +0.000 HD
ATOM     18  H   UNL     1      37.696  30.707  51.526  0.00  0.00    +0.000 HD
ATOM     19  H   UNL     1      35.789  29.235  50.583  0.00  0.00    +0.000 HD
ATOM     20  H   UNL     1      37.549  28.808  50.186  0.00  0.00    +0.000 HD
BRANCH  11  21
ATOM     21  C   UNL     1      38.265  32.778  49.401  0.00  0.00    +0.000 C 
ATOM     22  F   UNL     1      37.091  33.340  49.888  0.00  0.00    +0.000 F 
ATOM     23  F   UNL     1      38.305  33.085  48.057  0.00  0.00    +0.000 F 
ATOM     24  F   UNL     1      39.375  33.252  50.036  0.00  0.00    +0.000 F 
ENDBRANCH  11  21
ENDBRANCH   1   9
BRANCH   5  25
ATOM     25  S   UNL     1      31.928  27.539  48.513  0.00  0.00    +0.000 S 
BRANCH  25  26
ATOM     26  C   UNL     1      30.637  27.294  47.304  0.00  0.00    +0.000 A 
ATOM     27  N   UNL     1      31.107  26.954  46.077  0.00  0.00    +0.000 NA
ATOM     28  C   UNL     1      30.259  26.732  45.048  0.00  0.00    +0.000 A 
ATOM     29  N   UNL     1      28.936  26.849  45.234  0.00  0.00    +0.000 NA
ATOM     30  C   UNL     1      28.425  27.189  46.451  0.00  0.00    +0.000 A 
ATOM     31  C   UNL     1      27.066  27.326  46.707  0.00  0.00    +0.000 A 
ATOM     32  C   UNL     1      26.651  27.677  47.985  0.00  0.00    +0.000 A 
ATOM     33  H   UNL     1      25.577  27.751  48.056  0.00  0.00    +0.000 HD
ATOM     34  C   UNL     1      27.540  27.896  49.014  0.00  0.00    +0.000 A 
ATOM     35  H   UNL     1      27.155  28.164  49.977  0.00  0.00    +0.000 HD
ATOM     36  C   UNL     1      28.909  27.766  48.787  0.00  0.00    +0.000 A 
ATOM     37  C   UNL     1      29.282  27.417  47.507  0.00  0.00    +0.000 A 
ENDBRANCH  25  26
ENDBRANCH   5  25
TORSDOF 4
