
 OpenBabel03272507303D

 32 35  0  0  0  0  0  0  0  0999 V2000
   35.8670   29.2400   49.8060 C   0  0  0  0  0  0  0  0  0  0  0  0
   34.7860   29.7240   50.4520 C   0  0  0  0  0  0  0  0  0  0  0  0
   33.6430   29.0940   49.9610 C   0  0  0  0  0  0  0  0  0  0  0  0
   34.1320   28.2060   48.9810 C   0  0  0  0  0  0  0  0  0  0  0  0
   35.4010   28.3760   48.9830 O   0  0  0  0  0  0  0  0  0  0  0  0
   34.6110   30.4550   51.2270 H   0  0  0  0  0  0  0  0  0  0  0  0
   32.5940   29.1970   50.2110 H   0  0  0  0  0  0  0  0  0  0  0  0
   37.2150   29.6770   50.0680 C   0  0  0  0  0  0  0  0  0  0  0  0
   37.8130   29.2260   51.0540 O   0  0  0  0  0  0  0  0  0  0  0  0
   37.7890   30.6400   49.1320 C   0  0  0  0  0  0  0  0  0  0  0  0
   38.1530   31.8760   49.6900 C   0  0  0  0  0  0  0  0  0  0  0  0
   38.7080   32.8160   48.8170 C   0  0  0  0  0  0  0  0  0  0  0  0
   38.8640   32.5020   47.5040 N   0  0  0  0  0  0  0  0  0  0  0  0
   38.4920   31.2900   47.0220 C   0  0  0  0  0  0  0  0  0  0  0  0
   37.9630   30.3760   47.8280 N   0  0  0  0  0  0  0  0  0  0  0  0
   38.0300   32.1290   50.7320 H   0  0  0  0  0  0  0  0  0  0  0  0
   39.0190   33.8030   49.1640 H   0  0  0  0  0  0  0  0  0  0  0  0
   38.6040   31.0130   45.9890 H   0  0  0  0  0  0  0  0  0  0  0  0
   33.2830   27.3120   48.1840 C   0  0  0  0  0  0  0  0  0  0  0  0
   32.0560   27.2450   48.4380 O   0  0  0  0  0  0  0  0  0  0  0  0
   33.5110   26.4030   47.0880 C   0  0  0  0  0  0  0  0  0  0  0  0
   33.3580   25.0880   47.3740 N   0  0  0  0  0  0  0  0  0  0  0  0
   33.5370   24.0980   46.4550 C   0  0  0  0  0  3  0  0  0  0  0  0
   33.8800   24.4130   45.2020 N   0  0  0  0  0  0  0  0  0  0  0  0
   34.0550   25.6850   44.8130 C   0  0  0  0  0  0  0  0  0  0  0  0
   34.3780   26.0290   43.5190 C   0  0  0  0  0  3  0  0  0  0  0  0
   34.5150   27.3350   43.1370 C   0  0  0  0  0  0  0  0  0  0  0  0
   34.7690   27.6030   42.1220 H   0  0  0  0  0  0  0  0  0  0  0  0
   34.3120   28.2970   44.1210 C   0  0  0  0  0  0  0  0  0  0  0  0
   34.4250   29.3260   43.7950 H   0  0  0  0  0  0  0  0  0  0  0  0
   33.9910   27.9210   45.4040 C   0  0  0  0  0  3  0  0  0  0  0  0
   33.8550   26.6190   45.7980 C   0  0  0  0  0  0  0  0  0  0  0  0
  1  8  1  0  0  0  0
  1  2  2  0  0  0  0
  2  6  1  0  0  0  0
  3  7  1  0  0  0  0
  3  2  1  0  0  0  0
  4  5  1  0  0  0  0
  4  3  2  0  0  0  0
  5  1  1  0  0  0  0
  8  9  2  0  0  0  0
 10 11  1  0  0  0  0
 10  8  1  0  0  0  0
 11 16  1  0  0  0  0
 12 17  1  0  0  0  0
 12 11  2  0  0  0  0
 13 12  1  0  0  0  0
 14 13  2  0  0  0  0
 14 15  1  0  0  0  0
 15 10  2  0  0  0  0
 18 14  1  0  0  0  0
 19 20  2  0  0  0  0
 19  4  1  0  0  0  0
 21 22  1  0  0  0  0
 21 19  1  0  0  0  0
 23 22  2  0  0  0  0
 24 23  1  0  0  0  0
 25 24  2  0  0  0  0
 25 32  1  0  0  0  0
 26 25  1  0  0  0  0
 27 26  2  0  0  0  0
 27 29  1  0  0  0  0
 28 27  1  0  0  0  0
 29 31  2  0  0  0  0
 30 29  1  0  0  0  0
 31 32  1  0  0  0  0
 32 21  2  0  0  0  0
M  END
>  <minimizedAffinity>
-5.34695387

>  <minimizedRMSD>
0.932337999

$$$$
