
     RDKit          3D

 46 50  0  0  0  0  0  0  0  0999 V2000
   37.8137   30.3895   51.0898 C   0  0  0  0  0  0  0  0  0  0  0  0
   38.2208   30.9770   49.8829 C   0  0  0  0  0  0  0  0  0  0  0  0
   37.5885   30.5499   48.7250 C   0  0  0  0  0  0  0  0  0  0  0  0
   36.6382   29.6095   48.8458 N   0  0  0  0  0  0  0  0  0  0  0  0
   36.2617   29.0578   50.0145 C   0  0  0  0  0  0  0  0  0  0  0  0
   36.8623   29.4577   51.1530 N   0  0  0  0  0  0  0  0  0  0  0  0
   37.8991   31.0795   47.4162 C   0  0  0  0  0  0  0  0  0  0  0  0
   37.1156   30.7552   46.3132 C   0  0  0  0  0  0  0  0  0  0  0  0
   37.3586   31.2339   45.0543 C   0  0  0  0  0  0  0  0  0  0  0  0
   38.4106   32.0648   44.8611 N   0  0  0  0  0  0  0  0  0  0  0  0
   39.1562   32.3673   45.9356 C   0  0  0  0  0  0  0  0  0  0  0  0
   38.9384   31.9089   47.1876 N   0  0  0  0  0  0  0  0  0  0  0  0
   40.3188   33.2773   45.7566 C   0  0  0  0  0  0  0  0  0  0  0  0
   40.4179   34.0681   46.9238 F   0  0  0  0  0  0  0  0  0  0  0  0
   41.4687   32.5843   45.5232 F   0  0  0  0  0  0  0  0  0  0  0  0
   40.1019   34.1853   44.7345 F   0  0  0  0  0  0  0  0  0  0  0  0
   35.2623   28.0989   49.9596 O   0  0  0  0  0  0  0  0  0  0  0  0
   33.2893   27.1701   47.0001 N   0  0  0  0  0  0  0  0  0  0  0  0
   34.1696   27.0084   47.9971 C   0  0  0  0  0  0  0  0  0  0  0  0
   34.4039   28.0569   48.8769 C   0  0  0  0  0  0  0  0  0  0  0  0
   33.7181   29.2456   48.6991 C   0  0  0  0  0  0  0  0  0  0  0  0
   33.7762   30.3116   49.3738 O   0  0  0  0  0  0  0  0  0  0  0  0
   32.8388   29.3608   47.6764 N   0  0  0  0  0  0  0  0  0  0  0  0
   32.6232   28.3224   46.8251 C   0  0  0  0  0  0  0  0  0  0  0  0
   31.8097   28.3842   45.8538 O   0  0  0  0  0  0  0  0  0  0  0  0
   38.3064   30.7201   52.0076 H   0  0  0  0  0  0  0  0  0  0  0  0
   38.9819   31.7222   49.8323 H   0  0  0  0  0  0  0  0  0  0  0  0
   36.2540   30.0862   46.4226 H   0  0  0  0  0  0  0  0  0  0  0  0
   36.7554   30.9884   44.1878 H   0  0  0  0  0  0  0  0  0  0  0  0
   33.1308   26.3681   46.3530 H   0  0  0  0  0  0  0  0  0  0  0  0
   34.7361   26.1329   48.2046 H   0  0  0  0  0  0  0  0  0  0  0  0
   32.0783   30.5204   47.3886 C   0  0  0  0  0  0  0  0  0  0  0  0
   32.5447   31.7706   47.5816 N   0  0  0  0  0  0  0  0  0  0  0  0
   31.8202   32.8757   47.3074 C   0  0  0  0  0  0  0  0  0  0  0  0
   30.5564   32.7576   46.8119 N   0  0  0  0  0  0  0  0  0  0  0  0
   30.0541   31.5239   46.6052 C   0  0  0  0  0  0  0  0  0  0  0  0
   28.7699   31.4053   46.1017 C   0  0  0  0  0  0  0  0  0  0  0  0
   28.2136   30.1628   45.8737 C   0  0  0  0  0  0  0  0  0  0  0  0
   27.2052   30.0723   45.4785 H   0  0  0  0  0  0  0  0  0  0  0  0
   28.9382   29.0207   46.1476 C   0  0  0  0  0  0  0  0  0  0  0  0
   28.4573   28.0789   45.9515 H   0  0  0  0  0  0  0  0  0  0  0  0
   30.2176   29.1627   46.6493 C   0  0  0  0  0  0  0  0  0  0  0  0
   30.7960   30.3953   46.8859 C   0  0  0  0  0  0  0  0  0  0  0  0
   32.3041   33.8354   47.5048 H   0  0  0  0  0  0  0  0  0  0  0  0
   28.1368   32.2586   45.8612 H   0  0  0  0  0  0  0  0  0  0  0  0
   30.7626   28.2625   46.8550 H   0  0  0  0  0  0  0  0  0  0  0  0
  1  6  2  0
  2  1  1  0
  3  4  1  0
  3  2  2  0
  4  5  2  0
  5  6  1  0
  7  3  1  0
  8  7  2  0
  9  8  1  0
 10  9  2  0
 10 11  1  0
 11 12  2  0
 12  7  1  0
 13 11  1  0
 13 14  1  0
 15 13  1  0
 16 13  1  0
 17  5  1  0
 18 19  1  0
 19 20  2  0
 20 17  1  0
 21 20  1  0
 21 22  2  0
 23 21  1  0
 24 18  1  0
 24 23  1  0
 25 24  2  0
  1 26  1  0
  2 27  1  0
  8 28  1  0
  9 29  1  0
 18 30  1  0
 19 31  1  0
 32 33  2  0
 33 34  1  0
 34 35  2  0
 35 36  1  0
 36 37  2  0
 37 38  1  0
 38 39  1  0
 38 40  2  0
 40 41  1  0
 40 42  1  0
 42 43  2  0
 43 32  1  0
 43 36  1  0
 34 44  1  0
 37 45  1  0
 42 46  1  0
 23 32  1  0
M  ISO  8  26  14  27  14  28  14  29  14  30   9  31  14  39  16  41  16
M  END
>  <DihAtoms>  (1) 
20,22,31,32

>  <DihDeg>  (1) 
-70.24896917169136

$$$$
