
 OpenBabel03272504173D

 29 31  0  0  0  0  0  0  0  0999 V2000
   35.6660   30.0110   46.2150 O   0  0  0  0  0  0  0  0  0  0  0  0
   34.5320   29.8020   47.2010 P   0  0  1  0  0  0  0  0  0  0  0  0
   34.4640   28.2030   47.7220 O   0  0  0  0  0  0  0  0  0  0  0  0
   33.7190   28.1390   48.3650 H   0  0  0  0  0  0  0  0  0  0  0  0
   34.7420   30.7810   48.6050 O   0  0  0  0  0  0  0  0  0  0  0  0
   35.9280   30.8140   49.3100 C   0  0  0  0  0  0  0  0  0  0  0  0
   36.2840   30.0180   50.3980 C   0  0  0  0  0  0  0  0  0  0  0  0
   37.5240   30.2030   50.9720 C   0  0  0  0  0  0  0  0  0  0  0  0
   38.3690   31.1530   50.4690 N   0  0  0  0  0  0  0  0  0  0  0  0
   37.9930   31.9090   49.4120 C   0  0  0  0  0  0  0  0  0  0  0  0
   36.7740   31.7380   48.8360 N   0  0  0  0  0  0  0  0  0  0  0  0
   37.7430   29.5570   51.8120 H   0  0  0  0  0  0  0  0  0  0  0  0
   38.6900   32.6640   49.0280 H   0  0  0  0  0  0  0  0  0  0  0  0
   35.2960   29.0890   50.7890 N   0  0  0  0  0  0  0  0  0  0  0  0
   34.4560   29.5680   51.2060 H   0  0  0  0  0  0  0  0  0  0  0  0
   35.7730   28.2010   50.5110 H   0  0  0  0  0  0  0  0  0  0  0  0
   33.1340   30.2780   46.3840 O   0  0  0  0  0  0  0  0  0  0  0  0
   32.0710   29.4150   46.1680 C   0  0  0  0  0  0  0  0  0  0  0  0
   31.0290   29.1770   46.9760 N   0  0  0  0  0  0  0  0  0  0  0  0
   30.0610   28.3060   46.6370 C   0  0  0  0  0  3  0  0  0  0  0  0
   30.0980   27.6260   45.4540 N   0  0  0  0  0  0  0  0  0  0  0  0
   31.1340   27.8280   44.5950 C   0  0  0  0  0  0  0  0  0  0  0  0
   31.1810   27.1390   43.3880 C   0  0  0  0  0  3  0  0  0  0  0  0
   32.2400   27.3490   42.5150 C   0  0  0  0  0  0  0  0  0  0  0  0
   32.1900   26.7740   41.6090 H   0  0  0  0  0  0  0  0  0  0  0  0
   33.2440   28.2430   42.8520 C   0  0  0  0  0  0  0  0  0  0  0  0
   34.0430   28.3830   42.1610 H   0  0  0  0  0  0  0  0  0  0  0  0
   33.1350   28.8910   44.0620 C   0  0  0  0  0  3  0  0  0  0  0  0
   32.1140   28.7290   44.9710 C   0  0  0  0  0  0  0  0  0  0  0  0
  2  1  2  6  0  0  0
  2  3  1  0  0  0  0
  2  5  1  0  0  0  0
  3  4  1  0  0  0  0
  5  6  1  0  0  0  0
  6  7  1  0  0  0  0
  7 14  1  0  0  0  0
  7  8  2  0  0  0  0
  8 12  1  0  0  0  0
  9  8  1  0  0  0  0
 10  9  2  0  0  0  0
 11  6  2  0  0  0  0
 11 10  1  0  0  0  0
 13 10  1  0  0  0  0
 14 15  1  0  0  0  0
 16 14  1  0  0  0  0
 17  2  1  0  0  0  0
 18 17  1  0  0  0  0
 18 19  1  0  0  0  0
 20 19  2  0  0  0  0
 21 20  1  0  0  0  0
 22 29  1  0  0  0  0
 22 21  2  0  0  0  0
 23 22  1  0  0  0  0
 24 26  1  0  0  0  0
 24 23  2  0  0  0  0
 25 24  1  0  0  0  0
 26 28  2  0  0  0  0
 27 26  1  0  0  0  0
 28 29  1  0  0  0  0
 29 18  2  0  0  0  0
M  END
>  <minimizedAffinity>
-3.74758005

>  <minimizedRMSD>
2.34148169

$$$$
