
 OpenBabel03272509473D

 28 30  0  0  0  0  0  0  0  0999 V2000
   33.3820   27.7640   48.5310 C   0  0  0  0  0  0  0  0  0  0  0  0
   33.0510   27.6730   49.5980 H   0  0  0  0  0  0  0  0  0  0  0  0
   33.8760   26.7920   48.3220 H   0  0  0  0  0  0  0  0  0  0  0  0
   32.1680   27.9720   47.7190 C   0  0  0  0  0  0  0  0  0  0  0  0
   32.2510   28.2630   46.3980 N   0  0  0  0  0  0  0  0  0  0  0  0
   31.2000   28.4350   45.6110 C   0  0  0  0  0  3  0  0  0  0  0  0
   29.9580   28.3260   46.1110 N   0  0  0  0  0  0  0  0  0  0  0  0
   29.7590   28.0420   47.4000 C   0  0  0  0  0  0  0  0  0  0  0  0
   28.4730   27.9430   47.8790 C   0  0  0  0  0  3  0  0  0  0  0  0
   28.3400   27.6560   49.2210 C   0  0  0  0  0  0  0  0  0  0  0  0
   27.3260   27.5800   49.5930 H   0  0  0  0  0  0  0  0  0  0  0  0
   29.4210   27.4710   50.0740 C   0  0  0  0  0  0  0  0  0  0  0  0
   29.2060   27.2480   51.1200 H   0  0  0  0  0  0  0  0  0  0  0  0
   30.6830   27.5860   49.5200 C   0  0  0  0  0  3  0  0  0  0  0  0
   30.8760   27.8700   48.1850 C   0  0  0  0  0  0  0  0  0  0  0  0
   34.3230   28.9210   48.4860 C   0  0  0  0  0  0  0  0  0  0  0  0
   33.8080   29.8210   48.8940 H   0  0  0  0  0  0  0  0  0  0  0  0
   34.5600   29.1700   47.4420 H   0  0  0  0  0  0  0  0  0  0  0  0
   35.4930   28.6370   49.2400 O   0  0  0  0  0  0  0  0  0  0  0  0
   38.1440   30.8240   50.3540 C   0  0  0  0  0  0  0  0  0  0  0  0
   38.2780   31.6410   49.2310 C   0  0  0  0  0  0  0  0  0  0  0  0
   37.4440   31.3980   48.1340 C   0  0  0  0  0  0  0  0  0  0  0  0
   36.5520   30.3670   48.2530 N   0  0  0  0  0  0  0  0  0  0  0  0
   36.4560   29.6080   49.3490 C   0  0  0  0  0  0  0  0  0  0  0  0
   37.2650   29.8490   50.4010 N   0  0  0  0  0  0  0  0  0  0  0  0
   38.7820   30.9920   51.2220 H   0  0  0  0  0  0  0  0  0  0  0  0
   39.0000   32.4400   49.1930 H   0  0  0  0  0  0  0  0  0  0  0  0
   37.4990   31.9960   47.2310 H   0  0  0  0  0  0  0  0  0  0  0  0
  1  2  1  0  0  0  0
  3  1  1  0  0  0  0
  4 15  1  0  0  0  0
  4  1  1  0  0  0  0
  5  4  2  0  0  0  0
  6  7  2  0  0  0  0
  6  5  1  0  0  0  0
  7  8  1  0  0  0  0
  8  9  2  0  0  0  0
  8 15  1  0  0  0  0
  9 10  1  0  0  0  0
 10 11  1  0  0  0  0
 10 12  2  0  0  0  0
 12 13  1  0  0  0  0
 14 12  1  0  0  0  0
 15 14  2  0  0  0  0
 16  1  1  0  0  0  0
 16 17  1  0  0  0  0
 16 19  1  0  0  0  0
 18 16  1  0  0  0  0
 19 24  1  0  0  0  0
 20 25  1  0  0  0  0
 20 26  1  0  0  0  0
 21 20  2  0  0  0  0
 22 23  2  0  0  0  0
 22 21  1  0  0  0  0
 23 24  1  0  0  0  0
 24 25  2  0  0  0  0
 27 21  1  0  0  0  0
 28 22  1  0  0  0  0
M  END
>  <minimizedAffinity>
-4.69531393

>  <minimizedRMSD>
2.50389671

$$$$
