
 OpenBabel03272504243D

 42 46  0  0  0  0  0  0  0  0999 V2000
   33.1890   29.4610   42.4340 C   0  0  0  0  0  0  0  0  0  0  0  0
   34.4460   29.5730   41.8370 C   0  0  0  0  0  0  0  0  0  0  0  0
   34.9480   28.6820   40.9170 C   0  0  0  0  0  0  0  0  0  0  0  0
   34.2000   27.5840   40.5170 C   0  0  0  0  0  0  0  0  0  0  0  0
   32.9450   27.3950   41.0530 C   0  0  0  0  0  0  0  0  0  0  0  0
   32.5330   28.3260   41.9550 C   0  0  0  0  0  0  0  0  0  0  0  0
   35.9540   28.8530   40.4990 H   0  0  0  0  0  0  0  0  0  0  0  0
   34.6570   26.9280   39.7950 H   0  0  0  0  0  0  0  0  0  0  0  0
   32.3540   26.5660   40.7630 H   0  0  0  0  0  0  0  0  0  0  0  0
   31.5240   28.1470   42.3650 H   0  0  0  0  0  0  0  0  0  0  0  0
   36.7020   31.8920   43.5780 C   0  0  0  0  0  0  0  0  0  0  0  0
   36.6560   32.9200   42.7310 C   0  0  0  0  0  0  0  0  0  0  0  0
   35.9360   32.8880   41.6110 C   0  0  0  0  0  0  0  0  0  0  0  0
   35.2330   31.7700   41.3470 N   0  0  0  0  0  0  0  0  0  0  0  0
   35.2520   30.7280   42.1810 C   0  0  0  0  0  0  0  0  0  0  0  0
   35.9880   30.7860   43.2970 N   0  0  0  0  0  0  0  0  0  0  0  0
   37.2390   33.7800   43.0140 H   0  0  0  0  0  0  0  0  0  0  0  0
   36.0180   33.8060   41.0350 H   0  0  0  0  0  0  0  0  0  0  0  0
   39.4670   32.6680   45.8800 C   0  0  0  0  0  0  0  0  0  0  0  0
   39.2230   31.7700   46.9400 C   0  0  0  0  0  0  0  0  0  0  0  0
   38.1000   30.9170   46.8380 C   0  0  0  0  0  0  0  0  0  0  0  0
   37.3060   30.9990   45.7270 N   0  0  0  0  0  0  0  0  0  0  0  0
   37.5690   31.8590   44.7510 C   0  0  0  0  0  0  0  0  0  0  0  0
   38.6600   32.7020   44.8250 N   0  0  0  0  0  0  0  0  0  0  0  0
   40.3240   33.3230   45.9520 H   0  0  0  0  0  0  0  0  0  0  0  0
   39.8270   31.6910   47.8080 H   0  0  0  0  0  0  0  0  0  0  0  0
   37.8280   30.1980   47.5910 H   0  0  0  0  0  0  0  0  0  0  0  0
   32.5460   30.5470   43.5680 S   0  0  0  0  0  0  0  0  0  0  0  0
   32.8430   31.8190   42.8790 O   0  0  0  0  0  0  0  0  0  0  0  0
   33.4490   30.7340   44.7340 O   0  0  0  0  0  0  0  0  0  0  0  0
   30.9850   31.2380   43.6050 C   0  0  0  0  0  0  0  0  0  0  0  0
   30.1580   31.5180   44.5990 N   0  0  0  0  0  0  0  0  0  0  0  0
   28.9080   31.9720   44.5890 C   0  0  0  0  0  3  0  0  0  0  0  0
   28.3390   32.1990   43.4040 N   0  0  0  0  0  0  0  0  0  0  0  0
   29.0750   31.9510   42.3150 C   0  0  0  0  0  0  0  0  0  0  0  0
   28.4120   32.2190   41.1290 C   0  0  0  0  0  3  0  0  0  0  0  0
   29.0370   32.0220   39.9190 C   0  0  0  0  0  0  0  0  0  0  0  0
   28.5210   32.2310   39.0000 H   0  0  0  0  0  0  0  0  0  0  0  0
   30.3330   31.5560   39.9210 C   0  0  0  0  0  0  0  0  0  0  0  0
   30.8170   31.4030   38.9830 H   0  0  0  0  0  0  0  0  0  0  0  0
   30.9250   31.3120   41.1370 C   0  0  0  0  0  3  0  0  0  0  0  0
   30.3580   31.4860   42.3830 C   0  0  0  0  0  0  0  0  0  0  0  0
  1 28  1  0  0  0  0
  2 15  1  0  0  0  0
  2  1  2  0  0  0  0
  3  2  1  0  0  0  0
  4  3  2  0  0  0  0
  4  5  1  0  0  0  0
  5  6  2  0  0  0  0
  6 10  1  0  0  0  0
  6  1  1  0  0  0  0
  7  3  1  0  0  0  0
  8  4  1  0  0  0  0
  9  5  1  0  0  0  0
 11 23  1  0  0  0  0
 12 17  1  0  0  0  0
 12 11  2  0  0  0  0
 13 12  1  0  0  0  0
 14 13  2  0  0  0  0
 14 15  1  0  0  0  0
 15 16  2  0  0  0  0
 16 11  1  0  0  0  0
 18 13  1  0  0  0  0
 19 25  1  0  0  0  0
 19 20  1  0  0  0  0
 20 26  1  0  0  0  0
 21 20  2  0  0  0  0
 21 27  1  0  0  0  0
 22 21  1  0  0  0  0
 23 24  1  0  0  0  0
 23 22  2  0  0  0  0
 24 19  2  0  0  0  0
 28 31  1  0  0  0  0
 28 30  2  0  0  0  0
 29 28  2  0  0  0  0
 31 32  1  0  0  0  0
 33 32  2  0  0  0  0
 34 33  1  0  0  0  0
 35 42  1  0  0  0  0
 35 34  2  0  0  0  0
 36 35  1  0  0  0  0
 37 39  1  0  0  0  0
 37 36  2  0  0  0  0
 38 37  1  0  0  0  0
 39 41  2  0  0  0  0
 40 39  1  0  0  0  0
 41 42  1  0  0  0  0
 42 31  2  0  0  0  0
M  END
>  <minimizedAffinity>
-3.50998831

>  <minimizedRMSD>
7.62597942

$$$$
