
     RDKit          3D

 52 56  0  0  0  0  0  0  0  0999 V2000
   37.3321   30.1875   51.5242 C   0  0  0  0  0  0  0  0  0  0  0  0
   38.0650   30.8742   50.5216 C   0  0  0  0  0  0  0  0  0  0  0  0
   37.7044   30.6560   49.2031 C   0  0  0  0  0  0  0  0  0  0  0  0
   36.6658   29.7913   48.9823 N   0  0  0  0  0  0  0  0  0  0  0  0
   35.9844   29.1514   49.9364 C   0  0  0  0  0  0  0  0  0  0  0  0
   36.3340   29.3616   51.2335 N   0  0  0  0  0  0  0  0  0  0  0  0
   38.9488   33.2625   49.0069 F   0  0  0  0  0  0  0  0  0  0  0  0
   38.9137   32.4727   47.9430 C   0  0  0  0  0  0  0  0  0  0  0  0
   38.3303   31.2637   48.0591 C   0  0  0  0  0  0  0  0  0  0  0  0
   38.3528   30.5171   46.8687 C   0  0  0  0  0  0  0  0  0  0  0  0
   38.9139   30.9811   45.7121 C   0  0  0  0  0  0  0  0  0  0  0  0
   39.4961   32.2272   45.6562 C   0  0  0  0  0  0  0  0  0  0  0  0
   39.4884   32.9734   46.7966 C   0  0  0  0  0  0  0  0  0  0  0  0
   34.9972   28.3480   49.4567 O   0  0  0  0  0  0  0  0  0  0  0  0
   34.4477   28.6475   48.1725 C   0  0  0  0  0  0  0  0  0  0  0  0
   33.5609   27.5344   47.7081 C   0  0  0  0  0  0  0  0  0  0  0  0
   32.1140   27.8887   47.7496 C   0  0  0  0  0  0  0  0  0  0  0  0
   31.3791   27.4619   48.8376 C   0  0  0  0  0  0  0  0  0  0  0  0
   30.0445   27.7491   48.9436 C   0  0  0  0  0  0  0  0  0  0  0  0
   29.4382   28.4507   47.9860 N   0  0  0  0  0  0  0  0  0  0  0  0
   30.1712   28.8701   46.9104 C   0  0  0  0  0  0  0  0  0  0  0  0
   31.4691   28.5879   46.8129 N   0  0  0  0  0  0  0  0  0  0  0  0
   29.4354   29.6560   45.8888 C   0  0  0  0  0  0  0  0  0  0  0  0
   37.6388   30.3809   52.5465 H   0  0  0  0  0  0  0  0  0  0  0  0
   38.8692   31.5419   50.7082 H   0  0  0  0  0  0  0  0  0  0  0  0
   37.9090   29.5217   46.8471 H   0  0  0  0  0  0  0  0  0  0  0  0
   38.9002   30.3505   44.8161 H   0  0  0  0  0  0  0  0  0  0  0  0
   39.9327   32.5650   44.7194 H   0  0  0  0  0  0  0  0  0  0  0  0
   39.9430   33.9552   46.7621 H   0  0  0  0  0  0  0  0  0  0  0  0
   35.3039   28.8523   47.4984 H   0  0  0  0  0  0  0  0  0  0  0  0
   33.8406   29.5589   48.2360 H   0  0  0  0  0  0  0  0  0  0  0  0
   33.8089   27.3485   46.6299 H   0  0  0  0  0  0  0  0  0  0  0  0
   33.7118   26.5904   48.2345 H   0  0  0  0  0  0  0  0  0  0  0  0
   31.8062   26.8948   49.6424 H   0  0  0  0  0  0  0  0  0  0  0  0
   29.4141   27.4401   49.7776 H   0  0  0  0  0  0  0  0  0  0  0  0
   30.0829   30.4070   45.3906 H   0  0  0  0  0  0  0  0  0  0  0  0
   28.6494   30.2462   46.3937 H   0  0  0  0  0  0  0  0  0  0  0  0
   28.7725   28.7522   44.9179 C   0  0  0  0  0  0  0  0  0  0  0  0
   28.4448   29.2838   43.7011 N   0  0  0  0  0  0  0  0  0  0  0  0
   27.8053   28.6048   42.7426 C   0  0  0  0  0  0  0  0  0  0  0  0
   27.4299   27.3257   42.9067 N   0  0  0  0  0  0  0  0  0  0  0  0
   27.7358   26.7502   44.1049 C   0  0  0  0  0  0  0  0  0  0  0  0
   27.3963   25.4333   44.3505 C   0  0  0  0  0  0  0  0  0  0  0  0
   27.7097   24.8353   45.5490 C   0  0  0  0  0  0  0  0  0  0  0  0
   27.3987   23.8021   45.6373 H   0  0  0  0  0  0  0  0  0  0  0  0
   28.3799   25.5712   46.5287 C   0  0  0  0  0  0  0  0  0  0  0  0
   28.6025   25.0474   47.4497 H   0  0  0  0  0  0  0  0  0  0  0  0
   28.7207   26.8779   46.2976 C   0  0  0  0  0  0  0  0  0  0  0  0
   28.3904   27.4391   45.0908 C   0  0  0  0  0  0  0  0  0  0  0  0
   27.6082   29.1390   41.8345 H   0  0  0  0  0  0  0  0  0  0  0  0
   26.8696   24.9196   43.5310 H   0  0  0  0  0  0  0  0  0  0  0  0
   29.2392   27.4021   47.0553 H   0  0  0  0  0  0  0  0  0  0  0  0
  2  1  2  0
  3  2  1  0
  4  3  2  0
  4  5  1  0
  5  6  2  0
  6  1  1  0
  8  9  2  0
  8  7  1  0
  9  3  1  0
 10  9  1  0
 11 10  2  0
 12 11  1  0
 12 13  2  0
 13  8  1  0
 14  5  1  0
 15 14  1  0
 16 17  1  0
 16 15  1  0
 17 18  2  0
 18 19  1  0
 20 19  2  0
 21 20  1  0
 22 21  2  0
 22 17  1  0
 23 21  1  0
  1 24  1  0
  2 25  1  0
 10 26  1  0
 11 27  1  0
 12 28  1  0
 13 29  1  0
 15 30  1  0
 15 31  1  0
 16 32  1  0
 16 33  1  0
 18 34  1  0
 19 35  1  0
 23 36  1  0
 23 37  1  0
 38 39  2  0
 39 40  1  0
 40 41  2  0
 41 42  1  0
 42 43  2  0
 43 44  1  0
 44 45  1  0
 44 46  2  0
 46 47  1  0
 46 48  1  0
 48 49  2  0
 49 38  1  0
 49 42  1  0
 40 50  1  0
 43 51  1  0
 48 52  1  0
 23 38  1  0
M  ISO  8  24  14  25  14  26  14  27  14  28  14  29  14  30   8  31   8
M  ISO  8  32   8  33   8  34  14  35  14  36   8  37   8  45  16  47  16
M  END
>  <DihAtoms>  (1) 
20,22,37,38

>  <DihDeg>  (1) 
96.22165875988281

$$$$
