
 OpenBabel03272509573D

 49 53  0  0  0  0  0  0  0  0999 V2000
   33.2380   28.1930   47.2080 C   0  0  0  0  0  0  0  0  0  0  0  0
   33.1950   28.5720   46.1530 H   0  0  0  0  0  0  0  0  0  0  0  0
   33.6440   27.1810   47.1630 H   0  0  0  0  0  0  0  0  0  0  0  0
   31.8290   28.1330   47.6890 C   0  0  0  0  0  0  0  0  0  0  0  0
   31.6110   27.7150   48.9870 C   0  0  0  0  0  0  0  0  0  0  0  0
   30.3430   27.6330   49.4980 C   0  0  0  0  0  0  0  0  0  0  0  0
   29.2980   27.9590   48.7370 N   0  0  0  0  0  0  0  0  0  0  0  0
   29.5210   28.3710   47.4510 C   0  0  0  0  0  0  0  0  0  0  0  0
   30.7560   28.4490   46.9610 N   0  0  0  0  0  0  0  0  0  0  0  0
   32.4070   27.4390   49.6510 H   0  0  0  0  0  0  0  0  0  0  0  0
   30.1100   27.3110   50.5130 H   0  0  0  0  0  0  0  0  0  0  0  0
   28.3140   28.7300   46.6660 C   0  0  0  0  0  0  0  0  0  0  0  0
   28.4280   29.7020   46.1440 H   0  0  0  0  0  0  0  0  0  0  0  0
   27.4680   28.8760   47.3620 H   0  0  0  0  0  0  0  0  0  0  0  0
   27.9540   27.6310   45.7380 C   0  0  0  0  0  0  0  0  0  0  0  0
   28.5790   26.4290   45.9310 N   0  0  0  0  0  0  0  0  0  0  0  0
   28.3890   25.3610   45.1470 C   0  0  0  0  0  3  0  0  0  0  0  0
   27.5560   25.3900   44.0950 N   0  0  0  0  0  0  0  0  0  0  0  0
   26.9080   26.5670   43.8630 C   0  0  0  0  0  0  0  0  0  0  0  0
   26.0230   26.6770   42.8060 C   0  0  0  0  0  3  0  0  0  0  0  0
   25.3520   27.8540   42.5680 C   0  0  0  0  0  0  0  0  0  0  0  0
   24.6830   27.8320   41.7170 H   0  0  0  0  0  0  0  0  0  0  0  0
   25.5710   28.9510   43.4050 C   0  0  0  0  0  0  0  0  0  0  0  0
   25.0120   29.8480   43.1700 H   0  0  0  0  0  0  0  0  0  0  0  0
   26.4460   28.8540   44.4540 C   0  0  0  0  0  3  0  0  0  0  0  0
   27.0960   27.6640   44.6600 C   0  0  0  0  0  0  0  0  0  0  0  0
   34.0780   29.1610   47.9830 C   0  0  0  0  0  0  0  0  0  0  0  0
   34.6270   29.8880   47.3500 H   0  0  0  0  0  0  0  0  0  0  0  0
   33.4150   29.7240   48.6510 H   0  0  0  0  0  0  0  0  0  0  0  0
   35.0580   28.4650   48.7560 O   0  0  0  0  0  0  0  0  0  0  0  0
   37.1740   30.0310   51.2420 C   0  0  0  0  0  0  0  0  0  0  0  0
   37.9970   30.8260   50.4040 C   0  0  0  0  0  0  0  0  0  0  0  0
   37.7660   30.7690   49.0400 C   0  0  0  0  0  0  0  0  0  0  0  0
   36.7580   29.9430   48.6190 N   0  0  0  0  0  0  0  0  0  0  0  0
   35.9910   29.1990   49.4200 C   0  0  0  0  0  0  0  0  0  0  0  0
   36.2130   29.2520   50.7600 N   0  0  0  0  0  0  0  0  0  0  0  0
   37.3800   30.1000   52.3060 H   0  0  0  0  0  0  0  0  0  0  0  0
   38.7760   31.4620   50.7440 H   0  0  0  0  0  0  0  0  0  0  0  0
   38.7960   33.4710   49.1900 F   0  0  0  0  0  0  0  0  0  0  0  0
   38.9840   32.7590   48.0880 C   0  0  0  0  0  0  0  0  0  0  0  0
   38.4960   31.5040   48.0420 C   0  0  0  0  0  0  0  0  0  0  0  0
   38.7560   30.8490   46.8260 C   0  0  0  0  0  0  0  0  0  0  0  0
   39.4370   31.4370   45.7960 C   0  0  0  0  0  0  0  0  0  0  0  0
   39.9110   32.7250   45.9040 C   0  0  0  0  0  0  0  0  0  0  0  0
   39.6730   33.3830   47.0730 C   0  0  0  0  0  0  0  0  0  0  0  0
   38.4080   29.8270   46.6780 H   0  0  0  0  0  0  0  0  0  0  0  0
   39.6070   30.8740   44.8720 H   0  0  0  0  0  0  0  0  0  0  0  0
   40.4480   33.1620   45.0650 H   0  0  0  0  0  0  0  0  0  0  0  0
   40.0420   34.3970   47.1660 H   0  0  0  0  0  0  0  0  0  0  0  0
  1  4  1  0  0  0  0
  1 27  1  0  0  0  0
  2  1  1  0  0  0  0
  3  1  1  0  0  0  0
  4  5  1  0  0  0  0
  5  6  2  0  0  0  0
  5 10  1  0  0  0  0
  6 11  1  0  0  0  0
  7  6  1  0  0  0  0
  8  7  2  0  0  0  0
  9  8  1  0  0  0  0
  9  4  2  0  0  0  0
 12 14  1  0  0  0  0
 12  8  1  0  0  0  0
 13 12  1  0  0  0  0
 15 16  1  0  0  0  0
 15 12  1  0  0  0  0
 17 16  2  0  0  0  0
 18 17  1  0  0  0  0
 19 18  2  0  0  0  0
 19 26  1  0  0  0  0
 20 19  1  0  0  0  0
 21 20  2  0  0  0  0
 21 23  1  0  0  0  0
 22 21  1  0  0  0  0
 23 25  2  0  0  0  0
 24 23  1  0  0  0  0
 25 26  1  0  0  0  0
 26 15  2  0  0  0  0
 27 29  1  0  0  0  0
 27 30  1  0  0  0  0
 28 27  1  0  0  0  0
 30 35  1  0  0  0  0
 31 37  1  0  0  0  0
 32 38  1  0  0  0  0
 32 31  2  0  0  0  0
 33 32  1  0  0  0  0
 34 33  2  0  0  0  0
 34 35  1  0  0  0  0
 35 36  2  0  0  0  0
 36 31  1  0  0  0  0
 40 39  1  0  0  0  0
 41 40  1  0  0  0  0
 41 33  1  0  0  0  0
 42 41  2  0  0  0  0
 43 44  2  0  0  0  0
 43 42  1  0  0  0  0
 44 45  1  0  0  0  0
 45 49  1  0  0  0  0
 45 40  2  0  0  0  0
 46 42  1  0  0  0  0
 47 43  1  0  0  0  0
 48 44  1  0  0  0  0
M  END
>  <minimizedAffinity>
-6.98341131

>  <minimizedRMSD>
1.54288757

$$$$
