REMARK  Name = 
REMARK  6 active torsions:
REMARK  status: ('A' for Active; 'I' for Inactive)
REMARK    1  A    between atoms: C_1  and  O_8
REMARK    2  A    between atoms: C_2  and  N_7
REMARK    3  A    between atoms: O_8  and  P_10
REMARK    4  A    between atoms: P_10  and  O_11
REMARK    5  A    between atoms: P_10  and  O_12
REMARK    6  A    between atoms: O_12  and  C_18
REMARK                            x       y       z     vdW  Elec       q    Type
REMARK                         _______ _______ _______ _____ _____    ______ ____
ROOT
ATOM      1  O   UNL     1      35.525  30.089  46.546  0.00  0.00    +0.000 OA
ATOM      2  P   UNL     1      34.364  30.070  47.522  0.00  0.00    +0.000 P 
ENDROOT
BRANCH   2   3
ATOM      3  O   UNL     1      33.993  28.498  47.996  0.00  0.00    +0.000 OA
ATOM      4  H   UNL     1      33.244  28.557  48.635  0.00  0.00    +0.000 HD
ENDBRANCH   2   3
BRANCH   2   5
ATOM      5  O   UNL     1      34.743  30.952  48.955  0.00  0.00    +0.000 OA
BRANCH   5   6
ATOM      6  C   UNL     1      35.943  30.797  49.620  0.00  0.00    +0.000 A 
ATOM      7  C   UNL     1      36.226  29.898  50.648  0.00  0.00    +0.000 A 
ATOM      8  C   UNL     1      37.494  29.895  51.190  0.00  0.00    +0.000 A 
ATOM      9  N   UNL     1      38.437  30.764  50.714  0.00  0.00    +0.000 NA
ATOM     10  C   UNL     1      38.129  31.624  49.715  0.00  0.00    +0.000 A 
ATOM     11  N   UNL     1      36.883  31.638  49.172  0.00  0.00    +0.000 NA
ATOM     12  H   UNL     1      37.654  29.177  51.983  0.00  0.00    +0.000 HD
ATOM     13  H   UNL     1      38.904  32.310  49.352  0.00  0.00    +0.000 HD
BRANCH   7  14
ATOM     14  N   UNL     1      35.142  29.074  51.018  0.00  0.00    +0.000 N 
ATOM     15  H   UNL     1      34.379  29.626  51.490  0.00  0.00    +0.000 HD
ATOM     16  H   UNL     1      35.498  28.153  50.674  0.00  0.00    +0.000 HD
ENDBRANCH   7  14
ENDBRANCH   5   6
ENDBRANCH   2   5
BRANCH   2  17
ATOM     17  O   UNL     1      33.087  30.823  46.716  0.00  0.00    +0.000 OA
BRANCH  17  18
ATOM     18  C   UNL     1      31.760  30.554  47.014  0.00  0.00    +0.000 A 
ATOM     19  N   UNL     1      31.237  29.410  47.474  0.00  0.00    +0.000 NA
ATOM     20  C   UNL     1      29.920  29.288  47.721  0.00  0.00    +0.000 A 
ATOM     21  N   UNL     1      29.059  30.327  47.515  0.00  0.00    +0.000 NA
ATOM     22  C   UNL     1      29.535  31.513  47.049  0.00  0.00    +0.000 A 
ATOM     23  C   UNL     1      28.665  32.577  46.836  0.00  0.00    +0.000 A 
ATOM     24  C   UNL     1      29.157  33.786  46.360  0.00  0.00    +0.000 A 
ATOM     25  H   UNL     1      28.412  34.547  46.227  0.00  0.00    +0.000 HD
ATOM     26  C   UNL     1      30.512  33.924  46.101  0.00  0.00    +0.000 A 
ATOM     27  H   UNL     1      30.859  34.862  45.737  0.00  0.00    +0.000 HD
ATOM     28  C   UNL     1      31.317  32.831  46.334  0.00  0.00    +0.000 A 
ATOM     29  C   UNL     1      30.894  31.608  46.803  0.00  0.00    +0.000 A 
ENDBRANCH  17  18
ENDBRANCH   2  17
TORSDOF 6
