
 OpenBabel03272507163D

 29 32  0  0  1  0  0  0  0  0999 V2000
   36.0080   30.7660   50.0500 C   0  0  1  0  0  0  0  0  0  0  0  0
   35.0570   29.7220   49.7370 C   0  0  2  0  0  0  0  0  0  0  0  0
   36.2230   29.3670   50.6380 C   0  0  0  0  0  0  0  0  0  0  0  0
   35.8650   31.5840   50.8100 H   0  0  0  0  0  0  0  0  0  0  0  0
   34.0340   29.7970   50.1660 H   0  0  0  0  0  0  0  0  0  0  0  0
   35.9280   29.2900   51.6940 H   0  0  0  0  0  0  0  0  0  0  0  0
   37.0150   28.7300   50.2220 H   0  0  0  0  0  0  0  0  0  0  0  0
   37.0900   31.1590   49.0740 C   0  0  0  0  0  0  0  0  0  0  0  0
   37.7350   32.3720   49.3250 C   0  0  0  0  0  0  0  0  0  0  0  0
   38.7130   32.7220   48.3870 C   0  0  0  0  0  0  0  0  0  0  0  0
   38.9830   31.9140   47.3280 N   0  0  0  0  0  0  0  0  0  0  0  0
   38.3300   30.7490   47.1290 C   0  0  0  0  0  0  0  0  0  0  0  0
   37.3680   30.3620   48.0150 N   0  0  0  0  0  0  0  0  0  0  0  0
   37.4790   32.9740   50.1840 H   0  0  0  0  0  0  0  0  0  0  0  0
   39.2340   33.6550   48.5480 H   0  0  0  0  0  0  0  0  0  0  0  0
   38.5180   30.0830   46.2980 H   0  0  0  0  0  0  0  0  0  0  0  0
   35.0780   29.1390   48.4610 O   0  0  0  0  0  0  0  0  0  0  0  0
   33.9610   29.3460   47.6480 C   0  0  0  0  0  0  0  0  0  0  0  0
   33.8200   30.4980   46.9520 N   0  0  0  0  0  0  0  0  0  0  0  0
   32.7510   30.7200   46.1610 C   0  0  0  0  0  0  0  0  0  0  0  0
   31.7780   29.8010   46.0310 N   0  0  0  0  0  0  0  0  0  0  0  0
   31.8750   28.6500   46.6970 C   0  0  0  0  0  0  0  0  0  0  0  0
   30.8500   27.7270   46.5350 C   0  0  0  0  0  0  0  0  0  0  0  0
   30.9470   26.5340   47.2240 C   0  0  0  0  0  0  0  0  0  0  0  0
   30.2300   25.7260   47.1970 H   0  0  0  0  0  0  0  0  0  0  0  0
   32.0280   26.2900   48.0350 C   0  0  0  0  0  0  0  0  0  0  0  0
   32.1470   25.3640   48.5970 H   0  0  0  0  0  0  0  0  0  0  0  0
   33.0630   27.1890   48.2140 C   0  0  0  0  0  0  0  0  0  0  0  0
   32.9620   28.3870   47.5210 C   0  0  0  0  0  0  0  0  0  0  0  0
  1  3  1  0  0  0  0
  1  4  1  1  0  0  0
  2  1  1  0  0  0  0
  2  5  1  1  0  0  0
  2  3  1  0  0  0  0
  3  6  1  0  0  0  0
  7  3  1  0  0  0  0
  8  9  1  0  0  0  0
  8  1  1  0  0  0  0
  9 14  1  0  0  0  0
 10 15  1  0  0  0  0
 10  9  2  0  0  0  0
 11 10  1  0  0  0  0
 12 11  2  0  0  0  0
 12 13  1  0  0  0  0
 13  8  2  0  0  0  0
 16 12  1  0  0  0  0
 17  2  1  0  0  0  0
 18 17  1  0  0  0  0
 19 18  2  0  0  0  0
 20 19  1  0  0  0  0
 21 20  2  0  0  0  0
 21 22  1  0  0  0  0
 22 29  1  0  0  0  0
 23 22  2  0  0  0  0
 23 24  1  0  0  0  0
 24 26  2  0  0  0  0
 25 24  1  0  0  0  0
 26 28  1  0  0  0  0
 26 27  1  0  0  0  0
 29 18  1  0  0  0  0
 29 28  2  0  0  0  0
M  END
>  <minimizedAffinity>
-5.40340281

>  <minimizedRMSD>
2.89365554

$$$$
