
 OpenBabel03272505493D

 43 48  0  0  0  0  0  0  0  0999 V2000
   36.8190   30.3760   45.9330 C   0  0  0  0  0  0  0  0  0  0  0  0
   37.4470   30.4340   47.1300 C   0  0  0  0  0  0  0  0  0  0  0  0
   36.7220   30.2370   48.3060 C   0  0  0  0  0  0  0  0  0  0  0  0
   35.3550   29.9840   48.2060 C   0  0  0  0  0  0  0  0  0  0  0  0
   34.7200   29.9270   46.9530 C   0  0  0  0  0  0  0  0  0  0  0  0
   35.4980   30.1290   45.8690 N   0  0  0  0  0  0  0  0  0  0  0  0
   38.5010   30.6290   47.2270 H   0  0  0  0  0  0  0  0  0  0  0  0
   37.2170   30.2830   49.2610 H   0  0  0  0  0  0  0  0  0  0  0  0
   34.7470   29.8240   49.0850 H   0  0  0  0  0  0  0  0  0  0  0  0
   33.2980   29.6650   46.8100 C   0  0  0  0  0  0  0  0  0  0  0  0
   32.4330   30.0060   45.7990 N   0  0  0  0  0  0  0  0  0  0  0  0
   31.2030   29.5370   46.1230 C   0  0  0  0  0  0  0  0  0  0  0  0
   31.2950   28.9040   47.3330 N   0  0  0  0  0  0  0  0  0  0  0  0
   32.5680   28.9860   47.7410 N   0  0  0  0  0  0  0  0  0  0  0  0
   30.3060   29.6630   45.4960 H   0  0  0  0  0  0  0  0  0  0  0  0
   30.2310   28.2760   48.0240 C   0  0  0  0  0  0  0  0  0  0  0  0
   30.6180   27.6840   49.1730 N   0  0  0  0  0  0  0  0  0  0  0  0
   29.7070   27.0350   49.9550 C   0  0  0  0  0  3  0  0  0  0  0  0
   28.4010   26.9790   49.5820 N   0  0  0  0  0  0  0  0  0  0  0  0
   27.9870   27.5630   48.4360 C   0  0  0  0  0  0  0  0  0  0  0  0
   26.6640   27.5310   48.0130 C   0  0  0  0  0  3  0  0  0  0  0  0
   26.3010   28.1430   46.8380 C   0  0  0  0  0  0  0  0  0  0  0  0
   25.2520   28.0960   46.5410 H   0  0  0  0  0  0  0  0  0  0  0  0
   27.2580   28.7880   46.0800 C   0  0  0  0  0  0  0  0  0  0  0  0
   26.9280   29.2610   45.1520 H   0  0  0  0  0  0  0  0  0  0  0  0
   28.5960   28.8460   46.4620 C   0  0  0  0  0  3  0  0  0  0  0  0
   28.8980   28.2210   47.6370 C   0  0  0  0  0  0  0  0  0  0  0  0
   37.5860   30.5860   44.6460 C   0  0  0  0  0  0  0  0  0  0  0  0
   37.4910   29.5610   43.5930 C   0  0  0  0  0  0  0  0  0  0  0  0
   36.7940   30.8840   43.4070 C   0  0  0  0  0  0  0  0  0  0  0  0
   38.3840   29.4160   42.9220 H   0  0  0  0  0  0  0  0  0  0  0  0
   36.8820   28.6610   43.7380 H   0  0  0  0  0  0  0  0  0  0  0  0
   37.2390   31.6140   42.6980 H   0  0  0  0  0  0  0  0  0  0  0  0
   35.6970   30.8600   43.4700 H   0  0  0  0  0  0  0  0  0  0  0  0
   39.8800   33.4680   45.0020 C   0  0  0  0  0  0  0  0  0  0  0  0
   41.1050   32.8540   45.2870 C   0  0  0  0  0  0  0  0  0  0  0  0
   41.1350   31.4480   45.3540 C   0  0  0  0  0  0  0  0  0  0  0  0
   39.9880   30.7560   45.1430 N   0  0  0  0  0  0  0  0  0  0  0  0
   38.8170   31.3890   44.8690 C   0  0  0  0  0  0  0  0  0  0  0  0
   38.7660   32.7240   44.8010 N   0  0  0  0  0  0  0  0  0  0  0  0
   39.8280   34.5470   44.9440 H   0  0  0  0  0  0  0  0  0  0  0  0
   41.9920   33.4430   45.4480 H   0  0  0  0  0  0  0  0  0  0  0  0
   42.0710   30.9350   45.5740 H   0  0  0  0  0  0  0  0  0  0  0  0
  1  2  1  0  0  0  0
  2  7  1  0  0  0  0
  2  3  2  0  0  0  0
  3  8  1  0  0  0  0
  4  3  1  0  0  0  0
  4  9  1  0  0  0  0
  5  4  2  0  0  0  0
  6  1  2  0  0  0  0
  6  5  1  0  0  0  0
 10  5  1  0  0  0  0
 10 14  2  0  0  0  0
 11 12  2  0  0  0  0
 11 10  1  0  0  0  0
 12 13  1  0  0  0  0
 13 14  1  0  0  0  0
 13 16  1  0  0  0  0
 15 12  1  0  0  0  0
 16 17  1  0  0  0  0
 17 18  2  0  0  0  0
 19 18  1  0  0  0  0
 20 19  2  0  0  0  0
 21 20  1  0  0  0  0
 22 21  2  0  0  0  0
 23 22  1  0  0  0  0
 24 26  2  0  0  0  0
 24 22  1  0  0  0  0
 25 24  1  0  0  0  0
 26 27  1  0  0  0  0
 27 16  2  0  0  0  0
 27 20  1  0  0  0  0
 28 39  1  0  0  0  0
 28  1  1  0  0  0  0
 29 32  1  0  0  0  0
 29 28  1  0  0  0  0
 30 34  1  0  0  0  0
 30 29  1  0  0  0  0
 30 28  1  0  0  0  0
 31 29  1  0  0  0  0
 33 30  1  0  0  0  0
 35 36  1  0  0  0  0
 36 37  2  0  0  0  0
 36 42  1  0  0  0  0
 37 43  1  0  0  0  0
 38 37  1  0  0  0  0
 39 38  2  0  0  0  0
 40 39  1  0  0  0  0
 40 35  2  0  0  0  0
 41 35  1  0  0  0  0
M  END
>  <minimizedAffinity>
-6.40489864

>  <minimizedRMSD>
1.46028662

$$$$
