
 OpenBabel03272509473D

 28 30  0  0  0  0  0  0  0  0999 V2000
   32.7470   27.3900   48.2850 C   0  0  0  0  0  0  0  0  0  0  0  0
   32.5620   26.9710   49.3080 H   0  0  0  0  0  0  0  0  0  0  0  0
   33.0010   26.4980   47.6750 H   0  0  0  0  0  0  0  0  0  0  0  0
   31.4950   28.0380   47.8520 C   0  0  0  0  0  0  0  0  0  0  0  0
   31.4370   28.7480   46.7000 N   0  0  0  0  0  0  0  0  0  0  0  0
   30.3390   29.3300   46.2430 C   0  0  0  0  0  3  0  0  0  0  0  0
   29.1890   29.2380   46.9340 N   0  0  0  0  0  0  0  0  0  0  0  0
   29.1330   28.5620   48.0840 C   0  0  0  0  0  0  0  0  0  0  0  0
   27.9410   28.4930   48.7680 C   0  0  0  0  0  3  0  0  0  0  0  0
   27.9530   27.7850   49.9520 C   0  0  0  0  0  0  0  0  0  0  0  0
   27.0130   27.7350   50.4860 H   0  0  0  0  0  0  0  0  0  0  0  0
   29.0880   27.1640   50.4570 C   0  0  0  0  0  0  0  0  0  0  0  0
   28.9910   26.6300   51.4040 H   0  0  0  0  0  0  0  0  0  0  0  0
   30.2490   27.2760   49.7150 C   0  0  0  0  0  3  0  0  0  0  0  0
   30.2940   27.9700   48.5240 C   0  0  0  0  0  0  0  0  0  0  0  0
   33.8830   28.3460   48.4270 C   0  0  0  0  0  0  0  0  0  0  0  0
   33.5220   29.3740   48.1950 H   0  0  0  0  0  0  0  0  0  0  0  0
   34.6510   28.1300   47.6700 H   0  0  0  0  0  0  0  0  0  0  0  0
   34.4120   28.2940   49.7450 O   0  0  0  0  0  0  0  0  0  0  0  0
   37.1170   30.0720   51.3500 C   0  0  0  0  0  0  0  0  0  0  0  0
   37.8500   30.4680   50.2310 C   0  0  0  0  0  0  0  0  0  0  0  0
   37.3760   30.1000   48.9670 C   0  0  0  0  0  0  0  0  0  0  0  0
   36.2160   29.3740   48.9290 N   0  0  0  0  0  0  0  0  0  0  0  0
   35.5440   29.0160   50.0280 C   0  0  0  0  0  0  0  0  0  0  0  0
   36.0090   29.3740   51.2420 N   0  0  0  0  0  0  0  0  0  0  0  0
   37.4650   30.3450   52.3460 H   0  0  0  0  0  0  0  0  0  0  0  0
   38.7590   31.0400   50.3210 H   0  0  0  0  0  0  0  0  0  0  0  0
   37.9000   30.3750   48.0580 H   0  0  0  0  0  0  0  0  0  0  0  0
  1 16  1  0  0  0  0
  1  2  1  0  0  0  0
  3  1  1  0  0  0  0
  4  1  1  0  0  0  0
  4 15  1  0  0  0  0
  5  4  2  0  0  0  0
  6  5  1  0  0  0  0
  6  7  2  0  0  0  0
  7  8  1  0  0  0  0
  8 15  2  0  0  0  0
  8  9  1  0  0  0  0
  9 10  2  0  0  0  0
 10 12  1  0  0  0  0
 10 11  1  0  0  0  0
 12 13  1  0  0  0  0
 14 12  2  0  0  0  0
 15 14  1  0  0  0  0
 16 19  1  0  0  0  0
 17 16  1  0  0  0  0
 18 16  1  0  0  0  0
 19 24  1  0  0  0  0
 20 26  1  0  0  0  0
 21 27  1  0  0  0  0
 21 20  2  0  0  0  0
 22 21  1  0  0  0  0
 23 22  2  0  0  0  0
 23 24  1  0  0  0  0
 24 25  2  0  0  0  0
 25 20  1  0  0  0  0
 28 22  1  0  0  0  0
M  END
>  <minimizedAffinity>
-5.29628468

>  <minimizedRMSD>
2.7980361

$$$$
