
 OpenBabel03272509473D

 28 30  0  0  0  0  0  0  0  0999 V2000
   32.8320   27.9320   48.7620 C   0  0  0  0  0  0  0  0  0  0  0  0
   31.8020   28.3530   48.8930 H   0  0  0  0  0  0  0  0  0  0  0  0
   32.7420   26.8880   49.1310 H   0  0  0  0  0  0  0  0  0  0  0  0
   33.1490   28.0020   47.3240 C   0  0  0  0  0  0  0  0  0  0  0  0
   32.9970   29.1550   46.6300 N   0  0  0  0  0  0  0  0  0  0  0  0
   33.2860   29.2900   45.3450 C   0  0  0  0  0  3  0  0  0  0  0  0
   33.7620   28.2440   44.6470 N   0  0  0  0  0  0  0  0  0  0  0  0
   33.9510   27.0590   45.2320 C   0  0  0  0  0  0  0  0  0  0  0  0
   34.4350   26.0090   44.4860 C   0  0  0  0  0  3  0  0  0  0  0  0
   34.5990   24.8100   45.1500 C   0  0  0  0  0  0  0  0  0  0  0  0
   34.9800   23.9870   44.5580 H   0  0  0  0  0  0  0  0  0  0  0  0
   34.3030   24.6370   46.4960 C   0  0  0  0  0  0  0  0  0  0  0  0
   34.4680   23.6470   46.9250 H   0  0  0  0  0  0  0  0  0  0  0  0
   33.8220   25.7370   47.1800 C   0  0  0  0  0  3  0  0  0  0  0  0
   33.6390   26.9590   46.5670 C   0  0  0  0  0  0  0  0  0  0  0  0
   33.7330   28.7740   49.6030 C   0  0  0  0  0  0  0  0  0  0  0  0
   33.3750   28.7450   50.6580 H   0  0  0  0  0  0  0  0  0  0  0  0
   33.6510   29.8280   49.2980 H   0  0  0  0  0  0  0  0  0  0  0  0
   35.0700   28.3040   49.5210 O   0  0  0  0  0  0  0  0  0  0  0  0
   37.4570   30.2970   51.3610 C   0  0  0  0  0  0  0  0  0  0  0  0
   38.1740   30.8600   50.3060 C   0  0  0  0  0  0  0  0  0  0  0  0
   37.8000   30.5240   48.9990 C   0  0  0  0  0  0  0  0  0  0  0  0
   36.7470   29.6600   48.8610 N   0  0  0  0  0  0  0  0  0  0  0  0
   36.0860   29.1430   49.9020 C   0  0  0  0  0  0  0  0  0  0  0  0
   36.4540   29.4720   51.1570 N   0  0  0  0  0  0  0  0  0  0  0  0
   37.7280   30.5420   52.3880 H   0  0  0  0  0  0  0  0  0  0  0  0
   38.9960   31.5360   50.4740 H   0  0  0  0  0  0  0  0  0  0  0  0
   38.3180   30.9270   48.1350 H   0  0  0  0  0  0  0  0  0  0  0  0
  1  2  1  0  0  0  0
  1  3  1  0  0  0  0
  1 16  1  0  0  0  0
  4  1  1  0  0  0  0
  5  4  1  0  0  0  0
  6  5  2  0  0  0  0
  7  8  2  0  0  0  0
  7  6  1  0  0  0  0
  8 15  1  0  0  0  0
  9 10  2  0  0  0  0
  9  8  1  0  0  0  0
 10 12  1  0  0  0  0
 11 10  1  0  0  0  0
 12 13  1  0  0  0  0
 12 14  2  0  0  0  0
 15 14  1  0  0  0  0
 15  4  2  0  0  0  0
 16 17  1  0  0  0  0
 18 16  1  0  0  0  0
 19 16  1  0  0  0  0
 19 24  1  0  0  0  0
 20 26  1  0  0  0  0
 21 27  1  0  0  0  0
 21 20  2  0  0  0  0
 22 21  1  0  0  0  0
 23 22  2  0  0  0  0
 23 24  1  0  0  0  0
 24 25  2  0  0  0  0
 25 20  1  0  0  0  0
 28 22  1  0  0  0  0
M  END
>  <minimizedAffinity>
-4.56623793

>  <minimizedRMSD>
1.28701365

$$$$
