
     RDKit          3D

 36 39  0  0  0  0  0  0  0  0999 V2000
   37.7307   31.0720   47.3881 C   0  0  0  0  0  0  0  0  0  0  0  0
   36.9979   30.7601   46.2682 C   0  0  0  0  0  0  0  0  0  0  0  0
   37.3004   31.2273   45.0068 C   0  0  0  0  0  0  0  0  0  0  0  0
   38.3764   32.0390   44.8511 N   0  0  0  0  0  0  0  0  0  0  0  0
   39.0841   32.3376   45.9472 C   0  0  0  0  0  0  0  0  0  0  0  0
   38.7918   31.8843   47.1749 N   0  0  0  0  0  0  0  0  0  0  0  0
   37.6123   30.3439   51.0711 C   0  0  0  0  0  0  0  0  0  0  0  0
   38.0579   30.9219   49.8566 C   0  0  0  0  0  0  0  0  0  0  0  0
   37.3727   30.5534   48.6915 C   0  0  0  0  0  0  0  0  0  0  0  0
   36.3561   29.6911   48.8021 N   0  0  0  0  0  0  0  0  0  0  0  0
   35.9439   29.1508   49.9573 C   0  0  0  0  0  0  0  0  0  0  0  0
   36.5821   29.4839   51.1020 N   0  0  0  0  0  0  0  0  0  0  0  0
   34.8902   28.2826   49.9132 O   0  0  0  0  0  0  0  0  0  0  0  0
   40.2629   33.2238   45.8002 C   0  0  0  0  0  0  0  0  0  0  0  0
   40.3693   33.9727   46.9841 F   0  0  0  0  0  0  0  0  0  0  0  0
   41.4125   32.5117   45.5598 F   0  0  0  0  0  0  0  0  0  0  0  0
   40.0887   34.1510   44.7987 F   0  0  0  0  0  0  0  0  0  0  0  0
   36.1324   30.1298   46.2863 H   0  0  0  0  0  0  0  0  0  0  0  0
   36.7424   30.9963   44.1203 H   0  0  0  0  0  0  0  0  0  0  0  0
   38.1826   30.6694   51.9322 H   0  0  0  0  0  0  0  0  0  0  0  0
   38.8842   31.6168   49.8007 H   0  0  0  0  0  0  0  0  0  0  0  0
   34.2762   27.9712   48.7288 C   0  0  0  0  0  0  0  0  0  0  0  0
   33.6389   26.9201   48.2382 N   0  0  0  0  0  0  0  0  0  0  0  0
   33.0998   26.8246   47.0174 C   0  0  0  0  0  0  0  0  0  0  0  0
   33.1667   27.8461   46.1437 N   0  0  0  0  0  0  0  0  0  0  0  0
   33.7909   28.9494   46.5490 C   0  0  0  0  0  0  0  0  0  0  0  0
   33.8389   29.9725   45.6273 C   0  0  0  0  0  0  0  0  0  0  0  0
   34.4657   31.1501   45.9636 C   0  0  0  0  0  0  0  0  0  0  0  0
   34.5027   31.9528   45.2389 H   0  0  0  0  0  0  0  0  0  0  0  0
   35.0336   31.2955   47.2040 C   0  0  0  0  0  0  0  0  0  0  0  0
   35.5433   32.2184   47.5129 H   0  0  0  0  0  0  0  0  0  0  0  0
   34.9512   30.2370   48.0776 C   0  0  0  0  0  0  0  0  0  0  0  0
   34.3394   29.0219   47.8161 C   0  0  0  0  0  0  0  0  0  0  0  0
   32.6342   25.8506   46.8686 H   0  0  0  0  0  0  0  0  0  0  0  0
   33.3984   29.8865   44.6379 H   0  0  0  0  0  0  0  0  0  0  0  0
   35.4105   30.3818   49.0533 H   0  0  0  0  0  0  0  0  0  0  0  0
  1  9  1  0
  2  1  2  0
  3  2  1  0
  4  3  2  0
  4  5  1  0
  5  6  2  0
  6  1  1  0
  7 12  2  0
  8  7  1  0
  9 10  1  0
  9  8  2  0
 10 11  2  0
 11 12  1  0
 13 11  1  0
 14  5  1  0
 14 15  1  0
 16 14  1  0
 17 14  1  0
  2 18  1  0
  3 19  1  0
  7 20  1  0
  8 21  1  0
 22 23  2  0
 23 24  1  0
 24 25  2  0
 25 26  1  0
 26 27  2  0
 27 28  1  0
 28 29  1  0
 28 30  2  0
 30 31  1  0
 30 32  1  0
 32 33  2  0
 33 22  1  0
 33 26  1  0
 24 34  1  0
 27 35  1  0
 32 36  1  0
 13 22  1  0
M  ISO  6  18  14  19  14  20  14  21  14  29  16  31  16
M  END
>  <DihAtoms>  (1) 
10,12,21,22

>  <DihDeg>  (1) 
0.05829683935540778

$$$$
