
     RDKit          3D

 31 33  0  0  0  0  0  0  0  0999 V2000
   37.3245   30.2074   51.4174 C   0  0  0  0  0  0  0  0  0  0  0  0
   38.0499   30.6607   50.3152 C   0  0  0  0  0  0  0  0  0  0  0  0
   37.6139   30.2885   49.0383 C   0  0  0  0  0  0  0  0  0  0  0  0
   36.4967   29.4999   48.9726 N   0  0  0  0  0  0  0  0  0  0  0  0
   35.8310   29.0875   50.0555 C   0  0  0  0  0  0  0  0  0  0  0  0
   36.2587   29.4512   51.2825 N   0  0  0  0  0  0  0  0  0  0  0  0
   34.7452   28.3085   49.7465 O   0  0  0  0  0  0  0  0  0  0  0  0
   34.1977   28.3928   48.4377 C   0  0  0  0  0  0  0  0  0  0  0  0
   33.8373   27.0345   47.9364 C   0  0  0  0  0  0  0  0  0  0  0  0
   37.6435   30.4825   52.4222 H   0  0  0  0  0  0  0  0  0  0  0  0
   38.9238   31.2814   50.4261 H   0  0  0  0  0  0  0  0  0  0  0  0
   38.1338   30.6071   48.1410 H   0  0  0  0  0  0  0  0  0  0  0  0
   33.2853   29.0322   48.4398 H   0  0  0  0  0  0  0  0  0  0  0  0
   34.8905   28.8792   47.7357 H   0  0  0  0  0  0  0  0  0  0  0  0
   33.0363   26.6533   48.6212 H   0  0  0  0  0  0  0  0  0  0  0  0
   34.6580   26.2958   48.0493 H   0  0  0  0  0  0  0  0  0  0  0  0
   33.2690   27.0516   46.5754 C   0  0  0  0  0  0  0  0  0  0  0  0
   33.2160   28.1967   45.8538 N   0  0  0  0  0  0  0  0  0  0  0  0
   32.7423   28.2734   44.6192 C   0  0  0  0  0  0  0  0  0  0  0  0
   32.2749   27.1721   44.0068 N   0  0  0  0  0  0  0  0  0  0  0  0
   32.2788   25.9892   44.6259 C   0  0  0  0  0  0  0  0  0  0  0  0
   31.7869   24.8836   43.9710 C   0  0  0  0  0  0  0  0  0  0  0  0
   31.8134   23.6947   44.6703 C   0  0  0  0  0  0  0  0  0  0  0  0
   31.4250   22.8285   44.1500 H   0  0  0  0  0  0  0  0  0  0  0  0
   32.3020   23.5828   45.9654 C   0  0  0  0  0  0  0  0  0  0  0  0
   32.2771   22.5950   46.4297 H   0  0  0  0  0  0  0  0  0  0  0  0
   32.7801   24.7361   46.5583 C   0  0  0  0  0  0  0  0  0  0  0  0
   32.7787   25.9511   45.9063 C   0  0  0  0  0  0  0  0  0  0  0  0
   32.7121   29.1967   44.0685 H   0  0  0  0  0  0  0  0  0  0  0  0
   31.4194   25.0034   42.9759 H   0  0  0  0  0  0  0  0  0  0  0  0
   33.1450   24.6223   47.5660 H   0  0  0  0  0  0  0  0  0  0  0  0
  2  1  2  0
  3  2  1  0
  4  3  2  0
  4  5  1  0
  5  6  2  0
  6  1  1  0
  7  5  1  0
  8  7  1  0
  9  8  1  0
  1 10  1  0
  2 11  1  0
  3 12  1  0
  8 13  1  0
  8 14  1  0
  9 15  1  0
  9 16  1  0
 17 18  2  0
 18 19  1  0
 19 20  2  0
 20 21  1  0
 21 22  2  0
 22 23  1  0
 23 24  1  0
 23 25  2  0
 25 26  1  0
 25 27  1  0
 27 28  2  0
 28 17  1  0
 28 21  1  0
 19 29  1  0
 22 30  1  0
 27 31  1  0
  9 17  1  0
M  ISO  8  10  14  11  14  12  14  13   8  14   8  15   8  16   8  24  16
M  ISO  1  26  16
M  END
>  <DihAtoms>  (1) 
7,8,16,17

>  <DihDeg>  (1) 
-99.43995722911042

$$$$
