
 OpenBabel03272501593D

 34 37  0  0  0  0  0  0  0  0999 V2000
   37.4290   24.2640   32.3760 C   0  0  0  0  0  0  0  0  0  0  0  0
   37.7850   25.5700   32.6540 C   0  0  0  0  0  0  0  0  0  0  0  0
   38.2630   25.6650   33.9520 C   0  0  0  0  0  0  0  0  0  0  0  0
   38.1810   24.3890   34.4340 N   0  0  0  0  0  0  0  0  0  0  0  0
   37.6890   23.5620   33.5050 N   0  0  0  0  0  0  0  0  0  0  0  0
   37.7130   26.4150   31.9760 H   0  0  0  0  0  0  0  0  0  0  0  0
   38.6280   26.5120   34.5130 H   0  0  0  0  0  0  0  0  0  0  0  0
   38.5510   23.9280   35.7380 C   0  0  0  0  0  0  0  0  0  0  0  0
   37.6900   24.3270   36.7170 N   0  0  0  0  0  0  0  0  0  0  0  0
   37.9380   23.9490   38.0040 C   0  0  0  0  0  3  0  0  0  0  0  0
   39.0100   23.1870   38.3540 N   0  0  0  0  0  0  0  0  0  0  0  0
   39.8450   22.8080   37.3560 C   0  0  0  0  0  0  0  0  0  0  0  0
   40.9480   22.0330   37.6780 C   0  0  0  0  0  3  0  0  0  0  0  0
   41.7900   21.6540   36.6400 C   0  0  0  0  0  0  0  0  0  0  0  0
   42.6430   21.0460   36.9390 H   0  0  0  0  0  0  0  0  0  0  0  0
   41.5650   22.0200   35.3410 C   0  0  0  0  0  0  0  0  0  0  0  0
   42.2340   21.7160   34.5440 H   0  0  0  0  0  0  0  0  0  0  0  0
   40.4620   22.8010   34.9980 C   0  0  0  0  0  3  0  0  0  0  0  0
   39.6520   23.1570   36.0350 C   0  0  0  0  0  0  0  0  0  0  0  0
   36.8740   23.7590   31.0840 C   0  0  0  0  0  0  0  0  0  0  0  0
   36.7900   24.6490   30.4050 H   0  0  0  0  0  0  0  0  0  0  0  0
   37.5610   22.9830   30.7060 H   0  0  0  0  0  0  0  0  0  0  0  0
   35.5350   23.1560   31.4020 C   0  0  0  0  0  0  0  0  0  0  0  0
   35.0220   23.5710   32.2700 H   0  0  0  0  0  0  0  0  0  0  0  0
   34.8600   23.3820   30.5270 H   0  0  0  0  0  0  0  0  0  0  0  0
   34.9060   19.5780   32.1230 C   0  0  0  0  0  0  0  0  0  0  0  0
   35.9390   18.9470   31.4230 C   0  0  0  0  0  0  0  0  0  0  0  0
   36.8360   19.7490   30.7130 C   0  0  0  0  0  0  0  0  0  0  0  0
   36.6800   21.0930   30.7260 N   0  0  0  0  0  0  0  0  0  0  0  0
   35.6600   21.6670   31.4220 C   0  0  0  0  0  0  0  0  0  0  0  0
   34.7980   20.9150   32.1030 N   0  0  0  0  0  0  0  0  0  0  0  0
   34.1960   18.9610   32.6830 H   0  0  0  0  0  0  0  0  0  0  0  0
   35.9970   17.8750   31.4610 H   0  0  0  0  0  0  0  0  0  0  0  0
   37.6320   19.2870   30.1710 H   0  0  0  0  0  0  0  0  0  0  0  0
  1  2  1  0  0  0  0
  1  5  2  0  0  0  0
  2  3  2  0  0  0  0
  3  4  1  0  0  0  0
  3  7  1  0  0  0  0
  4  8  1  0  0  0  0
  5  4  1  0  0  0  0
  6  2  1  0  0  0  0
  8 19  2  0  0  0  0
  8  9  1  0  0  0  0
  9 10  2  0  0  0  0
 10 11  1  0  0  0  0
 12 13  1  0  0  0  0
 12 11  2  0  0  0  0
 14 15  1  0  0  0  0
 14 13  2  0  0  0  0
 16 14  1  0  0  0  0
 17 16  1  0  0  0  0
 18 16  2  0  0  0  0
 18 19  1  0  0  0  0
 19 12  1  0  0  0  0
 20 23  1  0  0  0  0
 20  1  1  0  0  0  0
 21 20  1  0  0  0  0
 22 20  1  0  0  0  0
 23 30  1  0  0  0  0
 23 24  1  0  0  0  0
 25 23  1  0  0  0  0
 26 32  1  0  0  0  0
 27 33  1  0  0  0  0
 27 26  2  0  0  0  0
 28 29  2  0  0  0  0
 28 27  1  0  0  0  0
 29 30  1  0  0  0  0
 30 31  2  0  0  0  0
 31 26  1  0  0  0  0
 34 28  1  0  0  0  0
M  END
>  <minimizedAffinity>
-5.97854042

$$$$

 OpenBabel03272501593D

 34 37  0  0  0  0  0  0  0  0999 V2000
   37.5480   27.6020   32.7200 C   0  0  0  0  0  0  0  0  0  0  0  0
   37.4270   28.3750   31.5810 C   0  0  0  0  0  0  0  0  0  0  0  0
   36.3120   29.1930   31.6810 C   0  0  0  0  0  0  0  0  0  0  0  0
   35.7780   28.8870   32.9000 N   0  0  0  0  0  0  0  0  0  0  0  0
   36.5060   27.9480   33.5140 N   0  0  0  0  0  0  0  0  0  0  0  0
   38.0910   28.3650   30.7230 H   0  0  0  0  0  0  0  0  0  0  0  0
   35.9040   29.9220   30.9960 H   0  0  0  0  0  0  0  0  0  0  0  0
   34.6070   29.4500   33.5010 C   0  0  0  0  0  0  0  0  0  0  0  0
   33.4460   29.0370   32.9160 N   0  0  0  0  0  0  0  0  0  0  0  0
   32.2610   29.5060   33.4030 C   0  0  0  0  0  3  0  0  0  0  0  0
   32.1870   30.3720   34.4510 N   0  0  0  0  0  0  0  0  0  0  0  0
   33.3590   30.7610   35.0080 C   0  0  0  0  0  0  0  0  0  0  0  0
   33.3200   31.6430   36.0770 C   0  0  0  0  0  3  0  0  0  0  0  0
   34.5330   32.0290   36.6350 C   0  0  0  0  0  0  0  0  0  0  0  0
   34.4530   32.7220   37.4720 H   0  0  0  0  0  0  0  0  0  0  0  0
   35.7340   31.5730   36.1660 C   0  0  0  0  0  0  0  0  0  0  0  0
   36.6710   31.8860   36.6130 H   0  0  0  0  0  0  0  0  0  0  0  0
   35.7940   30.6870   35.0910 C   0  0  0  0  0  3  0  0  0  0  0  0
   34.5910   30.3250   34.5640 C   0  0  0  0  0  0  0  0  0  0  0  0
   38.6190   26.5970   32.9930 C   0  0  0  0  0  0  0  0  0  0  0  0
   38.1280   25.5890   32.9480 H   0  0  0  0  0  0  0  0  0  0  0  0
   39.4070   26.7340   32.2320 H   0  0  0  0  0  0  0  0  0  0  0  0
   39.1580   26.9090   34.3600 C   0  0  0  0  0  0  0  0  0  0  0  0
   40.1510   27.3590   34.3870 H   0  0  0  0  0  0  0  0  0  0  0  0
   38.4730   27.6830   34.8110 H   0  0  0  0  0  0  0  0  0  0  0  0
   37.8070   24.4690   36.7960 C   0  0  0  0  0  0  0  0  0  0  0  0
   38.7940   23.4780   36.8050 C   0  0  0  0  0  0  0  0  0  0  0  0
   39.9070   23.6550   35.9800 C   0  0  0  0  0  0  0  0  0  0  0  0
   39.9950   24.7640   35.2090 N   0  0  0  0  0  0  0  0  0  0  0  0
   39.0110   25.7040   35.2310 C   0  0  0  0  0  0  0  0  0  0  0  0
   37.9440   25.5490   36.0130 N   0  0  0  0  0  0  0  0  0  0  0  0
   36.9300   24.3420   37.4380 H   0  0  0  0  0  0  0  0  0  0  0  0
   38.6530   22.6260   37.4440 H   0  0  0  0  0  0  0  0  0  0  0  0
   40.6740   22.9100   35.9700 H   0  0  0  0  0  0  0  0  0  0  0  0
  1 20  1  0  0  0  0
  1  5  2  0  0  0  0
  2  3  2  0  0  0  0
  2  1  1  0  0  0  0
  3  4  1  0  0  0  0
  4  8  1  0  0  0  0
  4  5  1  0  0  0  0
  6  2  1  0  0  0  0
  7  3  1  0  0  0  0
  8 19  1  0  0  0  0
  9 10  1  0  0  0  0
  9  8  2  0  0  0  0
 10 11  2  0  0  0  0
 11 12  1  0  0  0  0
 12 13  1  0  0  0  0
 13 14  2  0  0  0  0
 14 15  1  0  0  0  0
 16 17  1  0  0  0  0
 16 14  1  0  0  0  0
 18 16  2  0  0  0  0
 19 12  2  0  0  0  0
 19 18  1  0  0  0  0
 20 23  1  0  0  0  0
 21 20  1  0  0  0  0
 22 20  1  0  0  0  0
 23 24  1  0  0  0  0
 23 25  1  0  0  0  0
 23 30  1  0  0  0  0
 26 27  1  0  0  0  0
 26 32  1  0  0  0  0
 27 33  1  0  0  0  0
 28 27  2  0  0  0  0
 29 30  2  0  0  0  0
 29 28  1  0  0  0  0
 30 31  1  0  0  0  0
 31 26  2  0  0  0  0
 34 28  1  0  0  0  0
M  END
>  <minimizedAffinity>
-5.89423895

$$$$

 OpenBabel03272501593D

 34 37  0  0  0  0  0  0  0  0999 V2000
   38.2620   25.8520   32.7070 C   0  0  0  0  0  0  0  0  0  0  0  0
   38.7210   26.9880   33.3440 C   0  0  0  0  0  0  0  0  0  0  0  0
   39.0430   26.6970   34.6600 C   0  0  0  0  0  0  0  0  0  0  0  0
   38.7640   25.3660   34.7880 N   0  0  0  0  0  0  0  0  0  0  0  0
   38.3030   24.8660   33.6360 N   0  0  0  0  0  0  0  0  0  0  0  0
   38.8260   27.9750   32.9030 H   0  0  0  0  0  0  0  0  0  0  0  0
   39.4270   27.3230   35.4520 H   0  0  0  0  0  0  0  0  0  0  0  0
   38.9170   24.5540   35.9570 C   0  0  0  0  0  0  0  0  0  0  0  0
   37.9910   24.8160   36.9230 N   0  0  0  0  0  0  0  0  0  0  0  0
   38.0350   24.1040   38.0860 C   0  0  0  0  0  3  0  0  0  0  0  0
   38.9670   23.1410   38.3250 N   0  0  0  0  0  0  0  0  0  0  0  0
   39.8720   22.9070   37.3430 C   0  0  0  0  0  0  0  0  0  0  0  0
   40.8350   21.9320   37.5540 C   0  0  0  0  0  3  0  0  0  0  0  0
   41.7530   21.7080   36.5350 C   0  0  0  0  0  0  0  0  0  0  0  0
   42.4900   20.9330   36.7450 H   0  0  0  0  0  0  0  0  0  0  0  0
   41.7300   22.4060   35.3600 C   0  0  0  0  0  0  0  0  0  0  0  0
   42.4550   22.2180   34.5760 H   0  0  0  0  0  0  0  0  0  0  0  0
   40.7700   23.3910   35.1290 C   0  0  0  0  0  3  0  0  0  0  0  0
   39.8830   23.5910   36.1450 C   0  0  0  0  0  0  0  0  0  0  0  0
   37.8180   25.7580   31.2830 C   0  0  0  0  0  0  0  0  0  0  0  0
   38.4190   26.5170   30.7140 H   0  0  0  0  0  0  0  0  0  0  0  0
   37.9920   24.7210   30.9470 H   0  0  0  0  0  0  0  0  0  0  0  0
   36.3480   26.0680   31.2730 C   0  0  0  0  0  0  0  0  0  0  0  0
   35.7500   25.5030   30.5570 H   0  0  0  0  0  0  0  0  0  0  0  0
   35.9470   25.7750   32.2850 H   0  0  0  0  0  0  0  0  0  0  0  0
   35.2070   29.5170   31.9920 C   0  0  0  0  0  0  0  0  0  0  0  0
   35.8530   30.2580   30.9960 C   0  0  0  0  0  0  0  0  0  0  0  0
   36.6680   29.5720   30.0930 C   0  0  0  0  0  0  0  0  0  0  0  0
   36.8070   28.2310   30.2080 N   0  0  0  0  0  0  0  0  0  0  0  0
   36.1600   27.5480   31.1920 C   0  0  0  0  0  0  0  0  0  0  0  0
   35.3790   28.1880   32.0590 N   0  0  0  0  0  0  0  0  0  0  0  0
   34.5650   30.0420   32.7050 H   0  0  0  0  0  0  0  0  0  0  0  0
   35.6930   31.3200   30.9700 H   0  0  0  0  0  0  0  0  0  0  0  0
   37.1710   30.1180   29.3250 H   0  0  0  0  0  0  0  0  0  0  0  0
  1  2  1  0  0  0  0
  1  5  2  0  0  0  0
  2  3  2  0  0  0  0
  3  4  1  0  0  0  0
  3  7  1  0  0  0  0
  4  8  1  0  0  0  0
  5  4  1  0  0  0  0
  6  2  1  0  0  0  0
  8 19  2  0  0  0  0
  8  9  1  0  0  0  0
  9 10  2  0  0  0  0
 10 11  1  0  0  0  0
 12 13  1  0  0  0  0
 12 11  2  0  0  0  0
 14 15  1  0  0  0  0
 14 13  2  0  0  0  0
 16 14  1  0  0  0  0
 17 16  1  0  0  0  0
 18 16  2  0  0  0  0
 18 19  1  0  0  0  0
 19 12  1  0  0  0  0
 20  1  1  0  0  0  0
 21 20  1  0  0  0  0
 22 20  1  0  0  0  0
 23 20  1  0  0  0  0
 23 25  1  0  0  0  0
 24 23  1  0  0  0  0
 26 31  1  0  0  0  0
 26 32  1  0  0  0  0
 27 26  2  0  0  0  0
 28 29  2  0  0  0  0
 28 27  1  0  0  0  0
 29 30  1  0  0  0  0
 30 23  1  0  0  0  0
 30 31  2  0  0  0  0
 33 27  1  0  0  0  0
 34 28  1  0  0  0  0
M  END
>  <minimizedAffinity>
-5.70548296

$$$$

 OpenBabel03272501593D

 34 37  0  0  0  0  0  0  0  0999 V2000
   37.1580   28.0810   32.0520 C   0  0  0  0  0  0  0  0  0  0  0  0
   36.7540   28.9160   31.0280 C   0  0  0  0  0  0  0  0  0  0  0  0
   35.6230   29.6220   31.4100 C   0  0  0  0  0  0  0  0  0  0  0  0
   35.3680   29.1870   32.6790 N   0  0  0  0  0  0  0  0  0  0  0  0
   36.2730   28.2780   33.0590 N   0  0  0  0  0  0  0  0  0  0  0  0
   37.2320   29.0240   30.0590 H   0  0  0  0  0  0  0  0  0  0  0  0
   35.0330   30.3550   30.8810 H   0  0  0  0  0  0  0  0  0  0  0  0
   34.3030   29.5990   33.5410 C   0  0  0  0  0  0  0  0  0  0  0  0
   33.0830   29.1240   33.1590 N   0  0  0  0  0  0  0  0  0  0  0  0
   31.9880   29.4510   33.9050 C   0  0  0  0  0  3  0  0  0  0  0  0
   32.0600   30.2330   35.0160 N   0  0  0  0  0  0  0  0  0  0  0  0
   33.2880   30.6880   35.3670 C   0  0  0  0  0  0  0  0  0  0  0  0
   33.3970   31.4880   36.4940 C   0  0  0  0  0  3  0  0  0  0  0  0
   34.6650   31.9430   36.8360 C   0  0  0  0  0  0  0  0  0  0  0  0
   34.7020   32.5680   37.7280 H   0  0  0  0  0  0  0  0  0  0  0  0
   35.7780   31.6300   36.1060 C   0  0  0  0  0  0  0  0  0  0  0  0
   36.7600   31.9950   36.3880 H   0  0  0  0  0  0  0  0  0  0  0  0
   35.6890   30.8280   34.9690 C   0  0  0  0  0  3  0  0  0  0  0  0
   34.4340   30.3950   34.6570 C   0  0  0  0  0  0  0  0  0  0  0  0
   38.3350   27.1620   32.0260 C   0  0  0  0  0  0  0  0  0  0  0  0
   39.2450   27.8140   31.9460 H   0  0  0  0  0  0  0  0  0  0  0  0
   38.3090   26.5590   32.9510 H   0  0  0  0  0  0  0  0  0  0  0  0
   38.1590   26.2760   30.8250 C   0  0  0  0  0  0  0  0  0  0  0  0
   37.7060   26.7470   29.9520 H   0  0  0  0  0  0  0  0  0  0  0  0
   39.1930   25.9730   30.4900 H   0  0  0  0  0  0  0  0  0  0  0  0
   37.5650   22.9510   32.3420 C   0  0  0  0  0  0  0  0  0  0  0  0
   36.2360   22.6950   31.9880 C   0  0  0  0  0  0  0  0  0  0  0  0
   35.5600   23.6600   31.2380 C   0  0  0  0  0  0  0  0  0  0  0  0
   36.2030   24.7960   30.8810 N   0  0  0  0  0  0  0  0  0  0  0  0
   37.4980   25.0040   31.2460 C   0  0  0  0  0  0  0  0  0  0  0  0
   38.1550   24.0940   31.9610 N   0  0  0  0  0  0  0  0  0  0  0  0
   38.1060   22.2020   32.9290 H   0  0  0  0  0  0  0  0  0  0  0  0
   35.7940   21.7700   32.3090 H   0  0  0  0  0  0  0  0  0  0  0  0
   34.5440   23.4860   30.9570 H   0  0  0  0  0  0  0  0  0  0  0  0
  1  5  2  0  0  0  0
  2  3  2  0  0  0  0
  2  1  1  0  0  0  0
  3  4  1  0  0  0  0
  4  5  1  0  0  0  0
  4  8  1  0  0  0  0
  6  2  1  0  0  0  0
  7  3  1  0  0  0  0
  8 19  1  0  0  0  0
  9  8  2  0  0  0  0
  9 10  1  0  0  0  0
 10 11  2  0  0  0  0
 11 12  1  0  0  0  0
 12 13  1  0  0  0  0
 13 14  2  0  0  0  0
 14 15  1  0  0  0  0
 16 17  1  0  0  0  0
 16 14  1  0  0  0  0
 18 16  2  0  0  0  0
 19 18  1  0  0  0  0
 19 12  2  0  0  0  0
 20  1  1  0  0  0  0
 20 22  1  0  0  0  0
 21 20  1  0  0  0  0
 23 30  1  0  0  0  0
 23 20  1  0  0  0  0
 24 23  1  0  0  0  0
 25 23  1  0  0  0  0
 26 32  1  0  0  0  0
 27 33  1  0  0  0  0
 27 26  1  0  0  0  0
 28 27  2  0  0  0  0
 29 28  1  0  0  0  0
 29 30  2  0  0  0  0
 30 31  1  0  0  0  0
 31 26  2  0  0  0  0
 34 28  1  0  0  0  0
M  END
>  <minimizedAffinity>
-5.68806887

$$$$

 OpenBabel03272501593D

 34 37  0  0  0  0  0  0  0  0999 V2000
   36.3000   28.2540   33.0840 C   0  0  0  0  0  0  0  0  0  0  0  0
   35.4570   28.6640   32.0700 C   0  0  0  0  0  0  0  0  0  0  0  0
   34.3770   29.3530   32.6000 C   0  0  0  0  0  0  0  0  0  0  0  0
   34.6000   29.3420   33.9480 N   0  0  0  0  0  0  0  0  0  0  0  0
   35.7340   28.6930   34.2350 N   0  0  0  0  0  0  0  0  0  0  0  0
   35.5940   28.4870   31.0080 H   0  0  0  0  0  0  0  0  0  0  0  0
   33.5260   29.8150   32.1220 H   0  0  0  0  0  0  0  0  0  0  0  0
   33.7800   29.9200   34.9690 C   0  0  0  0  0  0  0  0  0  0  0  0
   32.6170   29.2390   35.1800 N   0  0  0  0  0  0  0  0  0  0  0  0
   31.7520   29.6960   36.1310 C   0  0  0  0  0  3  0  0  0  0  0  0
   32.0000   30.8040   36.8810 N   0  0  0  0  0  0  0  0  0  0  0  0
   33.1650   31.4560   36.6450 C   0  0  0  0  0  0  0  0  0  0  0  0
   33.4480   32.5900   37.3900 C   0  0  0  0  0  3  0  0  0  0  0  0
   34.6470   33.2430   37.1330 C   0  0  0  0  0  0  0  0  0  0  0  0
   34.8280   34.1280   37.7430 H   0  0  0  0  0  0  0  0  0  0  0  0
   35.5320   32.8070   36.1860 C   0  0  0  0  0  0  0  0  0  0  0  0
   36.4630   33.3290   35.9980 H   0  0  0  0  0  0  0  0  0  0  0  0
   35.2650   31.6690   35.4250 C   0  0  0  0  0  3  0  0  0  0  0  0
   34.0820   31.0480   35.6980 C   0  0  0  0  0  0  0  0  0  0  0  0
   37.5700   27.4850   32.9180 C   0  0  0  0  0  0  0  0  0  0  0  0
   38.0230   27.8270   31.9490 H   0  0  0  0  0  0  0  0  0  0  0  0
   38.2050   27.6950   33.7950 H   0  0  0  0  0  0  0  0  0  0  0  0
   37.1890   26.0320   32.8890 C   0  0  0  0  0  0  0  0  0  0  0  0
   36.1240   25.8230   32.7800 H   0  0  0  0  0  0  0  0  0  0  0  0
   37.6690   25.5880   31.9690 H   0  0  0  0  0  0  0  0  0  0  0  0
   39.2190   23.6580   34.8780 C   0  0  0  0  0  0  0  0  0  0  0  0
   38.9880   24.0930   36.1870 C   0  0  0  0  0  0  0  0  0  0  0  0
   38.1430   25.1890   36.3750 C   0  0  0  0  0  0  0  0  0  0  0  0
   37.5820   25.7880   35.2980 N   0  0  0  0  0  0  0  0  0  0  0  0
   37.8340   25.3330   34.0410 C   0  0  0  0  0  0  0  0  0  0  0  0
   38.6370   24.2890   33.8470 N   0  0  0  0  0  0  0  0  0  0  0  0
   39.8790   22.8000   34.7180 H   0  0  0  0  0  0  0  0  0  0  0  0
   39.4690   23.5650   36.9900 H   0  0  0  0  0  0  0  0  0  0  0  0
   37.9520   25.5380   37.3670 H   0  0  0  0  0  0  0  0  0  0  0  0
  1  5  2  0  0  0  0
  2  3  2  0  0  0  0
  2  1  1  0  0  0  0
  3  4  1  0  0  0  0
  4  5  1  0  0  0  0
  4  8  1  0  0  0  0
  6  2  1  0  0  0  0
  7  3  1  0  0  0  0
  8  9  2  0  0  0  0
  8 19  1  0  0  0  0
  9 10  1  0  0  0  0
 10 11  2  0  0  0  0
 12 11  1  0  0  0  0
 12 13  1  0  0  0  0
 14 13  2  0  0  0  0
 14 15  1  0  0  0  0
 16 14  1  0  0  0  0
 17 16  1  0  0  0  0
 18 19  1  0  0  0  0
 18 16  2  0  0  0  0
 19 12  2  0  0  0  0
 20  1  1  0  0  0  0
 20 22  1  0  0  0  0
 21 20  1  0  0  0  0
 23 20  1  0  0  0  0
 23 30  1  0  0  0  0
 24 23  1  0  0  0  0
 25 23  1  0  0  0  0
 26 27  1  0  0  0  0
 27 28  2  0  0  0  0
 27 33  1  0  0  0  0
 28 34  1  0  0  0  0
 29 28  1  0  0  0  0
 30 29  2  0  0  0  0
 31 30  1  0  0  0  0
 31 26  2  0  0  0  0
 32 26  1  0  0  0  0
M  END
>  <minimizedAffinity>
-5.66726875

$$$$

 OpenBabel03272501593D

 34 37  0  0  0  0  0  0  0  0999 V2000
   37.1530   26.7730   33.0910 C   0  0  0  0  0  0  0  0  0  0  0  0
   36.7170   25.6640   32.3910 C   0  0  0  0  0  0  0  0  0  0  0  0
   37.3900   24.5340   32.8280 C   0  0  0  0  0  0  0  0  0  0  0  0
   38.2330   24.9980   33.7980 N   0  0  0  0  0  0  0  0  0  0  0  0
   38.0930   26.3190   33.9540 N   0  0  0  0  0  0  0  0  0  0  0  0
   35.9610   25.6510   31.6130 H   0  0  0  0  0  0  0  0  0  0  0  0
   37.3180   23.5020   32.5180 H   0  0  0  0  0  0  0  0  0  0  0  0
   39.1610   24.2380   34.5790 C   0  0  0  0  0  0  0  0  0  0  0  0
   40.2480   23.8180   33.8700 N   0  0  0  0  0  0  0  0  0  0  0  0
   41.2040   23.0830   34.5080 C   0  0  0  0  0  3  0  0  0  0  0  0
   41.1200   22.7500   35.8250 N   0  0  0  0  0  0  0  0  0  0  0  0
   40.0270   23.1840   36.4990 C   0  0  0  0  0  0  0  0  0  0  0  0
   39.9100   22.8610   37.8420 C   0  0  0  0  0  3  0  0  0  0  0  0
   38.7820   23.3160   38.5140 C   0  0  0  0  0  0  0  0  0  0  0  0
   38.7320   23.0390   39.5660 H   0  0  0  0  0  0  0  0  0  0  0  0
   37.8090   24.0540   37.8980 C   0  0  0  0  0  0  0  0  0  0  0  0
   36.9340   24.4000   38.4390 H   0  0  0  0  0  0  0  0  0  0  0  0
   37.9080   24.3880   36.5480 C   0  0  0  0  0  3  0  0  0  0  0  0
   39.0240   23.9290   35.9130 C   0  0  0  0  0  0  0  0  0  0  0  0
   36.6670   28.1750   32.9110 C   0  0  0  0  0  0  0  0  0  0  0  0
   36.0430   28.4120   33.8140 H   0  0  0  0  0  0  0  0  0  0  0  0
   37.5530   28.8250   32.8090 H   0  0  0  0  0  0  0  0  0  0  0  0
   35.8640   28.1890   31.6420 C   0  0  0  0  0  0  0  0  0  0  0  0
   35.5430   27.2140   31.2720 H   0  0  0  0  0  0  0  0  0  0  0  0
   34.9080   28.7450   31.8680 H   0  0  0  0  0  0  0  0  0  0  0  0
   37.6910   29.2310   28.5940 C   0  0  0  0  0  0  0  0  0  0  0  0
   37.8520   30.6060   28.7990 C   0  0  0  0  0  0  0  0  0  0  0  0
   37.3360   31.1590   29.9720 C   0  0  0  0  0  0  0  0  0  0  0  0
   36.7050   30.3590   30.8630 N   0  0  0  0  0  0  0  0  0  0  0  0
   36.5700   29.0260   30.6250 C   0  0  0  0  0  0  0  0  0  0  0  0
   37.0570   28.4850   29.5110 N   0  0  0  0  0  0  0  0  0  0  0  0
   38.0910   28.7850   27.6780 H   0  0  0  0  0  0  0  0  0  0  0  0
   38.3650   31.1740   28.0450 H   0  0  0  0  0  0  0  0  0  0  0  0
   37.4480   32.2070   30.1490 H   0  0  0  0  0  0  0  0  0  0  0  0
  1  5  2  0  0  0  0
  2  3  2  0  0  0  0
  2  1  1  0  0  0  0
  3  4  1  0  0  0  0
  4  5  1  0  0  0  0
  4  8  1  0  0  0  0
  6  2  1  0  0  0  0
  7  3  1  0  0  0  0
  8 19  1  0  0  0  0
  9 10  1  0  0  0  0
  9  8  2  0  0  0  0
 10 11  2  0  0  0  0
 11 12  1  0  0  0  0
 12 13  1  0  0  0  0
 13 14  2  0  0  0  0
 14 15  1  0  0  0  0
 16 17  1  0  0  0  0
 16 14  1  0  0  0  0
 18 16  2  0  0  0  0
 19 12  2  0  0  0  0
 19 18  1  0  0  0  0
 20  1  1  0  0  0  0
 20 21  1  0  0  0  0
 22 20  1  0  0  0  0
 23 25  1  0  0  0  0
 23 20  1  0  0  0  0
 24 23  1  0  0  0  0
 26 27  2  0  0  0  0
 26 31  1  0  0  0  0
 27 28  1  0  0  0  0
 28 34  1  0  0  0  0
 28 29  2  0  0  0  0
 30 29  1  0  0  0  0
 30 23  1  0  0  0  0
 31 30  2  0  0  0  0
 32 26  1  0  0  0  0
 33 27  1  0  0  0  0
M  END
>  <minimizedAffinity>
-5.61490059

$$$$

 OpenBabel03272501593D

 34 37  0  0  0  0  0  0  0  0999 V2000
   37.4880   24.7460   33.1000 C   0  0  0  0  0  0  0  0  0  0  0  0
   36.7720   25.1550   31.9910 C   0  0  0  0  0  0  0  0  0  0  0  0
   36.6220   24.0970   31.1070 C   0  0  0  0  0  0  0  0  0  0  0  0
   37.2650   23.0560   31.7160 N   0  0  0  0  0  0  0  0  0  0  0  0
   37.7760   23.4380   32.8920 N   0  0  0  0  0  0  0  0  0  0  0  0
   36.3730   26.1480   31.8140 H   0  0  0  0  0  0  0  0  0  0  0  0
   36.1290   24.0390   30.1480 H   0  0  0  0  0  0  0  0  0  0  0  0
   37.4110   21.7200   31.2250 C   0  0  0  0  0  0  0  0  0  0  0  0
   38.2850   21.6180   30.1830 N   0  0  0  0  0  0  0  0  0  0  0  0
   38.5080   20.3910   29.6300 C   0  0  0  0  0  3  0  0  0  0  0  0
   37.8940   19.2610   30.0740 N   0  0  0  0  0  0  0  0  0  0  0  0
   37.0320   19.3980   31.1100 C   0  0  0  0  0  0  0  0  0  0  0  0
   36.3880   18.2660   31.5870 C   0  0  0  0  0  3  0  0  0  0  0  0
   35.5090   18.4290   32.6510 C   0  0  0  0  0  0  0  0  0  0  0  0
   35.0280   17.5130   32.9920 H   0  0  0  0  0  0  0  0  0  0  0  0
   35.2680   19.6470   33.2240 C   0  0  0  0  0  0  0  0  0  0  0  0
   34.5780   19.7550   34.0530 H   0  0  0  0  0  0  0  0  0  0  0  0
   35.9050   20.7970   32.7580 C   0  0  0  0  0  3  0  0  0  0  0  0
   36.7610   20.6090   31.7140 C   0  0  0  0  0  0  0  0  0  0  0  0
   37.8550   25.5930   34.2740 C   0  0  0  0  0  0  0  0  0  0  0  0
   37.9000   26.6510   33.8990 H   0  0  0  0  0  0  0  0  0  0  0  0
   37.0870   25.4380   35.0520 H   0  0  0  0  0  0  0  0  0  0  0  0
   39.1890   25.1010   34.7560 C   0  0  0  0  0  0  0  0  0  0  0  0
   39.7570   24.4980   34.0460 H   0  0  0  0  0  0  0  0  0  0  0  0
   39.8260   26.0140   34.9400 H   0  0  0  0  0  0  0  0  0  0  0  0
   37.9010   24.2920   38.1320 C   0  0  0  0  0  0  0  0  0  0  0  0
   38.7630   23.2700   38.5430 C   0  0  0  0  0  0  0  0  0  0  0  0
   39.7720   22.8700   37.6650 C   0  0  0  0  0  0  0  0  0  0  0  0
   39.8830   23.4760   36.4590 N   0  0  0  0  0  0  0  0  0  0  0  0
   39.0220   24.4670   36.0990 C   0  0  0  0  0  0  0  0  0  0  0  0
   38.0560   24.8580   36.9270 N   0  0  0  0  0  0  0  0  0  0  0  0
   37.1060   24.6140   38.8120 H   0  0  0  0  0  0  0  0  0  0  0  0
   38.6120   22.8380   39.5150 H   0  0  0  0  0  0  0  0  0  0  0  0
   40.4430   22.0920   37.9580 H   0  0  0  0  0  0  0  0  0  0  0  0
  1 20  1  0  0  0  0
  2  1  1  0  0  0  0
  3  4  1  0  0  0  0
  3  2  2  0  0  0  0
  4  5  1  0  0  0  0
  5  1  2  0  0  0  0
  6  2  1  0  0  0  0
  7  3  1  0  0  0  0
  8 19  1  0  0  0  0
  8  4  1  0  0  0  0
  9  8  2  0  0  0  0
 10 11  2  0  0  0  0
 10  9  1  0  0  0  0
 11 12  1  0  0  0  0
 12 13  2  0  0  0  0
 12 19  1  0  0  0  0
 13 14  1  0  0  0  0
 14 15  1  0  0  0  0
 14 16  2  0  0  0  0
 16 17  1  0  0  0  0
 18 16  1  0  0  0  0
 19 18  2  0  0  0  0
 20 23  1  0  0  0  0
 20 22  1  0  0  0  0
 21 20  1  0  0  0  0
 23 25  1  0  0  0  0
 23 30  1  0  0  0  0
 24 23  1  0  0  0  0
 26 27  1  0  0  0  0
 26 32  1  0  0  0  0
 27 33  1  0  0  0  0
 28 34  1  0  0  0  0
 28 27  2  0  0  0  0
 29 28  1  0  0  0  0
 30 29  2  0  0  0  0
 30 31  1  0  0  0  0
 31 26  2  0  0  0  0
M  END
>  <minimizedAffinity>
-5.55894852

$$$$

 OpenBabel03272501593D

 34 37  0  0  0  0  0  0  0  0999 V2000
   36.1770   29.6260   31.9240 C   0  0  0  0  0  0  0  0  0  0  0  0
   36.2740   29.8610   30.5660 C   0  0  0  0  0  0  0  0  0  0  0  0
   36.8790   28.7820   29.9400 C   0  0  0  0  0  0  0  0  0  0  0  0
   37.1370   27.9050   30.9560 N   0  0  0  0  0  0  0  0  0  0  0  0
   36.7230   28.4020   32.1270 N   0  0  0  0  0  0  0  0  0  0  0  0
   35.9360   30.7490   30.0410 H   0  0  0  0  0  0  0  0  0  0  0  0
   37.1220   28.6090   28.9020 H   0  0  0  0  0  0  0  0  0  0  0  0
   37.7590   26.6200   30.8570 C   0  0  0  0  0  0  0  0  0  0  0  0
   39.0980   26.6850   30.6050 N   0  0  0  0  0  0  0  0  0  0  0  0
   39.8020   25.5220   30.4900 C   0  0  0  0  0  3  0  0  0  0  0  0
   39.2240   24.2960   30.6140 N   0  0  0  0  0  0  0  0  0  0  0  0
   37.8920   24.2680   30.8640 C   0  0  0  0  0  0  0  0  0  0  0  0
   37.2710   23.0360   30.9960 C   0  0  0  0  0  3  0  0  0  0  0  0
   35.9050   23.0310   31.2520 C   0  0  0  0  0  0  0  0  0  0  0  0
   35.4610   22.0410   31.3490 H   0  0  0  0  0  0  0  0  0  0  0  0
   35.1770   24.1810   31.3730 C   0  0  0  0  0  0  0  0  0  0  0  0
   34.1110   24.1580   31.5730 H   0  0  0  0  0  0  0  0  0  0  0  0
   35.7830   25.4310   31.2430 C   0  0  0  0  0  3  0  0  0  0  0  0
   37.1220   25.4070   30.9920 C   0  0  0  0  0  0  0  0  0  0  0  0
   35.5840   30.5490   32.9380 C   0  0  0  0  0  0  0  0  0  0  0  0
   36.2660   31.4400   32.9920 H   0  0  0  0  0  0  0  0  0  0  0  0
   34.5620   30.8000   32.6050 H   0  0  0  0  0  0  0  0  0  0  0  0
   35.5350   29.7870   34.2320 C   0  0  0  0  0  0  0  0  0  0  0  0
   35.1840   28.7570   34.1630 H   0  0  0  0  0  0  0  0  0  0  0  0
   36.5970   29.7110   34.6050 H   0  0  0  0  0  0  0  0  0  0  0  0
   32.8640   31.2120   36.3640 C   0  0  0  0  0  0  0  0  0  0  0  0
   33.5670   32.1350   37.1460 C   0  0  0  0  0  0  0  0  0  0  0  0
   34.9410   32.2590   36.9360 C   0  0  0  0  0  0  0  0  0  0  0  0
   35.5430   31.4940   35.9950 N   0  0  0  0  0  0  0  0  0  0  0  0
   34.8210   30.6080   35.2570 C   0  0  0  0  0  0  0  0  0  0  0  0
   33.5090   30.4790   35.4460 N   0  0  0  0  0  0  0  0  0  0  0  0
   31.7850   31.1050   36.5190 H   0  0  0  0  0  0  0  0  0  0  0  0
   33.0190   32.7060   37.8720 H   0  0  0  0  0  0  0  0  0  0  0  0
   35.4980   32.9580   37.5220 H   0  0  0  0  0  0  0  0  0  0  0  0
  1  5  2  0  0  0  0
  1 20  1  0  0  0  0
  2  1  1  0  0  0  0
  3  2  2  0  0  0  0
  3  4  1  0  0  0  0
  4  5  1  0  0  0  0
  6  2  1  0  0  0  0
  7  3  1  0  0  0  0
  8  4  1  0  0  0  0
  8 19  1  0  0  0  0
  9  8  2  0  0  0  0
 10  9  1  0  0  0  0
 10 11  2  0  0  0  0
 11 12  1  0  0  0  0
 12 19  2  0  0  0  0
 12 13  1  0  0  0  0
 13 14  2  0  0  0  0
 14 15  1  0  0  0  0
 14 16  1  0  0  0  0
 16 17  1  0  0  0  0
 18 16  2  0  0  0  0
 19 18  1  0  0  0  0
 20 21  1  0  0  0  0
 20 23  1  0  0  0  0
 22 20  1  0  0  0  0
 23 25  1  0  0  0  0
 23 30  1  0  0  0  0
 24 23  1  0  0  0  0
 26 32  1  0  0  0  0
 26 27  1  0  0  0  0
 27 33  1  0  0  0  0
 28 27  2  0  0  0  0
 28 34  1  0  0  0  0
 29 28  1  0  0  0  0
 30 31  1  0  0  0  0
 30 29  2  0  0  0  0
 31 26  2  0  0  0  0
M  END
>  <minimizedAffinity>
-5.51075697

$$$$

 OpenBabel03272501593D

 34 37  0  0  0  0  0  0  0  0999 V2000
   37.5370   26.3190   32.5980 C   0  0  0  0  0  0  0  0  0  0  0  0
   36.8980   25.2020   32.0950 C   0  0  0  0  0  0  0  0  0  0  0  0
   37.3740   24.0600   32.7210 C   0  0  0  0  0  0  0  0  0  0  0  0
   38.3070   24.5260   33.6040 N   0  0  0  0  0  0  0  0  0  0  0  0
   38.4040   25.8580   33.5320 N   0  0  0  0  0  0  0  0  0  0  0  0
   36.1330   25.1910   31.3250 H   0  0  0  0  0  0  0  0  0  0  0  0
   37.1160   23.0200   32.5910 H   0  0  0  0  0  0  0  0  0  0  0  0
   39.1060   23.7560   34.5080 C   0  0  0  0  0  0  0  0  0  0  0  0
   40.0870   23.0380   33.8880 N   0  0  0  0  0  0  0  0  0  0  0  0
   40.9150   22.2650   34.6470 C   0  0  0  0  0  3  0  0  0  0  0  0
   40.8050   22.1780   36.0010 N   0  0  0  0  0  0  0  0  0  0  0  0
   39.8210   22.9040   36.5850 C   0  0  0  0  0  0  0  0  0  0  0  0
   39.6800   22.8380   37.9620 C   0  0  0  0  0  3  0  0  0  0  0  0
   38.6650   23.5900   38.5400 C   0  0  0  0  0  0  0  0  0  0  0  0
   38.5930   23.5080   39.6240 H   0  0  0  0  0  0  0  0  0  0  0  0
   37.8220   24.3740   37.8020 C   0  0  0  0  0  0  0  0  0  0  0  0
   37.0340   24.9540   38.2700 H   0  0  0  0  0  0  0  0  0  0  0  0
   37.9460   24.4530   36.4150 C   0  0  0  0  0  3  0  0  0  0  0  0
   38.9500   23.7050   35.8750 C   0  0  0  0  0  0  0  0  0  0  0  0
   37.3000   27.7330   32.1810 C   0  0  0  0  0  0  0  0  0  0  0  0
   37.6210   28.3760   33.0430 H   0  0  0  0  0  0  0  0  0  0  0  0
   37.8820   27.9120   31.2610 H   0  0  0  0  0  0  0  0  0  0  0  0
   35.8300   27.8530   31.8960 C   0  0  0  0  0  0  0  0  0  0  0  0
   35.5630   28.0540   30.8570 H   0  0  0  0  0  0  0  0  0  0  0  0
   35.3700   26.8500   32.1270 H   0  0  0  0  0  0  0  0  0  0  0  0
   35.3970   30.1970   34.7300 C   0  0  0  0  0  0  0  0  0  0  0  0
   34.0390   30.5210   34.6450 C   0  0  0  0  0  0  0  0  0  0  0  0
   33.2890   29.9360   33.6220 C   0  0  0  0  0  0  0  0  0  0  0  0
   33.8910   29.0860   32.7580 N   0  0  0  0  0  0  0  0  0  0  0  0
   35.2160   28.7980   32.8770 C   0  0  0  0  0  0  0  0  0  0  0  0
   35.9430   29.3480   33.8470 N   0  0  0  0  0  0  0  0  0  0  0  0
   35.9960   30.6490   35.5270 H   0  0  0  0  0  0  0  0  0  0  0  0
   33.6330   31.2040   35.3680 H   0  0  0  0  0  0  0  0  0  0  0  0
   32.2490   30.1690   33.5380 H   0  0  0  0  0  0  0  0  0  0  0  0
  1  5  2  0  0  0  0
  2  1  1  0  0  0  0
  2  3  2  0  0  0  0
  3  4  1  0  0  0  0
  4  8  1  0  0  0  0
  5  4  1  0  0  0  0
  6  2  1  0  0  0  0
  7  3  1  0  0  0  0
  8 19  1  0  0  0  0
  9  8  2  0  0  0  0
  9 10  1  0  0  0  0
 10 11  2  0  0  0  0
 11 12  1  0  0  0  0
 12 13  1  0  0  0  0
 13 14  2  0  0  0  0
 14 15  1  0  0  0  0
 16 17  1  0  0  0  0
 16 14  1  0  0  0  0
 18 16  2  0  0  0  0
 19 18  1  0  0  0  0
 19 12  2  0  0  0  0
 20  1  1  0  0  0  0
 20 21  1  0  0  0  0
 22 20  1  0  0  0  0
 23 25  1  0  0  0  0
 23 20  1  0  0  0  0
 23 30  1  0  0  0  0
 24 23  1  0  0  0  0
 26 32  1  0  0  0  0
 27 26  1  0  0  0  0
 27 33  1  0  0  0  0
 28 27  2  0  0  0  0
 29 30  2  0  0  0  0
 29 28  1  0  0  0  0
 30 31  1  0  0  0  0
 31 26  2  0  0  0  0
 34 28  1  0  0  0  0
M  END
>  <minimizedAffinity>
-5.50992441

$$$$
