REMARK  Name = 
REMARK  3 active torsions:
REMARK  status: ('A' for Active; 'I' for Inactive)
REMARK    1  A    between atoms: C_1  and  C_7
REMARK    2  A    between atoms: C_8  and  O_10
REMARK    3  A    between atoms: O_10  and  C_18
REMARK                            x       y       z     vdW  Elec       q    Type
REMARK                         _______ _______ _______ _____ _____    ______ ____
ROOT
ATOM      1  C   UNL     1      36.643  31.034  50.496  0.00  0.00    +0.000 C 
ATOM      2  C   UNL     1      36.140  29.688  50.660  0.00  0.00    +0.000 C 
ATOM      3  C   UNL     1      37.340  30.098  51.490  0.00  0.00    +0.000 C 
ATOM      4  H   UNL     1      36.200  31.964  50.950  0.00  0.00    +0.000 HD
ATOM      5  H   UNL     1      35.152  29.552  51.151  0.00  0.00    +0.000 HD
ATOM      6  H   UNL     1      37.074  30.302  52.537  0.00  0.00    +0.000 HD
ATOM      7  H   UNL     1      38.316  29.670  51.224  0.00  0.00    +0.000 HD
ENDROOT
BRANCH   1   8
ATOM      8  C   UNL     1      37.525  31.405  49.329  0.00  0.00    +0.000 A 
ATOM      9  C   UNL     1      38.154  32.650  49.403  0.00  0.00    +0.000 A 
ATOM     10  C   UNL     1      38.942  32.976  48.294  0.00  0.00    +0.000 A 
ATOM     11  N   UNL     1      39.060  32.118  47.247  0.00  0.00    +0.000 NA
ATOM     12  C   UNL     1      38.431  30.923  47.223  0.00  0.00    +0.000 A 
ATOM     13  N   UNL     1      37.651  30.558  48.280  0.00  0.00    +0.000 NA
ATOM     14  H   UNL     1      38.023  33.292  50.262  0.00  0.00    +0.000 HD
ATOM     15  H   UNL     1      39.444  33.933  48.315  0.00  0.00    +0.000 HD
ATOM     16  H   UNL     1      38.502  30.217  46.407  0.00  0.00    +0.000 HD
ENDBRANCH   1   8
BRANCH   2  17
ATOM     17  O   UNL     1      36.392  28.738  49.658  0.00  0.00    +0.000 OA
BRANCH  17  18
ATOM     18  C   UNL     1      35.401  27.783  49.422  0.00  0.00    +0.000 A 
ATOM     19  N   UNL     1      35.556  26.509  49.853  0.00  0.00    +0.000 NA
ATOM     20  C   UNL     1      34.612  25.570  49.637  0.00  0.00    +0.000 A 
ATOM     21  N   UNL     1      33.475  25.863  48.982  0.00  0.00    +0.000 NA
ATOM     22  C   UNL     1      33.279  27.105  48.539  0.00  0.00    +0.000 A 
ATOM     23  C   UNL     1      32.092  27.367  47.868  0.00  0.00    +0.000 A 
ATOM     24  C   UNL     1      31.886  28.652  47.407  0.00  0.00    +0.000 A 
ATOM     25  H   UNL     1      31.015  29.002  46.871  0.00  0.00    +0.000 HD
ATOM     26  C   UNL     1      32.835  29.622  47.618  0.00  0.00    +0.000 A 
ATOM     27  H   UNL     1      32.715  30.649  47.273  0.00  0.00    +0.000 HD
ATOM     28  C   UNL     1      34.025  29.390  48.282  0.00  0.00    +0.000 A 
ATOM     29  C   UNL     1      34.228  28.098  48.743  0.00  0.00    +0.000 A 
ENDBRANCH  17  18
ENDBRANCH   2  17
TORSDOF 3
