
 OpenBabel03272505493D

 43 48  0  0  0  0  0  0  0  0999 V2000
   36.6120   30.4230   45.9010 C   0  0  0  0  0  0  0  0  0  0  0  0
   37.2160   30.5950   47.1010 C   0  0  0  0  0  0  0  0  0  0  0  0
   36.4930   30.3990   48.2770 C   0  0  0  0  0  0  0  0  0  0  0  0
   35.1540   30.0260   48.1780 C   0  0  0  0  0  0  0  0  0  0  0  0
   34.5440   29.8510   46.9230 C   0  0  0  0  0  0  0  0  0  0  0  0
   35.3170   30.0620   45.8380 N   0  0  0  0  0  0  0  0  0  0  0  0
   38.2480   30.8830   47.1970 H   0  0  0  0  0  0  0  0  0  0  0  0
   36.9690   30.5350   49.2340 H   0  0  0  0  0  0  0  0  0  0  0  0
   34.5490   29.8610   49.0580 H   0  0  0  0  0  0  0  0  0  0  0  0
   33.1510   29.4630   46.7800 C   0  0  0  0  0  0  0  0  0  0  0  0
   32.3260   29.5170   45.6830 N   0  0  0  0  0  0  0  0  0  0  0  0
   31.1100   29.0410   46.0490 C   0  0  0  0  0  0  0  0  0  0  0  0
   31.1720   28.6880   47.3700 N   0  0  0  0  0  0  0  0  0  0  0  0
   32.4120   28.9470   47.8040 N   0  0  0  0  0  0  0  0  0  0  0  0
   30.2450   28.9660   45.3720 H   0  0  0  0  0  0  0  0  0  0  0  0
   30.1110   28.1470   48.1350 C   0  0  0  0  0  0  0  0  0  0  0  0
   30.5240   27.5520   49.2720 N   0  0  0  0  0  0  0  0  0  0  0  0
   29.6200   26.9800   50.1200 C   0  0  0  0  0  3  0  0  0  0  0  0
   28.2930   27.0060   49.8240 N   0  0  0  0  0  0  0  0  0  0  0  0
   27.8530   27.5960   48.6910 C   0  0  0  0  0  0  0  0  0  0  0  0
   26.5070   27.6470   48.3470 C   0  0  0  0  0  3  0  0  0  0  0  0
   26.1170   28.2600   47.1810 C   0  0  0  0  0  0  0  0  0  0  0  0
   25.0510   28.2810   46.9450 H   0  0  0  0  0  0  0  0  0  0  0  0
   27.0690   28.8250   46.3540 C   0  0  0  0  0  0  0  0  0  0  0  0
   26.7170   29.3030   45.4370 H   0  0  0  0  0  0  0  0  0  0  0  0
   28.4290   28.7980   46.6570 C   0  0  0  0  0  3  0  0  0  0  0  0
   28.7570   28.1760   47.8270 C   0  0  0  0  0  0  0  0  0  0  0  0
   37.3760   30.6300   44.6130 C   0  0  0  0  0  0  0  0  0  0  0  0
   37.2310   29.6350   43.5380 C   0  0  0  0  0  0  0  0  0  0  0  0
   36.5880   30.9900   43.3880 C   0  0  0  0  0  0  0  0  0  0  0  0
   38.1130   29.4690   42.8560 H   0  0  0  0  0  0  0  0  0  0  0  0
   36.5870   28.7580   43.6680 H   0  0  0  0  0  0  0  0  0  0  0  0
   37.0580   31.7170   42.6920 H   0  0  0  0  0  0  0  0  0  0  0  0
   35.4920   31.0090   43.4600 H   0  0  0  0  0  0  0  0  0  0  0  0
   39.8010   33.4040   44.9690 C   0  0  0  0  0  0  0  0  0  0  0  0
   40.9920   32.7360   45.2750 C   0  0  0  0  0  0  0  0  0  0  0  0
   40.9540   31.3310   45.3570 C   0  0  0  0  0  0  0  0  0  0  0  0
   39.7780   30.6920   45.1390 N   0  0  0  0  0  0  0  0  0  0  0  0
   38.6420   31.3770   44.8440 C   0  0  0  0  0  0  0  0  0  0  0  0
   38.6550   32.7120   44.7620 N   0  0  0  0  0  0  0  0  0  0  0  0
   39.8000   34.4840   44.9000 H   0  0  0  0  0  0  0  0  0  0  0  0
   41.9040   33.2840   45.4410 H   0  0  0  0  0  0  0  0  0  0  0  0
   41.8620   30.7760   45.5940 H   0  0  0  0  0  0  0  0  0  0  0  0
  1  2  1  0  0  0  0
  2  7  1  0  0  0  0
  2  3  2  0  0  0  0
  3  8  1  0  0  0  0
  4  3  1  0  0  0  0
  4  9  1  0  0  0  0
  5  4  2  0  0  0  0
  6  1  2  0  0  0  0
  6  5  1  0  0  0  0
 10  5  1  0  0  0  0
 10 14  2  0  0  0  0
 11 12  2  0  0  0  0
 11 10  1  0  0  0  0
 12 13  1  0  0  0  0
 13 14  1  0  0  0  0
 13 16  1  0  0  0  0
 15 12  1  0  0  0  0
 16 17  1  0  0  0  0
 17 18  2  0  0  0  0
 19 18  1  0  0  0  0
 20 19  2  0  0  0  0
 21 20  1  0  0  0  0
 22 21  2  0  0  0  0
 23 22  1  0  0  0  0
 24 26  2  0  0  0  0
 24 22  1  0  0  0  0
 25 24  1  0  0  0  0
 26 27  1  0  0  0  0
 27 16  2  0  0  0  0
 27 20  1  0  0  0  0
 28 39  1  0  0  0  0
 28  1  1  0  0  0  0
 29 32  1  0  0  0  0
 29 28  1  0  0  0  0
 30 34  1  0  0  0  0
 30 29  1  0  0  0  0
 30 28  1  0  0  0  0
 31 29  1  0  0  0  0
 33 30  1  0  0  0  0
 35 36  1  0  0  0  0
 36 37  2  0  0  0  0
 36 42  1  0  0  0  0
 37 43  1  0  0  0  0
 38 37  1  0  0  0  0
 39 38  2  0  0  0  0
 40 39  1  0  0  0  0
 40 35  2  0  0  0  0
 41 35  1  0  0  0  0
M  END
>  <minimizedAffinity>
-6.74433231

>  <minimizedRMSD>
1.3172276

$$$$
