REMARK  Name = 
REMARK  4 active torsions:
REMARK  status: ('A' for Active; 'I' for Inactive)
REMARK    1  A    between atoms: C_1  and  S_7
REMARK    2  A    between atoms: S_7  and  C_8
REMARK    3  A    between atoms: C_8  and  S_9
REMARK    4  A    between atoms: S_9  and  C_15
REMARK                            x       y       z     vdW  Elec       q    Type
REMARK                         _______ _______ _______ _____ _____    ______ ____
ROOT
ATOM      1  C   UNL     1      35.501  29.342  50.726  0.00  0.00    +0.000 C 
ATOM      2  H   UNL     1      35.142  29.038  51.725  0.00  0.00    +0.000 HD
ATOM      3  H   UNL     1      35.166  30.412  50.590  0.00  0.00    +0.000 HD
ENDROOT
BRANCH   1   4
ATOM      4  S   UNL     1      37.289  29.335  50.579  0.00  0.00    +0.000 S 
BRANCH   4   5
ATOM      5  C   UNL     1      37.768  30.528  49.346  0.00  0.00    +0.000 A 
ATOM      6  C   UNL     1      38.236  31.731  49.846  0.00  0.00    +0.000 A 
ATOM      7  C   UNL     1      38.623  32.695  48.924  0.00  0.00    +0.000 A 
ATOM      8  N   UNL     1      38.529  32.425  47.572  0.00  0.00    +0.000 NA
ATOM      9  C   UNL     1      38.061  31.224  47.154  0.00  0.00    +0.000 A 
ATOM     10  N   UNL     1      37.691  30.301  48.020  0.00  0.00    +0.000 NA
ATOM     11  H   UNL     1      38.330  31.993  50.892  0.00  0.00    +0.000 HD
ATOM     12  H   UNL     1      39.002  33.665  49.204  0.00  0.00    +0.000 HD
ATOM     13  H   UNL     1      38.022  31.100  46.078  0.00  0.00    +0.000 HD
ENDBRANCH   4   5
ENDBRANCH   1   4
BRANCH   1  14
ATOM     14  S   UNL     1      34.685  28.403  49.404  0.00  0.00    +0.000 S 
BRANCH  14  15
ATOM     15  C   UNL     1      32.919  28.441  49.596  0.00  0.00    +0.000 A 
ATOM     16  N   UNL     1      32.497  28.550  50.872  0.00  0.00    +0.000 NA
ATOM     17  C   UNL     1      31.182  28.589  51.151  0.00  0.00    +0.000 A 
ATOM     18  N   UNL     1      30.265  28.521  50.170  0.00  0.00    +0.000 NA
ATOM     19  C   UNL     1      30.647  28.412  48.890  0.00  0.00    +0.000 A 
ATOM     20  C   UNL     1      29.704  28.341  47.863  0.00  0.00    +0.000 A 
ATOM     21  C   UNL     1      30.195  28.229  46.567  0.00  0.00    +0.000 A 
ATOM     22  H   UNL     1      29.421  28.178  45.814  0.00  0.00    +0.000 HD
ATOM     23  C   UNL     1      31.542  28.190  46.290  0.00  0.00    +0.000 A 
ATOM     24  H   UNL     1      31.868  28.101  45.255  0.00  0.00    +0.000 HD
ATOM     25  C   UNL     1      32.483  28.261  47.310  0.00  0.00    +0.000 A 
ATOM     26  C   UNL     1      31.977  28.371  48.591  0.00  0.00    +0.000 A 
ENDBRANCH  14  15
ENDBRANCH   1  14
TORSDOF 4
