
     RDKit          3D

 40 43  0  0  0  0  0  0  0  0999 V2000
   36.4648   29.8932   48.6833 N   0  0  0  0  0  0  0  0  0  0  0  0
   37.5899   30.6556   48.2299 C   0  0  0  0  0  0  0  0  0  0  0  0
   38.1033   31.2872   49.5158 C   0  0  2  0  0  0  0  0  0  0  0  0
   37.1248   30.8924   50.5955 C   0  0  0  0  0  0  0  0  0  0  0  0
   36.7247   29.5277   50.0593 C   0  0  0  0  0  0  0  0  0  0  0  0
   35.2921   29.5452   47.9354 C   0  0  0  0  0  0  0  0  0  0  0  0
   35.2305   30.0024   46.6060 C   0  0  0  0  0  0  0  0  0  0  0  0
   34.0941   29.6665   45.8759 C   0  0  0  0  0  0  0  0  0  0  0  0
   33.1240   28.9195   46.5021 N   0  0  0  0  0  0  0  0  0  0  0  0
   33.2241   28.5082   47.7627 C   0  0  0  0  0  0  0  0  0  0  0  0
   34.3113   28.8216   48.4826 N   0  0  0  0  0  0  0  0  0  0  0  0
   31.9285   27.5388   48.5133 S   0  0  0  0  0  0  0  0  0  0  0  0
   38.2651   32.7779   49.4012 C   0  0  0  0  0  0  0  0  0  0  0  0
   37.0912   33.3403   49.8880 F   0  0  0  0  0  0  0  0  0  0  0  0
   38.3052   33.0851   48.0570 F   0  0  0  0  0  0  0  0  0  0  0  0
   39.3753   33.2523   50.0361 F   0  0  0  0  0  0  0  0  0  0  0  0
   37.3142   31.4456   47.5090 H   0  0  0  0  0  0  0  0  0  0  0  0
   38.3402   29.9965   47.7577 H   0  0  0  0  0  0  0  0  0  0  0  0
   39.0807   30.8339   49.7449 H   0  0  0  0  0  0  0  0  0  0  0  0
   36.2653   31.5546   50.6997 H   0  0  0  0  0  0  0  0  0  0  0  0
   37.6955   30.7075   51.5264 H   0  0  0  0  0  0  0  0  0  0  0  0
   35.7895   29.2355   50.5825 H   0  0  0  0  0  0  0  0  0  0  0  0
   37.5493   28.8077   50.1863 H   0  0  0  0  0  0  0  0  0  0  0  0
   36.0246   30.5881   46.1636 H   0  0  0  0  0  0  0  0  0  0  0  0
   33.9750   29.9804   44.8522 H   0  0  0  0  0  0  0  0  0  0  0  0
   30.6372   27.2942   47.3041 C   0  0  0  0  0  0  0  0  0  0  0  0
   29.6854   28.2613   47.3303 N   0  0  0  0  0  0  0  0  0  0  0  0
   28.6373   28.2249   46.4784 C   0  0  0  0  0  0  0  0  0  0  0  0
   28.5290   27.2233   45.5924 N   0  0  0  0  0  0  0  0  0  0  0  0
   29.4640   26.2329   45.5345 C   0  0  0  0  0  0  0  0  0  0  0  0
   29.4084   25.1706   44.6414 C   0  0  0  0  0  0  0  0  0  0  0  0
   30.4146   24.2135   44.6660 C   0  0  0  0  0  0  0  0  0  0  0  0
   30.2589   23.4423   43.9274 H   0  0  0  0  0  0  0  0  0  0  0  0
   31.4717   24.2776   45.5473 C   0  0  0  0  0  0  0  0  0  0  0  0
   32.2149   23.5077   45.5152 H   0  0  0  0  0  0  0  0  0  0  0  0
   31.5536   25.3322   46.4548 C   0  0  0  0  0  0  0  0  0  0  0  0
   30.5371   26.2620   46.4002 C   0  0  0  0  0  0  0  0  0  0  0  0
   27.8809   29.0141   46.5156 H   0  0  0  0  0  0  0  0  0  0  0  0
   28.5581   25.1769   43.9791 H   0  0  0  0  0  0  0  0  0  0  0  0
   32.3700   25.4120   47.1595 H   0  0  0  0  0  0  0  0  0  0  0  0
  1  5  1  0
  2  1  1  0
  2  3  1  0
  3  4  1  0
  5  4  1  0
  6 11  1  0
  6  1  1  0
  7  6  2  0
  8  9  2  0
  8  7  1  0
  9 10  1  0
 10 11  2  0
 10 12  1  0
 13  3  1  0
 13 14  1  0
 13 16  1  0
 15 13  1  0
  2 17  1  0
  2 18  1  0
  3 19  1  1
  4 20  1  0
  4 21  1  0
  5 22  1  0
  5 23  1  0
  7 24  1  0
  8 25  1  0
 26 27  2  0
 27 28  1  0
 28 29  2  0
 29 30  1  0
 30 31  2  0
 31 32  1  0
 32 33  1  0
 32 34  2  0
 34 35  1  0
 34 36  1  0
 36 37  2  0
 37 26  1  0
 37 30  1  0
 28 38  1  0
 31 39  1  0
 36 40  1  0
 12 26  1  0
M  ISO  8  17  13  18  13  19  13  20  13  21  13  22  13  23  13  24  14
M  ISO  3  25  14  33  16  35  16
M  END
>  <DihAtoms>  (1) 
9,11,25,26

>  <DihDeg>  (1) 
89.6396258490679

$$$$
