
     RDKit          3D

 52 56  0  0  0  0  0  0  0  0999 V2000
   38.7415   32.8674   48.3428 C   0  0  0  0  0  0  0  0  0  0  0  0
   39.0416   32.2050   47.1589 C   0  0  0  0  0  0  0  0  0  0  0  0
   38.5404   30.9439   47.0000 C   0  0  0  0  0  0  0  0  0  0  0  0
   37.7851   30.4100   47.9936 N   0  0  0  0  0  0  0  0  0  0  0  0
   37.5210   31.0628   49.0986 C   0  0  0  0  0  0  0  0  0  0  0  0
   37.9941   32.3369   49.3242 N   0  0  0  0  0  0  0  0  0  0  0  0
   39.8090   32.8458   46.2382 O   0  0  0  0  0  0  0  0  0  0  0  0
   39.9552   32.3076   44.9682 C   0  0  0  0  0  0  0  0  0  0  0  0
   40.6652   31.1711   44.6188 C   0  0  0  0  0  0  0  0  0  0  0  0
   40.7009   30.7902   43.3262 C   0  0  0  0  0  0  0  0  0  0  0  0
   40.0324   31.5409   42.3973 C   0  0  0  0  0  0  0  0  0  0  0  0
   39.3262   32.6769   42.7668 C   0  0  0  0  0  0  0  0  0  0  0  0
   39.3027   33.0428   44.0711 N   0  0  0  0  0  0  0  0  0  0  0  0
   38.5919   33.4917   41.7078 C   0  0  0  0  0  0  0  0  0  0  0  0
   36.4958   30.1192   50.2497 S   0  0  0  0  0  0  0  0  0  0  0  0
   34.7896   30.5482   49.8000 C   0  0  0  0  0  0  0  0  0  0  0  0
   34.4640   27.8200   49.9433 F   0  0  0  0  0  0  0  0  0  0  0  0
   34.3309   28.4371   48.7351 C   0  0  0  0  0  0  0  0  0  0  0  0
   34.4720   29.8087   48.5342 C   0  0  0  0  0  0  0  0  0  0  0  0
   34.3276   30.3757   47.2986 C   0  0  0  0  0  0  0  0  0  0  0  0
   34.0276   29.5772   46.1765 C   0  0  0  0  0  0  0  0  0  0  0  0
   33.8844   28.2147   46.3584 C   0  0  0  0  0  0  0  0  0  0  0  0
   34.0368   27.6671   47.6256 C   0  0  0  0  0  0  0  0  0  0  0  0
   33.8742   26.2994   47.7010 O   0  0  0  0  0  0  0  0  0  0  0  0
   39.1098   33.8776   48.5349 H   0  0  0  0  0  0  0  0  0  0  0  0
   38.7610   30.4048   46.0827 H   0  0  0  0  0  0  0  0  0  0  0  0
   41.1501   30.6646   45.4427 H   0  0  0  0  0  0  0  0  0  0  0  0
   41.2397   29.9213   43.0360 H   0  0  0  0  0  0  0  0  0  0  0  0
   40.0584   31.2387   41.3583 H   0  0  0  0  0  0  0  0  0  0  0  0
   37.7645   32.8535   41.3685 H   0  0  0  0  0  0  0  0  0  0  0  0
   39.2510   33.6866   40.8402 H   0  0  0  0  0  0  0  0  0  0  0  0
   38.2146   34.3879   42.1993 H   0  0  0  0  0  0  0  0  0  0  0  0
   34.1498   30.1545   50.6190 H   0  0  0  0  0  0  0  0  0  0  0  0
   34.6700   31.6436   49.6745 H   0  0  0  0  0  0  0  0  0  0  0  0
   34.4631   31.4435   47.2881 H   0  0  0  0  0  0  0  0  0  0  0  0
   33.9272   30.0905   45.2299 H   0  0  0  0  0  0  0  0  0  0  0  0
   33.6541   27.6129   45.4888 H   0  0  0  0  0  0  0  0  0  0  0  0
   32.8628   25.8258   48.5277 C   0  0  0  0  0  0  0  0  0  0  0  0
   31.6108   26.3275   48.5754 N   0  0  0  0  0  0  0  0  0  0  0  0
   30.6712   25.8194   49.4046 C   0  0  0  0  0  0  0  0  0  0  0  0
   31.0032   24.7740   50.2100 N   0  0  0  0  0  0  0  0  0  0  0  0
   32.2261   24.2164   50.2240 C   0  0  0  0  0  0  0  0  0  0  0  0
   32.5130   23.1562   51.0607 C   0  0  0  0  0  0  0  0  0  0  0  0
   33.7757   22.5994   51.0581 C   0  0  0  0  0  0  0  0  0  0  0  0
   34.0985   21.7699   51.6737 H   0  0  0  0  0  0  0  0  0  0  0  0
   34.7280   23.1240   50.2093 C   0  0  0  0  0  0  0  0  0  0  0  0
   35.7359   22.7586   50.1364 H   0  0  0  0  0  0  0  0  0  0  0  0
   34.4414   24.1834   49.3731 C   0  0  0  0  0  0  0  0  0  0  0  0
   33.1697   24.7661   49.3560 C   0  0  0  0  0  0  0  0  0  0  0  0
   29.6864   26.2703   49.3916 H   0  0  0  0  0  0  0  0  0  0  0  0
   31.7745   22.7393   51.7280 H   0  0  0  0  0  0  0  0  0  0  0  0
   35.1843   24.6029   48.7015 H   0  0  0  0  0  0  0  0  0  0  0  0
  1  6  2  0
  2  1  1  0
  3  2  2  0
  3  4  1  0
  4  5  2  0
  5  6  1  0
  5 15  1  0
  7  2  1  0
  8  7  1  0
  9  8  2  0
 10  9  1  0
 11 12  1  0
 11 10  2  0
 12 13  2  0
 13  8  1  0
 14 12  1  0
 16 15  1  0
 18 17  1  0
 19 18  2  0
 19 16  1  0
 20 19  1  0
 21 22  1  0
 21 20  2  0
 22 23  2  0
 23 24  1  0
 23 18  1  0
  1 25  1  0
  3 26  1  0
  9 27  1  0
 10 28  1  0
 11 29  1  0
 14 30  1  0
 14 31  1  0
 14 32  1  0
 16 33  1  0
 16 34  1  0
 20 35  1  0
 21 36  1  0
 22 37  1  0
 38 39  2  0
 39 40  1  0
 40 41  2  0
 41 42  1  0
 42 43  2  0
 43 44  1  0
 44 45  1  0
 44 46  2  0
 46 47  1  0
 46 48  1  0
 48 49  2  0
 49 38  1  0
 49 42  1  0
 40 50  1  0
 43 51  1  0
 48 52  1  0
 24 38  1  0
M  ISO  8  25  14  26  14  27  14  28  14  29  14  30   8  31   8  32   8
M  ISO  7  33   8  34   8  35  14  36  14  37  14  45  16  47  16
M  END
>  <DihAtoms>  (1) 
22,23,37,38

>  <DihDeg>  (1) 
-0.000971739732345062

$$$$
