
 OpenBabel03272505493D

 43 48  0  0  0  0  0  0  0  0999 V2000
   36.3610   30.3930   46.0610 C   0  0  0  0  0  0  0  0  0  0  0  0
   36.9170   30.7790   47.2340 C   0  0  0  0  0  0  0  0  0  0  0  0
   36.2800   30.4760   48.4370 C   0  0  0  0  0  0  0  0  0  0  0  0
   35.0760   29.7770   48.3920 C   0  0  0  0  0  0  0  0  0  0  0  0
   34.5140   29.3840   47.1640 C   0  0  0  0  0  0  0  0  0  0  0  0
   35.1970   29.7180   46.0500 N   0  0  0  0  0  0  0  0  0  0  0  0
   37.8450   31.3200   47.2890 H   0  0  0  0  0  0  0  0  0  0  0  0
   36.7180   30.7810   49.3730 H   0  0  0  0  0  0  0  0  0  0  0  0
   34.5420   29.5170   49.2940 H   0  0  0  0  0  0  0  0  0  0  0  0
   33.2610   28.6530   47.0770 C   0  0  0  0  0  0  0  0  0  0  0  0
   32.8050   27.7910   46.1100 N   0  0  0  0  0  0  0  0  0  0  0  0
   31.5730   27.3620   46.4780 C   0  0  0  0  0  0  0  0  0  0  0  0
   31.2560   27.9530   47.6710 N   0  0  0  0  0  0  0  0  0  0  0  0
   32.2850   28.7330   48.0260 N   0  0  0  0  0  0  0  0  0  0  0  0
   30.9600   26.6590   45.8910 H   0  0  0  0  0  0  0  0  0  0  0  0
   30.0540   27.7690   48.3960 C   0  0  0  0  0  0  0  0  0  0  0  0
   30.2440   27.2150   49.6120 N   0  0  0  0  0  0  0  0  0  0  0  0
   29.1820   26.9730   50.4320 C   0  0  0  0  0  0  0  0  0  0  0  0
   27.9200   27.2880   50.0320 N   0  0  0  0  0  0  0  0  0  0  0  0
   27.7020   27.8420   48.8200 C   0  0  0  0  0  0  0  0  0  0  0  0
   26.4330   28.1800   48.3670 C   0  0  0  0  0  0  0  0  0  0  0  0
   26.2710   28.7410   47.1240 C   0  0  0  0  0  0  0  0  0  0  0  0
   25.2590   28.9940   46.8040 H   0  0  0  0  0  0  0  0  0  0  0  0
   27.3760   28.9680   46.3280 C   0  0  0  0  0  0  0  0  0  0  0  0
   27.2050   29.4170   45.3470 H   0  0  0  0  0  0  0  0  0  0  0  0
   28.6690   28.6470   46.7380 C   0  0  0  0  0  0  0  0  0  0  0  0
   28.7680   28.0910   47.9810 C   0  0  0  0  0  0  0  0  0  0  0  0
   37.0350   30.7110   44.7450 C   0  0  0  0  0  0  0  0  0  0  0  0
   36.7380   29.8640   43.5780 C   0  0  0  0  0  0  0  0  0  0  0  0
   36.1790   31.2620   43.6420 C   0  0  0  0  0  0  0  0  0  0  0  0
   37.5490   29.7310   42.8080 H   0  0  0  0  0  0  0  0  0  0  0  0
   36.0470   29.0160   43.6600 H   0  0  0  0  0  0  0  0  0  0  0  0
   36.6410   32.0400   42.9980 H   0  0  0  0  0  0  0  0  0  0  0  0
   35.0960   31.3370   43.8100 H   0  0  0  0  0  0  0  0  0  0  0  0
   39.6980   33.2670   45.0140 C   0  0  0  0  0  0  0  0  0  0  0  0
   40.8260   32.5050   45.3370 C   0  0  0  0  0  0  0  0  0  0  0  0
   40.6640   31.1110   45.4600 C   0  0  0  0  0  0  0  0  0  0  0  0
   39.4350   30.5740   45.2630 N   0  0  0  0  0  0  0  0  0  0  0  0
   38.3630   31.3480   44.9510 C   0  0  0  0  0  0  0  0  0  0  0  0
   38.4940   32.6730   44.8290 N   0  0  0  0  0  0  0  0  0  0  0  0
   39.7930   34.3400   44.9130 H   0  0  0  0  0  0  0  0  0  0  0  0
   41.7840   32.9740   45.4850 H   0  0  0  0  0  0  0  0  0  0  0  0
   41.5200   30.4850   45.7110 H   0  0  0  0  0  0  0  0  0  0  0  0
  1  2  1  0  0  0  0
  2  7  1  0  0  0  0
  2  3  2  0  0  0  0
  3  8  1  0  0  0  0
  4  3  1  0  0  0  0
  4  9  1  0  0  0  0
  5  4  2  0  0  0  0
  6  1  2  0  0  0  0
  6  5  1  0  0  0  0
 10  5  1  0  0  0  0
 10 14  2  0  0  0  0
 11 12  2  0  0  0  0
 11 10  1  0  0  0  0
 12 13  1  0  0  0  0
 13 14  1  0  0  0  0
 13 16  1  0  0  0  0
 15 12  1  0  0  0  0
 16 17  1  0  0  0  0
 17 18  2  0  0  0  0
 19 18  1  0  0  0  0
 20 19  2  0  0  0  0
 21 20  1  0  0  0  0
 22 21  2  0  0  0  0
 23 22  1  0  0  0  0
 24 26  2  0  0  0  0
 24 22  1  0  0  0  0
 25 24  1  0  0  0  0
 26 27  1  0  0  0  0
 27 16  2  0  0  0  0
 27 20  1  0  0  0  0
 28 39  1  0  0  0  0
 28  1  1  0  0  0  0
 29 30  1  0  0  0  0
 29 32  1  0  0  0  0
 29 28  1  0  0  0  0
 30 34  1  0  0  0  0
 30 28  1  0  0  0  0
 31 29  1  0  0  0  0
 33 30  1  0  0  0  0
 35 36  1  0  0  0  0
 36 37  2  0  0  0  0
 36 42  1  0  0  0  0
 37 43  1  0  0  0  0
 38 37  1  0  0  0  0
 39 38  2  0  0  0  0
 40 39  1  0  0  0  0
 40 35  2  0  0  0  0
 41 35  1  0  0  0  0
M  END
>  <minimizedAffinity>
-7.07564878

>  <minimizedRMSD>
1.60832214

$$$$
