
 OpenBabel03272507303D

 32 35  0  0  0  0  0  0  0  0999 V2000
   35.8970   29.1920   49.8130 C   0  0  0  0  0  0  0  0  0  0  0  0
   34.9210   29.5270   50.6810 C   0  0  0  0  0  0  0  0  0  0  0  0
   33.7000   29.0590   50.1960 C   0  0  0  0  0  0  0  0  0  0  0  0
   34.0320   28.4250   48.9800 C   0  0  0  0  0  0  0  0  0  0  0  0
   35.3000   28.5640   48.8700 O   0  0  0  0  0  0  0  0  0  0  0  0
   34.8700   30.0510   51.6240 H   0  0  0  0  0  0  0  0  0  0  0  0
   32.6920   29.1200   50.5880 H   0  0  0  0  0  0  0  0  0  0  0  0
   37.2860   29.5240   50.0070 C   0  0  0  0  0  0  0  0  0  0  0  0
   37.9360   28.9150   50.8670 O   0  0  0  0  0  0  0  0  0  0  0  0
   37.8370   30.5770   49.1580 C   0  0  0  0  0  0  0  0  0  0  0  0
   38.1620   31.7720   49.8180 C   0  0  0  0  0  0  0  0  0  0  0  0
   38.6940   32.7960   49.0290 C   0  0  0  0  0  0  0  0  0  0  0  0
   38.8660   32.5950   47.6960 N   0  0  0  0  0  0  0  0  0  0  0  0
   38.5320   31.4180   47.1130 C   0  0  0  0  0  0  0  0  0  0  0  0
   38.0260   30.4250   47.8380 N   0  0  0  0  0  0  0  0  0  0  0  0
   38.0260   31.9350   50.8760 H   0  0  0  0  0  0  0  0  0  0  0  0
   38.9750   33.7600   49.4580 H   0  0  0  0  0  0  0  0  0  0  0  0
   38.6570   31.2290   46.0620 H   0  0  0  0  0  0  0  0  0  0  0  0
   33.0560   27.7700   48.1010 C   0  0  0  0  0  0  0  0  0  0  0  0
   31.9360   27.4440   48.5640 O   0  0  0  0  0  0  0  0  0  0  0  0
   33.0480   27.3580   46.7190 C   0  0  0  0  0  0  0  0  0  0  0  0
   32.4980   28.2380   45.8480 N   0  0  0  0  0  0  0  0  0  0  0  0
   32.4090   28.0040   44.5070 C   0  0  0  0  0  3  0  0  0  0  0  0
   32.8800   26.8590   44.0040 N   0  0  0  0  0  0  0  0  0  0  0  0
   33.4460   25.9210   44.7800 C   0  0  0  0  0  0  0  0  0  0  0  0
   33.9650   24.7510   44.2720 C   0  0  0  0  0  3  0  0  0  0  0  0
   34.5690   23.8250   45.0780 C   0  0  0  0  0  0  0  0  0  0  0  0
   34.9760   22.9080   44.6800 H   0  0  0  0  0  0  0  0  0  0  0  0
   34.6350   24.1290   46.4350 C   0  0  0  0  0  0  0  0  0  0  0  0
   35.1200   23.3800   47.0550 H   0  0  0  0  0  0  0  0  0  0  0  0
   34.1070   25.3060   46.9100 C   0  0  0  0  0  3  0  0  0  0  0  0
   33.4980   26.2350   46.1150 C   0  0  0  0  0  0  0  0  0  0  0  0
  1  8  1  0  0  0  0
  1  2  2  0  0  0  0
  2  6  1  0  0  0  0
  3  7  1  0  0  0  0
  3  2  1  0  0  0  0
  4  3  2  0  0  0  0
  5  4  1  0  0  0  0
  5  1  1  0  0  0  0
  8  9  2  0  0  0  0
 10 11  1  0  0  0  0
 10  8  1  0  0  0  0
 11 16  1  0  0  0  0
 12 17  1  0  0  0  0
 12 11  2  0  0  0  0
 13 12  1  0  0  0  0
 14 13  2  0  0  0  0
 14 15  1  0  0  0  0
 15 10  2  0  0  0  0
 18 14  1  0  0  0  0
 19 20  2  0  0  0  0
 19  4  1  0  0  0  0
 21 19  1  0  0  0  0
 22 21  2  0  0  0  0
 23 22  1  0  0  0  0
 24 23  2  0  0  0  0
 24 25  1  0  0  0  0
 25 32  1  0  0  0  0
 26 25  2  0  0  0  0
 26 27  1  0  0  0  0
 27 29  2  0  0  0  0
 28 27  1  0  0  0  0
 29 31  1  0  0  0  0
 29 30  1  0  0  0  0
 32 21  1  0  0  0  0
 32 31  2  0  0  0  0
M  END
>  <minimizedAffinity>
-5.41183805

>  <minimizedRMSD>
2.08342528

$$$$
