
 OpenBabel03272509573D

 49 53  0  0  0  0  0  0  0  0999 V2000
   33.3630   28.0490   47.5700 C   0  0  0  0  0  0  0  0  0  0  0  0
   33.5340   28.4310   46.5290 H   0  0  0  0  0  0  0  0  0  0  0  0
   33.7940   27.0470   47.6130 H   0  0  0  0  0  0  0  0  0  0  0  0
   31.8860   27.9520   47.7430 C   0  0  0  0  0  0  0  0  0  0  0  0
   31.4090   27.5030   48.9580 C   0  0  0  0  0  0  0  0  0  0  0  0
   30.0640   27.3860   49.1890 C   0  0  0  0  0  0  0  0  0  0  0  0
   29.1960   27.7100   48.2300 N   0  0  0  0  0  0  0  0  0  0  0  0
   29.6740   28.1530   47.0280 C   0  0  0  0  0  0  0  0  0  0  0  0
   30.9830   28.2650   46.8100 N   0  0  0  0  0  0  0  0  0  0  0  0
   32.0540   27.2270   49.7700 H   0  0  0  0  0  0  0  0  0  0  0  0
   29.6300   27.0390   50.1260 H   0  0  0  0  0  0  0  0  0  0  0  0
   28.6510   28.5070   46.0130 C   0  0  0  0  0  0  0  0  0  0  0  0
   28.9340   29.4070   45.4290 H   0  0  0  0  0  0  0  0  0  0  0  0
   27.7160   28.7840   46.5320 H   0  0  0  0  0  0  0  0  0  0  0  0
   28.3600   27.3410   45.1440 C   0  0  0  0  0  0  0  0  0  0  0  0
   29.3560   26.4150   44.9960 N   0  0  0  0  0  0  0  0  0  0  0  0
   29.2550   25.3360   44.2120 C   0  0  0  0  0  0  0  0  0  0  0  0
   28.1480   25.0780   43.4960 N   0  0  0  0  0  0  0  0  0  0  0  0
   27.1260   25.9730   43.6110 C   0  0  0  0  0  0  0  0  0  0  0  0
   25.9470   25.7740   42.9180 C   0  0  0  0  0  0  0  0  0  0  0  0
   24.9020   26.6610   43.0350 C   0  0  0  0  0  0  0  0  0  0  0  0
   24.0250   26.4120   42.4500 H   0  0  0  0  0  0  0  0  0  0  0  0
   25.0370   27.7770   43.8640 C   0  0  0  0  0  0  0  0  0  0  0  0
   24.1810   28.4380   43.9180 H   0  0  0  0  0  0  0  0  0  0  0  0
   26.2020   27.9860   44.5550 C   0  0  0  0  0  0  0  0  0  0  0  0
   27.2210   27.0800   44.4130 C   0  0  0  0  0  0  0  0  0  0  0  0
   33.9960   29.0340   48.5040 C   0  0  0  0  0  0  0  0  0  0  0  0
   34.4920   29.8830   47.9930 H   0  0  0  0  0  0  0  0  0  0  0  0
   33.2090   29.4390   49.1510 H   0  0  0  0  0  0  0  0  0  0  0  0
   34.9930   28.3950   49.3040 O   0  0  0  0  0  0  0  0  0  0  0  0
   37.2780   30.1180   51.5210 C   0  0  0  0  0  0  0  0  0  0  0  0
   38.0440   30.8450   50.5740 C   0  0  0  0  0  0  0  0  0  0  0  0
   37.7200   30.6920   49.2370 C   0  0  0  0  0  0  0  0  0  0  0  0
   36.6830   29.8460   48.9460 N   0  0  0  0  0  0  0  0  0  0  0  0
   35.9700   29.1670   49.8480 C   0  0  0  0  0  0  0  0  0  0  0  0
   36.2840   29.3140   51.1630 N   0  0  0  0  0  0  0  0  0  0  0  0
   37.5560   30.2610   52.5610 H   0  0  0  0  0  0  0  0  0  0  0  0
   38.8460   31.4980   50.8150 H   0  0  0  0  0  0  0  0  0  0  0  0
   38.8440   33.3600   49.1520 F   0  0  0  0  0  0  0  0  0  0  0  0
   38.9110   32.5860   48.0770 C   0  0  0  0  0  0  0  0  0  0  0  0
   38.3820   31.3490   48.1410 C   0  0  0  0  0  0  0  0  0  0  0  0
   38.5130   30.6240   46.9450 C   0  0  0  0  0  0  0  0  0  0  0  0
   39.1180   31.1330   45.8300 C   0  0  0  0  0  0  0  0  0  0  0  0
   39.6400   32.4070   45.8260 C   0  0  0  0  0  0  0  0  0  0  0  0
   39.5270   33.1330   46.9750 C   0  0  0  0  0  0  0  0  0  0  0  0
   38.1210   29.6090   46.8820 H   0  0  0  0  0  0  0  0  0  0  0  0
   39.1890   30.5180   44.9260 H   0  0  0  0  0  0  0  0  0  0  0  0
   40.1150   32.7810   44.9220 H   0  0  0  0  0  0  0  0  0  0  0  0
   39.9340   34.1360   46.9810 H   0  0  0  0  0  0  0  0  0  0  0  0
  1  3  1  0  0  0  0
  1  4  1  0  0  0  0
  1 27  1  0  0  0  0
  2  1  1  0  0  0  0
  4  5  1  0  0  0  0
  5  6  2  0  0  0  0
  5 10  1  0  0  0  0
  6 11  1  0  0  0  0
  7  6  1  0  0  0  0
  8  7  2  0  0  0  0
  9  8  1  0  0  0  0
  9  4  2  0  0  0  0
 12 14  1  0  0  0  0
 12  8  1  0  0  0  0
 13 12  1  0  0  0  0
 15 12  1  0  0  0  0
 16 15  1  0  0  0  0
 17 16  2  0  0  0  0
 18 19  2  0  0  0  0
 18 17  1  0  0  0  0
 19 26  1  0  0  0  0
 20 21  2  0  0  0  0
 20 19  1  0  0  0  0
 21 23  1  0  0  0  0
 22 21  1  0  0  0  0
 23 24  1  0  0  0  0
 23 25  2  0  0  0  0
 26 25  1  0  0  0  0
 26 15  2  0  0  0  0
 27 29  1  0  0  0  0
 27 30  1  0  0  0  0
 28 27  1  0  0  0  0
 30 35  1  0  0  0  0
 31 37  1  0  0  0  0
 32 38  1  0  0  0  0
 32 31  2  0  0  0  0
 33 32  1  0  0  0  0
 34 33  2  0  0  0  0
 34 35  1  0  0  0  0
 35 36  2  0  0  0  0
 36 31  1  0  0  0  0
 40 41  1  0  0  0  0
 40 39  1  0  0  0  0
 41 33  1  0  0  0  0
 42 41  2  0  0  0  0
 43 42  1  0  0  0  0
 44 43  2  0  0  0  0
 44 45  1  0  0  0  0
 45 49  1  0  0  0  0
 45 40  2  0  0  0  0
 46 42  1  0  0  0  0
 47 43  1  0  0  0  0
 48 44  1  0  0  0  0
M  END
>  <minimizedAffinity>
-7.12194252

>  <minimizedRMSD>
1.68232119

$$$$
