
 OpenBabel03272509473D

 28 30  0  0  0  0  0  0  0  0999 V2000
   33.8030   27.0600   48.0570 C   0  0  0  0  0  0  0  0  0  0  0  0
   33.1120   26.5980   48.8100 H   0  0  0  0  0  0  0  0  0  0  0  0
   34.6810   26.3800   48.0510 H   0  0  0  0  0  0  0  0  0  0  0  0
   33.0870   27.0770   46.7680 C   0  0  0  0  0  0  0  0  0  0  0  0
   32.0900   27.9640   46.5330 N   0  0  0  0  0  0  0  0  0  0  0  0
   31.4270   28.0480   45.3900 C   0  0  0  0  0  3  0  0  0  0  0  0
   31.7270   27.2200   44.3740 N   0  0  0  0  0  0  0  0  0  0  0  0
   32.6920   26.3060   44.4970 C   0  0  0  0  0  0  0  0  0  0  0  0
   32.9690   25.4710   43.4380 C   0  0  0  0  0  3  0  0  0  0  0  0
   33.9720   24.5440   43.6340 C   0  0  0  0  0  0  0  0  0  0  0  0
   34.1840   23.8910   42.7970 H   0  0  0  0  0  0  0  0  0  0  0  0
   34.6840   24.4310   44.8200 C   0  0  0  0  0  0  0  0  0  0  0  0
   35.4570   23.6630   44.8730 H   0  0  0  0  0  0  0  0  0  0  0  0
   34.3500   25.3040   45.8400 C   0  0  0  0  0  3  0  0  0  0  0  0
   33.3570   26.2510   45.6980 C   0  0  0  0  0  0  0  0  0  0  0  0
   34.1210   28.4240   48.5690 C   0  0  0  0  0  0  0  0  0  0  0  0
   33.1810   29.0210   48.6150 H   0  0  0  0  0  0  0  0  0  0  0  0
   34.7660   28.9520   47.8520 H   0  0  0  0  0  0  0  0  0  0  0  0
   34.7190   28.3430   49.8550 O   0  0  0  0  0  0  0  0  0  0  0  0
   37.3740   30.2400   51.4070 C   0  0  0  0  0  0  0  0  0  0  0  0
   38.0700   30.6610   50.2750 C   0  0  0  0  0  0  0  0  0  0  0  0
   37.5910   30.2690   49.0190 C   0  0  0  0  0  0  0  0  0  0  0  0
   36.4620   29.4950   49.0050 N   0  0  0  0  0  0  0  0  0  0  0  0
   35.8240   29.1130   50.1160 C   0  0  0  0  0  0  0  0  0  0  0  0
   36.2940   29.4960   51.3210 N   0  0  0  0  0  0  0  0  0  0  0  0
   37.7270   30.5320   52.3960 H   0  0  0  0  0  0  0  0  0  0  0  0
   38.9550   31.2710   50.3460 H   0  0  0  0  0  0  0  0  0  0  0  0
   38.0870   30.5620   48.1010 H   0  0  0  0  0  0  0  0  0  0  0  0
  1 16  1  0  0  0  0
  1  2  1  0  0  0  0
  3  1  1  0  0  0  0
  4  1  1  0  0  0  0
  5  4  1  0  0  0  0
  6  5  2  0  0  0  0
  7  8  2  0  0  0  0
  7  6  1  0  0  0  0
  8 15  1  0  0  0  0
  9 10  2  0  0  0  0
  9  8  1  0  0  0  0
 10 12  1  0  0  0  0
 11 10  1  0  0  0  0
 12 13  1  0  0  0  0
 12 14  2  0  0  0  0
 15 14  1  0  0  0  0
 15  4  2  0  0  0  0
 16 17  1  0  0  0  0
 16 19  1  0  0  0  0
 18 16  1  0  0  0  0
 19 24  1  0  0  0  0
 20 26  1  0  0  0  0
 21 27  1  0  0  0  0
 21 20  2  0  0  0  0
 22 21  1  0  0  0  0
 23 22  2  0  0  0  0
 23 24  1  0  0  0  0
 24 25  2  0  0  0  0
 25 20  1  0  0  0  0
 28 22  1  0  0  0  0
M  END
>  <minimizedAffinity>
-4.0097394

>  <minimizedRMSD>
0.744491756

$$$$
