
 OpenBabel03272509473D

 28 30  0  0  0  0  0  0  0  0999 V2000
   33.5080   27.3920   48.2460 C   0  0  0  0  0  0  0  0  0  0  0  0
   33.0920   26.6740   49.0000 H   0  0  0  0  0  0  0  0  0  0  0  0
   34.3780   26.8530   47.8170 H   0  0  0  0  0  0  0  0  0  0  0  0
   32.4450   27.6400   47.2540 C   0  0  0  0  0  0  0  0  0  0  0  0
   31.2160   28.0640   47.6350 N   0  0  0  0  0  0  0  0  0  0  0  0
   30.2290   28.3280   46.7940 C   0  0  0  0  0  3  0  0  0  0  0  0
   30.4130   28.1790   45.4710 N   0  0  0  0  0  0  0  0  0  0  0  0
   31.5850   27.7640   44.9830 C   0  0  0  0  0  0  0  0  0  0  0  0
   31.7360   27.6170   43.6240 C   0  0  0  0  0  3  0  0  0  0  0  0
   32.9690   27.1780   43.1880 C   0  0  0  0  0  0  0  0  0  0  0  0
   33.0820   27.0640   42.1170 H   0  0  0  0  0  0  0  0  0  0  0  0
   34.0240   26.8920   44.0470 C   0  0  0  0  0  0  0  0  0  0  0  0
   34.9590   26.5500   43.5990 H   0  0  0  0  0  0  0  0  0  0  0  0
   33.7970   27.0640   45.3990 C   0  0  0  0  0  3  0  0  0  0  0  0
   32.5840   27.5010   45.8900 C   0  0  0  0  0  0  0  0  0  0  0  0
   33.8940   28.6150   49.0090 C   0  0  0  0  0  0  0  0  0  0  0  0
   32.9790   29.0630   49.4610 H   0  0  0  0  0  0  0  0  0  0  0  0
   34.2800   29.3800   48.3190 H   0  0  0  0  0  0  0  0  0  0  0  0
   34.8370   28.2910   50.0200 O   0  0  0  0  0  0  0  0  0  0  0  0
   37.4910   30.3430   51.3610 C   0  0  0  0  0  0  0  0  0  0  0  0
   38.1080   30.7530   50.1790 C   0  0  0  0  0  0  0  0  0  0  0  0
   37.5780   30.2980   48.9650 C   0  0  0  0  0  0  0  0  0  0  0  0
   36.4830   29.4810   49.0380 N   0  0  0  0  0  0  0  0  0  0  0  0
   35.9220   29.1120   50.1940 C   0  0  0  0  0  0  0  0  0  0  0  0
   36.4400   29.5550   51.3580 N   0  0  0  0  0  0  0  0  0  0  0  0
   37.8850   30.6820   52.3190 H   0  0  0  0  0  0  0  0  0  0  0  0
   38.9700   31.3990   50.1820 H   0  0  0  0  0  0  0  0  0  0  0  0
   38.0120   30.5800   48.0120 H   0  0  0  0  0  0  0  0  0  0  0  0
  1  2  1  0  0  0  0
  1 16  1  0  0  0  0
  3  1  1  0  0  0  0
  4  5  1  0  0  0  0
  4  1  1  0  0  0  0
  6  5  2  0  0  0  0
  7  6  1  0  0  0  0
  8  7  2  0  0  0  0
  8 15  1  0  0  0  0
  9  8  1  0  0  0  0
 10  9  2  0  0  0  0
 10 12  1  0  0  0  0
 11 10  1  0  0  0  0
 12 14  2  0  0  0  0
 13 12  1  0  0  0  0
 14 15  1  0  0  0  0
 15  4  2  0  0  0  0
 16 17  1  0  0  0  0
 16 19  1  0  0  0  0
 18 16  1  0  0  0  0
 19 24  1  0  0  0  0
 20 26  1  0  0  0  0
 21 27  1  0  0  0  0
 21 20  2  0  0  0  0
 22 23  2  0  0  0  0
 22 21  1  0  0  0  0
 23 24  1  0  0  0  0
 24 25  2  0  0  0  0
 25 20  1  0  0  0  0
 28 22  1  0  0  0  0
M  END
>  <minimizedAffinity>
-4.06403685

>  <minimizedRMSD>
1.53950047

$$$$
