REMARK  Name = 
REMARK  3 active torsions:
REMARK  status: ('A' for Active; 'I' for Inactive)
REMARK    1  A    between atoms: C_1  and  C_8
REMARK    2  A    between atoms: C_1  and  C_10
REMARK    3  A    between atoms: C_14  and  C_16
REMARK                            x       y       z     vdW  Elec       q    Type
REMARK                         _______ _______ _______ _____ _____    ______ ____
ROOT
ATOM      1  C   UNL     1      36.513  30.519  46.270  0.00  0.00    +0.000 A 
ATOM      2  C   UNL     1      37.148  30.924  47.395  0.00  0.00    +0.000 A 
ATOM      3  C   UNL     1      36.547  30.734  48.639  0.00  0.00    +0.000 A 
ATOM      4  C   UNL     1      35.294  30.125  48.683  0.00  0.00    +0.000 A 
ATOM      5  C   UNL     1      34.650  29.711  47.504  0.00  0.00    +0.000 A 
ATOM      6  N   UNL     1      35.304  29.934  46.345  0.00  0.00    +0.000 NA
ATOM      7  H   UNL     1      38.115  31.396  47.381  0.00  0.00    +0.000 HD
ATOM      8  H   UNL     1      37.048  31.054  49.537  0.00  0.00    +0.000 HD
ATOM      9  H   UNL     1      34.784  29.954  49.620  0.00  0.00    +0.000 HD
ENDROOT
BRANCH   5  10
ATOM     10  C   UNL     1      33.344  29.073  47.510  0.00  0.00    +0.000 A 
ATOM     11  N   UNL     1      32.360  29.063  46.552  0.00  0.00    +0.000 NA
ATOM     12  C   UNL     1      31.323  28.328  47.024  0.00  0.00    +0.000 A 
ATOM     13  N   UNL     1      31.655  27.878  48.273  0.00  0.00    +0.000 N 
ATOM     14  N   UNL     1      32.881  28.334  48.559  0.00  0.00    +0.000 NA
ATOM     15  H   UNL     1      30.389  28.146  46.469  0.00  0.00    +0.000 HD
ATOM     16  C   UNL     1      30.843  27.074  49.109  0.00  0.00    +0.000 A 
ATOM     17  N   UNL     1      31.293  26.999  50.377  0.00  0.00    +0.000 NA
ATOM     18  C   UNL     1      30.620  26.261  51.306  0.00  0.00    +0.000 A 
ATOM     19  N   UNL     1      29.486  25.594  50.961  0.00  0.00    +0.000 NA
ATOM     20  C   UNL     1      29.014  25.652  49.696  0.00  0.00    +0.000 A 
ATOM     21  C   UNL     1      27.861  24.987  49.296  0.00  0.00    +0.000 A 
ATOM     22  C   UNL     1      27.427  25.082  47.996  0.00  0.00    +0.000 A 
ATOM     23  H   UNL     1      26.517  24.546  47.719  0.00  0.00    +0.000 HD
ATOM     24  C   UNL     1      28.142  25.841  47.091  0.00  0.00    +0.000 A 
ATOM     25  H   UNL     1      27.764  25.891  46.068  0.00  0.00    +0.000 HD
ATOM     26  C   UNL     1      29.303  26.525  47.445  0.00  0.00    +0.000 A 
ATOM     27  C   UNL     1      29.686  26.394  48.749  0.00  0.00    +0.000 A 
ENDBRANCH   5  10
BRANCH   1  28
ATOM     28  C   UNL     1      37.147  30.715  44.911  0.00  0.00    +0.000 C 
ATOM     29  C   UNL     1      36.836  29.752  43.842  0.00  0.00    +0.000 C 
ATOM     30  C   UNL     1      36.254  31.141  43.783  0.00  0.00    +0.000 C 
ATOM     31  H   UNL     1      37.630  29.556  43.067  0.00  0.00    +0.000 HD
ATOM     32  H   UNL     1      36.163  28.906  44.026  0.00  0.00    +0.000 HD
ATOM     33  H   UNL     1      36.685  31.858  43.053  0.00  0.00    +0.000 HD
ATOM     34  H   UNL     1      35.174  31.215  43.972  0.00  0.00    +0.000 HD
BRANCH  28  39
ATOM     35  C   UNL     1      39.751  33.345  44.963  0.00  0.00    +0.000 A 
ATOM     36  C   UNL     1      40.919  32.618  45.218  0.00  0.00    +0.000 A 
ATOM     37  C   UNL     1      40.804  31.223  45.371  0.00  0.00    +0.000 A 
ATOM     38  N   UNL     1      39.580  30.650  45.266  0.00  0.00    +0.000 NA
ATOM     39  C   UNL     1      38.468  31.391  45.017  0.00  0.00    +0.000 A 
ATOM     40  N   UNL     1      38.554  32.717  44.869  0.00  0.00    +0.000 NA
ATOM     41  H   UNL     1      39.809  34.419  44.841  0.00  0.00    +0.000 HD
ATOM     42  H   UNL     1      41.871  33.115  45.294  0.00  0.00    +0.000 HD
ATOM     43  H   UNL     1      41.692  30.624  45.571  0.00  0.00    +0.000 HD
ENDBRANCH  28  39
ENDBRANCH   1  28
TORSDOF 3
