
 OpenBabel03272504413D

 48 51  0  0  0  0  0  0  0  0999 V2000
   34.6630   29.1410   48.8140 C   0  0  0  0  0  0  0  0  0  0  0  0
   35.5740   29.0060   49.4390 H   0  0  0  0  0  0  0  0  0  0  0  0
   34.1260   29.9860   49.3370 H   0  0  0  0  0  0  0  0  0  0  0  0
   37.4260   30.2340   48.6300 Cl  0  0  0  0  0  0  0  0  0  0  0  0
   36.3010   30.1570   47.2710 C   0  0  0  0  0  0  0  0  0  0  0  0
   36.6960   30.6180   46.0650 C   0  0  0  0  0  0  0  0  0  0  0  0
   35.8270   30.5660   44.9950 C   0  0  0  0  0  0  0  0  0  0  0  0
   34.5550   30.0350   45.1850 C   0  0  0  0  0  0  0  0  0  0  0  0
   34.2200   29.5760   46.4750 C   0  0  0  0  0  0  0  0  0  0  0  0
   35.0580   29.6220   47.5240 C   0  0  0  0  0  0  0  0  0  0  0  0
   36.1680   30.9450   44.0240 H   0  0  0  0  0  0  0  0  0  0  0  0
   33.9630   30.0410   44.2950 H   0  0  0  0  0  0  0  0  0  0  0  0
   33.2500   29.2300   46.4080 H   0  0  0  0  0  0  0  0  0  0  0  0
   39.6730   32.7800   46.3010 C   0  0  0  0  0  0  0  0  0  0  0  0
   40.5640   32.1030   45.3970 C   0  0  0  0  0  0  0  0  0  0  0  0
   40.1000   30.9470   44.7560 C   0  0  0  0  0  0  0  0  0  0  0  0
   38.8390   30.5150   45.0130 N   0  0  0  0  0  0  0  0  0  0  0  0
   38.0240   31.1740   45.8690 C   0  0  0  0  0  0  0  0  0  0  0  0
   38.4430   32.2860   46.4980 N   0  0  0  0  0  0  0  0  0  0  0  0
   40.0010   33.6620   46.8010 H   0  0  0  0  0  0  0  0  0  0  0  0
   41.5190   32.5590   45.2960 H   0  0  0  0  0  0  0  0  0  0  0  0
   40.9980   30.3190   43.8860 N   0  0  0  0  0  0  0  0  0  0  0  0
   41.5120   29.4190   44.0740 H   0  0  0  0  0  0  0  0  0  0  0  0
   41.1160   30.8480   42.9980 H   0  0  0  0  0  0  0  0  0  0  0  0
   33.8590   27.9200   48.9280 C   0  0  0  0  0  0  0  0  0  0  0  0
   34.2530   27.1900   49.6960 H   0  0  0  0  0  0  0  0  0  0  0  0
   33.9320   27.3590   47.9670 H   0  0  0  0  0  0  0  0  0  0  0  0
   32.5490   28.2090   49.2060 O   0  0  0  0  0  0  0  0  0  0  0  0
   32.2690   26.0870   47.6920 O   0  0  0  0  0  0  0  0  0  0  0  0
   31.5300   27.2490   48.3100 P   0  0  2  0  0  0  0  0  0  0  0  0
   30.8870   28.2480   47.0490 O   0  0  0  0  0  0  0  0  0  0  0  0
   29.9770   27.6550   46.1830 C   0  0  0  0  0  0  0  0  0  0  0  0
   28.7030   27.3230   46.4590 N   0  0  0  0  0  0  0  0  0  0  0  0
   27.9580   26.7590   45.5140 C   0  0  0  0  0  3  0  0  0  0  0  0
   28.4270   26.5010   44.2770 N   0  0  0  0  0  0  0  0  0  0  0  0
   29.6980   26.8120   43.9400 C   0  0  0  0  0  0  0  0  0  0  0  0
   30.1520   26.5370   42.6660 C   0  0  0  0  0  3  0  0  0  0  0  0
   31.4510   26.8670   42.3590 C   0  0  0  0  0  0  0  0  0  0  0  0
   31.9360   26.7050   41.3940 H   0  0  0  0  0  0  0  0  0  0  0  0
   32.2840   27.4550   43.2900 C   0  0  0  0  0  0  0  0  0  0  0  0
   33.3030   27.7290   43.0920 H   0  0  0  0  0  0  0  0  0  0  0  0
   31.7950   27.7160   44.5540 C   0  0  0  0  0  3  0  0  0  0  0  0
   30.5040   27.4070   44.9150 C   0  0  0  0  0  0  0  0  0  0  0  0
   30.2210   26.6950   49.1540 O   0  0  0  0  0  0  0  0  0  0  0  0
   29.7150   27.6720   49.9790 C   0  0  0  0  0  0  0  0  0  0  0  0
   29.1020   27.1460   51.1150 F   0  0  0  0  0  0  0  0  0  0  0  0
   30.7120   28.5110   50.4490 F   0  0  0  0  0  0  0  0  0  0  0  0
   28.7760   28.4230   49.2880 F   0  0  0  0  0  0  0  0  0  0  0  0
  1 25  1  0  0  0  0
  1  3  1  0  0  0  0
  1  2  1  0  0  0  0
  5 10  1  0  0  0  0
  5  4  1  0  0  0  0
  6  5  2  0  0  0  0
  7  8  2  0  0  0  0
  7  6  1  0  0  0  0
  8  9  1  0  0  0  0
  9 10  2  0  0  0  0
 10  1  1  0  0  0  0
 11  7  1  0  0  0  0
 12  8  1  0  0  0  0
 13  9  1  0  0  0  0
 14 19  1  0  0  0  0
 14 20  1  0  0  0  0
 15 14  2  0  0  0  0
 16 17  2  0  0  0  0
 16 15  1  0  0  0  0
 17 18  1  0  0  0  0
 18  6  1  0  0  0  0
 18 19  2  0  0  0  0
 21 15  1  0  0  0  0
 22 23  1  0  0  0  0
 22 16  1  0  0  0  0
 24 22  1  0  0  0  0
 25 28  1  0  0  0  0
 25 26  1  0  0  0  0
 27 25  1  0  0  0  0
 30 29  2  6  0  0  0
 30 44  1  0  0  0  0
 30 28  1  0  0  0  0
 31 30  1  0  0  0  0
 32 33  1  0  0  0  0
 32 31  1  0  0  0  0
 34 33  2  0  0  0  0
 35 34  1  0  0  0  0
 36 35  2  0  0  0  0
 36 43  1  0  0  0  0
 37 36  1  0  0  0  0
 38 37  2  0  0  0  0
 38 40  1  0  0  0  0
 39 38  1  0  0  0  0
 40 42  2  0  0  0  0
 41 40  1  0  0  0  0
 42 43  1  0  0  0  0
 43 32  2  0  0  0  0
 44 45  1  0  0  0  0
 45 47  1  0  0  0  0
 45 46  1  0  0  0  0
 48 45  1  0  0  0  0
M  END
>  <minimizedAffinity>
-5.76955795

>  <minimizedRMSD>
0.598993182

$$$$
