
     RDKit          3D

 35 38  0  0  0  0  0  0  0  0999 V2000
   37.0181   32.2116   49.8039 F   0  0  0  0  0  0  0  0  0  0  0  0
   37.6684   31.9348   48.6285 C   0  0  0  0  0  0  0  0  0  0  0  0
   37.2513   30.8966   47.8139 C   0  0  0  0  0  0  0  0  0  0  0  0
   37.9460   30.6533   46.6260 C   0  0  0  0  0  0  0  0  0  0  0  0
   39.0374   31.4383   46.2654 C   0  0  0  0  0  0  0  0  0  0  0  0
   39.4021   32.4528   47.1153 C   0  0  0  0  0  0  0  0  0  0  0  0
   38.7391   32.7238   48.2995 C   0  0  0  0  0  0  0  0  0  0  0  0
   36.3835   29.2743   49.3080 C   0  0  0  0  0  0  0  0  0  0  0  0
   36.1308   30.1353   48.2427 C   0  0  0  0  0  0  0  0  0  0  0  0
   34.8338   30.1527   47.7271 C   0  0  0  0  0  0  0  0  0  0  0  0
   33.8977   29.3312   48.2933 N   0  0  0  0  0  0  0  0  0  0  0  0
   34.1865   28.5254   49.3102 C   0  0  0  0  0  0  0  0  0  0  0  0
   35.4231   28.4764   49.8382 N   0  0  0  0  0  0  0  0  0  0  0  0
   39.2432   34.0578   49.3920 S   0  0  0  0  0  0  0  0  0  0  0  0
   37.5947   29.8286   46.0040 H   0  0  0  0  0  0  0  0  0  0  0  0
   39.5533   31.2327   45.3509 H   0  0  0  0  0  0  0  0  0  0  0  0
   40.2500   33.0739   46.8497 H   0  0  0  0  0  0  0  0  0  0  0  0
   37.3637   29.1807   49.7881 H   0  0  0  0  0  0  0  0  0  0  0  0
   34.6899   30.8335   46.9061 H   0  0  0  0  0  0  0  0  0  0  0  0
   33.4288   27.8883   49.7371 H   0  0  0  0  0  0  0  0  0  0  0  0
   40.6517   34.9213   48.7387 C   0  0  0  0  0  0  0  0  0  0  0  0
   41.6419   34.4025   47.9582 N   0  0  0  0  0  0  0  0  0  0  0  0
   42.6445   35.1960   47.5442 C   0  0  0  0  0  0  0  0  0  0  0  0
   42.7431   36.4939   47.8515 N   0  0  0  0  0  0  0  0  0  0  0  0
   41.7943   37.0627   48.6197 C   0  0  0  0  0  0  0  0  0  0  0  0
   41.8946   38.3925   48.9350 C   0  0  0  0  0  0  0  0  0  0  0  0
   40.9213   38.9894   49.7270 C   0  0  0  0  0  0  0  0  0  0  0  0
   40.9256   40.0373   50.0233 H   0  0  0  0  0  0  0  0  0  0  0  0
   39.8474   38.2288   50.1960 C   0  0  0  0  0  0  0  0  0  0  0  0
   39.0648   38.6681   50.8212 H   0  0  0  0  0  0  0  0  0  0  0  0
   39.8107   36.8988   49.8400 C   0  0  0  0  0  0  0  0  0  0  0  0
   40.7492   36.2732   49.0620 C   0  0  0  0  0  0  0  0  0  0  0  0
   43.4088   34.7460   46.9276 H   0  0  0  0  0  0  0  0  0  0  0  0
   42.6843   39.0358   48.6142 H   0  0  0  0  0  0  0  0  0  0  0  0
   38.9718   36.3351   50.2150 H   0  0  0  0  0  0  0  0  0  0  0  0
  2  1  1  0
  3  9  1  0
  3  2  2  0
  4  3  1  0
  5  4  2  0
  5  6  1  0
  6  7  2  0
  7  2  1  0
  7 14  1  0
  8 13  2  0
  9  8  1  0
 10  9  2  0
 10 11  1  0
 11 12  2  0
 12 13  1  0
  4 15  1  0
  5 16  1  0
  6 17  1  0
  8 18  1  0
 10 19  1  0
 12 20  1  0
 21 22  2  0
 22 23  1  0
 23 24  2  0
 24 25  1  0
 25 26  2  0
 26 27  1  0
 27 28  1  0
 27 29  2  0
 29 30  1  0
 29 31  1  0
 31 32  2  0
 32 21  1  0
 32 25  1  0
 23 33  1  0
 26 34  1  0
 31 35  1  0
 14 21  1  0
M  ISO  8  15  14  16  14  17  14  18  14  19  14  20  14  28  16  30  16
M  END
>  <DihAtoms>  (1) 
6,13,20,21

>  <DihDeg>  (1) 
89.64157186173115

$$$$
