
 OpenBabel03272503123D

 49 54  0  0  0  0  0  0  0  0999 V2000
   39.0920   32.1220   42.5450 C   0  0  0  0  0  0  0  0  0  0  0  0
   39.6790   31.4640   43.6030 C   0  0  0  0  0  0  0  0  0  0  0  0
   40.6100   30.4870   43.4390 C   0  0  0  0  0  0  0  0  0  0  0  0
   41.0070   30.1130   42.1660 C   0  0  0  0  0  0  0  0  0  0  0  0
   41.8750   29.2130   41.7010 N   0  0  0  0  0  0  0  0  0  0  0  0
   41.8570   29.2790   40.3630 C   0  0  0  0  0  0  0  0  0  0  0  0
   40.9780   30.2210   39.9920 N   0  0  0  0  0  0  0  0  0  0  0  0
   40.4220   30.7690   41.0980 C   0  0  0  0  0  0  0  0  0  0  0  0
   39.4670   31.7720   41.2360 C   0  0  0  0  0  0  0  0  0  0  0  0
   38.3500   32.9010   42.6680 H   0  0  0  0  0  0  0  0  0  0  0  0
   41.0290   30.0130   44.3220 H   0  0  0  0  0  0  0  0  0  0  0  0
   42.4560   28.5780   42.3130 H   0  0  0  0  0  0  0  0  0  0  0  0
   42.4660   28.6600   39.7120 H   0  0  0  0  0  0  0  0  0  0  0  0
   39.2340   31.8890   44.9150 C   0  0  0  0  0  0  0  0  0  0  0  0
   38.1530   32.5470   45.0450 O   0  0  0  0  0  0  0  0  0  0  0  0
   39.9410   31.6160   46.1300 N   0  0  0  0  0  0  0  0  0  0  0  0
   40.8150   31.0900   46.0540 H   0  0  0  0  0  0  0  0  0  0  0  0
   38.1060   30.1390   47.4820 F   0  0  0  0  0  0  0  0  0  0  0  0
   38.3680   31.3790   47.9700 C   0  0  0  0  0  0  0  0  0  0  0  0
   37.7230   31.8280   49.0840 C   0  0  0  0  0  0  0  0  0  0  0  0
   38.0410   33.0910   49.5160 C   0  0  0  0  0  0  0  0  0  0  0  0
   38.9510   33.8860   48.8860 C   0  0  0  0  0  0  0  0  0  0  0  0
   39.5960   33.4090   47.7520 C   0  0  0  0  0  0  0  0  0  0  0  0
   39.2930   32.1350   47.2940 C   0  0  0  0  0  0  0  0  0  0  0  0
   37.5330   33.4610   50.4050 H   0  0  0  0  0  0  0  0  0  0  0  0
   39.1910   34.8830   49.2410 H   0  0  0  0  0  0  0  0  0  0  0  0
   40.3320   33.9720   47.1910 H   0  0  0  0  0  0  0  0  0  0  0  0
   36.0930   29.3710   51.4520 C   0  0  0  0  0  0  0  0  0  0  0  0
   37.0650   30.2200   50.8650 C   0  0  0  0  0  0  0  0  0  0  0  0
   36.7560   30.9400   49.7240 C   0  0  0  0  0  0  0  0  0  0  0  0
   35.4970   30.7900   49.2090 N   0  0  0  0  0  0  0  0  0  0  0  0
   34.5870   29.9840   49.7720 C   0  0  0  0  0  0  0  0  0  0  0  0
   34.8840   29.2890   50.8740 N   0  0  0  0  0  0  0  0  0  0  0  0
   36.4240   28.8460   52.3440 H   0  0  0  0  0  0  0  0  0  0  0  0
   38.0700   30.3670   51.2390 H   0  0  0  0  0  0  0  0  0  0  0  0
   33.5940   29.8340   49.4100 H   0  0  0  0  0  0  0  0  0  0  0  0
   38.8870   32.4220   40.1710 O   0  0  0  0  0  0  0  0  0  0  0  0
   37.6720   32.1420   39.6050 C   0  0  0  0  0  0  0  0  0  0  0  0
   36.9130   31.0360   39.7640 N   0  0  0  0  0  0  0  0  0  0  0  0
   35.7280   30.8860   39.1450 C   0  0  0  0  0  3  0  0  0  0  0  0
   35.2630   31.8680   38.3300 N   0  0  0  0  0  0  0  0  0  0  0  0
   35.9700   32.9890   38.1320 C   0  0  0  0  0  0  0  0  0  0  0  0
   35.4370   33.9470   37.2900 C   0  0  0  0  0  3  0  0  0  0  0  0
   36.1610   35.0880   37.0920 C   0  0  0  0  0  0  0  0  0  0  0  0
   35.8180   35.8860   36.4510 H   0  0  0  0  0  0  0  0  0  0  0  0
   37.3630   35.2900   37.6930 C   0  0  0  0  0  0  0  0  0  0  0  0
   37.9870   36.1810   37.5720 H   0  0  0  0  0  0  0  0  0  0  0  0
   37.8690   34.3160   38.5280 C   0  0  0  0  0  3  0  0  0  0  0  0
   37.1760   33.1340   38.7670 C   0  0  0  0  0  0  0  0  0  0  0  0
  1 10  1  0  0  0  0
  1  2  1  0  0  0  0
  2 14  1  0  0  0  0
  3  2  2  0  0  0  0
  3 11  1  0  0  0  0
  4  3  1  0  0  0  0
  5  4  1  0  0  0  0
  5 12  1  0  0  0  0
  6  5  1  0  0  0  0
  7  6  2  0  0  0  0
  7  8  1  0  0  0  0
  8  9  1  0  0  0  0
  8  4  2  0  0  0  0
  9  1  2  0  0  0  0
 13  6  1  0  0  0  0
 14 15  2  0  0  0  0
 14 16  1  0  0  0  0
 16 24  1  0  0  0  0
 17 16  1  0  0  0  0
 18 19  1  0  0  0  0
 19 20  1  0  0  0  0
 20 21  2  0  0  0  0
 20 30  1  0  0  0  0
 21 25  1  0  0  0  0
 22 26  1  0  0  0  0
 22 21  1  0  0  0  0
 23 22  2  0  0  0  0
 24 23  1  0  0  0  0
 24 19  2  0  0  0  0
 27 23  1  0  0  0  0
 28 34  1  0  0  0  0
 29 35  1  0  0  0  0
 29 28  2  0  0  0  0
 30 29  1  0  0  0  0
 31 30  2  0  0  0  0
 31 32  1  0  0  0  0
 32 33  2  0  0  0  0
 33 28  1  0  0  0  0
 36 32  1  0  0  0  0
 37  9  1  0  0  0  0
 38 39  1  0  0  0  0
 38 37  1  0  0  0  0
 40 39  2  0  0  0  0
 41 40  1  0  0  0  0
 42 41  2  0  0  0  0
 42 49  1  0  0  0  0
 43 42  1  0  0  0  0
 44 43  2  0  0  0  0
 44 46  1  0  0  0  0
 45 44  1  0  0  0  0
 46 48  2  0  0  0  0
 47 46  1  0  0  0  0
 48 49  1  0  0  0  0
 49 38  2  0  0  0  0
M  END
>  <minimizedAffinity>
-7.31554174

>  <minimizedRMSD>
2.12494469

$$$$
