
 OpenBabel03272504413D

 48 51  0  0  0  0  0  0  0  0999 V2000
   34.7160   29.3890   48.7490 C   0  0  0  0  0  0  0  0  0  0  0  0
   35.6080   29.4160   49.4140 H   0  0  0  0  0  0  0  0  0  0  0  0
   34.0780   30.2290   49.1560 H   0  0  0  0  0  0  0  0  0  0  0  0
   37.4740   30.4840   48.4960 Cl  0  0  0  0  0  0  0  0  0  0  0  0
   36.3600   30.2860   47.1400 C   0  0  0  0  0  0  0  0  0  0  0  0
   36.7620   30.6470   45.9020 C   0  0  0  0  0  0  0  0  0  0  0  0
   35.9020   30.5000   44.8340 C   0  0  0  0  0  0  0  0  0  0  0  0
   34.6320   29.9780   45.0580 C   0  0  0  0  0  0  0  0  0  0  0  0
   34.2900   29.6250   46.3790 C   0  0  0  0  0  0  0  0  0  0  0  0
   35.1190   29.7650   47.4270 C   0  0  0  0  0  0  0  0  0  0  0  0
   36.2490   30.7990   43.8370 H   0  0  0  0  0  0  0  0  0  0  0  0
   34.0470   29.9050   44.1660 H   0  0  0  0  0  0  0  0  0  0  0  0
   33.3230   29.2670   46.3340 H   0  0  0  0  0  0  0  0  0  0  0  0
   39.7360   32.8230   46.0120 C   0  0  0  0  0  0  0  0  0  0  0  0
   40.6230   32.1040   45.1370 C   0  0  0  0  0  0  0  0  0  0  0  0
   40.1570   30.9160   44.5580 C   0  0  0  0  0  0  0  0  0  0  0  0
   38.8980   30.4950   44.8440 N   0  0  0  0  0  0  0  0  0  0  0  0
   38.0880   31.1950   45.6710 C   0  0  0  0  0  0  0  0  0  0  0  0
   38.5090   32.3370   46.2410 N   0  0  0  0  0  0  0  0  0  0  0  0
   40.0650   33.7290   46.4650 H   0  0  0  0  0  0  0  0  0  0  0  0
   41.5770   32.5550   45.0080 H   0  0  0  0  0  0  0  0  0  0  0  0
   41.0510   30.2470   43.7140 N   0  0  0  0  0  0  0  0  0  0  0  0
   41.5680   29.3580   43.9440 H   0  0  0  0  0  0  0  0  0  0  0  0
   41.1630   30.7310   42.8000 H   0  0  0  0  0  0  0  0  0  0  0  0
   34.0290   28.1140   48.9740 C   0  0  0  0  0  0  0  0  0  0  0  0
   34.5240   27.4670   49.7590 H   0  0  0  0  0  0  0  0  0  0  0  0
   34.1030   27.5050   48.0430 H   0  0  0  0  0  0  0  0  0  0  0  0
   32.7140   28.3060   49.3070 O   0  0  0  0  0  0  0  0  0  0  0  0
   32.5090   26.6410   47.2930 O   0  0  0  0  0  0  0  0  0  0  0  0
   31.7170   27.4580   48.2840 P   0  0  2  0  0  0  0  0  0  0  0  0
   30.7700   28.6290   47.4270 O   0  0  0  0  0  0  0  0  0  0  0  0
   30.2920   28.2550   46.1780 C   0  0  0  0  0  0  0  0  0  0  0  0
   29.7200   27.0820   45.8540 N   0  0  0  0  0  0  0  0  0  0  0  0
   29.3140   26.8790   44.6050 C   0  0  0  0  0  3  0  0  0  0  0  0
   29.4510   27.8070   43.6370 N   0  0  0  0  0  0  0  0  0  0  0  0
   30.0160   29.0040   43.9020 C   0  0  0  0  0  0  0  0  0  0  0  0
   30.1430   29.9360   42.8910 C   0  0  0  0  0  3  0  0  0  0  0  0
   30.7250   31.1440   43.1970 C   0  0  0  0  0  0  0  0  0  0  0  0
   30.8870   31.9660   42.4970 H   0  0  0  0  0  0  0  0  0  0  0  0
   31.1710   31.4250   44.4720 C   0  0  0  0  0  0  0  0  0  0  0  0
   31.6310   32.3540   44.7540 H   0  0  0  0  0  0  0  0  0  0  0  0
   31.0280   30.4690   45.4570 C   0  0  0  0  0  3  0  0  0  0  0  0
   30.4540   29.2430   45.2070 C   0  0  0  0  0  0  0  0  0  0  0  0
   30.6280   26.4890   49.0660 O   0  0  0  0  0  0  0  0  0  0  0  0
   29.7350   27.2380   49.7960 C   0  0  0  0  0  0  0  0  0  0  0  0
   29.2900   26.5730   50.9370 F   0  0  0  0  0  0  0  0  0  0  0  0
   30.3060   28.4150   50.2500 F   0  0  0  0  0  0  0  0  0  0  0  0
   28.6320   27.5390   49.0120 F   0  0  0  0  0  0  0  0  0  0  0  0
  1 25  1  0  0  0  0
  1  3  1  0  0  0  0
  1  2  1  0  0  0  0
  5 10  1  0  0  0  0
  5  4  1  0  0  0  0
  6  5  2  0  0  0  0
  7  8  2  0  0  0  0
  7  6  1  0  0  0  0
  8  9  1  0  0  0  0
  9 10  2  0  0  0  0
 10  1  1  0  0  0  0
 11  7  1  0  0  0  0
 12  8  1  0  0  0  0
 13  9  1  0  0  0  0
 14 19  1  0  0  0  0
 14 20  1  0  0  0  0
 15 14  2  0  0  0  0
 16 17  2  0  0  0  0
 16 15  1  0  0  0  0
 17 18  1  0  0  0  0
 18  6  1  0  0  0  0
 18 19  2  0  0  0  0
 21 15  1  0  0  0  0
 22 23  1  0  0  0  0
 22 16  1  0  0  0  0
 24 22  1  0  0  0  0
 25 28  1  0  0  0  0
 25 26  1  0  0  0  0
 27 25  1  0  0  0  0
 30 29  2  6  0  0  0
 30 44  1  0  0  0  0
 30 28  1  0  0  0  0
 31 30  1  0  0  0  0
 32 31  1  0  0  0  0
 33 32  1  0  0  0  0
 34 33  2  0  0  0  0
 35 36  2  0  0  0  0
 35 34  1  0  0  0  0
 36 43  1  0  0  0  0
 37 38  2  0  0  0  0
 37 36  1  0  0  0  0
 38 40  1  0  0  0  0
 39 38  1  0  0  0  0
 40 41  1  0  0  0  0
 40 42  2  0  0  0  0
 43 42  1  0  0  0  0
 43 32  2  0  0  0  0
 44 45  1  0  0  0  0
 45 47  1  0  0  0  0
 45 46  1  0  0  0  0
 48 45  1  0  0  0  0
M  END
>  <minimizedAffinity>
-5.95029449

>  <minimizedRMSD>
0.635810912

$$$$
