
     RDKit          3D

 37 40  0  0  0  0  0  0  0  0999 V2000
   34.6566   28.3085   49.5826 C   0  0  0  0  0  0  0  0  0  0  0  0
   37.2921   30.1843   51.3857 C   0  0  0  0  0  0  0  0  0  0  0  0
   38.0743   30.6810   50.3384 C   0  0  0  0  0  0  0  0  0  0  0  0
   37.6931   30.3699   49.0312 C   0  0  0  0  0  0  0  0  0  0  0  0
   36.5938   29.6081   48.8216 N   0  0  0  0  0  0  0  0  0  0  0  0
   35.8606   29.1451   49.8706 C   0  0  0  0  0  0  0  0  0  0  0  0
   36.2123   29.4338   51.1218 N   0  0  0  0  0  0  0  0  0  0  0  0
   34.4362   28.2568   48.0984 C   0  0  0  0  0  0  0  0  0  0  0  0
   32.9572   28.2687   47.8875 C   0  0  0  0  0  0  0  0  0  0  0  0
   32.0218   27.5816   48.6376 C   0  0  0  0  0  0  0  0  0  0  0  0
   30.7476   27.8315   48.1510 C   0  0  0  0  0  0  0  0  0  0  0  0
   30.9499   28.6792   47.0994 N   0  0  0  0  0  0  0  0  0  0  0  0
   32.2526   28.9375   46.9433 N   0  0  0  0  0  0  0  0  0  0  0  0
   33.7826   28.5629   50.1836 H   0  0  0  0  0  0  0  0  0  0  0  0
   34.9400   27.2650   49.9056 H   0  0  0  0  0  0  0  0  0  0  0  0
   37.5797   30.4206   52.4153 H   0  0  0  0  0  0  0  0  0  0  0  0
   38.9323   31.2787   50.5838 H   0  0  0  0  0  0  0  0  0  0  0  0
   38.2762   30.7388   48.2146 H   0  0  0  0  0  0  0  0  0  0  0  0
   34.8128   27.3019   47.6434 H   0  0  0  0  0  0  0  0  0  0  0  0
   34.8488   29.1620   47.6201 H   0  0  0  0  0  0  0  0  0  0  0  0
   32.2263   26.9358   49.4863 H   0  0  0  0  0  0  0  0  0  0  0  0
   29.7817   27.4750   48.4766 H   0  0  0  0  0  0  0  0  0  0  0  0
   29.9570   29.2504   46.2412 C   0  0  0  0  0  0  0  0  0  0  0  0
   29.0550   28.3393   45.7748 N   0  0  0  0  0  0  0  0  0  0  0  0
   28.0594   28.7667   44.9460 C   0  0  0  0  0  0  0  0  0  0  0  0
   27.9258   30.0658   44.5628 N   0  0  0  0  0  0  0  0  0  0  0  0
   28.8389   30.9441   45.0445 C   0  0  0  0  0  0  0  0  0  0  0  0
   28.7319   32.2754   44.6739 C   0  0  0  0  0  0  0  0  0  0  0  0
   29.6779   33.1590   45.1788 C   0  0  0  0  0  0  0  0  0  0  0  0
   29.5552   34.1935   44.8616 H   0  0  0  0  0  0  0  0  0  0  0  0
   30.6861   32.7575   46.0112 C   0  0  0  0  0  0  0  0  0  0  0  0
   31.4163   33.4616   46.3961 H   0  0  0  0  0  0  0  0  0  0  0  0
   30.8105   31.4224   46.3954 C   0  0  0  0  0  0  0  0  0  0  0  0
   29.8698   30.5783   45.8859 C   0  0  0  0  0  0  0  0  0  0  0  0
   27.3071   28.0926   44.5384 H   0  0  0  0  0  0  0  0  0  0  0  0
   27.9460   32.5923   44.0242 H   0  0  0  0  0  0  0  0  0  0  0  0
   31.5884   31.0845   47.0440 H   0  0  0  0  0  0  0  0  0  0  0  0
  1  6  1  0
  3  2  2  0
  4  3  1  0
  5  4  2  0
  5  6  1  0
  6  7  2  0
  7  2  1  0
  8  1  1  0
  9  8  1  0
  9 10  1  0
 11 10  2  0
 12 11  1  0
 13 12  1  0
 13  9  2  0
  1 14  1  0
  1 15  1  0
  2 16  1  0
  3 17  1  0
  4 18  1  0
  8 19  1  0
  8 20  1  0
 10 21  1  0
 11 22  1  0
 23 24  2  0
 24 25  1  0
 25 26  2  0
 26 27  1  0
 27 28  2  0
 28 29  1  0
 29 30  1  0
 29 31  2  0
 31 32  1  0
 31 33  1  0
 33 34  2  0
 34 23  1  0
 34 27  1  0
 25 35  1  0
 28 36  1  0
 33 37  1  0
 12 23  1  0
M  ISO  8  14   8  15   8  16  14  17  14  18  14  19   8  20   8  21  14
M  ISO  3  22  14  30  16  32  16
M  END
>  <DihAtoms>  (1) 
10,11,22,23

>  <DihDeg>  (1) 
-122.8014529259948

$$$$
