
 OpenBabel03272507303D

 32 35  0  0  0  0  0  0  0  0999 V2000
   35.8840   29.2590   49.8510 C   0  0  0  0  0  0  0  0  0  0  0  0
   34.7520   29.5860   50.5080 C   0  0  0  0  0  0  0  0  0  0  0  0
   33.6760   28.9270   49.9150 C   0  0  0  0  0  0  0  0  0  0  0  0
   34.2600   28.1880   48.8640 C   0  0  0  0  0  0  0  0  0  0  0  0
   35.5110   28.4550   48.9270 O   0  0  0  0  0  0  0  0  0  0  0  0
   34.4990   30.2140   51.3490 H   0  0  0  0  0  0  0  0  0  0  0  0
   32.6160   28.9210   50.1380 H   0  0  0  0  0  0  0  0  0  0  0  0
   37.1860   29.7690   50.2030 C   0  0  0  0  0  0  0  0  0  0  0  0
   37.7260   29.3710   51.2440 O   0  0  0  0  0  0  0  0  0  0  0  0
   37.7840   30.7370   49.2890 C   0  0  0  0  0  0  0  0  0  0  0  0
   38.0630   31.9960   49.8450 C   0  0  0  0  0  0  0  0  0  0  0  0
   38.6390   32.9410   48.9910 C   0  0  0  0  0  0  0  0  0  0  0  0
   38.8950   32.6100   47.6980 N   0  0  0  0  0  0  0  0  0  0  0  0
   38.6020   31.3770   47.2170 C   0  0  0  0  0  0  0  0  0  0  0  0
   38.0550   30.4560   48.0050 N   0  0  0  0  0  0  0  0  0  0  0  0
   37.8600   32.2620   50.8710 H   0  0  0  0  0  0  0  0  0  0  0  0
   38.8880   33.9460   49.3380 H   0  0  0  0  0  0  0  0  0  0  0  0
   38.7930   31.0850   46.2000 H   0  0  0  0  0  0  0  0  0  0  0  0
   33.5060   27.3230   47.9500 C   0  0  0  0  0  0  0  0  0  0  0  0
   32.3540   26.9460   48.2730 O   0  0  0  0  0  0  0  0  0  0  0  0
   33.7690   26.7320   46.6610 C   0  0  0  0  0  0  0  0  0  0  0  0
   33.7100   25.3800   46.6120 N   0  0  0  0  0  0  0  0  0  0  0  0
   33.9330   24.6620   45.4740 C   0  0  0  0  0  3  0  0  0  0  0  0
   34.2270   25.3020   44.3380 N   0  0  0  0  0  0  0  0  0  0  0  0
   34.3080   26.6410   44.2760 C   0  0  0  0  0  0  0  0  0  0  0  0
   34.5780   27.3150   43.1070 C   0  0  0  0  0  3  0  0  0  0  0  0
   34.6210   28.6820   43.0600 C   0  0  0  0  0  0  0  0  0  0  0  0
   34.8340   29.2110   42.1440 H   0  0  0  0  0  0  0  0  0  0  0  0
   34.3760   29.3540   44.2560 C   0  0  0  0  0  0  0  0  0  0  0  0
   34.4140   30.4370   44.1950 H   0  0  0  0  0  0  0  0  0  0  0  0
   34.1110   28.6510   45.4060 C   0  0  0  0  0  3  0  0  0  0  0  0
   34.0690   27.2850   45.4630 C   0  0  0  0  0  0  0  0  0  0  0  0
  1  8  1  0  0  0  0
  1  2  2  0  0  0  0
  2  6  1  0  0  0  0
  3  7  1  0  0  0  0
  3  2  1  0  0  0  0
  4  5  1  0  0  0  0
  4  3  2  0  0  0  0
  5  1  1  0  0  0  0
  8  9  2  0  0  0  0
 10 11  1  0  0  0  0
 10  8  1  0  0  0  0
 11 16  1  0  0  0  0
 12 17  1  0  0  0  0
 12 11  2  0  0  0  0
 13 12  1  0  0  0  0
 14 13  2  0  0  0  0
 14 15  1  0  0  0  0
 15 10  2  0  0  0  0
 18 14  1  0  0  0  0
 19 20  2  0  0  0  0
 19  4  1  0  0  0  0
 21 19  1  0  0  0  0
 22 21  1  0  0  0  0
 23 22  2  0  0  0  0
 24 23  1  0  0  0  0
 25 24  2  0  0  0  0
 25 32  1  0  0  0  0
 26 25  1  0  0  0  0
 27 26  2  0  0  0  0
 27 29  1  0  0  0  0
 28 27  1  0  0  0  0
 29 31  2  0  0  0  0
 30 29  1  0  0  0  0
 31 32  1  0  0  0  0
 32 21  2  0  0  0  0
M  END
>  <minimizedAffinity>
-5.27520084

>  <minimizedRMSD>
1.62307167

$$$$
