
 OpenBabel03272504183D

 29 31  0  0  0  0  0  0  0  0999 V2000
   33.9280   30.3120   45.4480 O   0  0  0  0  0  0  0  0  0  0  0  0
   33.5320   29.5860   44.1760 P   0  0  1  0  0  0  0  0  0  0  0  0
   32.4930   28.3040   44.5050 O   0  0  0  0  0  0  0  0  0  0  0  0
   32.2660   27.8860   43.6410 H   0  0  0  0  0  0  0  0  0  0  0  0
   32.7030   30.6410   43.0920 O   0  0  0  0  0  0  0  0  0  0  0  0
   32.7390   32.0150   43.2290 C   0  0  0  0  0  0  0  0  0  0  0  0
   31.8590   32.8110   43.9610 C   0  0  0  0  0  0  0  0  0  0  0  0
   32.0610   34.1750   43.9750 C   0  0  0  0  0  0  0  0  0  0  0  0
   33.1080   34.7130   43.2780 N   0  0  0  0  0  0  0  0  0  0  0  0
   33.9440   33.9110   42.5770 C   0  0  0  0  0  0  0  0  0  0  0  0
   33.7560   32.5650   42.5550 N   0  0  0  0  0  0  0  0  0  0  0  0
   31.3470   34.7410   44.5590 H   0  0  0  0  0  0  0  0  0  0  0  0
   34.7760   34.3680   42.0280 H   0  0  0  0  0  0  0  0  0  0  0  0
   30.8360   32.0970   44.6200 N   0  0  0  0  0  0  0  0  0  0  0  0
   30.1500   31.6830   43.9360 H   0  0  0  0  0  0  0  0  0  0  0  0
   31.1350   32.2390   45.6120 H   0  0  0  0  0  0  0  0  0  0  0  0
   34.9830   29.0830   43.4760 O   0  0  0  0  0  0  0  0  0  0  0  0
   36.1490   29.8260   43.5710 C   0  0  0  0  0  0  0  0  0  0  0  0
   36.2800   31.1080   43.9360 N   0  0  0  0  0  0  0  0  0  0  0  0
   37.4830   31.7070   43.9830 C   0  0  0  0  0  3  0  0  0  0  0  0
   38.6260   31.0330   43.6620 N   0  0  0  0  0  0  0  0  0  0  0  0
   38.5540   29.7280   43.2840 C   0  0  0  0  0  0  0  0  0  0  0  0
   39.7120   29.0330   42.9550 C   0  0  0  0  0  3  0  0  0  0  0  0
   39.6320   27.7000   42.5700 C   0  0  0  0  0  0  0  0  0  0  0  0
   40.5770   27.2480   42.3360 H   0  0  0  0  0  0  0  0  0  0  0  0
   38.3980   27.0720   42.5170 C   0  0  0  0  0  0  0  0  0  0  0  0
   38.3680   26.0510   42.2190 H   0  0  0  0  0  0  0  0  0  0  0  0
   37.2910   27.8180   42.8560 C   0  0  0  0  0  3  0  0  0  0  0  0
   37.3010   29.1390   43.2440 C   0  0  0  0  0  0  0  0  0  0  0  0
  2  3  1  0  0  0  0
  2  1  2  1  0  0  0
  4  3  1  0  0  0  0
  5  6  1  0  0  0  0
  5  2  1  0  0  0  0
  6  7  1  0  0  0  0
  7  8  2  0  0  0  0
  7 14  1  0  0  0  0
  8 12  1  0  0  0  0
  9  8  1  0  0  0  0
 10  9  2  0  0  0  0
 11 10  1  0  0  0  0
 11  6  2  0  0  0  0
 13 10  1  0  0  0  0
 14 16  1  0  0  0  0
 15 14  1  0  0  0  0
 17 18  1  0  0  0  0
 17  2  1  0  0  0  0
 18 19  1  0  0  0  0
 19 20  2  0  0  0  0
 21 20  1  0  0  0  0
 22 21  2  0  0  0  0
 23 22  1  0  0  0  0
 24 23  2  0  0  0  0
 25 24  1  0  0  0  0
 26 24  1  0  0  0  0
 26 28  2  0  0  0  0
 27 26  1  0  0  0  0
 28 29  1  0  0  0  0
 29 22  1  0  0  0  0
 29 18  2  0  0  0  0
M  END
>  <minimizedAffinity>
-3.23452091

>  <minimizedRMSD>
8.33260155

$$$$
