
 OpenBabel03262521523D

 26 28  0  0  0  0  0  0  0  0999 V2000
   34.7210   29.3170   50.1800 C   0  0  0  0  0  0  0  0  0  0  0  0
   34.0430   28.9920   50.9890 H   0  0  0  0  0  0  0  0  0  0  0  0
   34.3460   30.3310   49.8530 H   0  0  0  0  0  0  0  0  0  0  0  0
   36.4180   29.5390   50.7180 S   0  0  0  0  0  0  0  0  0  0  0  0
   37.2250   30.6810   49.6150 C   0  0  0  0  0  0  0  0  0  0  0  0
   37.2600   31.9940   50.0530 C   0  0  0  0  0  0  0  0  0  0  0  0
   37.8790   32.9230   49.2280 C   0  0  0  0  0  0  0  0  0  0  0  0
   38.4260   32.5140   48.0260 N   0  0  0  0  0  0  0  0  0  0  0  0
   38.3550   31.2110   47.6610 C   0  0  0  0  0  0  0  0  0  0  0  0
   37.7690   30.3200   48.4360 N   0  0  0  0  0  0  0  0  0  0  0  0
   36.8490   32.3660   50.9820 H   0  0  0  0  0  0  0  0  0  0  0  0
   37.9630   33.9700   49.4720 H   0  0  0  0  0  0  0  0  0  0  0  0
   38.8090   30.9810   46.7040 H   0  0  0  0  0  0  0  0  0  0  0  0
   34.5830   28.2510   48.7170 S   0  0  0  0  0  0  0  0  0  0  0  0
   33.2670   28.7960   47.6560 C   0  0  0  0  0  0  0  0  0  0  0  0
   33.5910   29.8260   46.8460 N   0  0  0  0  0  0  0  0  0  0  0  0
   32.6820   30.3320   45.9950 C   0  0  0  0  0  0  0  0  0  0  0  0
   31.4380   29.8270   45.9320 N   0  0  0  0  0  0  0  0  0  0  0  0
   31.0800   28.8040   46.7200 C   0  0  0  0  0  0  0  0  0  0  0  0
   29.7900   28.2700   46.6640 C   0  0  0  0  0  0  0  0  0  0  0  0
   29.5120   27.2110   47.5200 C   0  0  0  0  0  0  0  0  0  0  0  0
   28.5000   26.8390   47.4330 H   0  0  0  0  0  0  0  0  0  0  0  0
   30.4470   26.7000   48.3880 C   0  0  0  0  0  0  0  0  0  0  0  0
   30.1720   25.8690   49.0360 H   0  0  0  0  0  0  0  0  0  0  0  0
   31.7310   27.2280   48.4480 C   0  0  0  0  0  0  0  0  0  0  0  0
   31.9910   28.2800   47.5900 C   0  0  0  0  0  0  0  0  0  0  0  0
  1  4  1  0  0  0  0
  1  2  1  0  0  0  0
  3  1  1  0  0  0  0
  5  6  1  0  0  0  0
  5  4  1  0  0  0  0
  6 11  1  0  0  0  0
  7 12  1  0  0  0  0
  7  6  2  0  0  0  0
  8  7  1  0  0  0  0
  9  8  2  0  0  0  0
  9 10  1  0  0  0  0
 10  5  2  0  0  0  0
 13  9  1  0  0  0  0
 14  1  1  0  0  0  0
 15 14  1  0  0  0  0
 16 15  2  0  0  0  0
 17 16  1  0  0  0  0
 18 17  2  0  0  0  0
 18 19  1  0  0  0  0
 19 26  1  0  0  0  0
 20 19  2  0  0  0  0
 20 21  1  0  0  0  0
 21 23  2  0  0  0  0
 22 21  1  0  0  0  0
 23 25  1  0  0  0  0
 23 24  1  0  0  0  0
 26 15  1  0  0  0  0
 26 25  2  0  0  0  0
M  END
>  <minimizedAffinity>
-4.65187693

>  <minimizedRMSD>
3.19902325

$$$$
