
 OpenBabel03272507303D

 32 35  0  0  0  0  0  0  0  0999 V2000
   35.9430   29.4260   49.8240 C   0  0  0  0  0  0  0  0  0  0  0  0
   34.8360   29.8610   50.4600 C   0  0  0  0  0  0  0  0  0  0  0  0
   33.7290   29.1700   49.9690 C   0  0  0  0  0  0  0  0  0  0  0  0
   34.2680   28.2990   48.9990 C   0  0  0  0  0  0  0  0  0  0  0  0
   35.5270   28.5340   49.0060 O   0  0  0  0  0  0  0  0  0  0  0  0
   34.6200   30.5880   51.2280 H   0  0  0  0  0  0  0  0  0  0  0  0
   32.6750   29.2220   50.2120 H   0  0  0  0  0  0  0  0  0  0  0  0
   37.2660   29.9330   50.0900 C   0  0  0  0  0  0  0  0  0  0  0  0
   37.8300   29.6180   51.1460 O   0  0  0  0  0  0  0  0  0  0  0  0
   37.8570   30.7990   49.0740 C   0  0  0  0  0  0  0  0  0  0  0  0
   38.2620   32.0650   49.5250 C   0  0  0  0  0  0  0  0  0  0  0  0
   38.8330   32.9140   48.5720 C   0  0  0  0  0  0  0  0  0  0  0  0
   38.9660   32.4890   47.2890 N   0  0  0  0  0  0  0  0  0  0  0  0
   38.5550   31.2530   46.9100 C   0  0  0  0  0  0  0  0  0  0  0  0
   38.0090   30.4240   47.7940 N   0  0  0  0  0  0  0  0  0  0  0  0
   38.1570   32.4060   50.5430 H   0  0  0  0  0  0  0  0  0  0  0  0
   39.1760   33.9170   48.8340 H   0  0  0  0  0  0  0  0  0  0  0  0
   38.6470   30.8890   45.9030 H   0  0  0  0  0  0  0  0  0  0  0  0
   33.4700   27.3580   48.2040 C   0  0  0  0  0  0  0  0  0  0  0  0
   32.2510   27.2140   48.4680 O   0  0  0  0  0  0  0  0  0  0  0  0
   33.7440   26.4680   47.1040 C   0  0  0  0  0  0  0  0  0  0  0  0
   33.7460   25.1480   47.4030 N   0  0  0  0  0  0  0  0  0  0  0  0
   33.9900   24.1720   46.4810 C   0  0  0  0  0  3  0  0  0  0  0  0
   34.2400   24.5110   45.2130 N   0  0  0  0  0  0  0  0  0  0  0  0
   34.2590   25.7920   44.8090 C   0  0  0  0  0  0  0  0  0  0  0  0
   34.4850   26.1550   43.5010 C   0  0  0  0  0  3  0  0  0  0  0  0
   34.4650   27.4650   43.1060 C   0  0  0  0  0  0  0  0  0  0  0  0
   34.6420   27.7500   42.0800 H   0  0  0  0  0  0  0  0  0  0  0  0
   34.2030   28.4090   44.0950 C   0  0  0  0  0  0  0  0  0  0  0  0
   34.1900   29.4410   43.7590 H   0  0  0  0  0  0  0  0  0  0  0  0
   33.9830   28.0140   45.3930 C   0  0  0  0  0  3  0  0  0  0  0  0
   34.0040   26.7080   45.7980 C   0  0  0  0  0  0  0  0  0  0  0  0
  1  8  1  0  0  0  0
  1  2  2  0  0  0  0
  2  6  1  0  0  0  0
  3  7  1  0  0  0  0
  3  2  1  0  0  0  0
  4  5  1  0  0  0  0
  4  3  2  0  0  0  0
  5  1  1  0  0  0  0
  8  9  2  0  0  0  0
 10 11  1  0  0  0  0
 10  8  1  0  0  0  0
 11 16  1  0  0  0  0
 12 17  1  0  0  0  0
 12 11  2  0  0  0  0
 13 12  1  0  0  0  0
 14 13  2  0  0  0  0
 14 15  1  0  0  0  0
 15 10  2  0  0  0  0
 18 14  1  0  0  0  0
 19 20  2  0  0  0  0
 19  4  1  0  0  0  0
 21 22  1  0  0  0  0
 21 19  1  0  0  0  0
 23 22  2  0  0  0  0
 24 23  1  0  0  0  0
 25 24  2  0  0  0  0
 25 32  1  0  0  0  0
 26 25  1  0  0  0  0
 27 26  2  0  0  0  0
 27 29  1  0  0  0  0
 28 27  1  0  0  0  0
 29 31  2  0  0  0  0
 30 29  1  0  0  0  0
 31 32  1  0  0  0  0
 32 21  2  0  0  0  0
M  END
>  <minimizedAffinity>
-5.35071182

>  <minimizedRMSD>
0.912764013

$$$$
