REMARK  Name = 
REMARK  10 active torsions:
REMARK  status: ('A' for Active; 'I' for Inactive)
REMARK    1  A    between atoms: C_3  and  C_12
REMARK    2  A    between atoms: C_7  and  C_15
REMARK    3  A    between atoms: C_10  and  N_14
REMARK    4  A    between atoms: C_15  and  C_16
REMARK    5  A    between atoms: C_16  and  O_17
REMARK    6  A    between atoms: O_17  and  P_19
REMARK    7  A    between atoms: P_19  and  O_20
REMARK    8  A    between atoms: P_19  and  O_21
REMARK    9  A    between atoms: O_20  and  C_37
REMARK   10  A    between atoms: O_21  and  C_22
REMARK                            x       y       z     vdW  Elec       q    Type
REMARK                         _______ _______ _______ _____ _____    ______ ____
ROOT
ATOM      1  C   UNL     1      34.828  29.419  48.823  0.00  0.00    +0.000 C 
ATOM      2  H   UNL     1      35.729  29.463  49.475  0.00  0.00    +0.000 HD
ATOM      3  H   UNL     1      34.174  30.237  49.248  0.00  0.00    +0.000 HD
ENDROOT
BRANCH   1  10
ATOM      4 CL   UNL     1      37.600  30.462  48.515  0.00  0.00    +0.000 Cl
ATOM      5  C   UNL     1      36.444  30.320  47.188  0.00  0.00    +0.000 A 
ATOM      6  C   UNL     1      36.818  30.703  45.948  0.00  0.00    +0.000 A 
ATOM      7  C   UNL     1      35.925  30.600  44.902  0.00  0.00    +0.000 A 
ATOM      8  C   UNL     1      34.651  30.099  45.151  0.00  0.00    +0.000 A 
ATOM      9  C   UNL     1      34.339  29.721  46.472  0.00  0.00    +0.000 A 
ATOM     10  C   UNL     1      35.201  29.818  47.499  0.00  0.00    +0.000 A 
ATOM     11  H   UNL     1      36.249  30.916  43.903  0.00  0.00    +0.000 HD
ATOM     12  H   UNL     1      34.039  30.060  44.275  0.00  0.00    +0.000 HD
ATOM     13  H   UNL     1      33.364  29.385  46.447  0.00  0.00    +0.000 HD
BRANCH   6  18
ATOM     14  C   UNL     1      39.825  32.836  45.990  0.00  0.00    +0.000 A 
ATOM     15  C   UNL     1      40.688  32.094  45.110  0.00  0.00    +0.000 A 
ATOM     16  C   UNL     1      40.196  30.907  44.551  0.00  0.00    +0.000 A 
ATOM     17  N   UNL     1      38.936  30.508  44.860  0.00  0.00    +0.000 NA
ATOM     18  C   UNL     1      38.148  31.229  45.691  0.00  0.00    +0.000 A 
ATOM     19  N   UNL     1      38.594  32.371  46.242  0.00  0.00    +0.000 NA
ATOM     20  H   UNL     1      40.174  33.742  46.428  0.00  0.00    +0.000 HD
ATOM     21  H   UNL     1      41.646  32.530  44.962  0.00  0.00    +0.000 HD
BRANCH  16  22
ATOM     22  N   UNL     1      41.068  30.216  43.702  0.00  0.00    +0.000 N 
ATOM     23  H   UNL     1      41.575  29.322  43.934  0.00  0.00    +0.000 HD
ATOM     24  H   UNL     1      41.173  30.688  42.781  0.00  0.00    +0.000 HD
ENDBRANCH  16  22
ENDBRANCH   6  18
ENDBRANCH   1  10
BRANCH   1  25
ATOM     25  C   UNL     1      34.179  28.123  49.045  0.00  0.00    +0.000 C 
ATOM     26  H   UNL     1      34.701  27.484  49.818  0.00  0.00    +0.000 HD
ATOM     27  H   UNL     1      34.258  27.525  48.108  0.00  0.00    +0.000 HD
BRANCH  25  28
ATOM     28  O   UNL     1      32.864  28.277  49.396  0.00  0.00    +0.000 OA
BRANCH  28  30
ATOM     29  O   UNL     1      32.659  26.696  47.315  0.00  0.00    +0.000 OA
ATOM     30  P   UNL     1      31.869  27.523  48.299  0.00  0.00    +0.000 P 
BRANCH  30  31
ATOM     31  O   UNL     1      31.031  28.776  47.444  0.00  0.00    +0.000 OA
BRANCH  31  32
ATOM     32  C   UNL     1      30.180  28.375  46.422  0.00  0.00    +0.000 A 
ATOM     33  N   UNL     1      28.836  28.348  46.459  0.00  0.00    +0.000 NA
ATOM     34  C   UNL     1      28.164  27.936  45.389  0.00  0.00    +0.000 A 
ATOM     35  N   UNL     1      28.776  27.539  44.256  0.00  0.00    +0.000 NA
ATOM     36  C   UNL     1      30.123  27.545  44.158  0.00  0.00    +0.000 A 
ATOM     37  C   UNL     1      30.723  27.134  42.985  0.00  0.00    +0.000 A 
ATOM     38  C   UNL     1      32.097  27.153  42.922  0.00  0.00    +0.000 A 
ATOM     39  H   UNL     1      32.697  26.855  42.060  0.00  0.00    +0.000 HD
ATOM     40  C   UNL     1      32.861  27.568  43.994  0.00  0.00    +0.000 A 
ATOM     41  H   UNL     1      33.934  27.599  43.987  0.00  0.00    +0.000 HD
ATOM     42  C   UNL     1      32.226  27.973  45.151  0.00  0.00    +0.000 A 
ATOM     43  C   UNL     1      30.855  27.974  45.269  0.00  0.00    +0.000 A 
ENDBRANCH  31  32
ENDBRANCH  30  31
BRANCH  30  44
ATOM     44  O   UNL     1      30.692  26.593  48.995  0.00  0.00    +0.000 OA
BRANCH  44  45
ATOM     45  C   UNL     1      29.848  27.358  49.765  0.00  0.00    +0.000 C 
ATOM     46  F   UNL     1      29.320  26.649  50.843  0.00  0.00    +0.000 F 
ATOM     47  F   UNL     1      30.505  28.444  50.320  0.00  0.00    +0.000 F 
ATOM     48  F   UNL     1      28.794  27.812  48.987  0.00  0.00    +0.000 F 
ENDBRANCH  44  45
ENDBRANCH  30  44
ENDBRANCH  28  30
ENDBRANCH  25  28
ENDBRANCH   1  25
TORSDOF 10
