
     RDKit          3D

 40 43  0  0  0  0  0  0  0  0999 V2000
   36.4648   29.8932   48.6833 N   0  0  0  0  0  0  0  0  0  0  0  0
   37.5899   30.6556   48.2299 C   0  0  0  0  0  0  0  0  0  0  0  0
   38.1033   31.2872   49.5158 C   0  0  2  0  0  0  0  0  0  0  0  0
   37.1248   30.8924   50.5955 C   0  0  0  0  0  0  0  0  0  0  0  0
   36.7247   29.5277   50.0593 C   0  0  0  0  0  0  0  0  0  0  0  0
   35.2921   29.5452   47.9354 C   0  0  0  0  0  0  0  0  0  0  0  0
   35.2305   30.0024   46.6060 C   0  0  0  0  0  0  0  0  0  0  0  0
   34.0941   29.6665   45.8759 C   0  0  0  0  0  0  0  0  0  0  0  0
   33.1240   28.9195   46.5021 N   0  0  0  0  0  0  0  0  0  0  0  0
   33.2241   28.5082   47.7627 C   0  0  0  0  0  0  0  0  0  0  0  0
   34.3113   28.8216   48.4826 N   0  0  0  0  0  0  0  0  0  0  0  0
   31.9285   27.5388   48.5133 S   0  0  0  0  0  0  0  0  0  0  0  0
   38.2651   32.7779   49.4012 C   0  0  0  0  0  0  0  0  0  0  0  0
   37.0912   33.3403   49.8880 F   0  0  0  0  0  0  0  0  0  0  0  0
   38.3052   33.0851   48.0570 F   0  0  0  0  0  0  0  0  0  0  0  0
   39.3753   33.2523   50.0361 F   0  0  0  0  0  0  0  0  0  0  0  0
   37.3142   31.4456   47.5090 H   0  0  0  0  0  0  0  0  0  0  0  0
   38.3402   29.9965   47.7577 H   0  0  0  0  0  0  0  0  0  0  0  0
   39.0807   30.8339   49.7449 H   0  0  0  0  0  0  0  0  0  0  0  0
   36.2653   31.5546   50.6997 H   0  0  0  0  0  0  0  0  0  0  0  0
   37.6955   30.7075   51.5264 H   0  0  0  0  0  0  0  0  0  0  0  0
   35.7895   29.2355   50.5825 H   0  0  0  0  0  0  0  0  0  0  0  0
   37.5493   28.8077   50.1863 H   0  0  0  0  0  0  0  0  0  0  0  0
   36.0246   30.5881   46.1636 H   0  0  0  0  0  0  0  0  0  0  0  0
   33.9750   29.9804   44.8522 H   0  0  0  0  0  0  0  0  0  0  0  0
   30.6372   27.2942   47.3041 C   0  0  0  0  0  0  0  0  0  0  0  0
   30.4100   25.9875   47.0165 N   0  0  0  0  0  0  0  0  0  0  0  0
   29.4642   25.6298   46.1203 C   0  0  0  0  0  0  0  0  0  0  0  0
   28.7362   26.5724   45.5027 N   0  0  0  0  0  0  0  0  0  0  0  0
   28.9340   27.8957   45.7640 C   0  0  0  0  0  0  0  0  0  0  0  0
   28.2143   28.9177   45.1586 C   0  0  0  0  0  0  0  0  0  0  0  0
   28.4958   30.2351   45.4970 C   0  0  0  0  0  0  0  0  0  0  0  0
   27.8719   30.9337   44.9610 H   0  0  0  0  0  0  0  0  0  0  0  0
   29.4672   30.5689   46.4153 C   0  0  0  0  0  0  0  0  0  0  0  0
   29.6355   31.6037   46.6321 H   0  0  0  0  0  0  0  0  0  0  0  0
   30.2052   29.5644   47.0387 C   0  0  0  0  0  0  0  0  0  0  0  0
   29.8973   28.2700   46.6773 C   0  0  0  0  0  0  0  0  0  0  0  0
   29.2966   24.5711   45.9026 H   0  0  0  0  0  0  0  0  0  0  0  0
   27.4697   28.5924   44.4505 H   0  0  0  0  0  0  0  0  0  0  0  0
   30.9744   29.7924   47.7637 H   0  0  0  0  0  0  0  0  0  0  0  0
  1  5  1  0
  2  1  1  0
  2  3  1  0
  3  4  1  0
  5  4  1  0
  6 11  1  0
  6  1  1  0
  7  6  2  0
  8  9  2  0
  8  7  1  0
  9 10  1  0
 10 11  2  0
 10 12  1  0
 13  3  1  0
 13 14  1  0
 13 16  1  0
 15 13  1  0
  2 17  1  0
  2 18  1  0
  3 19  1  1
  4 20  1  0
  4 21  1  0
  5 22  1  0
  5 23  1  0
  7 24  1  0
  8 25  1  0
 26 27  2  0
 27 28  1  0
 28 29  2  0
 29 30  1  0
 30 31  2  0
 31 32  1  0
 32 33  1  0
 32 34  2  0
 34 35  1  0
 34 36  1  0
 36 37  2  0
 37 26  1  0
 37 30  1  0
 28 38  1  0
 31 39  1  0
 36 40  1  0
 12 26  1  0
M  ISO  8  17  13  18  13  19  13  20  13  21  13  22  13  23  13  24  14
M  ISO  3  25  14  33  16  35  16
M  END
>  <DihAtoms>  (1) 
9,11,25,26

>  <DihDeg>  (1) 
89.6396258490679

$$$$
