
 OpenBabel03272504573D

 36 39  0  0  1  0  0  0  0  0999 V2000
   36.2060   29.9260   49.5840 C   0  0  1  0  0  0  0  0  0  0  0  0
   34.8560   30.3120   49.9220 C   0  0  0  0  0  0  0  0  0  0  0  0
   35.1270   29.5220   48.6800 C   0  0  2  0  0  0  0  0  0  0  0  0
   36.7410   29.0480   50.0860 H   0  0  0  0  0  0  0  0  0  0  0  0
   34.6750   29.9920   50.9330 H   0  0  0  0  0  0  0  0  0  0  0  0
   34.5820   31.3750   49.7730 H   0  0  0  0  0  0  0  0  0  0  0  0
   34.7240   30.0350   47.8240 H   0  0  0  0  0  0  0  0  0  0  0  0
   37.1900   30.9310   49.0510 C   0  0  0  0  0  0  0  0  0  0  0  0
   37.1920   32.1850   49.6850 C   0  0  0  0  0  0  0  0  0  0  0  0
   38.1030   33.0870   49.1810 C   0  0  0  0  0  0  0  0  0  0  0  0
   38.9120   32.7440   48.1550 N   0  0  0  0  0  0  0  0  0  0  0  0
   38.8810   31.5220   47.5710 C   0  0  0  0  0  0  0  0  0  0  0  0
   37.9880   30.5840   48.0340 N   0  0  0  0  0  0  0  0  0  0  0  0
   39.7230   31.1310   46.5240 N   0  0  0  0  0  0  0  0  0  0  0  0
   36.5650   32.4680   50.4910 H   0  0  0  0  0  0  0  0  0  0  0  0
   38.1620   34.0750   49.6190 H   0  0  0  0  0  0  0  0  0  0  0  0
   40.7380   30.8590   46.6840 H   0  0  0  0  0  0  0  0  0  0  0  0
   39.3380   31.1080   45.5600 H   0  0  0  0  0  0  0  0  0  0  0  0
   34.7680   28.1730   48.7390 O   0  0  0  0  0  0  0  0  0  0  0  0
   33.2970   26.3580   47.6530 O   0  0  0  0  0  0  0  0  0  0  0  0
   33.6520   27.8070   47.5580 P   0  0  1  0  0  0  0  0  0  0  0  0
   32.1750   28.6510   47.8930 O   0  0  0  0  0  0  0  0  0  0  0  0
   31.5440   28.2720   47.2330 H   0  0  0  0  0  0  0  0  0  0  0  0
   34.2530   28.2780   46.0640 O   0  0  0  0  0  0  0  0  0  0  0  0
   33.7140   29.1410   45.1590 C   0  0  0  0  0  0  0  0  0  0  0  0
   32.4240   29.1930   44.8260 N   0  0  0  0  0  0  0  0  0  0  0  0
   32.0460   30.1050   43.9130 C   0  0  0  0  0  3  0  0  0  0  0  0
   32.9200   30.9600   43.3300 N   0  0  0  0  0  0  0  0  0  0  0  0
   34.2310   30.9470   43.6310 C   0  0  0  0  0  0  0  0  0  0  0  0
   35.1510   31.8060   43.0540 C   0  0  0  0  0  3  0  0  0  0  0  0
   36.4750   31.7610   43.3880 C   0  0  0  0  0  0  0  0  0  0  0  0
   37.2140   32.4160   42.9560 H   0  0  0  0  0  0  0  0  0  0  0  0
   36.8960   30.8470   44.3120 C   0  0  0  0  0  0  0  0  0  0  0  0
   37.9420   30.7930   44.5930 H   0  0  0  0  0  0  0  0  0  0  0  0
   35.9720   29.9960   44.8820 C   0  0  0  0  0  3  0  0  0  0  0  0
   34.6380   30.0120   44.5730 C   0  0  0  0  0  0  0  0  0  0  0  0
  1  2  1  0  0  0  0
  1  4  1  1  0  0  0
  2  5  1  0  0  0  0
  3  7  1  6  0  0  0
  3 19  1  0  0  0  0
  3  1  1  0  0  0  0
  3  2  1  0  0  0  0
  6  2  1  0  0  0  0
  8  1  1  0  0  0  0
  8  9  1  0  0  0  0
  9 15  1  0  0  0  0
 10 16  1  0  0  0  0
 10  9  2  0  0  0  0
 11 10  1  0  0  0  0
 12 13  1  0  0  0  0
 12 11  2  0  0  0  0
 13  8  2  0  0  0  0
 14 17  1  0  0  0  0
 14 12  1  0  0  0  0
 18 14  1  0  0  0  0
 21 20  2  6  0  0  0
 21 22  1  0  0  0  0
 21 19  1  0  0  0  0
 23 22  1  0  0  0  0
 24 21  1  0  0  0  0
 25 24  1  0  0  0  0
 26 25  1  0  0  0  0
 27 26  2  0  0  0  0
 28 29  2  0  0  0  0
 28 27  1  0  0  0  0
 29 36  1  0  0  0  0
 30 31  2  0  0  0  0
 30 29  1  0  0  0  0
 31 33  1  0  0  0  0
 32 31  1  0  0  0  0
 33 34  1  0  0  0  0
 33 35  2  0  0  0  0
 36 35  1  0  0  0  0
 36 25  2  0  0  0  0
M  END
>  <minimizedAffinity>
-5.53304338

>  <minimizedRMSD>
2.94106269

$$$$
