
 OpenBabel03262522243D

 38 41  0  0  0  0  0  0  0  0999 V2000
   38.1090   30.4020   49.4620 C   0  0  0  0  0  0  0  0  0  0  0  0
   38.0060   31.0820   48.2390 C   0  0  0  0  0  0  0  0  0  0  0  0
   36.8360   30.9000   47.4950 C   0  0  0  0  0  0  0  0  0  0  0  0
   35.8940   30.0830   48.0120 N   0  0  0  0  0  0  0  0  0  0  0  0
   36.0410   29.4620   49.1780 C   0  0  0  0  0  0  0  0  0  0  0  0
   37.1680   29.6040   49.9490 N   0  0  0  0  0  0  0  0  0  0  0  0
   38.9810   30.4680   50.1310 H   0  0  0  0  0  0  0  0  0  0  0  0
   36.7900   31.4360   46.5630 H   0  0  0  0  0  0  0  0  0  0  0  0
   39.0730   31.8600   47.8980 O   0  0  0  0  0  0  0  0  0  0  0  0
   39.5110   31.8240   46.5700 C   0  0  0  0  0  0  0  0  0  0  0  0
   39.8120   30.7030   45.8120 C   0  0  0  0  0  0  0  0  0  0  0  0
   40.2240   30.8410   44.5410 C   0  0  0  0  0  0  0  0  0  0  0  0
   40.3390   32.1150   44.0170 C   0  0  0  0  0  0  0  0  0  0  0  0
   40.0330   33.2340   44.7920 C   0  0  0  0  0  0  0  0  0  0  0  0
   39.6220   33.0520   46.0680 N   0  0  0  0  0  0  0  0  0  0  0  0
   39.6680   29.7740   46.3750 H   0  0  0  0  0  0  0  0  0  0  0  0
   40.4450   29.9480   43.9930 H   0  0  0  0  0  0  0  0  0  0  0  0
   40.6720   32.2120   42.9920 H   0  0  0  0  0  0  0  0  0  0  0  0
   40.1720   34.6110   44.1810 C   0  0  0  0  0  0  0  0  0  0  0  0
   39.8340   34.6090   43.1270 H   0  0  0  0  0  0  0  0  0  0  0  0
   39.6020   35.3050   44.8220 H   0  0  0  0  0  0  0  0  0  0  0  0
   41.2580   34.8360   44.2110 H   0  0  0  0  0  0  0  0  0  0  0  0
   34.5460   28.4630   49.5030 S   0  0  0  0  0  0  0  0  0  0  0  0
   33.5030   28.7440   48.0130 C   0  0  0  0  0  0  0  0  0  0  0  0
   33.0160   29.7330   48.2100 H   0  0  0  0  0  0  0  0  0  0  0  0
   34.1050   28.8650   47.1030 H   0  0  0  0  0  0  0  0  0  0  0  0
   32.4180   27.7550   47.9250 C   0  0  0  0  0  0  0  0  0  0  0  0
   31.2710   27.7580   48.6280 N   0  0  0  0  0  0  0  0  0  0  0  0
   30.3440   26.7730   48.4460 C   0  0  0  0  0  0  0  0  0  0  0  0
   30.5580   25.7800   47.5610 N   0  0  0  0  0  0  0  0  0  0  0  0
   31.6940   25.7460   46.8400 C   0  0  0  0  0  0  0  0  0  0  0  0
   31.9430   24.7270   45.9150 C   0  0  0  0  0  0  0  0  0  0  0  0
   33.1020   24.6870   45.1760 C   0  0  0  0  0  0  0  0  0  0  0  0
   33.3270   23.9090   44.4480 H   0  0  0  0  0  0  0  0  0  0  0  0
   34.0620   25.6680   45.3340 C   0  0  0  0  0  0  0  0  0  0  0  0
   34.9950   25.6810   44.7740 H   0  0  0  0  0  0  0  0  0  0  0  0
   33.7950   26.6500   46.2430 C   0  0  0  0  0  0  0  0  0  0  0  0
   32.6520   26.7420   47.0120 C   0  0  0  0  0  0  0  0  0  0  0  0
  1  6  1  0  0  0  0
  1  7  1  0  0  0  0
  2  1  2  0  0  0  0
  3  4  2  0  0  0  0
  3  2  1  0  0  0  0
  4  5  1  0  0  0  0
  5 23  1  0  0  0  0
  5  6  2  0  0  0  0
  8  3  1  0  0  0  0
  9  2  1  0  0  0  0
 10  9  1  0  0  0  0
 11 16  1  0  0  0  0
 11 10  2  0  0  0  0
 12 11  1  0  0  0  0
 13 12  2  0  0  0  0
 13 14  1  0  0  0  0
 14 15  2  0  0  0  0
 15 10  1  0  0  0  0
 17 12  1  0  0  0  0
 18 13  1  0  0  0  0
 19 22  1  0  0  0  0
 19 14  1  0  0  0  0
 19 21  1  0  0  0  0
 20 19  1  0  0  0  0
 24 25  1  0  0  0  0
 24 23  1  0  0  0  0
 26 24  1  0  0  0  0
 27 24  1  0  0  0  0
 27 28  1  0  0  0  0
 29 28  2  0  0  0  0
 30 29  1  0  0  0  0
 31 38  1  0  0  0  0
 31 30  2  0  0  0  0
 32 31  1  0  0  0  0
 33 35  1  0  0  0  0
 33 32  2  0  0  0  0
 34 33  1  0  0  0  0
 35 37  2  0  0  0  0
 36 35  1  0  0  0  0
 37 38  1  0  0  0  0
 38 27  2  0  0  0  0
M  END
>  <minimizedAffinity>
-5.12188959

>  <minimizedRMSD>
2.3751266

$$$$
