
 OpenBabel03272509473D

 28 30  0  0  0  0  0  0  0  0999 V2000
   32.8310   27.4940   48.3530 C   0  0  0  0  0  0  0  0  0  0  0  0
   33.0530   26.6620   49.0700 H   0  0  0  0  0  0  0  0  0  0  0  0
   33.0870   27.0650   47.3610 H   0  0  0  0  0  0  0  0  0  0  0  0
   31.3950   27.8060   48.4850 C   0  0  0  0  0  0  0  0  0  0  0  0
   30.7800   27.7700   49.6910 N   0  0  0  0  0  0  0  0  0  0  0  0
   29.5020   28.0640   49.8800 C   0  0  0  0  0  3  0  0  0  0  0  0
   28.7330   28.4240   48.8390 N   0  0  0  0  0  0  0  0  0  0  0  0
   29.2370   28.4930   47.6050 C   0  0  0  0  0  0  0  0  0  0  0  0
   28.4180   28.8600   46.5610 C   0  0  0  0  0  3  0  0  0  0  0  0
   29.0000   28.9040   45.3120 C   0  0  0  0  0  0  0  0  0  0  0  0
   28.3510   29.1940   44.4950 H   0  0  0  0  0  0  0  0  0  0  0  0
   30.3350   28.6000   45.0820 C   0  0  0  0  0  0  0  0  0  0  0  0
   30.6970   28.6650   44.0530 H   0  0  0  0  0  0  0  0  0  0  0  0
   31.0960   28.2410   46.1780 C   0  0  0  0  0  3  0  0  0  0  0  0
   30.5670   28.1810   47.4490 C   0  0  0  0  0  0  0  0  0  0  0  0
   33.7160   28.6290   48.7470 C   0  0  0  0  0  0  0  0  0  0  0  0
   33.0860   29.4600   49.1380 H   0  0  0  0  0  0  0  0  0  0  0  0
   34.2180   29.0380   47.8580 H   0  0  0  0  0  0  0  0  0  0  0  0
   34.6490   28.2090   49.7330 O   0  0  0  0  0  0  0  0  0  0  0  0
   37.2360   30.1820   51.3050 C   0  0  0  0  0  0  0  0  0  0  0  0
   37.9210   30.6350   50.1770 C   0  0  0  0  0  0  0  0  0  0  0  0
   37.4570   30.2350   48.9180 C   0  0  0  0  0  0  0  0  0  0  0  0
   36.3550   29.4250   48.8950 N   0  0  0  0  0  0  0  0  0  0  0  0
   35.7270   29.0140   50.0020 C   0  0  0  0  0  0  0  0  0  0  0  0
   36.1820   29.4040   51.2100 N   0  0  0  0  0  0  0  0  0  0  0  0
   37.5770   30.4790   52.2970 H   0  0  0  0  0  0  0  0  0  0  0  0
   38.7850   31.2730   50.2550 H   0  0  0  0  0  0  0  0  0  0  0  0
   37.9450   30.5520   48.0030 H   0  0  0  0  0  0  0  0  0  0  0  0
  1  4  1  0  0  0  0
  1 16  1  0  0  0  0
  1  2  1  0  0  0  0
  3  1  1  0  0  0  0
  4  5  1  0  0  0  0
  5  6  2  0  0  0  0
  7  6  1  0  0  0  0
  8  7  2  0  0  0  0
  9  8  1  0  0  0  0
 10  9  2  0  0  0  0
 11 10  1  0  0  0  0
 12 10  1  0  0  0  0
 12 14  2  0  0  0  0
 13 12  1  0  0  0  0
 14 15  1  0  0  0  0
 15  8  1  0  0  0  0
 15  4  2  0  0  0  0
 16 17  1  0  0  0  0
 16 19  1  0  0  0  0
 18 16  1  0  0  0  0
 19 24  1  0  0  0  0
 20 26  1  0  0  0  0
 21 27  1  0  0  0  0
 21 20  2  0  0  0  0
 22 21  1  0  0  0  0
 23 22  2  0  0  0  0
 23 24  1  0  0  0  0
 24 25  2  0  0  0  0
 25 20  1  0  0  0  0
 28 22  1  0  0  0  0
M  END
>  <minimizedAffinity>
-4.82918215

>  <minimizedRMSD>
3.2555232

$$$$
