
 OpenBabel03272507303D

 32 35  0  0  0  0  0  0  0  0999 V2000
   35.8630   29.2220   49.7250 C   0  0  0  0  0  0  0  0  0  0  0  0
   34.8550   29.5180   50.5710 C   0  0  0  0  0  0  0  0  0  0  0  0
   33.6580   29.0420   50.0380 C   0  0  0  0  0  0  0  0  0  0  0  0
   34.0380   28.4440   48.8180 C   0  0  0  0  0  0  0  0  0  0  0  0
   35.3060   28.6070   48.7490 O   0  0  0  0  0  0  0  0  0  0  0  0
   34.7660   30.0180   51.5250 H   0  0  0  0  0  0  0  0  0  0  0  0
   32.6380   29.0760   50.4000 H   0  0  0  0  0  0  0  0  0  0  0  0
   37.2390   29.5730   49.9700 C   0  0  0  0  0  0  0  0  0  0  0  0
   37.8590   28.9860   50.8670 O   0  0  0  0  0  0  0  0  0  0  0  0
   37.8130   30.6160   49.1260 C   0  0  0  0  0  0  0  0  0  0  0  0
   38.0940   31.8280   49.7760 C   0  0  0  0  0  0  0  0  0  0  0  0
   38.6470   32.8440   48.9910 C   0  0  0  0  0  0  0  0  0  0  0  0
   38.8810   32.6210   47.6710 N   0  0  0  0  0  0  0  0  0  0  0  0
   38.5870   31.4280   47.0970 C   0  0  0  0  0  0  0  0  0  0  0  0
   38.0620   30.4430   47.8180 N   0  0  0  0  0  0  0  0  0  0  0  0
   37.9100   32.0090   50.8240 H   0  0  0  0  0  0  0  0  0  0  0  0
   38.8970   33.8200   49.4130 H   0  0  0  0  0  0  0  0  0  0  0  0
   38.7600   31.2210   46.0570 H   0  0  0  0  0  0  0  0  0  0  0  0
   33.1000   27.7950   47.8940 C   0  0  0  0  0  0  0  0  0  0  0  0
   31.8840   27.7340   48.1960 O   0  0  0  0  0  0  0  0  0  0  0  0
   33.2220   27.1420   46.6140 C   0  0  0  0  0  0  0  0  0  0  0  0
   32.9160   27.9020   45.5350 N   0  0  0  0  0  0  0  0  0  0  0  0
   32.9760   27.4390   44.2540 C   0  0  0  0  0  3  0  0  0  0  0  0
   33.3540   26.1770   44.0240 N   0  0  0  0  0  0  0  0  0  0  0  0
   33.6820   25.3420   45.0220 C   0  0  0  0  0  0  0  0  0  0  0  0
   34.1040   24.0500   44.7990 C   0  0  0  0  0  3  0  0  0  0  0  0
   34.4680   23.2270   45.8300 C   0  0  0  0  0  0  0  0  0  0  0  0
   34.7980   22.2140   45.6570 H   0  0  0  0  0  0  0  0  0  0  0  0
   34.3900   23.7640   47.1130 C   0  0  0  0  0  0  0  0  0  0  0  0
   34.6840   23.0930   47.9150 H   0  0  0  0  0  0  0  0  0  0  0  0
   33.9640   25.0570   47.3010 C   0  0  0  0  0  3  0  0  0  0  0  0
   33.5950   25.8860   46.2790 C   0  0  0  0  0  0  0  0  0  0  0  0
  1  8  1  0  0  0  0
  1  2  2  0  0  0  0
  2  6  1  0  0  0  0
  3  7  1  0  0  0  0
  3  2  1  0  0  0  0
  4  3  2  0  0  0  0
  5  4  1  0  0  0  0
  5  1  1  0  0  0  0
  8  9  2  0  0  0  0
 10 11  1  0  0  0  0
 10  8  1  0  0  0  0
 11 16  1  0  0  0  0
 12 17  1  0  0  0  0
 12 11  2  0  0  0  0
 13 12  1  0  0  0  0
 14 13  2  0  0  0  0
 14 15  1  0  0  0  0
 15 10  2  0  0  0  0
 18 14  1  0  0  0  0
 19 20  2  0  0  0  0
 19  4  1  0  0  0  0
 21 19  1  0  0  0  0
 22 21  2  0  0  0  0
 23 22  1  0  0  0  0
 24 23  2  0  0  0  0
 24 25  1  0  0  0  0
 25 32  1  0  0  0  0
 26 25  2  0  0  0  0
 26 27  1  0  0  0  0
 27 29  2  0  0  0  0
 28 27  1  0  0  0  0
 29 31  1  0  0  0  0
 29 30  1  0  0  0  0
 32 21  1  0  0  0  0
 32 31  2  0  0  0  0
M  END
>  <minimizedAffinity>
-5.36425209

>  <minimizedRMSD>
1.54404724

$$$$
