REMARK  Name = 
REMARK  4 active torsions:
REMARK  status: ('A' for Active; 'I' for Inactive)
REMARK    1  A    between atoms: C_2  and  S_8
REMARK    2  A    between atoms: C_6  and  O_7
REMARK    3  A    between atoms: S_8  and  C_9
REMARK    4  A    between atoms: C_13  and  C_25
REMARK                            x       y       z     vdW  Elec       q    Type
REMARK                         _______ _______ _______ _____ _____    ______ ____
ROOT
ATOM      1  C   UNL     1      37.271  30.758  48.839  0.00  0.00    +0.000 A 
ATOM      2  C   UNL     1      37.219  31.871  49.668  0.00  0.00    +0.000 A 
ATOM      3  C   UNL     1      38.054  32.932  49.353  0.00  0.00    +0.000 A 
ATOM      4  N   UNL     1      38.874  32.838  48.262  0.00  0.00    +0.000 NA
ATOM      5  C   UNL     1      38.909  31.747  47.467  0.00  0.00    +0.000 A 
ATOM      6  N   UNL     1      38.094  30.784  47.826  0.00  0.00    +0.000 NA
ATOM      7  H   UNL     1      36.601  32.016  50.541  0.00  0.00    +0.000 HD
ATOM      8  H   UNL     1      38.062  33.828  49.957  0.00  0.00    +0.000 HD
ENDROOT
BRANCH   5   9
ATOM      9  C   UNL     1      39.852  31.882  46.379  0.00  0.00    +0.000 A 
ATOM     10  N   UNL     1      39.766  32.860  45.442  0.00  0.00    +0.000 NA
ATOM     11  C   UNL     1      40.594  33.033  44.429  0.00  0.00    +0.000 A 
ATOM     12  N   UNL     1      41.649  32.193  44.251  0.00  0.00    +0.000 NA
ATOM     13  C   UNL     1      41.845  31.167  45.129  0.00  0.00    +0.000 A 
ATOM     14  C   UNL     1      42.907  30.323  44.948  0.00  0.00    +0.000 A 
ATOM     15  C   UNL     1      43.123  29.293  45.810  0.00  0.00    +0.000 A 
ATOM     16  H   UNL     1      43.985  28.684  45.583  0.00  0.00    +0.000 HD
ATOM     17  C   UNL     1      42.233  29.146  46.858  0.00  0.00    +0.000 A 
ATOM     18  H   UNL     1      42.429  28.314  47.531  0.00  0.00    +0.000 HD
ATOM     19  C   UNL     1      41.180  30.023  46.995  0.00  0.00    +0.000 A 
ATOM     20  C   UNL     1      40.937  31.071  46.141  0.00  0.00    +0.000 A 
ENDBRANCH   5   9
BRANCH   1  21
ATOM     21  S   UNL     1      36.200  29.422  49.277  0.00  0.00    +0.000 S 
BRANCH  21  23
ATOM     22  N   UNL     1      33.591  28.714  49.033  0.00  0.00    +0.000 NA
ATOM     23  C   UNL     1      34.439  29.875  48.936  0.00  0.00    +0.000 C 
ATOM     24  C   UNL     1      34.373  30.390  47.509  0.00  0.00    +0.000 C 
ATOM     25  O   UNL     1      33.249  29.859  46.834  0.00  0.00    +0.000 OA
ATOM     26  C   UNL     1      33.555  28.496  46.652  0.00  0.00    +0.000 C 
ATOM     27  C   UNL     1      33.920  27.822  47.952  0.00  0.00    +0.000 C 
ATOM     28  H   UNL     1      32.618  29.038  48.993  0.00  0.00    +0.000 HD
ATOM     29  H   UNL     1      34.196  30.671  49.664  0.00  0.00    +0.000 HD
ATOM     30  H   UNL     1      34.308  31.493  47.536  0.00  0.00    +0.000 HD
ATOM     31  H   UNL     1      35.267  30.054  46.948  0.00  0.00    +0.000 HD
ATOM     32  H   UNL     1      32.744  27.966  46.114  0.00  0.00    +0.000 HD
ATOM     33  H   UNL     1      34.455  28.477  46.002  0.00  0.00    +0.000 HD
ATOM     34  H   UNL     1      34.980  27.534  48.001  0.00  0.00    +0.000 HD
BRANCH  27  35
ATOM     35  O   UNL     1      33.178  26.631  48.123  0.00  0.00    +0.000 OA
ATOM     36  H   UNL     1      32.242  26.817  48.373  0.00  0.00    +0.000 HD
ENDBRANCH  27  35
ENDBRANCH  21  23
ENDBRANCH   1  21
TORSDOF 4
