REMARK  Name = 
REMARK  1 active torsions:
REMARK  status: ('A' for Active; 'I' for Inactive)
REMARK    1  A    between atoms: C_3  and  C_12
REMARK                            x       y       z     vdW  Elec       q    Type
REMARK                         _______ _______ _______ _____ _____    ______ ____
ROOT
ATOM      1  C   UNL     1      38.599  31.012  48.060  0.00  0.00    +0.000 A 
ATOM      2  N   UNL     1      39.320  30.265  47.194  0.00  0.00    +0.000 NA
ATOM      3  C   UNL     1      40.143  30.757  46.264  0.00  0.00    +0.000 A 
ATOM      4  N   UNL     1      40.322  32.081  46.114  0.00  0.00    +0.000 NA
ATOM      5  C   UNL     1      39.645  32.927  46.932  0.00  0.00    +0.000 A 
ATOM      6  C   UNL     1      39.816  34.286  46.792  0.00  0.00    +0.000 A 
ATOM      7  C   UNL     1      39.140  35.167  47.611  0.00  0.00    +0.000 A 
ATOM      8  H   UNL     1      39.362  36.204  47.398  0.00  0.00    +0.000 HD
ATOM      9  C   UNL     1      38.290  34.605  48.570  0.00  0.00    +0.000 A 
ATOM     10  H   UNL     1      37.792  35.364  49.178  0.00  0.00    +0.000 HD
ATOM     11  C   UNL     1      38.162  33.255  48.661  0.00  0.00    +0.000 A 
ATOM     12  C   UNL     1      38.811  32.361  47.873  0.00  0.00    +0.000 A 
ENDROOT
BRANCH   1  15
ATOM     13  C   UNL     1      37.310  30.216  51.423  0.00  0.00    +0.000 A 
ATOM     14  C   UNL     1      38.067  30.730  50.372  0.00  0.00    +0.000 A 
ATOM     15  C   UNL     1      37.739  30.418  49.029  0.00  0.00    +0.000 A 
ATOM     16  N   UNL     1      36.665  29.612  48.946  0.00  0.00    +0.000 NA
ATOM     17  C   UNL     1      35.938  29.118  49.925  0.00  0.00    +0.000 A 
ATOM     18  N   UNL     1      36.257  29.420  51.196  0.00  0.00    +0.000 NA
ATOM     19  N   UNL     1      34.866  28.298  49.509  0.00  0.00    +0.000 N 
ATOM     20  H   UNL     1      37.567  30.459  52.439  0.00  0.00    +0.000 HD
ATOM     21  H   UNL     1      38.884  31.351  50.626  0.00  0.00    +0.000 HD
ATOM     22  H   UNL     1      35.209  27.342  49.313  0.00  0.00    +0.000 HD
ATOM     23  H   UNL     1      33.880  28.636  49.421  0.00  0.00    +0.000 HD
ENDBRANCH   1  15
TORSDOF 1
