
 OpenBabel03272506073D

 33 36  0  0  0  0  0  0  0  0999 V2000
   33.6800   28.5710   48.2850 C   0  0  0  0  0  0  0  0  0  0  0  0
   33.6920   29.4730   47.1580 C   0  0  0  0  0  0  0  0  0  0  0  0
   32.1410   29.0290   46.4050 S   0  0  0  0  0  0  0  0  0  0  0  0
   31.7050   27.7270   47.6810 C   0  0  0  0  0  0  0  0  0  0  0  0
   32.6480   27.7870   48.4020 N   0  0  0  0  0  0  0  0  0  0  0  0
   34.4460   30.1820   46.9010 H   0  0  0  0  0  0  0  0  0  0  0  0
   30.4050   27.0730   47.4070 C   0  0  0  0  0  0  0  0  0  0  0  0
   30.1760   26.1250   46.4790 N   0  0  0  0  0  0  0  0  0  0  0  0
   28.9730   25.5720   46.2790 C   0  0  0  0  0  3  0  0  0  0  0  0
   27.9110   25.9410   47.0090 N   0  0  0  0  0  0  0  0  0  0  0  0
   28.0410   26.8810   47.9600 C   0  0  0  0  0  0  0  0  0  0  0  0
   26.9340   27.2450   48.6960 C   0  0  0  0  0  3  0  0  0  0  0  0
   27.0780   28.2140   49.6750 C   0  0  0  0  0  0  0  0  0  0  0  0
   26.2000   28.4880   50.2430 H   0  0  0  0  0  0  0  0  0  0  0  0
   28.3500   28.7700   49.8540 C   0  0  0  0  0  0  0  0  0  0  0  0
   28.3310   29.5150   50.6470 H   0  0  0  0  0  0  0  0  0  0  0  0
   29.4310   28.3770   49.0940 C   0  0  0  0  0  3  0  0  0  0  0  0
   29.2950   27.4270   48.1350 C   0  0  0  0  0  0  0  0  0  0  0  0
   34.8480   28.6100   49.2240 C   0  0  0  0  0  0  0  0  0  0  0  0
   35.8000   28.3940   48.6550 H   0  0  0  0  0  0  0  0  0  0  0  0
   34.7840   27.7750   49.9520 H   0  0  0  0  0  0  0  0  0  0  0  0
   34.9850   29.9050   49.9270 C   0  0  0  0  0  0  0  0  0  0  0  0
   34.0840   30.5610   49.8630 H   0  0  0  0  0  0  0  0  0  0  0  0
   35.1560   29.7360   51.0300 H   0  0  0  0  0  0  0  0  0  0  0  0
   37.6790   32.4170   49.5530 C   0  0  0  0  0  0  0  0  0  0  0  0
   38.4760   31.8720   48.5490 C   0  0  0  0  0  0  0  0  0  0  0  0
   38.0760   30.6440   48.0120 C   0  0  0  0  0  0  0  0  0  0  0  0
   36.9550   30.0390   48.4730 N   0  0  0  0  0  0  0  0  0  0  0  0
   36.2180   30.6280   49.4600 C   0  0  0  0  0  0  0  0  0  0  0  0
   36.5760   31.7970   49.9890 N   0  0  0  0  0  0  0  0  0  0  0  0
   37.9460   33.3660   49.9990 H   0  0  0  0  0  0  0  0  0  0  0  0
   39.3690   32.3700   48.1930 H   0  0  0  0  0  0  0  0  0  0  0  0
   38.6530   30.1890   47.2440 H   0  0  0  0  0  0  0  0  0  0  0  0
  1  5  1  0  0  0  0
  1 19  1  0  0  0  0
  2  1  2  0  0  0  0
  3  2  1  0  0  0  0
  3  4  1  0  0  0  0
  4  5  2  0  0  0  0
  6  2  1  0  0  0  0
  7  4  1  0  0  0  0
  7 18  1  0  0  0  0
  8  7  2  0  0  0  0
  9  8  1  0  0  0  0
  9 10  2  0  0  0  0
 10 11  1  0  0  0  0
 11 18  2  0  0  0  0
 11 12  1  0  0  0  0
 12 13  2  0  0  0  0
 13 15  1  0  0  0  0
 13 14  1  0  0  0  0
 15 16  1  0  0  0  0
 17 15  2  0  0  0  0
 18 17  1  0  0  0  0
 19 22  1  0  0  0  0
 19 21  1  0  0  0  0
 20 19  1  0  0  0  0
 22 24  1  0  0  0  0
 23 22  1  0  0  0  0
 25 30  1  0  0  0  0
 25 31  1  0  0  0  0
 26 25  2  0  0  0  0
 27 28  2  0  0  0  0
 27 26  1  0  0  0  0
 28 29  1  0  0  0  0
 29 22  1  0  0  0  0
 29 30  2  0  0  0  0
 32 26  1  0  0  0  0
 33 27  1  0  0  0  0
M  END
>  <minimizedAffinity>
-5.84873199

>  <minimizedRMSD>
1.54140711

$$$$
