
 OpenBabel03272506073D

 33 36  0  0  0  0  0  0  0  0999 V2000
   33.8950   28.8450   48.0100 C   0  0  0  0  0  0  0  0  0  0  0  0
   33.8870   29.8480   46.9730 C   0  0  0  0  0  0  0  0  0  0  0  0
   32.2900   29.5220   46.2560 S   0  0  0  0  0  0  0  0  0  0  0  0
   31.8680   28.1190   47.4240 C   0  0  0  0  0  0  0  0  0  0  0  0
   32.8440   28.0830   48.1030 N   0  0  0  0  0  0  0  0  0  0  0  0
   34.6520   30.5550   46.7460 H   0  0  0  0  0  0  0  0  0  0  0  0
   30.5360   27.5320   47.1530 C   0  0  0  0  0  0  0  0  0  0  0  0
   30.0810   27.1230   45.9550 N   0  0  0  0  0  0  0  0  0  0  0  0
   28.8620   26.5990   45.7750 C   0  0  0  0  0  3  0  0  0  0  0  0
   28.0130   26.4510   46.8010 N   0  0  0  0  0  0  0  0  0  0  0  0
   28.3780   26.8310   48.0380 C   0  0  0  0  0  0  0  0  0  0  0  0
   27.4870   26.6680   49.0760 C   0  0  0  0  0  3  0  0  0  0  0  0
   27.8720   27.0630   50.3460 C   0  0  0  0  0  0  0  0  0  0  0  0
   27.1610   26.9290   51.1510 H   0  0  0  0  0  0  0  0  0  0  0  0
   29.1540   27.6070   50.4960 C   0  0  0  0  0  0  0  0  0  0  0  0
   29.3330   27.8750   51.5350 H   0  0  0  0  0  0  0  0  0  0  0  0
   30.0130   27.7500   49.4290 C   0  0  0  0  0  3  0  0  0  0  0  0
   29.6400   27.3650   48.1820 C   0  0  0  0  0  0  0  0  0  0  0  0
   35.1040   28.7610   48.8920 C   0  0  0  0  0  0  0  0  0  0  0  0
   36.0310   28.6430   48.2560 H   0  0  0  0  0  0  0  0  0  0  0  0
   35.0790   27.8270   49.4910 H   0  0  0  0  0  0  0  0  0  0  0  0
   35.2650   29.9400   49.7710 C   0  0  0  0  0  0  0  0  0  0  0  0
   34.3450   30.5640   49.8770 H   0  0  0  0  0  0  0  0  0  0  0  0
   35.5300   29.6150   50.8190 H   0  0  0  0  0  0  0  0  0  0  0  0
   37.7750   32.6480   49.4970 C   0  0  0  0  0  0  0  0  0  0  0  0
   38.5860   32.2170   48.4500 C   0  0  0  0  0  0  0  0  0  0  0  0
   38.2590   30.9970   47.8510 C   0  0  0  0  0  0  0  0  0  0  0  0
   37.1900   30.2910   48.2940 N   0  0  0  0  0  0  0  0  0  0  0  0
   36.4360   30.7710   49.3260 C   0  0  0  0  0  0  0  0  0  0  0  0
   36.7250   31.9300   49.9150 N   0  0  0  0  0  0  0  0  0  0  0  0
   37.9860   33.5860   49.9930 H   0  0  0  0  0  0  0  0  0  0  0  0
   39.4350   32.7950   48.1090 H   0  0  0  0  0  0  0  0  0  0  0  0
   38.8490   30.6270   47.0470 H   0  0  0  0  0  0  0  0  0  0  0  0
  1  5  1  0  0  0  0
  1 19  1  0  0  0  0
  2  1  2  0  0  0  0
  3  2  1  0  0  0  0
  3  4  1  0  0  0  0
  4  5  2  0  0  0  0
  6  2  1  0  0  0  0
  7  4  1  0  0  0  0
  7 18  1  0  0  0  0
  8  7  2  0  0  0  0
  9  8  1  0  0  0  0
  9 10  2  0  0  0  0
 10 11  1  0  0  0  0
 11 18  2  0  0  0  0
 11 12  1  0  0  0  0
 12 13  2  0  0  0  0
 13 15  1  0  0  0  0
 13 14  1  0  0  0  0
 15 16  1  0  0  0  0
 17 15  2  0  0  0  0
 18 17  1  0  0  0  0
 19 21  1  0  0  0  0
 19 22  1  0  0  0  0
 20 19  1  0  0  0  0
 22 23  1  0  0  0  0
 22 24  1  0  0  0  0
 25 30  1  0  0  0  0
 25 31  1  0  0  0  0
 26 25  2  0  0  0  0
 27 28  2  0  0  0  0
 27 26  1  0  0  0  0
 28 29  1  0  0  0  0
 29 22  1  0  0  0  0
 29 30  2  0  0  0  0
 32 26  1  0  0  0  0
 33 27  1  0  0  0  0
M  END
>  <minimizedAffinity>
-5.93502712

>  <minimizedRMSD>
1.81272364

$$$$
