
     RDKit          3D

 45 49  0  0  0  0  0  0  0  0999 V2000
   34.3254   30.4573   47.6048 F   0  0  0  0  0  0  0  0  0  0  0  0
   34.7446   29.9892   46.3877 C   0  0  0  0  0  0  0  0  0  0  0  0
   33.8813   29.3633   45.4920 C   0  0  0  0  0  0  0  0  0  0  0  0
   34.3685   28.9351   44.2852 C   0  0  0  0  0  0  0  0  0  0  0  0
   35.7161   29.1235   43.9551 C   0  0  0  0  0  0  0  0  0  0  0  0
   36.5255   29.7493   44.8817 C   0  0  0  0  0  0  0  0  0  0  0  0
   36.0886   30.1837   46.0758 C   0  0  0  0  0  0  0  0  0  0  0  0
   37.9780   32.4269   44.9654 Br  0  0  0  0  0  0  0  0  0  0  0  0
   37.8844   31.8454   46.7771 C   0  0  0  0  0  0  0  0  0  0  0  0
   36.9955   30.8235   47.0081 C   0  0  0  0  0  0  0  0  0  0  0  0
   36.9016   30.3147   48.3160 C   0  0  0  0  0  0  0  0  0  0  0  0
   37.6627   30.8192   49.3129 C   0  0  0  0  0  0  0  0  0  0  0  0
   38.5359   31.8448   49.0266 C   0  0  0  0  0  0  0  0  0  0  0  0
   38.6608   32.3815   47.7325 C   0  0  0  0  0  0  0  0  0  0  0  0
   39.4944   33.3927   47.3673 O   0  0  0  0  0  0  0  0  0  0  0  0
   32.2585   28.2009   46.8377 C   0  0  0  0  0  0  0  0  0  0  0  0
   32.5258   29.2292   45.9518 C   0  0  0  0  0  0  0  0  0  0  0  0
   31.4792   30.0552   45.6042 C   0  0  0  0  0  0  0  0  0  0  0  0
   30.2432   29.8504   46.1250 N   0  0  0  0  0  0  0  0  0  0  0  0
   30.0135   28.8672   46.9677 C   0  0  0  0  0  0  0  0  0  0  0  0
   30.9916   28.0592   47.3182 N   0  0  0  0  0  0  0  0  0  0  0  0
   33.6648   28.4565   43.6246 H   0  0  0  0  0  0  0  0  0  0  0  0
   36.0670   28.7716   42.9895 H   0  0  0  0  0  0  0  0  0  0  0  0
   37.5506   29.8591   44.5570 H   0  0  0  0  0  0  0  0  0  0  0  0
   36.2297   29.5106   48.5847 H   0  0  0  0  0  0  0  0  0  0  0  0
   37.6442   30.4794   50.3371 H   0  0  0  0  0  0  0  0  0  0  0  0
   39.1680   32.2839   49.7941 H   0  0  0  0  0  0  0  0  0  0  0  0
   40.0003   33.9146   48.0788 H   0  0  0  0  0  0  0  0  0  0  0  0
   33.0722   27.5198   47.1359 H   0  0  0  0  0  0  0  0  0  0  0  0
   31.6395   30.8665   44.9176 H   0  0  0  0  0  0  0  0  0  0  0  0
   28.7738   28.4588   47.6541 C   0  0  0  0  0  0  0  0  0  0  0  0
   28.2128   29.0929   48.7040 N   0  0  0  0  0  0  0  0  0  0  0  0
   27.1033   28.7416   49.3305 C   0  0  0  0  0  0  0  0  0  0  0  0
   26.4079   27.6612   48.9467 N   0  0  0  0  0  0  0  0  0  0  0  0
   26.8679   26.9381   47.9023 C   0  0  0  0  0  0  0  0  0  0  0  0
   26.1379   25.8445   47.5356 C   0  0  0  0  0  0  0  0  0  0  0  0
   26.5557   25.0671   46.4783 C   0  0  0  0  0  0  0  0  0  0  0  0
   25.9421   24.2159   46.2314 H   0  0  0  0  0  0  0  0  0  0  0  0
   27.7179   25.4447   45.8304 C   0  0  0  0  0  0  0  0  0  0  0  0
   28.0037   24.8031   45.0079 H   0  0  0  0  0  0  0  0  0  0  0  0
   28.4107   26.5591   46.2474 C   0  0  0  0  0  0  0  0  0  0  0  0
   28.0278   27.3599   47.2963 C   0  0  0  0  0  0  0  0  0  0  0  0
   26.9010   29.4518   50.1440 H   0  0  0  0  0  0  0  0  0  0  0  0
   25.2185   25.5755   48.0749 H   0  0  0  0  0  0  0  0  0  0  0  0
   29.2764   26.7288   45.6643 H   0  0  0  0  0  0  0  0  0  0  0  0
  2  1  1  0
  3 17  1  0
  3  2  2  0
  4  3  1  0
  5  4  2  0
  5  6  1  0
  6  7  2  0
  7  2  1  0
  7 10  1  0
  8  9  1  0
  9 10  2  0
  9 14  1  0
 10 11  1  0
 11 12  2  0
 13 12  1  0
 14 13  2  0
 15 14  1  0
 16 21  2  0
 17 16  1  0
 18 17  2  0
 18 19  1  0
 19 20  2  0
 20 21  1  0
  4 22  1  0
  5 23  1  0
  6 24  1  0
 11 25  1  0
 12 26  1  0
 13 27  1  0
 15 28  1  0
 16 29  1  0
 18 30  1  0
 31 32  2  0
 32 33  1  0
 33 34  2  0
 34 35  1  0
 35 36  2  0
 36 37  1  0
 37 38  1  0
 37 39  2  0
 39 40  1  0
 39 41  1  0
 41 42  2  0
 42 31  1  0
 42 35  1  0
 33 43  1  0
 36 44  1  0
 41 45  1  0
 20 31  1  0
M  ISO  8  22  14  23  14  24  14  25  14  26  14  27  14  28   3  29  14
M  ISO  3  30  14  38  16  40  16
M  END
>  <DihAtoms>  (1) 
18,19,30,31

>  <DihDeg>  (1) 
179.98107684226517

$$$$
