
 OpenBabel03272503353D

 44 48  0  0  1  0  0  0  0  0999 V2000
   40.1440   25.0640   34.2720 C   0  0  0  0  0  0  0  0  0  0  0  0
   41.3360   25.7200   34.6200 C   0  0  0  0  0  0  0  0  0  0  0  0
   41.7340   26.7840   33.8030 C   0  0  0  0  0  0  0  0  0  0  0  0
   40.9290   27.1020   32.7280 N   0  0  0  0  0  0  0  0  0  0  0  0
   39.8060   26.4470   32.4420 C   0  0  0  0  0  0  0  0  0  0  0  0
   39.4000   25.4200   33.2100 N   0  0  0  0  0  0  0  0  0  0  0  0
   41.9560   25.4750   35.4470 H   0  0  0  0  0  0  0  0  0  0  0  0
   42.6290   27.3450   33.9890 H   0  0  0  0  0  0  0  0  0  0  0  0
   39.7300   23.9690   35.1090 N   0  0  0  0  0  0  0  0  0  0  0  0
   40.1260   23.7300   36.4650 C   0  0  0  0  0  0  0  0  0  0  0  0
   38.9210   22.9710   37.0240 C   0  0  2  0  0  0  0  0  0  0  0  0
   37.8670   22.9690   35.9220 C   0  0  0  0  0  0  0  0  0  0  0  0
   38.8300   22.8930   34.7400 C   0  0  0  0  0  0  0  0  0  0  0  0
   40.3300   24.6420   37.0380 H   0  0  0  0  0  0  0  0  0  0  0  0
   40.9980   23.0400   36.4790 H   0  0  0  0  0  0  0  0  0  0  0  0
   39.1660   21.9070   37.2330 H   0  0  0  0  0  0  0  0  0  0  0  0
   37.3050   23.9050   35.8610 H   0  0  0  0  0  0  0  0  0  0  0  0
   37.2370   22.0810   35.9970 H   0  0  0  0  0  0  0  0  0  0  0  0
   39.3230   21.9070   34.7910 H   0  0  0  0  0  0  0  0  0  0  0  0
   38.2770   23.0740   33.8220 H   0  0  0  0  0  0  0  0  0  0  0  0
   38.4100   23.5920   38.2930 C   0  0  0  0  0  0  0  0  0  0  0  0
   37.2880   22.8720   38.6580 F   0  0  0  0  0  0  0  0  0  0  0  0
   37.9760   24.8620   37.9960 F   0  0  0  0  0  0  0  0  0  0  0  0
   39.3450   23.6130   39.2980 F   0  0  0  0  0  0  0  0  0  0  0  0
   38.8210   26.9150   31.0380 S   0  0  0  0  0  0  0  0  0  0  0  0
   37.5650   28.0130   31.2740 C   0  0  0  0  0  0  0  0  0  0  0  0
   36.9000   29.0430   30.6850 C   0  0  0  0  0  0  0  0  0  0  0  0
   35.8550   29.7400   31.2280 C   0  0  0  0  0  0  0  0  0  0  0  0
   35.4880   29.2570   32.5810 C   0  0  0  0  0  0  0  0  0  0  0  0
   36.6520   27.9010   32.8950 S   0  0  0  0  0  0  0  0  0  0  0  0
   37.3500   29.2030   29.7160 H   0  0  0  0  0  0  0  0  0  0  0  0
   35.3990   30.5010   30.6600 H   0  0  0  0  0  0  0  0  0  0  0  0
   34.4770   29.6000   33.4680 C   0  0  0  0  0  0  0  0  0  0  0  0
   33.2220   29.1620   33.1260 N   0  0  0  0  0  0  0  0  0  0  0  0
   32.1120   29.4890   33.8010 C   0  0  0  0  0  3  0  0  0  0  0  0
   32.1330   30.2820   34.8850 N   0  0  0  0  0  0  0  0  0  0  0  0
   33.3080   30.7690   35.3160 C   0  0  0  0  0  0  0  0  0  0  0  0
   33.4540   31.5640   36.4320 C   0  0  0  0  0  3  0  0  0  0  0  0
   34.7020   32.0210   36.8670 C   0  0  0  0  0  0  0  0  0  0  0  0
   34.7410   32.6480   37.7580 H   0  0  0  0  0  0  0  0  0  0  0  0
   35.8100   31.6290   36.1080 C   0  0  0  0  0  0  0  0  0  0  0  0
   36.7530   32.0040   36.4820 H   0  0  0  0  0  0  0  0  0  0  0  0
   35.6250   30.8390   35.0060 C   0  0  0  0  0  3  0  0  0  0  0  0
   34.4060   30.3960   34.5800 C   0  0  0  0  0  0  0  0  0  0  0  0
  1  2  1  0  0  0  0
  1  9  1  0  0  0  0
  2  7  1  0  0  0  0
  3  8  1  0  0  0  0
  3  2  2  0  0  0  0
  4  3  1  0  0  0  0
  5  4  2  0  0  0  0
  5  6  1  0  0  0  0
  6  1  2  0  0  0  0
  9 10  1  0  0  0  0
 10 15  1  0  0  0  0
 10 11  1  0  0  0  0
 10 14  1  0  0  0  0
 11 16  1  1  0  0  0
 11 21  1  0  0  0  0
 12 18  1  0  0  0  0
 12 11  1  0  0  0  0
 13 19  1  0  0  0  0
 13  9  1  0  0  0  0
 13 12  1  0  0  0  0
 17 12  1  0  0  0  0
 20 13  1  0  0  0  0
 21 22  1  0  0  0  0
 21 24  1  0  0  0  0
 23 21  1  0  0  0  0
 25 26  1  0  0  0  0
 25  5  1  0  0  0  0
 26 30  1  0  0  0  0
 27 28  1  0  0  0  0
 27 26  2  0  0  0  0
 28 29  2  0  0  0  0
 29 30  1  0  0  0  0
 29 33  1  0  0  0  0
 31 27  1  0  0  0  0
 32 28  1  0  0  0  0
 33 44  1  0  0  0  0
 34 33  2  0  0  0  0
 34 35  1  0  0  0  0
 35 36  2  0  0  0  0
 36 37  1  0  0  0  0
 37 38  1  0  0  0  0
 38 39  2  0  0  0  0
 39 40  1  0  0  0  0
 41 42  1  0  0  0  0
 41 39  1  0  0  0  0
 43 41  2  0  0  0  0
 44 43  1  0  0  0  0
 44 37  2  0  0  0  0
M  END
>  <minimizedAffinity>
-7.09162855

$$$$

 OpenBabel03272503353D

 44 48  0  0  1  0  0  0  0  0999 V2000
   38.4640   23.8240   33.1140 C   0  0  0  0  0  0  0  0  0  0  0  0
   37.6700   22.7980   32.5780 C   0  0  0  0  0  0  0  0  0  0  0  0
   37.0190   23.0690   31.3690 C   0  0  0  0  0  0  0  0  0  0  0  0
   37.2080   24.3150   30.8050 N   0  0  0  0  0  0  0  0  0  0  0  0
   37.9740   25.2540   31.3560 C   0  0  0  0  0  0  0  0  0  0  0  0
   38.6120   25.0200   32.5180 N   0  0  0  0  0  0  0  0  0  0  0  0
   37.5240   21.8400   33.0120 H   0  0  0  0  0  0  0  0  0  0  0  0
   36.3910   22.3490   30.8830 H   0  0  0  0  0  0  0  0  0  0  0  0
   39.1370   23.5490   34.3570 N   0  0  0  0  0  0  0  0  0  0  0  0
   39.2640   24.4340   35.4760 C   0  0  0  0  0  0  0  0  0  0  0  0
   39.3700   23.4580   36.6500 C   0  0  2  0  0  0  0  0  0  0  0  0
   39.1550   22.0650   36.0690 C   0  0  0  0  0  0  0  0  0  0  0  0
   39.8160   22.3190   34.7170 C   0  0  0  0  0  0  0  0  0  0  0  0
   38.4200   25.1230   35.5990 H   0  0  0  0  0  0  0  0  0  0  0  0
   40.2270   24.9840   35.4040 H   0  0  0  0  0  0  0  0  0  0  0  0
   40.3880   23.4630   37.0970 H   0  0  0  0  0  0  0  0  0  0  0  0
   38.1000   21.8240   35.9060 H   0  0  0  0  0  0  0  0  0  0  0  0
   39.6930   21.3180   36.6560 H   0  0  0  0  0  0  0  0  0  0  0  0
   40.8910   22.4830   34.9120 H   0  0  0  0  0  0  0  0  0  0  0  0
   39.6010   21.4840   34.0550 H   0  0  0  0  0  0  0  0  0  0  0  0
   38.3800   23.7780   37.7330 C   0  0  0  0  0  0  0  0  0  0  0  0
   38.0690   25.1180   37.5970 F   0  0  0  0  0  0  0  0  0  0  0  0
   39.0220   23.6500   38.9420 F   0  0  0  0  0  0  0  0  0  0  0  0
   37.2570   22.9920   37.6860 F   0  0  0  0  0  0  0  0  0  0  0  0
   38.1690   26.8360   30.5700 S   0  0  0  0  0  0  0  0  0  0  0  0
   37.1010   28.0720   30.9850 C   0  0  0  0  0  0  0  0  0  0  0  0
   36.6110   29.2690   30.5650 C   0  0  0  0  0  0  0  0  0  0  0  0
   35.6860   30.0330   31.2220 C   0  0  0  0  0  0  0  0  0  0  0  0
   35.2390   29.4210   32.4960 C   0  0  0  0  0  0  0  0  0  0  0  0
   36.1720   27.8680   32.5890 S   0  0  0  0  0  0  0  0  0  0  0  0
   37.0860   29.4960   29.6220 H   0  0  0  0  0  0  0  0  0  0  0  0
   35.3600   30.9320   30.7790 H   0  0  0  0  0  0  0  0  0  0  0  0
   34.2900   29.7850   33.4410 C   0  0  0  0  0  0  0  0  0  0  0  0
   33.0000   29.4170   33.1500 N   0  0  0  0  0  0  0  0  0  0  0  0
   31.9410   29.7760   33.8880 C   0  0  0  0  0  3  0  0  0  0  0  0
   32.0530   30.5350   34.9910 N   0  0  0  0  0  0  0  0  0  0  0  0
   33.2690   30.9530   35.3750 C   0  0  0  0  0  0  0  0  0  0  0  0
   33.5070   31.7080   36.5050 C   0  0  0  0  0  3  0  0  0  0  0  0
   34.7950   32.0920   36.8890 C   0  0  0  0  0  0  0  0  0  0  0  0
   34.9070   32.6900   37.7940 H   0  0  0  0  0  0  0  0  0  0  0  0
   35.8460   31.6710   36.0660 C   0  0  0  0  0  0  0  0  0  0  0  0
   36.8220   31.9900   36.4030 H   0  0  0  0  0  0  0  0  0  0  0  0
   35.5700   30.9230   34.9530 C   0  0  0  0  0  3  0  0  0  0  0  0
   34.3110   30.5510   34.5760 C   0  0  0  0  0  0  0  0  0  0  0  0
  1  9  1  0  0  0  0
  2  7  1  0  0  0  0
  2  1  1  0  0  0  0
  3  2  2  0  0  0  0
  4  5  2  0  0  0  0
  4  3  1  0  0  0  0
  5  6  1  0  0  0  0
  6  1  2  0  0  0  0
  8  3  1  0  0  0  0
  9 13  1  0  0  0  0
  9 10  1  0  0  0  0
 10 14  1  0  0  0  0
 10 11  1  0  0  0  0
 11 16  1  1  0  0  0
 11 21  1  0  0  0  0
 12 11  1  0  0  0  0
 12 18  1  0  0  0  0
 13 19  1  0  0  0  0
 13 12  1  0  0  0  0
 15 10  1  0  0  0  0
 17 12  1  0  0  0  0
 20 13  1  0  0  0  0
 21 23  1  0  0  0  0
 22 21  1  0  0  0  0
 24 21  1  0  0  0  0
 25 26  1  0  0  0  0
 25  5  1  0  0  0  0
 26 30  1  0  0  0  0
 27 26  2  0  0  0  0
 27 28  1  0  0  0  0
 28 29  2  0  0  0  0
 29 30  1  0  0  0  0
 29 33  1  0  0  0  0
 31 27  1  0  0  0  0
 32 28  1  0  0  0  0
 33 44  1  0  0  0  0
 34 33  2  0  0  0  0
 34 35  1  0  0  0  0
 35 36  2  0  0  0  0
 36 37  1  0  0  0  0
 37 38  1  0  0  0  0
 38 39  2  0  0  0  0
 39 40  1  0  0  0  0
 41 42  1  0  0  0  0
 41 39  1  0  0  0  0
 43 41  2  0  0  0  0
 44 43  1  0  0  0  0
 44 37  2  0  0  0  0
M  END
>  <minimizedAffinity>
-7.06629515

$$$$

 OpenBabel03272503353D

 44 48  0  0  1  0  0  0  0  0999 V2000
   39.3490   24.4840   33.5750 C   0  0  0  0  0  0  0  0  0  0  0  0
   40.6300   24.8980   33.1780 C   0  0  0  0  0  0  0  0  0  0  0  0
   40.6990   25.8470   32.1510 C   0  0  0  0  0  0  0  0  0  0  0  0
   39.5090   26.2980   31.6160 N   0  0  0  0  0  0  0  0  0  0  0  0
   38.3180   25.8720   32.0300 C   0  0  0  0  0  0  0  0  0  0  0  0
   38.2240   24.9600   33.0150 N   0  0  0  0  0  0  0  0  0  0  0  0
   41.5460   24.5510   33.5900 H   0  0  0  0  0  0  0  0  0  0  0  0
   41.6320   26.2230   31.7800 H   0  0  0  0  0  0  0  0  0  0  0  0
   39.2740   23.5090   34.6310 N   0  0  0  0  0  0  0  0  0  0  0  0
   39.8510   23.6140   35.9380 C   0  0  0  0  0  0  0  0  0  0  0  0
   38.9050   22.7540   36.7780 C   0  0  2  0  0  0  0  0  0  0  0  0
   37.7690   22.3350   35.8510 C   0  0  0  0  0  0  0  0  0  0  0  0
   38.5970   22.2270   34.5740 C   0  0  0  0  0  0  0  0  0  0  0  0
   39.9080   24.6410   36.3180 H   0  0  0  0  0  0  0  0  0  0  0  0
   40.8490   23.1250   35.9420 H   0  0  0  0  0  0  0  0  0  0  0  0
   39.3970   21.8180   37.1220 H   0  0  0  0  0  0  0  0  0  0  0  0
   37.0120   23.1130   35.7170 H   0  0  0  0  0  0  0  0  0  0  0  0
   37.3600   21.3710   36.1590 H   0  0  0  0  0  0  0  0  0  0  0  0
   39.2970   21.3840   34.7160 H   0  0  0  0  0  0  0  0  0  0  0  0
   37.9270   22.1170   33.7250 H   0  0  0  0  0  0  0  0  0  0  0  0
   38.4040   23.4920   37.9870 C   0  0  0  0  0  0  0  0  0  0  0  0
   38.2040   24.8010   37.5910 F   0  0  0  0  0  0  0  0  0  0  0  0
   39.4180   23.5180   38.9150 F   0  0  0  0  0  0  0  0  0  0  0  0
   37.2640   22.9450   38.5180 F   0  0  0  0  0  0  0  0  0  0  0  0
   36.8280   26.4980   31.2900 S   0  0  0  0  0  0  0  0  0  0  0  0
   36.3170   28.0470   31.7120 C   0  0  0  0  0  0  0  0  0  0  0  0
   35.9520   29.2490   31.1900 C   0  0  0  0  0  0  0  0  0  0  0  0
   35.5730   30.3530   31.9030 C   0  0  0  0  0  0  0  0  0  0  0  0
   35.5920   30.1220   33.3680 C   0  0  0  0  0  0  0  0  0  0  0  0
   36.1350   28.3980   33.5330 S   0  0  0  0  0  0  0  0  0  0  0  0
   36.0190   29.1650   30.1150 H   0  0  0  0  0  0  0  0  0  0  0  0
   35.2820   31.2220   31.3830 H   0  0  0  0  0  0  0  0  0  0  0  0
   35.2300   30.9030   34.4560 C   0  0  0  0  0  0  0  0  0  0  0  0
   36.1230   31.8890   34.7960 N   0  0  0  0  0  0  0  0  0  0  0  0
   35.9940   32.6660   35.8790 C   0  0  0  0  0  3  0  0  0  0  0  0
   34.9660   32.5470   36.7360 N   0  0  0  0  0  0  0  0  0  0  0  0
   34.0270   31.6170   36.5030 C   0  0  0  0  0  0  0  0  0  0  0  0
   32.9130   31.4260   37.2940 C   0  0  0  0  0  3  0  0  0  0  0  0
   31.9390   30.4680   36.9960 C   0  0  0  0  0  0  0  0  0  0  0  0
   31.0860   30.3720   37.6680 H   0  0  0  0  0  0  0  0  0  0  0  0
   32.1480   29.7020   35.8430 C   0  0  0  0  0  0  0  0  0  0  0  0
   31.3700   28.9770   35.6520 H   0  0  0  0  0  0  0  0  0  0  0  0
   33.2650   29.9210   35.0830 C   0  0  0  0  0  3  0  0  0  0  0  0
   34.2180   30.8540   35.3770 C   0  0  0  0  0  0  0  0  0  0  0  0
  1  9  1  0  0  0  0
  2  1  1  0  0  0  0
  2  7  1  0  0  0  0
  3  2  2  0  0  0  0
  4  5  2  0  0  0  0
  4  3  1  0  0  0  0
  5  6  1  0  0  0  0
  6  1  2  0  0  0  0
  8  3  1  0  0  0  0
  9 10  1  0  0  0  0
 10 15  1  0  0  0  0
 10 14  1  0  0  0  0
 10 11  1  0  0  0  0
 11 16  1  1  0  0  0
 11 21  1  0  0  0  0
 12 18  1  0  0  0  0
 12 11  1  0  0  0  0
 13  9  1  0  0  0  0
 13 19  1  0  0  0  0
 13 12  1  0  0  0  0
 17 12  1  0  0  0  0
 20 13  1  0  0  0  0
 21 24  1  0  0  0  0
 21 23  1  0  0  0  0
 22 21  1  0  0  0  0
 25 26  1  0  0  0  0
 25  5  1  0  0  0  0
 26 30  1  0  0  0  0
 27 26  2  0  0  0  0
 27 28  1  0  0  0  0
 28 29  2  0  0  0  0
 29 30  1  0  0  0  0
 29 33  1  0  0  0  0
 31 27  1  0  0  0  0
 32 28  1  0  0  0  0
 33 34  2  0  0  0  0
 33 44  1  0  0  0  0
 34 35  1  0  0  0  0
 35 36  2  0  0  0  0
 37 36  1  0  0  0  0
 37 38  1  0  0  0  0
 39 38  2  0  0  0  0
 39 40  1  0  0  0  0
 41 39  1  0  0  0  0
 42 41  1  0  0  0  0
 43 44  1  0  0  0  0
 43 41  2  0  0  0  0
 44 37  2  0  0  0  0
M  END
>  <minimizedAffinity>
-6.81744909

$$$$

 OpenBabel03272503353D

 44 48  0  0  1  0  0  0  0  0999 V2000
   37.4090   24.0690   32.8770 C   0  0  0  0  0  0  0  0  0  0  0  0
   36.3880   23.4120   32.1730 C   0  0  0  0  0  0  0  0  0  0  0  0
   35.7680   24.1280   31.1430 C   0  0  0  0  0  0  0  0  0  0  0  0
   36.2080   25.4150   30.9020 N   0  0  0  0  0  0  0  0  0  0  0  0
   37.1830   25.9920   31.6010 C   0  0  0  0  0  0  0  0  0  0  0  0
   37.7960   25.3260   32.5970 N   0  0  0  0  0  0  0  0  0  0  0  0
   36.0490   22.4230   32.3580 H   0  0  0  0  0  0  0  0  0  0  0  0
   34.9770   23.7110   30.5500 H   0  0  0  0  0  0  0  0  0  0  0  0
   38.0500   23.3360   33.9370 N   0  0  0  0  0  0  0  0  0  0  0  0
   38.9090   23.8710   34.9510 C   0  0  0  0  0  0  0  0  0  0  0  0
   38.6840   22.8980   36.1110 C   0  0  2  0  0  0  0  0  0  0  0  0
   37.5790   21.9470   35.6640 C   0  0  0  0  0  0  0  0  0  0  0  0
   37.9480   21.9100   34.1840 C   0  0  0  0  0  0  0  0  0  0  0  0
   38.6730   24.9020   35.2370 H   0  0  0  0  0  0  0  0  0  0  0  0
   39.9680   23.7730   34.6270 H   0  0  0  0  0  0  0  0  0  0  0  0
   39.5830   22.2740   36.3040 H   0  0  0  0  0  0  0  0  0  0  0  0
   36.5760   22.3720   35.7670 H   0  0  0  0  0  0  0  0  0  0  0  0
   37.6970   20.9730   36.1420 H   0  0  0  0  0  0  0  0  0  0  0  0
   38.9290   21.4070   34.1110 H   0  0  0  0  0  0  0  0  0  0  0  0
   37.1500   21.4210   33.6320 H   0  0  0  0  0  0  0  0  0  0  0  0
   38.3300   23.6180   37.3810 C   0  0  0  0  0  0  0  0  0  0  0  0
   39.3680   23.3860   38.2640 F   0  0  0  0  0  0  0  0  0  0  0  0
   37.2220   23.0080   37.9170 F   0  0  0  0  0  0  0  0  0  0  0  0
   38.1150   24.9600   37.1980 F   0  0  0  0  0  0  0  0  0  0  0  0
   37.6940   27.6530   31.2330 S   0  0  0  0  0  0  0  0  0  0  0  0
   36.7790   28.9270   31.8510 C   0  0  0  0  0  0  0  0  0  0  0  0
   36.2790   30.1530   31.5420 C   0  0  0  0  0  0  0  0  0  0  0  0
   35.5260   30.9440   32.3650 C   0  0  0  0  0  0  0  0  0  0  0  0
   35.2870   30.3250   33.6920 C   0  0  0  0  0  0  0  0  0  0  0  0
   36.1450   28.7300   33.5930 S   0  0  0  0  0  0  0  0  0  0  0  0
   36.5880   30.3800   30.5320 H   0  0  0  0  0  0  0  0  0  0  0  0
   35.1690   31.8660   32.0020 H   0  0  0  0  0  0  0  0  0  0  0  0
   34.5420   30.7100   34.7970 C   0  0  0  0  0  0  0  0  0  0  0  0
   35.1910   31.5270   35.6890 N   0  0  0  0  0  0  0  0  0  0  0  0
   34.6700   31.9080   36.8620 C   0  0  0  0  0  3  0  0  0  0  0  0
   33.4490   31.5210   37.2710 N   0  0  0  0  0  0  0  0  0  0  0  0
   32.7190   30.7220   36.4780 C   0  0  0  0  0  0  0  0  0  0  0  0
   31.4440   30.2880   36.7780 C   0  0  0  0  0  3  0  0  0  0  0  0
   30.7020   29.4850   35.9070 C   0  0  0  0  0  0  0  0  0  0  0  0
   29.7020   29.1790   36.2110 H   0  0  0  0  0  0  0  0  0  0  0  0
   31.3190   29.1360   34.7000 C   0  0  0  0  0  0  0  0  0  0  0  0
   30.7090   28.5170   34.0580 H   0  0  0  0  0  0  0  0  0  0  0  0
   32.5850   29.5860   34.4370 C   0  0  0  0  0  3  0  0  0  0  0  0
   33.3110   30.3680   35.2900 C   0  0  0  0  0  0  0  0  0  0  0  0
  1  9  1  0  0  0  0
  2  7  1  0  0  0  0
  2  1  2  0  0  0  0
  3  2  1  0  0  0  0
  4  3  2  0  0  0  0
  4  5  1  0  0  0  0
  5  6  2  0  0  0  0
  6  1  1  0  0  0  0
  8  3  1  0  0  0  0
  9 13  1  0  0  0  0
  9 10  1  0  0  0  0
 10 14  1  0  0  0  0
 10 11  1  0  0  0  0
 11 16  1  1  0  0  0
 11 21  1  0  0  0  0
 12 17  1  0  0  0  0
 12 11  1  0  0  0  0
 12 18  1  0  0  0  0
 13 12  1  0  0  0  0
 15 10  1  0  0  0  0
 19 13  1  0  0  0  0
 20 13  1  0  0  0  0
 21 23  1  0  0  0  0
 21 22  1  0  0  0  0
 24 21  1  0  0  0  0
 25  5  1  0  0  0  0
 25 26  1  0  0  0  0
 26 30  1  0  0  0  0
 27 26  2  0  0  0  0
 27 28  1  0  0  0  0
 28 29  2  0  0  0  0
 29 33  1  0  0  0  0
 30 29  1  0  0  0  0
 31 27  1  0  0  0  0
 32 28  1  0  0  0  0
 33 44  2  0  0  0  0
 33 34  1  0  0  0  0
 34 35  2  0  0  0  0
 35 36  1  0  0  0  0
 37 38  1  0  0  0  0
 37 36  2  0  0  0  0
 39 40  1  0  0  0  0
 39 38  2  0  0  0  0
 41 39  1  0  0  0  0
 42 41  1  0  0  0  0
 43 41  2  0  0  0  0
 43 44  1  0  0  0  0
 44 37  1  0  0  0  0
M  END
>  <minimizedAffinity>
-6.78844309

$$$$

 OpenBabel03272503353D

 44 48  0  0  1  0  0  0  0  0999 V2000
   39.9780   24.8460   34.7410 C   0  0  0  0  0  0  0  0  0  0  0  0
   41.1440   25.6100   34.9090 C   0  0  0  0  0  0  0  0  0  0  0  0
   41.2490   26.7800   34.1490 C   0  0  0  0  0  0  0  0  0  0  0  0
   40.2050   27.0880   33.3000 N   0  0  0  0  0  0  0  0  0  0  0  0
   39.1190   26.3270   33.1770 C   0  0  0  0  0  0  0  0  0  0  0  0
   38.9930   25.1970   33.8970 N   0  0  0  0  0  0  0  0  0  0  0  0
   41.9480   25.3730   35.5620 H   0  0  0  0  0  0  0  0  0  0  0  0
   42.1010   27.4280   34.2090 H   0  0  0  0  0  0  0  0  0  0  0  0
   39.8660   23.6410   35.5210 N   0  0  0  0  0  0  0  0  0  0  0  0
   40.5220   22.3930   35.2700 C   0  0  0  0  0  0  0  0  0  0  0  0
   40.6380   21.8000   36.6760 C   0  0  2  0  0  0  0  0  0  0  0  0
   40.1310   22.8720   37.6350 C   0  0  0  0  0  0  0  0  0  0  0  0
   39.0640   23.4600   36.7170 C   0  0  0  0  0  0  0  0  0  0  0  0
   41.5040   22.4940   34.7920 H   0  0  0  0  0  0  0  0  0  0  0  0
   39.8500   21.7350   34.6780 H   0  0  0  0  0  0  0  0  0  0  0  0
   39.9750   20.9180   36.8050 H   0  0  0  0  0  0  0  0  0  0  0  0
   40.8750   23.6440   37.8520 H   0  0  0  0  0  0  0  0  0  0  0  0
   39.6990   22.4130   38.5270 H   0  0  0  0  0  0  0  0  0  0  0  0
   38.2930   22.6810   36.5820 H   0  0  0  0  0  0  0  0  0  0  0  0
   38.6970   24.3870   37.1490 H   0  0  0  0  0  0  0  0  0  0  0  0
   42.0450   21.3800   36.9900 C   0  0  0  0  0  0  0  0  0  0  0  0
   42.8110   22.5300   36.9700 F   0  0  0  0  0  0  0  0  0  0  0  0
   42.4930   20.5970   35.9540 F   0  0  0  0  0  0  0  0  0  0  0  0
   42.1560   20.7220   38.1890 F   0  0  0  0  0  0  0  0  0  0  0  0
   37.8150   26.7890   32.0620 S   0  0  0  0  0  0  0  0  0  0  0  0
   36.9230   28.1770   32.4050 C   0  0  0  0  0  0  0  0  0  0  0  0
   36.4230   29.3110   31.8460 C   0  0  0  0  0  0  0  0  0  0  0  0
   35.6950   30.2720   32.4920 C   0  0  0  0  0  0  0  0  0  0  0  0
   35.4840   29.9610   33.9270 C   0  0  0  0  0  0  0  0  0  0  0  0
   36.3310   28.3740   34.1610 S   0  0  0  0  0  0  0  0  0  0  0  0
   36.7080   29.3070   30.8040 H   0  0  0  0  0  0  0  0  0  0  0  0
   35.3350   31.0950   31.9430 H   0  0  0  0  0  0  0  0  0  0  0  0
   34.7680   30.5880   34.9370 C   0  0  0  0  0  0  0  0  0  0  0  0
   35.4870   31.4640   35.7110 N   0  0  0  0  0  0  0  0  0  0  0  0
   34.9920   32.0750   36.7950 C   0  0  0  0  0  3  0  0  0  0  0  0
   33.7330   31.8810   37.2230 N   0  0  0  0  0  0  0  0  0  0  0  0
   32.9340   31.0450   36.5420 C   0  0  0  0  0  0  0  0  0  0  0  0
   31.6180   30.7940   36.8680 C   0  0  0  0  0  3  0  0  0  0  0  0
   30.8080   29.9430   36.1100 C   0  0  0  0  0  0  0  0  0  0  0  0
   29.7780   29.7910   36.4290 H   0  0  0  0  0  0  0  0  0  0  0  0
   31.4020   29.3490   34.9900 C   0  0  0  0  0  0  0  0  0  0  0  0
   30.7390   28.7010   34.4340 H   0  0  0  0  0  0  0  0  0  0  0  0
   32.7110   29.6230   34.6980 C   0  0  0  0  0  3  0  0  0  0  0  0
   33.5020   30.4520   35.4410 C   0  0  0  0  0  0  0  0  0  0  0  0
  1  2  1  0  0  0  0
  1  9  1  0  0  0  0
  2  7  1  0  0  0  0
  3  8  1  0  0  0  0
  3  2  2  0  0  0  0
  4  3  1  0  0  0  0
  5  4  2  0  0  0  0
  5  6  1  0  0  0  0
  6  1  2  0  0  0  0
  9 13  1  0  0  0  0
 10  9  1  0  0  0  0
 10 11  1  0  0  0  0
 11 16  1  1  0  0  0
 11 21  1  0  0  0  0
 11 12  1  0  0  0  0
 12 17  1  0  0  0  0
 12 18  1  0  0  0  0
 13 20  1  0  0  0  0
 13 12  1  0  0  0  0
 14 10  1  0  0  0  0
 15 10  1  0  0  0  0
 19 13  1  0  0  0  0
 21 24  1  0  0  0  0
 22 21  1  0  0  0  0
 23 21  1  0  0  0  0
 25 26  1  0  0  0  0
 25  5  1  0  0  0  0
 26 30  1  0  0  0  0
 27 26  2  0  0  0  0
 27 28  1  0  0  0  0
 28 29  2  0  0  0  0
 29 30  1  0  0  0  0
 29 33  1  0  0  0  0
 31 27  1  0  0  0  0
 32 28  1  0  0  0  0
 33 44  2  0  0  0  0
 33 34  1  0  0  0  0
 34 35  2  0  0  0  0
 35 36  1  0  0  0  0
 37 38  1  0  0  0  0
 37 36  2  0  0  0  0
 39 40  1  0  0  0  0
 39 38  2  0  0  0  0
 41 39  1  0  0  0  0
 42 41  1  0  0  0  0
 43 41  2  0  0  0  0
 43 44  1  0  0  0  0
 44 37  1  0  0  0  0
M  END
>  <minimizedAffinity>
-6.71910667

$$$$

 OpenBabel03272503353D

 44 48  0  0  1  0  0  0  0  0999 V2000
   38.2790   23.8030   32.9130 C   0  0  0  0  0  0  0  0  0  0  0  0
   38.8350   23.8740   34.1990 C   0  0  0  0  0  0  0  0  0  0  0  0
   39.2260   25.1390   34.6510 C   0  0  0  0  0  0  0  0  0  0  0  0
   39.0350   26.2100   33.8010 N   0  0  0  0  0  0  0  0  0  0  0  0
   38.5010   26.0880   32.5880 C   0  0  0  0  0  0  0  0  0  0  0  0
   38.1170   24.8830   32.1290 N   0  0  0  0  0  0  0  0  0  0  0  0
   38.9830   23.0500   34.8530 H   0  0  0  0  0  0  0  0  0  0  0  0
   39.6610   25.2930   35.6190 H   0  0  0  0  0  0  0  0  0  0  0  0
   37.8750   22.5030   32.4440 N   0  0  0  0  0  0  0  0  0  0  0  0
   37.6370   21.3400   33.2440 C   0  0  0  0  0  0  0  0  0  0  0  0
   36.6060   20.5780   32.4090 C   0  0  2  0  0  0  0  0  0  0  0  0
   36.2530   21.4840   31.2340 C   0  0  0  0  0  0  0  0  0  0  0  0
   37.6290   22.1210   31.0660 C   0  0  0  0  0  0  0  0  0  0  0  0
   37.2590   21.5600   34.2500 H   0  0  0  0  0  0  0  0  0  0  0  0
   38.5610   20.7240   33.2860 H   0  0  0  0  0  0  0  0  0  0  0  0
   37.0340   19.6480   31.9760 H   0  0  0  0  0  0  0  0  0  0  0  0
   35.5320   22.2650   31.4930 H   0  0  0  0  0  0  0  0  0  0  0  0
   35.9660   20.8890   30.3650 H   0  0  0  0  0  0  0  0  0  0  0  0
   38.3140   21.3220   30.7320 H   0  0  0  0  0  0  0  0  0  0  0  0
   37.5490   22.9610   30.3810 H   0  0  0  0  0  0  0  0  0  0  0  0
   35.3960   20.2050   33.2180 C   0  0  0  0  0  0  0  0  0  0  0  0
   35.3610   18.8240   33.2570 F   0  0  0  0  0  0  0  0  0  0  0  0
   34.2820   20.6020   32.5190 F   0  0  0  0  0  0  0  0  0  0  0  0
   35.4050   20.7450   34.4800 F   0  0  0  0  0  0  0  0  0  0  0  0
   38.2870   27.5140   31.5490 S   0  0  0  0  0  0  0  0  0  0  0  0
   36.9420   28.4970   31.8080 C   0  0  0  0  0  0  0  0  0  0  0  0
   36.1270   29.4020   31.2030 C   0  0  0  0  0  0  0  0  0  0  0  0
   35.0590   30.0320   31.7800 C   0  0  0  0  0  0  0  0  0  0  0  0
   34.8510   29.6300   33.1920 C   0  0  0  0  0  0  0  0  0  0  0  0
   36.1740   28.4290   33.5060 S   0  0  0  0  0  0  0  0  0  0  0  0
   36.4810   29.5240   30.1900 H   0  0  0  0  0  0  0  0  0  0  0  0
   34.4810   30.6940   31.1980 H   0  0  0  0  0  0  0  0  0  0  0  0
   33.8810   29.9420   34.1330 C   0  0  0  0  0  0  0  0  0  0  0  0
   32.6470   29.3810   33.9150 N   0  0  0  0  0  0  0  0  0  0  0  0
   31.5650   29.6560   34.6540 C   0  0  0  0  0  3  0  0  0  0  0  0
   31.5940   30.5140   35.6880 N   0  0  0  0  0  0  0  0  0  0  0  0
   32.7500   31.1220   35.9980 C   0  0  0  0  0  0  0  0  0  0  0  0
   32.9060   31.9950   37.0540 C   0  0  0  0  0  3  0  0  0  0  0  0
   34.1380   32.5800   37.3650 C   0  0  0  0  0  0  0  0  0  0  0  0
   34.1860   33.2620   38.2140 H   0  0  0  0  0  0  0  0  0  0  0  0
   35.2190   32.2350   36.5460 C   0  0  0  0  0  0  0  0  0  0  0  0
   36.1490   32.7090   36.8240 H   0  0  0  0  0  0  0  0  0  0  0  0
   35.0240   31.3650   35.5070 C   0  0  0  0  0  3  0  0  0  0  0  0
   33.8210   30.7970   35.2010 C   0  0  0  0  0  0  0  0  0  0  0  0
  1  2  1  0  0  0  0
  2  3  2  0  0  0  0
  2  7  1  0  0  0  0
  3  8  1  0  0  0  0
  4  3  1  0  0  0  0
  5  4  2  0  0  0  0
  6  5  1  0  0  0  0
  6  1  2  0  0  0  0
  9  1  1  0  0  0  0
  9 10  1  0  0  0  0
 10 15  1  0  0  0  0
 10 14  1  0  0  0  0
 11 16  1  6  0  0  0
 11 21  1  0  0  0  0
 11 10  1  0  0  0  0
 12 17  1  0  0  0  0
 12 11  1  0  0  0  0
 13 12  1  0  0  0  0
 13  9  1  0  0  0  0
 18 12  1  0  0  0  0
 19 13  1  0  0  0  0
 20 13  1  0  0  0  0
 21 22  1  0  0  0  0
 21 24  1  0  0  0  0
 23 21  1  0  0  0  0
 25 26  1  0  0  0  0
 25  5  1  0  0  0  0
 26 30  1  0  0  0  0
 27 28  1  0  0  0  0
 27 26  2  0  0  0  0
 28 29  2  0  0  0  0
 29 30  1  0  0  0  0
 29 33  1  0  0  0  0
 31 27  1  0  0  0  0
 32 28  1  0  0  0  0
 33 44  1  0  0  0  0
 34 33  2  0  0  0  0
 34 35  1  0  0  0  0
 35 36  2  0  0  0  0
 36 37  1  0  0  0  0
 37 38  1  0  0  0  0
 38 39  2  0  0  0  0
 39 40  1  0  0  0  0
 41 42  1  0  0  0  0
 41 39  1  0  0  0  0
 43 41  2  0  0  0  0
 44 43  1  0  0  0  0
 44 37  2  0  0  0  0
M  END
>  <minimizedAffinity>
-6.71580982

$$$$

 OpenBabel03272503353D

 44 48  0  0  1  0  0  0  0  0999 V2000
   37.8640   23.8350   33.0590 C   0  0  0  0  0  0  0  0  0  0  0  0
   38.2700   23.8540   34.4020 C   0  0  0  0  0  0  0  0  0  0  0  0
   38.5420   25.1070   34.9630 C   0  0  0  0  0  0  0  0  0  0  0  0
   38.3900   26.2160   34.1550 N   0  0  0  0  0  0  0  0  0  0  0  0
   38.0020   26.1430   32.8840 C   0  0  0  0  0  0  0  0  0  0  0  0
   37.7350   24.9500   32.3200 N   0  0  0  0  0  0  0  0  0  0  0  0
   38.3870   23.0000   35.0240 H   0  0  0  0  0  0  0  0  0  0  0  0
   38.8570   25.2230   35.9810 H   0  0  0  0  0  0  0  0  0  0  0  0
   37.5830   22.5480   32.4780 N   0  0  0  0  0  0  0  0  0  0  0  0
   37.4320   21.3070   33.1760 C   0  0  0  0  0  0  0  0  0  0  0  0
   36.4870   20.5310   32.2570 C   0  0  2  0  0  0  0  0  0  0  0  0
   36.0790   21.4970   31.1490 C   0  0  0  0  0  0  0  0  0  0  0  0
   37.3980   22.2600   31.0680 C   0  0  0  0  0  0  0  0  0  0  0  0
   37.0180   21.4110   34.1860 H   0  0  0  0  0  0  0  0  0  0  0  0
   38.4060   20.7710   33.1920 H   0  0  0  0  0  0  0  0  0  0  0  0
   37.0020   19.6790   31.7620 H   0  0  0  0  0  0  0  0  0  0  0  0
   35.2880   22.1900   31.4510 H   0  0  0  0  0  0  0  0  0  0  0  0
   35.8600   20.9530   30.2290 H   0  0  0  0  0  0  0  0  0  0  0  0
   38.1550   21.5520   30.6880 H   0  0  0  0  0  0  0  0  0  0  0  0
   37.2580   23.1430   30.4500 H   0  0  0  0  0  0  0  0  0  0  0  0
   35.2990   19.9920   33.0030 C   0  0  0  0  0  0  0  0  0  0  0  0
   34.1790   20.4000   32.3030 F   0  0  0  0  0  0  0  0  0  0  0  0
   35.2450   20.6240   34.2220 F   0  0  0  0  0  0  0  0  0  0  0  0
   35.3320   18.6290   33.1540 F   0  0  0  0  0  0  0  0  0  0  0  0
   37.8310   27.6170   31.9060 S   0  0  0  0  0  0  0  0  0  0  0  0
   36.5860   28.6880   32.2860 C   0  0  0  0  0  0  0  0  0  0  0  0
   35.7740   29.6390   31.7540 C   0  0  0  0  0  0  0  0  0  0  0  0
   34.8130   30.3440   32.4260 C   0  0  0  0  0  0  0  0  0  0  0  0
   34.7250   29.9670   33.8580 C   0  0  0  0  0  0  0  0  0  0  0  0
   35.9930   28.6840   34.0530 S   0  0  0  0  0  0  0  0  0  0  0  0
   36.0300   29.7300   30.7080 H   0  0  0  0  0  0  0  0  0  0  0  0
   34.2240   31.0370   31.8960 H   0  0  0  0  0  0  0  0  0  0  0  0
   33.8780   30.3490   34.8880 C   0  0  0  0  0  0  0  0  0  0  0  0
   34.4120   31.2370   35.7890 N   0  0  0  0  0  0  0  0  0  0  0  0
   33.7830   31.6320   36.9040 C   0  0  0  0  0  3  0  0  0  0  0  0
   32.5590   31.1890   37.2390 N   0  0  0  0  0  0  0  0  0  0  0  0
   31.9360   30.3180   36.4290 C   0  0  0  0  0  0  0  0  0  0  0  0
   30.6690   29.8210   36.6550 C   0  0  0  0  0  3  0  0  0  0  0  0
   30.0420   28.9420   35.7670 C   0  0  0  0  0  0  0  0  0  0  0  0
   29.0400   28.5900   36.0100 H   0  0  0  0  0  0  0  0  0  0  0  0
   30.7660   28.5840   34.6240 C   0  0  0  0  0  0  0  0  0  0  0  0
   30.2420   27.9060   33.9660 H   0  0  0  0  0  0  0  0  0  0  0  0
   32.0210   29.0980   34.4350 C   0  0  0  0  0  3  0  0  0  0  0  0
   32.6350   29.9540   35.3040 C   0  0  0  0  0  0  0  0  0  0  0  0
  1  2  1  0  0  0  0
  2  3  2  0  0  0  0
  2  7  1  0  0  0  0
  3  8  1  0  0  0  0
  4  3  1  0  0  0  0
  5  4  2  0  0  0  0
  6  5  1  0  0  0  0
  6  1  2  0  0  0  0
  9  1  1  0  0  0  0
  9 10  1  0  0  0  0
 10 15  1  0  0  0  0
 10 14  1  0  0  0  0
 11 16  1  6  0  0  0
 11 21  1  0  0  0  0
 11 10  1  0  0  0  0
 12 17  1  0  0  0  0
 12 11  1  0  0  0  0
 13 12  1  0  0  0  0
 13  9  1  0  0  0  0
 18 12  1  0  0  0  0
 19 13  1  0  0  0  0
 20 13  1  0  0  0  0
 21 24  1  0  0  0  0
 21 23  1  0  0  0  0
 22 21  1  0  0  0  0
 25 26  1  0  0  0  0
 25  5  1  0  0  0  0
 26 30  1  0  0  0  0
 27 26  2  0  0  0  0
 27 28  1  0  0  0  0
 28 29  2  0  0  0  0
 29 30  1  0  0  0  0
 29 33  1  0  0  0  0
 31 27  1  0  0  0  0
 32 28  1  0  0  0  0
 33 44  2  0  0  0  0
 33 34  1  0  0  0  0
 34 35  2  0  0  0  0
 35 36  1  0  0  0  0
 37 38  1  0  0  0  0
 37 36  2  0  0  0  0
 39 40  1  0  0  0  0
 39 38  2  0  0  0  0
 41 39  1  0  0  0  0
 42 41  1  0  0  0  0
 43 41  2  0  0  0  0
 43 44  1  0  0  0  0
 44 37  1  0  0  0  0
M  END
>  <minimizedAffinity>
-6.60257292

$$$$

 OpenBabel03272503353D

 44 48  0  0  1  0  0  0  0  0999 V2000
   35.9500   29.8980   31.8040 C   0  0  0  0  0  0  0  0  0  0  0  0
   36.3850   30.2820   30.5260 C   0  0  0  0  0  0  0  0  0  0  0  0
   36.8980   29.2740   29.7020 C   0  0  0  0  0  0  0  0  0  0  0  0
   36.9340   27.9900   30.2090 N   0  0  0  0  0  0  0  0  0  0  0  0
   36.5090   27.6790   31.4310 C   0  0  0  0  0  0  0  0  0  0  0  0
   36.0110   28.6300   32.2440 N   0  0  0  0  0  0  0  0  0  0  0  0
   36.3570   31.2700   30.1360 H   0  0  0  0  0  0  0  0  0  0  0  0
   37.2540   29.4700   28.7100 H   0  0  0  0  0  0  0  0  0  0  0  0
   35.4210   30.9330   32.6550 N   0  0  0  0  0  0  0  0  0  0  0  0
   34.9280   30.7750   33.9900 C   0  0  0  0  0  0  0  0  0  0  0  0
   35.2000   32.1510   34.6000 C   0  0  2  0  0  0  0  0  0  0  0  0
   35.9690   32.9420   33.5460 C   0  0  0  0  0  0  0  0  0  0  0  0
   35.2870   32.3380   32.3220 C   0  0  0  0  0  0  0  0  0  0  0  0
   35.4210   29.9770   34.5570 H   0  0  0  0  0  0  0  0  0  0  0  0
   33.8260   30.6290   33.9610 H   0  0  0  0  0  0  0  0  0  0  0  0
   34.2590   32.7090   34.7920 H   0  0  0  0  0  0  0  0  0  0  0  0
   37.0350   32.6960   33.5150 H   0  0  0  0  0  0  0  0  0  0  0  0
   35.7660   34.0100   33.6460 H   0  0  0  0  0  0  0  0  0  0  0  0
   34.2340   32.6690   32.3450 H   0  0  0  0  0  0  0  0  0  0  0  0
   35.8330   32.6370   31.4300 H   0  0  0  0  0  0  0  0  0  0  0  0
   35.9570   32.0490   35.8930 C   0  0  0  0  0  0  0  0  0  0  0  0
   36.9970   32.9560   35.8120 F   0  0  0  0  0  0  0  0  0  0  0  0
   36.5340   30.8030   35.9470 F   0  0  0  0  0  0  0  0  0  0  0  0
   35.1730   32.2770   36.9960 F   0  0  0  0  0  0  0  0  0  0  0  0
   36.5890   26.0020   32.0150 S   0  0  0  0  0  0  0  0  0  0  0  0
   37.4410   25.6900   33.4350 C   0  0  0  0  0  0  0  0  0  0  0  0
   37.5200   26.0290   34.7500 C   0  0  0  0  0  0  0  0  0  0  0  0
   38.4100   25.5240   35.6570 C   0  0  0  0  0  0  0  0  0  0  0  0
   39.3330   24.5280   35.0610 C   0  0  0  0  0  0  0  0  0  0  0  0
   38.8190   24.4390   33.3230 S   0  0  0  0  0  0  0  0  0  0  0  0
   36.7510   26.7630   34.9380 H   0  0  0  0  0  0  0  0  0  0  0  0
   38.3530   25.8430   36.6600 H   0  0  0  0  0  0  0  0  0  0  0  0
   40.3280   23.7210   35.5920 C   0  0  0  0  0  0  0  0  0  0  0  0
   39.8910   22.5770   36.2120 N   0  0  0  0  0  0  0  0  0  0  0  0
   40.6960   21.7370   36.8740 C   0  0  0  0  0  3  0  0  0  0  0  0
   42.0190   21.9440   36.9900 N   0  0  0  0  0  0  0  0  0  0  0  0
   42.5620   23.0310   36.4210 C   0  0  0  0  0  0  0  0  0  0  0  0
   43.9080   23.3290   36.4470 C   0  0  0  0  0  3  0  0  0  0  0  0
   44.4380   24.4550   35.8100 C   0  0  0  0  0  0  0  0  0  0  0  0
   45.5120   24.6280   35.8730 H   0  0  0  0  0  0  0  0  0  0  0  0
   43.5280   25.2780   35.1350 C   0  0  0  0  0  0  0  0  0  0  0  0
   43.9820   26.1340   34.6570 H   0  0  0  0  0  0  0  0  0  0  0  0
   42.1990   24.9500   35.1310 C   0  0  0  0  0  3  0  0  0  0  0  0
   41.6820   23.8520   35.7570 C   0  0  0  0  0  0  0  0  0  0  0  0
  1  6  1  0  0  0  0
  1  9  1  0  0  0  0
  2  1  2  0  0  0  0
  3  4  2  0  0  0  0
  3  2  1  0  0  0  0
  4  5  1  0  0  0  0
  5 25  1  0  0  0  0
  5  6  2  0  0  0  0
  7  2  1  0  0  0  0
  8  3  1  0  0  0  0
  9 10  1  0  0  0  0
 10 14  1  0  0  0  0
 10 11  1  0  0  0  0
 11 16  1  1  0  0  0
 11 21  1  0  0  0  0
 12 18  1  0  0  0  0
 12 11  1  0  0  0  0
 13 19  1  0  0  0  0
 13  9  1  0  0  0  0
 13 12  1  0  0  0  0
 15 10  1  0  0  0  0
 17 12  1  0  0  0  0
 20 13  1  0  0  0  0
 21 23  1  0  0  0  0
 21 24  1  0  0  0  0
 22 21  1  0  0  0  0
 25 26  1  0  0  0  0
 26 27  2  0  0  0  0
 27 31  1  0  0  0  0
 27 28  1  0  0  0  0
 28 32  1  0  0  0  0
 29 33  1  0  0  0  0
 29 28  2  0  0  0  0
 30 26  1  0  0  0  0
 30 29  1  0  0  0  0
 33 44  2  0  0  0  0
 33 34  1  0  0  0  0
 34 35  2  0  0  0  0
 35 36  1  0  0  0  0
 37 38  1  0  0  0  0
 37 36  2  0  0  0  0
 39 40  1  0  0  0  0
 39 38  2  0  0  0  0
 41 39  1  0  0  0  0
 42 41  1  0  0  0  0
 43 41  2  0  0  0  0
 43 44  1  0  0  0  0
 44 37  1  0  0  0  0
M  END
>  <minimizedAffinity>
-6.60191679

$$$$

 OpenBabel03272503353D

 44 48  0  0  1  0  0  0  0  0999 V2000
   36.2990   29.2860   31.4810 C   0  0  0  0  0  0  0  0  0  0  0  0
   36.3910   30.2250   30.4410 C   0  0  0  0  0  0  0  0  0  0  0  0
   37.2550   29.9170   29.3850 C   0  0  0  0  0  0  0  0  0  0  0  0
   37.9430   28.7220   29.4480 N   0  0  0  0  0  0  0  0  0  0  0  0
   37.8200   27.8650   30.4590 C   0  0  0  0  0  0  0  0  0  0  0  0
   36.9960   28.1370   31.4890 N   0  0  0  0  0  0  0  0  0  0  0  0
   35.8610   31.1440   30.3930 H   0  0  0  0  0  0  0  0  0  0  0  0
   37.3910   30.5710   28.5470 H   0  0  0  0  0  0  0  0  0  0  0  0
   35.4120   29.5990   32.5700 N   0  0  0  0  0  0  0  0  0  0  0  0
   35.6530   29.3740   33.9640 C   0  0  0  0  0  0  0  0  0  0  0  0
   34.8190   30.4780   34.6180 C   0  0  2  0  0  0  0  0  0  0  0  0
   34.2680   31.3300   33.4790 C   0  0  0  0  0  0  0  0  0  0  0  0
   34.0970   30.2040   32.4650 C   0  0  0  0  0  0  0  0  0  0  0  0
   36.7090   29.4430   34.2500 H   0  0  0  0  0  0  0  0  0  0  0  0
   35.2160   28.3970   34.2620 H   0  0  0  0  0  0  0  0  0  0  0  0
   33.9400   30.0630   35.1580 H   0  0  0  0  0  0  0  0  0  0  0  0
   34.9940   32.0500   33.0890 H   0  0  0  0  0  0  0  0  0  0  0  0
   33.3140   31.7770   33.7630 H   0  0  0  0  0  0  0  0  0  0  0  0
   33.3050   29.5400   32.8530 H   0  0  0  0  0  0  0  0  0  0  0  0
   33.8850   30.6350   31.4900 H   0  0  0  0  0  0  0  0  0  0  0  0
   35.6280   31.2880   35.5900 C   0  0  0  0  0  0  0  0  0  0  0  0
   36.1610   32.3430   34.8730 F   0  0  0  0  0  0  0  0  0  0  0  0
   36.6920   30.5190   35.9970 F   0  0  0  0  0  0  0  0  0  0  0  0
   34.8970   31.7260   36.6660 F   0  0  0  0  0  0  0  0  0  0  0  0
   38.7420   26.3450   30.4720 S   0  0  0  0  0  0  0  0  0  0  0  0
   38.3590   25.1870   31.6350 C   0  0  0  0  0  0  0  0  0  0  0  0
   37.6260   24.0620   31.8450 C   0  0  0  0  0  0  0  0  0  0  0  0
   37.5650   23.3480   33.0100 C   0  0  0  0  0  0  0  0  0  0  0  0
   38.4050   23.9330   34.0830 C   0  0  0  0  0  0  0  0  0  0  0  0
   39.1590   25.3890   33.3070 S   0  0  0  0  0  0  0  0  0  0  0  0
   37.1070   23.8410   30.9230 H   0  0  0  0  0  0  0  0  0  0  0  0
   36.9820   22.4710   33.0420 H   0  0  0  0  0  0  0  0  0  0  0  0
   38.7070   23.5300   35.3760 C   0  0  0  0  0  0  0  0  0  0  0  0
   37.8510   23.9830   36.3490 N   0  0  0  0  0  0  0  0  0  0  0  0
   38.0450   23.7870   37.6590 C   0  0  0  0  0  3  0  0  0  0  0  0
   39.1070   23.1200   38.1410 N   0  0  0  0  0  0  0  0  0  0  0  0
   40.0120   22.6270   37.2810 C   0  0  0  0  0  0  0  0  0  0  0  0
   41.1220   21.9000   37.6580 C   0  0  0  0  0  3  0  0  0  0  0  0
   42.0230   21.3730   36.7270 C   0  0  0  0  0  0  0  0  0  0  0  0
   42.8780   20.8090   37.0980 H   0  0  0  0  0  0  0  0  0  0  0  0
   41.7430   21.6190   35.3780 C   0  0  0  0  0  0  0  0  0  0  0  0
   42.4630   21.1910   34.6950 H   0  0  0  0  0  0  0  0  0  0  0  0
   40.6310   22.3440   35.0430 C   0  0  0  0  0  3  0  0  0  0  0  0
   39.7550   22.8620   35.9530 C   0  0  0  0  0  0  0  0  0  0  0  0
  1  6  1  0  0  0  0
  1  9  1  0  0  0  0
  2  1  2  0  0  0  0
  3  4  2  0  0  0  0
  3  2  1  0  0  0  0
  4  5  1  0  0  0  0
  5 25  1  0  0  0  0
  5  6  2  0  0  0  0
  7  2  1  0  0  0  0
  8  3  1  0  0  0  0
  9 10  1  0  0  0  0
 10 14  1  0  0  0  0
 10 15  1  0  0  0  0
 10 11  1  0  0  0  0
 11 16  1  1  0  0  0
 11 21  1  0  0  0  0
 12 18  1  0  0  0  0
 12 11  1  0  0  0  0
 13  9  1  0  0  0  0
 13 19  1  0  0  0  0
 13 12  1  0  0  0  0
 17 12  1  0  0  0  0
 20 13  1  0  0  0  0
 21 23  1  0  0  0  0
 21 24  1  0  0  0  0
 22 21  1  0  0  0  0
 25 26  1  0  0  0  0
 26 27  2  0  0  0  0
 26 30  1  0  0  0  0
 27 28  1  0  0  0  0
 28 32  1  0  0  0  0
 28 29  2  0  0  0  0
 29 33  1  0  0  0  0
 30 29  1  0  0  0  0
 31 27  1  0  0  0  0
 33 44  2  0  0  0  0
 33 34  1  0  0  0  0
 34 35  2  0  0  0  0
 35 36  1  0  0  0  0
 37 38  1  0  0  0  0
 37 36  2  0  0  0  0
 39 40  1  0  0  0  0
 39 38  2  0  0  0  0
 41 39  1  0  0  0  0
 42 41  1  0  0  0  0
 43 41  2  0  0  0  0
 43 44  1  0  0  0  0
 44 37  1  0  0  0  0
M  END
>  <minimizedAffinity>
-6.54253578

$$$$
