
 OpenBabel03272506073D

 33 36  0  0  0  0  0  0  0  0999 V2000
   32.7470   27.7520   48.4910 C   0  0  0  0  0  0  0  0  0  0  0  0
   32.5010   26.6930   47.5420 C   0  0  0  0  0  0  0  0  0  0  0  0
   30.8000   26.3360   47.9310 S   0  0  0  0  0  0  0  0  0  0  0  0
   30.6640   27.6290   49.2800 C   0  0  0  0  0  0  0  0  0  0  0  0
   31.7590   28.0940   49.2640 N   0  0  0  0  0  0  0  0  0  0  0  0
   33.1840   26.2830   46.8340 H   0  0  0  0  0  0  0  0  0  0  0  0
   29.3210   27.6640   49.9030 C   0  0  0  0  0  0  0  0  0  0  0  0
   28.9500   27.0100   51.0180 N   0  0  0  0  0  0  0  0  0  0  0  0
   27.7140   27.0840   51.5320 C   0  0  0  0  0  3  0  0  0  0  0  0
   26.7650   27.8280   50.9490 N   0  0  0  0  0  0  0  0  0  0  0  0
   27.0410   28.5180   49.8300 C   0  0  0  0  0  0  0  0  0  0  0  0
   26.0470   29.2750   49.2500 C   0  0  0  0  0  3  0  0  0  0  0  0
   26.3420   29.9830   48.0960 C   0  0  0  0  0  0  0  0  0  0  0  0
   25.5510   30.5720   47.6530 H   0  0  0  0  0  0  0  0  0  0  0  0
   27.6430   29.8830   47.5880 C   0  0  0  0  0  0  0  0  0  0  0  0
   27.7460   30.4800   46.6850 H   0  0  0  0  0  0  0  0  0  0  0  0
   28.6070   29.1110   48.2010 C   0  0  0  0  0  3  0  0  0  0  0  0
   28.3230   28.4170   49.3320 C   0  0  0  0  0  0  0  0  0  0  0  0
   34.1130   28.3700   48.5100 C   0  0  0  0  0  0  0  0  0  0  0  0
   34.2830   28.9470   47.5530 H   0  0  0  0  0  0  0  0  0  0  0  0
   34.8920   27.5800   48.4790 H   0  0  0  0  0  0  0  0  0  0  0  0
   34.3280   29.2690   49.6650 C   0  0  0  0  0  0  0  0  0  0  0  0
   33.4570   29.9250   49.9070 H   0  0  0  0  0  0  0  0  0  0  0  0
   34.5200   28.6680   50.6010 H   0  0  0  0  0  0  0  0  0  0  0  0
   36.8940   31.9250   49.9360 C   0  0  0  0  0  0  0  0  0  0  0  0
   37.8880   31.4890   49.0630 C   0  0  0  0  0  0  0  0  0  0  0  0
   37.6630   30.2830   48.3910 C   0  0  0  0  0  0  0  0  0  0  0  0
   36.5140   29.5960   48.6040 N   0  0  0  0  0  0  0  0  0  0  0  0
   35.5800   30.0800   49.4730 C   0  0  0  0  0  0  0  0  0  0  0  0
   35.7690   31.2250   50.1270 N   0  0  0  0  0  0  0  0  0  0  0  0
   37.0210   32.8520   50.4790 H   0  0  0  0  0  0  0  0  0  0  0  0
   38.7990   32.0510   48.9060 H   0  0  0  0  0  0  0  0  0  0  0  0
   38.3930   29.9100   47.7140 H   0  0  0  0  0  0  0  0  0  0  0  0
  1 19  1  0  0  0  0
  1  5  1  0  0  0  0
  2  3  1  0  0  0  0
  2  1  2  0  0  0  0
  3  4  1  0  0  0  0
  4  7  1  0  0  0  0
  5  4  2  0  0  0  0
  6  2  1  0  0  0  0
  7  8  1  0  0  0  0
  8  9  2  0  0  0  0
 10  9  1  0  0  0  0
 11 10  2  0  0  0  0
 12 11  1  0  0  0  0
 13 12  2  0  0  0  0
 14 13  1  0  0  0  0
 15 13  1  0  0  0  0
 15 17  2  0  0  0  0
 16 15  1  0  0  0  0
 17 18  1  0  0  0  0
 18 11  1  0  0  0  0
 18  7  2  0  0  0  0
 19 22  1  0  0  0  0
 20 19  1  0  0  0  0
 21 19  1  0  0  0  0
 22 23  1  0  0  0  0
 22 24  1  0  0  0  0
 25 30  1  0  0  0  0
 25 31  1  0  0  0  0
 26 25  2  0  0  0  0
 27 28  2  0  0  0  0
 27 26  1  0  0  0  0
 28 29  1  0  0  0  0
 29 22  1  0  0  0  0
 29 30  2  0  0  0  0
 32 26  1  0  0  0  0
 33 27  1  0  0  0  0
M  END
>  <minimizedAffinity>
-6.43581533

>  <minimizedRMSD>
2.52645087

$$$$
