
     RDKit          3D

 48 52  0  0  0  0  0  0  0  0999 V2000
   35.0048   28.3826   49.4552 C   0  0  0  0  0  0  0  0  0  0  0  0
   34.2787   28.7677   48.4417 C   0  0  0  0  0  0  0  0  0  0  0  0
   37.3838   30.1689   51.5731 C   0  0  0  0  0  0  0  0  0  0  0  0
   38.0890   30.9304   50.6287 C   0  0  0  0  0  0  0  0  0  0  0  0
   37.7270   30.8156   49.2740 C   0  0  0  0  0  0  0  0  0  0  0  0
   36.6963   29.9578   48.9512 N   0  0  0  0  0  0  0  0  0  0  0  0
   36.0650   29.2572   49.9244 C   0  0  0  0  0  0  0  0  0  0  0  0
   36.3985   29.3595   51.1993 N   0  0  0  0  0  0  0  0  0  0  0  0
   38.3803   31.5625   48.2063 C   0  0  0  0  0  0  0  0  0  0  0  0
   38.5872   31.0311   46.9426 C   0  0  0  0  0  0  0  0  0  0  0  0
   39.2317   32.0262   46.1843 C   0  0  0  0  0  0  0  0  0  0  0  0
   39.3874   33.0981   47.0001 N   0  0  0  0  0  0  0  0  0  0  0  0
   38.8809   32.8151   48.1941 N   0  0  0  0  0  0  0  0  0  0  0  0
   33.1654   28.0577   47.7856 C   0  0  0  0  0  0  0  0  0  0  0  0
   33.6078   26.9171   46.9185 C   0  0  0  0  0  0  0  0  0  0  0  0
   33.7922   25.6213   47.3301 C   0  0  0  0  0  0  0  0  0  0  0  0
   34.1939   24.6507   46.4410 C   0  0  0  0  0  0  0  0  0  0  0  0
   34.4248   24.9534   45.1025 C   0  0  0  0  0  0  0  0  0  0  0  0
   34.2412   26.2421   44.6943 C   0  0  0  0  0  0  0  0  0  0  0  0
   33.8388   27.2268   45.5729 C   0  0  0  0  0  0  0  0  0  0  0  0
   34.7424   27.4069   49.8760 H   0  0  0  0  0  0  0  0  0  0  0  0
   34.5743   29.7463   48.0591 H   0  0  0  0  0  0  0  0  0  0  0  0
   37.7206   30.3108   52.6096 H   0  0  0  0  0  0  0  0  0  0  0  0
   38.9111   31.6197   50.8498 H   0  0  0  0  0  0  0  0  0  0  0  0
   38.3511   30.0814   46.5105 H   0  0  0  0  0  0  0  0  0  0  0  0
   39.5645   32.0138   45.1588 H   0  0  0  0  0  0  0  0  0  0  0  0
   39.8156   34.0517   46.8484 H   0  0  0  0  0  0  0  0  0  0  0  0
   32.5321   27.6137   48.5802 H   0  0  0  0  0  0  0  0  0  0  0  0
   32.5247   28.7278   47.1940 H   0  0  0  0  0  0  0  0  0  0  0  0
   33.5942   25.4638   48.3873 H   0  0  0  0  0  0  0  0  0  0  0  0
   34.2994   23.6817   46.8952 H   0  0  0  0  0  0  0  0  0  0  0  0
   34.7352   24.0919   44.5308 H   0  0  0  0  0  0  0  0  0  0  0  0
   34.4456   26.3839   43.6390 H   0  0  0  0  0  0  0  0  0  0  0  0
   33.7466   28.5387   44.9252 C   0  0  0  0  0  0  0  0  0  0  0  0
   32.6998   28.8261   44.1437 N   0  0  0  0  0  0  0  0  0  0  0  0
   32.5108   29.9709   43.4966 C   0  0  0  0  0  0  0  0  0  0  0  0
   33.4645   30.9122   43.6506 N   0  0  0  0  0  0  0  0  0  0  0  0
   34.5516   30.7151   44.4142 C   0  0  0  0  0  0  0  0  0  0  0  0
   35.4969   31.7433   44.5093 C   0  0  0  0  0  0  0  0  0  0  0  0
   36.5699   31.4189   45.3103 C   0  0  0  0  0  0  0  0  0  0  0  0
   37.3190   32.2167   45.3919 H   0  0  0  0  0  0  0  0  0  0  0  0
   36.8081   30.2602   45.9934 C   0  0  0  0  0  0  0  0  0  0  0  0
   37.6990   30.1327   46.5945 H   0  0  0  0  0  0  0  0  0  0  0  0
   35.8291   29.2731   45.8593 C   0  0  0  0  0  0  0  0  0  0  0  0
   34.7257   29.5059   45.0825 C   0  0  0  0  0  0  0  0  0  0  0  0
   31.6982   30.2483   42.8648 H   0  0  0  0  0  0  0  0  0  0  0  0
   35.3995   32.6940   44.0079 H   0  0  0  0  0  0  0  0  0  0  0  0
   35.9625   28.3390   46.3704 H   0  0  0  0  0  0  0  0  0  0  0  0
  1  7  1  0
  2  1  2  0
  4  3  2  0
  5  4  1  0
  6  5  2  0
  6  7  1  0
  7  8  2  0
  8  3  1  0
  9  5  1  0
 10  9  1  0
 11 10  2  0
 11 12  1  0
 12 13  1  0
 13  9  2  0
 14  2  1  0
 15 16  2  0
 15 14  1  0
 17 16  1  0
 18 17  2  0
 19 18  1  0
 19 20  2  0
 20 15  1  0
  1 21  1  0
  2 22  1  0
  3 23  1  0
  4 24  1  0
 10 25  1  0
 11 26  1  0
 12 27  1  0
 14 28  1  0
 14 29  1  0
 16 30  1  0
 17 31  1  0
 18 32  1  0
 19 33  1  0
 34 35  2  0
 35 36  1  0
 36 37  2  0
 37 38  1  0
 38 39  2  0
 39 40  1  0
 40 41  1  0
 40 42  2  0
 42 43  1  0
 42 44  1  0
 44 45  2  0
 45 34  1  0
 45 38  1  0
 36 46  1  0
 39 47  1  0
 44 48  1  0
 20 34  1  0
M  ISO  8  23  14  24  14  25  14  26  14  27   9  28   8  29   8  30  14
M  ISO  5  31  14  32  14  33  14  41  16  43  16
M  END
>  <DihAtoms>  (1) 
18,19,33,34

>  <DihDeg>  (1) 
-117.82386329033892

$$$$
