
     RDKit          3D

 27 29  0  0  0  0  0  0  0  0999 V2000
   35.5365   29.0365   50.2008 C   0  0  0  0  0  0  0  0  0  0  0  0
   36.2407   30.1219   49.6626 C   0  0  0  0  0  0  0  0  0  0  0  0
   36.0099   30.4378   48.3282 C   0  0  0  0  0  0  0  0  0  0  0  0
   35.1262   29.6867   47.6311 N   0  0  0  0  0  0  0  0  0  0  0  0
   34.4660   28.6644   48.1482 C   0  0  0  0  0  0  0  0  0  0  0  0
   34.6730   28.3471   49.4197 N   0  0  0  0  0  0  0  0  0  0  0  0
   37.1871   30.8769   50.5443 C   0  0  0  0  0  0  0  0  0  0  0  0
   38.4909   30.7691   50.0799 F   0  0  0  0  0  0  0  0  0  0  0  0
   36.8242   32.2175   50.4818 F   0  0  0  0  0  0  0  0  0  0  0  0
   37.1284   30.4511   51.8503 F   0  0  0  0  0  0  0  0  0  0  0  0
   35.7303   28.8073   51.2387 H   0  0  0  0  0  0  0  0  0  0  0  0
   36.5162   31.2462   47.8768 H   0  0  0  0  0  0  0  0  0  0  0  0
   33.4762   27.7414   47.5550 C   0  0  0  0  0  0  0  0  0  0  0  0
   32.2233   27.5866   47.9887 N   0  0  0  0  0  0  0  0  0  0  0  0
   31.3487   26.7470   47.4360 C   0  0  0  0  0  0  0  0  0  0  0  0
   31.6360   25.9666   46.3826 N   0  0  0  0  0  0  0  0  0  0  0  0
   32.8802   26.0651   45.8872 C   0  0  0  0  0  0  0  0  0  0  0  0
   33.1603   25.2650   44.8142 C   0  0  0  0  0  0  0  0  0  0  0  0
   34.4080   25.3009   44.2438 C   0  0  0  0  0  0  0  0  0  0  0  0
   34.6173   24.6680   43.4011 H   0  0  0  0  0  0  0  0  0  0  0  0
   35.3485   26.1737   44.8031 C   0  0  0  0  0  0  0  0  0  0  0  0
   36.3064   26.1588   44.3155 H   0  0  0  0  0  0  0  0  0  0  0  0
   34.9981   26.9426   45.8742 C   0  0  0  0  0  0  0  0  0  0  0  0
   33.7632   26.9426   46.4801 C   0  0  0  0  0  0  0  0  0  0  0  0
   30.3599   26.7347   47.9069 H   0  0  0  0  0  0  0  0  0  0  0  0
   32.4278   24.5966   44.3921 H   0  0  0  0  0  0  0  0  0  0  0  0
   35.7932   27.5543   46.1993 H   0  0  0  0  0  0  0  0  0  0  0  0
  2  1  2  0
  2  7  1  0
  3  2  1  0
  4  5  1  0
  4  3  2  0
  5  6  2  0
  6  1  1  0
  7 10  1  0
  8  7  1  0
  9  7  1  0
  1 11  1  0
  3 12  1  0
 13 14  2  0
 14 15  1  0
 15 16  2  0
 16 17  1  0
 17 18  2  0
 18 19  1  0
 19 20  1  0
 19 21  2  0
 21 22  1  0
 21 23  1  0
 23 24  2  0
 24 13  1  0
 24 17  1  0
 15 25  1  0
 18 26  1  0
 23 27  1  0
  5 13  1  0
M  ISO  4  11  14  12  14  20  16  22  16
M  END
>  <DihAtoms>  (1) 
3,4,12,13

>  <DihDeg>  (1) 
179.9803541692543

$$$$
