REMARK  Name = 
REMARK  4 active torsions:
REMARK  status: ('A' for Active; 'I' for Inactive)
REMARK    1  A    between atoms: C_1  and  C_15
REMARK    2  A    between atoms: C_4  and  C_7
REMARK    3  A    between atoms: C_15  and  C_17
REMARK    4  A    between atoms: C_21  and  C_32
REMARK                            x       y       z     vdW  Elec       q    Type
REMARK                         _______ _______ _______ _____ _____    ______ ____
ROOT
ATOM      1  C   UNL     1      37.223  29.526  50.052  0.00  0.00    +0.000 C 
ATOM      2  O   UNL     1      37.885  28.947  50.956  0.00  0.00    +0.000 OA
ENDROOT
BRANCH   1   3
ATOM      3  C   UNL     1      37.775  30.578  49.223  0.00  0.00    +0.000 A 
ATOM      4  C   UNL     1      38.146  31.756  49.822  0.00  0.00    +0.000 A 
ATOM      5  C   UNL     1      38.685  32.762  49.042  0.00  0.00    +0.000 A 
ATOM      6  N   UNL     1      38.816  32.527  47.723  0.00  0.00    +0.000 NA
ATOM      7  C   UNL     1      38.462  31.393  47.125  0.00  0.00    +0.000 A 
ATOM      8  N   UNL     1      37.944  30.447  47.921  0.00  0.00    +0.000 NA
ATOM      9  H   UNL     1      38.049  31.964  50.874  0.00  0.00    +0.000 HD
ATOM     10  H   UNL     1      39.010  33.713  49.376  0.00  0.00    +0.000 HD
BRANCH   7  11
ATOM     11  C   UNL     1      38.516  30.936  45.721  0.00  0.00    +0.000 A 
ATOM     12  N   UNL     1      38.952  29.730  45.341  0.00  0.00    +0.000 NA
ATOM     13  C   UNL     1      38.983  29.359  44.064  0.00  0.00    +0.000 A 
ATOM     14  N   UNL     1      38.589  30.137  43.050  0.00  0.00    +0.000 NA
ATOM     15  C   UNL     1      38.133  31.372  43.342  0.00  0.00    +0.000 A 
ATOM     16  C   UNL     1      37.727  32.173  42.303  0.00  0.00    +0.000 A 
ATOM     17  C   UNL     1      37.255  33.440  42.563  0.00  0.00    +0.000 A 
ATOM     18  H   UNL     1      36.953  34.018  41.718  0.00  0.00    +0.000 HD
ATOM     19  C   UNL     1      37.212  33.852  43.881  0.00  0.00    +0.000 A 
ATOM     20  H   UNL     1      36.834  34.851  44.032  0.00  0.00    +0.000 HD
ATOM     21  C   UNL     1      37.634  33.000  44.876  0.00  0.00    +0.000 A 
ATOM     22  C   UNL     1      38.112  31.729  44.672  0.00  0.00    +0.000 A 
ENDBRANCH   7  11
ENDBRANCH   1   3
BRANCH   1  23
ATOM     23  C   UNL     1      35.845  29.134  49.816  0.00  0.00    +0.000 A 
ATOM     24  C   UNL     1      34.819  29.635  50.550  0.00  0.00    +0.000 A 
ATOM     25  C   UNL     1      33.646  29.048  50.059  0.00  0.00    +0.000 A 
ATOM     26  C   UNL     1      34.051  28.206  49.029  0.00  0.00    +0.000 A 
ATOM     27  O   UNL     1      35.358  28.300  48.934  0.00  0.00    +0.000 OA
ATOM     28  H   UNL     1      34.858  30.359  51.376  0.00  0.00    +0.000 HD
ATOM     29  H   UNL     1      32.665  29.265  50.461  0.00  0.00    +0.000 HD
BRANCH  26  31
ATOM     30  C   UNL     1      33.532  26.423  47.345  0.00  0.00    +0.000 A 
ATOM     31  C   UNL     1      33.131  27.390  48.234  0.00  0.00    +0.000 A 
ATOM     32  C   UNL     1      31.787  27.665  48.436  0.00  0.00    +0.000 A 
ATOM     33  C   UNL     1      30.841  26.944  47.722  0.00  0.00    +0.000 A 
ATOM     34  N   UNL     1      29.511  26.987  47.705  0.00  0.00    +0.000 N 
ATOM     35  N   UNL     1      29.098  26.074  46.831  0.00  0.00    +0.000 NA
ATOM     36  C   UNL     1      30.156  25.446  46.289  0.00  0.00    +0.000 A 
ATOM     37  C   UNL     1      31.303  25.976  46.834  0.00  0.00    +0.000 A 
ATOM     38  C   UNL     1      32.654  25.693  46.626  0.00  0.00    +0.000 A 
ATOM     39  H   UNL     1      34.594  26.259  47.236  0.00  0.00    +0.000 HD
ATOM     40  H   UNL     1      31.381  28.418  49.124  0.00  0.00    +0.000 HD
ATOM     41  H   UNL     1      28.895  27.623  48.274  0.00  0.00    +0.000 HD
ATOM     42  H   UNL     1      30.075  24.666  45.554  0.00  0.00    +0.000 HD
ATOM     43  H   UNL     1      32.927  24.921  45.914  0.00  0.00    +0.000 HD
ENDBRANCH  26  31
ENDBRANCH   1  23
TORSDOF 4
