
     RDKit          3D

 40 44  0  0  0  0  0  0  0  0999 V2000
   34.8728   29.4230   48.5247 C   0  0  0  0  0  0  0  0  0  0  0  0
   34.0351   28.7688   49.3798 N   0  0  0  0  0  0  0  0  0  0  0  0
   32.9540   28.1185   48.9634 C   0  0  0  0  0  0  0  0  0  0  0  0
   32.5783   28.0379   47.6808 N   0  0  0  0  0  0  0  0  0  0  0  0
   33.3602   28.6620   46.7690 C   0  0  0  0  0  0  0  0  0  0  0  0
   32.9876   28.5850   45.4459 C   0  0  0  0  0  0  0  0  0  0  0  0
   33.7486   29.1969   44.4795 C   0  0  0  0  0  0  0  0  0  0  0  0
   34.8721   29.8696   44.9080 C   0  0  0  0  0  0  0  0  0  0  0  0
   35.2051   29.9192   46.2475 C   0  0  0  0  0  0  0  0  0  0  0  0
   34.4677   29.3235   47.2248 C   0  0  0  0  0  0  0  0  0  0  0  0
   37.5636   30.2037   50.7771 C   0  0  0  0  0  0  0  0  0  0  0  0
   38.2495   31.2956   50.2264 C   0  0  0  0  0  0  0  0  0  0  0  0
   37.7620   31.7886   49.0070 C   0  0  0  0  0  0  0  0  0  0  0  0
   36.7077   31.1802   48.4938 N   0  0  0  0  0  0  0  0  0  0  0  0
   36.0418   30.1585   48.9792 C   0  0  0  0  0  0  0  0  0  0  0  0
   36.5266   29.7176   50.1299 N   0  0  0  0  0  0  0  0  0  0  0  0
   37.9752   29.6243   52.0222 N   0  0  0  0  0  0  0  0  0  0  0  0
   32.2860   27.5931   49.6730 H   0  0  0  0  0  0  0  0  0  0  0  0
   32.0993   28.0503   45.1235 H   0  0  0  0  0  0  0  0  0  0  0  0
   33.4740   29.1491   43.4369 H   0  0  0  0  0  0  0  0  0  0  0  0
   35.4497   30.3411   44.1106 H   0  0  0  0  0  0  0  0  0  0  0  0
   36.1150   30.4615   46.4128 H   0  0  0  0  0  0  0  0  0  0  0  0
   39.0818   31.6818   50.7507 H   0  0  0  0  0  0  0  0  0  0  0  0
   38.5548   28.7714   51.8218 H   0  0  0  0  0  0  0  0  0  0  0  0
   37.7190   30.0173   52.9472 H   0  0  0  0  0  0  0  0  0  0  0  0
   38.4933   32.9378   48.5411 C   0  0  0  0  0  0  0  0  0  0  0  0
   38.9402   33.8847   49.3897 N   0  0  0  0  0  0  0  0  0  0  0  0
   39.6128   34.9787   49.0328 C   0  0  0  0  0  0  0  0  0  0  0  0
   39.9183   35.2515   47.7633 N   0  0  0  0  0  0  0  0  0  0  0  0
   39.5197   34.3728   46.8248 C   0  0  0  0  0  0  0  0  0  0  0  0
   39.7937   34.6107   45.4966 C   0  0  0  0  0  0  0  0  0  0  0  0
   39.3913   33.7526   44.5222 C   0  0  0  0  0  0  0  0  0  0  0  0
   39.6065   33.9392   43.4810 H   0  0  0  0  0  0  0  0  0  0  0  0
   38.6832   32.6093   44.9091 C   0  0  0  0  0  0  0  0  0  0  0  0
   38.3673   31.9344   44.1288 H   0  0  0  0  0  0  0  0  0  0  0  0
   38.4382   32.4223   46.2481 C   0  0  0  0  0  0  0  0  0  0  0  0
   38.8287   33.2626   47.2562 C   0  0  0  0  0  0  0  0  0  0  0  0
   39.9321   35.6892   49.8109 H   0  0  0  0  0  0  0  0  0  0  0  0
   40.3406   35.4935   45.1925 H   0  0  0  0  0  0  0  0  0  0  0  0
   37.8796   31.5383   46.4486 H   0  0  0  0  0  0  0  0  0  0  0  0
  1 15  1  0
  1  2  2  0
  3  2  1  0
  4  3  2  0
  5 10  2  0
  5  4  1  0
  6  5  1  0
  7  8  1  0
  7  6  2  0
  8  9  2  0
  9 10  1  0
 10  1  1  0
 11 17  1  0
 12 11  2  0
 13 12  1  0
 14 15  1  0
 14 13  2  0
 15 16  2  0
 16 11  1  0
  3 18  1  0
  6 19  1  0
  7 20  1  0
  8 21  1  0
  9 22  1  0
 12 23  1  0
 17 24  1  0
 17 25  1  0
 26 27  2  0
 27 28  1  0
 28 29  2  0
 29 30  1  0
 30 31  2  0
 31 32  1  0
 32 33  1  0
 32 34  2  0
 34 35  1  0
 34 36  1  0
 36 37  2  0
 37 26  1  0
 37 30  1  0
 28 38  1  0
 31 39  1  0
 36 40  1  0
 13 26  1  0
M  ISO  8  18  14  19  14  20  14  21  14  22  14  23  14  33  16  35  16
M  END
>  <DihAtoms>  (1) 
11,12,25,26

>  <DihDeg>  (1) 
6.941558335730461

$$$$
