
 OpenBabel03272503563D

 37 41  0  0  0  0  0  0  0  0999 V2000
   37.2590   29.9680   50.7970 C   0  0  0  0  0  0  0  0  0  0  0  0
   38.0980   30.8800   50.1420 C   0  0  0  0  0  0  0  0  0  0  0  0
   37.7260   31.2470   48.8400 C   0  0  0  0  0  0  0  0  0  0  0  0
   36.6250   30.7010   48.3570 N   0  0  0  0  0  0  0  0  0  0  0  0
   35.8160   29.8470   48.9390 C   0  0  0  0  0  0  0  0  0  0  0  0
   36.1950   29.5220   50.1650 N   0  0  0  0  0  0  0  0  0  0  0  0
   38.9510   31.2350   50.6550 H   0  0  0  0  0  0  0  0  0  0  0  0
   34.5830   29.1980   48.5240 C   0  0  0  0  0  0  0  0  0  0  0  0
   33.7550   28.5590   49.4000 N   0  0  0  0  0  0  0  0  0  0  0  0
   32.6160   27.9900   49.0200 C   0  0  0  0  0  0  0  0  0  0  0  0
   32.1670   27.9830   47.7590 N   0  0  0  0  0  0  0  0  0  0  0  0
   32.9350   28.5970   46.8290 C   0  0  0  0  0  0  0  0  0  0  0  0
   32.4880   28.5950   45.5270 C   0  0  0  0  0  0  0  0  0  0  0  0
   33.2300   29.2010   44.5430 C   0  0  0  0  0  0  0  0  0  0  0  0
   34.4130   29.7910   44.9320 C   0  0  0  0  0  0  0  0  0  0  0  0
   34.8200   29.7670   46.2520 C   0  0  0  0  0  0  0  0  0  0  0  0
   34.1030   29.1750   47.2460 C   0  0  0  0  0  0  0  0  0  0  0  0
   31.9570   27.4750   49.7470 H   0  0  0  0  0  0  0  0  0  0  0  0
   31.5520   28.1260   45.2350 H   0  0  0  0  0  0  0  0  0  0  0  0
   32.8970   29.2120   43.5160 H   0  0  0  0  0  0  0  0  0  0  0  0
   34.9740   30.2600   44.1220 H   0  0  0  0  0  0  0  0  0  0  0  0
   35.7680   30.2490   46.3860 H   0  0  0  0  0  0  0  0  0  0  0  0
   38.6140   32.2220   48.2630 C   0  0  0  0  0  0  0  0  0  0  0  0
   38.8970   33.3800   48.8900 N   0  0  0  0  0  0  0  0  0  0  0  0
   39.6990   34.3330   48.4150 C   0  0  0  0  0  3  0  0  0  0  0  0
   40.3180   34.2300   47.2380 N   0  0  0  0  0  0  0  0  0  0  0  0
   40.1080   33.1100   46.5210 C   0  0  0  0  0  0  0  0  0  0  0  0
   40.7100   32.9560   45.2920 C   0  0  0  0  0  3  0  0  0  0  0  0
   40.5060   31.8460   44.5350 C   0  0  0  0  0  0  0  0  0  0  0  0
   40.9770   31.7240   43.5720 H   0  0  0  0  0  0  0  0  0  0  0  0
   39.6590   30.8530   45.0430 C   0  0  0  0  0  0  0  0  0  0  0  0
   39.5030   29.9760   44.4340 H   0  0  0  0  0  0  0  0  0  0  0  0
   39.0870   31.0600   46.2740 C   0  0  0  0  0  3  0  0  0  0  0  0
   39.2700   32.1630   47.0650 C   0  0  0  0  0  0  0  0  0  0  0  0
   37.5430   29.5280   52.1320 N   0  0  0  0  0  0  0  0  0  0  0  0
   38.0180   28.5930   52.0850 H   0  0  0  0  0  0  0  0  0  0  0  0
   37.3020   30.0780   52.9780 H   0  0  0  0  0  0  0  0  0  0  0  0
  1 35  1  0  0  0  0
  2  7  1  0  0  0  0
  2  1  2  0  0  0  0
  3  2  1  0  0  0  0
  4  3  2  0  0  0  0
  4  5  1  0  0  0  0
  5  6  2  0  0  0  0
  6  1  1  0  0  0  0
  8  5  1  0  0  0  0
  8  9  1  0  0  0  0
 10  9  2  0  0  0  0
 10 18  1  0  0  0  0
 11 10  1  0  0  0  0
 12 17  1  0  0  0  0
 12 11  2  0  0  0  0
 13 12  1  0  0  0  0
 14 15  1  0  0  0  0
 14 13  2  0  0  0  0
 15 16  2  0  0  0  0
 16 22  1  0  0  0  0
 16 17  1  0  0  0  0
 17  8  2  0  0  0  0
 19 13  1  0  0  0  0
 20 14  1  0  0  0  0
 21 15  1  0  0  0  0
 23  3  1  0  0  0  0
 23 24  1  0  0  0  0
 25 24  2  0  0  0  0
 26 25  1  0  0  0  0
 27 34  1  0  0  0  0
 27 26  2  0  0  0  0
 28 27  1  0  0  0  0
 29 31  1  0  0  0  0
 29 28  2  0  0  0  0
 30 29  1  0  0  0  0
 31 33  2  0  0  0  0
 32 31  1  0  0  0  0
 33 34  1  0  0  0  0
 34 23  2  0  0  0  0
 35 37  1  0  0  0  0
 36 35  1  0  0  0  0
M  END
>  <minimizedAffinity>
-7.72244358

>  <minimizedRMSD>
0.772129655

$$$$
