REMARK  Name = 
REMARK  1 active torsions:
REMARK  status: ('A' for Active; 'I' for Inactive)
REMARK    1  A    between atoms: C_2  and  C_22
REMARK                            x       y       z     vdW  Elec       q    Type
REMARK                         _______ _______ _______ _____ _____    ______ ____
ROOT
ATOM      1  C   UNL     1      38.091  33.142  49.500  0.00  0.00    +0.000 A 
ATOM      2  C   UNL     1      38.943  33.059  48.395  0.00  0.00    +0.000 A 
ATOM      3  C   UNL     1      38.718  32.036  47.440  0.00  0.00    +0.000 A 
ATOM      4  N   UNL     1      37.677  31.173  47.642  0.00  0.00    +0.000 NA
ATOM      5  C   UNL     1      36.885  31.305  48.736  0.00  0.00    +0.000 A 
ATOM      6  N   UNL     1      37.078  32.269  49.656  0.00  0.00    +0.000 NA
ATOM      7  N   UNL     1      35.805  30.356  48.891  0.00  0.00    +0.000 N 
ATOM      8  C   UNL     1      34.724  30.199  47.945  0.00  0.00    +0.000 C 
ATOM      9  C   UNL     1      34.020  28.958  48.377  0.00  0.00    +0.000 C 
ATOM     10  C   UNL     1      34.897  28.308  49.437  0.00  0.00    +0.000 C 
ATOM     11  C   UNL     1      35.662  29.435  50.018  0.00  0.00    +0.000 C 
ATOM     12  H   UNL     1      38.274  33.931  50.192  0.00  0.00    +0.000 HD
ATOM     13  H   UNL     1      39.319  31.893  46.559  0.00  0.00    +0.000 HD
ATOM     14  H   UNL     1      34.016  31.053  47.958  0.00  0.00    +0.000 HD
ATOM     15  H   UNL     1      35.094  30.120  46.901  0.00  0.00    +0.000 HD
ATOM     16  H   UNL     1      33.898  28.274  47.520  0.00  0.00    +0.000 HD
ATOM     17  H   UNL     1      33.010  29.189  48.777  0.00  0.00    +0.000 HD
ATOM     18  H   UNL     1      35.535  27.520  48.975  0.00  0.00    +0.000 HD
ATOM     19  H   UNL     1      34.218  27.877  50.214  0.00  0.00    +0.000 HD
ATOM     20  H   UNL     1      35.186  29.902  50.888  0.00  0.00    +0.000 HD
ATOM     21  H   UNL     1      36.672  29.051  50.341  0.00  0.00    +0.000 HD
ENDROOT
BRANCH   2  22
ATOM     22  C   UNL     1      40.080  33.877  48.079  0.00  0.00    +0.000 A 
ATOM     23  N   UNL     1      41.008  33.311  47.273  0.00  0.00    +0.000 NA
ATOM     24  C   UNL     1      42.099  34.013  46.936  0.00  0.00    +0.000 A 
ATOM     25  N   UNL     1      42.370  35.287  47.344  0.00  0.00    +0.000 NA
ATOM     26  C   UNL     1      41.467  35.878  48.148  0.00  0.00    +0.000 A 
ATOM     27  C   UNL     1      41.632  37.173  48.642  0.00  0.00    +0.000 A 
ATOM     28  C   UNL     1      40.680  37.753  49.485  0.00  0.00    +0.000 A 
ATOM     29  H   UNL     1      40.832  38.756  49.853  0.00  0.00    +0.000 HD
ATOM     30  C   UNL     1      39.542  37.018  49.837  0.00  0.00    +0.000 A 
ATOM     31  H   UNL     1      38.802  37.474  50.496  0.00  0.00    +0.000 HD
ATOM     32  C   UNL     1      39.416  35.743  49.328  0.00  0.00    +0.000 A 
ATOM     33  C   UNL     1      40.348  35.162  48.495  0.00  0.00    +0.000 A 
ENDBRANCH   2  22
TORSDOF 1
