
     RDKit          3D

 45 49  0  0  0  0  0  0  0  0999 V2000
   34.3254   30.4573   47.6048 F   0  0  0  0  0  0  0  0  0  0  0  0
   34.7446   29.9892   46.3877 C   0  0  0  0  0  0  0  0  0  0  0  0
   33.8813   29.3633   45.4920 C   0  0  0  0  0  0  0  0  0  0  0  0
   34.3685   28.9351   44.2852 C   0  0  0  0  0  0  0  0  0  0  0  0
   35.7161   29.1235   43.9551 C   0  0  0  0  0  0  0  0  0  0  0  0
   36.5255   29.7493   44.8817 C   0  0  0  0  0  0  0  0  0  0  0  0
   36.0886   30.1837   46.0758 C   0  0  0  0  0  0  0  0  0  0  0  0
   37.9780   32.4269   44.9654 Br  0  0  0  0  0  0  0  0  0  0  0  0
   37.8844   31.8454   46.7771 C   0  0  0  0  0  0  0  0  0  0  0  0
   36.9955   30.8235   47.0081 C   0  0  0  0  0  0  0  0  0  0  0  0
   36.9016   30.3147   48.3160 C   0  0  0  0  0  0  0  0  0  0  0  0
   37.6627   30.8192   49.3129 C   0  0  0  0  0  0  0  0  0  0  0  0
   38.5359   31.8448   49.0266 C   0  0  0  0  0  0  0  0  0  0  0  0
   38.6608   32.3815   47.7325 C   0  0  0  0  0  0  0  0  0  0  0  0
   39.4944   33.3927   47.3673 O   0  0  0  0  0  0  0  0  0  0  0  0
   32.2585   28.2009   46.8377 C   0  0  0  0  0  0  0  0  0  0  0  0
   32.5258   29.2292   45.9518 C   0  0  0  0  0  0  0  0  0  0  0  0
   31.4792   30.0552   45.6042 C   0  0  0  0  0  0  0  0  0  0  0  0
   30.2432   29.8504   46.1250 N   0  0  0  0  0  0  0  0  0  0  0  0
   30.0135   28.8672   46.9677 C   0  0  0  0  0  0  0  0  0  0  0  0
   30.9916   28.0592   47.3182 N   0  0  0  0  0  0  0  0  0  0  0  0
   33.6648   28.4565   43.6246 H   0  0  0  0  0  0  0  0  0  0  0  0
   36.0670   28.7716   42.9895 H   0  0  0  0  0  0  0  0  0  0  0  0
   37.5506   29.8591   44.5570 H   0  0  0  0  0  0  0  0  0  0  0  0
   36.2297   29.5106   48.5847 H   0  0  0  0  0  0  0  0  0  0  0  0
   37.6442   30.4794   50.3371 H   0  0  0  0  0  0  0  0  0  0  0  0
   39.1680   32.2839   49.7941 H   0  0  0  0  0  0  0  0  0  0  0  0
   40.0003   33.9146   48.0788 H   0  0  0  0  0  0  0  0  0  0  0  0
   33.0722   27.5198   47.1359 H   0  0  0  0  0  0  0  0  0  0  0  0
   31.6395   30.8665   44.9176 H   0  0  0  0  0  0  0  0  0  0  0  0
   28.7738   28.4588   47.6541 C   0  0  0  0  0  0  0  0  0  0  0  0
   28.0578   29.2247   48.5025 N   0  0  0  0  0  0  0  0  0  0  0  0
   26.9457   28.8756   49.1256 C   0  0  0  0  0  0  0  0  0  0  0  0
   26.4114   27.6581   48.9512 N   0  0  0  0  0  0  0  0  0  0  0  0
   27.0370   26.7942   48.1220 C   0  0  0  0  0  0  0  0  0  0  0  0
   26.4685   25.5630   47.9653 C   0  0  0  0  0  0  0  0  0  0  0  0
   27.0595   24.6384   47.1331 C   0  0  0  0  0  0  0  0  0  0  0  0
   26.5688   23.6825   47.0460 H   0  0  0  0  0  0  0  0  0  0  0  0
   28.2227   25.0151   46.4865 C   0  0  0  0  0  0  0  0  0  0  0  0
   28.6478   24.2551   45.8451 H   0  0  0  0  0  0  0  0  0  0  0  0
   28.7477   26.2724   46.6855 C   0  0  0  0  0  0  0  0  0  0  0  0
   28.1894   27.2224   47.5063 C   0  0  0  0  0  0  0  0  0  0  0  0
   26.5963   29.7109   49.7479 H   0  0  0  0  0  0  0  0  0  0  0  0
   25.5427   25.2994   48.4962 H   0  0  0  0  0  0  0  0  0  0  0  0
   29.6352   26.4235   46.1307 H   0  0  0  0  0  0  0  0  0  0  0  0
  2  1  1  0
  3 17  1  0
  3  2  2  0
  4  3  1  0
  5  4  2  0
  5  6  1  0
  6  7  2  0
  7  2  1  0
  7 10  1  0
  8  9  1  0
  9 10  2  0
  9 14  1  0
 10 11  1  0
 11 12  2  0
 13 12  1  0
 14 13  2  0
 15 14  1  0
 16 21  2  0
 17 16  1  0
 18 17  2  0
 18 19  1  0
 19 20  2  0
 20 21  1  0
  4 22  1  0
  5 23  1  0
  6 24  1  0
 11 25  1  0
 12 26  1  0
 13 27  1  0
 15 28  1  0
 16 29  1  0
 18 30  1  0
 31 32  2  0
 32 33  1  0
 33 34  2  0
 34 35  1  0
 35 36  2  0
 36 37  1  0
 37 38  1  0
 37 39  2  0
 39 40  1  0
 39 41  1  0
 41 42  2  0
 42 31  1  0
 42 35  1  0
 33 43  1  0
 36 44  1  0
 41 45  1  0
 20 31  1  0
M  ISO  8  22  14  23  14  24  14  25  14  26  14  27  14  28   3  29  14
M  ISO  3  30  14  38  16  40  16
M  END
>  <DihAtoms>  (1) 
18,19,30,31

>  <DihDeg>  (1) 
179.98107684226517

$$$$
