
     RDKit          3D

 47 51  0  0  0  0  0  0  0  0999 V2000
   36.4119   29.7611   48.6737 N   0  0  0  0  0  0  0  0  0  0  0  0
   37.5413   30.5262   48.2365 C   0  0  0  0  0  0  0  0  0  0  0  0
   38.0323   31.1542   49.5423 C   0  0  2  0  0  0  0  0  0  0  0  0
   37.0151   30.7689   50.6107 C   0  0  0  0  0  0  0  0  0  0  0  0
   36.6664   29.3924   50.0543 C   0  0  0  0  0  0  0  0  0  0  0  0
   35.2484   29.4216   47.8984 C   0  0  0  0  0  0  0  0  0  0  0  0
   35.1185   30.0327   46.6413 C   0  0  0  0  0  0  0  0  0  0  0  0
   33.9848   29.7008   45.8901 C   0  0  0  0  0  0  0  0  0  0  0  0
   33.0909   28.8051   46.4417 N   0  0  0  0  0  0  0  0  0  0  0  0
   33.2618   28.2532   47.6405 C   0  0  0  0  0  0  0  0  0  0  0  0
   34.3435   28.5553   48.3836 N   0  0  0  0  0  0  0  0  0  0  0  0
   32.0674   27.1064   48.2850 S   0  0  0  0  0  0  0  0  0  0  0  0
   30.5855   27.7095   48.8149 C   0  0  0  0  0  0  0  0  0  0  0  0
   29.8109   27.8664   49.9225 C   0  0  0  0  0  0  0  0  0  0  0  0
   28.5727   28.4457   49.9607 C   0  0  0  0  0  0  0  0  0  0  0  0
   28.1178   28.9133   48.6287 C   0  0  0  0  0  0  0  0  0  0  0  0
   29.4856   28.4772   47.5198 S   0  0  0  0  0  0  0  0  0  0  0  0
   38.1887   32.6430   49.4213 C   0  0  0  0  0  0  0  0  0  0  0  0
   37.0392   33.2023   49.9461 F   0  0  0  0  0  0  0  0  0  0  0  0
   38.1978   32.9586   48.0840 F   0  0  0  0  0  0  0  0  0  0  0  0
   39.3126   33.1192   50.0477 F   0  0  0  0  0  0  0  0  0  0  0  0
   37.2993   31.2893   47.4872 H   0  0  0  0  0  0  0  0  0  0  0  0
   38.3340   29.8384   47.8715 H   0  0  0  0  0  0  0  0  0  0  0  0
   39.0072   30.7265   49.8623 H   0  0  0  0  0  0  0  0  0  0  0  0
   36.1166   31.3943   50.5970 H   0  0  0  0  0  0  0  0  0  0  0  0
   37.4936   30.7081   51.5899 H   0  0  0  0  0  0  0  0  0  0  0  0
   37.5713   28.7675   50.1539 H   0  0  0  0  0  0  0  0  0  0  0  0
   35.7940   29.0085   50.5784 H   0  0  0  0  0  0  0  0  0  0  0  0
   35.8060   30.7220   46.2162 H   0  0  0  0  0  0  0  0  0  0  0  0
   33.7991   30.1164   44.9193 H   0  0  0  0  0  0  0  0  0  0  0  0
   30.3569   27.4497   50.7558 H   0  0  0  0  0  0  0  0  0  0  0  0
   28.0810   28.5378   50.8881 H   0  0  0  0  0  0  0  0  0  0  0  0
   26.9940   29.6041   48.2000 C   0  0  0  0  0  0  0  0  0  0  0  0
   25.8396   28.8652   48.1327 N   0  0  0  0  0  0  0  0  0  0  0  0
   24.6850   29.3330   47.6396 C   0  0  0  0  0  0  0  0  0  0  0  0
   24.5574   30.5831   47.1631 N   0  0  0  0  0  0  0  0  0  0  0  0
   25.6212   31.4003   47.1802 C   0  0  0  0  0  0  0  0  0  0  0  0
   25.6001   32.7102   46.7483 C   0  0  0  0  0  0  0  0  0  0  0  0
   26.7231   33.5396   46.8165 C   0  0  0  0  0  0  0  0  0  0  0  0
   26.6324   34.5635   46.4559 H   0  0  0  0  0  0  0  0  0  0  0  0
   27.8866   32.9735   47.3514 C   0  0  0  0  0  0  0  0  0  0  0  0
   28.7281   33.6506   47.3861 H   0  0  0  0  0  0  0  0  0  0  0  0
   27.8702   31.6699   47.7689 C   0  0  0  0  0  0  0  0  0  0  0  0
   26.7734   30.8598   47.6987 C   0  0  0  0  0  0  0  0  0  0  0  0
   23.8010   28.6746   47.6193 H   0  0  0  0  0  0  0  0  0  0  0  0
   24.6411   33.0229   46.3581 H   0  0  0  0  0  0  0  0  0  0  0  0
   28.8111   31.3881   48.1848 H   0  0  0  0  0  0  0  0  0  0  0  0
  1  5  1  0
  2  1  1  0
  2  3  1  0
  3  4  1  0
  5  4  1  0
  6 11  1  0
  6  1  1  0
  7  6  2  0
  8  9  2  0
  8  7  1  0
  9 10  1  0
 10 12  1  0
 10 11  2  0
 12 13  1  0
 13 14  2  0
 14 15  1  0
 16 15  2  0
 17 16  1  0
 17 13  1  0
 18  3  1  0
 18 19  1  0
 18 21  1  0
 20 18  1  0
  2 22  1  0
  2 23  1  0
  3 24  1  1
  4 25  1  0
  4 26  1  0
  5 27  1  0
  5 28  1  0
  7 29  1  0
  8 30  1  0
 14 31  1  0
 15 32  1  0
 33 34  2  0
 34 35  1  0
 35 36  2  0
 36 37  1  0
 37 38  2  0
 38 39  1  0
 39 40  1  0
 39 41  2  0
 41 42  1  0
 41 43  1  0
 43 44  2  0
 44 33  1  0
 44 37  1  0
 35 45  1  0
 38 46  1  0
 43 47  1  0
 16 33  1  0
M  ISO  8  22  13  23  13  24  13  25  13  26  13  27  13  28  13  29  14
M  ISO  5  30  14  31  14  32  14  40  16  42  16
M  END
>  <DihAtoms>  (1) 
14,15,32,33

>  <DihDeg>  (1) 
149.0738518450651

$$$$
