
 OpenBabel03272503273D

 33 36  0  0  1  0  0  0  0  0999 V2000
   35.8750   29.5790   49.1900 N   0  0  0  0  0  0  0  0  0  0  0  0
   37.2480   29.5820   48.7540 C   0  0  0  0  0  0  0  0  0  0  0  0
   37.9310   30.5390   49.7180 C   0  0  2  0  0  0  0  0  0  0  0  0
   36.8140   31.0140   50.6610 C   0  0  0  0  0  0  0  0  0  0  0  0
   35.9040   29.8090   50.6140 C   0  0  0  0  0  0  0  0  0  0  0  0
   37.3780   29.9960   47.7330 H   0  0  0  0  0  0  0  0  0  0  0  0
   37.7070   28.5740   48.7510 H   0  0  0  0  0  0  0  0  0  0  0  0
   38.6850   29.9630   50.2660 H   0  0  0  0  0  0  0  0  0  0  0  0
   36.3260   31.8420   50.1160 H   0  0  0  0  0  0  0  0  0  0  0  0
   37.1810   31.2720   51.6540 H   0  0  0  0  0  0  0  0  0  0  0  0
   36.3950   28.9640   51.1560 H   0  0  0  0  0  0  0  0  0  0  0  0
   34.8900   30.0110   51.0240 H   0  0  0  0  0  0  0  0  0  0  0  0
   38.5120   31.7020   48.9970 C   0  0  0  0  0  0  0  0  0  0  0  0
   38.7130   32.8310   49.7390 N   0  0  0  0  0  0  0  0  0  0  0  0
   39.2310   33.9600   49.2400 C   0  0  0  0  0  3  0  0  0  0  0  0
   39.5850   34.0170   47.9280 N   0  0  0  0  0  0  0  0  0  0  0  0
   39.4100   32.9370   47.1450 C   0  0  0  0  0  0  0  0  0  0  0  0
   39.7430   32.9130   45.8010 C   0  0  0  0  0  3  0  0  0  0  0  0
   39.5520   31.7860   45.0050 C   0  0  0  0  0  0  0  0  0  0  0  0
   39.8130   31.7690   43.9540 H   0  0  0  0  0  0  0  0  0  0  0  0
   39.0080   30.6450   45.5950 C   0  0  0  0  0  0  0  0  0  0  0  0
   38.8700   29.7730   44.9460 H   0  0  0  0  0  0  0  0  0  0  0  0
   38.6700   30.6480   46.9330 C   0  0  0  0  0  3  0  0  0  0  0  0
   38.8750   31.7860   47.6840 C   0  0  0  0  0  0  0  0  0  0  0  0
   34.7220   29.3860   48.3700 C   0  0  0  0  0  0  0  0  0  0  0  0
   34.5440   30.2480   47.2910 C   0  0  0  0  0  0  0  0  0  0  0  0
   33.4190   30.0610   46.4910 C   0  0  0  0  0  0  0  0  0  0  0  0
   32.5550   29.0400   46.8110 N   0  0  0  0  0  0  0  0  0  0  0  0
   32.7630   28.2300   47.8600 C   0  0  0  0  0  0  0  0  0  0  0  0
   33.8620   28.4010   48.6570 N   0  0  0  0  0  0  0  0  0  0  0  0
   35.1910   31.0430   47.0180 H   0  0  0  0  0  0  0  0  0  0  0  0
   33.2140   30.6860   45.6410 H   0  0  0  0  0  0  0  0  0  0  0  0
   32.0850   27.4260   48.1150 H   0  0  0  0  0  0  0  0  0  0  0  0
  1  5  1  0  0  0  0
  2  1  1  0  0  0  0
  2  3  1  0  0  0  0
  3  8  1  1  0  0  0
  3  4  1  0  0  0  0
  4 10  1  0  0  0  0
  5  4  1  0  0  0  0
  5 12  1  0  0  0  0
  5 11  1  0  0  0  0
  6  2  1  0  0  0  0
  7  2  1  0  0  0  0
  9  4  1  0  0  0  0
 13  3  1  0  0  0  0
 13 14  1  0  0  0  0
 15 14  2  0  0  0  0
 16 15  1  0  0  0  0
 17 24  1  0  0  0  0
 17 16  2  0  0  0  0
 18 17  1  0  0  0  0
 19 21  1  0  0  0  0
 19 18  2  0  0  0  0
 20 19  1  0  0  0  0
 21 23  2  0  0  0  0
 22 21  1  0  0  0  0
 23 24  1  0  0  0  0
 24 13  2  0  0  0  0
 25 30  1  0  0  0  0
 25  1  1  0  0  0  0
 26 25  2  0  0  0  0
 27 28  2  0  0  0  0
 27 26  1  0  0  0  0
 28 29  1  0  0  0  0
 29 33  1  0  0  0  0
 29 30  2  0  0  0  0
 31 26  1  0  0  0  0
 32 27  1  0  0  0  0
M  END
>  <minimizedAffinity>
-6.13705301

>  <minimizedRMSD>
2.4078126

$$$$
