
 OpenBabel03272503273D

 33 36  0  0  1  0  0  0  0  0999 V2000
   32.2650   28.3520   47.3950 N   0  0  0  0  0  0  0  0  0  0  0  0
   33.6050   28.0480   46.9640 C   0  0  0  0  0  0  0  0  0  0  0  0
   34.4260   28.1430   48.2400 C   0  0  2  0  0  0  0  0  0  0  0  0
   33.4120   28.5140   49.3340 C   0  0  0  0  0  0  0  0  0  0  0  0
   32.1650   27.8870   48.7580 C   0  0  0  0  0  0  0  0  0  0  0  0
   34.0130   28.7970   46.2540 H   0  0  0  0  0  0  0  0  0  0  0  0
   33.6910   27.0610   46.4690 H   0  0  0  0  0  0  0  0  0  0  0  0
   34.8530   27.1520   48.4250 H   0  0  0  0  0  0  0  0  0  0  0  0
   33.3170   29.6130   49.2620 H   0  0  0  0  0  0  0  0  0  0  0  0
   33.6990   28.1430   50.3170 H   0  0  0  0  0  0  0  0  0  0  0  0
   32.2570   26.7750   48.8190 H   0  0  0  0  0  0  0  0  0  0  0  0
   31.2320   28.2380   49.2500 H   0  0  0  0  0  0  0  0  0  0  0  0
   35.4640   29.2030   48.1320 C   0  0  0  0  0  0  0  0  0  0  0  0
   35.5890   29.8000   46.9110 N   0  0  0  0  0  0  0  0  0  0  0  0
   36.4710   30.7750   46.6530 C   0  0  0  0  0  3  0  0  0  0  0  0
   37.2990   31.2120   47.6390 N   0  0  0  0  0  0  0  0  0  0  0  0
   37.2230   30.6620   48.8640 C   0  0  0  0  0  0  0  0  0  0  0  0
   38.0300   31.0510   49.9210 C   0  0  0  0  0  3  0  0  0  0  0  0
   37.9380   30.4680   51.1830 C   0  0  0  0  0  0  0  0  0  0  0  0
   38.5710   30.7730   52.0080 H   0  0  0  0  0  0  0  0  0  0  0  0
   36.9950   29.4580   51.3770 C   0  0  0  0  0  0  0  0  0  0  0  0
   36.9440   29.0180   52.3800 H   0  0  0  0  0  0  0  0  0  0  0  0
   36.1820   29.0570   50.3380 C   0  0  0  0  0  3  0  0  0  0  0  0
   36.3060   29.6600   49.1050 C   0  0  0  0  0  0  0  0  0  0  0  0
   31.2450   28.9860   46.6220 C   0  0  0  0  0  0  0  0  0  0  0  0
   31.6290   30.0120   45.7630 C   0  0  0  0  0  0  0  0  0  0  0  0
   30.6340   30.6310   45.0080 C   0  0  0  0  0  0  0  0  0  0  0  0
   29.3380   30.1940   45.1560 N   0  0  0  0  0  0  0  0  0  0  0  0
   29.0100   29.2010   45.9950 C   0  0  0  0  0  0  0  0  0  0  0  0
   29.9740   28.5830   46.7440 N   0  0  0  0  0  0  0  0  0  0  0  0
   32.6170   30.3710   45.6260 H   0  0  0  0  0  0  0  0  0  0  0  0
   30.8530   31.4300   44.3240 H   0  0  0  0  0  0  0  0  0  0  0  0
   27.9910   28.8560   46.1140 H   0  0  0  0  0  0  0  0  0  0  0  0
  1  5  1  0  0  0  0
  2  1  1  0  0  0  0
  2  3  1  0  0  0  0
  3  8  1  1  0  0  0
  3  4  1  0  0  0  0
  4 10  1  0  0  0  0
  5 11  1  0  0  0  0
  5 12  1  0  0  0  0
  5  4  1  0  0  0  0
  6  2  1  0  0  0  0
  7  2  1  0  0  0  0
  9  4  1  0  0  0  0
 13  3  1  0  0  0  0
 13 24  1  0  0  0  0
 14 13  2  0  0  0  0
 15 14  1  0  0  0  0
 15 16  2  0  0  0  0
 16 17  1  0  0  0  0
 17 24  2  0  0  0  0
 17 18  1  0  0  0  0
 18 19  2  0  0  0  0
 19 21  1  0  0  0  0
 19 20  1  0  0  0  0
 21 22  1  0  0  0  0
 23 21  2  0  0  0  0
 24 23  1  0  0  0  0
 25 30  1  0  0  0  0
 25  1  1  0  0  0  0
 26 25  2  0  0  0  0
 27 28  2  0  0  0  0
 27 26  1  0  0  0  0
 28 29  1  0  0  0  0
 29 33  1  0  0  0  0
 29 30  2  0  0  0  0
 31 26  1  0  0  0  0
 32 27  1  0  0  0  0
M  END
>  <minimizedAffinity>
-5.62791252

>  <minimizedRMSD>
4.87255573

$$$$
