
 OpenBabel03272503333D

 44 48  0  0  1  0  0  0  0  0999 V2000
   35.8780   29.7530   47.8110 C   0  0  0  0  0  0  0  0  0  0  0  0
   35.8850   30.3970   46.5640 C   0  0  0  0  0  0  0  0  0  0  0  0
   35.0310   29.8830   45.5810 C   0  0  0  0  0  0  0  0  0  0  0  0
   34.2550   28.7910   45.9150 N   0  0  0  0  0  0  0  0  0  0  0  0
   34.2870   28.2160   47.1150 C   0  0  0  0  0  0  0  0  0  0  0  0
   35.0990   28.6900   48.0780 N   0  0  0  0  0  0  0  0  0  0  0  0
   36.4830   31.2370   46.3070 H   0  0  0  0  0  0  0  0  0  0  0  0
   34.9670   30.3080   44.5980 H   0  0  0  0  0  0  0  0  0  0  0  0
   36.7540   30.2780   48.8250 N   0  0  0  0  0  0  0  0  0  0  0  0
   38.0930   30.7520   48.6380 C   0  0  0  0  0  0  0  0  0  0  0  0
   38.2290   31.7850   49.7590 C   0  0  2  0  0  0  0  0  0  0  0  0
   36.8560   31.8890   50.4140 C   0  0  0  0  0  0  0  0  0  0  0  0
   36.4490   30.4300   50.2350 C   0  0  0  0  0  0  0  0  0  0  0  0
   38.2760   31.1980   47.6540 H   0  0  0  0  0  0  0  0  0  0  0  0
   38.8090   29.9270   48.8480 H   0  0  0  0  0  0  0  0  0  0  0  0
   38.9330   31.4440   50.5490 H   0  0  0  0  0  0  0  0  0  0  0  0
   36.1590   32.5220   49.8550 H   0  0  0  0  0  0  0  0  0  0  0  0
   36.9540   32.1640   51.4660 H   0  0  0  0  0  0  0  0  0  0  0  0
   37.1230   29.8290   50.8700 H   0  0  0  0  0  0  0  0  0  0  0  0
   35.3930   30.3250   50.4730 H   0  0  0  0  0  0  0  0  0  0  0  0
   38.7110   33.1100   49.2410 C   0  0  0  0  0  0  0  0  0  0  0  0
   37.5850   33.8860   49.0440 F   0  0  0  0  0  0  0  0  0  0  0  0
   39.2610   32.9030   47.9990 F   0  0  0  0  0  0  0  0  0  0  0  0
   39.6070   33.7230   50.0810 F   0  0  0  0  0  0  0  0  0  0  0  0
   33.2580   26.8110   47.4700 S   0  0  0  0  0  0  0  0  0  0  0  0
   31.6710   27.0880   47.9660 C   0  0  0  0  0  0  0  0  0  0  0  0
   30.7250   26.6800   48.8540 C   0  0  0  0  0  0  0  0  0  0  0  0
   29.4570   27.1790   48.9620 C   0  0  0  0  0  0  0  0  0  0  0  0
   29.1800   28.2560   47.9810 C   0  0  0  0  0  0  0  0  0  0  0  0
   30.7320   28.4160   47.0550 S   0  0  0  0  0  0  0  0  0  0  0  0
   31.1650   25.8950   49.4520 H   0  0  0  0  0  0  0  0  0  0  0  0
   28.8210   26.8010   49.7130 H   0  0  0  0  0  0  0  0  0  0  0  0
   28.0880   29.0840   47.7660 C   0  0  0  0  0  0  0  0  0  0  0  0
   28.2340   30.0000   46.7540 N   0  0  0  0  0  0  0  0  0  0  0  0
   27.3310   30.9490   46.4740 C   0  0  0  0  0  0  0  0  0  0  0  0
   26.1890   31.0870   47.1700 N   0  0  0  0  0  0  0  0  0  0  0  0
   25.9360   30.2440   48.1830 C   0  0  0  0  0  0  0  0  0  0  0  0
   24.7860   30.2720   48.9440 C   0  0  0  0  0  0  0  0  0  0  0  0
   24.5450   29.3520   49.9690 C   0  0  0  0  0  0  0  0  0  0  0  0
   23.6140   29.4340   50.5290 H   0  0  0  0  0  0  0  0  0  0  0  0
   25.5370   28.3890   50.1910 C   0  0  0  0  0  0  0  0  0  0  0  0
   25.3070   27.6990   50.9910 H   0  0  0  0  0  0  0  0  0  0  0  0
   26.6650   28.3940   49.4160 C   0  0  0  0  0  0  0  0  0  0  0  0
   26.9010   29.2950   48.4170 C   0  0  0  0  0  0  0  0  0  0  0  0
  1  6  1  0  0  0  0
  1  9  1  0  0  0  0
  2  1  2  0  0  0  0
  3  4  2  0  0  0  0
  3  2  1  0  0  0  0
  4  5  1  0  0  0  0
  5 25  1  0  0  0  0
  5  6  2  0  0  0  0
  7  2  1  0  0  0  0
  8  3  1  0  0  0  0
  9 13  1  0  0  0  0
 10  9  1  0  0  0  0
 10 15  1  0  0  0  0
 10 11  1  0  0  0  0
 11 12  1  0  0  0  0
 11 16  1  1  0  0  0
 12 18  1  0  0  0  0
 13 12  1  0  0  0  0
 13 20  1  0  0  0  0
 13 19  1  0  0  0  0
 14 10  1  0  0  0  0
 17 12  1  0  0  0  0
 21 11  1  0  0  0  0
 21 24  1  0  0  0  0
 22 21  1  0  0  0  0
 23 21  1  0  0  0  0
 25 26  1  0  0  0  0
 26 27  2  0  0  0  0
 27 28  1  0  0  0  0
 27 31  1  0  0  0  0
 28 32  1  0  0  0  0
 29 28  2  0  0  0  0
 30 26  1  0  0  0  0
 30 29  1  0  0  0  0
 33 29  1  0  0  0  0
 33 44  1  0  0  0  0
 34 33  2  0  0  0  0
 35 34  1  0  0  0  0
 35 36  2  0  0  0  0
 36 37  1  0  0  0  0
 37 44  2  0  0  0  0
 37 38  1  0  0  0  0
 38 39  2  0  0  0  0
 39 41  1  0  0  0  0
 39 40  1  0  0  0  0
 41 42  1  0  0  0  0
 43 41  2  0  0  0  0
 44 43  1  0  0  0  0
M  END
>  <minimizedAffinity>
-7.28994608

>  <minimizedRMSD>
1.21048486

$$$$
