REMARK  Name = 
REMARK  5 active torsions:
REMARK  status: ('A' for Active; 'I' for Inactive)
REMARK    1  A    between atoms: C_1  and  C_7
REMARK    2  A    between atoms: C_2  and  C_14
REMARK    3  A    between atoms: C_5  and  C_9
REMARK    4  A    between atoms: C_14  and  C_15
REMARK    5  A    between atoms: C_20  and  C_34
REMARK                            x       y       z     vdW  Elec       q    Type
REMARK                         _______ _______ _______ _____ _____    ______ ____
ROOT
ATOM      1  C   UNL     1      33.608  26.917  46.919  0.00  0.00    +0.000 A 
ATOM      2  C   UNL     1      33.792  25.621  47.330  0.00  0.00    +0.000 A 
ATOM      3  C   UNL     1      34.194  24.651  46.441  0.00  0.00    +0.000 A 
ATOM      4  C   UNL     1      34.425  24.953  45.102  0.00  0.00    +0.000 A 
ATOM      5  C   UNL     1      34.241  26.242  44.694  0.00  0.00    +0.000 A 
ATOM      6  C   UNL     1      33.839  27.227  45.573  0.00  0.00    +0.000 A 
ATOM      7  H   UNL     1      33.594  25.464  48.387  0.00  0.00    +0.000 HD
ATOM      8  H   UNL     1      34.299  23.682  46.895  0.00  0.00    +0.000 HD
ATOM      9  H   UNL     1      34.735  24.092  44.531  0.00  0.00    +0.000 HD
ATOM     10  H   UNL     1      34.446  26.384  43.639  0.00  0.00    +0.000 HD
ENDROOT
BRANCH   6  11
ATOM     11  C   UNL     1      33.747  28.539  44.925  0.00  0.00    +0.000 A 
ATOM     12  N   UNL     1      34.010  29.649  45.623  0.00  0.00    +0.000 NA
ATOM     13  C   UNL     1      33.950  30.890  45.152  0.00  0.00    +0.000 A 
ATOM     14  N   UNL     1      33.591  31.024  43.859  0.00  0.00    +0.000 NA
ATOM     15  C   UNL     1      33.306  29.968  43.079  0.00  0.00    +0.000 A 
ATOM     16  C   UNL     1      32.931  30.201  41.751  0.00  0.00    +0.000 A 
ATOM     17  C   UNL     1      32.654  29.044  41.056  0.00  0.00    +0.000 A 
ATOM     18  H   UNL     1      32.358  29.213  40.014  0.00  0.00    +0.000 HD
ATOM     19  C   UNL     1      32.701  27.751  41.495  0.00  0.00    +0.000 A 
ATOM     20  H   UNL     1      32.459  26.924  40.841  0.00  0.00    +0.000 HD
ATOM     21  C   UNL     1      33.082  27.584  42.829  0.00  0.00    +0.000 A 
ATOM     22  C   UNL     1      33.377  28.678  43.597  0.00  0.00    +0.000 A 
ENDBRANCH   6  11
BRANCH   1  23
ATOM     23  C   UNL     1      33.165  28.058  47.786  0.00  0.00    +0.000 C 
ATOM     24  H   UNL     1      32.532  27.614  48.580  0.00  0.00    +0.000 HD
ATOM     25  H   UNL     1      32.525  28.728  47.194  0.00  0.00    +0.000 HD
BRANCH  23  27
ATOM     26  C   UNL     1      35.005  28.383  49.455  0.00  0.00    +0.000 C 
ATOM     27  C   UNL     1      34.279  28.768  48.442  0.00  0.00    +0.000 C 
BRANCH  26  32
ATOM     28  C   UNL     1      37.384  30.169  51.573  0.00  0.00    +0.000 A 
ATOM     29  C   UNL     1      38.089  30.930  50.629  0.00  0.00    +0.000 A 
ATOM     30  C   UNL     1      37.727  30.816  49.274  0.00  0.00    +0.000 A 
ATOM     31  N   UNL     1      36.696  29.958  48.951  0.00  0.00    +0.000 NA
ATOM     32  C   UNL     1      36.065  29.257  49.924  0.00  0.00    +0.000 A 
ATOM     33  N   UNL     1      36.398  29.360  51.199  0.00  0.00    +0.000 NA
ATOM     34  H   UNL     1      37.721  30.311  52.610  0.00  0.00    +0.000 HD
ATOM     35  H   UNL     1      38.911  31.620  50.850  0.00  0.00    +0.000 HD
BRANCH  30  36
ATOM     36  C   UNL     1      38.380  31.562  48.206  0.00  0.00    +0.000 A 
ATOM     37  C   UNL     1      38.587  31.031  46.943  0.00  0.00    +0.000 A 
ATOM     38  C   UNL     1      39.232  32.026  46.184  0.00  0.00    +0.000 A 
ATOM     39  N   UNL     1      39.387  33.098  47.000  0.00  0.00    +0.000 N 
ATOM     40  N   UNL     1      38.881  32.815  48.194  0.00  0.00    +0.000 NA
ATOM     41  H   UNL     1      38.351  30.081  46.511  0.00  0.00    +0.000 HD
ATOM     42  H   UNL     1      39.565  32.014  45.159  0.00  0.00    +0.000 HD
ATOM     43  H   UNL     1      39.816  34.052  46.848  0.00  0.00    +0.000 HD
ENDBRANCH  30  36
ENDBRANCH  26  32
ENDBRANCH  23  27
ENDBRANCH   1  23
TORSDOF 5
