
 OpenBabel03272503233D

 33 36  0  0  1  0  0  0  0  0999 V2000
   38.0210   25.8370   32.9690 N   0  0  0  0  0  0  0  0  0  0  0  0
   38.8780   25.9550   34.0680 C   0  0  2  0  0  0  0  0  0  0  0  0
   39.9540   26.9440   33.5490 C   0  0  0  0  0  0  0  0  0  0  0  0
   39.5070   27.3830   32.1820 C   0  0  0  0  0  0  0  0  0  0  0  0
   38.0280   27.1530   32.2770 C   0  0  0  0  0  0  0  0  0  0  0  0
   38.3240   26.6350   34.8120 H   0  0  0  0  0  0  0  0  0  0  0  0
   40.1430   27.7600   34.2430 H   0  0  0  0  0  0  0  0  0  0  0  0
   40.8850   26.3420   33.4460 H   0  0  0  0  0  0  0  0  0  0  0  0
   39.9100   26.7210   31.3690 H   0  0  0  0  0  0  0  0  0  0  0  0
   39.7550   28.4510   31.9820 H   0  0  0  0  0  0  0  0  0  0  0  0
   37.5160   27.1190   31.3180 H   0  0  0  0  0  0  0  0  0  0  0  0
   37.5950   27.8620   33.0030 H   0  0  0  0  0  0  0  0  0  0  0  0
   39.5200   24.8610   34.7450 C   0  0  0  0  0  0  0  0  0  0  0  0
   40.5720   24.3920   33.9940 N   0  0  0  0  0  0  0  0  0  0  0  0
   41.3540   23.3930   34.5000 C   0  0  0  0  0  3  0  0  0  0  0  0
   41.1260   22.8450   35.7280 N   0  0  0  0  0  0  0  0  0  0  0  0
   40.1100   23.2690   36.4990 C   0  0  0  0  0  0  0  0  0  0  0  0
   39.7890   22.7820   37.7500 C   0  0  0  0  0  3  0  0  0  0  0  0
   38.7020   23.3100   38.4450 C   0  0  0  0  0  0  0  0  0  0  0  0
   38.4670   22.9180   39.4220 H   0  0  0  0  0  0  0  0  0  0  0  0
   37.9150   24.3330   37.9060 C   0  0  0  0  0  0  0  0  0  0  0  0
   37.0720   24.7230   38.4770 H   0  0  0  0  0  0  0  0  0  0  0  0
   38.2580   24.8010   36.6540 C   0  0  0  0  0  3  0  0  0  0  0  0
   39.3340   24.2710   35.9790 C   0  0  0  0  0  0  0  0  0  0  0  0
   37.2090   24.7740   32.5040 C   0  0  0  0  0  0  0  0  0  0  0  0
   36.1560   25.1630   31.6930 C   0  0  0  0  0  0  0  0  0  0  0  0
   35.2940   24.2210   31.1400 C   0  0  0  0  0  0  0  0  0  0  0  0
   35.5640   22.9060   31.4580 N   0  0  0  0  0  0  0  0  0  0  0  0
   36.5900   22.5590   32.2480 C   0  0  0  0  0  0  0  0  0  0  0  0
   37.4210   23.4960   32.7760 N   0  0  0  0  0  0  0  0  0  0  0  0
   35.7580   26.0740   31.3130 H   0  0  0  0  0  0  0  0  0  0  0  0
   34.4460   24.2720   30.5090 H   0  0  0  0  0  0  0  0  0  0  0  0
   36.8040   21.5340   32.4980 H   0  0  0  0  0  0  0  0  0  0  0  0
  1  2  1  0  0  0  0
  2 13  1  0  0  0  0
  2  6  1  1  0  0  0
  3  2  1  0  0  0  0
  3  7  1  0  0  0  0
  4  5  1  0  0  0  0
  4  3  1  0  0  0  0
  5  1  1  0  0  0  0
  5 12  1  0  0  0  0
  8  3  1  0  0  0  0
  9  4  1  0  0  0  0
 10  4  1  0  0  0  0
 11  5  1  0  0  0  0
 13 24  1  0  0  0  0
 14 15  1  0  0  0  0
 14 13  2  0  0  0  0
 15 16  2  0  0  0  0
 16 17  1  0  0  0  0
 17 18  1  0  0  0  0
 18 19  2  0  0  0  0
 19 20  1  0  0  0  0
 21 19  1  0  0  0  0
 21 22  1  0  0  0  0
 23 21  2  0  0  0  0
 24 17  2  0  0  0  0
 24 23  1  0  0  0  0
 25 30  1  0  0  0  0
 25  1  1  0  0  0  0
 26 25  2  0  0  0  0
 27 28  2  0  0  0  0
 27 26  1  0  0  0  0
 28 29  1  0  0  0  0
 29 33  1  0  0  0  0
 29 30  2  0  0  0  0
 31 26  1  0  0  0  0
 32 27  1  0  0  0  0
M  END
>  <minimizedAffinity>
-5.59554195

$$$$

 OpenBabel03272503233D

 33 36  0  0  1  0  0  0  0  0999 V2000
   34.6640   29.9820   32.9300 N   0  0  0  0  0  0  0  0  0  0  0  0
   35.9460   29.4350   32.8180 C   0  0  2  0  0  0  0  0  0  0  0  0
   36.4570   30.0490   31.4890 C   0  0  0  0  0  0  0  0  0  0  0  0
   35.3970   31.0100   31.0260 C   0  0  0  0  0  0  0  0  0  0  0  0
   34.7230   31.3390   32.3240 C   0  0  0  0  0  0  0  0  0  0  0  0
   36.5910   30.0200   33.5700 H   0  0  0  0  0  0  0  0  0  0  0  0
   37.4490   30.4870   31.5840 H   0  0  0  0  0  0  0  0  0  0  0  0
   36.5120   29.2000   30.7710 H   0  0  0  0  0  0  0  0  0  0  0  0
   34.6410   30.5190   30.3570 H   0  0  0  0  0  0  0  0  0  0  0  0
   35.8320   31.9110   30.5360 H   0  0  0  0  0  0  0  0  0  0  0  0
   33.7380   31.7890   32.2170 H   0  0  0  0  0  0  0  0  0  0  0  0
   35.4190   31.9100   32.9620 H   0  0  0  0  0  0  0  0  0  0  0  0
   36.2580   28.0320   32.8490 C   0  0  0  0  0  0  0  0  0  0  0  0
   35.7900   27.4190   31.7100 N   0  0  0  0  0  0  0  0  0  0  0  0
   36.0490   26.0910   31.5190 C   0  0  0  0  0  3  0  0  0  0  0  0
   36.7580   25.3530   32.4210 N   0  0  0  0  0  0  0  0  0  0  0  0
   37.2350   25.9080   33.5490 C   0  0  0  0  0  0  0  0  0  0  0  0
   37.9580   25.2530   34.5250 C   0  0  0  0  0  3  0  0  0  0  0  0
   38.3930   25.9480   35.6530 C   0  0  0  0  0  0  0  0  0  0  0  0
   38.9570   25.4200   36.4060 H   0  0  0  0  0  0  0  0  0  0  0  0
   38.1150   27.3080   35.8280 C   0  0  0  0  0  0  0  0  0  0  0  0
   38.4700   27.8200   36.7220 H   0  0  0  0  0  0  0  0  0  0  0  0
   37.3910   27.9370   34.8360 C   0  0  0  0  0  3  0  0  0  0  0  0
   36.9680   27.2390   33.7280 C   0  0  0  0  0  0  0  0  0  0  0  0
   33.4670   29.4970   33.5120 C   0  0  0  0  0  0  0  0  0  0  0  0
   33.4360   29.5430   34.8950 C   0  0  0  0  0  0  0  0  0  0  0  0
   32.3110   29.1250   35.5990 C   0  0  0  0  0  0  0  0  0  0  0  0
   31.2600   28.6730   34.8300 N   0  0  0  0  0  0  0  0  0  0  0  0
   31.3190   28.6390   33.4910 C   0  0  0  0  0  0  0  0  0  0  0  0
   32.4280   29.0520   32.8230 N   0  0  0  0  0  0  0  0  0  0  0  0
   34.0900   29.8400   35.6820 H   0  0  0  0  0  0  0  0  0  0  0  0
   32.0580   29.0680   36.6250 H   0  0  0  0  0  0  0  0  0  0  0  0
   30.5000   28.2860   32.8870 H   0  0  0  0  0  0  0  0  0  0  0  0
  1 25  1  0  0  0  0
  2 13  1  0  0  0  0
  2  1  1  0  0  0  0
  2  6  1  1  0  0  0
  3  7  1  0  0  0  0
  3  2  1  0  0  0  0
  4  3  1  0  0  0  0
  4  5  1  0  0  0  0
  5  1  1  0  0  0  0
  5 12  1  0  0  0  0
  8  3  1  0  0  0  0
  9  4  1  0  0  0  0
 10  4  1  0  0  0  0
 11  5  1  0  0  0  0
 13 24  1  0  0  0  0
 14 13  2  0  0  0  0
 15 14  1  0  0  0  0
 15 16  2  0  0  0  0
 16 17  1  0  0  0  0
 17 24  2  0  0  0  0
 17 18  1  0  0  0  0
 18 19  2  0  0  0  0
 19 21  1  0  0  0  0
 19 20  1  0  0  0  0
 21 22  1  0  0  0  0
 23 21  2  0  0  0  0
 24 23  1  0  0  0  0
 25 26  1  0  0  0  0
 26 27  2  0  0  0  0
 26 31  1  0  0  0  0
 27 32  1  0  0  0  0
 28 27  1  0  0  0  0
 29 28  2  0  0  0  0
 30 29  1  0  0  0  0
 30 25  2  0  0  0  0
 33 29  1  0  0  0  0
M  END
>  <minimizedAffinity>
-5.4060607

$$$$

 OpenBabel03272503233D

 33 36  0  0  1  0  0  0  0  0999 V2000
   36.9460   23.1490   32.4230 N   0  0  0  0  0  0  0  0  0  0  0  0
   37.7740   23.8260   33.3240 C   0  0  2  0  0  0  0  0  0  0  0  0
   38.5050   24.8430   32.4090 C   0  0  0  0  0  0  0  0  0  0  0  0
   37.9020   24.6960   31.0390 C   0  0  0  0  0  0  0  0  0  0  0  0
   36.5550   24.1330   31.3790 C   0  0  0  0  0  0  0  0  0  0  0  0
   37.0770   24.5390   33.8980 H   0  0  0  0  0  0  0  0  0  0  0  0
   38.4800   25.8560   32.8040 H   0  0  0  0  0  0  0  0  0  0  0  0
   39.5650   24.5020   32.3740 H   0  0  0  0  0  0  0  0  0  0  0  0
   38.4470   23.9380   30.4140 H   0  0  0  0  0  0  0  0  0  0  0  0
   37.8300   25.6710   30.5050 H   0  0  0  0  0  0  0  0  0  0  0  0
   36.0390   23.6670   30.5420 H   0  0  0  0  0  0  0  0  0  0  0  0
   35.9640   24.8990   31.9110 H   0  0  0  0  0  0  0  0  0  0  0  0
   38.7230   23.2080   34.2090 C   0  0  0  0  0  0  0  0  0  0  0  0
   39.6900   22.5530   33.4810 N   0  0  0  0  0  0  0  0  0  0  0  0
   40.7260   21.9570   34.1420 C   0  0  0  0  0  3  0  0  0  0  0  0
   40.8340   21.9900   35.5010 N   0  0  0  0  0  0  0  0  0  0  0  0
   39.9150   22.6160   36.2550 C   0  0  0  0  0  0  0  0  0  0  0  0
   39.9270   22.7060   37.6320 C   0  0  0  0  0  3  0  0  0  0  0  0
   38.9050   23.3850   38.2950 C   0  0  0  0  0  0  0  0  0  0  0  0
   38.9320   23.4450   39.3720 H   0  0  0  0  0  0  0  0  0  0  0  0
   37.8540   23.9890   37.5970 C   0  0  0  0  0  0  0  0  0  0  0  0
   37.0710   24.5120   38.1470 H   0  0  0  0  0  0  0  0  0  0  0  0
   37.8670   23.8840   36.2210 C   0  0  0  0  0  3  0  0  0  0  0  0
   38.8820   23.2100   35.5800 C   0  0  0  0  0  0  0  0  0  0  0  0
   36.4520   21.8220   32.3940 C   0  0  0  0  0  0  0  0  0  0  0  0
   36.5710   21.1880   31.1700 C   0  0  0  0  0  0  0  0  0  0  0  0
   36.1540   19.8700   31.0040 C   0  0  0  0  0  0  0  0  0  0  0  0
   35.6270   19.2660   32.1260 N   0  0  0  0  0  0  0  0  0  0  0  0
   35.5240   19.9060   33.2990 C   0  0  0  0  0  0  0  0  0  0  0  0
   35.9380   21.1930   33.4390 N   0  0  0  0  0  0  0  0  0  0  0  0
   36.9310   21.4270   30.1960 H   0  0  0  0  0  0  0  0  0  0  0  0
   36.1430   19.1930   30.1910 H   0  0  0  0  0  0  0  0  0  0  0  0
   35.1130   19.4380   34.1770 H   0  0  0  0  0  0  0  0  0  0  0  0
  1  2  1  0  0  0  0
  2  6  1  1  0  0  0
  2 13  1  0  0  0  0
  3  7  1  0  0  0  0
  3  2  1  0  0  0  0
  4  5  1  0  0  0  0
  4  3  1  0  0  0  0
  5 12  1  0  0  0  0
  5  1  1  0  0  0  0
  8  3  1  0  0  0  0
  9  4  1  0  0  0  0
 10  4  1  0  0  0  0
 11  5  1  0  0  0  0
 13 24  1  0  0  0  0
 14 15  1  0  0  0  0
 14 13  2  0  0  0  0
 15 16  2  0  0  0  0
 16 17  1  0  0  0  0
 17 18  1  0  0  0  0
 18 19  2  0  0  0  0
 19 20  1  0  0  0  0
 21 22  1  0  0  0  0
 21 19  1  0  0  0  0
 23 21  2  0  0  0  0
 24 23  1  0  0  0  0
 24 17  2  0  0  0  0
 25  1  1  0  0  0  0
 25 30  1  0  0  0  0
 26 25  2  0  0  0  0
 27 26  1  0  0  0  0
 27 28  2  0  0  0  0
 28 29  1  0  0  0  0
 29 30  2  0  0  0  0
 29 33  1  0  0  0  0
 31 26  1  0  0  0  0
 32 27  1  0  0  0  0
M  END
>  <minimizedAffinity>
-5.32578659

$$$$

 OpenBabel03272503233D

 33 36  0  0  1  0  0  0  0  0999 V2000
   39.9980   25.3520   34.3080 N   0  0  0  0  0  0  0  0  0  0  0  0
   39.6380   25.7940   33.0310 C   0  0  2  0  0  0  0  0  0  0  0  0
   40.5010   27.0700   32.8610 C   0  0  0  0  0  0  0  0  0  0  0  0
   41.3810   27.1560   34.0780 C   0  0  0  0  0  0  0  0  0  0  0  0
   41.4270   25.7180   34.5000 C   0  0  0  0  0  0  0  0  0  0  0  0
   40.1790   25.0870   32.3030 H   0  0  0  0  0  0  0  0  0  0  0  0
   41.0400   27.0890   31.9160 H   0  0  0  0  0  0  0  0  0  0  0  0
   39.7820   27.9200   32.8770 H   0  0  0  0  0  0  0  0  0  0  0  0
   40.9050   27.7460   34.9070 H   0  0  0  0  0  0  0  0  0  0  0  0
   42.3920   27.5580   33.8380 H   0  0  0  0  0  0  0  0  0  0  0  0
   41.7610   25.5600   35.5230 H   0  0  0  0  0  0  0  0  0  0  0  0
   41.9780   25.1330   33.7430 H   0  0  0  0  0  0  0  0  0  0  0  0
   38.2950   26.0610   32.5910 C   0  0  0  0  0  0  0  0  0  0  0  0
   38.0380   27.4110   32.6520 N   0  0  0  0  0  0  0  0  0  0  0  0
   36.8330   27.8760   32.2070 C   0  0  0  0  0  3  0  0  0  0  0  0
   35.8760   27.0450   31.7050 N   0  0  0  0  0  0  0  0  0  0  0  0
   36.0800   25.7190   31.6260 C   0  0  0  0  0  0  0  0  0  0  0  0
   35.1800   24.7930   31.1390 C   0  0  0  0  0  3  0  0  0  0  0  0
   35.5170   23.4400   31.1160 C   0  0  0  0  0  0  0  0  0  0  0  0
   34.8010   22.7300   30.7320 H   0  0  0  0  0  0  0  0  0  0  0  0
   36.7580   22.9860   31.5760 C   0  0  0  0  0  0  0  0  0  0  0  0
   36.9880   21.9220   31.5440 H   0  0  0  0  0  0  0  0  0  0  0  0
   37.6380   23.9340   32.0570 C   0  0  0  0  0  3  0  0  0  0  0  0
   37.2920   25.2660   32.0740 C   0  0  0  0  0  0  0  0  0  0  0  0
   39.2870   24.6480   35.3100 C   0  0  0  0  0  0  0  0  0  0  0  0
   39.5390   23.2880   35.3510 C   0  0  0  0  0  0  0  0  0  0  0  0
   38.9310   22.4760   36.3040 C   0  0  0  0  0  0  0  0  0  0  0  0
   38.0800   23.1190   37.1790 N   0  0  0  0  0  0  0  0  0  0  0  0
   37.8540   24.4390   37.1140 C   0  0  0  0  0  0  0  0  0  0  0  0
   38.4590   25.2120   36.1750 N   0  0  0  0  0  0  0  0  0  0  0  0
   40.1310   22.5860   34.8120 H   0  0  0  0  0  0  0  0  0  0  0  0
   38.9660   21.4420   36.5280 H   0  0  0  0  0  0  0  0  0  0  0  0
   37.1900   24.9440   37.7950 H   0  0  0  0  0  0  0  0  0  0  0  0
  1  5  1  0  0  0  0
  1 25  1  0  0  0  0
  2  6  1  6  0  0  0
  2  1  1  0  0  0  0
  3  8  1  0  0  0  0
  3  2  1  0  0  0  0
  3  4  1  0  0  0  0
  4  5  1  0  0  0  0
  4  9  1  0  0  0  0
  5 11  1  0  0  0  0
  7  3  1  0  0  0  0
 10  4  1  0  0  0  0
 12  5  1  0  0  0  0
 13 14  1  0  0  0  0
 13  2  1  0  0  0  0
 15 14  2  0  0  0  0
 16 15  1  0  0  0  0
 17 16  2  0  0  0  0
 17 24  1  0  0  0  0
 18 17  1  0  0  0  0
 19 18  2  0  0  0  0
 19 21  1  0  0  0  0
 20 19  1  0  0  0  0
 21 23  2  0  0  0  0
 22 21  1  0  0  0  0
 23 24  1  0  0  0  0
 24 13  2  0  0  0  0
 25 26  2  0  0  0  0
 25 30  1  0  0  0  0
 26 27  1  0  0  0  0
 27 32  1  0  0  0  0
 27 28  2  0  0  0  0
 29 28  1  0  0  0  0
 29 33  1  0  0  0  0
 30 29  2  0  0  0  0
 31 26  1  0  0  0  0
M  END
>  <minimizedAffinity>
-5.31215048

$$$$

 OpenBabel03272503233D

 33 36  0  0  1  0  0  0  0  0999 V2000
   37.9420   25.3780   33.6910 N   0  0  0  0  0  0  0  0  0  0  0  0
   38.1230   26.7620   33.7810 C   0  0  2  0  0  0  0  0  0  0  0  0
   38.2930   26.9790   35.3070 C   0  0  0  0  0  0  0  0  0  0  0  0
   38.2980   25.6130   35.9360 C   0  0  0  0  0  0  0  0  0  0  0  0
   38.7490   24.7690   34.7820 C   0  0  0  0  0  0  0  0  0  0  0  0
   39.2030   26.9490   33.4310 H   0  0  0  0  0  0  0  0  0  0  0  0
   39.1620   27.5870   35.5500 H   0  0  0  0  0  0  0  0  0  0  0  0
   37.3770   27.5220   35.6330 H   0  0  0  0  0  0  0  0  0  0  0  0
   37.2670   25.2770   36.2290 H   0  0  0  0  0  0  0  0  0  0  0  0
   38.9960   25.5510   36.8020 H   0  0  0  0  0  0  0  0  0  0  0  0
   38.5520   23.7060   34.8980 H   0  0  0  0  0  0  0  0  0  0  0  0
   39.7970   25.0160   34.5370 H   0  0  0  0  0  0  0  0  0  0  0  0
   37.2290   27.7550   33.2520 C   0  0  0  0  0  0  0  0  0  0  0  0
   36.3270   28.1400   34.2170 N   0  0  0  0  0  0  0  0  0  0  0  0
   35.4310   29.1310   33.9290 C   0  0  0  0  0  3  0  0  0  0  0  0
   35.4030   29.7520   32.7140 N   0  0  0  0  0  0  0  0  0  0  0  0
   36.2630   29.4100   31.7400 C   0  0  0  0  0  0  0  0  0  0  0  0
   36.3170   29.9700   30.4800 C   0  0  0  0  0  3  0  0  0  0  0  0
   37.2600   29.5190   29.5570 C   0  0  0  0  0  0  0  0  0  0  0  0
   37.2880   29.9690   28.5770 H   0  0  0  0  0  0  0  0  0  0  0  0
   38.1680   28.5030   29.8750 C   0  0  0  0  0  0  0  0  0  0  0  0
   38.8920   28.1740   29.1290 H   0  0  0  0  0  0  0  0  0  0  0  0
   38.0920   27.9610   31.1420 C   0  0  0  0  0  3  0  0  0  0  0  0
   37.1550   28.4160   32.0430 C   0  0  0  0  0  0  0  0  0  0  0  0
   37.2160   24.5690   32.7840 C   0  0  0  0  0  0  0  0  0  0  0  0
   37.6250   23.2480   32.7310 C   0  0  0  0  0  0  0  0  0  0  0  0
   36.9810   22.3320   31.9050 C   0  0  0  0  0  0  0  0  0  0  0  0
   35.9320   22.8330   31.1630 N   0  0  0  0  0  0  0  0  0  0  0  0
   35.5590   24.1190   31.2340 C   0  0  0  0  0  0  0  0  0  0  0  0
   36.2010   24.9960   32.0480 N   0  0  0  0  0  0  0  0  0  0  0  0
   38.3730   22.6430   33.1890 H   0  0  0  0  0  0  0  0  0  0  0  0
   37.1080   21.3010   31.7010 H   0  0  0  0  0  0  0  0  0  0  0  0
   34.7400   24.5130   30.6550 H   0  0  0  0  0  0  0  0  0  0  0  0
  1  2  1  0  0  0  0
  1  5  1  0  0  0  0
  2  6  1  6  0  0  0
  2  3  1  0  0  0  0
  3  7  1  0  0  0  0
  3  8  1  0  0  0  0
  3  4  1  0  0  0  0
  4  9  1  0  0  0  0
  4 10  1  0  0  0  0
  5 11  1  0  0  0  0
  5  4  1  0  0  0  0
 12  5  1  0  0  0  0
 13  2  1  0  0  0  0
 13 14  1  0  0  0  0
 15 14  2  0  0  0  0
 16 15  1  0  0  0  0
 17 24  1  0  0  0  0
 17 16  2  0  0  0  0
 18 17  1  0  0  0  0
 19 21  1  0  0  0  0
 19 18  2  0  0  0  0
 20 19  1  0  0  0  0
 21 23  2  0  0  0  0
 22 21  1  0  0  0  0
 23 24  1  0  0  0  0
 24 13  2  0  0  0  0
 25  1  1  0  0  0  0
 26 25  1  0  0  0  0
 26 31  1  0  0  0  0
 27 26  2  0  0  0  0
 28 29  2  0  0  0  0
 28 27  1  0  0  0  0
 29 30  1  0  0  0  0
 30 25  2  0  0  0  0
 32 27  1  0  0  0  0
 33 29  1  0  0  0  0
M  END
>  <minimizedAffinity>
-5.21523905

$$$$

 OpenBabel03272503233D

 33 36  0  0  1  0  0  0  0  0999 V2000
   38.7650   25.5310   33.3900 N   0  0  0  0  0  0  0  0  0  0  0  0
   38.8210   25.8100   34.7590 C   0  0  2  0  0  0  0  0  0  0  0  0
   40.0240   26.7850   34.8530 C   0  0  0  0  0  0  0  0  0  0  0  0
   40.4710   27.0480   33.4410 C   0  0  0  0  0  0  0  0  0  0  0  0
   39.2110   26.7600   32.6830 C   0  0  0  0  0  0  0  0  0  0  0  0
   37.9550   26.5420   34.9540 H   0  0  0  0  0  0  0  0  0  0  0  0
   39.7930   27.6810   35.4250 H   0  0  0  0  0  0  0  0  0  0  0  0
   40.8220   26.2200   35.3850 H   0  0  0  0  0  0  0  0  0  0  0  0
   41.2550   26.3200   33.1010 H   0  0  0  0  0  0  0  0  0  0  0  0
   40.8190   28.0970   33.3000 H   0  0  0  0  0  0  0  0  0  0  0  0
   39.3550   26.5960   31.6170 H   0  0  0  0  0  0  0  0  0  0  0  0
   38.4540   27.5250   32.9300 H   0  0  0  0  0  0  0  0  0  0  0  0
   38.9160   24.8300   35.8070 C   0  0  0  0  0  0  0  0  0  0  0  0
   37.7740   24.8460   36.5730 N   0  0  0  0  0  0  0  0  0  0  0  0
   37.6400   23.9350   37.5830 C   0  0  0  0  0  3  0  0  0  0  0  0
   38.6040   23.0090   37.8550 N   0  0  0  0  0  0  0  0  0  0  0  0
   39.7380   22.9550   37.1350 C   0  0  0  0  0  0  0  0  0  0  0  0
   40.7740   22.0630   37.3290 C   0  0  0  0  0  3  0  0  0  0  0  0
   41.9000   22.1170   36.5100 C   0  0  0  0  0  0  0  0  0  0  0  0
   42.7000   21.4120   36.6760 H   0  0  0  0  0  0  0  0  0  0  0  0
   42.0150   23.0590   35.4810 C   0  0  0  0  0  0  0  0  0  0  0  0
   42.9100   23.0720   34.8600 H   0  0  0  0  0  0  0  0  0  0  0  0
   40.9640   23.9370   35.3100 C   0  0  0  0  0  3  0  0  0  0  0  0
   39.8570   23.8730   36.1260 C   0  0  0  0  0  0  0  0  0  0  0  0
   38.3490   24.3860   32.6680 C   0  0  0  0  0  0  0  0  0  0  0  0
   37.0160   24.3900   32.2950 C   0  0  0  0  0  0  0  0  0  0  0  0
   36.4770   23.3410   31.5550 C   0  0  0  0  0  0  0  0  0  0  0  0
   37.3540   22.3270   31.2320 N   0  0  0  0  0  0  0  0  0  0  0  0
   38.6410   22.3500   31.6080 C   0  0  0  0  0  0  0  0  0  0  0  0
   39.1460   23.3840   32.3300 N   0  0  0  0  0  0  0  0  0  0  0  0
   36.1730   25.0300   32.4140 H   0  0  0  0  0  0  0  0  0  0  0  0
   35.5170   23.1260   31.1640 H   0  0  0  0  0  0  0  0  0  0  0  0
   39.3280   21.5590   31.3580 H   0  0  0  0  0  0  0  0  0  0  0  0
  1  2  1  0  0  0  0
  2  3  1  0  0  0  0
  2  6  1  1  0  0  0
  2 13  1  0  0  0  0
  3  8  1  0  0  0  0
  3  7  1  0  0  0  0
  4  3  1  0  0  0  0
  5 12  1  0  0  0  0
  5  1  1  0  0  0  0
  5  4  1  0  0  0  0
  9  4  1  0  0  0  0
 10  4  1  0  0  0  0
 11  5  1  0  0  0  0
 13 24  2  0  0  0  0
 13 14  1  0  0  0  0
 14 15  2  0  0  0  0
 15 16  1  0  0  0  0
 17 18  1  0  0  0  0
 17 16  2  0  0  0  0
 19 20  1  0  0  0  0
 19 18  2  0  0  0  0
 21 19  1  0  0  0  0
 22 21  1  0  0  0  0
 23 21  2  0  0  0  0
 23 24  1  0  0  0  0
 24 17  1  0  0  0  0
 25  1  1  0  0  0  0
 26 31  1  0  0  0  0
 26 25  2  0  0  0  0
 27 26  1  0  0  0  0
 28 27  2  0  0  0  0
 28 29  1  0  0  0  0
 29 30  2  0  0  0  0
 30 25  1  0  0  0  0
 32 27  1  0  0  0  0
 33 29  1  0  0  0  0
M  END
>  <minimizedAffinity>
-5.1937027

$$$$

 OpenBabel03272503233D

 33 36  0  0  1  0  0  0  0  0999 V2000
   39.8410   25.1650   34.4210 N   0  0  0  0  0  0  0  0  0  0  0  0
   39.4690   25.1580   33.0740 C   0  0  2  0  0  0  0  0  0  0  0  0
   39.9370   26.5550   32.5890 C   0  0  0  0  0  0  0  0  0  0  0  0
   40.6560   27.1900   33.7470 C   0  0  0  0  0  0  0  0  0  0  0  0
   41.0820   25.9780   34.5190 C   0  0  0  0  0  0  0  0  0  0  0  0
   40.2480   24.4930   32.5490 H   0  0  0  0  0  0  0  0  0  0  0  0
   40.5190   26.5070   31.6720 H   0  0  0  0  0  0  0  0  0  0  0  0
   39.0030   27.1270   32.3870 H   0  0  0  0  0  0  0  0  0  0  0  0
   39.9650   27.7910   34.3980 H   0  0  0  0  0  0  0  0  0  0  0  0
   41.5230   27.8070   33.4160 H   0  0  0  0  0  0  0  0  0  0  0  0
   41.3670   26.1780   35.5500 H   0  0  0  0  0  0  0  0  0  0  0  0
   41.8370   25.4220   33.9360 H   0  0  0  0  0  0  0  0  0  0  0  0
   38.1460   24.8960   32.5760 C   0  0  0  0  0  0  0  0  0  0  0  0
   37.4810   26.0810   32.3570 N   0  0  0  0  0  0  0  0  0  0  0  0
   36.2270   26.0460   31.8160 C   0  0  0  0  0  3  0  0  0  0  0  0
   35.6120   24.8740   31.4860 N   0  0  0  0  0  0  0  0  0  0  0  0
   36.2200   23.6920   31.6820 C   0  0  0  0  0  0  0  0  0  0  0  0
   35.6880   22.4530   31.3880 C   0  0  0  0  0  3  0  0  0  0  0  0
   36.4270   21.2990   31.6460 C   0  0  0  0  0  0  0  0  0  0  0  0
   35.9950   20.3390   31.4090 H   0  0  0  0  0  0  0  0  0  0  0  0
   37.7100   21.3590   32.2000 C   0  0  0  0  0  0  0  0  0  0  0  0
   38.2590   20.4370   32.3880 H   0  0  0  0  0  0  0  0  0  0  0  0
   38.2170   22.6100   32.4840 C   0  0  0  0  0  3  0  0  0  0  0  0
   37.4770   23.7410   32.2240 C   0  0  0  0  0  0  0  0  0  0  0  0
   39.2870   24.5430   35.5660 C   0  0  0  0  0  0  0  0  0  0  0  0
   40.0330   23.4920   36.0720 C   0  0  0  0  0  0  0  0  0  0  0  0
   39.6240   22.8080   37.2120 C   0  0  0  0  0  0  0  0  0  0  0  0
   38.4470   23.2470   37.7810 N   0  0  0  0  0  0  0  0  0  0  0  0
   37.7440   24.2670   37.2680 C   0  0  0  0  0  0  0  0  0  0  0  0
   38.1630   24.9220   36.1540 N   0  0  0  0  0  0  0  0  0  0  0  0
   40.9390   22.9880   35.8270 H   0  0  0  0  0  0  0  0  0  0  0  0
   40.0140   21.9980   37.7710 H   0  0  0  0  0  0  0  0  0  0  0  0
   36.8240   24.6120   37.7100 H   0  0  0  0  0  0  0  0  0  0  0  0
  1  5  1  0  0  0  0
  1 25  1  0  0  0  0
  2  6  1  6  0  0  0
  2  1  1  0  0  0  0
  3  2  1  0  0  0  0
  3  4  1  0  0  0  0
  4  9  1  0  0  0  0
  4  5  1  0  0  0  0
  5 11  1  0  0  0  0
  7  3  1  0  0  0  0
  8  3  1  0  0  0  0
 10  4  1  0  0  0  0
 12  5  1  0  0  0  0
 13  2  1  0  0  0  0
 14 13  1  0  0  0  0
 15 14  2  0  0  0  0
 16 17  2  0  0  0  0
 16 15  1  0  0  0  0
 17 24  1  0  0  0  0
 18 19  2  0  0  0  0
 18 17  1  0  0  0  0
 19 21  1  0  0  0  0
 20 19  1  0  0  0  0
 21 22  1  0  0  0  0
 21 23  2  0  0  0  0
 24 23  1  0  0  0  0
 24 13  2  0  0  0  0
 25 26  2  0  0  0  0
 25 30  1  0  0  0  0
 26 27  1  0  0  0  0
 27 32  1  0  0  0  0
 27 28  2  0  0  0  0
 29 33  1  0  0  0  0
 29 28  1  0  0  0  0
 30 29  2  0  0  0  0
 31 26  1  0  0  0  0
M  END
>  <minimizedAffinity>
-5.17003298

$$$$

 OpenBabel03272503233D

 33 36  0  0  1  0  0  0  0  0999 V2000
   34.2880   31.2030   36.0330 N   0  0  0  0  0  0  0  0  0  0  0  0
   35.4430   30.9350   35.2920 C   0  0  2  0  0  0  0  0  0  0  0  0
   36.1690   32.3050   35.2960 C   0  0  0  0  0  0  0  0  0  0  0  0
   35.3570   33.2170   36.1740 C   0  0  0  0  0  0  0  0  0  0  0  0
   34.6580   32.2220   37.0500 C   0  0  0  0  0  0  0  0  0  0  0  0
   36.1280   30.3440   36.0040 H   0  0  0  0  0  0  0  0  0  0  0  0
   37.2160   32.2240   35.5800 H   0  0  0  0  0  0  0  0  0  0  0  0
   36.1140   32.6730   34.2460 H   0  0  0  0  0  0  0  0  0  0  0  0
   34.5750   33.7780   35.5950 H   0  0  0  0  0  0  0  0  0  0  0  0
   35.9970   33.9180   36.7570 H   0  0  0  0  0  0  0  0  0  0  0  0
   33.7910   32.6170   37.5760 H   0  0  0  0  0  0  0  0  0  0  0  0
   35.3990   31.7240   37.7000 H   0  0  0  0  0  0  0  0  0  0  0  0
   35.4730   30.3800   33.9670 C   0  0  0  0  0  0  0  0  0  0  0  0
   34.9770   31.2900   33.0620 N   0  0  0  0  0  0  0  0  0  0  0  0
   34.9860   30.9750   31.7330 C   0  0  0  0  0  3  0  0  0  0  0  0
   35.4700   29.7860   31.2720 N   0  0  0  0  0  0  0  0  0  0  0  0
   35.9640   28.8650   32.1170 C   0  0  0  0  0  0  0  0  0  0  0  0
   36.4740   27.6330   31.7580 C   0  0  0  0  0  3  0  0  0  0  0  0
   36.9530   26.7650   32.7380 C   0  0  0  0  0  0  0  0  0  0  0  0
   37.3480   25.8070   32.4380 H   0  0  0  0  0  0  0  0  0  0  0  0
   36.9340   27.1090   34.0940 C   0  0  0  0  0  0  0  0  0  0  0  0
   37.3170   26.4070   34.8340 H   0  0  0  0  0  0  0  0  0  0  0  0
   36.4200   28.3460   34.4240 C   0  0  0  0  0  3  0  0  0  0  0  0
   35.9500   29.1930   33.4460 C   0  0  0  0  0  0  0  0  0  0  0  0
   32.9770   30.6680   35.9810 C   0  0  0  0  0  0  0  0  0  0  0  0
   31.9900   31.5120   36.4600 C   0  0  0  0  0  0  0  0  0  0  0  0
   30.6520   31.1290   36.4420 C   0  0  0  0  0  0  0  0  0  0  0  0
   30.3970   29.8760   35.9250 N   0  0  0  0  0  0  0  0  0  0  0  0
   31.3750   29.0800   35.4690 C   0  0  0  0  0  0  0  0  0  0  0  0
   32.6750   29.4740   35.4950 N   0  0  0  0  0  0  0  0  0  0  0  0
   31.9330   32.4860   36.8870 H   0  0  0  0  0  0  0  0  0  0  0  0
   29.7460   31.5860   36.7420 H   0  0  0  0  0  0  0  0  0  0  0  0
   31.1800   28.1010   35.0650 H   0  0  0  0  0  0  0  0  0  0  0  0
  1  5  1  0  0  0  0
  2  3  1  0  0  0  0
  2  6  1  1  0  0  0
  2  1  1  0  0  0  0
  3  7  1  0  0  0  0
  3  4  1  0  0  0  0
  4 10  1  0  0  0  0
  4  5  1  0  0  0  0
  5 11  1  0  0  0  0
  5 12  1  0  0  0  0
  8  3  1  0  0  0  0
  9  4  1  0  0  0  0
 13  2  1  0  0  0  0
 14 13  2  0  0  0  0
 15 14  1  0  0  0  0
 16 15  2  0  0  0  0
 16 17  1  0  0  0  0
 17 24  1  0  0  0  0
 18 17  2  0  0  0  0
 18 19  1  0  0  0  0
 19 21  2  0  0  0  0
 20 19  1  0  0  0  0
 21 23  1  0  0  0  0
 21 22  1  0  0  0  0
 24 13  1  0  0  0  0
 24 23  2  0  0  0  0
 25  1  1  0  0  0  0
 25 26  1  0  0  0  0
 26 31  1  0  0  0  0
 27 26  2  0  0  0  0
 27 32  1  0  0  0  0
 28 27  1  0  0  0  0
 29 30  1  0  0  0  0
 29 28  2  0  0  0  0
 30 25  2  0  0  0  0
 33 29  1  0  0  0  0
M  END
>  <minimizedAffinity>
-5.16535378

$$$$

 OpenBabel03272503233D

 33 36  0  0  1  0  0  0  0  0999 V2000
   36.1960   26.3820   31.0080 N   0  0  0  0  0  0  0  0  0  0  0  0
   37.3570   25.6090   31.0980 C   0  0  2  0  0  0  0  0  0  0  0  0
   36.8070   24.2260   31.5340 C   0  0  0  0  0  0  0  0  0  0  0  0
   35.3080   24.3450   31.5380 C   0  0  0  0  0  0  0  0  0  0  0  0
   35.1070   25.4700   30.5680 C   0  0  0  0  0  0  0  0  0  0  0  0
   37.6490   25.3750   30.0100 H   0  0  0  0  0  0  0  0  0  0  0  0
   37.1910   23.4110   30.9240 H   0  0  0  0  0  0  0  0  0  0  0  0
   37.1600   24.0830   32.5800 H   0  0  0  0  0  0  0  0  0  0  0  0
   34.9100   24.6730   32.5360 H   0  0  0  0  0  0  0  0  0  0  0  0
   34.8110   23.4050   31.2040 H   0  0  0  0  0  0  0  0  0  0  0  0
   34.1270   25.9380   30.6200 H   0  0  0  0  0  0  0  0  0  0  0  0
   35.4020   25.1360   29.5570 H   0  0  0  0  0  0  0  0  0  0  0  0
   38.5150   25.9340   31.8860 C   0  0  0  0  0  0  0  0  0  0  0  0
   39.6400   25.9340   31.0940 N   0  0  0  0  0  0  0  0  0  0  0  0
   40.8390   26.2890   31.6460 C   0  0  0  0  0  3  0  0  0  0  0  0
   40.9560   26.6440   32.9580 N   0  0  0  0  0  0  0  0  0  0  0  0
   39.8860   26.6590   33.7710 C   0  0  0  0  0  0  0  0  0  0  0  0
   39.8950   26.9980   35.1090 C   0  0  0  0  0  3  0  0  0  0  0  0
   38.7100   26.9680   35.8430 C   0  0  0  0  0  0  0  0  0  0  0  0
   38.7370   27.2370   36.8870 H   0  0  0  0  0  0  0  0  0  0  0  0
   37.4940   26.6020   35.2560 C   0  0  0  0  0  0  0  0  0  0  0  0
   36.5860   26.5890   35.8590 H   0  0  0  0  0  0  0  0  0  0  0  0
   37.5140   26.2680   33.9170 C   0  0  0  0  0  3  0  0  0  0  0  0
   38.6910   26.3010   33.2040 C   0  0  0  0  0  0  0  0  0  0  0  0
   35.9500   27.7620   31.2130 C   0  0  0  0  0  0  0  0  0  0  0  0
   36.6010   28.6030   30.3270 C   0  0  0  0  0  0  0  0  0  0  0  0
   36.4290   29.9820   30.3930 C   0  0  0  0  0  0  0  0  0  0  0  0
   35.5810   30.4310   31.3840 N   0  0  0  0  0  0  0  0  0  0  0  0
   34.9650   29.5920   32.2290 C   0  0  0  0  0  0  0  0  0  0  0  0
   35.1470   28.2480   32.1460 N   0  0  0  0  0  0  0  0  0  0  0  0
   37.2750   28.5050   29.5080 H   0  0  0  0  0  0  0  0  0  0  0  0
   36.8070   30.8040   29.8420 H   0  0  0  0  0  0  0  0  0  0  0  0
   34.3030   29.9390   33.0040 H   0  0  0  0  0  0  0  0  0  0  0  0
  1  2  1  0  0  0  0
  1 25  1  0  0  0  0
  2  6  1  6  0  0  0
  2  3  1  0  0  0  0
  2 13  1  0  0  0  0
  3  4  1  0  0  0  0
  3  8  1  0  0  0  0
  4  9  1  0  0  0  0
  5 11  1  0  0  0  0
  5  1  1  0  0  0  0
  5  4  1  0  0  0  0
  7  3  1  0  0  0  0
 10  4  1  0  0  0  0
 12  5  1  0  0  0  0
 13 24  1  0  0  0  0
 14 15  1  0  0  0  0
 14 13  2  0  0  0  0
 15 16  2  0  0  0  0
 16 17  1  0  0  0  0
 17 18  1  0  0  0  0
 18 19  2  0  0  0  0
 19 20  1  0  0  0  0
 21 19  1  0  0  0  0
 21 22  1  0  0  0  0
 23 21  2  0  0  0  0
 24 17  2  0  0  0  0
 24 23  1  0  0  0  0
 25 30  1  0  0  0  0
 26 27  1  0  0  0  0
 26 25  2  0  0  0  0
 27 28  2  0  0  0  0
 28 29  1  0  0  0  0
 29 33  1  0  0  0  0
 30 29  2  0  0  0  0
 31 26  1  0  0  0  0
 32 27  1  0  0  0  0
M  END
>  <minimizedAffinity>
-5.11063719

$$$$
