
 OpenBabel03272506563D

 23 25  0  0  0  0  0  0  0  0999 V2000
   33.2160   27.9830   48.5300 C   0  0  0  0  0  0  0  0  0  0  0  0
   32.1180   28.3230   49.2360 N   0  0  0  0  0  0  0  0  0  0  0  0
   30.9770   27.6340   49.2400 C   0  0  0  0  0  3  0  0  0  0  0  0
   30.8200   26.5100   48.5220 N   0  0  0  0  0  0  0  0  0  0  0  0
   31.8600   26.0920   47.7860 C   0  0  0  0  0  0  0  0  0  0  0  0
   31.6740   24.9380   47.0590 C   0  0  0  0  0  3  0  0  0  0  0  0
   32.6910   24.4480   46.2840 C   0  0  0  0  0  0  0  0  0  0  0  0
   32.5140   23.5460   45.7280 H   0  0  0  0  0  0  0  0  0  0  0  0
   33.8930   25.1620   46.2710 C   0  0  0  0  0  0  0  0  0  0  0  0
   34.6720   24.7350   45.6400 H   0  0  0  0  0  0  0  0  0  0  0  0
   34.0110   26.3090   47.0200 C   0  0  0  0  0  3  0  0  0  0  0  0
   33.0250   26.8270   47.8020 C   0  0  0  0  0  0  0  0  0  0  0  0
   36.4050   28.9940   49.8210 C   0  0  0  0  0  0  0  0  0  0  0  0
   36.9470   29.9240   48.9400 C   0  0  0  0  0  0  0  0  0  0  0  0
   36.1610   30.2280   47.8230 C   0  0  0  0  0  0  0  0  0  0  0  0
   34.9680   29.6240   47.6670 N   0  0  0  0  0  0  0  0  0  0  0  0
   34.4790   28.7430   48.5220 C   0  0  0  0  0  0  0  0  0  0  0  0
   35.2040   28.4260   49.6040 N   0  0  0  0  0  0  0  0  0  0  0  0
   37.0370   28.7830   50.6720 H   0  0  0  0  0  0  0  0  0  0  0  0
   36.4820   30.9280   47.0860 H   0  0  0  0  0  0  0  0  0  0  0  0
   38.2030   30.5250   49.1560 N   0  0  0  0  0  0  0  0  0  0  0  0
   38.5490   30.8440   50.0780 H   0  0  0  0  0  0  0  0  0  0  0  0
   38.9360   30.7230   48.4320 H   0  0  0  0  0  0  0  0  0  0  0  0
  1  2  1  0  0  0  0
  2  3  2  0  0  0  0
  4  3  1  0  0  0  0
  5 12  1  0  0  0  0
  5  4  2  0  0  0  0
  6  5  1  0  0  0  0
  7  6  2  0  0  0  0
  8  7  1  0  0  0  0
  9  7  1  0  0  0  0
  9 11  2  0  0  0  0
 10  9  1  0  0  0  0
 11 12  1  0  0  0  0
 12  1  2  0  0  0  0
 13 19  1  0  0  0  0
 14 21  1  0  0  0  0
 14 13  2  0  0  0  0
 15 14  1  0  0  0  0
 16 15  2  0  0  0  0
 16 17  1  0  0  0  0
 17  1  1  0  0  0  0
 17 18  2  0  0  0  0
 18 13  1  0  0  0  0
 20 15  1  0  0  0  0
 21 22  1  0  0  0  0
 23 21  1  0  0  0  0
M  END
>  <minimizedAffinity>
-4.41665936

>  <minimizedRMSD>
1.60942185

$$$$
