
     RDKit          3D

 45 49  0  0  0  0  0  0  0  0999 V2000
   34.7432   29.2469   48.3375 C   0  0  0  0  0  0  0  0  0  0  0  0
   34.4916   27.9440   48.7411 C   0  0  0  0  0  0  0  0  0  0  0  0
   33.4239   27.3604   48.1126 C   0  0  0  0  0  0  0  0  0  0  0  0
   32.6623   28.0046   47.1624 C   0  0  0  0  0  0  0  0  0  0  0  0
   32.9823   29.2919   46.8251 C   0  0  0  0  0  0  0  0  0  0  0  0
   34.0270   29.9037   47.4206 N   0  0  0  0  0  0  0  0  0  0  0  0
   29.9716   29.0756   47.0136 Cl  0  0  0  0  0  0  0  0  0  0  0  0
   30.8487   29.9931   45.8292 C   0  0  0  0  0  0  0  0  0  0  0  0
   32.2179   30.0229   45.8349 C   0  0  0  0  0  0  0  0  0  0  0  0
   32.7767   30.8007   44.8288 C   0  0  0  0  0  0  0  0  0  0  0  0
   32.0577   31.4930   43.8934 C   0  0  0  0  0  0  0  0  0  0  0  0
   30.6674   31.4349   43.9242 C   0  0  0  0  0  0  0  0  0  0  0  0
   29.7470   32.3127   42.7407 Cl  0  0  0  0  0  0  0  0  0  0  0  0
   30.0864   30.6761   44.9045 C   0  0  0  0  0  0  0  0  0  0  0  0
   37.3695   30.2958   50.6817 C   0  0  0  0  0  0  0  0  0  0  0  0
   38.0026   31.3259   49.9905 C   0  0  0  0  0  0  0  0  0  0  0  0
   37.5287   31.6635   48.7322 C   0  0  0  0  0  0  0  0  0  0  0  0
   36.4710   30.9452   48.2810 N   0  0  0  0  0  0  0  0  0  0  0  0
   35.8727   29.9701   48.9346 C   0  0  0  0  0  0  0  0  0  0  0  0
   36.3361   29.6490   50.1513 N   0  0  0  0  0  0  0  0  0  0  0  0
   37.7818   29.8670   52.0001 N   0  0  0  0  0  0  0  0  0  0  0  0
   35.0973   27.4689   49.4793 H   0  0  0  0  0  0  0  0  0  0  0  0
   33.1806   26.3308   48.3937 H   0  0  0  0  0  0  0  0  0  0  0  0
   31.8493   27.4393   46.7318 H   0  0  0  0  0  0  0  0  0  0  0  0
   33.8611   30.8672   44.7769 H   0  0  0  0  0  0  0  0  0  0  0  0
   32.5180   32.0866   43.1268 H   0  0  0  0  0  0  0  0  0  0  0  0
   29.0010   30.6497   44.9035 H   0  0  0  0  0  0  0  0  0  0  0  0
   38.8296   31.8229   50.4469 H   0  0  0  0  0  0  0  0  0  0  0  0
   37.5003   30.6971   52.6017 H   0  0  0  0  0  0  0  0  0  0  0  0
   38.2316   28.9787   52.2630 H   0  0  0  0  0  0  0  0  0  0  0  0
   38.2382   32.7412   48.0746 C   0  0  0  0  0  0  0  0  0  0  0  0
   39.2963   32.4802   47.2869 N   0  0  0  0  0  0  0  0  0  0  0  0
   40.0123   33.4069   46.6395 C   0  0  0  0  0  0  0  0  0  0  0  0
   39.7312   34.7177   46.7201 N   0  0  0  0  0  0  0  0  0  0  0  0
   38.6819   35.0742   47.4911 C   0  0  0  0  0  0  0  0  0  0  0  0
   38.3474   36.4061   47.6107 C   0  0  0  0  0  0  0  0  0  0  0  0
   37.2828   36.8199   48.3878 C   0  0  0  0  0  0  0  0  0  0  0  0
   37.0045   37.8583   48.4944 H   0  0  0  0  0  0  0  0  0  0  0  0
   36.5618   35.8191   49.0467 C   0  0  0  0  0  0  0  0  0  0  0  0
   35.7285   36.1623   49.6529 H   0  0  0  0  0  0  0  0  0  0  0  0
   36.9341   34.5029   48.8964 C   0  0  0  0  0  0  0  0  0  0  0  0
   37.9743   34.0873   48.1384 C   0  0  0  0  0  0  0  0  0  0  0  0
   40.8396   32.9956   46.0450 H   0  0  0  0  0  0  0  0  0  0  0  0
   38.9421   37.1283   47.0779 H   0  0  0  0  0  0  0  0  0  0  0  0
   36.3153   33.8422   49.4414 H   0  0  0  0  0  0  0  0  0  0  0  0
  1  2  2  0
  1 19  1  0
  3  2  1  0
  4  3  2  0
  5  4  1  0
  5  6  2  0
  6  1  1  0
  8  9  2  0
  8  7  1  0
  9  5  1  0
 10  9  1  0
 11 12  1  0
 11 10  2  0
 12 14  2  0
 13 12  1  0
 14  8  1  0
 15 21  1  0
 16 15  2  0
 17 16  1  0
 18 17  2  0
 18 19  1  0
 19 20  2  0
 20 15  1  0
  2 22  1  0
  3 23  1  0
  4 24  1  0
 10 25  1  0
 11 26  1  0
 14 27  1  0
 16 28  1  0
 21 29  1  0
 21 30  1  0
 31 32  2  0
 32 33  1  0
 33 34  2  0
 34 35  1  0
 35 36  2  0
 36 37  1  0
 37 38  1  0
 37 39  2  0
 39 40  1  0
 39 41  1  0
 41 42  2  0
 42 31  1  0
 42 35  1  0
 33 43  1  0
 36 44  1  0
 41 45  1  0
 17 31  1  0
M  ISO  8  22  14  23  14  24  14  25  14  26  14  27  14  28  14  38  16
M  ISO  1  40  16
M  END
>  <DihAtoms>  (1) 
15,16,30,31

>  <DihDeg>  (1) 
-0.03850833351889998

$$$$
