
 OpenBabel03272510083D

 47 52  0  0  0  0  0  0  0  0999 V2000
   35.8060   30.3670   47.1960 C   0  0  0  0  0  0  0  0  0  0  0  0
   36.0530   30.8690   48.4340 N   0  0  0  0  0  0  0  0  0  0  0  0
   37.2070   31.5020   48.6790 C   0  0  0  0  0  0  0  0  0  0  0  0
   38.1970   31.6890   47.7430 N   0  0  0  0  0  0  0  0  0  0  0  0
   37.9820   31.2030   46.5150 C   0  0  0  0  0  0  0  0  0  0  0  0
   38.9250   31.2850   45.4920 C   0  0  0  0  0  0  0  0  0  0  0  0
   38.6910   30.7290   44.2420 C   0  0  0  0  0  0  0  0  0  0  0  0
   37.4760   30.0680   44.0010 C   0  0  0  0  0  0  0  0  0  0  0  0
   36.5590   30.0120   45.0490 C   0  0  0  0  0  0  0  0  0  0  0  0
   36.7980   30.5580   46.2690 C   0  0  0  0  0  0  0  0  0  0  0  0
   37.4060   31.8990   49.6700 H   0  0  0  0  0  0  0  0  0  0  0  0
   39.8460   31.8160   45.7540 H   0  0  0  0  0  0  0  0  0  0  0  0
   39.5130   30.8820   43.5780 H   0  0  0  0  0  0  0  0  0  0  0  0
   37.5230   29.7230   42.9820 H   0  0  0  0  0  0  0  0  0  0  0  0
   34.2060   28.3650   47.3010 C   0  0  0  0  0  0  0  0  0  0  0  0
   34.5470   29.7190   47.0450 C   0  0  0  0  0  0  0  0  0  0  0  0
   33.5380   30.5830   46.5590 C   0  0  0  0  0  0  0  0  0  0  0  0
   32.2880   30.0960   46.3460 N   0  0  0  0  0  0  0  0  0  0  0  0
   32.0240   28.7750   46.6090 C   0  0  0  0  0  0  0  0  0  0  0  0
   32.9640   27.9210   47.0810 N   0  0  0  0  0  0  0  0  0  0  0  0
   30.6910   28.2960   46.3300 N   0  0  0  0  0  0  0  0  0  0  0  0
   29.5130   28.8030   46.9690 C   0  0  0  0  0  0  0  0  0  0  0  0
   28.3750   28.2290   46.1840 C   0  0  0  0  0  0  0  0  0  0  0  0
   28.9670   27.5920   44.9500 C   0  0  0  0  0  0  0  0  0  0  0  0
   30.3520   27.2400   45.3710 C   0  0  0  0  0  0  0  0  0  0  0  0
   35.0300   27.7900   47.6690 H   0  0  0  0  0  0  0  0  0  0  0  0
   33.6760   31.6070   46.3410 H   0  0  0  0  0  0  0  0  0  0  0  0
   29.4710   28.4970   48.0430 H   0  0  0  0  0  0  0  0  0  0  0  0
   29.5020   29.9030   46.8390 H   0  0  0  0  0  0  0  0  0  0  0  0
   27.6640   29.0120   45.8500 H   0  0  0  0  0  0  0  0  0  0  0  0
   27.8090   27.4860   46.8010 H   0  0  0  0  0  0  0  0  0  0  0  0
   28.9480   28.2700   44.0690 H   0  0  0  0  0  0  0  0  0  0  0  0
   28.3890   26.6740   44.7370 H   0  0  0  0  0  0  0  0  0  0  0  0
   31.0670   27.1470   44.5520 H   0  0  0  0  0  0  0  0  0  0  0  0
   30.3360   26.2640   45.8970 H   0  0  0  0  0  0  0  0  0  0  0  0
   35.4240   29.4150   44.3490 C   0  0  0  0  0  0  0  0  0  0  0  0
   34.8620   28.1970   44.2180 N   0  0  0  0  0  0  0  0  0  0  0  0
   33.8460   27.9750   43.3940 C   0  0  0  0  0  3  0  0  0  0  0  0
   33.3180   28.9360   42.6420 N   0  0  0  0  0  0  0  0  0  0  0  0
   33.8000   30.2000   42.6850 C   0  0  0  0  0  0  0  0  0  0  0  0
   33.2000   31.0990   41.8440 C   0  0  0  0  0  3  0  0  0  0  0  0
   33.6850   32.3750   41.8430 C   0  0  0  0  0  0  0  0  0  0  0  0
   33.2740   33.1210   41.2110 H   0  0  0  0  0  0  0  0  0  0  0  0
   34.7310   32.7150   42.6560 C   0  0  0  0  0  0  0  0  0  0  0  0
   35.1760   33.7170   42.7010 H   0  0  0  0  0  0  0  0  0  0  0  0
   35.2850   31.7630   43.4740 C   0  0  0  0  0  3  0  0  0  0  0  0
   34.8690   30.4280   43.5580 C   0  0  0  0  0  0  0  0  0  0  0  0
  1  2  1  0  0  0  0
  2  3  2  0  0  0  0
  3 11  1  0  0  0  0
  4  3  1  0  0  0  0
  5  4  2  0  0  0  0
  6 12  1  0  0  0  0
  6  5  1  0  0  0  0
  7  6  2  0  0  0  0
  8  7  1  0  0  0  0
  8  9  2  0  0  0  0
  9 10  1  0  0  0  0
 10  5  1  0  0  0  0
 10  1  2  0  0  0  0
 13  7  1  0  0  0  0
 14  8  1  0  0  0  0
 15 26  1  0  0  0  0
 16  1  1  0  0  0  0
 16 15  2  0  0  0  0
 17 16  1  0  0  0  0
 18 17  2  0  0  0  0
 18 19  1  0  0  0  0
 19 20  2  0  0  0  0
 20 15  1  0  0  0  0
 21 19  1  0  0  0  0
 21 22  1  0  0  0  0
 22 28  1  0  0  0  0
 23 31  1  0  0  0  0
 23 22  1  0  0  0  0
 24 25  1  0  0  0  0
 24 23  1  0  0  0  0
 25 35  1  0  0  0  0
 25 21  1  0  0  0  0
 27 17  1  0  0  0  0
 29 22  1  0  0  0  0
 30 23  1  0  0  0  0
 32 24  1  0  0  0  0
 33 24  1  0  0  0  0
 34 25  1  0  0  0  0
 36  9  1  0  0  0  0
 37 36  1  0  0  0  0
 38 37  2  0  0  0  0
 39 40  2  0  0  0  0
 39 38  1  0  0  0  0
 40 47  1  0  0  0  0
 41 40  1  0  0  0  0
 42 41  2  0  0  0  0
 42 44  1  0  0  0  0
 43 42  1  0  0  0  0
 44 45  1  0  0  0  0
 44 46  2  0  0  0  0
 46 47  1  0  0  0  0
 47 36  2  0  0  0  0
M  END
>  <minimizedAffinity>
-4.91925669

>  <minimizedRMSD>
2.67737341

$$$$
