
 OpenBabel03262523103D

 23 25  0  0  0  0  0  0  0  0999 V2000
   33.9360   27.9300   48.1200 C   0  0  0  0  0  0  0  0  0  0  0  0
   34.4430   27.1280   47.1630 N   0  0  0  0  0  0  0  0  0  0  0  0
   33.7320   26.1530   46.5980 C   0  0  0  0  0  3  0  0  0  0  0  0
   32.4600   25.8680   46.9190 N   0  0  0  0  0  0  0  0  0  0  0  0
   31.8890   26.6280   47.8660 C   0  0  0  0  0  0  0  0  0  0  0  0
   30.5830   26.3430   48.2010 C   0  0  0  0  0  3  0  0  0  0  0  0
   29.9410   27.0870   49.1680 C   0  0  0  0  0  0  0  0  0  0  0  0
   28.9220   26.8110   49.3800 H   0  0  0  0  0  0  0  0  0  0  0  0
   30.6680   28.1010   49.7580 C   0  0  0  0  0  0  0  0  0  0  0  0
   30.1070   28.6580   50.5190 H   0  0  0  0  0  0  0  0  0  0  0  0
   31.9710   28.3560   49.3980 C   0  0  0  0  0  3  0  0  0  0  0  0
   32.6320   27.6300   48.4390 C   0  0  0  0  0  0  0  0  0  0  0  0
   36.5940   29.3300   50.1090 C   0  0  0  0  0  0  0  0  0  0  0  0
   36.4300   30.7250   50.1200 C   0  0  0  0  0  0  0  0  0  0  0  0
   35.3470   31.1980   49.4030 C   0  0  0  0  0  0  0  0  0  0  0  0
   34.5500   30.3320   48.7670 N   0  0  0  0  0  0  0  0  0  0  0  0
   34.7030   29.0110   48.7540 C   0  0  0  0  0  0  0  0  0  0  0  0
   35.7420   28.5730   49.4430 N   0  0  0  0  0  0  0  0  0  0  0  0
   37.1070   31.3370   50.6500 H   0  0  0  0  0  0  0  0  0  0  0  0
   35.1310   32.2310   49.3450 H   0  0  0  0  0  0  0  0  0  0  0  0
   37.6860   28.6870   50.8170 N   0  0  0  0  0  0  0  0  0  0  0  0
   38.6770   28.6130   50.5410 H   0  0  0  0  0  0  0  0  0  0  0  0
   37.4810   28.2260   51.7310 H   0  0  0  0  0  0  0  0  0  0  0  0
  1 12  1  0  0  0  0
  1 17  1  0  0  0  0
  2  1  2  0  0  0  0
  3  4  2  0  0  0  0
  3  2  1  0  0  0  0
  4  5  1  0  0  0  0
  5  6  2  0  0  0  0
  5 12  1  0  0  0  0
  6  7  1  0  0  0  0
  7  8  1  0  0  0  0
  7  9  2  0  0  0  0
  9 10  1  0  0  0  0
 11  9  1  0  0  0  0
 12 11  2  0  0  0  0
 13 14  1  0  0  0  0
 13 21  1  0  0  0  0
 14 19  1  0  0  0  0
 15 14  2  0  0  0  0
 16 15  1  0  0  0  0
 17 16  2  0  0  0  0
 17 18  1  0  0  0  0
 18 13  2  0  0  0  0
 20 15  1  0  0  0  0
 21 23  1  0  0  0  0
 22 21  1  0  0  0  0
M  END
>  <minimizedAffinity>
-3.66636682

>  <minimizedRMSD>
1.50377047

$$$$
