
     RDKit          3D

 39 42  0  0  0  0  0  0  0  0999 V2000
   35.2032   29.2797   48.3962 C   0  0  0  0  0  0  0  0  0  0  0  0
   34.6111   29.8652   47.2811 C   0  0  0  0  0  0  0  0  0  0  0  0
   33.3450   29.4767   46.8892 C   0  0  0  0  0  0  0  0  0  0  0  0
   32.7273   28.5095   47.6433 N   0  0  0  0  0  0  0  0  0  0  0  0
   33.3320   27.9621   48.7213 C   0  0  0  0  0  0  0  0  0  0  0  0
   34.5546   28.3497   49.0841 N   0  0  0  0  0  0  0  0  0  0  0  0
   36.5012   29.6160   48.8653 N   0  0  0  0  0  0  0  0  0  0  0  0
   36.9335   29.3466   50.2309 C   0  0  0  0  0  0  0  0  0  0  0  0
   37.6368   30.3956   50.9574 C   0  0  0  0  0  0  0  0  0  0  0  0
   38.3412   31.4382   50.1768 C   0  0  0  0  0  0  0  0  0  0  0  0
   37.8007   31.6394   48.7792 C   0  0  0  0  0  0  0  0  0  0  0  0
   37.5715   30.2303   48.1793 C   0  0  2  0  0  0  0  0  0  0  0  0
   35.1072   30.6227   46.7119 H   0  0  0  0  0  0  0  0  0  0  0  0
   32.8960   29.9314   46.0299 H   0  0  0  0  0  0  0  0  0  0  0  0
   32.7642   27.2094   49.2491 H   0  0  0  0  0  0  0  0  0  0  0  0
   37.5563   28.4086   50.1488 H   0  0  0  0  0  0  0  0  0  0  0  0
   36.0274   29.0203   50.7843 H   0  0  0  0  0  0  0  0  0  0  0  0
   36.9608   30.8814   51.6972 H   0  0  0  0  0  0  0  0  0  0  0  0
   38.4152   29.9020   51.6085 H   0  0  0  0  0  0  0  0  0  0  0  0
   39.4336   31.2414   50.0377 H   0  0  0  0  0  0  0  0  0  0  0  0
   38.2822   32.4381   50.6694 H   0  0  0  0  0  0  0  0  0  0  0  0
   38.5240   32.1061   48.1113 H   0  0  0  0  0  0  0  0  0  0  0  0
   36.8237   32.1281   48.7494 H   0  0  0  0  0  0  0  0  0  0  0  0
   38.5765   29.7232   48.4083 H   0  0  0  0  0  0  0  0  0  0  0  0
   37.5440   30.3255   46.7274 C   0  0  0  0  0  0  0  0  0  0  0  0
   37.2089   29.2849   45.9011 N   0  0  0  0  0  0  0  0  0  0  0  0
   37.1911   29.4716   44.5740 C   0  0  0  0  0  0  0  0  0  0  0  0
   37.4836   30.6359   43.9371 N   0  0  0  0  0  0  0  0  0  0  0  0
   37.8172   31.6815   44.7122 C   0  0  0  0  0  0  0  0  0  0  0  0
   38.1138   32.8692   44.0878 C   0  0  0  0  0  0  0  0  0  0  0  0
   38.4589   33.9732   44.8393 C   0  0  0  0  0  0  0  0  0  0  0  0
   38.6904   34.9022   44.3396 H   0  0  0  0  0  0  0  0  0  0  0  0
   38.4998   33.8625   46.2147 C   0  0  0  0  0  0  0  0  0  0  0  0
   38.7706   34.7295   46.8050 H   0  0  0  0  0  0  0  0  0  0  0  0
   38.1958   32.6596   46.7772 C   0  0  0  0  0  0  0  0  0  0  0  0
   37.8413   31.5100   46.0809 C   0  0  0  0  0  0  0  0  0  0  0  0
   36.9241   28.6421   43.9157 H   0  0  0  0  0  0  0  0  0  0  0  0
   38.0866   32.9719   43.0172 H   0  0  0  0  0  0  0  0  0  0  0  0
   38.2393   32.6292   47.8549 H   0  0  0  0  0  0  0  0  0  0  0  0
  1  7  1  0
  1  6  1  0
  2  1  2  0
  3  2  1  0
  3  4  2  0
  4  5  1  0
  5  6  2  0
  7  8  1  0
  8  9  1  0
 10  9  1  0
 11 10  1  0
 12 11  1  0
 12  7  1  0
  2 13  1  0
  3 14  1  0
  5 15  1  0
  8 16  1  0
  8 17  1  0
  9 18  1  0
  9 19  1  0
 10 20  1  0
 10 21  1  0
 11 22  1  0
 11 23  1  0
 12 24  1  6
 25 26  2  0
 26 27  1  0
 27 28  2  0
 28 29  1  0
 29 30  2  0
 30 31  1  0
 31 32  1  0
 31 33  2  0
 33 34  1  0
 33 35  1  0
 35 36  2  0
 36 25  1  0
 36 29  1  0
 27 37  1  0
 30 38  1  0
 35 39  1  0
 12 25  1  0
M  ISO  8  13  14  14  14  15  14  16  13  17  13  18  13  19  13  20  13
M  ISO  6  21  13  22  13  23  13  24  13  32  16  34  16
M  END
>  <DihAtoms>  (1) 
10,11,24,25

>  <DihDeg>  (1) 
-7.27440024701151

$$$$
