
 OpenBabel03272509083D

 43 47  0  0  0  0  0  0  0  0999 V2000
   33.5940   26.9310   46.9330 C   0  0  0  0  0  0  0  0  0  0  0  0
   33.7520   25.6340   47.3540 C   0  0  0  0  0  0  0  0  0  0  0  0
   34.1460   24.6520   46.4750 C   0  0  0  0  0  0  0  0  0  0  0  0
   34.3960   24.9410   45.1370 C   0  0  0  0  0  0  0  0  0  0  0  0
   34.2390   26.2310   44.7190 C   0  0  0  0  0  0  0  0  0  0  0  0
   33.8450   27.2280   45.5880 C   0  0  0  0  0  0  0  0  0  0  0  0
   33.5400   25.4870   48.4100 H   0  0  0  0  0  0  0  0  0  0  0  0
   34.2290   23.6840   46.9360 H   0  0  0  0  0  0  0  0  0  0  0  0
   34.6970   24.0720   44.5750 H   0  0  0  0  0  0  0  0  0  0  0  0
   34.4570   26.3630   43.6660 H   0  0  0  0  0  0  0  0  0  0  0  0
   33.7820   28.5370   44.9310 C   0  0  0  0  0  0  0  0  0  0  0  0
   34.8890   29.2770   44.8090 N   0  0  0  0  0  0  0  0  0  0  0  0
   34.9570   30.4790   44.2460 C   0  0  0  0  0  3  0  0  0  0  0  0
   33.8020   30.9810   43.7630 N   0  0  0  0  0  0  0  0  0  0  0  0
   32.6400   30.3120   43.8400 C   0  0  0  0  0  0  0  0  0  0  0  0
   31.4870   30.9140   43.3220 C   0  0  0  0  0  3  0  0  0  0  0  0
   30.3590   30.1370   43.4690 C   0  0  0  0  0  0  0  0  0  0  0  0
   29.4470   30.5980   43.0670 H   0  0  0  0  0  0  0  0  0  0  0  0
   30.2400   28.9010   44.0390 C   0  0  0  0  0  0  0  0  0  0  0  0
   29.2850   28.3930   44.0900 H   0  0  0  0  0  0  0  0  0  0  0  0
   31.4250   28.3540   44.5370 C   0  0  0  0  0  3  0  0  0  0  0  0
   32.5970   29.0540   44.4350 C   0  0  0  0  0  0  0  0  0  0  0  0
   33.1620   28.0850   47.7880 C   0  0  0  0  0  0  0  0  0  0  0  0
   32.5200   27.6550   48.5830 H   0  0  0  0  0  0  0  0  0  0  0  0
   32.5330   28.7580   47.1880 H   0  0  0  0  0  0  0  0  0  0  0  0
   34.9960   28.4020   49.4650 C   0  0  0  0  0  3  0  0  0  0  0  0
   34.2820   28.7860   48.4430 C   0  0  0  0  0  3  0  0  0  0  0  0
   37.4050   30.1590   51.5740 C   0  0  0  0  0  0  0  0  0  0  0  0
   38.1070   30.9220   50.6290 C   0  0  0  0  0  0  0  0  0  0  0  0
   37.7320   30.8190   49.2770 C   0  0  0  0  0  0  0  0  0  0  0  0
   36.6930   29.9700   48.9570 N   0  0  0  0  0  0  0  0  0  0  0  0
   36.0660   29.2670   49.9310 C   0  0  0  0  0  0  0  0  0  0  0  0
   36.4100   29.3590   51.2040 N   0  0  0  0  0  0  0  0  0  0  0  0
   37.7510   30.2920   52.6090 H   0  0  0  0  0  0  0  0  0  0  0  0
   38.9350   31.6050   50.8480 H   0  0  0  0  0  0  0  0  0  0  0  0
   38.3810   31.5680   48.2080 C   0  0  0  0  0  0  0  0  0  0  0  0
   38.5910   31.0370   46.9460 C   0  0  0  0  0  0  0  0  0  0  0  0
   39.2300   32.0350   46.1860 C   0  0  0  0  0  0  0  0  0  0  0  0
   39.3800   33.1080   47.0010 N   0  0  0  0  0  0  0  0  0  0  0  0
   38.8750   32.8240   48.1950 N   0  0  0  0  0  0  0  0  0  0  0  0
   38.3600   30.0860   46.5140 H   0  0  0  0  0  0  0  0  0  0  0  0
   39.5630   32.0240   45.1610 H   0  0  0  0  0  0  0  0  0  0  0  0
   39.8030   34.0650   46.8480 H   0  0  0  0  0  0  0  0  0  0  0  0
  1  2  1  0  0  0  0
  1 23  1  0  0  0  0
  2  7  1  0  0  0  0
  3  8  1  0  0  0  0
  3  2  2  0  0  0  0
  4  3  1  0  0  0  0
  5  4  2  0  0  0  0
  5  6  1  0  0  0  0
  6  1  2  0  0  0  0
  9  4  1  0  0  0  0
 10  5  1  0  0  0  0
 11  6  1  0  0  0  0
 12 11  1  0  0  0  0
 13 12  2  0  0  0  0
 14 15  2  0  0  0  0
 14 13  1  0  0  0  0
 15 22  1  0  0  0  0
 16 17  2  0  0  0  0
 16 15  1  0  0  0  0
 17 19  1  0  0  0  0
 18 17  1  0  0  0  0
 19 20  1  0  0  0  0
 19 21  2  0  0  0  0
 22 21  1  0  0  0  0
 22 11  2  0  0  0  0
 23 27  1  0  0  0  0
 23 24  1  0  0  0  0
 25 23  1  0  0  0  0
 26 32  1  0  0  0  0
 27 26  2  0  0  0  0
 28 34  1  0  0  0  0
 29 35  1  0  0  0  0
 29 28  2  0  0  0  0
 30 29  1  0  0  0  0
 31 30  2  0  0  0  0
 31 32  1  0  0  0  0
 32 33  2  0  0  0  0
 33 28  1  0  0  0  0
 36 30  1  0  0  0  0
 37 36  1  0  0  0  0
 38 37  2  0  0  0  0
 38 39  1  0  0  0  0
 39 40  1  0  0  0  0
 40 36  2  0  0  0  0
 41 37  1  0  0  0  0
 42 38  1  0  0  0  0
 43 39  1  0  0  0  0
M  END
>  <minimizedAffinity>
-6.56518984

>  <minimizedRMSD>
0.0827075467

$$$$
