
     RDKit          3D

 26 28  0  0  0  0  0  0  0  0999 V2000
   36.6315   29.7617   51.2625 C   0  0  0  0  0  0  0  0  0  0  0  0
   37.3757   30.1144   50.1419 C   0  0  0  0  0  0  0  0  0  0  0  0
   36.7989   29.7922   48.9083 C   0  0  0  0  0  0  0  0  0  0  0  0
   35.6002   29.1815   48.8761 N   0  0  0  0  0  0  0  0  0  0  0  0
   34.9163   28.8587   49.9597 C   0  0  0  0  0  0  0  0  0  0  0  0
   35.4369   29.1515   51.1597 N   0  0  0  0  0  0  0  0  0  0  0  0
   38.6284   30.7540   50.2368 N   0  0  0  0  0  0  0  0  0  0  0  0
   37.1061   30.0249   52.1980 H   0  0  0  0  0  0  0  0  0  0  0  0
   37.2845   30.0179   47.9868 H   0  0  0  0  0  0  0  0  0  0  0  0
   38.8517   31.5049   50.9131 H   0  0  0  0  0  0  0  0  0  0  0  0
   39.4765   30.5596   49.6516 H   0  0  0  0  0  0  0  0  0  0  0  0
   33.6098   28.1979   50.1326 C   0  0  0  0  0  0  0  0  0  0  0  0
   32.6473   28.6069   50.9842 N   0  0  0  0  0  0  0  0  0  0  0  0
   31.4673   28.0058   51.1369 C   0  0  0  0  0  0  0  0  0  0  0  0
   31.1267   26.9124   50.4371 N   0  0  0  0  0  0  0  0  0  0  0  0
   32.0220   26.4300   49.5626 C   0  0  0  0  0  0  0  0  0  0  0  0
   31.6495   25.3083   48.8572 C   0  0  0  0  0  0  0  0  0  0  0  0
   32.5113   24.7589   47.9463 C   0  0  0  0  0  0  0  0  0  0  0  0
   32.1913   23.8831   47.4115 H   0  0  0  0  0  0  0  0  0  0  0  0
   33.7531   25.3795   47.7760 C   0  0  0  0  0  0  0  0  0  0  0  0
   34.4042   24.9066   47.0414 H   0  0  0  0  0  0  0  0  0  0  0  0
   34.0604   26.4977   48.5138 C   0  0  0  0  0  0  0  0  0  0  0  0
   33.2332   27.0736   49.4274 C   0  0  0  0  0  0  0  0  0  0  0  0
   30.8166   28.4716   51.8659 H   0  0  0  0  0  0  0  0  0  0  0  0
   30.6820   24.8494   49.0098 H   0  0  0  0  0  0  0  0  0  0  0  0
   35.0205   26.8625   48.2892 H   0  0  0  0  0  0  0  0  0  0  0  0
  2  7  1  0
  2  1  2  0
  3  2  1  0
  4  3  2  0
  4  5  1  0
  5  6  2  0
  6  1  1  0
  1  8  1  0
  3  9  1  0
  7 10  1  0
  7 11  1  0
 12 13  2  0
 13 14  1  0
 14 15  2  0
 15 16  1  0
 16 17  2  0
 17 18  1  0
 18 19  1  0
 18 20  2  0
 20 21  1  0
 20 22  1  0
 22 23  2  0
 23 12  1  0
 23 16  1  0
 14 24  1  0
 17 25  1  0
 22 26  1  0
  5 12  1  0
M  ISO  4   8  14   9  14  19  16  21  16
M  END
>  <DihAtoms>  (1) 
3,4,11,12

>  <DihDeg>  (1) 
-179.9986612128587

$$$$
