
 OpenBabel03262523113D

 23 25  0  0  0  0  0  0  0  0999 V2000
   38.5090   24.2090   34.4250 C   0  0  0  0  0  0  0  0  0  0  0  0
   38.0640   23.5390   33.3440 N   0  0  0  0  0  0  0  0  0  0  0  0
   37.2490   24.0940   32.4470 C   0  0  0  0  0  3  0  0  0  0  0  0
   36.7950   25.3550   32.5220 N   0  0  0  0  0  0  0  0  0  0  0  0
   37.1980   26.0820   33.5750 C   0  0  0  0  0  0  0  0  0  0  0  0
   36.7370   27.3780   33.6610 C   0  0  0  0  0  3  0  0  0  0  0  0
   37.1150   28.1770   34.7180 C   0  0  0  0  0  0  0  0  0  0  0  0
   36.7190   29.1770   34.7240 H   0  0  0  0  0  0  0  0  0  0  0  0
   37.9590   27.6130   35.6540 C   0  0  0  0  0  0  0  0  0  0  0  0
   38.2270   28.2920   36.4720 H   0  0  0  0  0  0  0  0  0  0  0  0
   38.3990   26.3140   35.5350 C   0  0  0  0  0  3  0  0  0  0  0  0
   38.0380   25.4980   34.4920 C   0  0  0  0  0  0  0  0  0  0  0  0
   39.3990   22.9000   37.6620 C   0  0  0  0  0  0  0  0  0  0  0  0
   40.7480   22.5110   37.6100 C   0  0  0  0  0  0  0  0  0  0  0  0
   41.3740   22.7140   36.3940 C   0  0  0  0  0  0  0  0  0  0  0  0
   40.6840   23.2470   35.3800 N   0  0  0  0  0  0  0  0  0  0  0  0
   39.4070   23.6170   35.4250 C   0  0  0  0  0  0  0  0  0  0  0  0
   38.8220   23.4170   36.5930 N   0  0  0  0  0  0  0  0  0  0  0  0
   41.2160   22.0970   38.4590 H   0  0  0  0  0  0  0  0  0  0  0  0
   42.3880   22.4570   36.2450 H   0  0  0  0  0  0  0  0  0  0  0  0
   38.6100   22.7490   38.8710 N   0  0  0  0  0  0  0  0  0  0  0  0
   38.1790   21.8940   39.2570 H   0  0  0  0  0  0  0  0  0  0  0  0
   38.4320   23.5960   39.4560 H   0  0  0  0  0  0  0  0  0  0  0  0
  1 12  1  0  0  0  0
  1 17  1  0  0  0  0
  2  1  2  0  0  0  0
  3  4  2  0  0  0  0
  3  2  1  0  0  0  0
  4  5  1  0  0  0  0
  5  6  2  0  0  0  0
  5 12  1  0  0  0  0
  6  7  1  0  0  0  0
  7  8  1  0  0  0  0
  7  9  2  0  0  0  0
  9 10  1  0  0  0  0
 11  9  1  0  0  0  0
 12 11  2  0  0  0  0
 13 21  1  0  0  0  0
 14 13  1  0  0  0  0
 14 19  1  0  0  0  0
 15 14  2  0  0  0  0
 16 17  2  0  0  0  0
 16 15  1  0  0  0  0
 17 18  1  0  0  0  0
 18 13  2  0  0  0  0
 20 15  1  0  0  0  0
 21 22  1  0  0  0  0
 21 23  1  0  0  0  0
M  END
>  <minimizedAffinity>
-5.4603529

$$$$

 OpenBabel03262523113D

 23 25  0  0  0  0  0  0  0  0999 V2000
   38.6430   24.4420   34.5630 C   0  0  0  0  0  0  0  0  0  0  0  0
   37.8700   23.7890   33.6730 N   0  0  0  0  0  0  0  0  0  0  0  0
   37.9140   24.0470   32.3650 C   0  0  0  0  0  3  0  0  0  0  0  0
   38.7170   24.9660   31.8070 N   0  0  0  0  0  0  0  0  0  0  0  0
   39.5160   25.6560   32.6350 C   0  0  0  0  0  0  0  0  0  0  0  0
   40.3440   26.6020   32.0710 C   0  0  0  0  0  3  0  0  0  0  0  0
   41.1880   27.3440   32.8670 C   0  0  0  0  0  0  0  0  0  0  0  0
   41.8070   28.0650   32.3630 H   0  0  0  0  0  0  0  0  0  0  0  0
   41.1520   27.0860   34.2230 C   0  0  0  0  0  0  0  0  0  0  0  0
   41.8430   27.7040   34.8080 H   0  0  0  0  0  0  0  0  0  0  0  0
   40.3110   26.1330   34.7510 C   0  0  0  0  0  3  0  0  0  0  0  0
   39.4610   25.3800   33.9800 C   0  0  0  0  0  0  0  0  0  0  0  0
   39.6370   22.7980   37.6110 C   0  0  0  0  0  0  0  0  0  0  0  0
   38.8790   23.3460   38.6590 C   0  0  0  0  0  0  0  0  0  0  0  0
   37.9830   24.3320   38.2870 C   0  0  0  0  0  0  0  0  0  0  0  0
   37.8960   24.6890   37.0010 N   0  0  0  0  0  0  0  0  0  0  0  0
   38.6120   24.1730   36.0060 C   0  0  0  0  0  0  0  0  0  0  0  0
   39.4630   23.2320   36.3770 N   0  0  0  0  0  0  0  0  0  0  0  0
   39.0120   23.0050   39.6480 H   0  0  0  0  0  0  0  0  0  0  0  0
   37.3630   24.8110   38.9960 H   0  0  0  0  0  0  0  0  0  0  0  0
   40.6170   21.7550   37.8470 N   0  0  0  0  0  0  0  0  0  0  0  0
   41.5700   21.8410   38.2340 H   0  0  0  0  0  0  0  0  0  0  0  0
   40.3630   20.7700   37.6050 H   0  0  0  0  0  0  0  0  0  0  0  0
  1 17  1  0  0  0  0
  2  1  2  0  0  0  0
  3  2  1  0  0  0  0
  4  3  2  0  0  0  0
  4  5  1  0  0  0  0
  5 12  1  0  0  0  0
  6  5  2  0  0  0  0
  6  7  1  0  0  0  0
  7  9  2  0  0  0  0
  8  7  1  0  0  0  0
  9 11  1  0  0  0  0
  9 10  1  0  0  0  0
 12  1  1  0  0  0  0
 12 11  2  0  0  0  0
 13 21  1  0  0  0  0
 13 14  1  0  0  0  0
 14 19  1  0  0  0  0
 15 14  2  0  0  0  0
 15 20  1  0  0  0  0
 16 15  1  0  0  0  0
 17 18  1  0  0  0  0
 17 16  2  0  0  0  0
 18 13  2  0  0  0  0
 21 22  1  0  0  0  0
 23 21  1  0  0  0  0
M  END
>  <minimizedAffinity>
-5.31640339

$$$$

 OpenBabel03262523113D

 23 25  0  0  0  0  0  0  0  0999 V2000
   38.1680   22.9550   34.1820 C   0  0  0  0  0  0  0  0  0  0  0  0
   38.8730   23.6140   33.2410 N   0  0  0  0  0  0  0  0  0  0  0  0
   38.6990   23.3980   31.9370 C   0  0  0  0  0  3  0  0  0  0  0  0
   37.8190   22.5200   31.4320 N   0  0  0  0  0  0  0  0  0  0  0  0
   37.0810   21.8260   32.3120 C   0  0  0  0  0  0  0  0  0  0  0  0
   36.1750   20.9220   31.8020 C   0  0  0  0  0  3  0  0  0  0  0  0
   35.3870   20.1790   32.6540 C   0  0  0  0  0  0  0  0  0  0  0  0
   34.7010   19.4910   32.1900 H   0  0  0  0  0  0  0  0  0  0  0  0
   35.5590   20.3940   34.0070 C   0  0  0  0  0  0  0  0  0  0  0  0
   34.9070   19.7770   34.6380 H   0  0  0  0  0  0  0  0  0  0  0  0
   36.4740   21.3060   34.4790 C   0  0  0  0  0  3  0  0  0  0  0  0
   37.2700   22.0580   33.6530 C   0  0  0  0  0  0  0  0  0  0  0  0
   39.7050   22.4810   37.4060 C   0  0  0  0  0  0  0  0  0  0  0  0
   39.0260   23.2950   38.3270 C   0  0  0  0  0  0  0  0  0  0  0  0
   37.9870   24.0420   37.8020 C   0  0  0  0  0  0  0  0  0  0  0  0
   37.7030   23.9480   36.4980 N   0  0  0  0  0  0  0  0  0  0  0  0
   38.3440   23.1780   35.6230 C   0  0  0  0  0  0  0  0  0  0  0  0
   39.3340   22.4700   36.1390 N   0  0  0  0  0  0  0  0  0  0  0  0
   39.3160   23.3100   39.3410 H   0  0  0  0  0  0  0  0  0  0  0  0
   37.4100   24.6890   38.4060 H   0  0  0  0  0  0  0  0  0  0  0  0
   40.8160   21.6400   37.8100 N   0  0  0  0  0  0  0  0  0  0  0  0
   41.7930   21.9110   37.9990 H   0  0  0  0  0  0  0  0  0  0  0  0
   40.6440   20.6170   37.9360 H   0  0  0  0  0  0  0  0  0  0  0  0
  1 17  1  0  0  0  0
  2  1  2  0  0  0  0
  3  2  1  0  0  0  0
  4  3  2  0  0  0  0
  4  5  1  0  0  0  0
  5 12  1  0  0  0  0
  6  5  2  0  0  0  0
  6  7  1  0  0  0  0
  7  9  2  0  0  0  0
  8  7  1  0  0  0  0
  9 11  1  0  0  0  0
  9 10  1  0  0  0  0
 12  1  1  0  0  0  0
 12 11  2  0  0  0  0
 13 21  1  0  0  0  0
 13 14  1  0  0  0  0
 14 19  1  0  0  0  0
 15 14  2  0  0  0  0
 15 20  1  0  0  0  0
 16 15  1  0  0  0  0
 17 18  1  0  0  0  0
 17 16  2  0  0  0  0
 18 13  2  0  0  0  0
 21 23  1  0  0  0  0
 21 22  1  0  0  0  0
M  END
>  <minimizedAffinity>
-5.30248308

$$$$

 OpenBabel03262523113D

 23 25  0  0  0  0  0  0  0  0999 V2000
   38.4720   25.3460   35.0230 C   0  0  0  0  0  0  0  0  0  0  0  0
   38.2430   26.6030   35.4530 N   0  0  0  0  0  0  0  0  0  0  0  0
   37.4800   27.4610   34.7760 C   0  0  0  0  0  3  0  0  0  0  0  0
   36.8690   27.1700   33.6170 N   0  0  0  0  0  0  0  0  0  0  0  0
   37.0530   25.9340   33.1280 C   0  0  0  0  0  0  0  0  0  0  0  0
   36.4290   25.6270   31.9380 C   0  0  0  0  0  3  0  0  0  0  0  0
   36.5780   24.3740   31.3840 C   0  0  0  0  0  0  0  0  0  0  0  0
   36.0650   24.2010   30.4540 H   0  0  0  0  0  0  0  0  0  0  0  0
   37.3670   23.4770   32.0760 C   0  0  0  0  0  0  0  0  0  0  0  0
   37.4510   22.4970   31.5910 H   0  0  0  0  0  0  0  0  0  0  0  0
   37.9740   23.8200   33.2630 C   0  0  0  0  0  3  0  0  0  0  0  0
   37.8410   25.0600   33.8360 C   0  0  0  0  0  0  0  0  0  0  0  0
   39.2670   23.0620   37.6950 C   0  0  0  0  0  0  0  0  0  0  0  0
   40.5470   22.5420   37.4450 C   0  0  0  0  0  0  0  0  0  0  0  0
   41.1600   23.0060   36.2960 C   0  0  0  0  0  0  0  0  0  0  0  0
   40.5210   23.8900   35.5210 N   0  0  0  0  0  0  0  0  0  0  0  0
   39.3080   24.3850   35.7540 C   0  0  0  0  0  0  0  0  0  0  0  0
   38.7350   23.9320   36.8560 N   0  0  0  0  0  0  0  0  0  0  0  0
   40.9790   21.8470   38.1100 H   0  0  0  0  0  0  0  0  0  0  0  0
   42.1240   22.6800   36.0120 H   0  0  0  0  0  0  0  0  0  0  0  0
   38.5010   22.6690   38.8620 N   0  0  0  0  0  0  0  0  0  0  0  0
   37.9680   21.8000   39.0210 H   0  0  0  0  0  0  0  0  0  0  0  0
   38.4580   23.3270   39.6730 H   0  0  0  0  0  0  0  0  0  0  0  0
  1  2  1  0  0  0  0
  1 17  1  0  0  0  0
  3  2  2  0  0  0  0
  4  3  1  0  0  0  0
  5  4  2  0  0  0  0
  5 12  1  0  0  0  0
  6  5  1  0  0  0  0
  7  6  2  0  0  0  0
  7  9  1  0  0  0  0
  8  7  1  0  0  0  0
  9 11  2  0  0  0  0
 10  9  1  0  0  0  0
 11 12  1  0  0  0  0
 12  1  2  0  0  0  0
 13 21  1  0  0  0  0
 14 13  1  0  0  0  0
 14 19  1  0  0  0  0
 15 14  2  0  0  0  0
 16 17  2  0  0  0  0
 16 15  1  0  0  0  0
 17 18  1  0  0  0  0
 18 13  2  0  0  0  0
 20 15  1  0  0  0  0
 21 22  1  0  0  0  0
 21 23  1  0  0  0  0
M  END
>  <minimizedAffinity>
-5.11568642

$$$$

 OpenBabel03262523113D

 23 25  0  0  0  0  0  0  0  0999 V2000
   37.3530   25.4350   32.3430 C   0  0  0  0  0  0  0  0  0  0  0  0
   36.5250   26.3130   31.7450 N   0  0  0  0  0  0  0  0  0  0  0  0
   35.4430   25.9270   31.0670 C   0  0  0  0  0  3  0  0  0  0  0  0
   35.0710   24.6470   30.9140 N   0  0  0  0  0  0  0  0  0  0  0  0
   35.8500   23.7160   31.4840 C   0  0  0  0  0  0  0  0  0  0  0  0
   35.4750   22.3990   31.3310 C   0  0  0  0  0  3  0  0  0  0  0  0
   36.2340   21.3950   31.8930 C   0  0  0  0  0  0  0  0  0  0  0  0
   35.8850   20.3890   31.7350 H   0  0  0  0  0  0  0  0  0  0  0  0
   37.3570   21.7830   32.5960 C   0  0  0  0  0  0  0  0  0  0  0  0
   37.9220   20.9450   33.0210 H   0  0  0  0  0  0  0  0  0  0  0  0
   37.6990   23.1090   32.7280 C   0  0  0  0  0  3  0  0  0  0  0  0
   36.9610   24.1270   32.1790 C   0  0  0  0  0  0  0  0  0  0  0  0
   39.1490   26.9530   35.0730 C   0  0  0  0  0  0  0  0  0  0  0  0
   40.5220   26.7870   34.8260 C   0  0  0  0  0  0  0  0  0  0  0  0
   40.8350   26.1170   33.6580 C   0  0  0  0  0  0  0  0  0  0  0  0
   39.8500   25.6840   32.8630 N   0  0  0  0  0  0  0  0  0  0  0  0
   38.5490   25.8390   33.0940 C   0  0  0  0  0  0  0  0  0  0  0  0
   38.2650   26.4810   34.2140 N   0  0  0  0  0  0  0  0  0  0  0  0
   41.2350   27.1610   35.5070 H   0  0  0  0  0  0  0  0  0  0  0  0
   41.8370   25.9380   33.3740 H   0  0  0  0  0  0  0  0  0  0  0  0
   38.6670   27.6360   36.2590 N   0  0  0  0  0  0  0  0  0  0  0  0
   38.6030   27.2810   37.2260 H   0  0  0  0  0  0  0  0  0  0  0  0
   38.3310   28.6200   36.1620 H   0  0  0  0  0  0  0  0  0  0  0  0
  1 17  1  0  0  0  0
  2  1  2  0  0  0  0
  3  2  1  0  0  0  0
  4  3  2  0  0  0  0
  4  5  1  0  0  0  0
  5 12  1  0  0  0  0
  6  5  2  0  0  0  0
  6  7  1  0  0  0  0
  7  9  2  0  0  0  0
  8  7  1  0  0  0  0
  9 11  1  0  0  0  0
  9 10  1  0  0  0  0
 12  1  1  0  0  0  0
 12 11  2  0  0  0  0
 13 21  1  0  0  0  0
 14 13  1  0  0  0  0
 14 19  1  0  0  0  0
 15 14  2  0  0  0  0
 16 17  2  0  0  0  0
 16 15  1  0  0  0  0
 17 18  1  0  0  0  0
 18 13  2  0  0  0  0
 20 15  1  0  0  0  0
 21 22  1  0  0  0  0
 23 21  1  0  0  0  0
M  END
>  <minimizedAffinity>
-5.00461245

$$$$

 OpenBabel03262523113D

 23 25  0  0  0  0  0  0  0  0999 V2000
   34.6460   30.1110   33.5250 C   0  0  0  0  0  0  0  0  0  0  0  0
   34.3820   30.7630   32.3750 N   0  0  0  0  0  0  0  0  0  0  0  0
   35.0580   30.5270   31.2500 C   0  0  0  0  0  3  0  0  0  0  0  0
   36.0530   29.6330   31.1450 N   0  0  0  0  0  0  0  0  0  0  0  0
   36.3710   28.9460   32.2530 C   0  0  0  0  0  0  0  0  0  0  0  0
   37.3920   28.0260   32.1540 C   0  0  0  0  0  3  0  0  0  0  0  0
   37.7660   27.2880   33.2560 C   0  0  0  0  0  0  0  0  0  0  0  0
   38.5700   26.5880   33.1090 H   0  0  0  0  0  0  0  0  0  0  0  0
   37.0730   27.5240   34.4270 C   0  0  0  0  0  0  0  0  0  0  0  0
   37.4120   26.9110   35.2700 H   0  0  0  0  0  0  0  0  0  0  0  0
   36.0590   28.4520   34.4870 C   0  0  0  0  0  3  0  0  0  0  0  0
   35.6670   29.1980   33.4050 C   0  0  0  0  0  0  0  0  0  0  0  0
   34.0660   31.6360   36.7380 C   0  0  0  0  0  0  0  0  0  0  0  0
   32.8660   31.1130   37.2480 C   0  0  0  0  0  0  0  0  0  0  0  0
   32.2320   30.1900   36.4380 C   0  0  0  0  0  0  0  0  0  0  0  0
   32.7780   29.8620   35.2610 N   0  0  0  0  0  0  0  0  0  0  0  0
   33.9140   30.3550   34.7750 C   0  0  0  0  0  0  0  0  0  0  0  0
   34.5090   31.2360   35.5600 N   0  0  0  0  0  0  0  0  0  0  0  0
   32.5060   31.4270   38.1880 H   0  0  0  0  0  0  0  0  0  0  0  0
   31.3230   29.7340   36.7250 H   0  0  0  0  0  0  0  0  0  0  0  0
   34.8440   32.6130   37.4750 N   0  0  0  0  0  0  0  0  0  0  0  0
   34.6730   33.6250   37.5820 H   0  0  0  0  0  0  0  0  0  0  0  0
   35.7000   32.2890   37.9790 H   0  0  0  0  0  0  0  0  0  0  0  0
  1 17  1  0  0  0  0
  2  1  2  0  0  0  0
  3  2  1  0  0  0  0
  4  3  2  0  0  0  0
  4  5  1  0  0  0  0
  5 12  1  0  0  0  0
  6  5  2  0  0  0  0
  6  7  1  0  0  0  0
  7  9  2  0  0  0  0
  8  7  1  0  0  0  0
  9 11  1  0  0  0  0
  9 10  1  0  0  0  0
 12  1  1  0  0  0  0
 12 11  2  0  0  0  0
 13 14  1  0  0  0  0
 13 21  1  0  0  0  0
 14 19  1  0  0  0  0
 15 20  1  0  0  0  0
 15 14  2  0  0  0  0
 16 15  1  0  0  0  0
 17 16  2  0  0  0  0
 17 18  1  0  0  0  0
 18 13  2  0  0  0  0
 21 22  1  0  0  0  0
 21 23  1  0  0  0  0
M  END
>  <minimizedAffinity>
-4.98417187

$$$$

 OpenBabel03262523113D

 23 25  0  0  0  0  0  0  0  0999 V2000
   37.8710   23.1070   33.6370 C   0  0  0  0  0  0  0  0  0  0  0  0
   38.0730   24.1640   32.8260 N   0  0  0  0  0  0  0  0  0  0  0  0
   37.3950   24.3320   31.6900 C   0  0  0  0  0  3  0  0  0  0  0  0
   36.4580   23.4830   31.2430 N   0  0  0  0  0  0  0  0  0  0  0  0
   36.2030   22.4050   32.0000 C   0  0  0  0  0  0  0  0  0  0  0  0
   35.2420   21.5280   31.5480 C   0  0  0  0  0  3  0  0  0  0  0  0
   34.9340   20.4020   32.2810 C   0  0  0  0  0  0  0  0  0  0  0  0
   34.1740   19.7600   31.8710 H   0  0  0  0  0  0  0  0  0  0  0  0
   35.6300   20.2180   33.4590 C   0  0  0  0  0  0  0  0  0  0  0  0
   35.3450   19.3080   34.0010 H   0  0  0  0  0  0  0  0  0  0  0  0
   36.5840   21.1160   33.8790 C   0  0  0  0  0  3  0  0  0  0  0  0
   36.9080   22.2450   33.1680 C   0  0  0  0  0  0  0  0  0  0  0  0
   38.5720   23.5920   37.1380 C   0  0  0  0  0  0  0  0  0  0  0  0
   39.6940   22.8110   37.4610 C   0  0  0  0  0  0  0  0  0  0  0  0
   40.2290   22.0840   36.4140 C   0  0  0  0  0  0  0  0  0  0  0  0
   39.6680   22.1650   35.2020 N   0  0  0  0  0  0  0  0  0  0  0  0
   38.6050   22.9030   34.8920 C   0  0  0  0  0  0  0  0  0  0  0  0
   38.1050   23.5920   35.9030 N   0  0  0  0  0  0  0  0  0  0  0  0
   40.0740   22.8050   38.4450 H   0  0  0  0  0  0  0  0  0  0  0  0
   41.0740   21.4640   36.5460 H   0  0  0  0  0  0  0  0  0  0  0  0
   37.9030   24.4090   38.1330 N   0  0  0  0  0  0  0  0  0  0  0  0
   37.2460   24.1150   38.8720 H   0  0  0  0  0  0  0  0  0  0  0  0
   38.0830   25.4380   38.1330 H   0  0  0  0  0  0  0  0  0  0  0  0
  1 17  1  0  0  0  0
  2  1  2  0  0  0  0
  3  2  1  0  0  0  0
  4  3  2  0  0  0  0
  4  5  1  0  0  0  0
  5 12  1  0  0  0  0
  6  5  2  0  0  0  0
  6  7  1  0  0  0  0
  7  9  2  0  0  0  0
  8  7  1  0  0  0  0
  9 11  1  0  0  0  0
  9 10  1  0  0  0  0
 12  1  1  0  0  0  0
 12 11  2  0  0  0  0
 13 14  1  0  0  0  0
 13 21  1  0  0  0  0
 14 19  1  0  0  0  0
 15 20  1  0  0  0  0
 15 14  2  0  0  0  0
 16 15  1  0  0  0  0
 17 16  2  0  0  0  0
 17 18  1  0  0  0  0
 18 13  2  0  0  0  0
 21 23  1  0  0  0  0
 21 22  1  0  0  0  0
M  END
>  <minimizedAffinity>
-4.97992277

$$$$

 OpenBabel03262523113D

 23 25  0  0  0  0  0  0  0  0999 V2000
   39.1560   22.8460   34.8280 C   0  0  0  0  0  0  0  0  0  0  0  0
   40.3240   22.2840   35.1950 N   0  0  0  0  0  0  0  0  0  0  0  0
   41.4140   23.0080   35.4540 C   0  0  0  0  0  3  0  0  0  0  0  0
   41.4600   24.3470   35.3810 N   0  0  0  0  0  0  0  0  0  0  0  0
   40.3310   24.9750   35.0200 C   0  0  0  0  0  0  0  0  0  0  0  0
   40.3700   26.3500   34.9420 C   0  0  0  0  0  3  0  0  0  0  0  0
   39.2420   27.0540   34.5780 C   0  0  0  0  0  0  0  0  0  0  0  0
   39.3420   28.1240   34.5360 H   0  0  0  0  0  0  0  0  0  0  0  0
   38.1080   26.3140   34.3060 C   0  0  0  0  0  0  0  0  0  0  0  0
   37.2420   26.9240   34.0220 H   0  0  0  0  0  0  0  0  0  0  0  0
   38.1070   24.9410   34.3960 C   0  0  0  0  0  3  0  0  0  0  0  0
   39.2160   24.2170   34.7560 C   0  0  0  0  0  0  0  0  0  0  0  0
   36.1300   21.0670   35.6470 C   0  0  0  0  0  0  0  0  0  0  0  0
   35.5750   20.5940   34.4460 C   0  0  0  0  0  0  0  0  0  0  0  0
   36.2860   20.9080   33.3030 C   0  0  0  0  0  0  0  0  0  0  0  0
   37.4160   21.6170   33.4040 N   0  0  0  0  0  0  0  0  0  0  0  0
   37.9440   22.0670   34.5380 C   0  0  0  0  0  0  0  0  0  0  0  0
   37.2550   21.7590   35.6230 N   0  0  0  0  0  0  0  0  0  0  0  0
   34.6780   20.0400   34.4560 H   0  0  0  0  0  0  0  0  0  0  0  0
   35.9580   20.6010   32.3460 H   0  0  0  0  0  0  0  0  0  0  0  0
   35.4980   20.8160   36.9280 N   0  0  0  0  0  0  0  0  0  0  0  0
   34.6800   21.2850   37.3460 H   0  0  0  0  0  0  0  0  0  0  0  0
   35.8960   20.0680   37.5390 H   0  0  0  0  0  0  0  0  0  0  0  0
  1  2  1  0  0  0  0
  2  3  2  0  0  0  0
  4  3  1  0  0  0  0
  5  4  2  0  0  0  0
  6  5  1  0  0  0  0
  7  6  2  0  0  0  0
  8  7  1  0  0  0  0
  9 11  2  0  0  0  0
  9  7  1  0  0  0  0
 10  9  1  0  0  0  0
 11 12  1  0  0  0  0
 12  1  2  0  0  0  0
 12  5  1  0  0  0  0
 13 21  1  0  0  0  0
 14 19  1  0  0  0  0
 14 13  2  0  0  0  0
 15 16  2  0  0  0  0
 15 14  1  0  0  0  0
 16 17  1  0  0  0  0
 17  1  1  0  0  0  0
 17 18  2  0  0  0  0
 18 13  1  0  0  0  0
 20 15  1  0  0  0  0
 21 22  1  0  0  0  0
 21 23  1  0  0  0  0
M  END
>  <minimizedAffinity>
-4.94566822

$$$$

 OpenBabel03262523113D

 23 25  0  0  0  0  0  0  0  0999 V2000
   38.9130   22.1400   34.2640 C   0  0  0  0  0  0  0  0  0  0  0  0
   40.1330   21.7730   33.8250 N   0  0  0  0  0  0  0  0  0  0  0  0
   41.2060   21.7730   34.6170 C   0  0  0  0  0  3  0  0  0  0  0  0
   41.1850   22.1310   35.9100 N   0  0  0  0  0  0  0  0  0  0  0  0
   40.0010   22.5100   36.4160 C   0  0  0  0  0  0  0  0  0  0  0  0
   39.9710   22.8790   37.7430 C   0  0  0  0  0  3  0  0  0  0  0  0
   38.7860   23.2770   38.3220 C   0  0  0  0  0  0  0  0  0  0  0  0
   38.8320   23.5520   39.3610 H   0  0  0  0  0  0  0  0  0  0  0  0
   37.6680   23.2810   37.5120 C   0  0  0  0  0  0  0  0  0  0  0  0
   36.7540   23.6060   38.0230 H   0  0  0  0  0  0  0  0  0  0  0  0
   37.7370   22.9050   36.1900 C   0  0  0  0  0  3  0  0  0  0  0  0
   38.9040   22.5050   35.5900 C   0  0  0  0  0  0  0  0  0  0  0  0
   36.8180   23.2990   31.5710 C   0  0  0  0  0  0  0  0  0  0  0  0
   35.6540   22.5120   31.5660 C   0  0  0  0  0  0  0  0  0  0  0  0
   35.5980   21.5360   32.5430 C   0  0  0  0  0  0  0  0  0  0  0  0
   36.6150   21.4040   33.4010 N   0  0  0  0  0  0  0  0  0  0  0  0
   37.7180   22.1470   33.4090 C   0  0  0  0  0  0  0  0  0  0  0  0
   37.7590   23.0760   32.4700 N   0  0  0  0  0  0  0  0  0  0  0  0
   34.8980   22.6840   30.8510 H   0  0  0  0  0  0  0  0  0  0  0  0
   34.7670   20.8880   32.6290 H   0  0  0  0  0  0  0  0  0  0  0  0
   37.0200   24.3630   30.6060 N   0  0  0  0  0  0  0  0  0  0  0  0
   37.3050   24.2920   29.6170 H   0  0  0  0  0  0  0  0  0  0  0  0
   36.8680   25.3500   30.9160 H   0  0  0  0  0  0  0  0  0  0  0  0
  1 12  1  0  0  0  0
  2  1  2  0  0  0  0
  2  3  1  0  0  0  0
  3  4  2  0  0  0  0
  4  5  1  0  0  0  0
  5  6  1  0  0  0  0
  6  7  2  0  0  0  0
  7  8  1  0  0  0  0
  9 10  1  0  0  0  0
  9  7  1  0  0  0  0
 11  9  2  0  0  0  0
 12 11  1  0  0  0  0
 12  5  2  0  0  0  0
 13 18  1  0  0  0  0
 14 13  2  0  0  0  0
 14 15  1  0  0  0  0
 15 20  1  0  0  0  0
 15 16  2  0  0  0  0
 16 17  1  0  0  0  0
 17  1  1  0  0  0  0
 18 17  2  0  0  0  0
 19 14  1  0  0  0  0
 21 23  1  0  0  0  0
 21 13  1  0  0  0  0
 22 21  1  0  0  0  0
M  END
>  <minimizedAffinity>
-4.94111729

$$$$
