
 OpenBabel03272500123D

 24 26  0  0  0  0  0  0  0  0999 V2000
   35.8490   28.8900   50.1200 C   0  0  0  0  0  0  0  0  0  0  0  0
   36.2360   30.1580   49.6670 C   0  0  0  0  0  0  0  0  0  0  0  0
   35.6920   30.6030   48.4660 C   0  0  0  0  0  0  0  0  0  0  0  0
   34.8280   29.7950   47.8100 N   0  0  0  0  0  0  0  0  0  0  0  0
   34.4690   28.5990   48.2460 C   0  0  0  0  0  0  0  0  0  0  0  0
   34.9770   28.1560   49.3900 N   0  0  0  0  0  0  0  0  0  0  0  0
   36.2830   28.5620   51.0540 H   0  0  0  0  0  0  0  0  0  0  0  0
   35.9530   31.5510   48.0830 H   0  0  0  0  0  0  0  0  0  0  0  0
   33.5520   27.5880   47.6800 C   0  0  0  0  0  0  0  0  0  0  0  0
   33.8600   26.7550   46.6830 N   0  0  0  0  0  0  0  0  0  0  0  0
   33.0160   25.8500   46.1890 C   0  0  0  0  0  3  0  0  0  0  0  0
   31.7630   25.6820   46.6420 N   0  0  0  0  0  0  0  0  0  0  0  0
   31.3780   26.4850   47.6460 C   0  0  0  0  0  0  0  0  0  0  0  0
   30.1000   26.3040   48.1000 C   0  0  0  0  0  3  0  0  0  0  0  0
   29.6220   27.0810   49.1250 C   0  0  0  0  0  0  0  0  0  0  0  0
   28.6170   26.9310   49.4720 H   0  0  0  0  0  0  0  0  0  0  0  0
   30.4870   28.0410   49.6640 C   0  0  0  0  0  0  0  0  0  0  0  0
   30.0590   28.6190   50.4630 H   0  0  0  0  0  0  0  0  0  0  0  0
   31.7500   28.1650   49.1610 C   0  0  0  0  0  3  0  0  0  0  0  0
   32.2740   27.4110   48.1380 C   0  0  0  0  0  0  0  0  0  0  0  0
   37.1970   30.9570   50.4910 C   0  0  0  0  0  0  0  0  0  0  0  0
   38.4780   30.8930   49.9620 F   0  0  0  0  0  0  0  0  0  0  0  0
   36.7800   32.2830   50.4360 F   0  0  0  0  0  0  0  0  0  0  0  0
   37.2200   30.5440   51.8020 F   0  0  0  0  0  0  0  0  0  0  0  0
  1  7  1  0  0  0  0
  2  1  1  0  0  0  0
  2 21  1  0  0  0  0
  3  2  2  0  0  0  0
  4  5  2  0  0  0  0
  4  3  1  0  0  0  0
  5  6  1  0  0  0  0
  6  1  2  0  0  0  0
  8  3  1  0  0  0  0
  9 20  1  0  0  0  0
  9  5  1  0  0  0  0
 10  9  2  0  0  0  0
 11 12  2  0  0  0  0
 11 10  1  0  0  0  0
 12 13  1  0  0  0  0
 13 14  2  0  0  0  0
 13 20  1  0  0  0  0
 14 15  1  0  0  0  0
 15 16  1  0  0  0  0
 15 17  2  0  0  0  0
 17 18  1  0  0  0  0
 19 17  1  0  0  0  0
 20 19  2  0  0  0  0
 21 24  1  0  0  0  0
 22 21  1  0  0  0  0
 23 21  1  0  0  0  0
M  END
>  <minimizedAffinity>
-5.43730068

>  <minimizedRMSD>
0.384264112

$$$$
