
     RDKit          3D

 36 39  0  0  0  0  0  0  0  0999 V2000
   36.1153   30.4608   49.9745 C   0  0  0  0  0  0  0  0  0  0  0  0
   38.2376   33.3875   49.1768 C   0  0  0  0  0  0  0  0  0  0  0  0
   39.0072   32.9336   48.1077 C   0  0  0  0  0  0  0  0  0  0  0  0
   38.7849   31.6234   47.6741 C   0  0  0  0  0  0  0  0  0  0  0  0
   37.8535   30.8564   48.2898 N   0  0  0  0  0  0  0  0  0  0  0  0
   37.1334   31.3633   49.3326 C   0  0  0  0  0  0  0  0  0  0  0  0
   37.3237   32.6081   49.7672 N   0  0  0  0  0  0  0  0  0  0  0  0
   36.1011   29.1411   49.3052 C   0  0  0  0  0  0  0  0  0  0  0  0
   34.8008   28.8420   48.6209 C   0  0  0  0  0  0  0  0  0  0  0  0
   34.5814   29.4148   47.3146 C   0  0  0  0  0  0  0  0  0  0  0  0
   32.9565   28.7690   46.9771 S   0  0  0  0  0  0  0  0  0  0  0  0
   32.8065   27.8439   48.5998 C   0  0  0  0  0  0  0  0  0  0  0  0
   33.8481   28.1041   49.1096 N   0  0  0  0  0  0  0  0  0  0  0  0
   35.1172   30.9577   50.0333 H   0  0  0  0  0  0  0  0  0  0  0  0
   36.4623   30.3560   51.0434 H   0  0  0  0  0  0  0  0  0  0  0  0
   38.3724   34.3945   49.5492 H   0  0  0  0  0  0  0  0  0  0  0  0
   39.7468   33.5613   47.6284 H   0  0  0  0  0  0  0  0  0  0  0  0
   39.3482   31.2317   46.8610 H   0  0  0  0  0  0  0  0  0  0  0  0
   36.9450   29.0960   48.5548 H   0  0  0  0  0  0  0  0  0  0  0  0
   36.3500   28.3355   50.0260 H   0  0  0  0  0  0  0  0  0  0  0  0
   35.2423   30.0404   46.7586 H   0  0  0  0  0  0  0  0  0  0  0  0
   31.5178   27.1248   48.7286 C   0  0  0  0  0  0  0  0  0  0  0  0
   31.2348   26.1640   49.6265 N   0  0  0  0  0  0  0  0  0  0  0  0
   30.0456   25.5503   49.6912 C   0  0  0  0  0  0  0  0  0  0  0  0
   29.0551   25.8684   48.8471 N   0  0  0  0  0  0  0  0  0  0  0  0
   29.2434   26.8173   47.9145 C   0  0  0  0  0  0  0  0  0  0  0  0
   28.2087   27.1259   47.0584 C   0  0  0  0  0  0  0  0  0  0  0  0
   28.4119   28.1056   46.0998 C   0  0  0  0  0  0  0  0  0  0  0  0
   27.5906   28.3361   45.4359 H   0  0  0  0  0  0  0  0  0  0  0  0
   29.6669   28.7248   46.0622 C   0  0  0  0  0  0  0  0  0  0  0  0
   29.6988   29.4707   45.2704 H   0  0  0  0  0  0  0  0  0  0  0  0
   30.6747   28.3845   46.9390 C   0  0  0  0  0  0  0  0  0  0  0  0
   30.4795   27.4255   47.8792 C   0  0  0  0  0  0  0  0  0  0  0  0
   29.8992   24.7841   50.4473 H   0  0  0  0  0  0  0  0  0  0  0  0
   27.2650   26.5741   47.1799 H   0  0  0  0  0  0  0  0  0  0  0  0
   31.5295   28.9713   46.7347 H   0  0  0  0  0  0  0  0  0  0  0  0
  2  7  2  0
  3  2  1  0
  4  3  2  0
  4  5  1  0
  5  6  2  0
  6  7  1  0
  6  1  1  0
  8  1  1  0
  9 13  1  0
  9  8  1  0
 10  9  2  0
 11 10  1  0
 11 12  1  0
 12 13  2  0
  1 14  1  0
  1 15  1  0
  2 16  1  0
  3 17  1  0
  4 18  1  0
  8 19  1  0
  8 20  1  0
 10 21  1  0
 22 23  2  0
 23 24  1  0
 24 25  2  0
 25 26  1  0
 26 27  2  0
 27 28  1  0
 28 29  1  0
 28 30  2  0
 30 31  1  0
 30 32  1  0
 32 33  2  0
 33 22  1  0
 33 26  1  0
 24 34  1  0
 27 35  1  0
 32 36  1  0
 12 22  1  0
M  ISO  8  14   8  15   8  16  14  17  14  18  14  19   8  20   8  21  14
M  ISO  2  29  16  31  16
M  END
>  <DihAtoms>  (1) 
10,11,21,22

>  <DihDeg>  (1) 
0.025023438884083135

$$$$
