
 OpenBabel03272507143D

 43 48  0  0  0  0  0  0  0  0999 V2000
   37.3130   29.6330   49.9370 C   0  0  0  0  0  0  0  0  0  0  0  0
   37.9730   29.0810   50.8600 O   0  0  0  0  0  0  0  0  0  0  0  0
   37.8730   30.6470   49.0670 C   0  0  0  0  0  0  0  0  0  0  0  0
   38.1740   31.8740   49.6020 C   0  0  0  0  0  0  0  0  0  0  0  0
   38.7200   32.8450   48.7840 C   0  0  0  0  0  0  0  0  0  0  0  0
   38.9270   32.5290   47.4920 N   0  0  0  0  0  0  0  0  0  0  0  0
   38.6410   31.3460   46.9550 C   0  0  0  0  0  0  0  0  0  0  0  0
   38.1130   30.4370   47.7870 N   0  0  0  0  0  0  0  0  0  0  0  0
   38.0170   32.1480   50.6320 H   0  0  0  0  0  0  0  0  0  0  0  0
   38.9960   33.8270   49.0680 H   0  0  0  0  0  0  0  0  0  0  0  0
   38.7820   30.8000   45.5900 C   0  0  0  0  0  0  0  0  0  0  0  0
   38.6780   29.5010   45.2870 N   0  0  0  0  0  0  0  0  0  0  0  0
   38.8110   29.0510   44.0420 C   0  0  0  0  0  3  0  0  0  0  0  0
   39.0590   29.8350   42.9870 N   0  0  0  0  0  0  0  0  0  0  0  0
   39.1780   31.1620   43.2010 C   0  0  0  0  0  0  0  0  0  0  0  0
   39.4320   31.9700   42.1190 C   0  0  0  0  0  3  0  0  0  0  0  0
   39.5600   33.3280   42.2990 C   0  0  0  0  0  0  0  0  0  0  0  0
   39.7570   33.9070   41.4240 H   0  0  0  0  0  0  0  0  0  0  0  0
   39.4260   33.8230   43.5810 C   0  0  0  0  0  0  0  0  0  0  0  0
   39.5340   34.8920   43.6690 H   0  0  0  0  0  0  0  0  0  0  0  0
   39.1720   32.9590   44.6230 C   0  0  0  0  0  3  0  0  0  0  0  0
   39.0360   31.5980   44.4990 C   0  0  0  0  0  0  0  0  0  0  0  0
   35.9300   29.2470   49.7210 C   0  0  0  0  0  0  0  0  0  0  0  0
   34.9160   29.7660   50.4580 C   0  0  0  0  0  0  0  0  0  0  0  0
   33.7340   29.1800   49.9880 C   0  0  0  0  0  0  0  0  0  0  0  0
   34.1220   28.3200   48.9660 C   0  0  0  0  0  0  0  0  0  0  0  0
   35.4290   28.4040   48.8570 O   0  0  0  0  0  0  0  0  0  0  0  0
   34.9680   30.5020   51.2730 H   0  0  0  0  0  0  0  0  0  0  0  0
   32.7580   29.4100   50.3960 H   0  0  0  0  0  0  0  0  0  0  0  0
   33.5740   26.5580   47.2700 C   0  0  0  0  0  0  0  0  0  0  0  0
   33.1880   27.4990   48.1930 C   0  0  0  0  0  0  0  0  0  0  0  0
   31.8480   27.7400   48.4540 C   0  0  0  0  0  0  0  0  0  0  0  0
   30.8900   27.0120   47.7650 C   0  0  0  0  0  0  0  0  0  0  0  0
   29.5590   27.0260   47.8020 N   0  0  0  0  0  0  0  0  0  0  0  0
   29.1310   26.1200   46.9270 N   0  0  0  0  0  0  0  0  0  0  0  0
   30.1790   25.5260   46.3310 C   0  0  0  0  0  0  0  0  0  0  0  0
   31.3360   26.0710   46.8400 C   0  0  0  0  0  0  0  0  0  0  0  0
   32.6830   25.8220   46.5730 C   0  0  0  0  0  0  0  0  0  0  0  0
   34.6340   26.4190   47.1150 H   0  0  0  0  0  0  0  0  0  0  0  0
   31.4540   28.4710   49.1720 H   0  0  0  0  0  0  0  0  0  0  0  0
   28.9530   27.6370   48.4070 H   0  0  0  0  0  0  0  0  0  0  0  0
   30.0850   24.7580   45.5850 H   0  0  0  0  0  0  0  0  0  0  0  0
   32.9430   25.0700   45.8350 H   0  0  0  0  0  0  0  0  0  0  0  0
  1  2  2  0  0  0  0
  3  4  1  0  0  0  0
  3  1  1  0  0  0  0
  4  9  1  0  0  0  0
  5 10  1  0  0  0  0
  5  4  2  0  0  0  0
  6  5  1  0  0  0  0
  7  6  2  0  0  0  0
  7  8  1  0  0  0  0
  8  3  2  0  0  0  0
 11  7  1  0  0  0  0
 12 11  1  0  0  0  0
 13 12  2  0  0  0  0
 14 15  2  0  0  0  0
 14 13  1  0  0  0  0
 15 22  1  0  0  0  0
 16 17  2  0  0  0  0
 16 15  1  0  0  0  0
 17 19  1  0  0  0  0
 18 17  1  0  0  0  0
 19 20  1  0  0  0  0
 19 21  2  0  0  0  0
 22 21  1  0  0  0  0
 22 11  2  0  0  0  0
 23  1  1  0  0  0  0
 23 24  2  0  0  0  0
 24 28  1  0  0  0  0
 25 29  1  0  0  0  0
 25 24  1  0  0  0  0
 26 25  2  0  0  0  0
 27 26  1  0  0  0  0
 27 23  1  0  0  0  0
 30 31  1  0  0  0  0
 31 32  2  0  0  0  0
 31 26  1  0  0  0  0
 32 40  1  0  0  0  0
 33 34  1  0  0  0  0
 33 32  1  0  0  0  0
 34 41  1  0  0  0  0
 35 34  1  0  0  0  0
 36 37  1  0  0  0  0
 36 35  2  0  0  0  0
 37 33  2  0  0  0  0
 38 37  1  0  0  0  0
 38 30  2  0  0  0  0
 39 30  1  0  0  0  0
 42 36  1  0  0  0  0
 43 38  1  0  0  0  0
M  END
>  <minimizedAffinity>
-6.62846708

>  <minimizedRMSD>
0.310334116

$$$$
