
 OpenBabel03272500123D

 24 26  0  0  0  0  0  0  0  0999 V2000
   35.4760   29.1600   50.2880 C   0  0  0  0  0  0  0  0  0  0  0  0
   36.3130   30.1260   49.7140 C   0  0  0  0  0  0  0  0  0  0  0  0
   36.2210   30.3190   48.3390 C   0  0  0  0  0  0  0  0  0  0  0  0
   35.3370   29.5700   47.6400 N   0  0  0  0  0  0  0  0  0  0  0  0
   34.5520   28.6590   48.1910 C   0  0  0  0  0  0  0  0  0  0  0  0
   34.6250   28.4610   49.5020 N   0  0  0  0  0  0  0  0  0  0  0  0
   35.5630   29.0240   51.3560 H   0  0  0  0  0  0  0  0  0  0  0  0
   36.8300   31.0350   47.8600 H   0  0  0  0  0  0  0  0  0  0  0  0
   33.5390   27.7580   47.6030 C   0  0  0  0  0  0  0  0  0  0  0  0
   33.5220   26.4320   47.7510 N   0  0  0  0  0  0  0  0  0  0  0  0
   32.5970   25.6400   47.2100 C   0  0  0  0  0  3  0  0  0  0  0  0
   31.5840   26.0950   46.4560 N   0  0  0  0  0  0  0  0  0  0  0  0
   31.5320   27.4210   46.2600 C   0  0  0  0  0  0  0  0  0  0  0  0
   30.4950   27.8710   45.4900 C   0  0  0  0  0  3  0  0  0  0  0  0
   30.3660   29.2130   45.2370 C   0  0  0  0  0  0  0  0  0  0  0  0
   29.5470   29.5570   44.6320 H   0  0  0  0  0  0  0  0  0  0  0  0
   31.3230   30.0710   45.7930 C   0  0  0  0  0  0  0  0  0  0  0  0
   31.1700   31.1090   45.5620 H   0  0  0  0  0  0  0  0  0  0  0  0
   32.3310   29.5500   46.5520 C   0  0  0  0  0  3  0  0  0  0  0  0
   32.5030   28.2150   46.8320 C   0  0  0  0  0  0  0  0  0  0  0  0
   37.2440   30.8940   50.6000 C   0  0  0  0  0  0  0  0  0  0  0  0
   38.5510   30.8070   50.1410 F   0  0  0  0  0  0  0  0  0  0  0  0
   36.8600   32.2290   50.5400 F   0  0  0  0  0  0  0  0  0  0  0  0
   37.1860   30.4640   51.9050 F   0  0  0  0  0  0  0  0  0  0  0  0
  1  7  1  0  0  0  0
  2  1  1  0  0  0  0
  2 21  1  0  0  0  0
  3  2  2  0  0  0  0
  4  5  2  0  0  0  0
  4  3  1  0  0  0  0
  5  6  1  0  0  0  0
  6  1  2  0  0  0  0
  8  3  1  0  0  0  0
  9 10  1  0  0  0  0
  9  5  1  0  0  0  0
 11 10  2  0  0  0  0
 12 11  1  0  0  0  0
 13 12  2  0  0  0  0
 13 20  1  0  0  0  0
 14 13  1  0  0  0  0
 15 14  2  0  0  0  0
 15 17  1  0  0  0  0
 16 15  1  0  0  0  0
 17 19  2  0  0  0  0
 18 17  1  0  0  0  0
 19 20  1  0  0  0  0
 20  9  2  0  0  0  0
 21 24  1  0  0  0  0
 22 21  1  0  0  0  0
 23 21  1  0  0  0  0
M  END
>  <minimizedAffinity>
-5.27404118

>  <minimizedRMSD>
0.382942736

$$$$
