
     RDKit          3D

 39 42  0  0  0  0  0  0  0  0999 V2000
   38.8495   32.7312   48.1082 C   0  0  0  0  0  0  0  0  0  0  0  0
   39.3502   32.2051   46.9098 C   0  0  0  0  0  0  0  0  0  0  0  0
   38.6903   31.1226   46.3392 C   0  0  0  0  0  0  0  0  0  0  0  0
   37.5953   30.6269   46.9670 N   0  0  0  0  0  0  0  0  0  0  0  0
   37.1379   31.1601   48.1252 C   0  0  0  0  0  0  0  0  0  0  0  0
   37.7520   32.1994   48.6948 N   0  0  0  0  0  0  0  0  0  0  0  0
   35.9625   30.6026   48.7631 N   0  0  0  0  0  0  0  0  0  0  0  0
   35.9740   30.3492   50.1927 C   0  0  0  0  0  0  0  0  0  0  0  0
   35.1301   29.1817   50.5958 C   0  0  0  0  0  0  0  0  0  0  0  0
   34.9378   28.2979   49.3768 C   0  0  0  0  0  0  0  0  0  0  0  0
   34.0627   29.0700   48.4315 C   0  0  0  0  0  0  0  0  0  0  0  0
   34.7856   30.3103   47.9550 C   0  0  1  0  0  0  0  0  0  0  0  0
   39.3721   33.5729   48.5411 H   0  0  0  0  0  0  0  0  0  0  0  0
   40.2297   32.6135   46.4182 H   0  0  0  0  0  0  0  0  0  0  0  0
   39.0243   30.6650   45.4109 H   0  0  0  0  0  0  0  0  0  0  0  0
   35.5482   31.2723   50.6710 H   0  0  0  0  0  0  0  0  0  0  0  0
   37.0219   30.2549   50.5549 H   0  0  0  0  0  0  0  0  0  0  0  0
   35.6833   28.5838   51.3472 H   0  0  0  0  0  0  0  0  0  0  0  0
   34.1621   29.4702   51.0531 H   0  0  0  0  0  0  0  0  0  0  0  0
   34.4325   27.3633   49.6902 H   0  0  0  0  0  0  0  0  0  0  0  0
   35.9404   28.1282   48.9504 H   0  0  0  0  0  0  0  0  0  0  0  0
   33.1105   29.2719   48.9206 H   0  0  0  0  0  0  0  0  0  0  0  0
   33.8637   28.3659   47.5714 H   0  0  0  0  0  0  0  0  0  0  0  0
   35.1531   30.1969   46.9158 H   0  0  0  0  0  0  0  0  0  0  0  0
   33.9274   31.5203   48.0677 C   0  0  0  0  0  0  0  0  0  0  0  0
   33.4979   31.9483   49.2923 N   0  0  0  0  0  0  0  0  0  0  0  0
   32.7258   33.0367   49.4569 C   0  0  0  0  0  0  0  0  0  0  0  0
   32.3112   33.7964   48.4266 N   0  0  0  0  0  0  0  0  0  0  0  0
   32.7047   33.4207   47.1954 C   0  0  0  0  0  0  0  0  0  0  0  0
   32.3010   34.1698   46.1111 C   0  0  0  0  0  0  0  0  0  0  0  0
   32.6726   33.8313   44.8240 C   0  0  0  0  0  0  0  0  0  0  0  0
   32.3520   34.4251   43.9696 H   0  0  0  0  0  0  0  0  0  0  0  0
   33.4734   32.6982   44.6766 C   0  0  0  0  0  0  0  0  0  0  0  0
   33.7612   32.4365   43.6759 H   0  0  0  0  0  0  0  0  0  0  0  0
   33.8815   31.9436   45.7573 C   0  0  0  0  0  0  0  0  0  0  0  0
   33.4965   32.3057   47.0189 C   0  0  0  0  0  0  0  0  0  0  0  0
   32.4599   33.2601   50.4814 H   0  0  0  0  0  0  0  0  0  0  0  0
   31.6788   35.0494   46.2288 H   0  0  0  0  0  0  0  0  0  0  0  0
   34.4995   31.0756   45.5767 H   0  0  0  0  0  0  0  0  0  0  0  0
  1  6  2  0
  2  1  1  0
  3  2  2  0
  3  4  1  0
  4  5  2  0
  5  6  1  0
  5  7  1  0
  7  8  1  0
  8  9  1  0
 10  9  1  0
 11 10  1  0
 12 11  1  0
 12  7  1  0
  1 13  1  0
  2 14  1  0
  3 15  1  0
  8 16  1  0
  8 17  1  0
  9 18  1  0
  9 19  1  0
 10 20  1  0
 10 21  1  0
 11 22  1  0
 11 23  1  0
 12 24  1  6
 25 26  2  0
 26 27  1  0
 27 28  2  0
 28 29  1  0
 29 30  2  0
 30 31  1  0
 31 32  1  0
 31 33  2  0
 33 34  1  0
 33 35  1  0
 35 36  2  0
 36 25  1  0
 36 29  1  0
 27 37  1  0
 30 38  1  0
 35 39  1  0
 12 25  1  0
M  ISO  8  13  14  14  14  15  14  16  13  17  13  18  13  19  13  20  13
M  ISO  6  21  13  22  13  23  13  24  13  32  16  34  16
M  END
>  <DihAtoms>  (1) 
10,11,24,25

>  <DihDeg>  (1) 
93.30983657228683

$$$$
