
 OpenBabel03272507133D

 43 48  0  0  0  0  0  0  0  0999 V2000
   37.5420   29.9840   49.5700 C   0  0  0  0  0  0  0  0  0  0  0  0
   38.2470   29.6160   50.5490 O   0  0  0  0  0  0  0  0  0  0  0  0
   38.0350   30.8680   48.5340 C   0  0  0  0  0  0  0  0  0  0  0  0
   38.4480   32.1280   48.8900 C   0  0  0  0  0  0  0  0  0  0  0  0
   38.9310   32.9750   47.9100 C   0  0  0  0  0  0  0  0  0  0  0  0
   38.9680   32.5110   46.6470 N   0  0  0  0  0  0  0  0  0  0  0  0
   38.5720   31.2950   46.2830 C   0  0  0  0  0  0  0  0  0  0  0  0
   38.1110   30.5090   47.2660 N   0  0  0  0  0  0  0  0  0  0  0  0
   38.4250   32.5180   49.8930 H   0  0  0  0  0  0  0  0  0  0  0  0
   39.2790   33.9650   48.0490 H   0  0  0  0  0  0  0  0  0  0  0  0
   38.5270   30.5990   44.9800 C   0  0  0  0  0  0  0  0  0  0  0  0
   39.1870   29.4680   44.7100 N   0  0  0  0  0  0  0  0  0  0  0  0
   39.1170   28.8730   43.5220 C   0  0  0  0  0  3  0  0  0  0  0  0
   38.3930   29.3350   42.4970 N   0  0  0  0  0  0  0  0  0  0  0  0
   37.6940   30.4730   42.6810 C   0  0  0  0  0  0  0  0  0  0  0  0
   36.9490   30.9510   41.6290 C   0  0  0  0  0  3  0  0  0  0  0  0
   36.2220   32.1090   41.7800 C   0  0  0  0  0  0  0  0  0  0  0  0
   35.6620   32.4330   40.9320 H   0  0  0  0  0  0  0  0  0  0  0  0
   36.2760   32.7480   43.0050 C   0  0  0  0  0  0  0  0  0  0  0  0
   35.6890   33.6500   43.0720 H   0  0  0  0  0  0  0  0  0  0  0  0
   37.0420   32.2180   44.0180 C   0  0  0  0  0  3  0  0  0  0  0  0
   37.7850   31.0680   43.9200 C   0  0  0  0  0  0  0  0  0  0  0  0
   36.1740   29.5110   49.4600 C   0  0  0  0  0  0  0  0  0  0  0  0
   35.1880   29.9640   50.2750 C   0  0  0  0  0  0  0  0  0  0  0  0
   34.0130   29.3040   49.8950 C   0  0  0  0  0  0  0  0  0  0  0  0
   34.3750   28.4710   48.8420 C   0  0  0  0  0  0  0  0  0  0  0  0
   35.6610   28.6380   48.6320 O   0  0  0  0  0  0  0  0  0  0  0  0
   35.2560   30.7020   51.0870 H   0  0  0  0  0  0  0  0  0  0  0  0
   33.0590   29.4710   50.3780 H   0  0  0  0  0  0  0  0  0  0  0  0
   33.8210   26.5700   47.3050 C   0  0  0  0  0  0  0  0  0  0  0  0
   33.4390   27.5920   48.1390 C   0  0  0  0  0  0  0  0  0  0  0  0
   32.0990   27.8660   48.3690 C   0  0  0  0  0  0  0  0  0  0  0  0
   31.1380   27.0870   47.7410 C   0  0  0  0  0  0  0  0  0  0  0  0
   29.8080   27.1150   47.7690 N   0  0  0  0  0  0  0  0  0  0  0  0
   29.3770   26.1390   46.9750 N   0  0  0  0  0  0  0  0  0  0  0  0
   30.4230   25.4860   46.4410 C   0  0  0  0  0  0  0  0  0  0  0  0
   31.5810   26.0650   46.9060 C   0  0  0  0  0  0  0  0  0  0  0  0
   32.9280   25.7820   46.6700 C   0  0  0  0  0  0  0  0  0  0  0  0
   34.8800   26.4100   47.1700 H   0  0  0  0  0  0  0  0  0  0  0  0
   31.7080   28.6610   49.0180 H   0  0  0  0  0  0  0  0  0  0  0  0
   29.2040   27.7820   48.3140 H   0  0  0  0  0  0  0  0  0  0  0  0
   30.3260   24.6560   45.7650 H   0  0  0  0  0  0  0  0  0  0  0  0
   33.1860   24.9650   46.0040 H   0  0  0  0  0  0  0  0  0  0  0  0
  1  2  2  0  0  0  0
  3  4  1  0  0  0  0
  3  1  1  0  0  0  0
  4  9  1  0  0  0  0
  5 10  1  0  0  0  0
  5  4  2  0  0  0  0
  6  5  1  0  0  0  0
  7  6  2  0  0  0  0
  7  8  1  0  0  0  0
  8  3  2  0  0  0  0
 11  7  1  0  0  0  0
 12 11  1  0  0  0  0
 13 12  2  0  0  0  0
 14 15  2  0  0  0  0
 14 13  1  0  0  0  0
 15 22  1  0  0  0  0
 16 17  2  0  0  0  0
 16 15  1  0  0  0  0
 17 19  1  0  0  0  0
 18 17  1  0  0  0  0
 19 20  1  0  0  0  0
 19 21  2  0  0  0  0
 22 21  1  0  0  0  0
 22 11  2  0  0  0  0
 23  1  1  0  0  0  0
 23 24  2  0  0  0  0
 24 28  1  0  0  0  0
 25 24  1  0  0  0  0
 25 29  1  0  0  0  0
 26 25  2  0  0  0  0
 27 26  1  0  0  0  0
 27 23  1  0  0  0  0
 30 31  1  0  0  0  0
 31 32  2  0  0  0  0
 31 26  1  0  0  0  0
 32 40  1  0  0  0  0
 33 34  1  0  0  0  0
 33 32  1  0  0  0  0
 34 41  1  0  0  0  0
 35 34  1  0  0  0  0
 36 37  1  0  0  0  0
 36 35  2  0  0  0  0
 37 33  2  0  0  0  0
 38 37  1  0  0  0  0
 38 30  2  0  0  0  0
 39 30  1  0  0  0  0
 42 36  1  0  0  0  0
 43 38  1  0  0  0  0
M  END
>  <minimizedAffinity>
-6.73949623

>  <minimizedRMSD>
0.782565296

$$$$
