
 OpenBabel03262520283D

 23 25  0  0  1  0  0  0  0  0999 V2000
   38.1510   23.4960   34.6110 C   0  0  1  0  0  3  0  0  0  0  0  0
   38.1900   23.3000   33.4080 N   0  0  0  0  0  2  0  0  0  0  0  0
   38.1960   23.0420   32.2150 C   0  0  0  0  0  2  0  0  0  0  0  0
   38.8360   24.1610   31.8720 N   0  0  0  0  0  2  0  0  0  0  0  0
   39.1810   25.0290   32.8740 C   0  0  0  0  0  0  0  0  0  0  0  0
   39.8560   26.1720   32.3510 C   0  0  0  0  0  3  0  0  0  0  0  0
   40.2390   27.0970   33.2780 C   0  0  0  0  0  0  0  0  0  0  0  0
   40.7400   27.9430   32.8600 H   0  0  0  0  0  0  0  0  0  0  0  0
   40.0270   27.0060   34.6320 C   0  0  0  0  0  0  0  0  0  0  0  0
   40.3180   27.7090   35.3690 H   0  0  0  0  0  0  0  0  0  0  0  0
   39.3660   25.8420   34.9530 C   0  0  0  0  0  3  0  0  0  0  0  0
   38.8520   24.7180   34.2320 C   0  0  0  0  0  0  0  0  0  0  0  0
   37.9680   24.1820   38.2750 C   0  0  0  0  0  0  0  0  0  0  0  0
   39.0060   23.3250   38.6240 C   0  0  0  0  0  0  0  0  0  0  0  0
   39.5920   22.6560   37.5660 C   0  0  0  0  0  0  0  0  0  0  0  0
   39.1120   22.8910   36.3140 N   0  0  0  0  0  0  0  0  0  0  0  0
   38.1060   23.7290   36.0220 C   0  0  0  0  0  0  0  0  0  0  0  0
   37.5880   24.3310   37.0300 N   0  0  0  0  0  0  0  0  0  0  0  0
   40.6630   21.7530   37.8890 N   0  0  0  0  0  0  0  0  0  0  0  0
   37.3840   24.7880   38.9540 H   0  0  0  0  0  0  0  0  0  0  0  0
   39.2570   23.2560   39.6670 H   0  0  0  0  0  0  0  0  0  0  0  0
   40.5150   20.7120   38.0510 H   0  0  0  0  0  0  0  0  0  0  0  0
   41.6930   21.7690   38.0440 H   0  0  0  0  0  0  0  0  0  0  0  0
  1 17  1  6  0  0  0
  2  1  1  0  0  0  0
  3  2  1  0  0  0  0
  4  3  1  0  0  0  0
  4  5  1  0  0  0  0
  5 12  1  0  0  0  0
  6  5  2  0  0  0  0
  6  7  1  0  0  0  0
  7  9  2  0  0  0  0
  8  7  1  0  0  0  0
  9 11  1  0  0  0  0
  9 10  1  0  0  0  0
 12  1  1  0  0  0  0
 12 11  2  0  0  0  0
 13 14  1  0  0  0  0
 13 20  1  0  0  0  0
 14 21  1  0  0  0  0
 15 19  1  0  0  0  0
 15 14  2  0  0  0  0
 16 15  1  0  0  0  0
 17 16  2  0  0  0  0
 17 18  1  0  0  0  0
 18 13  2  0  0  0  0
 19 23  1  0  0  0  0
 19 22  1  0  0  0  0
M  END
>  <minimizedAffinity>
-5.29968023

$$$$

 OpenBabel03262520283D

 23 25  0  0  1  0  0  0  0  0999 V2000
   38.5550   23.6670   34.1580 C   0  0  2  0  0  3  0  0  0  0  0  0
   37.7690   23.9050   33.2570 N   0  0  0  0  0  2  0  0  0  0  0  0
   36.9900   24.0760   32.3320 C   0  0  0  0  0  2  0  0  0  0  0  0
   36.7520   25.3540   32.6350 N   0  0  0  0  0  2  0  0  0  0  0  0
   37.3990   25.8810   33.7220 C   0  0  0  0  0  0  0  0  0  0  0  0
   37.0440   27.2490   33.9160 C   0  0  0  0  0  3  0  0  0  0  0  0
   37.6390   27.8610   34.9800 C   0  0  0  0  0  0  0  0  0  0  0  0
   37.3540   28.8830   35.1030 H   0  0  0  0  0  0  0  0  0  0  0  0
   38.5270   27.2710   35.8460 C   0  0  0  0  0  0  0  0  0  0  0  0
   39.0040   27.7270   36.6750 H   0  0  0  0  0  0  0  0  0  0  0  0
   38.7520   25.9560   35.5060 C   0  0  0  0  0  3  0  0  0  0  0  0
   38.2930   25.0650   34.4860 C   0  0  0  0  0  0  0  0  0  0  0  0
   41.0380   22.9400   36.8490 C   0  0  0  0  0  0  0  0  0  0  0  0
   40.0940   22.7270   37.8480 C   0  0  0  0  0  0  0  0  0  0  0  0
   38.7780   22.8690   37.4490 C   0  0  0  0  0  0  0  0  0  0  0  0
   38.5340   23.1940   36.1500 N   0  0  0  0  0  0  0  0  0  0  0  0
   39.4780   23.3900   35.2160 C   0  0  0  0  0  0  0  0  0  0  0  0
   40.6860   23.2490   35.6250 N   0  0  0  0  0  0  0  0  0  0  0  0
   37.7740   22.6670   38.4570 N   0  0  0  0  0  0  0  0  0  0  0  0
   42.1120   22.8800   36.9610 H   0  0  0  0  0  0  0  0  0  0  0  0
   40.4620   22.4790   38.8270 H   0  0  0  0  0  0  0  0  0  0  0  0
   37.3540   23.4630   39.0260 H   0  0  0  0  0  0  0  0  0  0  0  0
   37.2330   21.8910   38.8920 H   0  0  0  0  0  0  0  0  0  0  0  0
  1 12  1  0  0  0  0
  1 17  1  6  0  0  0
  2  1  1  0  0  0  0
  3  4  1  0  0  0  0
  3  2  1  0  0  0  0
  4  5  1  0  0  0  0
  5  6  2  0  0  0  0
  5 12  1  0  0  0  0
  6  7  1  0  0  0  0
  7  8  1  0  0  0  0
  7  9  2  0  0  0  0
  9 10  1  0  0  0  0
 11  9  1  0  0  0  0
 12 11  2  0  0  0  0
 13 20  1  0  0  0  0
 13 14  1  0  0  0  0
 14 21  1  0  0  0  0
 15 14  2  0  0  0  0
 15 19  1  0  0  0  0
 16 15  1  0  0  0  0
 17 18  1  0  0  0  0
 17 16  2  0  0  0  0
 18 13  2  0  0  0  0
 19 23  1  0  0  0  0
 19 22  1  0  0  0  0
M  END
>  <minimizedAffinity>
-5.23724651

$$$$

 OpenBabel03262520283D

 23 25  0  0  1  0  0  0  0  0999 V2000
   38.6420   23.1540   34.2250 C   0  0  1  0  0  3  0  0  0  0  0  0
   38.8240   22.8890   33.0490 N   0  0  0  0  0  2  0  0  0  0  0  0
   39.0580   22.6740   31.8700 C   0  0  0  0  0  2  0  0  0  0  0  0
   38.1090   21.7440   31.7470 N   0  0  0  0  0  2  0  0  0  0  0  0
   37.3570   21.4520   32.8540 C   0  0  0  0  0  0  0  0  0  0  0  0
   36.3900   20.4440   32.5650 C   0  0  0  0  0  3  0  0  0  0  0  0
   35.5920   20.0840   33.6120 C   0  0  0  0  0  0  0  0  0  0  0  0
   34.8790   19.3270   33.3690 H   0  0  0  0  0  0  0  0  0  0  0  0
   35.6540   20.6080   34.8800 C   0  0  0  0  0  0  0  0  0  0  0  0
   35.0440   20.3470   35.7060 H   0  0  0  0  0  0  0  0  0  0  0  0
   36.6410   21.5640   34.9740 C   0  0  0  0  0  3  0  0  0  0  0  0
   37.6050   22.1370   34.0860 C   0  0  0  0  0  0  0  0  0  0  0  0
   38.0160   24.0340   37.7980 C   0  0  0  0  0  0  0  0  0  0  0  0
   39.0270   23.2290   38.3130 C   0  0  0  0  0  0  0  0  0  0  0  0
   39.7470   22.5210   37.3700 C   0  0  0  0  0  0  0  0  0  0  0  0
   39.4120   22.6720   36.0600 N   0  0  0  0  0  0  0  0  0  0  0  0
   38.4270   23.4620   35.6060 C   0  0  0  0  0  0  0  0  0  0  0  0
   37.7810   24.1030   36.5100 N   0  0  0  0  0  0  0  0  0  0  0  0
   40.7940   21.6700   37.8660 N   0  0  0  0  0  0  0  0  0  0  0  0
   37.3430   24.6590   38.3690 H   0  0  0  0  0  0  0  0  0  0  0  0
   39.1550   23.2260   39.3810 H   0  0  0  0  0  0  0  0  0  0  0  0
   40.6530   20.6350   38.0710 H   0  0  0  0  0  0  0  0  0  0  0  0
   41.7980   21.7250   38.1380 H   0  0  0  0  0  0  0  0  0  0  0  0
  1 17  1  1  0  0  0
  2  1  1  0  0  0  0
  3  2  1  0  0  0  0
  4  3  1  0  0  0  0
  4  5  1  0  0  0  0
  5 12  1  0  0  0  0
  6  5  2  0  0  0  0
  6  7  1  0  0  0  0
  7  9  2  0  0  0  0
  8  7  1  0  0  0  0
  9 11  1  0  0  0  0
  9 10  1  0  0  0  0
 12  1  1  0  0  0  0
 12 11  2  0  0  0  0
 13 14  1  0  0  0  0
 13 20  1  0  0  0  0
 14 21  1  0  0  0  0
 15 19  1  0  0  0  0
 15 14  2  0  0  0  0
 16 15  1  0  0  0  0
 17 16  2  0  0  0  0
 17 18  1  0  0  0  0
 18 13  2  0  0  0  0
 19 22  1  0  0  0  0
 19 23  1  0  0  0  0
M  END
>  <minimizedAffinity>
-5.18085098

$$$$

 OpenBabel03262520283D

 23 25  0  0  1  0  0  0  0  0999 V2000
   39.5680   22.7240   36.2760 C   0  0  2  0  0  3  0  0  0  0  0  0
   38.4930   23.0990   36.7110 N   0  0  0  0  0  2  0  0  0  0  0  0
   37.4050   23.4090   37.1700 C   0  0  0  0  0  2  0  0  0  0  0  0
   37.4790   24.6770   36.7600 N   0  0  0  0  0  2  0  0  0  0  0  0
   38.6030   25.0600   36.0770 C   0  0  0  0  0  0  0  0  0  0  0  0
   38.5340   26.4360   35.7080 C   0  0  0  0  0  3  0  0  0  0  0  0
   39.6140   26.9100   35.0230 C   0  0  0  0  0  0  0  0  0  0  0  0
   39.5370   27.9430   34.7600 H   0  0  0  0  0  0  0  0  0  0  0  0
   40.7240   26.1790   34.6750 C   0  0  0  0  0  0  0  0  0  0  0  0
   41.5710   26.5250   34.1410 H   0  0  0  0  0  0  0  0  0  0  0  0
   40.6160   24.8780   35.1120 C   0  0  0  0  0  3  0  0  0  0  0  0
   39.6450   24.1100   35.8280 C   0  0  0  0  0  0  0  0  0  0  0  0
   42.8370   21.6220   34.8500 C   0  0  0  0  0  0  0  0  0  0  0  0
   43.1870   20.8150   35.9270 C   0  0  0  0  0  0  0  0  0  0  0  0
   42.2650   20.7800   36.9560 C   0  0  0  0  0  0  0  0  0  0  0  0
   41.1290   21.5180   36.8240 N   0  0  0  0  0  0  0  0  0  0  0  0
   40.8310   22.2850   35.7640 C   0  0  0  0  0  0  0  0  0  0  0  0
   41.7110   22.2910   34.8310 N   0  0  0  0  0  0  0  0  0  0  0  0
   42.5970   19.9630   38.0910 N   0  0  0  0  0  0  0  0  0  0  0  0
   43.4230   21.7840   33.9560 H   0  0  0  0  0  0  0  0  0  0  0  0
   44.1290   20.2990   35.8690 H   0  0  0  0  0  0  0  0  0  0  0  0
   43.0770   20.3460   38.9610 H   0  0  0  0  0  0  0  0  0  0  0  0
   42.5200   18.9730   38.4050 H   0  0  0  0  0  0  0  0  0  0  0  0
  1 17  1  6  0  0  0
  1  2  1  0  0  0  0
  2  3  1  0  0  0  0
  4  3  1  0  0  0  0
  5  4  1  0  0  0  0
  6  5  2  0  0  0  0
  7  6  1  0  0  0  0
  8  7  1  0  0  0  0
  9  7  2  0  0  0  0
  9 11  1  0  0  0  0
 10  9  1  0  0  0  0
 11 12  2  0  0  0  0
 12  5  1  0  0  0  0
 12  1  1  0  0  0  0
 13 14  1  0  0  0  0
 14 15  2  0  0  0  0
 15 19  1  0  0  0  0
 16 15  1  0  0  0  0
 17 16  2  0  0  0  0
 18 13  2  0  0  0  0
 18 17  1  0  0  0  0
 19 23  1  0  0  0  0
 19 22  1  0  0  0  0
 20 13  1  0  0  0  0
 21 14  1  0  0  0  0
M  END
>  <minimizedAffinity>
-5.04890966

$$$$

 OpenBabel03262520283D

 23 25  0  0  1  0  0  0  0  0999 V2000
   36.7540   25.8890   32.2830 C   0  0  1  0  0  3  0  0  0  0  0  0
   37.0980   24.7470   32.5350 N   0  0  0  0  0  2  0  0  0  0  0  0
   37.4160   23.5830   32.7270 C   0  0  0  0  0  2  0  0  0  0  0  0
   37.9510   23.8200   33.9260 N   0  0  0  0  0  2  0  0  0  0  0  0
   37.9260   25.1080   34.3910 C   0  0  0  0  0  0  0  0  0  0  0  0
   38.5320   25.2000   35.6790 C   0  0  0  0  0  3  0  0  0  0  0  0
   38.5560   26.4500   36.2250 C   0  0  0  0  0  0  0  0  0  0  0  0
   39.0170   26.4900   37.1880 H   0  0  0  0  0  0  0  0  0  0  0  0
   38.0520   27.5860   35.6400 C   0  0  0  0  0  0  0  0  0  0  0  0
   38.0570   28.5650   36.0460 H   0  0  0  0  0  0  0  0  0  0  0  0
   37.5080   27.3090   34.4060 C   0  0  0  0  0  3  0  0  0  0  0  0
   37.3390   26.1430   33.5950 C   0  0  0  0  0  0  0  0  0  0  0  0
   35.6370   29.3830   31.5930 C   0  0  0  0  0  0  0  0  0  0  0  0
   36.2810   29.4890   30.3650 C   0  0  0  0  0  0  0  0  0  0  0  0
   36.9870   28.3670   29.9760 C   0  0  0  0  0  0  0  0  0  0  0  0
   36.9880   27.2900   30.8080 N   0  0  0  0  0  0  0  0  0  0  0  0
   36.3510   27.2300   31.9870 C   0  0  0  0  0  0  0  0  0  0  0  0
   35.7060   28.2910   32.3130 N   0  0  0  0  0  0  0  0  0  0  0  0
   37.6740   28.4430   28.7160 N   0  0  0  0  0  0  0  0  0  0  0  0
   35.0410   30.1490   32.0710 H   0  0  0  0  0  0  0  0  0  0  0  0
   36.1770   30.4190   29.8350 H   0  0  0  0  0  0  0  0  0  0  0  0
   38.6970   28.7260   28.6280 H   0  0  0  0  0  0  0  0  0  0  0  0
   37.4880   28.2950   27.7010 H   0  0  0  0  0  0  0  0  0  0  0  0
  1 17  1  6  0  0  0
  1  2  1  0  0  0  0
  1 12  1  0  0  0  0
  2  3  1  0  0  0  0
  3  4  1  0  0  0  0
  4  5  1  0  0  0  0
  5  6  1  0  0  0  0
  6  7  2  0  0  0  0
  7  8  1  0  0  0  0
  9 10  1  0  0  0  0
  9  7  1  0  0  0  0
 11  9  2  0  0  0  0
 12  5  2  0  0  0  0
 12 11  1  0  0  0  0
 13 20  1  0  0  0  0
 13 18  1  0  0  0  0
 14 13  2  0  0  0  0
 15 14  1  0  0  0  0
 15 16  2  0  0  0  0
 16 17  1  0  0  0  0
 17 18  2  0  0  0  0
 19 15  1  0  0  0  0
 21 14  1  0  0  0  0
 22 19  1  0  0  0  0
 23 19  1  0  0  0  0
M  END
>  <minimizedAffinity>
-4.94025469

$$$$

 OpenBabel03262520283D

 23 25  0  0  1  0  0  0  0  0999 V2000
   33.6060   29.4120   33.5420 C   0  0  1  0  0  3  0  0  0  0  0  0
   32.5610   29.6500   34.1220 N   0  0  0  0  0  2  0  0  0  0  0  0
   31.4790   29.8500   34.6540 C   0  0  0  0  0  2  0  0  0  0  0  0
   31.9820   30.6240   35.6170 N   0  0  0  0  0  2  0  0  0  0  0  0
   33.3330   30.8490   35.6130 C   0  0  0  0  0  0  0  0  0  0  0  0
   33.7160   31.6910   36.6990 C   0  0  0  0  0  3  0  0  0  0  0  0
   35.0500   31.9700   36.7780 C   0  0  0  0  0  0  0  0  0  0  0  0
   35.3080   32.6000   37.6010 H   0  0  0  0  0  0  0  0  0  0  0  0
   36.0140   31.5130   35.9130 C   0  0  0  0  0  0  0  0  0  0  0  0
   37.0520   31.7200   35.9540 H   0  0  0  0  0  0  0  0  0  0  0  0
   35.4640   30.7190   34.9320 C   0  0  0  0  0  3  0  0  0  0  0  0
   34.1520   30.2600   34.5970 C   0  0  0  0  0  0  0  0  0  0  0  0
   36.8360   28.6170   31.8480 C   0  0  0  0  0  0  0  0  0  0  0  0
   36.7440   29.6330   30.9020 C   0  0  0  0  0  0  0  0  0  0  0  0
   35.6070   30.4130   30.9910 C   0  0  0  0  0  0  0  0  0  0  0  0
   34.7060   30.1250   31.9690 N   0  0  0  0  0  0  0  0  0  0  0  0
   34.8350   29.1330   32.8630 C   0  0  0  0  0  0  0  0  0  0  0  0
   35.9030   28.4310   32.7490 N   0  0  0  0  0  0  0  0  0  0  0  0
   35.4720   31.4680   30.0230 N   0  0  0  0  0  0  0  0  0  0  0  0
   37.6410   27.9020   31.9410 H   0  0  0  0  0  0  0  0  0  0  0  0
   37.5490   29.7200   30.1950 H   0  0  0  0  0  0  0  0  0  0  0  0
   34.9370   31.3530   29.1100 H   0  0  0  0  0  0  0  0  0  0  0  0
   35.7640   32.4580   29.8840 H   0  0  0  0  0  0  0  0  0  0  0  0
  1 17  1  1  0  0  0
  1  2  1  0  0  0  0
  1 12  1  0  0  0  0
  2  3  1  0  0  0  0
  3  4  1  0  0  0  0
  5  4  1  0  0  0  0
  5  6  1  0  0  0  0
  6  7  2  0  0  0  0
  7  8  1  0  0  0  0
  9 10  1  0  0  0  0
  9  7  1  0  0  0  0
 11  9  2  0  0  0  0
 12 11  1  0  0  0  0
 12  5  2  0  0  0  0
 13 20  1  0  0  0  0
 13 18  1  0  0  0  0
 14 15  1  0  0  0  0
 14 13  2  0  0  0  0
 15 16  2  0  0  0  0
 16 17  1  0  0  0  0
 18 17  2  0  0  0  0
 19 15  1  0  0  0  0
 21 14  1  0  0  0  0
 22 19  1  0  0  0  0
 23 19  1  0  0  0  0
M  END
>  <minimizedAffinity>
-4.90056229

$$$$

 OpenBabel03262520283D

 23 25  0  0  1  0  0  0  0  0999 V2000
   40.9100   23.5300   35.0960 C   0  0  1  0  0  3  0  0  0  0  0  0
   41.2260   22.6570   35.8860 N   0  0  0  0  0  2  0  0  0  0  0  0
   41.5930   21.7630   36.6320 C   0  0  0  0  0  2  0  0  0  0  0  0
   40.6520   22.0010   37.5480 N   0  0  0  0  0  2  0  0  0  0  0  0
   39.7710   23.0220   37.3040 C   0  0  0  0  0  0  0  0  0  0  0  0
   38.8310   23.1520   38.3680 C   0  0  0  0  0  3  0  0  0  0  0  0
   37.9110   24.1480   38.2150 C   0  0  0  0  0  0  0  0  0  0  0  0
   37.2200   24.2240   39.0270 H   0  0  0  0  0  0  0  0  0  0  0  0
   37.8300   25.0020   37.1420 C   0  0  0  0  0  0  0  0  0  0  0  0
   37.1230   25.7780   37.0000 H   0  0  0  0  0  0  0  0  0  0  0  0
   38.8120   24.7300   36.2170 C   0  0  0  0  0  3  0  0  0  0  0  0
   39.8820   23.7870   36.1000 C   0  0  0  0  0  0  0  0  0  0  0  0
   39.8690   26.1430   32.6420 C   0  0  0  0  0  0  0  0  0  0  0  0
   40.9260   27.0060   32.9100 C   0  0  0  0  0  0  0  0  0  0  0  0
   41.8100   26.5660   33.8760 C   0  0  0  0  0  0  0  0  0  0  0  0
   41.5730   25.3600   34.4610 N   0  0  0  0  0  0  0  0  0  0  0  0
   40.5380   24.5560   34.1710 C   0  0  0  0  0  0  0  0  0  0  0  0
   39.7400   24.9990   33.2690 N   0  0  0  0  0  0  0  0  0  0  0  0
   42.9100   27.4370   34.1870 N   0  0  0  0  0  0  0  0  0  0  0  0
   39.0740   26.3070   31.9270 H   0  0  0  0  0  0  0  0  0  0  0  0
   40.9610   27.9270   32.3550 H   0  0  0  0  0  0  0  0  0  0  0  0
   42.8860   28.1410   34.9850 H   0  0  0  0  0  0  0  0  0  0  0  0
   43.8720   27.6520   33.8490 H   0  0  0  0  0  0  0  0  0  0  0  0
  1 17  1  1  0  0  0
  1  2  1  0  0  0  0
  1 12  1  0  0  0  0
  2  3  1  0  0  0  0
  3  4  1  0  0  0  0
  5  4  1  0  0  0  0
  5  6  1  0  0  0  0
  7  6  2  0  0  0  0
  7  8  1  0  0  0  0
  9  7  1  0  0  0  0
 10  9  1  0  0  0  0
 11  9  2  0  0  0  0
 12 11  1  0  0  0  0
 12  5  2  0  0  0  0
 13 14  2  0  0  0  0
 13 18  1  0  0  0  0
 14 15  1  0  0  0  0
 15 19  1  0  0  0  0
 15 16  2  0  0  0  0
 17 16  1  0  0  0  0
 18 17  2  0  0  0  0
 19 22  1  0  0  0  0
 20 13  1  0  0  0  0
 21 14  1  0  0  0  0
 23 19  1  0  0  0  0
M  END
>  <minimizedAffinity>
-4.89420462

$$$$

 OpenBabel03262520283D

 23 25  0  0  1  0  0  0  0  0999 V2000
   37.4320   26.0270   32.1390 C   0  0  1  0  0  3  0  0  0  0  0  0
   36.3500   26.0030   31.5790 N   0  0  0  0  0  2  0  0  0  0  0  0
   35.2690   26.0500   31.0110 C   0  0  0  0  0  2  0  0  0  0  0  0
   35.0530   24.7360   31.0970 N   0  0  0  0  0  2  0  0  0  0  0  0
   36.0110   23.9720   31.7100 C   0  0  0  0  0  0  0  0  0  0  0  0
   35.6380   22.5950   31.7230 C   0  0  0  0  0  3  0  0  0  0  0  0
   36.5340   21.7530   32.3140 C   0  0  0  0  0  0  0  0  0  0  0  0
   36.2310   20.7290   32.3080 H   0  0  0  0  0  0  0  0  0  0  0  0
   37.7290   22.1280   32.8780 C   0  0  0  0  0  0  0  0  0  0  0  0
   38.4370   21.4930   33.3450 H   0  0  0  0  0  0  0  0  0  0  0  0
   37.9220   23.4870   32.7750 C   0  0  0  0  0  3  0  0  0  0  0  0
   37.1920   24.5910   32.2310 C   0  0  0  0  0  0  0  0  0  0  0  0
   40.7850   26.0300   33.7800 C   0  0  0  0  0  0  0  0  0  0  0  0
   40.3700   26.6900   34.9320 C   0  0  0  0  0  0  0  0  0  0  0  0
   39.0300   27.0270   34.9610 C   0  0  0  0  0  0  0  0  0  0  0  0
   38.2610   26.6920   33.8890 N   0  0  0  0  0  0  0  0  0  0  0  0
   38.7030   26.0530   32.7960 C   0  0  0  0  0  0  0  0  0  0  0  0
   39.9520   25.7560   32.8060 N   0  0  0  0  0  0  0  0  0  0  0  0
   38.5660   27.7200   36.1320 N   0  0  0  0  0  0  0  0  0  0  0  0
   41.7880   25.6880   33.5660 H   0  0  0  0  0  0  0  0  0  0  0  0
   41.1140   26.8790   35.6840 H   0  0  0  0  0  0  0  0  0  0  0  0
   38.5080   28.7810   36.1940 H   0  0  0  0  0  0  0  0  0  0  0  0
   38.2140   27.5100   37.0900 H   0  0  0  0  0  0  0  0  0  0  0  0
  1 12  1  0  0  0  0
  1 17  1  6  0  0  0
  2  1  1  0  0  0  0
  3  4  1  0  0  0  0
  3  2  1  0  0  0  0
  4  5  1  0  0  0  0
  5  6  2  0  0  0  0
  5 12  1  0  0  0  0
  6  7  1  0  0  0  0
  7  9  2  0  0  0  0
  8  7  1  0  0  0  0
  9 10  1  0  0  0  0
 11  9  1  0  0  0  0
 12 11  2  0  0  0  0
 13 14  1  0  0  0  0
 14 15  2  0  0  0  0
 14 21  1  0  0  0  0
 15 19  1  0  0  0  0
 16 15  1  0  0  0  0
 17 18  1  0  0  0  0
 17 16  2  0  0  0  0
 18 13  2  0  0  0  0
 19 22  1  0  0  0  0
 19 23  1  0  0  0  0
 20 13  1  0  0  0  0
M  END
>  <minimizedAffinity>
-4.83078766

$$$$

 OpenBabel03262520283D

 23 25  0  0  1  0  0  0  0  0999 V2000
   38.9810   23.4150   34.2120 C   0  0  2  0  0  3  0  0  0  0  0  0
   38.1540   23.9630   33.5040 N   0  0  0  0  0  2  0  0  0  0  0  0
   37.2870   24.4520   32.7970 C   0  0  0  0  0  2  0  0  0  0  0  0
   37.9220   25.6170   32.6490 N   0  0  0  0  0  2  0  0  0  0  0  0
   39.1330   25.7650   33.2720 C   0  0  0  0  0  0  0  0  0  0  0  0
   39.6840   27.0560   33.0210 C   0  0  0  0  0  3  0  0  0  0  0  0
   40.8940   27.2980   33.6040 C   0  0  0  0  0  0  0  0  0  0  0  0
   41.2820   28.2720   33.4010 H   0  0  0  0  0  0  0  0  0  0  0  0
   41.5930   26.4120   34.3870 C   0  0  0  0  0  0  0  0  0  0  0  0
   42.5330   26.5770   34.8470 H   0  0  0  0  0  0  0  0  0  0  0  0
   40.9130   25.2230   34.5200 C   0  0  0  0  0  3  0  0  0  0  0  0
   39.6730   24.6890   34.0470 C   0  0  0  0  0  0  0  0  0  0  0  0
   41.5630   21.7030   36.2950 C   0  0  0  0  0  0  0  0  0  0  0  0
   40.9290   21.9360   37.5110 C   0  0  0  0  0  0  0  0  0  0  0  0
   39.7400   22.6350   37.4260 C   0  0  0  0  0  0  0  0  0  0  0  0
   39.3090   23.0200   36.1940 N   0  0  0  0  0  0  0  0  0  0  0  0
   39.9540   22.7730   35.0430 C   0  0  0  0  0  0  0  0  0  0  0  0
   41.0530   22.1230   35.1630 N   0  0  0  0  0  0  0  0  0  0  0  0
   39.0610   22.9030   38.6640 N   0  0  0  0  0  0  0  0  0  0  0  0
   42.4990   21.1810   36.1520 H   0  0  0  0  0  0  0  0  0  0  0  0
   41.4120   21.5620   38.3960 H   0  0  0  0  0  0  0  0  0  0  0  0
   39.1850   23.8090   39.2100 H   0  0  0  0  0  0  0  0  0  0  0  0
   38.3860   22.4470   39.3130 H   0  0  0  0  0  0  0  0  0  0  0  0
  1 17  1  6  0  0  0
  2  1  1  0  0  0  0
  3  2  1  0  0  0  0
  4  3  1  0  0  0  0
  4  5  1  0  0  0  0
  5 12  1  0  0  0  0
  6  5  2  0  0  0  0
  6  7  1  0  0  0  0
  7  9  2  0  0  0  0
  8  7  1  0  0  0  0
  9 11  1  0  0  0  0
  9 10  1  0  0  0  0
 12  1  1  0  0  0  0
 12 11  2  0  0  0  0
 13 14  1  0  0  0  0
 14 21  1  0  0  0  0
 15 14  2  0  0  0  0
 15 19  1  0  0  0  0
 16 15  1  0  0  0  0
 17 18  1  0  0  0  0
 17 16  2  0  0  0  0
 18 13  2  0  0  0  0
 19 22  1  0  0  0  0
 19 23  1  0  0  0  0
 20 13  1  0  0  0  0
M  END
>  <minimizedAffinity>
-4.79689932

$$$$
