
     RDKit          3D

 26 28  0  0  0  0  0  0  0  0999 V2000
   37.3767   29.9994   50.7407 C   0  0  0  0  0  0  0  0  0  0  0  0
   37.6838   31.2206   50.1200 C   0  0  0  0  0  0  0  0  0  0  0  0
   37.0691   31.4344   48.9002 C   0  0  0  0  0  0  0  0  0  0  0  0
   36.2499   30.4996   48.4045 N   0  0  0  0  0  0  0  0  0  0  0  0
   35.9567   29.3422   48.9892 C   0  0  0  0  0  0  0  0  0  0  0  0
   36.5516   29.1517   50.1545 N   0  0  0  0  0  0  0  0  0  0  0  0
   37.9463   29.6350   52.0249 N   0  0  0  0  0  0  0  0  0  0  0  0
   38.3423   31.9032   50.5823 H   0  0  0  0  0  0  0  0  0  0  0  0
   37.2300   32.3202   48.3472 H   0  0  0  0  0  0  0  0  0  0  0  0
   38.8930   29.2834   52.2343 H   0  0  0  0  0  0  0  0  0  0  0  0
   37.3479   29.7275   52.8769 H   0  0  0  0  0  0  0  0  0  0  0  0
   35.0940   28.2207   48.5942 C   0  0  0  0  0  0  0  0  0  0  0  0
   34.2351   27.6170   49.4379 N   0  0  0  0  0  0  0  0  0  0  0  0
   33.4600   26.6000   49.0611 C   0  0  0  0  0  0  0  0  0  0  0  0
   33.4532   26.0794   47.8240 N   0  0  0  0  0  0  0  0  0  0  0  0
   34.2857   26.6324   46.9290 C   0  0  0  0  0  0  0  0  0  0  0  0
   34.2851   26.1036   45.6564 C   0  0  0  0  0  0  0  0  0  0  0  0
   35.1178   26.6276   44.6907 C   0  0  0  0  0  0  0  0  0  0  0  0
   35.0671   26.1681   43.7189 H   0  0  0  0  0  0  0  0  0  0  0  0
   35.9251   27.6816   45.0703 C   0  0  0  0  0  0  0  0  0  0  0  0
   36.5654   28.0578   44.2638 H   0  0  0  0  0  0  0  0  0  0  0  0
   35.8980   28.1829   46.3515 C   0  0  0  0  0  0  0  0  0  0  0  0
   35.0784   27.6790   47.3305 C   0  0  0  0  0  0  0  0  0  0  0  0
   32.8113   26.2102   49.8576 H   0  0  0  0  0  0  0  0  0  0  0  0
   33.6213   25.2639   45.4087 H   0  0  0  0  0  0  0  0  0  0  0  0
   36.5683   28.9821   46.4842 H   0  0  0  0  0  0  0  0  0  0  0  0
  1  7  1  0
  2  1  2  0
  3  2  1  0
  4  3  2  0
  4  5  1  0
  5  6  2  0
  6  1  1  0
  2  8  1  0
  3  9  1  0
  7 10  1  0
  7 11  1  0
 12 13  2  0
 13 14  1  0
 14 15  2  0
 15 16  1  0
 16 17  2  0
 17 18  1  0
 18 19  1  0
 18 20  2  0
 20 21  1  0
 20 22  1  0
 22 23  2  0
 23 12  1  0
 23 16  1  0
 14 24  1  0
 17 25  1  0
 22 26  1  0
  5 12  1  0
M  ISO  4   8  14   9  14  19  16  21  16
M  END
>  <DihAtoms>  (1) 
3,4,11,12

>  <DihDeg>  (1) 
-179.99795533896386

$$$$
