
     RDKit          3D

 27 29  0  0  0  0  0  0  0  0999 V2000
   35.5365   29.0365   50.2008 C   0  0  0  0  0  0  0  0  0  0  0  0
   36.2407   30.1219   49.6626 C   0  0  0  0  0  0  0  0  0  0  0  0
   36.0099   30.4378   48.3282 C   0  0  0  0  0  0  0  0  0  0  0  0
   35.1262   29.6867   47.6311 N   0  0  0  0  0  0  0  0  0  0  0  0
   34.4660   28.6644   48.1482 C   0  0  0  0  0  0  0  0  0  0  0  0
   34.6730   28.3471   49.4197 N   0  0  0  0  0  0  0  0  0  0  0  0
   37.1871   30.8769   50.5443 C   0  0  0  0  0  0  0  0  0  0  0  0
   38.4909   30.7691   50.0799 F   0  0  0  0  0  0  0  0  0  0  0  0
   36.8242   32.2175   50.4818 F   0  0  0  0  0  0  0  0  0  0  0  0
   37.1284   30.4511   51.8503 F   0  0  0  0  0  0  0  0  0  0  0  0
   35.7303   28.8073   51.2387 H   0  0  0  0  0  0  0  0  0  0  0  0
   36.5162   31.2462   47.8768 H   0  0  0  0  0  0  0  0  0  0  0  0
   33.4762   27.7414   47.5550 C   0  0  0  0  0  0  0  0  0  0  0  0
   32.3062   28.1133   47.0310 N   0  0  0  0  0  0  0  0  0  0  0  0
   31.4298   27.2608   46.5012 C   0  0  0  0  0  0  0  0  0  0  0  0
   31.6316   25.9355   46.4385 N   0  0  0  0  0  0  0  0  0  0  0  0
   32.7890   25.4822   46.9465 C   0  0  0  0  0  0  0  0  0  0  0  0
   32.9825   24.1303   46.8764 C   0  0  0  0  0  0  0  0  0  0  0  0
   34.1381   23.5801   47.3717 C   0  0  0  0  0  0  0  0  0  0  0  0
   34.2799   22.5167   47.3115 H   0  0  0  0  0  0  0  0  0  0  0  0
   35.0780   24.4511   47.9347 C   0  0  0  0  0  0  0  0  0  0  0  0
   35.9618   23.9641   48.3054 H   0  0  0  0  0  0  0  0  0  0  0  0
   34.8170   25.7897   47.9702 C   0  0  0  0  0  0  0  0  0  0  0  0
   33.6762   26.3881   47.4880 C   0  0  0  0  0  0  0  0  0  0  0  0
   30.5153   27.7214   46.1123 H   0  0  0  0  0  0  0  0  0  0  0  0
   32.2514   23.4693   46.4406 H   0  0  0  0  0  0  0  0  0  0  0  0
   35.6014   26.3341   48.4178 H   0  0  0  0  0  0  0  0  0  0  0  0
  2  1  2  0
  2  7  1  0
  3  2  1  0
  4  5  1  0
  4  3  2  0
  5  6  2  0
  6  1  1  0
  7 10  1  0
  8  7  1  0
  9  7  1  0
  1 11  1  0
  3 12  1  0
 13 14  2  0
 14 15  1  0
 15 16  2  0
 16 17  1  0
 17 18  2  0
 18 19  1  0
 19 20  1  0
 19 21  2  0
 21 22  1  0
 21 23  1  0
 23 24  2  0
 24 13  1  0
 24 17  1  0
 15 25  1  0
 18 26  1  0
 23 27  1  0
  5 13  1  0
M  ISO  4  11  14  12  14  20  16  22  16
M  END
>  <DihAtoms>  (1) 
3,4,12,13

>  <DihDeg>  (1) 
179.9803541692543

$$$$
