
     RDKit          3D

 36 39  0  0  0  0  0  0  0  0999 V2000
   35.4279   29.2215   48.7418 C   0  0  0  0  0  0  0  0  0  0  0  0
   35.0097   30.0092   47.6732 C   0  0  0  0  0  0  0  0  0  0  0  0
   33.8104   29.6718   47.0502 C   0  0  0  0  0  0  0  0  0  0  0  0
   33.1126   28.5854   47.5247 N   0  0  0  0  0  0  0  0  0  0  0  0
   33.5506   27.8514   48.5584 C   0  0  0  0  0  0  0  0  0  0  0  0
   34.7266   28.1686   49.1822 N   0  0  0  0  0  0  0  0  0  0  0  0
   36.6583   29.5683   49.3798 N   0  0  0  0  0  0  0  0  0  0  0  0
   37.6559   30.4799   48.8830 C   0  0  0  0  0  0  0  0  0  0  0  0
   38.2704   31.0661   50.1444 C   0  0  2  0  0  0  0  0  0  0  0  0
   37.5164   30.3914   51.3015 C   0  0  0  0  0  0  0  0  0  0  0  0
   37.1521   29.0804   50.6447 C   0  0  0  0  0  0  0  0  0  0  0  0
   35.5226   30.8512   47.2835 H   0  0  0  0  0  0  0  0  0  0  0  0
   33.4224   30.2317   46.2194 H   0  0  0  0  0  0  0  0  0  0  0  0
   33.0047   26.9964   48.9344 H   0  0  0  0  0  0  0  0  0  0  0  0
   37.2241   31.3230   48.3052 H   0  0  0  0  0  0  0  0  0  0  0  0
   38.4025   29.9931   48.2257 H   0  0  0  0  0  0  0  0  0  0  0  0
   39.3282   30.7831   50.1506 H   0  0  0  0  0  0  0  0  0  0  0  0
   36.5950   30.9914   51.4184 H   0  0  0  0  0  0  0  0  0  0  0  0
   38.1208   30.3004   52.2023 H   0  0  0  0  0  0  0  0  0  0  0  0
   38.0796   28.4715   50.5148 H   0  0  0  0  0  0  0  0  0  0  0  0
   36.3768   28.5118   51.2041 H   0  0  0  0  0  0  0  0  0  0  0  0
   38.0705   32.5386   50.2018 C   0  0  0  0  0  0  0  0  0  0  0  0
   37.1590   32.9866   51.1142 N   0  0  0  0  0  0  0  0  0  0  0  0
   36.8682   34.2814   51.2931 C   0  0  0  0  0  0  0  0  0  0  0  0
   37.4981   35.2233   50.5406 N   0  0  0  0  0  0  0  0  0  0  0  0
   38.4071   34.8437   49.6240 C   0  0  0  0  0  0  0  0  0  0  0  0
   39.0901   35.7392   48.8179 C   0  0  0  0  0  0  0  0  0  0  0  0
   40.0265   35.3271   47.8733 C   0  0  0  0  0  0  0  0  0  0  0  0
   40.5602   36.0293   47.2432 H   0  0  0  0  0  0  0  0  0  0  0  0
   40.2773   33.9608   47.7431 C   0  0  0  0  0  0  0  0  0  0  0  0
   41.0187   33.6652   46.9920 H   0  0  0  0  0  0  0  0  0  0  0  0
   39.6073   33.0529   48.5367 C   0  0  0  0  0  0  0  0  0  0  0  0
   38.6882   33.5041   49.4596 C   0  0  0  0  0  0  0  0  0  0  0  0
   36.1400   34.6108   52.0249 H   0  0  0  0  0  0  0  0  0  0  0  0
   38.8898   36.8129   48.9234 H   0  0  0  0  0  0  0  0  0  0  0  0
   39.8393   32.0079   48.3920 H   0  0  0  0  0  0  0  0  0  0  0  0
  1  6  1  0
  1  7  1  0
  2  1  2  0
  3  4  2  0
  3  2  1  0
  4  5  1  0
  5  6  2  0
  7 11  1  0
  8  7  1  0
  8  9  1  0
  9 10  1  0
 11 10  1  0
  2 12  1  0
  3 13  1  0
  5 14  1  0
  8 15  1  0
  8 16  1  0
  9 17  1  1
 10 18  1  0
 10 19  1  0
 11 20  1  0
 11 21  1  0
 22 23  2  0
 23 24  1  0
 24 25  2  0
 25 26  1  0
 26 27  2  0
 27 28  1  0
 28 29  1  0
 28 30  2  0
 30 31  1  0
 30 32  1  0
 32 33  2  0
 33 22  1  0
 33 26  1  0
 24 34  1  0
 27 35  1  0
 32 36  1  0
  9 22  1  0
M  ISO  8  12  14  13  14  14  14  15  13  16  13  17  13  18  13  19  13
M  ISO  4  20  13  21  13  29  16  31  16
M  END
>  <DihAtoms>  (1) 
7,8,21,22

>  <DihDeg>  (1) 
92.5599679416866

$$$$
