
 OpenBabel03272507013D

 45 47  0  0  1  0  0  0  0  0999 V2000
   35.0890   29.7180   49.1990 C   0  0  2  0  0  0  0  0  0  0  0  0
   35.9890   30.6140   48.4230 C   0  0  0  0  0  0  0  0  0  0  0  0
   37.4530   30.2370   48.5610 C   0  0  2  0  0  0  0  0  0  0  0  0
   37.9080   30.2080   49.9740 C   0  0  0  0  0  0  0  0  0  0  0  0
   36.8990   29.5970   50.9200 C   0  0  0  0  0  0  0  0  0  0  0  0
   35.8280   28.8410   50.1780 C   0  0  0  0  0  0  0  0  0  0  0  0
   34.3320   30.2660   49.8360 H   0  0  0  0  0  0  0  0  0  0  0  0
   35.8400   30.6800   47.3390 H   0  0  0  0  0  0  0  0  0  0  0  0
   35.8410   31.6460   48.8780 H   0  0  0  0  0  0  0  0  0  0  0  0
   37.5410   29.2010   48.1460 H   0  0  0  0  0  0  0  0  0  0  0  0
   38.8040   29.5200   50.0080 H   0  0  0  0  0  0  0  0  0  0  0  0
   38.2330   31.1320   50.4310 H   0  0  0  0  0  0  0  0  0  0  0  0
   37.3560   28.9510   51.6680 H   0  0  0  0  0  0  0  0  0  0  0  0
   36.3760   30.4060   51.4830 H   0  0  0  0  0  0  0  0  0  0  0  0
   35.1140   28.4340   50.9000 H   0  0  0  0  0  0  0  0  0  0  0  0
   36.3160   27.9960   49.6420 H   0  0  0  0  0  0  0  0  0  0  0  0
   38.2930   31.0900   47.8000 N   0  0  1  0  0  0  0  0  0  0  0  0
   38.8600   30.4370   46.6310 C   0  0  0  0  0  0  0  0  0  0  0  0
   39.7620   31.5580   46.1130 C   0  0  0  0  0  0  0  0  0  0  0  0
   38.8200   32.7530   46.2790 C   0  0  0  0  0  0  0  0  0  0  0  0
   37.8120   32.3210   47.3630 C   0  0  2  0  0  0  0  0  0  0  0  0
   39.4710   29.5490   46.9280 H   0  0  0  0  0  0  0  0  0  0  0  0
   38.0950   30.2110   45.8730 H   0  0  0  0  0  0  0  0  0  0  0  0
   40.6150   31.6320   46.8170 H   0  0  0  0  0  0  0  0  0  0  0  0
   40.0550   31.3980   45.0720 H   0  0  0  0  0  0  0  0  0  0  0  0
   38.3280   32.9410   45.3060 H   0  0  0  0  0  0  0  0  0  0  0  0
   39.4580   33.5800   46.5950 H   0  0  0  0  0  0  0  0  0  0  0  0
   36.8430   32.2430   46.8630 H   0  0  0  0  0  0  0  0  0  0  0  0
   40.3020   33.0580   48.6170 N   0  0  0  0  0  0  0  0  0  0  0  0
   39.1200   33.5390   48.8940 C   0  0  0  0  0  0  0  0  0  0  0  0
   37.8130   33.4250   48.2950 N   0  0  0  0  0  0  0  0  0  0  0  0
   39.5990   34.2460   50.0320 N   0  0  0  0  0  0  0  0  0  0  0  0
   39.8130   35.2770   49.8760 H   0  0  0  0  0  0  0  0  0  0  0  0
   40.5250   32.4420   47.8280 H   0  0  0  0  0  0  0  0  0  0  0  0
   37.3380   34.2140   48.7840 H   0  0  0  0  0  0  0  0  0  0  0  0
   39.7780   33.8960   51.0200 H   0  0  0  0  0  0  0  0  0  0  0  0
   34.2830   28.8250   48.3340 C   0  0  0  0  0  0  0  0  0  0  0  0
   33.7130   29.4630   47.2290 C   0  0  0  0  0  0  0  0  0  0  0  0
   32.9460   28.6510   46.3660 C   0  0  0  0  0  0  0  0  0  0  0  0
   32.8010   27.3080   46.6470 N   0  0  0  0  0  0  0  0  0  0  0  0
   33.3800   26.7430   47.7400 C   0  0  0  0  0  0  0  0  0  0  0  0
   34.0990   27.5020   48.5480 N   0  0  0  0  0  0  0  0  0  0  0  0
   33.6460   30.4350   46.7880 H   0  0  0  0  0  0  0  0  0  0  0  0
   32.4130   28.8980   45.4610 H   0  0  0  0  0  0  0  0  0  0  0  0
   33.2460   25.6880   47.9310 H   0  0  0  0  0  0  0  0  0  0  0  0
  1  7  1  1  0  0  0
  1  6  1  0  0  0  0
  2  3  1  0  0  0  0
  2  9  1  0  0  0  0
  2  1  1  0  0  0  0
  3 10  1  6  0  0  0
  3  4  1  0  0  0  0
  4 11  1  0  0  0  0
  4 12  1  0  0  0  0
  4  5  1  0  0  0  0
  5 14  1  0  0  0  0
  5 13  1  0  0  0  0
  6 15  1  0  0  0  0
  6  5  1  0  0  0  0
  8  2  1  0  0  0  0
 16  6  1  0  0  0  0
 17 18  1  6  0  0  0
 17  3  1  0  0  0  0
 18 22  1  0  0  0  0
 19 20  1  0  0  0  0
 19 18  1  0  0  0  0
 19 24  1  0  0  0  0
 20 27  1  0  0  0  0
 20 21  1  0  0  0  0
 21 28  1  6  0  0  0
 21 17  1  0  0  0  0
 21 31  1  0  0  0  0
 23 18  1  0  0  0  0
 25 19  1  0  0  0  0
 26 20  1  0  0  0  0
 29 30  2  0  0  0  0
 30 32  1  0  0  0  0
 31 35  1  0  0  0  0
 31 30  1  0  0  0  0
 32 36  1  0  0  0  0
 33 32  1  0  0  0  0
 34 29  1  0  0  0  0
 37 42  1  0  0  0  0
 37  1  1  0  0  0  0
 38 37  2  0  0  0  0
 39 40  2  0  0  0  0
 39 38  1  0  0  0  0
 40 41  1  0  0  0  0
 41 45  1  0  0  0  0
 41 42  2  0  0  0  0
 43 38  1  0  0  0  0
 44 39  1  0  0  0  0
M  END
>  <minimizedAffinity>
-3.89778256

>  <minimizedRMSD>
1.24618161

$$$$
