REMARK  Name = 
REMARK  6 active torsions:
REMARK  status: ('A' for Active; 'I' for Inactive)
REMARK    1  A    between atoms: C_1  and  O_6
REMARK    2  A    between atoms: C_2  and  S_7
REMARK    3  A    between atoms: C_5  and  O_14
REMARK    4  A    between atoms: S_7  and  C_12
REMARK    5  A    between atoms: O_14  and  C_17
REMARK    6  A    between atoms: C_21  and  N_36
REMARK                            x       y       z     vdW  Elec       q    Type
REMARK                         _______ _______ _______ _____ _____    ______ ____
ROOT
ATOM      1  C   UNL     1      32.169  28.527  47.422  0.00  0.00    +0.000 C 
ATOM      2  C   UNL     1      33.408  28.364  48.254  0.00  0.00    +0.000 C 
ATOM      3  O   UNL     1      33.809  27.065  48.162  0.00  0.00    +0.000 OA
ATOM      4  C   UNL     1      33.110  26.438  47.136  0.00  0.00    +0.000 C 
ATOM      5  C   UNL     1      32.505  27.521  46.281  0.00  0.00    +0.000 C 
ATOM      6  H   UNL     1      31.232  28.258  47.896  0.00  0.00    +0.000 HD
ATOM      7  H   UNL     1      33.277  28.724  49.300  0.00  0.00    +0.000 HD
ATOM      8  H   UNL     1      33.906  25.914  46.530  0.00  0.00    +0.000 HD
ATOM      9  H   UNL     1      32.425  25.746  47.600  0.00  0.00    +0.000 HD
ATOM     10  H   UNL     1      33.242  28.018  45.660  0.00  0.00    +0.000 HD
ENDROOT
BRANCH   1  11
ATOM     11  O   UNL     1      32.096  29.828  46.887  0.00  0.00    +0.000 OA
ATOM     12  H   UNL     1      32.891  29.955  46.333  0.00  0.00    +0.000 HD
ENDBRANCH   1  11
BRANCH   2  13
ATOM     13  S   UNL     1      34.716  29.410  47.501  0.00  0.00    +0.000 S 
BRANCH  13  18
ATOM     14  C   UNL     1      37.139  29.297  50.631  0.00  0.00    +0.000 A 
ATOM     15  C   UNL     1      37.636  30.583  50.757  0.00  0.00    +0.000 A 
ATOM     16  C   UNL     1      37.202  31.541  49.826  0.00  0.00    +0.000 A 
ATOM     17  N   UNL     1      36.330  31.156  48.867  0.00  0.00    +0.000 NA
ATOM     18  C   UNL     1      35.870  29.894  48.779  0.00  0.00    +0.000 A 
ATOM     19  N   UNL     1      36.266  28.938  49.661  0.00  0.00    +0.000 NA
ATOM     20  H   UNL     1      37.400  28.465  51.294  0.00  0.00    +0.000 HD
ATOM     21  H   UNL     1      38.325  30.765  51.560  0.00  0.00    +0.000 HD
ATOM     22  H   UNL     1      37.586  32.547  49.922  0.00  0.00    +0.000 HD
ENDBRANCH  13  18
ENDBRANCH   2  13
BRANCH   5  23
ATOM     23  O   UNL     1      31.365  27.044  45.686  0.00  0.00    +0.000 OA
BRANCH  23  26
ATOM     24 CL   UNL     1      29.886  29.113  44.210  0.00  0.00    +0.000 Cl
ATOM     25  C   UNL     1      29.336  28.120  45.540  0.00  0.00    +0.000 A 
ATOM     26  C   UNL     1      30.124  27.172  46.153  0.00  0.00    +0.000 A 
ATOM     27  C   UNL     1      29.564  26.430  47.195  0.00  0.00    +0.000 A 
ATOM     28  C   UNL     1      28.266  26.644  47.592  0.00  0.00    +0.000 A 
ATOM     29  C   UNL     1      27.468  27.589  46.988  0.00  0.00    +0.000 A 
ATOM     30  C   UNL     1      28.007  28.334  45.953  0.00  0.00    +0.000 A 
ATOM     31  H   UNL     1      30.111  25.667  47.722  0.00  0.00    +0.000 HD
ATOM     32  H   UNL     1      27.848  26.067  48.397  0.00  0.00    +0.000 HD
ATOM     33  H   UNL     1      26.467  27.710  47.335  0.00  0.00    +0.000 HD
BRANCH  30  36
ATOM     34  N   UNL     1      27.844  28.936  43.100  0.00  0.00    +0.000 NA
ATOM     35  C   UNL     1      27.568  29.836  44.012  0.00  0.00    +0.000 C 
ATOM     36  N   UNL     1      27.216  29.318  45.266  0.00  0.00    +0.000 N 
ATOM     37  N   UNL     1      27.601  31.249  43.748  0.00  0.00    +0.000 N 
ATOM     38  H   UNL     1      27.172  32.152  43.520  0.00  0.00    +0.000 HD
ATOM     39  H   UNL     1      28.121  29.156  42.131  0.00  0.00    +0.000 HD
ATOM     40  H   UNL     1      26.332  29.703  45.688  0.00  0.00    +0.000 HD
ATOM     41  H   UNL     1      28.495  31.818  43.755  0.00  0.00    +0.000 HD
ENDBRANCH  30  36
ENDBRANCH  23  26
ENDBRANCH   5  23
TORSDOF 6
