
 OpenBabel03272506463D

 41 43  0  0  1  0  0  0  0  0999 V2000
   32.2480   28.3240   47.4500 C   0  0  2  0  0  0  0  0  0  0  0  0
   33.4480   28.3270   48.3530 C   0  0  1  0  0  0  0  0  0  0  0  0
   33.9760   27.0700   48.3550 O   0  0  0  0  0  0  0  0  0  0  0  0
   33.4000   26.3260   47.3300 C   0  0  0  0  0  0  0  0  0  0  0  0
   32.7440   27.3000   46.3860 C   0  0  1  0  0  0  0  0  0  0  0  0
   31.3160   27.9890   47.8890 H   0  0  0  0  0  0  0  0  0  0  0  0
   33.2230   28.7240   49.3690 H   0  0  0  0  0  0  0  0  0  0  0  0
   34.2760   25.8530   46.7970 H   0  0  0  0  0  0  0  0  0  0  0  0
   32.7590   25.5950   47.7960 H   0  0  0  0  0  0  0  0  0  0  0  0
   33.4640   27.8350   45.7770 H   0  0  0  0  0  0  0  0  0  0  0  0
   32.0820   29.5830   46.8400 O   0  0  0  0  0  0  0  0  0  0  0  0
   32.8920   29.7590   46.3210 H   0  0  0  0  0  0  0  0  0  0  0  0
   34.6900   29.4570   47.6120 S   0  0  0  0  0  0  0  0  0  0  0  0
   37.2710   29.2710   50.6090 C   0  0  0  0  0  0  0  0  0  0  0  0
   37.6780   30.5770   50.8240 C   0  0  0  0  0  0  0  0  0  0  0  0
   37.1280   31.5730   50.0010 C   0  0  0  0  0  0  0  0  0  0  0  0
   36.2390   31.2030   49.0510 N   0  0  0  0  0  0  0  0  0  0  0  0
   35.8690   29.9210   48.8740 C   0  0  0  0  0  0  0  0  0  0  0  0
   36.3790   28.9280   49.6510 N   0  0  0  0  0  0  0  0  0  0  0  0
   37.6260   28.4100   51.1850 H   0  0  0  0  0  0  0  0  0  0  0  0
   38.3920   30.7440   51.6090 H   0  0  0  0  0  0  0  0  0  0  0  0
   37.4420   32.5940   50.1670 H   0  0  0  0  0  0  0  0  0  0  0  0
   31.6910   26.6830   45.7600 O   0  0  0  0  0  0  0  0  0  0  0  0
   30.6770   28.5260   43.7050 Cl  0  0  0  0  0  0  0  0  0  0  0  0
   29.8160   27.8110   45.0480 C   0  0  0  0  0  0  0  0  0  0  0  0
   30.4000   26.9510   45.9500 C   0  0  0  0  0  0  0  0  0  0  0  0
   29.6010   26.4320   46.9710 C   0  0  0  0  0  0  0  0  0  0  0  0
   28.2740   26.7750   47.0690 C   0  0  0  0  0  0  0  0  0  0  0  0
   27.6780   27.6350   46.1740 C   0  0  0  0  0  0  0  0  0  0  0  0
   28.4550   28.1580   45.1550 C   0  0  0  0  0  0  0  0  0  0  0  0
   29.9790   25.7500   47.7130 H   0  0  0  0  0  0  0  0  0  0  0  0
   27.6710   26.3700   47.8610 H   0  0  0  0  0  0  0  0  0  0  0  0
   26.6430   27.8630   46.2960 H   0  0  0  0  0  0  0  0  0  0  0  0
   28.4130   31.0770   45.0760 N   0  0  0  0  0  0  0  0  0  0  0  0
   27.5000   30.3580   44.4710 C   0  0  0  0  0  0  0  0  0  0  0  0
   27.8840   29.0410   44.1750 N   0  0  0  0  0  0  0  0  0  0  0  0
   26.2080   30.8770   44.1140 N   0  0  0  0  0  0  0  0  0  0  0  0
   25.5280   31.2820   43.4630 H   0  0  0  0  0  0  0  0  0  0  0  0
   28.2830   32.0590   45.3630 H   0  0  0  0  0  0  0  0  0  0  0  0
   27.7200   28.7290   43.1840 H   0  0  0  0  0  0  0  0  0  0  0  0
   25.4020   30.9440   44.8000 H   0  0  0  0  0  0  0  0  0  0  0  0
  1  6  1  1  0  0  0
  1  2  1  0  0  0  0
  2  3  1  0  0  0  0
  2  7  1  1  0  0  0
  4  9  1  0  0  0  0
  4  3  1  0  0  0  0
  5 10  1  6  0  0  0
  5  4  1  0  0  0  0
  5  1  1  0  0  0  0
  8  4  1  0  0  0  0
 11  1  1  0  0  0  0
 12 11  1  0  0  0  0
 13  2  1  0  0  0  0
 13 18  1  0  0  0  0
 14 15  1  0  0  0  0
 14 20  1  0  0  0  0
 15 21  1  0  0  0  0
 16 22  1  0  0  0  0
 16 15  2  0  0  0  0
 17 16  1  0  0  0  0
 18 17  2  0  0  0  0
 18 19  1  0  0  0  0
 19 14  2  0  0  0  0
 23 26  1  0  0  0  0
 23  5  1  0  0  0  0
 24 25  1  0  0  0  0
 25 30  2  0  0  0  0
 25 26  1  0  0  0  0
 26 27  2  0  0  0  0
 27 28  1  0  0  0  0
 27 31  1  0  0  0  0
 28 32  1  0  0  0  0
 29 33  1  0  0  0  0
 29 28  2  0  0  0  0
 30 29  1  0  0  0  0
 34 39  1  0  0  0  0
 35 34  2  0  0  0  0
 36 35  1  0  0  0  0
 36 30  1  0  0  0  0
 37 35  1  0  0  0  0
 37 41  1  0  0  0  0
 38 37  1  0  0  0  0
 40 36  1  0  0  0  0
M  END
>  <minimizedAffinity>
-4.73286963

>  <minimizedRMSD>
0.736673474

$$$$
