
     RDKit          3D

 41 43  0  0  0  0  0  0  0  0999 V2000
   32.1690   28.5275   47.4221 C   0  0  2  0  0  0  0  0  0  0  0  0
   33.4077   28.3643   48.2535 C   0  0  1  0  0  0  0  0  0  0  0  0
   33.8093   27.0648   48.1620 O   0  0  0  0  0  0  0  0  0  0  0  0
   33.1101   26.4380   47.1359 C   0  0  0  0  0  0  0  0  0  0  0  0
   32.5046   27.5215   46.2810 C   0  0  1  0  0  0  0  0  0  0  0  0
   32.0955   29.8277   46.8868 O   0  0  0  0  0  0  0  0  0  0  0  0
   34.7160   29.4095   47.5011 S   0  0  0  0  0  0  0  0  0  0  0  0
   37.1385   29.2971   50.6313 C   0  0  0  0  0  0  0  0  0  0  0  0
   37.6357   30.5829   50.7573 C   0  0  0  0  0  0  0  0  0  0  0  0
   37.2021   31.5414   49.8263 C   0  0  0  0  0  0  0  0  0  0  0  0
   36.3300   31.1557   48.8667 N   0  0  0  0  0  0  0  0  0  0  0  0
   35.8702   29.8938   48.7787 C   0  0  0  0  0  0  0  0  0  0  0  0
   36.2664   28.9384   49.6610 N   0  0  0  0  0  0  0  0  0  0  0  0
   31.3649   27.0439   45.6862 O   0  0  0  0  0  0  0  0  0  0  0  0
   29.8857   29.1126   44.2097 Cl  0  0  0  0  0  0  0  0  0  0  0  0
   29.3362   28.1202   45.5402 C   0  0  0  0  0  0  0  0  0  0  0  0
   30.1243   27.1715   46.1528 C   0  0  0  0  0  0  0  0  0  0  0  0
   29.5638   26.4298   47.1950 C   0  0  0  0  0  0  0  0  0  0  0  0
   28.2663   26.6444   47.5924 C   0  0  0  0  0  0  0  0  0  0  0  0
   27.4684   27.5892   46.9879 C   0  0  0  0  0  0  0  0  0  0  0  0
   28.0072   28.3335   45.9530 C   0  0  0  0  0  0  0  0  0  0  0  0
   31.2324   28.2583   47.8956 H   0  0  0  0  0  0  0  0  0  0  0  0
   33.2766   28.7236   49.2995 H   0  0  0  0  0  0  0  0  0  0  0  0
   33.9064   25.9136   46.5304 H   0  0  0  0  0  0  0  0  0  0  0  0
   32.4247   25.7463   47.6005 H   0  0  0  0  0  0  0  0  0  0  0  0
   33.2415   28.0178   45.6602 H   0  0  0  0  0  0  0  0  0  0  0  0
   32.8911   29.9547   46.3334 H   0  0  0  0  0  0  0  0  0  0  0  0
   37.4000   28.4651   51.2935 H   0  0  0  0  0  0  0  0  0  0  0  0
   38.3248   30.7649   51.5602 H   0  0  0  0  0  0  0  0  0  0  0  0
   37.5862   32.5466   49.9215 H   0  0  0  0  0  0  0  0  0  0  0  0
   30.1106   25.6667   47.7218 H   0  0  0  0  0  0  0  0  0  0  0  0
   27.8476   26.0665   48.3969 H   0  0  0  0  0  0  0  0  0  0  0  0
   26.4671   27.7104   47.3347 H   0  0  0  0  0  0  0  0  0  0  0  0
   25.1059   28.6558   45.8535 N   0  0  0  0  0  0  0  0  0  0  0  0
   25.8825   29.0964   44.8934 C   0  0  0  0  0  0  0  0  0  0  0  0
   27.2158   29.3183   45.2663 N   0  0  0  0  0  0  0  0  0  0  0  0
   25.4056   29.3558   43.5622 N   0  0  0  0  0  0  0  0  0  0  0  0
   25.0633   29.9624   42.8096 H   0  0  0  0  0  0  0  0  0  0  0  0
   24.1034   28.4424   45.7384 H   0  0  0  0  0  0  0  0  0  0  0  0
   27.6143   30.2555   45.0031 H   0  0  0  0  0  0  0  0  0  0  0  0
   25.2855   28.5955   42.8326 H   0  0  0  0  0  0  0  0  0  0  0  0
  1  2  1  0
  3  2  1  0
  4  3  1  0
  5  4  1  0
  5  1  1  0
  6  1  1  0
  7  2  1  0
  7 12  1  0
  8  9  2  0
 10  9  1  0
 11 10  2  0
 12 11  1  0
 12 13  2  0
 13  8  1  0
 14 17  1  0
 14  5  1  0
 15 16  1  0
 16 21  2  0
 16 17  1  0
 17 18  2  0
 18 19  1  0
 20 19  2  0
 21 20  1  0
  1 22  1  1
  2 23  1  1
  4 24  1  0
  4 25  1  0
  5 26  1  6
  6 27  1  0
  8 28  1  0
  9 29  1  0
 10 30  1  0
 18 31  1  0
 19 32  1  0
 20 33  1  0
 34 35  2  3
 35 36  1  0
 35 37  1  0
 37 38  1  0
 34 39  1  0
 36 40  1  0
 37 41  1  0
 21 36  1  0
M  ISO  8  22  13  23  13  24  13  25  13  26  13  27   3  28  14  29  14
M  ISO  5  30  14  31  14  32  14  33  14  38   5
M  END
>  <DihAtoms>  (1) 
15,20,35,34

>  <DihDeg>  (1) 
-178.49035900744812

$$$$
