
 OpenBabel03272506463D

 41 43  0  0  1  0  0  0  0  0999 V2000
   32.1490   28.5340   47.4370 C   0  0  2  0  0  0  0  0  0  0  0  0
   33.4010   28.3430   48.2440 C   0  0  1  0  0  0  0  0  0  0  0  0
   33.7780   27.0390   48.1330 O   0  0  0  0  0  0  0  0  0  0  0  0
   33.0490   26.4330   47.1150 C   0  0  0  0  0  0  0  0  0  0  0  0
   32.4460   27.5330   46.2810 C   0  0  1  0  0  0  0  0  0  0  0  0
   31.2170   28.2770   47.9270 H   0  0  0  0  0  0  0  0  0  0  0  0
   33.2960   28.6960   49.2950 H   0  0  0  0  0  0  0  0  0  0  0  0
   33.8240   25.9010   46.4890 H   0  0  0  0  0  0  0  0  0  0  0  0
   32.3620   25.7480   47.5860 H   0  0  0  0  0  0  0  0  0  0  0  0
   33.1790   28.0230   45.6500 H   0  0  0  0  0  0  0  0  0  0  0  0
   32.0880   29.8410   46.9150 O   0  0  0  0  0  0  0  0  0  0  0  0
   32.8740   29.9600   46.3470 H   0  0  0  0  0  0  0  0  0  0  0  0
   34.7120   29.3740   47.4740 S   0  0  0  0  0  0  0  0  0  0  0  0
   37.1240   29.3110   50.6140 C   0  0  0  0  0  0  0  0  0  0  0  0
   37.6310   30.5950   50.7130 C   0  0  0  0  0  0  0  0  0  0  0  0
   37.2080   31.5360   49.7590 C   0  0  0  0  0  0  0  0  0  0  0  0
   36.3360   31.1370   48.8060 N   0  0  0  0  0  0  0  0  0  0  0  0
   35.8660   29.8770   48.7450 C   0  0  0  0  0  0  0  0  0  0  0  0
   36.2510   28.9380   49.6500 N   0  0  0  0  0  0  0  0  0  0  0  0
   37.3760   28.4920   51.2970 H   0  0  0  0  0  0  0  0  0  0  0  0
   38.3190   30.7900   51.5140 H   0  0  0  0  0  0  0  0  0  0  0  0
   37.6010   32.5400   49.8340 H   0  0  0  0  0  0  0  0  0  0  0  0
   31.2870   27.0800   45.7040 O   0  0  0  0  0  0  0  0  0  0  0  0
   29.7110   29.1470   44.3290 Cl  0  0  0  0  0  0  0  0  0  0  0  0
   29.2340   28.1190   45.6600 C   0  0  0  0  0  0  0  0  0  0  0  0
   30.0640   27.1750   46.2230 C   0  0  0  0  0  0  0  0  0  0  0  0
   29.5600   26.4040   47.2720 C   0  0  0  0  0  0  0  0  0  0  0  0
   28.2760   26.5850   47.7250 C   0  0  0  0  0  0  0  0  0  0  0  0
   27.4360   27.5250   47.1720 C   0  0  0  0  0  0  0  0  0  0  0  0
   27.9190   28.2990   46.1300 C   0  0  0  0  0  0  0  0  0  0  0  0
   30.1430   25.6420   47.7620 H   0  0  0  0  0  0  0  0  0  0  0  0
   27.9020   25.9850   48.5350 H   0  0  0  0  0  0  0  0  0  0  0  0
   26.4480   27.6190   47.5610 H   0  0  0  0  0  0  0  0  0  0  0  0
   25.5030   27.9340   44.5300 N   0  0  0  0  0  0  0  0  0  0  0  0
   26.2730   28.9850   44.3880 C   0  0  0  0  0  0  0  0  0  0  0  0
   27.0820   29.2800   45.4940 N   0  0  0  0  0  0  0  0  0  0  0  0
   26.2740   29.7950   43.2000 N   0  0  0  0  0  0  0  0  0  0  0  0
   25.9980   30.6080   42.6410 H   0  0  0  0  0  0  0  0  0  0  0  0
   24.8530   27.5860   43.8080 H   0  0  0  0  0  0  0  0  0  0  0  0
   27.0490   30.2750   45.8330 H   0  0  0  0  0  0  0  0  0  0  0  0
   26.8180   29.5380   42.3270 H   0  0  0  0  0  0  0  0  0  0  0  0
  1  6  1  1  0  0  0
  1  2  1  0  0  0  0
  2  7  1  1  0  0  0
  3  2  1  0  0  0  0
  4  9  1  0  0  0  0
  4  3  1  0  0  0  0
  5 10  1  6  0  0  0
  5  4  1  0  0  0  0
  5  1  1  0  0  0  0
  8  4  1  0  0  0  0
 11  1  1  0  0  0  0
 12 11  1  0  0  0  0
 13  2  1  0  0  0  0
 13 18  1  0  0  0  0
 14 15  1  0  0  0  0
 14 20  1  0  0  0  0
 15 21  1  0  0  0  0
 16 22  1  0  0  0  0
 16 15  2  0  0  0  0
 17 16  1  0  0  0  0
 18 17  2  0  0  0  0
 18 19  1  0  0  0  0
 19 14  2  0  0  0  0
 23 26  1  0  0  0  0
 23  5  1  0  0  0  0
 24 25  1  0  0  0  0
 25 30  2  0  0  0  0
 25 26  1  0  0  0  0
 26 27  2  0  0  0  0
 27 28  1  0  0  0  0
 27 31  1  0  0  0  0
 28 32  1  0  0  0  0
 29 33  1  0  0  0  0
 29 28  2  0  0  0  0
 30 29  1  0  0  0  0
 35 34  2  0  0  0  0
 35 36  1  0  0  0  0
 36 40  1  0  0  0  0
 36 30  1  0  0  0  0
 37 35  1  0  0  0  0
 38 37  1  0  0  0  0
 39 34  1  0  0  0  0
 41 37  1  0  0  0  0
M  END
>  <minimizedAffinity>
-4.95768404

>  <minimizedRMSD>
0.410809278

$$$$
