REMARK  Name = 
REMARK  2 active torsions:
REMARK  status: ('A' for Active; 'I' for Inactive)
REMARK    1  A    between atoms: C_3  and  C_16
REMARK    2  A    between atoms: C_5  and  C_8
REMARK                            x       y       z     vdW  Elec       q    Type
REMARK                         _______ _______ _______ _____ _____    ______ ____
ROOT
ATOM      1  C   UNL     1      38.116  32.672  49.385  0.00  0.00    +0.000 A 
ATOM      2  C   UNL     1      38.840  32.799  48.195  0.00  0.00    +0.000 A 
ATOM      3  C   UNL     1      38.444  31.982  47.117  0.00  0.00    +0.000 A 
ATOM      4  N   UNL     1      37.406  31.137  47.290  0.00  0.00    +0.000 NA
ATOM      5  C   UNL     1      36.736  31.047  48.454  0.00  0.00    +0.000 A 
ATOM      6  N   UNL     1      37.085  31.807  49.497  0.00  0.00    +0.000 NA
ATOM      7  H   UNL     1      38.438  33.302  50.184  0.00  0.00    +0.000 HD
ATOM      8  H   UNL     1      39.654  33.452  48.039  0.00  0.00    +0.000 HD
ENDROOT
BRANCH   3   9
ATOM      9  C   UNL     1      39.086  31.989  45.818  0.00  0.00    +0.000 A 
ATOM     10  C   UNL     1      38.703  32.793  44.773  0.00  0.00    +0.000 A 
ATOM     11  C   UNL     1      39.300  32.815  43.532  0.00  0.00    +0.000 A 
ATOM     12  N   UNL     1      40.335  31.982  43.339  0.00  0.00    +0.000 NA
ATOM     13  C   UNL     1      40.736  31.181  44.338  0.00  0.00    +0.000 A 
ATOM     14  N   UNL     1      40.138  31.190  45.513  0.00  0.00    +0.000 NA
ATOM     15  H   UNL     1      37.865  33.477  44.910  0.00  0.00    +0.000 HD
ATOM     16  H   UNL     1      39.000  33.444  42.717  0.00  0.00    +0.000 HD
ATOM     17  N   UNL     1      42.376  30.131  46.402  0.00  0.00    +0.000 NA
ATOM     18  C   UNL     1      42.508  29.685  45.199  0.00  0.00    +0.000 C 
ATOM     19  N   UNL     1      41.842  30.312  44.084  0.00  0.00    +0.000 N 
ATOM     20  N   UNL     1      43.351  28.545  45.079  0.00  0.00    +0.000 N 
ATOM     21  H   UNL     1      43.619  27.607  44.706  0.00  0.00    +0.000 HD
ATOM     22  H   UNL     1      42.807  29.754  47.250  0.00  0.00    +0.000 HD
ATOM     23  H   UNL     1      42.204  30.097  43.151  0.00  0.00    +0.000 HD
ATOM     24  H   UNL     1      44.255  28.482  45.626  0.00  0.00    +0.000 HD
ENDBRANCH   3   9
BRANCH   5  26
ATOM     25  C   UNL     1      35.650  29.131  49.544  0.00  0.00    +0.000 A 
ATOM     26  C   UNL     1      35.622  30.099  48.544  0.00  0.00    +0.000 A 
ATOM     27  C   UNL     1      34.572  30.155  47.668  0.00  0.00    +0.000 A 
ATOM     28  C   UNL     1      33.533  29.262  47.762  0.00  0.00    +0.000 A 
ATOM     29  N   UNL     1      32.402  29.107  47.036  0.00  0.00    +0.000 N 
ATOM     30  C   UNL     1      31.780  28.049  47.621  0.00  0.00    +0.000 A 
ATOM     31  N   UNL     1      32.493  27.568  48.663  0.00  0.00    +0.000 NA
ATOM     32  C   UNL     1      33.606  28.317  48.774  0.00  0.00    +0.000 A 
ATOM     33  C   UNL     1      34.622  28.221  49.663  0.00  0.00    +0.000 A 
ATOM     34  H   UNL     1      36.507  29.124  50.219  0.00  0.00    +0.000 HD
ATOM     35  H   UNL     1      34.548  30.910  46.886  0.00  0.00    +0.000 HD
ATOM     36  H   UNL     1      32.069  29.649  46.228  0.00  0.00    +0.000 HD
ATOM     37  H   UNL     1      30.825  27.649  47.281  0.00  0.00    +0.000 HD
ATOM     38  H   UNL     1      34.688  27.493  50.450  0.00  0.00    +0.000 HD
ENDBRANCH   5  26
TORSDOF 2
