
 OpenBabel03272506463D

 41 43  0  0  1  0  0  0  0  0999 V2000
   32.1670   28.5290   47.4240 C   0  0  2  0  0  0  0  0  0  0  0  0
   33.4170   28.3590   48.2380 C   0  0  1  0  0  0  0  0  0  0  0  0
   33.8130   27.0590   48.1350 O   0  0  0  0  0  0  0  0  0  0  0  0
   33.0980   26.4380   47.1170 C   0  0  0  0  0  0  0  0  0  0  0  0
   32.4840   27.5260   46.2740 C   0  0  1  0  0  0  0  0  0  0  0  0
   31.2360   28.2600   47.9100 H   0  0  0  0  0  0  0  0  0  0  0  0
   33.3010   28.7150   49.2870 H   0  0  0  0  0  0  0  0  0  0  0  0
   33.8840   25.9140   46.4980 H   0  0  0  0  0  0  0  0  0  0  0  0
   32.4170   25.7460   47.5870 H   0  0  0  0  0  0  0  0  0  0  0  0
   33.2140   28.0240   45.6450 H   0  0  0  0  0  0  0  0  0  0  0  0
   32.0900   29.8320   46.8950 O   0  0  0  0  0  0  0  0  0  0  0  0
   32.8780   29.9590   46.3300 H   0  0  0  0  0  0  0  0  0  0  0  0
   34.7170   29.4040   47.4710 S   0  0  0  0  0  0  0  0  0  0  0  0
   37.1810   29.2770   50.5690 C   0  0  0  0  0  0  0  0  0  0  0  0
   37.6820   30.5610   50.6920 C   0  0  0  0  0  0  0  0  0  0  0  0
   37.2380   31.5230   49.7690 C   0  0  0  0  0  0  0  0  0  0  0  0
   36.3530   31.1430   48.8210 N   0  0  0  0  0  0  0  0  0  0  0  0
   35.8890   29.8820   48.7350 C   0  0  0  0  0  0  0  0  0  0  0  0
   36.2940   28.9220   49.6090 N   0  0  0  0  0  0  0  0  0  0  0  0
   37.4480   28.4420   51.2260 H   0  0  0  0  0  0  0  0  0  0  0  0
   38.3820   30.7390   51.4860 H   0  0  0  0  0  0  0  0  0  0  0  0
   37.6260   32.5280   49.8630 H   0  0  0  0  0  0  0  0  0  0  0  0
   31.3340   27.0550   45.6930 O   0  0  0  0  0  0  0  0  0  0  0  0
   29.8350   29.1440   44.2670 Cl  0  0  0  0  0  0  0  0  0  0  0  0
   29.3050   28.1350   45.5930 C   0  0  0  0  0  0  0  0  0  0  0  0
   30.1010   27.1780   46.1820 C   0  0  0  0  0  0  0  0  0  0  0  0
   29.5570   26.4240   47.2230 C   0  0  0  0  0  0  0  0  0  0  0  0
   28.2650   26.6340   47.6430 C   0  0  0  0  0  0  0  0  0  0  0  0
   27.4590   27.5880   47.0640 C   0  0  0  0  0  0  0  0  0  0  0  0
   27.9830   28.3450   46.0300 C   0  0  0  0  0  0  0  0  0  0  0  0
   30.1110   25.6530   47.7310 H   0  0  0  0  0  0  0  0  0  0  0  0
   27.8590   26.0480   48.4470 H   0  0  0  0  0  0  0  0  0  0  0  0
   26.4640   27.7060   47.4280 H   0  0  0  0  0  0  0  0  0  0  0  0
   25.5440   28.0290   44.4540 N   0  0  0  0  0  0  0  0  0  0  0  0
   26.3540   29.0450   44.2750 C   0  0  0  0  0  0  0  0  0  0  0  0
   27.1830   29.3390   45.3680 N   0  0  0  0  0  0  0  0  0  0  0  0
   26.3830   29.8160   43.0630 N   0  0  0  0  0  0  0  0  0  0  0  0
   26.1370   30.6220   42.4800 H   0  0  0  0  0  0  0  0  0  0  0  0
   24.8770   27.6870   43.7460 H   0  0  0  0  0  0  0  0  0  0  0  0
   27.1930   30.3450   45.6750 H   0  0  0  0  0  0  0  0  0  0  0  0
   26.9100   29.5100   42.1950 H   0  0  0  0  0  0  0  0  0  0  0  0
  1  6  1  1  0  0  0
  1  2  1  0  0  0  0
  2  7  1  1  0  0  0
  3  2  1  0  0  0  0
  4  9  1  0  0  0  0
  4  3  1  0  0  0  0
  5 10  1  6  0  0  0
  5  4  1  0  0  0  0
  5  1  1  0  0  0  0
  8  4  1  0  0  0  0
 11  1  1  0  0  0  0
 12 11  1  0  0  0  0
 13  2  1  0  0  0  0
 13 18  1  0  0  0  0
 14 15  1  0  0  0  0
 14 20  1  0  0  0  0
 15 21  1  0  0  0  0
 16 22  1  0  0  0  0
 16 15  2  0  0  0  0
 17 16  1  0  0  0  0
 18 17  2  0  0  0  0
 18 19  1  0  0  0  0
 19 14  2  0  0  0  0
 23 26  1  0  0  0  0
 23  5  1  0  0  0  0
 24 25  1  0  0  0  0
 25 30  2  0  0  0  0
 25 26  1  0  0  0  0
 26 27  2  0  0  0  0
 27 28  1  0  0  0  0
 27 31  1  0  0  0  0
 28 32  1  0  0  0  0
 29 33  1  0  0  0  0
 29 28  2  0  0  0  0
 30 29  1  0  0  0  0
 35 34  2  0  0  0  0
 35 36  1  0  0  0  0
 36 40  1  0  0  0  0
 36 30  1  0  0  0  0
 37 35  1  0  0  0  0
 38 37  1  0  0  0  0
 39 34  1  0  0  0  0
 41 37  1  0  0  0  0
M  END
>  <minimizedAffinity>
-4.93071508

>  <minimizedRMSD>
0.0709180981

$$$$
