
 OpenBabel03272507013D

 45 47  0  0  1  0  0  0  0  0999 V2000
   35.0100   30.1140   49.4110 C   0  0  2  0  0  0  0  0  0  0  0  0
   36.0010   30.7920   48.5320 C   0  0  0  0  0  0  0  0  0  0  0  0
   37.3900   30.1890   48.6390 C   0  0  2  0  0  0  0  0  0  0  0  0
   37.9090   30.1850   50.0300 C   0  0  0  0  0  0  0  0  0  0  0  0
   36.8660   29.8180   51.0610 C   0  0  0  0  0  0  0  0  0  0  0  0
   35.6490   29.1980   50.4250 C   0  0  0  0  0  0  0  0  0  0  0  0
   34.3880   30.8230   50.0340 H   0  0  0  0  0  0  0  0  0  0  0  0
   35.8080   30.8040   47.4530 H   0  0  0  0  0  0  0  0  0  0  0  0
   36.0470   31.8630   48.9100 H   0  0  0  0  0  0  0  0  0  0  0  0
   37.2870   29.1260   48.3030 H   0  0  0  0  0  0  0  0  0  0  0  0
   38.6830   29.3630   50.0820 H   0  0  0  0  0  0  0  0  0  0  0  0
   38.4030   31.0720   50.4000 H   0  0  0  0  0  0  0  0  0  0  0  0
   37.2520   29.1600   51.8390 H   0  0  0  0  0  0  0  0  0  0  0  0
   36.5110   30.7390   51.5810 H   0  0  0  0  0  0  0  0  0  0  0  0
   34.9180   28.9680   51.2050 H   0  0  0  0  0  0  0  0  0  0  0  0
   35.9650   28.2490   49.9380 H   0  0  0  0  0  0  0  0  0  0  0  0
   38.3160   30.8350   47.7800 N   0  0  1  0  0  0  0  0  0  0  0  0
   38.4590   30.1720   46.4940 C   0  0  0  0  0  0  0  0  0  0  0  0
   39.5640   31.0300   45.8760 C   0  0  0  0  0  0  0  0  0  0  0  0
   39.0710   32.4230   46.2750 C   0  0  0  0  0  0  0  0  0  0  0  0
   38.1690   32.1910   47.5040 C   0  0  2  0  0  0  0  0  0  0  0  0
   38.8090   29.1190   46.6260 H   0  0  0  0  0  0  0  0  0  0  0  0
   37.5490   30.2600   45.8810 H   0  0  0  0  0  0  0  0  0  0  0  0
   40.5010   30.7770   46.4110 H   0  0  0  0  0  0  0  0  0  0  0  0
   39.6200   30.9030   44.7910 H   0  0  0  0  0  0  0  0  0  0  0  0
   38.5100   32.8480   45.4220 H   0  0  0  0  0  0  0  0  0  0  0  0
   39.9740   32.9910   46.5090 H   0  0  0  0  0  0  0  0  0  0  0  0
   37.1550   32.4530   47.1900 H   0  0  0  0  0  0  0  0  0  0  0  0
   40.0910   34.1640   46.6490 N   0  0  0  0  0  0  0  0  0  0  0  0
   39.6940   33.9460   47.8730 C   0  0  0  0  0  0  0  0  0  0  0  0
   38.6580   33.1430   48.4750 N   0  0  0  0  0  0  0  0  0  0  0  0
   40.6740   34.8210   48.4190 N   0  0  0  0  0  0  0  0  0  0  0  0
   40.3360   35.8030   48.6480 H   0  0  0  0  0  0  0  0  0  0  0  0
   39.6820   33.7460   45.8060 H   0  0  0  0  0  0  0  0  0  0  0  0
   38.6530   33.5670   49.4290 H   0  0  0  0  0  0  0  0  0  0  0  0
   41.6990   34.6360   48.6340 H   0  0  0  0  0  0  0  0  0  0  0  0
   34.0260   29.3070   48.6530 C   0  0  0  0  0  0  0  0  0  0  0  0
   33.8750   29.6980   47.3200 C   0  0  0  0  0  0  0  0  0  0  0  0
   32.9570   28.9510   46.5500 C   0  0  0  0  0  0  0  0  0  0  0  0
   32.2750   27.9040   47.1340 N   0  0  0  0  0  0  0  0  0  0  0  0
   32.4640   27.5700   48.4390 C   0  0  0  0  0  0  0  0  0  0  0  0
   33.3230   28.2690   49.1600 N   0  0  0  0  0  0  0  0  0  0  0  0
   34.2380   30.4360   46.6350 H   0  0  0  0  0  0  0  0  0  0  0  0
   32.6670   29.0490   45.5160 H   0  0  0  0  0  0  0  0  0  0  0  0
   31.9130   26.7450   48.8650 H   0  0  0  0  0  0  0  0  0  0  0  0
  1  7  1  1  0  0  0
  1  6  1  0  0  0  0
  2  3  1  0  0  0  0
  2  9  1  0  0  0  0
  2  1  1  0  0  0  0
  3 10  1  6  0  0  0
  3  4  1  0  0  0  0
  4 11  1  0  0  0  0
  4 12  1  0  0  0  0
  4  5  1  0  0  0  0
  5 14  1  0  0  0  0
  5 13  1  0  0  0  0
  6  5  1  0  0  0  0
  6 15  1  0  0  0  0
  8  2  1  0  0  0  0
 16  6  1  0  0  0  0
 17 18  1  6  0  0  0
 17  3  1  0  0  0  0
 18 22  1  0  0  0  0
 19 20  1  0  0  0  0
 19 24  1  0  0  0  0
 19 18  1  0  0  0  0
 20 27  1  0  0  0  0
 20 21  1  0  0  0  0
 21 28  1  6  0  0  0
 21 17  1  0  0  0  0
 21 31  1  0  0  0  0
 23 18  1  0  0  0  0
 25 19  1  0  0  0  0
 26 20  1  0  0  0  0
 29 30  2  0  0  0  0
 30 32  1  0  0  0  0
 30 31  1  0  0  0  0
 31 35  1  0  0  0  0
 32 36  1  0  0  0  0
 32 33  1  0  0  0  0
 34 29  1  0  0  0  0
 37 42  1  0  0  0  0
 37  1  1  0  0  0  0
 38 37  2  0  0  0  0
 39 40  2  0  0  0  0
 39 38  1  0  0  0  0
 40 41  1  0  0  0  0
 41 45  1  0  0  0  0
 41 42  2  0  0  0  0
 43 38  1  0  0  0  0
 44 39  1  0  0  0  0
M  END
>  <minimizedAffinity>
-5.75504303

>  <minimizedRMSD>
0.624038935

$$$$
