
 OpenBabel03272507013D

 45 47  0  0  1  0  0  0  0  0999 V2000
   35.0060   30.0150   49.0270 C   0  0  2  0  0  0  0  0  0  0  0  0
   35.8190   30.6890   47.9780 C   0  0  0  0  0  0  0  0  0  0  0  0
   37.2040   30.0860   47.8320 C   0  0  2  0  0  0  0  0  0  0  0  0
   37.9690   30.0880   49.1040 C   0  0  0  0  0  0  0  0  0  0  0  0
   37.1330   29.7250   50.3110 C   0  0  0  0  0  0  0  0  0  0  0  0
   35.8200   29.1030   49.9110 C   0  0  0  0  0  0  0  0  0  0  0  0
   34.5070   30.7270   49.7500 H   0  0  0  0  0  0  0  0  0  0  0  0
   35.4310   30.6960   46.9530 H   0  0  0  0  0  0  0  0  0  0  0  0
   35.9320   31.7620   48.3370 H   0  0  0  0  0  0  0  0  0  0  0  0
   37.0420   29.0210   47.5250 H   0  0  0  0  0  0  0  0  0  0  0  0
   38.7390   29.2660   49.0170 H   0  0  0  0  0  0  0  0  0  0  0  0
   38.5210   30.9760   49.3730 H   0  0  0  0  0  0  0  0  0  0  0  0
   37.6550   29.0700   51.0070 H   0  0  0  0  0  0  0  0  0  0  0  0
   36.8780   30.6490   50.8820 H   0  0  0  0  0  0  0  0  0  0  0  0
   35.2440   28.8760   50.8130 H   0  0  0  0  0  0  0  0  0  0  0  0
   36.0420   28.1520   49.3780 H   0  0  0  0  0  0  0  0  0  0  0  0
   37.9560   30.7280   46.8150 N   0  0  1  0  0  0  0  0  0  0  0  0
   37.3920   30.5460   45.4870 C   0  0  0  0  0  0  0  0  0  0  0  0
   38.4600   31.2470   44.6480 C   0  0  0  0  0  0  0  0  0  0  0  0
   38.7020   32.4890   45.5100 C   0  0  0  0  0  0  0  0  0  0  0  0
   38.2520   32.0830   46.9280 C   0  0  2  0  0  0  0  0  0  0  0  0
   37.3370   29.4610   45.2240 H   0  0  0  0  0  0  0  0  0  0  0  0
   36.4360   31.0760   45.3680 H   0  0  0  0  0  0  0  0  0  0  0  0
   39.3520   30.5890   44.6510 H   0  0  0  0  0  0  0  0  0  0  0  0
   38.0950   31.4990   43.6480 H   0  0  0  0  0  0  0  0  0  0  0  0
   38.0910   33.3160   45.1020 H   0  0  0  0  0  0  0  0  0  0  0  0
   39.7740   32.6830   45.4420 H   0  0  0  0  0  0  0  0  0  0  0  0
   37.3730   32.6920   47.1540 H   0  0  0  0  0  0  0  0  0  0  0  0
   37.7140   33.6780   49.2700 N   0  0  0  0  0  0  0  0  0  0  0  0
   38.8900   33.3610   48.7990 C   0  0  0  0  0  0  0  0  0  0  0  0
   39.3630   32.4720   47.7670 N   0  0  0  0  0  0  0  0  0  0  0  0
   39.5620   34.2310   49.7030 N   0  0  0  0  0  0  0  0  0  0  0  0
   39.9580   33.7700   50.5760 H   0  0  0  0  0  0  0  0  0  0  0  0
   36.8190   33.2990   48.9430 H   0  0  0  0  0  0  0  0  0  0  0  0
   40.3740   32.4450   48.0220 H   0  0  0  0  0  0  0  0  0  0  0  0
   39.7270   35.2780   49.6350 H   0  0  0  0  0  0  0  0  0  0  0  0
   33.9000   29.2050   48.4650 C   0  0  0  0  0  0  0  0  0  0  0  0
   33.6030   29.4940   47.1310 C   0  0  0  0  0  0  0  0  0  0  0  0
   32.5640   28.7390   46.5440 C   0  0  0  0  0  0  0  0  0  0  0  0
   31.9130   27.7820   47.2960 N   0  0  0  0  0  0  0  0  0  0  0  0
   32.2470   27.5460   48.5930 C   0  0  0  0  0  0  0  0  0  0  0  0
   33.2190   28.2520   49.1420 N   0  0  0  0  0  0  0  0  0  0  0  0
   33.9120   30.1520   46.3460 H   0  0  0  0  0  0  0  0  0  0  0  0
   32.1520   28.7690   45.5480 H   0  0  0  0  0  0  0  0  0  0  0  0
   31.7160   26.7900   49.1520 H   0  0  0  0  0  0  0  0  0  0  0  0
  1  7  1  1  0  0  0
  1  6  1  0  0  0  0
  2  9  1  0  0  0  0
  2  1  1  0  0  0  0
  3 10  1  6  0  0  0
  3  2  1  0  0  0  0
  3  4  1  0  0  0  0
  4 12  1  0  0  0  0
  4  5  1  0  0  0  0
  5 14  1  0  0  0  0
  5 13  1  0  0  0  0
  6  5  1  0  0  0  0
  6 15  1  0  0  0  0
  8  2  1  0  0  0  0
 11  4  1  0  0  0  0
 16  6  1  0  0  0  0
 17 18  1  6  0  0  0
 17 21  1  0  0  0  0
 17  3  1  0  0  0  0
 19 24  1  0  0  0  0
 19 18  1  0  0  0  0
 19 20  1  0  0  0  0
 20 21  1  0  0  0  0
 21 28  1  1  0  0  0
 21 31  1  0  0  0  0
 22 18  1  0  0  0  0
 23 18  1  0  0  0  0
 25 19  1  0  0  0  0
 26 20  1  0  0  0  0
 27 20  1  0  0  0  0
 30 29  2  0  0  0  0
 30 32  1  0  0  0  0
 31 35  1  0  0  0  0
 31 30  1  0  0  0  0
 32 33  1  0  0  0  0
 34 29  1  0  0  0  0
 36 32  1  0  0  0  0
 37  1  1  0  0  0  0
 37 42  1  0  0  0  0
 38 37  2  0  0  0  0
 39 38  1  0  0  0  0
 39 40  2  0  0  0  0
 40 41  1  0  0  0  0
 41 42  2  0  0  0  0
 41 45  1  0  0  0  0
 43 38  1  0  0  0  0
 44 39  1  0  0  0  0
M  END
>  <minimizedAffinity>
-5.81228018

>  <minimizedRMSD>
1.32952356

$$$$
