
 OpenBabel03272502283D

 22 22  0  0  0  0  0  0  0  0999 V2000
   38.0510   30.6420   47.4820 C   0  0  0  0  0  3  0  0  0  0  0  0
   36.8000   30.5910   47.8860 C   0  0  0  0  0  3  0  0  0  0  0  0
   38.3320   32.6130   44.3760 C   0  0  0  0  0  0  0  0  0  0  0  0
   37.8460   31.7240   45.3470 C   0  0  0  0  0  0  0  0  0  0  0  0
   38.5620   31.5500   46.5150 C   0  0  0  0  0  0  0  0  0  0  0  0
   39.7090   32.2320   46.7050 N   0  0  0  0  0  0  0  0  0  0  0  0
   40.1660   33.0840   45.7630 C   0  0  0  0  0  0  0  0  0  0  0  0
   39.4960   33.2820   44.6100 N   0  0  0  0  0  0  0  0  0  0  0  0
   37.7290   32.7050   43.4860 H   0  0  0  0  0  0  0  0  0  0  0  0
   36.9030   31.1840   45.1550 H   0  0  0  0  0  0  0  0  0  0  0  0
   41.0900   33.6520   45.8870 H   0  0  0  0  0  0  0  0  0  0  0  0
   36.3070   29.6210   48.9000 C   0  0  0  0  0  0  0  0  0  0  0  0
   37.1060   28.8930   49.0900 H   0  0  0  0  0  0  0  0  0  0  0  0
   36.0890   30.0840   49.8840 H   0  0  0  0  0  0  0  0  0  0  0  0
   33.7570   29.7390   50.1890 N   0  0  0  0  0  0  0  0  0  0  0  0
   33.9710   28.9480   49.1990 C   0  0  0  0  0  0  0  0  0  0  0  0
   35.1100   29.0220   48.3490 N   0  0  0  0  0  0  0  0  0  0  0  0
   32.9770   27.9310   48.9610 N   0  0  0  0  0  0  0  0  0  0  0  0
   32.4770   28.1940   48.0860 H   0  0  0  0  0  0  0  0  0  0  0  0
   34.4010   30.5080   50.4580 H   0  0  0  0  0  0  0  0  0  0  0  0
   35.0560   28.6510   47.3680 H   0  0  0  0  0  0  0  0  0  0  0  0
   32.5880   27.0340   49.3590 H   0  0  0  0  0  0  0  0  0  0  0  0
  1  2  2  0  0  0  0
  2 12  1  0  0  0  0
  3  8  2  0  0  0  0
  3  4  1  0  0  0  0
  4  5  2  0  0  0  0
  5  6  1  0  0  0  0
  5  1  1  0  0  0  0
  7 11  1  0  0  0  0
  7  6  2  0  0  0  0
  8  7  1  0  0  0  0
  9  3  1  0  0  0  0
 10  4  1  0  0  0  0
 12 13  1  0  0  0  0
 12 14  1  0  0  0  0
 15 20  1  0  0  0  0
 16 15  2  0  0  0  0
 17 12  1  0  0  0  0
 17 16  1  0  0  0  0
 18 16  1  0  0  0  0
 18 22  1  0  0  0  0
 19 18  1  0  0  0  0
 21 17  1  0  0  0  0
M  END
>  <minimizedAffinity>
-4.11186504

>  <minimizedRMSD>
7.03157377

$$$$
