
 OpenBabel03272506463D

 41 43  0  0  1  0  0  0  0  0999 V2000
   32.1480   28.5350   47.4240 C   0  0  2  0  0  0  0  0  0  0  0  0
   33.3940   28.3490   48.2420 C   0  0  1  0  0  0  0  0  0  0  0  0
   33.7780   27.0460   48.1330 O   0  0  0  0  0  0  0  0  0  0  0  0
   33.0610   26.4380   47.1080 C   0  0  0  0  0  0  0  0  0  0  0  0
   32.4610   27.5360   46.2700 C   0  0  1  0  0  0  0  0  0  0  0  0
   31.2130   28.2730   47.9050 H   0  0  0  0  0  0  0  0  0  0  0  0
   33.2780   28.7000   49.2930 H   0  0  0  0  0  0  0  0  0  0  0  0
   33.8450   25.9100   46.4890 H   0  0  0  0  0  0  0  0  0  0  0  0
   32.3730   25.7500   47.5730 H   0  0  0  0  0  0  0  0  0  0  0  0
   33.1970   28.0310   45.6470 H   0  0  0  0  0  0  0  0  0  0  0  0
   32.0860   29.8420   46.9030 O   0  0  0  0  0  0  0  0  0  0  0  0
   32.8760   29.9650   46.3420 H   0  0  0  0  0  0  0  0  0  0  0  0
   34.7070   29.3870   47.4860 S   0  0  0  0  0  0  0  0  0  0  0  0
   37.1180   29.2990   50.6250 C   0  0  0  0  0  0  0  0  0  0  0  0
   37.6120   30.5870   50.7450 C   0  0  0  0  0  0  0  0  0  0  0  0
   37.1790   31.5380   49.8070 C   0  0  0  0  0  0  0  0  0  0  0  0
   36.3110   31.1450   48.8470 N   0  0  0  0  0  0  0  0  0  0  0  0
   35.8550   29.8820   48.7650 C   0  0  0  0  0  0  0  0  0  0  0  0
   36.2500   28.9320   49.6540 N   0  0  0  0  0  0  0  0  0  0  0  0
   37.3790   28.4720   51.2940 H   0  0  0  0  0  0  0  0  0  0  0  0
   38.2970   30.7760   51.5490 H   0  0  0  0  0  0  0  0  0  0  0  0
   37.5600   32.5460   49.8980 H   0  0  0  0  0  0  0  0  0  0  0  0
   31.3090   27.0790   45.6820 O   0  0  0  0  0  0  0  0  0  0  0  0
   29.8070   29.1760   44.2710 Cl  0  0  0  0  0  0  0  0  0  0  0  0
   29.2790   28.1590   45.5920 C   0  0  0  0  0  0  0  0  0  0  0  0
   30.0770   27.1990   46.1730 C   0  0  0  0  0  0  0  0  0  0  0  0
   29.5340   26.4380   47.2110 C   0  0  0  0  0  0  0  0  0  0  0  0
   28.2430   26.6460   47.6350 C   0  0  0  0  0  0  0  0  0  0  0  0
   27.4360   27.6020   47.0620 C   0  0  0  0  0  0  0  0  0  0  0  0
   27.9580   28.3660   46.0320 C   0  0  0  0  0  0  0  0  0  0  0  0
   30.0890   25.6650   47.7140 H   0  0  0  0  0  0  0  0  0  0  0  0
   27.8390   26.0540   48.4360 H   0  0  0  0  0  0  0  0  0  0  0  0
   26.4410   27.7180   47.4290 H   0  0  0  0  0  0  0  0  0  0  0  0
   25.6250   28.0450   44.3040 N   0  0  0  0  0  0  0  0  0  0  0  0
   26.4030   29.0980   44.2260 C   0  0  0  0  0  0  0  0  0  0  0  0
   27.1560   29.3630   45.3780 N   0  0  0  0  0  0  0  0  0  0  0  0
   26.4670   29.9340   43.0580 N   0  0  0  0  0  0  0  0  0  0  0  0
   26.2210   30.7620   42.5050 H   0  0  0  0  0  0  0  0  0  0  0  0
   25.0120   27.7170   43.5420 H   0  0  0  0  0  0  0  0  0  0  0  0
   27.1090   30.3510   45.7370 H   0  0  0  0  0  0  0  0  0  0  0  0
   27.0540   29.6960   42.2080 H   0  0  0  0  0  0  0  0  0  0  0  0
  1  6  1  1  0  0  0
  1  2  1  0  0  0  0
  2  7  1  1  0  0  0
  3  2  1  0  0  0  0
  4  9  1  0  0  0  0
  4  3  1  0  0  0  0
  5 10  1  6  0  0  0
  5  4  1  0  0  0  0
  5  1  1  0  0  0  0
  8  4  1  0  0  0  0
 11  1  1  0  0  0  0
 12 11  1  0  0  0  0
 13  2  1  0  0  0  0
 13 18  1  0  0  0  0
 14 15  1  0  0  0  0
 14 20  1  0  0  0  0
 15 21  1  0  0  0  0
 16 22  1  0  0  0  0
 16 15  2  0  0  0  0
 17 16  1  0  0  0  0
 18 17  2  0  0  0  0
 18 19  1  0  0  0  0
 19 14  2  0  0  0  0
 23 26  1  0  0  0  0
 23  5  1  0  0  0  0
 24 25  1  0  0  0  0
 25 30  2  0  0  0  0
 25 26  1  0  0  0  0
 26 27  2  0  0  0  0
 27 28  1  0  0  0  0
 27 31  1  0  0  0  0
 28 32  1  0  0  0  0
 29 33  1  0  0  0  0
 29 28  2  0  0  0  0
 30 29  1  0  0  0  0
 35 34  2  0  0  0  0
 35 36  1  0  0  0  0
 36 40  1  0  0  0  0
 36 30  1  0  0  0  0
 37 35  1  0  0  0  0
 38 37  1  0  0  0  0
 39 34  1  0  0  0  0
 41 37  1  0  0  0  0
M  END
>  <minimizedAffinity>
-4.89667225

>  <minimizedRMSD>
0.158289596

$$$$
