
 OpenBabel03272506463D

 41 43  0  0  1  0  0  0  0  0999 V2000
   32.1500   28.5370   47.4370 C   0  0  2  0  0  0  0  0  0  0  0  0
   33.4020   28.3460   48.2440 C   0  0  1  0  0  0  0  0  0  0  0  0
   33.7780   27.0410   48.1340 O   0  0  0  0  0  0  0  0  0  0  0  0
   33.0480   26.4340   47.1170 C   0  0  0  0  0  0  0  0  0  0  0  0
   32.4460   27.5340   46.2820 C   0  0  1  0  0  0  0  0  0  0  0  0
   31.2180   28.2810   47.9270 H   0  0  0  0  0  0  0  0  0  0  0  0
   33.2970   28.7000   49.2950 H   0  0  0  0  0  0  0  0  0  0  0  0
   33.8230   25.9010   46.4920 H   0  0  0  0  0  0  0  0  0  0  0  0
   32.3600   25.7510   47.5890 H   0  0  0  0  0  0  0  0  0  0  0  0
   33.1800   28.0230   45.6510 H   0  0  0  0  0  0  0  0  0  0  0  0
   32.0900   29.8430   46.9140 O   0  0  0  0  0  0  0  0  0  0  0  0
   32.8760   29.9610   46.3460 H   0  0  0  0  0  0  0  0  0  0  0  0
   34.7130   29.3750   47.4740 S   0  0  0  0  0  0  0  0  0  0  0  0
   37.1250   29.3120   50.6140 C   0  0  0  0  0  0  0  0  0  0  0  0
   37.6340   30.5960   50.7110 C   0  0  0  0  0  0  0  0  0  0  0  0
   37.2130   31.5360   49.7560 C   0  0  0  0  0  0  0  0  0  0  0  0
   36.3400   31.1370   48.8030 N   0  0  0  0  0  0  0  0  0  0  0  0
   35.8680   29.8770   48.7440 C   0  0  0  0  0  0  0  0  0  0  0  0
   36.2520   28.9390   49.6490 N   0  0  0  0  0  0  0  0  0  0  0  0
   37.3760   28.4940   51.2970 H   0  0  0  0  0  0  0  0  0  0  0  0
   38.3230   30.7900   51.5120 H   0  0  0  0  0  0  0  0  0  0  0  0
   37.6060   32.5400   49.8290 H   0  0  0  0  0  0  0  0  0  0  0  0
   31.2870   27.0820   45.7060 O   0  0  0  0  0  0  0  0  0  0  0  0
   29.7100   29.1460   44.3280 Cl  0  0  0  0  0  0  0  0  0  0  0  0
   29.2330   28.1200   45.6620 C   0  0  0  0  0  0  0  0  0  0  0  0
   30.0630   27.1780   46.2250 C   0  0  0  0  0  0  0  0  0  0  0  0
   29.5610   26.4070   47.2760 C   0  0  0  0  0  0  0  0  0  0  0  0
   28.2760   26.5890   47.7290 C   0  0  0  0  0  0  0  0  0  0  0  0
   27.4360   27.5280   47.1740 C   0  0  0  0  0  0  0  0  0  0  0  0
   27.9180   28.3010   46.1320 C   0  0  0  0  0  0  0  0  0  0  0  0
   30.1430   25.6460   47.7660 H   0  0  0  0  0  0  0  0  0  0  0  0
   27.9020   25.9900   48.5390 H   0  0  0  0  0  0  0  0  0  0  0  0
   26.4480   27.6230   47.5640 H   0  0  0  0  0  0  0  0  0  0  0  0
   25.5030   27.9340   44.5300 N   0  0  0  0  0  0  0  0  0  0  0  0
   26.2720   28.9860   44.3890 C   0  0  0  0  0  0  0  0  0  0  0  0
   27.0820   29.2810   45.4950 N   0  0  0  0  0  0  0  0  0  0  0  0
   26.2770   29.7940   43.1990 N   0  0  0  0  0  0  0  0  0  0  0  0
   26.0010   30.6080   42.6400 H   0  0  0  0  0  0  0  0  0  0  0  0
   24.8550   27.5870   43.8080 H   0  0  0  0  0  0  0  0  0  0  0  0
   27.0500   30.2770   45.8320 H   0  0  0  0  0  0  0  0  0  0  0  0
   26.8210   29.5370   42.3270 H   0  0  0  0  0  0  0  0  0  0  0  0
  1  6  1  1  0  0  0
  1  2  1  0  0  0  0
  2  7  1  1  0  0  0
  3  2  1  0  0  0  0
  4  9  1  0  0  0  0
  4  3  1  0  0  0  0
  5 10  1  6  0  0  0
  5  4  1  0  0  0  0
  5  1  1  0  0  0  0
  8  4  1  0  0  0  0
 11  1  1  0  0  0  0
 12 11  1  0  0  0  0
 13  2  1  0  0  0  0
 13 18  1  0  0  0  0
 14 15  1  0  0  0  0
 14 20  1  0  0  0  0
 15 21  1  0  0  0  0
 16 22  1  0  0  0  0
 16 15  2  0  0  0  0
 17 16  1  0  0  0  0
 18 17  2  0  0  0  0
 18 19  1  0  0  0  0
 19 14  2  0  0  0  0
 23 26  1  0  0  0  0
 23  5  1  0  0  0  0
 24 25  1  0  0  0  0
 25 30  2  0  0  0  0
 25 26  1  0  0  0  0
 26 27  2  0  0  0  0
 27 28  1  0  0  0  0
 27 31  1  0  0  0  0
 28 32  1  0  0  0  0
 29 33  1  0  0  0  0
 29 28  2  0  0  0  0
 30 29  1  0  0  0  0
 35 34  2  0  0  0  0
 35 36  1  0  0  0  0
 36 40  1  0  0  0  0
 36 30  1  0  0  0  0
 37 35  1  0  0  0  0
 38 37  1  0  0  0  0
 39 34  1  0  0  0  0
 41 37  1  0  0  0  0
M  END
>  <minimizedAffinity>
-4.96208811

>  <minimizedRMSD>
0.898289382

$$$$
