
 OpenBabel03262521023D

 36 37  0  0  1  0  0  0  0  0999 V2000
   36.4180   24.9730   31.4450 S   0  0  0  0  0  0  0  0  0  0  0  0
   38.2000   26.9460   32.0220 N   0  0  0  0  0  0  0  0  0  0  0  0
   36.8130   26.6210   32.1430 C   0  0  1  0  0  0  0  0  0  0  0  0
   35.9790   27.6060   31.3670 C   0  0  0  0  0  0  0  0  0  0  0  0
   36.4070   27.5360   29.9770 N   0  0  0  0  0  0  0  0  0  0  0  0
   37.7550   28.1210   29.9790 C   0  0  0  0  0  0  0  0  0  0  0  0
   38.6430   27.0950   30.6720 C   0  0  2  0  0  0  0  0  0  0  0  0
   38.8250   26.4660   32.6670 H   0  0  0  0  0  0  0  0  0  0  0  0
   36.5130   26.6460   33.2020 H   0  0  0  0  0  0  0  0  0  0  0  0
   34.9130   27.2710   31.3700 H   0  0  0  0  0  0  0  0  0  0  0  0
   36.0820   28.6540   31.7110 H   0  0  0  0  0  0  0  0  0  0  0  0
   35.7600   28.0200   29.3420 H   0  0  0  0  0  0  0  0  0  0  0  0
   37.6770   29.0340   30.6070 H   0  0  0  0  0  0  0  0  0  0  0  0
   38.1250   28.3110   28.9710 H   0  0  0  0  0  0  0  0  0  0  0  0
   39.6800   27.4880   30.7120 H   0  0  0  0  0  0  0  0  0  0  0  0
   38.6240   25.8660   29.9020 N   0  0  0  0  0  0  0  0  0  0  0  0
   38.9950   25.0570   30.4310 H   0  0  0  0  0  0  0  0  0  0  0  0
   37.7560   25.6960   29.3830 H   0  0  0  0  0  0  0  0  0  0  0  0
   37.3030   21.4830   33.2970 C   0  0  0  0  0  0  0  0  0  0  0  0
   36.7610   22.3670   32.3910 C   0  0  0  0  0  0  0  0  0  0  0  0
   37.0340   23.7060   32.5230 C   0  0  0  0  0  0  0  0  0  0  0  0
   37.8520   24.1030   33.5780 N   0  0  0  0  0  0  0  0  0  0  0  0
   38.3430   23.1950   34.4180 C   0  0  0  0  0  0  0  0  0  0  0  0
   38.0810   21.8890   34.2950 N   0  0  0  0  0  0  0  0  0  0  0  0
   37.0910   20.4070   33.2010 H   0  0  0  0  0  0  0  0  0  0  0  0
   36.1310   22.0570   31.5790 H   0  0  0  0  0  0  0  0  0  0  0  0
   39.2000   23.6480   35.5170 C   0  0  0  0  0  0  0  0  0  0  0  0
   39.1530   24.7960   36.0010 O   0  0  0  0  0  0  0  0  0  0  0  0
   39.2500   22.7740   38.1680 N   0  0  0  0  0  0  0  0  0  0  0  0
   40.1520   22.2660   37.3980 C   0  0  0  0  0  0  0  0  0  0  0  0
   40.1430   22.6980   36.0500 N   0  0  0  0  0  0  0  0  0  0  0  0
   41.1230   21.3250   37.8260 N   0  0  0  0  0  0  0  0  0  0  0  0
   41.9720   21.1750   37.2720 H   0  0  0  0  0  0  0  0  0  0  0  0
   39.2680   22.4450   39.1690 H   0  0  0  0  0  0  0  0  0  0  0  0
   40.8670   22.2960   35.4090 H   0  0  0  0  0  0  0  0  0  0  0  0
   40.9270   20.8210   38.6970 H   0  0  0  0  0  0  0  0  0  0  0  0
  1  3  1  0  0  0  0
  1 21  1  0  0  0  0
  2  3  1  0  0  0  0
  2  8  1  0  0  0  0
  3  9  1  1  0  0  0
  4 10  1  0  0  0  0
  4 11  1  0  0  0  0
  4  3  1  0  0  0  0
  5  6  1  0  0  0  0
  5  4  1  0  0  0  0
  6 13  1  0  0  0  0
  6  7  1  0  0  0  0
  7 15  1  1  0  0  0
  7  2  1  0  0  0  0
 12  5  1  0  0  0  0
 14  6  1  0  0  0  0
 16 17  1  0  0  0  0
 16  7  1  0  0  0  0
 18 16  1  0  0  0  0
 19 24  1  0  0  0  0
 20 21  1  0  0  0  0
 20 19  2  0  0  0  0
 21 22  2  0  0  0  0
 22 23  1  0  0  0  0
 23 27  1  0  0  0  0
 24 23  2  0  0  0  0
 25 19  1  0  0  0  0
 26 20  1  0  0  0  0
 27 28  2  0  0  0  0
 27 31  1  0  0  0  0
 29 34  1  0  0  0  0
 30 32  1  0  0  0  0
 30 29  2  0  0  0  0
 31 30  1  0  0  0  0
 32 36  1  0  0  0  0
 33 32  1  0  0  0  0
 35 31  1  0  0  0  0
M  END
>  <minimizedAffinity>
-5.61162472

$$$$

 OpenBabel03262521023D

 36 37  0  0  1  0  0  0  0  0999 V2000
   38.6370   22.2820   34.5020 S   0  0  0  0  0  0  0  0  0  0  0  0
   38.4660   24.3970   36.2050 N   0  0  0  0  0  0  0  0  0  0  0  0
   39.4040   23.6910   35.3890 C   0  0  1  0  0  0  0  0  0  0  0  0
   40.4920   23.0960   36.2430 C   0  0  0  0  0  0  0  0  0  0  0  0
   39.8530   22.1950   37.1920 N   0  0  0  0  0  0  0  0  0  0  0  0
   39.1180   23.0850   38.1030 C   0  0  0  0  0  0  0  0  0  0  0  0
   37.9490   23.6250   37.2910 C   0  0  2  0  0  0  0  0  0  0  0  0
   37.8120   24.9990   35.7090 H   0  0  0  0  0  0  0  0  0  0  0  0
   39.8540   24.3780   34.6550 H   0  0  0  0  0  0  0  0  0  0  0  0
   41.1460   22.4480   35.6100 H   0  0  0  0  0  0  0  0  0  0  0  0
   41.0790   23.8430   36.8130 H   0  0  0  0  0  0  0  0  0  0  0  0
   40.5280   21.5920   37.6780 H   0  0  0  0  0  0  0  0  0  0  0  0
   39.8240   23.9100   38.3390 H   0  0  0  0  0  0  0  0  0  0  0  0
   38.7470   22.5590   38.9840 H   0  0  0  0  0  0  0  0  0  0  0  0
   37.3580   24.3150   37.9280 H   0  0  0  0  0  0  0  0  0  0  0  0
   37.1120   22.5130   36.8820 N   0  0  0  0  0  0  0  0  0  0  0  0
   36.4480   22.7680   36.1300 H   0  0  0  0  0  0  0  0  0  0  0  0
   37.6080   21.6250   36.7540 H   0  0  0  0  0  0  0  0  0  0  0  0
   36.0800   22.7010   31.3900 C   0  0  0  0  0  0  0  0  0  0  0  0
   36.8720   22.1010   32.3440 C   0  0  0  0  0  0  0  0  0  0  0  0
   37.5750   22.8930   33.2190 C   0  0  0  0  0  0  0  0  0  0  0  0
   37.4470   24.2730   33.0950 N   0  0  0  0  0  0  0  0  0  0  0  0
   36.6630   24.7870   32.1490 C   0  0  0  0  0  0  0  0  0  0  0  0
   35.9770   24.0230   31.2930 N   0  0  0  0  0  0  0  0  0  0  0  0
   35.5120   22.0770   30.6830 H   0  0  0  0  0  0  0  0  0  0  0  0
   36.9680   21.0370   32.4370 H   0  0  0  0  0  0  0  0  0  0  0  0
   36.5530   26.2450   32.0470 C   0  0  0  0  0  0  0  0  0  0  0  0
   36.5760   27.0100   33.0310 O   0  0  0  0  0  0  0  0  0  0  0  0
   38.3330   28.0540   30.8830 N   0  0  0  0  0  0  0  0  0  0  0  0
   37.3240   27.7180   30.1520 C   0  0  0  0  0  0  0  0  0  0  0  0
   36.4100   26.8020   30.7260 N   0  0  0  0  0  0  0  0  0  0  0  0
   37.0940   28.2090   28.8420 N   0  0  0  0  0  0  0  0  0  0  0  0
   36.1590   28.1450   28.4250 H   0  0  0  0  0  0  0  0  0  0  0  0
   39.0050   28.7370   30.4440 H   0  0  0  0  0  0  0  0  0  0  0  0
   35.5850   26.5170   30.1480 H   0  0  0  0  0  0  0  0  0  0  0  0
   37.8960   28.6200   28.3540 H   0  0  0  0  0  0  0  0  0  0  0  0
  1  3  1  0  0  0  0
  2  7  1  0  0  0  0
  3  9  1  6  0  0  0
  3  2  1  0  0  0  0
  3  4  1  0  0  0  0
  4 11  1  0  0  0  0
  4  5  1  0  0  0  0
  5 12  1  0  0  0  0
  5  6  1  0  0  0  0
  6 13  1  0  0  0  0
  6 14  1  0  0  0  0
  7 15  1  1  0  0  0
  7  6  1  0  0  0  0
  8  2  1  0  0  0  0
 10  4  1  0  0  0  0
 16  7  1  0  0  0  0
 17 16  1  0  0  0  0
 18 16  1  0  0  0  0
 19 20  1  0  0  0  0
 20 26  1  0  0  0  0
 20 21  2  0  0  0  0
 21  1  1  0  0  0  0
 22 21  1  0  0  0  0
 23 22  2  0  0  0  0
 24 19  2  0  0  0  0
 24 23  1  0  0  0  0
 25 19  1  0  0  0  0
 27 23  1  0  0  0  0
 27 28  2  0  0  0  0
 30 31  1  0  0  0  0
 30 29  2  0  0  0  0
 31 27  1  0  0  0  0
 32 30  1  0  0  0  0
 33 32  1  0  0  0  0
 34 29  1  0  0  0  0
 35 31  1  0  0  0  0
 36 32  1  0  0  0  0
M  END
>  <minimizedAffinity>
-5.55907965

$$$$

 OpenBabel03262521023D

 36 37  0  0  1  0  0  0  0  0999 V2000
   36.5300   27.7250   32.7310 S   0  0  0  0  0  0  0  0  0  0  0  0
   36.3550   27.2360   30.0600 N   0  0  0  0  0  0  0  0  0  0  0  0
   36.8920   26.6850   31.2650 C   0  0  1  0  0  0  0  0  0  0  0  0
   38.3930   26.6080   31.1780 C   0  0  0  0  0  0  0  0  0  0  0  0
   38.8850   27.9610   30.9650 N   0  0  0  0  0  0  0  0  0  0  0  0
   38.4570   28.2950   29.5990 C   0  0  0  0  0  0  0  0  0  0  0  0
   36.9470   28.4800   29.6800 C   0  0  2  0  0  0  0  0  0  0  0  0
   35.3490   27.1440   29.9410 H   0  0  0  0  0  0  0  0  0  0  0  0
   36.4850   25.6760   31.4300 H   0  0  0  0  0  0  0  0  0  0  0  0
   38.8060   26.2920   32.1680 H   0  0  0  0  0  0  0  0  0  0  0  0
   38.7660   25.9680   30.3540 H   0  0  0  0  0  0  0  0  0  0  0  0
   39.9020   28.0350   31.0960 H   0  0  0  0  0  0  0  0  0  0  0  0
   38.6930   27.3970   28.9910 H   0  0  0  0  0  0  0  0  0  0  0  0
   38.9230   29.2110   29.2320 H   0  0  0  0  0  0  0  0  0  0  0  0
   36.5620   28.7270   28.6690 H   0  0  0  0  0  0  0  0  0  0  0  0
   36.6580   29.5750   30.5850 N   0  0  0  0  0  0  0  0  0  0  0  0
   35.6670   29.5990   30.8810 H   0  0  0  0  0  0  0  0  0  0  0  0
   37.3480   29.7100   31.3320 H   0  0  0  0  0  0  0  0  0  0  0  0
   38.3720   27.1050   36.2840 C   0  0  0  0  0  0  0  0  0  0  0  0
   37.7740   27.7640   35.2320 C   0  0  0  0  0  0  0  0  0  0  0  0
   37.3200   27.0340   34.1610 C   0  0  0  0  0  0  0  0  0  0  0  0
   37.4900   25.6530   34.1960 N   0  0  0  0  0  0  0  0  0  0  0  0
   38.0770   25.0800   35.2450 C   0  0  0  0  0  0  0  0  0  0  0  0
   38.5220   25.7850   36.2910 N   0  0  0  0  0  0  0  0  0  0  0  0
   38.7400   27.6800   37.1470 H   0  0  0  0  0  0  0  0  0  0  0  0
   37.6450   28.8290   35.2090 H   0  0  0  0  0  0  0  0  0  0  0  0
   38.2400   23.6230   35.2470 C   0  0  0  0  0  0  0  0  0  0  0  0
   37.9390   22.8930   34.2820 O   0  0  0  0  0  0  0  0  0  0  0  0
   40.5960   22.1300   35.3550 N   0  0  0  0  0  0  0  0  0  0  0  0
   39.9750   22.2700   36.4770 C   0  0  0  0  0  0  0  0  0  0  0  0
   38.7770   23.0250   36.4430 N   0  0  0  0  0  0  0  0  0  0  0  0
   40.4210   21.7220   37.7060 N   0  0  0  0  0  0  0  0  0  0  0  0
   39.7680   21.6140   38.4890 H   0  0  0  0  0  0  0  0  0  0  0  0
   41.4850   21.5650   35.3950 H   0  0  0  0  0  0  0  0  0  0  0  0
   38.2600   23.1510   37.3440 H   0  0  0  0  0  0  0  0  0  0  0  0
   41.4080   21.4470   37.7590 H   0  0  0  0  0  0  0  0  0  0  0  0
  1 21  1  0  0  0  0
  2  3  1  0  0  0  0
  3  9  1  1  0  0  0
  3  1  1  0  0  0  0
  4  3  1  0  0  0  0
  4 10  1  0  0  0  0
  5 12  1  0  0  0  0
  5  4  1  0  0  0  0
  6  7  1  0  0  0  0
  6  5  1  0  0  0  0
  7 15  1  6  0  0  0
  7  2  1  0  0  0  0
  7 16  1  0  0  0  0
  8  2  1  0  0  0  0
 11  4  1  0  0  0  0
 13  6  1  0  0  0  0
 14  6  1  0  0  0  0
 16 17  1  0  0  0  0
 16 18  1  0  0  0  0
 19 24  1  0  0  0  0
 19 25  1  0  0  0  0
 20 19  2  0  0  0  0
 21 22  2  0  0  0  0
 21 20  1  0  0  0  0
 22 23  1  0  0  0  0
 23 27  1  0  0  0  0
 23 24  2  0  0  0  0
 26 20  1  0  0  0  0
 27 31  1  0  0  0  0
 28 27  2  0  0  0  0
 29 34  1  0  0  0  0
 29 30  2  0  0  0  0
 30 32  1  0  0  0  0
 31 30  1  0  0  0  0
 31 35  1  0  0  0  0
 32 36  1  0  0  0  0
 32 33  1  0  0  0  0
M  END
>  <minimizedAffinity>
-5.31011868

$$$$

 OpenBabel03262521023D

 36 37  0  0  1  0  0  0  0  0999 V2000
   35.8880   26.6400   31.3430 S   0  0  0  0  0  0  0  0  0  0  0  0
   38.1000   28.2240   31.2980 N   0  0  0  0  0  0  0  0  0  0  0  0
   37.0050   27.8570   32.1400 C   0  0  1  0  0  0  0  0  0  0  0  0
   36.1520   29.0610   32.4400 C   0  0  0  0  0  0  0  0  0  0  0  0
   35.6730   29.5800   31.1670 N   0  0  0  0  0  0  0  0  0  0  0  0
   36.8730   30.1340   30.5230 C   0  0  0  0  0  0  0  0  0  0  0  0
   37.7090   28.9270   30.1170 C   0  0  2  0  0  0  0  0  0  0  0  0
   38.8390   27.5310   31.2040 H   0  0  0  0  0  0  0  0  0  0  0  0
   37.3820   27.4350   33.0840 H   0  0  0  0  0  0  0  0  0  0  0  0
   35.2370   28.7380   32.9950 H   0  0  0  0  0  0  0  0  0  0  0  0
   36.6880   29.8740   32.9680 H   0  0  0  0  0  0  0  0  0  0  0  0
   34.9230   30.2740   31.2820 H   0  0  0  0  0  0  0  0  0  0  0  0
   37.3970   30.7020   31.3200 H   0  0  0  0  0  0  0  0  0  0  0  0
   36.6310   30.7310   29.6420 H   0  0  0  0  0  0  0  0  0  0  0  0
   38.6400   29.2850   29.6300 H   0  0  0  0  0  0  0  0  0  0  0  0
   36.9500   28.1280   29.1750 N   0  0  0  0  0  0  0  0  0  0  0  0
   37.3430   27.1790   29.0480 H   0  0  0  0  0  0  0  0  0  0  0  0
   35.9320   28.1750   29.2920 H   0  0  0  0  0  0  0  0  0  0  0  0
   36.5340   22.6440   31.4650 C   0  0  0  0  0  0  0  0  0  0  0  0
   36.0530   23.8660   31.0510 C   0  0  0  0  0  0  0  0  0  0  0  0
   36.4180   24.9950   31.7440 C   0  0  0  0  0  0  0  0  0  0  0  0
   37.2640   24.8410   32.8390 N   0  0  0  0  0  0  0  0  0  0  0  0
   37.6920   23.6300   33.1850 C   0  0  0  0  0  0  0  0  0  0  0  0
   37.3400   22.5260   32.5150 N   0  0  0  0  0  0  0  0  0  0  0  0
   36.2480   21.7330   30.9180 H   0  0  0  0  0  0  0  0  0  0  0  0
   35.4010   23.9810   30.2070 H   0  0  0  0  0  0  0  0  0  0  0  0
   38.5820   23.5050   34.3430 C   0  0  0  0  0  0  0  0  0  0  0  0
   39.7510   23.9360   34.3650 O   0  0  0  0  0  0  0  0  0  0  0  0
   38.3400   24.6800   36.8640 N   0  0  0  0  0  0  0  0  0  0  0  0
   37.9380   23.4560   36.7800 C   0  0  0  0  0  0  0  0  0  0  0  0
   38.0530   22.8430   35.5090 N   0  0  0  0  0  0  0  0  0  0  0  0
   37.4030   22.7190   37.8670 N   0  0  0  0  0  0  0  0  0  0  0  0
   37.3700   21.6950   37.8270 H   0  0  0  0  0  0  0  0  0  0  0  0
   38.2490   25.1240   37.8160 H   0  0  0  0  0  0  0  0  0  0  0  0
   37.7310   21.8510   35.4200 H   0  0  0  0  0  0  0  0  0  0  0  0
   37.0630   23.2590   38.6690 H   0  0  0  0  0  0  0  0  0  0  0  0
  1 21  1  0  0  0  0
  1  3  1  0  0  0  0
  2  3  1  0  0  0  0
  3  4  1  0  0  0  0
  3  9  1  1  0  0  0
  4 11  1  0  0  0  0
  4 10  1  0  0  0  0
  5 12  1  0  0  0  0
  5  4  1  0  0  0  0
  6  5  1  0  0  0  0
  6 13  1  0  0  0  0
  7 15  1  6  0  0  0
  7  6  1  0  0  0  0
  7  2  1  0  0  0  0
  8  2  1  0  0  0  0
 14  6  1  0  0  0  0
 16 18  1  0  0  0  0
 16  7  1  0  0  0  0
 17 16  1  0  0  0  0
 19 24  1  0  0  0  0
 20 19  2  0  0  0  0
 20 21  1  0  0  0  0
 21 22  2  0  0  0  0
 22 23  1  0  0  0  0
 23 27  1  0  0  0  0
 24 23  2  0  0  0  0
 25 19  1  0  0  0  0
 26 20  1  0  0  0  0
 27 28  2  0  0  0  0
 27 31  1  0  0  0  0
 29 34  1  0  0  0  0
 30 29  2  0  0  0  0
 30 32  1  0  0  0  0
 31 30  1  0  0  0  0
 32 36  1  0  0  0  0
 33 32  1  0  0  0  0
 35 31  1  0  0  0  0
M  END
>  <minimizedAffinity>
-5.033288

$$$$

 OpenBabel03262521023D

 36 37  0  0  1  0  0  0  0  0999 V2000
   37.5580   26.3560   34.7930 S   0  0  0  0  0  0  0  0  0  0  0  0
   36.4240   26.0480   32.3380 N   0  0  0  0  0  0  0  0  0  0  0  0
   37.5220   25.5870   33.1290 C   0  0  1  0  0  0  0  0  0  0  0  0
   38.8270   25.9590   32.4770 C   0  0  0  0  0  0  0  0  0  0  0  0
   38.8520   27.4100   32.3560 N   0  0  0  0  0  0  0  0  0  0  0  0
   37.8350   27.7100   31.3380 C   0  0  0  0  0  0  0  0  0  0  0  0
   36.4950   27.4370   32.0080 C   0  0  2  0  0  0  0  0  0  0  0  0
   35.5110   25.6750   32.5870 H   0  0  0  0  0  0  0  0  0  0  0  0
   37.4710   24.4920   33.2390 H   0  0  0  0  0  0  0  0  0  0  0  0
   39.6710   25.7020   33.1620 H   0  0  0  0  0  0  0  0  0  0  0  0
   38.9680   25.5240   31.4680 H   0  0  0  0  0  0  0  0  0  0  0  0
   39.7830   27.7690   32.1110 H   0  0  0  0  0  0  0  0  0  0  0  0
   38.0060   26.9710   30.5270 H   0  0  0  0  0  0  0  0  0  0  0  0
   37.8780   28.7480   31.0040 H   0  0  0  0  0  0  0  0  0  0  0  0
   35.6820   27.6390   31.2800 H   0  0  0  0  0  0  0  0  0  0  0  0
   36.3520   28.3250   33.1460 N   0  0  0  0  0  0  0  0  0  0  0  0
   35.5950   28.0330   33.7880 H   0  0  0  0  0  0  0  0  0  0  0  0
   37.2340   28.5970   33.5930 H   0  0  0  0  0  0  0  0  0  0  0  0
   38.1470   24.1560   38.1410 C   0  0  0  0  0  0  0  0  0  0  0  0
   37.6760   25.1470   37.3090 C   0  0  0  0  0  0  0  0  0  0  0  0
   38.0710   25.1550   35.9930 C   0  0  0  0  0  0  0  0  0  0  0  0
   38.9360   24.1510   35.5670 N   0  0  0  0  0  0  0  0  0  0  0  0
   39.3530   23.2230   36.4260 C   0  0  0  0  0  0  0  0  0  0  0  0
   38.9730   23.2090   37.7080 N   0  0  0  0  0  0  0  0  0  0  0  0
   37.8370   24.1400   39.1970 H   0  0  0  0  0  0  0  0  0  0  0  0
   37.0090   25.9200   37.6400 H   0  0  0  0  0  0  0  0  0  0  0  0
   40.2640   22.1810   35.9430 C   0  0  0  0  0  0  0  0  0  0  0  0
   40.6440   22.0900   34.7590 O   0  0  0  0  0  0  0  0  0  0  0  0
   42.9450   21.7630   36.6000 N   0  0  0  0  0  0  0  0  0  0  0  0
   42.0960   21.0210   37.2280 C   0  0  0  0  0  0  0  0  0  0  0  0
   40.7310   21.2180   36.9080 N   0  0  0  0  0  0  0  0  0  0  0  0
   42.4550   20.0470   38.1940 N   0  0  0  0  0  0  0  0  0  0  0  0
   41.7950   19.3040   38.4450 H   0  0  0  0  0  0  0  0  0  0  0  0
   43.9580   21.6050   36.8470 H   0  0  0  0  0  0  0  0  0  0  0  0
   40.0280   20.6260   37.4080 H   0  0  0  0  0  0  0  0  0  0  0  0
   43.3880   20.1300   38.6110 H   0  0  0  0  0  0  0  0  0  0  0  0
  1 21  1  0  0  0  0
  2  8  1  0  0  0  0
  2  3  1  0  0  0  0
  3  9  1  1  0  0  0
  3  1  1  0  0  0  0
  4  3  1  0  0  0  0
  4 10  1  0  0  0  0
  5  4  1  0  0  0  0
  6  7  1  0  0  0  0
  6  5  1  0  0  0  0
  7 15  1  6  0  0  0
  7  2  1  0  0  0  0
  7 16  1  0  0  0  0
 11  4  1  0  0  0  0
 12  5  1  0  0  0  0
 13  6  1  0  0  0  0
 14  6  1  0  0  0  0
 16 18  1  0  0  0  0
 16 17  1  0  0  0  0
 19 25  1  0  0  0  0
 20 26  1  0  0  0  0
 20 19  2  0  0  0  0
 21 20  1  0  0  0  0
 22 21  2  0  0  0  0
 22 23  1  0  0  0  0
 23 24  2  0  0  0  0
 24 19  1  0  0  0  0
 27 23  1  0  0  0  0
 27 31  1  0  0  0  0
 28 27  2  0  0  0  0
 29 34  1  0  0  0  0
 29 30  2  0  0  0  0
 30 32  1  0  0  0  0
 31 30  1  0  0  0  0
 31 35  1  0  0  0  0
 32 33  1  0  0  0  0
 32 36  1  0  0  0  0
M  END
>  <minimizedAffinity>
-5.02715063

$$$$

 OpenBabel03262521023D

 36 37  0  0  1  0  0  0  0  0999 V2000
   40.1740   26.4750   33.6520 S   0  0  0  0  0  0  0  0  0  0  0  0
   37.8430   25.5990   34.7500 N   0  0  0  0  0  0  0  0  0  0  0  0
   38.4980   25.7500   33.4880 C   0  0  1  0  0  0  0  0  0  0  0  0
   37.7240   26.6990   32.6110 C   0  0  0  0  0  0  0  0  0  0  0  0
   37.6520   27.9730   33.3100 N   0  0  0  0  0  0  0  0  0  0  0  0
   36.7570   27.7160   34.4480 C   0  0  0  0  0  0  0  0  0  0  0  0
   37.5550   26.8380   35.4030 C   0  0  2  0  0  0  0  0  0  0  0  0
   38.1740   24.8330   35.3320 H   0  0  0  0  0  0  0  0  0  0  0  0
   38.5750   24.7730   32.9860 H   0  0  0  0  0  0  0  0  0  0  0  0
   38.3080   26.9010   31.6790 H   0  0  0  0  0  0  0  0  0  0  0  0
   36.6920   26.3660   32.3850 H   0  0  0  0  0  0  0  0  0  0  0  0
   37.3220   28.7360   32.7050 H   0  0  0  0  0  0  0  0  0  0  0  0
   35.9080   27.1370   34.0270 H   0  0  0  0  0  0  0  0  0  0  0  0
   36.4560   28.6350   34.9540 H   0  0  0  0  0  0  0  0  0  0  0  0
   36.9240   26.6000   36.2840 H   0  0  0  0  0  0  0  0  0  0  0  0
   38.7310   27.5670   35.8360 N   0  0  0  0  0  0  0  0  0  0  0  0
   39.4390   26.9570   36.2800 H   0  0  0  0  0  0  0  0  0  0  0  0
   39.0920   28.2450   35.1560 H   0  0  0  0  0  0  0  0  0  0  0  0
   43.2910   24.4660   35.2770 C   0  0  0  0  0  0  0  0  0  0  0  0
   42.5930   25.3920   34.5340 C   0  0  0  0  0  0  0  0  0  0  0  0
   41.2200   25.3590   34.5500 C   0  0  0  0  0  0  0  0  0  0  0  0
   40.6010   24.3810   35.3230 N   0  0  0  0  0  0  0  0  0  0  0  0
   41.3370   23.5160   36.0180 C   0  0  0  0  0  0  0  0  0  0  0  0
   42.6750   23.5430   36.0070 N   0  0  0  0  0  0  0  0  0  0  0  0
   44.3920   24.4830   35.2720 H   0  0  0  0  0  0  0  0  0  0  0  0
   43.0730   26.1440   33.9390 H   0  0  0  0  0  0  0  0  0  0  0  0
   40.6520   22.5000   36.8220 C   0  0  0  0  0  0  0  0  0  0  0  0
   41.2320   21.7630   37.6440 O   0  0  0  0  0  0  0  0  0  0  0  0
   38.7410   22.8550   38.8270 N   0  0  0  0  0  0  0  0  0  0  0  0
   38.2760   22.5470   37.6630 C   0  0  0  0  0  0  0  0  0  0  0  0
   39.2300   22.3620   36.6330 N   0  0  0  0  0  0  0  0  0  0  0  0
   36.8970   22.3890   37.3760 N   0  0  0  0  0  0  0  0  0  0  0  0
   36.6010   21.8760   36.5390 H   0  0  0  0  0  0  0  0  0  0  0  0
   38.0210   22.9880   39.5840 H   0  0  0  0  0  0  0  0  0  0  0  0
   38.8720   22.1130   35.6820 H   0  0  0  0  0  0  0  0  0  0  0  0
   36.2350   22.8070   38.0380 H   0  0  0  0  0  0  0  0  0  0  0  0
  1 21  1  0  0  0  0
  2  8  1  0  0  0  0
  2  7  1  0  0  0  0
  3  9  1  6  0  0  0
  3  1  1  0  0  0  0
  3  2  1  0  0  0  0
  4  5  1  0  0  0  0
  4  3  1  0  0  0  0
  5  6  1  0  0  0  0
  6 14  1  0  0  0  0
  6  7  1  0  0  0  0
  7 16  1  0  0  0  0
  7 15  1  1  0  0  0
 10  4  1  0  0  0  0
 11  4  1  0  0  0  0
 12  5  1  0  0  0  0
 13  6  1  0  0  0  0
 16 17  1  0  0  0  0
 18 16  1  0  0  0  0
 19 24  1  0  0  0  0
 20 21  1  0  0  0  0
 20 19  2  0  0  0  0
 21 22  2  0  0  0  0
 22 23  1  0  0  0  0
 23 27  1  0  0  0  0
 24 23  2  0  0  0  0
 25 19  1  0  0  0  0
 26 20  1  0  0  0  0
 27 28  2  0  0  0  0
 29 34  1  0  0  0  0
 30 29  2  0  0  0  0
 31 27  1  0  0  0  0
 31 30  1  0  0  0  0
 32 30  1  0  0  0  0
 32 36  1  0  0  0  0
 33 32  1  0  0  0  0
 35 31  1  0  0  0  0
M  END
>  <minimizedAffinity>
-4.90724611

$$$$

 OpenBabel03262521023D

 36 37  0  0  1  0  0  0  0  0999 V2000
   39.9290   23.8200   35.4230 S   0  0  0  0  0  0  0  0  0  0  0  0
   38.0800   22.4490   36.8730 N   0  0  0  0  0  0  0  0  0  0  0  0
   38.1870   23.4430   35.8520 C   0  0  1  0  0  0  0  0  0  0  0  0
   37.5910   24.7430   36.3260 C   0  0  0  0  0  0  0  0  0  0  0  0
   38.3240   25.1460   37.5170 N   0  0  0  0  0  0  0  0  0  0  0  0
   37.9270   24.1670   38.5400 C   0  0  0  0  0  0  0  0  0  0  0  0
   38.6020   22.8620   38.1380 C   0  0  2  0  0  0  0  0  0  0  0  0
   38.2690   21.4920   36.5820 H   0  0  0  0  0  0  0  0  0  0  0  0
   37.6570   23.1100   34.9470 H   0  0  0  0  0  0  0  0  0  0  0  0
   37.7910   25.5400   35.5680 H   0  0  0  0  0  0  0  0  0  0  0  0
   36.5160   24.6790   36.5830 H   0  0  0  0  0  0  0  0  0  0  0  0
   38.1250   26.1160   37.7920 H   0  0  0  0  0  0  0  0  0  0  0  0
   36.8260   24.0670   38.4370 H   0  0  0  0  0  0  0  0  0  0  0  0
   38.2510   24.4590   39.5400 H   0  0  0  0  0  0  0  0  0  0  0  0
   38.3290   22.0770   38.8730 H   0  0  0  0  0  0  0  0  0  0  0  0
   40.0390   23.0560   38.1520 N   0  0  0  0  0  0  0  0  0  0  0  0
   40.5490   22.3030   37.6570 H   0  0  0  0  0  0  0  0  0  0  0  0
   40.3470   24.0120   37.9430 H   0  0  0  0  0  0  0  0  0  0  0  0
   40.7090   27.2330   33.3880 C   0  0  0  0  0  0  0  0  0  0  0  0
   40.7620   26.2710   34.3720 C   0  0  0  0  0  0  0  0  0  0  0  0
   39.9790   25.1490   34.2490 C   0  0  0  0  0  0  0  0  0  0  0  0
   39.1640   25.0440   33.1250 N   0  0  0  0  0  0  0  0  0  0  0  0
   39.1610   26.0130   32.2120 C   0  0  0  0  0  0  0  0  0  0  0  0
   39.9210   27.1080   32.3250 N   0  0  0  0  0  0  0  0  0  0  0  0
   41.3320   28.1360   33.4760 H   0  0  0  0  0  0  0  0  0  0  0  0
   41.3910   26.3550   35.2370 H   0  0  0  0  0  0  0  0  0  0  0  0
   38.2910   25.8690   31.0410 C   0  0  0  0  0  0  0  0  0  0  0  0
   37.4360   24.9690   30.9230 O   0  0  0  0  0  0  0  0  0  0  0  0
   36.2830   27.5850   30.1360 N   0  0  0  0  0  0  0  0  0  0  0  0
   37.4210   27.6940   29.5360 C   0  0  0  0  0  0  0  0  0  0  0  0
   38.4510   26.8320   29.9810 N   0  0  0  0  0  0  0  0  0  0  0  0
   37.6790   28.6090   28.4840 N   0  0  0  0  0  0  0  0  0  0  0  0
   38.4810   28.4640   27.8610 H   0  0  0  0  0  0  0  0  0  0  0  0
   35.5250   28.2330   29.7950 H   0  0  0  0  0  0  0  0  0  0  0  0
   39.3820   26.9060   29.5070 H   0  0  0  0  0  0  0  0  0  0  0  0
   37.0330   29.3990   28.3880 H   0  0  0  0  0  0  0  0  0  0  0  0
  1  3  1  0  0  0  0
  2  7  1  0  0  0  0
  3  9  1  6  0  0  0
  3  4  1  0  0  0  0
  3  2  1  0  0  0  0
  4 11  1  0  0  0  0
  4  5  1  0  0  0  0
  5 12  1  0  0  0  0
  5  6  1  0  0  0  0
  6 14  1  0  0  0  0
  7 16  1  0  0  0  0
  7  6  1  0  0  0  0
  7 15  1  1  0  0  0
  8  2  1  0  0  0  0
 10  4  1  0  0  0  0
 13  6  1  0  0  0  0
 17 16  1  0  0  0  0
 18 16  1  0  0  0  0
 19 25  1  0  0  0  0
 19 20  1  0  0  0  0
 20 26  1  0  0  0  0
 21 20  2  0  0  0  0
 21  1  1  0  0  0  0
 22 21  1  0  0  0  0
 23 24  1  0  0  0  0
 23 22  2  0  0  0  0
 24 19  2  0  0  0  0
 27 23  1  0  0  0  0
 28 27  2  0  0  0  0
 30 31  1  0  0  0  0
 30 29  2  0  0  0  0
 31 27  1  0  0  0  0
 32 30  1  0  0  0  0
 33 32  1  0  0  0  0
 34 29  1  0  0  0  0
 35 31  1  0  0  0  0
 36 32  1  0  0  0  0
M  END
>  <minimizedAffinity>
-4.7924881

$$$$

 OpenBabel03262521023D

 36 37  0  0  1  0  0  0  0  0999 V2000
   38.2670   26.8420   30.9900 S   0  0  0  0  0  0  0  0  0  0  0  0
   40.1260   24.8650   30.7850 N   0  0  0  0  0  0  0  0  0  0  0  0
   39.9710   26.2770   30.6200 C   0  0  1  0  0  0  0  0  0  0  0  0
   40.2310   26.6650   29.1880 C   0  0  0  0  0  0  0  0  0  0  0  0
   39.2740   25.9410   28.3640 N   0  0  0  0  0  0  0  0  0  0  0  0
   39.7060   24.5390   28.4460 C   0  0  0  0  0  0  0  0  0  0  0  0
   39.3610   24.0890   29.8600 C   0  0  2  0  0  0  0  0  0  0  0  0
   40.1690   24.5330   31.7460 H   0  0  0  0  0  0  0  0  0  0  0  0
   40.6780   26.8100   31.2740 H   0  0  0  0  0  0  0  0  0  0  0  0
   39.9890   27.7470   29.0480 H   0  0  0  0  0  0  0  0  0  0  0  0
   41.2510   26.4220   28.8320 H   0  0  0  0  0  0  0  0  0  0  0  0
   39.2390   26.2940   27.3990 H   0  0  0  0  0  0  0  0  0  0  0  0
   40.8090   24.5650   28.3200 H   0  0  0  0  0  0  0  0  0  0  0  0
   39.1950   23.9050   27.7200 H   0  0  0  0  0  0  0  0  0  0  0  0
   39.6750   23.0320   29.9860 H   0  0  0  0  0  0  0  0  0  0  0  0
   37.9260   24.1900   30.0450 N   0  0  0  0  0  0  0  0  0  0  0  0
   37.6470   24.1420   31.0400 H   0  0  0  0  0  0  0  0  0  0  0  0
   37.4710   24.9230   29.4910 H   0  0  0  0  0  0  0  0  0  0  0  0
   37.1480   27.1680   34.8680 C   0  0  0  0  0  0  0  0  0  0  0  0
   37.3810   27.5090   33.5540 C   0  0  0  0  0  0  0  0  0  0  0  0
   37.9080   26.5670   32.7060 C   0  0  0  0  0  0  0  0  0  0  0  0
   38.1810   25.3040   33.2240 N   0  0  0  0  0  0  0  0  0  0  0  0
   37.9310   25.0410   34.5050 C   0  0  0  0  0  0  0  0  0  0  0  0
   37.4190   25.9550   35.3370 N   0  0  0  0  0  0  0  0  0  0  0  0
   36.7270   27.9150   35.5580 H   0  0  0  0  0  0  0  0  0  0  0  0
   37.1700   28.4840   33.1580 H   0  0  0  0  0  0  0  0  0  0  0  0
   38.2310   23.7010   35.0160 C   0  0  0  0  0  0  0  0  0  0  0  0
   38.5970   22.7520   34.2950 O   0  0  0  0  0  0  0  0  0  0  0  0
   40.2910   22.9040   36.7240 N   0  0  0  0  0  0  0  0  0  0  0  0
   39.1430   23.0880   37.2850 C   0  0  0  0  0  0  0  0  0  0  0  0
   38.0860   23.4920   36.4350 N   0  0  0  0  0  0  0  0  0  0  0  0
   38.8990   22.9090   38.6700 N   0  0  0  0  0  0  0  0  0  0  0  0
   37.9400   22.7860   39.0120 H   0  0  0  0  0  0  0  0  0  0  0  0
   41.0690   22.6030   37.3680 H   0  0  0  0  0  0  0  0  0  0  0  0
   37.1470   23.6470   36.8720 H   0  0  0  0  0  0  0  0  0  0  0  0
   39.7160   22.9090   39.2880 H   0  0  0  0  0  0  0  0  0  0  0  0
  1 21  1  0  0  0  0
  2  8  1  0  0  0  0
  3  2  1  0  0  0  0
  3  1  1  0  0  0  0
  3  9  1  1  0  0  0
  4  3  1  0  0  0  0
  5  6  1  0  0  0  0
  5  4  1  0  0  0  0
  6  7  1  0  0  0  0
  7 15  1  1  0  0  0
  7 16  1  0  0  0  0
  7  2  1  0  0  0  0
 10  4  1  0  0  0  0
 11  4  1  0  0  0  0
 12  5  1  0  0  0  0
 13  6  1  0  0  0  0
 14  6  1  0  0  0  0
 16 17  1  0  0  0  0
 18 16  1  0  0  0  0
 19 24  1  0  0  0  0
 19 25  1  0  0  0  0
 20 19  2  0  0  0  0
 21 22  2  0  0  0  0
 21 20  1  0  0  0  0
 22 23  1  0  0  0  0
 23 27  1  0  0  0  0
 23 24  2  0  0  0  0
 26 20  1  0  0  0  0
 27 31  1  0  0  0  0
 28 27  2  0  0  0  0
 29 30  2  0  0  0  0
 29 34  1  0  0  0  0
 30 32  1  0  0  0  0
 31 35  1  0  0  0  0
 31 30  1  0  0  0  0
 32 33  1  0  0  0  0
 32 36  1  0  0  0  0
M  END
>  <minimizedAffinity>
-4.78216553

$$$$

 OpenBabel03262521023D

 36 37  0  0  1  0  0  0  0  0999 V2000
   34.1340   29.9460   34.5400 S   0  0  0  0  0  0  0  0  0  0  0  0
   33.4590   32.5360   35.0340 N   0  0  0  0  0  0  0  0  0  0  0  0
   34.4630   31.7440   34.3940 C   0  0  1  0  0  0  0  0  0  0  0  0
   35.8000   31.9710   35.0480 C   0  0  0  0  0  0  0  0  0  0  0  0
   35.6660   31.5990   36.4490 N   0  0  0  0  0  0  0  0  0  0  0  0
   34.7980   32.6390   37.0220 C   0  0  0  0  0  0  0  0  0  0  0  0
   33.4110   32.3700   36.4530 C   0  0  2  0  0  0  0  0  0  0  0  0
   32.5710   32.6060   34.5430 H   0  0  0  0  0  0  0  0  0  0  0  0
   34.5300   32.0120   33.3280 H   0  0  0  0  0  0  0  0  0  0  0  0
   36.5480   31.2580   34.6200 H   0  0  0  0  0  0  0  0  0  0  0  0
   36.1560   33.0190   34.9980 H   0  0  0  0  0  0  0  0  0  0  0  0
   36.5730   31.5270   36.9260 H   0  0  0  0  0  0  0  0  0  0  0  0
   35.1880   33.5980   36.6210 H   0  0  0  0  0  0  0  0  0  0  0  0
   34.7660   32.5970   38.1110 H   0  0  0  0  0  0  0  0  0  0  0  0
   32.7090   33.1340   36.8450 H   0  0  0  0  0  0  0  0  0  0  0  0
   32.9780   31.0530   36.8810 N   0  0  0  0  0  0  0  0  0  0  0  0
   32.1680   30.7030   36.3400 H   0  0  0  0  0  0  0  0  0  0  0  0
   33.7350   30.3790   37.0340 H   0  0  0  0  0  0  0  0  0  0  0  0
   36.7840   28.2840   31.9690 C   0  0  0  0  0  0  0  0  0  0  0  0
   35.7280   29.0360   32.4340 C   0  0  0  0  0  0  0  0  0  0  0  0
   35.4540   29.0360   33.7800 C   0  0  0  0  0  0  0  0  0  0  0  0
   36.2660   28.2680   34.6100 N   0  0  0  0  0  0  0  0  0  0  0  0
   37.2710   27.5650   34.0930 C   0  0  0  0  0  0  0  0  0  0  0  0
   37.5440   27.5600   32.7840 N   0  0  0  0  0  0  0  0  0  0  0  0
   37.0140   28.2760   30.8920 H   0  0  0  0  0  0  0  0  0  0  0  0
   35.1040   29.6260   31.7910 H   0  0  0  0  0  0  0  0  0  0  0  0
   38.1050   26.7680   34.9970 C   0  0  0  0  0  0  0  0  0  0  0  0
   37.6660   25.8390   35.7030 O   0  0  0  0  0  0  0  0  0  0  0  0
   40.1780   25.0070   34.3630 N   0  0  0  0  0  0  0  0  0  0  0  0
   40.5440   26.1890   34.7310 C   0  0  0  0  0  0  0  0  0  0  0  0
   39.5070   27.0950   35.0570 N   0  0  0  0  0  0  0  0  0  0  0  0
   41.8960   26.6080   34.8220 N   0  0  0  0  0  0  0  0  0  0  0  0
   42.1420   27.4330   35.3790 H   0  0  0  0  0  0  0  0  0  0  0  0
   40.9590   24.3420   34.1240 H   0  0  0  0  0  0  0  0  0  0  0  0
   39.7850   28.0590   35.3570 H   0  0  0  0  0  0  0  0  0  0  0  0
   42.5890   26.0510   34.3120 H   0  0  0  0  0  0  0  0  0  0  0  0
  2  7  1  0  0  0  0
  3  9  1  6  0  0  0
  3  1  1  0  0  0  0
  3  2  1  0  0  0  0
  3  4  1  0  0  0  0
  4  5  1  0  0  0  0
  5 12  1  0  0  0  0
  5  6  1  0  0  0  0
  6 14  1  0  0  0  0
  7 15  1  1  0  0  0
  7 16  1  0  0  0  0
  7  6  1  0  0  0  0
  8  2  1  0  0  0  0
 10  4  1  0  0  0  0
 11  4  1  0  0  0  0
 13  6  1  0  0  0  0
 16 18  1  0  0  0  0
 17 16  1  0  0  0  0
 19 20  2  0  0  0  0
 19 24  1  0  0  0  0
 20 21  1  0  0  0  0
 21  1  1  0  0  0  0
 21 22  2  0  0  0  0
 23 22  1  0  0  0  0
 23 27  1  0  0  0  0
 24 23  2  0  0  0  0
 25 19  1  0  0  0  0
 26 20  1  0  0  0  0
 27 31  1  0  0  0  0
 27 28  2  0  0  0  0
 29 30  2  0  0  0  0
 30 32  1  0  0  0  0
 30 31  1  0  0  0  0
 31 35  1  0  0  0  0
 32 33  1  0  0  0  0
 34 29  1  0  0  0  0
 36 32  1  0  0  0  0
M  END
>  <minimizedAffinity>
-4.73922348

$$$$
