
 OpenBabel03262521013D

 36 37  0  0  1  0  0  0  0  0999 V2000
   37.6100   30.7050   45.6500 S   0  0  0  0  0  0  0  0  0  0  0  0
   39.2840   32.7240   46.3770 N   0  0  0  0  0  0  0  0  0  0  0  0
   38.0770   32.4780   45.6500 C   0  0  1  0  0  0  0  0  0  0  0  0
   38.2550   32.8550   44.2030 C   0  0  0  0  0  0  0  0  0  0  0  0
   39.3480   32.0500   43.6780 N   0  0  0  0  0  0  0  0  0  0  0  0
   40.5470   32.5790   44.3430 C   0  0  0  0  0  0  0  0  0  0  0  0
   40.4420   32.1240   45.7930 C   0  0  2  0  0  0  0  0  0  0  0  0
   39.2040   32.6920   47.3910 H   0  0  0  0  0  0  0  0  0  0  0  0
   37.2530   33.0680   46.0800 H   0  0  0  0  0  0  0  0  0  0  0  0
   37.3500   32.5450   43.6260 H   0  0  0  0  0  0  0  0  0  0  0  0
   38.5010   33.9230   44.0420 H   0  0  0  0  0  0  0  0  0  0  0  0
   39.4080   32.0900   42.6520 H   0  0  0  0  0  0  0  0  0  0  0  0
   40.4470   33.6840   44.2900 H   0  0  0  0  0  0  0  0  0  0  0  0
   41.4680   32.1990   43.9010 H   0  0  0  0  0  0  0  0  0  0  0  0
   41.3210   32.5050   46.3530 H   0  0  0  0  0  0  0  0  0  0  0  0
   40.4400   30.6740   45.8280 N   0  0  0  0  0  0  0  0  0  0  0  0
   40.1250   30.2960   46.7380 H   0  0  0  0  0  0  0  0  0  0  0  0
   40.0400   30.2240   44.9980 H   0  0  0  0  0  0  0  0  0  0  0  0
   37.5780   30.0800   49.6510 C   0  0  0  0  0  0  0  0  0  0  0  0
   37.9660   30.5530   48.4170 C   0  0  0  0  0  0  0  0  0  0  0  0
   37.2460   30.1860   47.3070 C   0  0  0  0  0  0  0  0  0  0  0  0
   36.1510   29.3460   47.4900 N   0  0  0  0  0  0  0  0  0  0  0  0
   35.8310   28.9250   48.7120 C   0  0  0  0  0  0  0  0  0  0  0  0
   36.5280   29.2780   49.7970 N   0  0  0  0  0  0  0  0  0  0  0  0
   38.1480   30.3670   50.5480 H   0  0  0  0  0  0  0  0  0  0  0  0
   38.8110   31.2000   48.2800 H   0  0  0  0  0  0  0  0  0  0  0  0
   34.6720   28.0410   48.8680 C   0  0  0  0  0  0  0  0  0  0  0  0
   34.5470   26.9550   48.2700 O   0  0  0  0  0  0  0  0  0  0  0  0
   34.4030   30.6400   49.8540 N   0  0  0  0  0  0  0  0  0  0  0  0
   33.5130   29.7980   50.2540 C   0  0  0  0  0  0  0  0  0  0  0  0
   33.6310   28.4750   49.7650 N   0  0  0  0  0  0  0  0  0  0  0  0
   32.4510   30.1260   51.1370 N   0  0  0  0  0  0  0  0  0  0  0  0
   31.9540   29.3840   51.6420 H   0  0  0  0  0  0  0  0  0  0  0  0
   34.3020   31.6210   50.2250 H   0  0  0  0  0  0  0  0  0  0  0  0
   32.9180   27.7780   50.0800 H   0  0  0  0  0  0  0  0  0  0  0  0
   32.2180   31.1200   51.2320 H   0  0  0  0  0  0  0  0  0  0  0  0
  1  3  1  0  0  0  0
  1 21  1  0  0  0  0
  2  8  1  0  0  0  0
  3  9  1  1  0  0  0
  3  2  1  0  0  0  0
  4  3  1  0  0  0  0
  5  4  1  0  0  0  0
  5  6  1  0  0  0  0
  6  7  1  0  0  0  0
  7 16  1  0  0  0  0
  7 15  1  1  0  0  0
  7  2  1  0  0  0  0
 10  4  1  0  0  0  0
 11  4  1  0  0  0  0
 12  5  1  0  0  0  0
 13  6  1  0  0  0  0
 14  6  1  0  0  0  0
 16 17  1  0  0  0  0
 18 16  1  0  0  0  0
 19 24  1  0  0  0  0
 19 25  1  0  0  0  0
 20 19  2  0  0  0  0
 21 22  2  0  0  0  0
 21 20  1  0  0  0  0
 22 23  1  0  0  0  0
 23 27  1  0  0  0  0
 23 24  2  0  0  0  0
 26 20  1  0  0  0  0
 27 31  1  0  0  0  0
 28 27  2  0  0  0  0
 29 34  1  0  0  0  0
 29 30  2  0  0  0  0
 30 32  1  0  0  0  0
 31 35  1  0  0  0  0
 31 30  1  0  0  0  0
 32 36  1  0  0  0  0
 32 33  1  0  0  0  0
M  END
>  <minimizedAffinity>
-3.27222586

>  <minimizedRMSD>
1.32144892

$$$$
