
 OpenBabel03262521013D

 36 37  0  0  1  0  0  0  0  0999 V2000
   39.4940   31.2290   45.9260 S   0  0  0  0  0  0  0  0  0  0  0  0
   39.8790   32.6040   43.6090 N   0  0  0  0  0  0  0  0  0  0  0  0
   38.9240   32.4240   44.6580 C   0  0  1  0  0  0  0  0  0  0  0  0
   37.6440   31.8560   44.1050 C   0  0  0  0  0  0  0  0  0  0  0  0
   37.9700   30.5820   43.4800 N   0  0  0  0  0  0  0  0  0  0  0  0
   38.7520   30.9470   42.2900 C   0  0  0  0  0  0  0  0  0  0  0  0
   40.0960   31.4330   42.8190 C   0  0  2  0  0  0  0  0  0  0  0  0
   40.6950   33.1640   43.8440 H   0  0  0  0  0  0  0  0  0  0  0  0
   38.7120   33.3900   45.1420 H   0  0  0  0  0  0  0  0  0  0  0  0
   36.9540   31.6080   44.9480 H   0  0  0  0  0  0  0  0  0  0  0  0
   37.1540   32.4990   43.3480 H   0  0  0  0  0  0  0  0  0  0  0  0
   37.1340   30.0280   43.2560 H   0  0  0  0  0  0  0  0  0  0  0  0
   38.2030   31.7950   41.8280 H   0  0  0  0  0  0  0  0  0  0  0  0
   38.9020   30.1010   41.6180 H   0  0  0  0  0  0  0  0  0  0  0  0
   40.7310   31.7340   41.9610 H   0  0  0  0  0  0  0  0  0  0  0  0
   40.7360   30.3460   43.5340 N   0  0  0  0  0  0  0  0  0  0  0  0
   41.5230   30.6650   44.1250 H   0  0  0  0  0  0  0  0  0  0  0  0
   40.0920   29.6800   43.9740 H   0  0  0  0  0  0  0  0  0  0  0  0
   38.3690   33.1640   49.3000 C   0  0  0  0  0  0  0  0  0  0  0  0
   38.9210   32.9400   48.0580 C   0  0  0  0  0  0  0  0  0  0  0  0
   38.8380   31.6840   47.5100 C   0  0  0  0  0  0  0  0  0  0  0  0
   38.1940   30.6940   48.2460 N   0  0  0  0  0  0  0  0  0  0  0  0
   37.6820   30.9790   49.4420 C   0  0  0  0  0  0  0  0  0  0  0  0
   37.7600   32.2000   49.9820 N   0  0  0  0  0  0  0  0  0  0  0  0
   38.4300   34.1670   49.7500 H   0  0  0  0  0  0  0  0  0  0  0  0
   39.4170   33.7060   47.4940 H   0  0  0  0  0  0  0  0  0  0  0  0
   37.0120   29.9110   50.1890 C   0  0  0  0  0  0  0  0  0  0  0  0
   37.5740   28.8560   50.5400 O   0  0  0  0  0  0  0  0  0  0  0  0
   34.9170   28.2570   49.3680 N   0  0  0  0  0  0  0  0  0  0  0  0
   34.5770   29.2650   50.0980 C   0  0  0  0  0  0  0  0  0  0  0  0
   35.6250   30.1150   50.5240 N   0  0  0  0  0  0  0  0  0  0  0  0
   33.2420   29.5530   50.4820 N   0  0  0  0  0  0  0  0  0  0  0  0
   32.9910   30.4920   50.8060 H   0  0  0  0  0  0  0  0  0  0  0  0
   34.1270   27.6320   49.0590 H   0  0  0  0  0  0  0  0  0  0  0  0
   35.3680   30.9400   51.1170 H   0  0  0  0  0  0  0  0  0  0  0  0
   32.5660   28.7850   50.4170 H   0  0  0  0  0  0  0  0  0  0  0  0
  1 21  1  0  0  0  0
  2  8  1  0  0  0  0
  2  3  1  0  0  0  0
  3  9  1  1  0  0  0
  3  1  1  0  0  0  0
  4  3  1  0  0  0  0
  4 10  1  0  0  0  0
  5  4  1  0  0  0  0
  6  7  1  0  0  0  0
  6  5  1  0  0  0  0
  7 15  1  6  0  0  0
  7 16  1  0  0  0  0
  7  2  1  0  0  0  0
 11  4  1  0  0  0  0
 12  5  1  0  0  0  0
 13  6  1  0  0  0  0
 14  6  1  0  0  0  0
 16 18  1  0  0  0  0
 16 17  1  0  0  0  0
 19 25  1  0  0  0  0
 19 24  1  0  0  0  0
 20 19  2  0  0  0  0
 21 20  1  0  0  0  0
 21 22  2  0  0  0  0
 22 23  1  0  0  0  0
 23 24  2  0  0  0  0
 23 27  1  0  0  0  0
 26 20  1  0  0  0  0
 27 31  1  0  0  0  0
 27 28  2  0  0  0  0
 29 30  2  0  0  0  0
 30 32  1  0  0  0  0
 30 31  1  0  0  0  0
 31 35  1  0  0  0  0
 32 33  1  0  0  0  0
 34 29  1  0  0  0  0
 36 32  1  0  0  0  0
M  END
>  <minimizedAffinity>
-5.85028505

>  <minimizedRMSD>
2.30471087

$$$$
