
 OpenBabel03262521013D

 36 37  0  0  1  0  0  0  0  0999 V2000
   38.9760   32.2780   47.2090 S   0  0  0  0  0  0  0  0  0  0  0  0
   38.2970   32.8690   44.6410 N   0  0  0  0  0  0  0  0  0  0  0  0
   38.1680   31.8380   45.6230 C   0  0  1  0  0  0  0  0  0  0  0  0
   38.8490   30.5810   45.1510 C   0  0  0  0  0  0  0  0  0  0  0  0
   40.2500   30.9060   44.9250 N   0  0  0  0  0  0  0  0  0  0  0  0
   40.2370   31.7810   43.7430 C   0  0  0  0  0  0  0  0  0  0  0  0
   39.6430   33.1000   44.2200 C   0  0  2  0  0  0  0  0  0  0  0  0
   37.7050   33.6860   44.7750 H   0  0  0  0  0  0  0  0  0  0  0  0
   37.1030   31.6270   45.8080 H   0  0  0  0  0  0  0  0  0  0  0  0
   38.8460   29.8260   45.9750 H   0  0  0  0  0  0  0  0  0  0  0  0
   38.4320   30.1670   44.2120 H   0  0  0  0  0  0  0  0  0  0  0  0
   40.8320   30.0690   44.7980 H   0  0  0  0  0  0  0  0  0  0  0  0
   39.5420   31.2940   43.0270 H   0  0  0  0  0  0  0  0  0  0  0  0
   41.2370   31.9480   43.3410 H   0  0  0  0  0  0  0  0  0  0  0  0
   39.5990   33.8030   43.3630 H   0  0  0  0  0  0  0  0  0  0  0  0
   40.5010   33.6520   45.2520 N   0  0  0  0  0  0  0  0  0  0  0  0
   40.0420   34.4060   45.7910 H   0  0  0  0  0  0  0  0  0  0  0  0
   41.0100   32.9560   45.8060 H   0  0  0  0  0  0  0  0  0  0  0  0
   38.0330   30.5820   50.7630 C   0  0  0  0  0  0  0  0  0  0  0  0
   38.6740   31.3710   49.8340 C   0  0  0  0  0  0  0  0  0  0  0  0
   38.2600   31.3290   48.5260 C   0  0  0  0  0  0  0  0  0  0  0  0
   37.2030   30.4820   48.2040 N   0  0  0  0  0  0  0  0  0  0  0  0
   36.6270   29.7460   49.1530 C   0  0  0  0  0  0  0  0  0  0  0  0
   37.0260   29.7820   50.4290 N   0  0  0  0  0  0  0  0  0  0  0  0
   38.3560   30.6070   51.8150 H   0  0  0  0  0  0  0  0  0  0  0  0
   39.4890   32.0230   50.0850 H   0  0  0  0  0  0  0  0  0  0  0  0
   35.5170   28.8650   48.7780 C   0  0  0  0  0  0  0  0  0  0  0  0
   35.4610   28.2440   47.6990 O   0  0  0  0  0  0  0  0  0  0  0  0
   33.9300   30.9690   49.7040 N   0  0  0  0  0  0  0  0  0  0  0  0
   33.6480   29.8050   50.1840 C   0  0  0  0  0  0  0  0  0  0  0  0
   34.4410   28.7250   49.7270 N   0  0  0  0  0  0  0  0  0  0  0  0
   32.6090   29.5640   51.1200 N   0  0  0  0  0  0  0  0  0  0  0  0
   32.6090   28.7020   51.6780 H   0  0  0  0  0  0  0  0  0  0  0  0
   33.3320   31.7630   50.0520 H   0  0  0  0  0  0  0  0  0  0  0  0
   34.2260   27.7730   50.1060 H   0  0  0  0  0  0  0  0  0  0  0  0
   31.8840   30.2820   51.2020 H   0  0  0  0  0  0  0  0  0  0  0  0
  1 21  1  0  0  0  0
  2  8  1  0  0  0  0
  2  3  1  0  0  0  0
  3  9  1  1  0  0  0
  3  1  1  0  0  0  0
  4  3  1  0  0  0  0
  4 10  1  0  0  0  0
  5  4  1  0  0  0  0
  6  7  1  0  0  0  0
  6  5  1  0  0  0  0
  7 15  1  6  0  0  0
  7  2  1  0  0  0  0
  7 16  1  0  0  0  0
 11  4  1  0  0  0  0
 12  5  1  0  0  0  0
 13  6  1  0  0  0  0
 14  6  1  0  0  0  0
 16 17  1  0  0  0  0
 16 18  1  0  0  0  0
 19 25  1  0  0  0  0
 20 26  1  0  0  0  0
 20 19  2  0  0  0  0
 21 20  1  0  0  0  0
 22 21  2  0  0  0  0
 22 23  1  0  0  0  0
 23 24  2  0  0  0  0
 24 19  1  0  0  0  0
 27 23  1  0  0  0  0
 27 31  1  0  0  0  0
 28 27  2  0  0  0  0
 29 34  1  0  0  0  0
 29 30  2  0  0  0  0
 30 32  1  0  0  0  0
 31 35  1  0  0  0  0
 31 30  1  0  0  0  0
 32 36  1  0  0  0  0
 32 33  1  0  0  0  0
M  END
>  <minimizedAffinity>
-4.34838581

>  <minimizedRMSD>
1.56468904

$$$$
