
 OpenBabel03262521013D

 36 37  0  0  1  0  0  0  0  0999 V2000
   37.5340   30.6950   45.6100 S   0  0  0  0  0  0  0  0  0  0  0  0
   39.2350   32.6620   46.4110 N   0  0  0  0  0  0  0  0  0  0  0  0
   38.0350   32.4570   45.6620 C   0  0  1  0  0  0  0  0  0  0  0  0
   38.2390   32.8680   44.2280 C   0  0  0  0  0  0  0  0  0  0  0  0
   39.3240   32.0560   43.6960 N   0  0  0  0  0  0  0  0  0  0  0  0
   40.5230   32.5460   44.3910 C   0  0  0  0  0  0  0  0  0  0  0  0
   40.3900   32.0550   45.8270 C   0  0  2  0  0  0  0  0  0  0  0  0
   39.1410   32.6050   47.4220 H   0  0  0  0  0  0  0  0  0  0  0  0
   37.2160   33.0520   46.0960 H   0  0  0  0  0  0  0  0  0  0  0  0
   37.3360   32.5910   43.6300 H   0  0  0  0  0  0  0  0  0  0  0  0
   38.5070   33.9350   44.0970 H   0  0  0  0  0  0  0  0  0  0  0  0
   39.3990   32.1210   42.6720 H   0  0  0  0  0  0  0  0  0  0  0  0
   40.4450   33.6530   44.3640 H   0  0  0  0  0  0  0  0  0  0  0  0
   41.4430   32.1590   43.9510 H   0  0  0  0  0  0  0  0  0  0  0  0
   41.2680   32.4040   46.4080 H   0  0  0  0  0  0  0  0  0  0  0  0
   40.3610   30.6050   45.8240 N   0  0  0  0  0  0  0  0  0  0  0  0
   40.0260   30.2100   46.7200 H   0  0  0  0  0  0  0  0  0  0  0  0
   39.9640   30.1840   44.9770 H   0  0  0  0  0  0  0  0  0  0  0  0
   37.4370   29.9630   49.5910 C   0  0  0  0  0  0  0  0  0  0  0  0
   37.8520   30.4590   48.3750 C   0  0  0  0  0  0  0  0  0  0  0  0
   37.1360   30.1400   47.2480 C   0  0  0  0  0  0  0  0  0  0  0  0
   36.0180   29.3240   47.3950 N   0  0  0  0  0  0  0  0  0  0  0  0
   35.6730   28.8790   48.6010 C   0  0  0  0  0  0  0  0  0  0  0  0
   36.3660   29.1850   49.7040 N   0  0  0  0  0  0  0  0  0  0  0  0
   38.0030   30.2120   50.5020 H   0  0  0  0  0  0  0  0  0  0  0  0
   38.7140   31.0880   48.2650 H   0  0  0  0  0  0  0  0  0  0  0  0
   34.4910   28.0210   48.7190 C   0  0  0  0  0  0  0  0  0  0  0  0
   34.3750   26.9210   48.1430 O   0  0  0  0  0  0  0  0  0  0  0  0
   34.5080   30.4430   50.1090 N   0  0  0  0  0  0  0  0  0  0  0  0
   33.4420   29.7280   50.2490 C   0  0  0  0  0  0  0  0  0  0  0  0
   33.4140   28.4960   49.5510 N   0  0  0  0  0  0  0  0  0  0  0  0
   32.3310   30.1070   51.0440 N   0  0  0  0  0  0  0  0  0  0  0  0
   31.6520   29.4020   51.3500 H   0  0  0  0  0  0  0  0  0  0  0  0
   34.5150   31.3560   50.6340 H   0  0  0  0  0  0  0  0  0  0  0  0
   32.5580   27.9030   49.6520 H   0  0  0  0  0  0  0  0  0  0  0  0
   32.2530   31.1000   51.2870 H   0  0  0  0  0  0  0  0  0  0  0  0
  1  3  1  0  0  0  0
  1 21  1  0  0  0  0
  2  8  1  0  0  0  0
  3  9  1  1  0  0  0
  3  2  1  0  0  0  0
  4  3  1  0  0  0  0
  5  4  1  0  0  0  0
  5  6  1  0  0  0  0
  6  7  1  0  0  0  0
  7 15  1  1  0  0  0
  7  2  1  0  0  0  0
 10  4  1  0  0  0  0
 11  4  1  0  0  0  0
 12  5  1  0  0  0  0
 13  6  1  0  0  0  0
 14  6  1  0  0  0  0
 16  7  1  0  0  0  0
 16 17  1  0  0  0  0
 18 16  1  0  0  0  0
 19 24  1  0  0  0  0
 19 25  1  0  0  0  0
 20 19  2  0  0  0  0
 21 22  2  0  0  0  0
 21 20  1  0  0  0  0
 22 23  1  0  0  0  0
 23 27  1  0  0  0  0
 23 24  2  0  0  0  0
 26 20  1  0  0  0  0
 27 31  1  0  0  0  0
 28 27  2  0  0  0  0
 29 30  2  0  0  0  0
 29 34  1  0  0  0  0
 30 32  1  0  0  0  0
 31 35  1  0  0  0  0
 31 30  1  0  0  0  0
 32 36  1  0  0  0  0
 32 33  1  0  0  0  0
M  END
>  <minimizedAffinity>
-3.15579891

>  <minimizedRMSD>
1.46198201

$$$$
