
 OpenBabel03272502173D

 32 33  0  0  1  0  0  0  0  0999 V2000
   36.1970   29.3720   49.1400 S   0  0  0  0  0  0  0  0  0  0  0  0
   37.0680   30.8960   48.8970 C   0  0  0  0  0  0  0  0  0  0  0  0
   36.9310   31.7950   49.9670 C   0  0  0  0  0  0  0  0  0  0  0  0
   37.5650   33.0260   49.8990 C   0  0  0  0  0  0  0  0  0  0  0  0
   38.3000   33.3000   48.7760 N   0  0  0  0  0  0  0  0  0  0  0  0
   38.4160   32.4180   47.7610 C   0  0  0  0  0  0  0  0  0  0  0  0
   37.8070   31.2370   47.8270 N   0  0  0  0  0  0  0  0  0  0  0  0
   36.3520   31.5950   50.8660 H   0  0  0  0  0  0  0  0  0  0  0  0
   37.4860   33.7470   50.7010 H   0  0  0  0  0  0  0  0  0  0  0  0
   39.3770   30.5740   45.8270 N   0  0  0  0  0  0  0  0  0  0  0  0
   39.8670   31.7610   45.8780 C   0  0  0  0  0  0  0  0  0  0  0  0
   39.1970   32.7710   46.6240 N   0  0  0  0  0  0  0  0  0  0  0  0
   41.0740   32.0830   45.1970 N   0  0  0  0  0  0  0  0  0  0  0  0
   41.9850   32.2480   44.7350 H   0  0  0  0  0  0  0  0  0  0  0  0
   39.8570   29.8260   45.2850 H   0  0  0  0  0  0  0  0  0  0  0  0
   39.2880   33.7670   46.3260 H   0  0  0  0  0  0  0  0  0  0  0  0
   41.1400   32.9510   44.6170 H   0  0  0  0  0  0  0  0  0  0  0  0
   33.7290   28.3130   48.9100 N   0  0  0  0  0  0  0  0  0  0  0  0
   34.4000   29.5880   48.8880 C   0  0  2  0  0  0  0  0  0  0  0  0
   34.1820   30.2120   47.5220 C   0  0  0  0  0  0  0  0  0  0  0  0
   33.1090   29.5940   46.8430 O   0  0  0  0  0  0  0  0  0  0  0  0
   33.5820   28.3070   46.5280 C   0  0  0  0  0  0  0  0  0  0  0  0
   34.1150   27.5830   47.7250 C   0  0  2  0  0  0  0  0  0  0  0  0
   32.7080   28.4960   48.8290 H   0  0  0  0  0  0  0  0  0  0  0  0
   34.0750   30.2680   49.7070 H   0  0  0  0  0  0  0  0  0  0  0  0
   35.0650   30.0860   46.8660 H   0  0  0  0  0  0  0  0  0  0  0  0
   33.9360   31.2850   47.6190 H   0  0  0  0  0  0  0  0  0  0  0  0
   32.6840   27.7510   46.1560 H   0  0  0  0  0  0  0  0  0  0  0  0
   34.3730   28.3440   45.7620 H   0  0  0  0  0  0  0  0  0  0  0  0
   35.2080   27.4150   47.6940 H   0  0  0  0  0  0  0  0  0  0  0  0
   33.5340   26.2990   47.8190 O   0  0  0  0  0  0  0  0  0  0  0  0
   33.3860   26.0870   48.7750 H   0  0  0  0  0  0  0  0  0  0  0  0
  2  1  1  0  0  0  0
  2  3  1  0  0  0  0
  3  8  1  0  0  0  0
  4  3  2  0  0  0  0
  4  9  1  0  0  0  0
  5  4  1  0  0  0  0
  6  7  1  0  0  0  0
  6  5  2  0  0  0  0
  7  2  2  0  0  0  0
 10 11  2  0  0  0  0
 11 12  1  0  0  0  0
 12  6  1  0  0  0  0
 13 11  1  0  0  0  0
 14 13  1  0  0  0  0
 15 10  1  0  0  0  0
 16 12  1  0  0  0  0
 17 13  1  0  0  0  0
 19 18  1  0  0  0  0
 19  1  1  0  0  0  0
 19 25  1  1  0  0  0
 20 27  1  0  0  0  0
 20 19  1  0  0  0  0
 21 20  1  0  0  0  0
 22 21  1  0  0  0  0
 22 23  1  0  0  0  0
 23 30  1  6  0  0  0
 23 31  1  0  0  0  0
 23 18  1  0  0  0  0
 24 18  1  0  0  0  0
 26 20  1  0  0  0  0
 28 22  1  0  0  0  0
 29 22  1  0  0  0  0
 31 32  1  0  0  0  0
M  END
>  <minimizedAffinity>
-5.34375906

>  <minimizedRMSD>
0.789316177

$$$$
