
 OpenBabel03272502173D

 32 33  0  0  1  0  0  0  0  0999 V2000
   36.0760   29.2880   49.3030 S   0  0  0  0  0  0  0  0  0  0  0  0
   37.1840   30.5820   48.8150 C   0  0  0  0  0  0  0  0  0  0  0  0
   37.6860   31.3260   49.8960 C   0  0  0  0  0  0  0  0  0  0  0  0
   38.5640   32.3690   49.6470 C   0  0  0  0  0  0  0  0  0  0  0  0
   38.8980   32.6190   48.3430 N   0  0  0  0  0  0  0  0  0  0  0  0
   38.4020   31.8900   47.3220 C   0  0  0  0  0  0  0  0  0  0  0  0
   37.5590   30.8890   47.5610 N   0  0  0  0  0  0  0  0  0  0  0  0
   37.4310   31.1420   50.9370 H   0  0  0  0  0  0  0  0  0  0  0  0
   38.9730   32.9660   50.4510 H   0  0  0  0  0  0  0  0  0  0  0  0
   40.6830   30.8210   46.0100 N   0  0  0  0  0  0  0  0  0  0  0  0
   40.0910   31.8510   45.5250 C   0  0  0  0  0  0  0  0  0  0  0  0
   38.7940   32.2080   45.9900 N   0  0  0  0  0  0  0  0  0  0  0  0
   40.7130   32.6480   44.5220 N   0  0  0  0  0  0  0  0  0  0  0  0
   41.2340   33.2250   43.8410 H   0  0  0  0  0  0  0  0  0  0  0  0
   41.6320   30.5500   45.6780 H   0  0  0  0  0  0  0  0  0  0  0  0
   38.1390   32.7010   45.3440 H   0  0  0  0  0  0  0  0  0  0  0  0
   40.1780   32.9410   43.6710 H   0  0  0  0  0  0  0  0  0  0  0  0
   33.4860   28.5870   49.0570 N   0  0  0  0  0  0  0  0  0  0  0  0
   34.3380   29.7460   48.9770 C   0  0  2  0  0  0  0  0  0  0  0  0
   34.2480   30.3000   47.5670 C   0  0  0  0  0  0  0  0  0  0  0  0
   33.1120   29.8000   46.8920 O   0  0  0  0  0  0  0  0  0  0  0  0
   33.3980   28.4400   46.6770 C   0  0  0  0  0  0  0  0  0  0  0  0
   33.7890   27.7290   47.9350 C   0  0  2  0  0  0  0  0  0  0  0  0
   32.5050   28.9100   48.9290 H   0  0  0  0  0  0  0  0  0  0  0  0
   34.0960   30.5200   49.7390 H   0  0  0  0  0  0  0  0  0  0  0  0
   35.1170   30.0030   46.9510 H   0  0  0  0  0  0  0  0  0  0  0  0
   34.1600   31.4020   47.5870 H   0  0  0  0  0  0  0  0  0  0  0  0
   32.4370   27.9970   46.3100 H   0  0  0  0  0  0  0  0  0  0  0  0
   34.2030   28.3090   45.9370 H   0  0  0  0  0  0  0  0  0  0  0  0
   34.8450   27.4020   47.9520 H   0  0  0  0  0  0  0  0  0  0  0  0
   33.0220   26.5530   48.0900 O   0  0  0  0  0  0  0  0  0  0  0  0
   32.8220   26.4300   49.0520 H   0  0  0  0  0  0  0  0  0  0  0  0
  2  1  1  0  0  0  0
  2  3  1  0  0  0  0
  3  8  1  0  0  0  0
  4  3  2  0  0  0  0
  4  9  1  0  0  0  0
  5  4  1  0  0  0  0
  6  7  1  0  0  0  0
  6  5  2  0  0  0  0
  7  2  2  0  0  0  0
 11 12  1  0  0  0  0
 11 10  2  0  0  0  0
 12  6  1  0  0  0  0
 13 11  1  0  0  0  0
 14 13  1  0  0  0  0
 15 10  1  0  0  0  0
 16 12  1  0  0  0  0
 17 13  1  0  0  0  0
 19 18  1  0  0  0  0
 19  1  1  0  0  0  0
 19 25  1  1  0  0  0
 20 27  1  0  0  0  0
 20 19  1  0  0  0  0
 21 20  1  0  0  0  0
 22 21  1  0  0  0  0
 22 23  1  0  0  0  0
 23 30  1  6  0  0  0
 23 31  1  0  0  0  0
 23 18  1  0  0  0  0
 24 18  1  0  0  0  0
 26 20  1  0  0  0  0
 28 22  1  0  0  0  0
 29 22  1  0  0  0  0
 31 32  1  0  0  0  0
M  END
>  <minimizedAffinity>
-5.58660078

>  <minimizedRMSD>
0.843616068

$$$$
