REMARK  Name = 
REMARK  3 active torsions:
REMARK  status: ('A' for Active; 'I' for Inactive)
REMARK    1  A    between atoms: C_2  and  S_8
REMARK    2  A    between atoms: C_6  and  O_7
REMARK    3  A    between atoms: S_8  and  C_9
REMARK                            x       y       z     vdW  Elec       q    Type
REMARK                         _______ _______ _______ _____ _____    ______ ____
ROOT
ATOM      1  S   UNL     1      36.177  29.442  49.308  0.00  0.00    +0.000 S 
ENDROOT
BRANCH   1   2
ATOM      2  C   UNL     1      37.281  30.738  48.815  0.00  0.00    +0.000 A 
ATOM      3  C   UNL     1      37.226  31.867  49.649  0.00  0.00    +0.000 A 
ATOM      4  C   UNL     1      38.042  32.952  49.370  0.00  0.00    +0.000 A 
ATOM      5  N   UNL     1      38.868  32.861  48.281  0.00  0.00    +0.000 NA
ATOM      6  C   UNL     1      38.902  31.765  47.495  0.00  0.00    +0.000 A 
ATOM      7  N   UNL     1      38.118  30.724  47.763  0.00  0.00    +0.000 NA
ATOM      8  H   UNL     1      36.577  31.957  50.517  0.00  0.00    +0.000 HD
ATOM      9  H   UNL     1      38.031  33.840  49.987  0.00  0.00    +0.000 HD
ATOM     10  N   UNL     1      38.211  32.594  44.868  0.00  0.00    +0.000 NA
ATOM     11  C   UNL     1      39.275  31.900  45.060  0.00  0.00    +0.000 C 
ATOM     12  N   UNL     1      39.786  31.741  46.379  0.00  0.00    +0.000 N 
ATOM     13  N   UNL     1      39.954  31.285  43.972  0.00  0.00    +0.000 N 
ATOM     14  H   UNL     1      40.372  30.811  43.154  0.00  0.00    +0.000 HD
ATOM     15  H   UNL     1      37.827  32.719  43.908  0.00  0.00    +0.000 HD
ATOM     16  H   UNL     1      40.813  31.606  46.514  0.00  0.00    +0.000 HD
ATOM     17  H   UNL     1      40.994  31.366  43.882  0.00  0.00    +0.000 HD
ENDBRANCH   1   2
BRANCH   1  19
ATOM     18  N   UNL     1      33.598  28.710  49.037  0.00  0.00    +0.000 NA
ATOM     19  C   UNL     1      34.441  29.874  48.938  0.00  0.00    +0.000 C 
ATOM     20  C   UNL     1      34.371  30.387  47.512  0.00  0.00    +0.000 C 
ATOM     21  O   UNL     1      33.252  29.857  46.832  0.00  0.00    +0.000 OA
ATOM     22  C   UNL     1      33.553  28.494  46.661  0.00  0.00    +0.000 C 
ATOM     23  C   UNL     1      33.928  27.823  47.946  0.00  0.00    +0.000 C 
ATOM     24  H   UNL     1      32.617  29.020  48.883  0.00  0.00    +0.000 HD
ATOM     25  H   UNL     1      34.179  30.668  49.673  0.00  0.00    +0.000 HD
ATOM     26  H   UNL     1      35.254  30.080  46.920  0.00  0.00    +0.000 HD
ATOM     27  H   UNL     1      34.273  31.488  47.498  0.00  0.00    +0.000 HD
ATOM     28  H   UNL     1      32.603  28.031  46.291  0.00  0.00    +0.000 HD
ATOM     29  H   UNL     1      34.373  28.349  45.940  0.00  0.00    +0.000 HD
ATOM     30  H   UNL     1      34.987  27.507  47.991  0.00  0.00    +0.000 HD
BRANCH  23  31
ATOM     31  O   UNL     1      33.169  26.645  48.122  0.00  0.00    +0.000 OA
ATOM     32  H   UNL     1      32.953  26.548  49.083  0.00  0.00    +0.000 HD
ENDBRANCH  23  31
ENDBRANCH   1  19
TORSDOF 3
