
 OpenBabel03272502173D

 32 33  0  0  1  0  0  0  0  0999 V2000
   36.2130   29.3560   49.1600 S   0  0  0  0  0  0  0  0  0  0  0  0
   37.0780   30.8750   48.8630 C   0  0  0  0  0  0  0  0  0  0  0  0
   36.9790   31.7910   49.9230 C   0  0  0  0  0  0  0  0  0  0  0  0
   37.6130   33.0190   49.8150 C   0  0  0  0  0  0  0  0  0  0  0  0
   38.3090   33.2740   48.6630 N   0  0  0  0  0  0  0  0  0  0  0  0
   38.3890   32.3760   47.6590 C   0  0  0  0  0  0  0  0  0  0  0  0
   37.7800   31.1980   47.7630 N   0  0  0  0  0  0  0  0  0  0  0  0
   36.4310   31.6070   50.8440 H   0  0  0  0  0  0  0  0  0  0  0  0
   37.5620   33.7530   50.6070 H   0  0  0  0  0  0  0  0  0  0  0  0
   39.7940   30.5050   46.0490 N   0  0  0  0  0  0  0  0  0  0  0  0
   40.0270   31.7610   45.9190 C   0  0  0  0  0  0  0  0  0  0  0  0
   39.1310   32.7100   46.4900 N   0  0  0  0  0  0  0  0  0  0  0  0
   41.1710   32.2240   45.2120 N   0  0  0  0  0  0  0  0  0  0  0  0
   42.0490   32.5040   44.7410 H   0  0  0  0  0  0  0  0  0  0  0  0
   40.4420   29.8010   45.6370 H   0  0  0  0  0  0  0  0  0  0  0  0
   39.0280   33.6460   46.0410 H   0  0  0  0  0  0  0  0  0  0  0  0
   41.0830   32.9890   44.5030 H   0  0  0  0  0  0  0  0  0  0  0  0
   33.7530   28.2810   48.9290 N   0  0  0  0  0  0  0  0  0  0  0  0
   34.4140   29.5610   48.9180 C   0  0  2  0  0  0  0  0  0  0  0  0
   34.1850   30.1990   47.5610 C   0  0  0  0  0  0  0  0  0  0  0  0
   33.1140   29.5790   46.8790 O   0  0  0  0  0  0  0  0  0  0  0  0
   33.5960   28.3000   46.5480 C   0  0  0  0  0  0  0  0  0  0  0  0
   34.1400   27.5670   47.7340 C   0  0  2  0  0  0  0  0  0  0  0  0
   32.7310   28.4550   48.8540 H   0  0  0  0  0  0  0  0  0  0  0  0
   34.0860   30.2290   49.7460 H   0  0  0  0  0  0  0  0  0  0  0  0
   35.0650   30.0870   46.9000 H   0  0  0  0  0  0  0  0  0  0  0  0
   33.9300   31.2690   47.6710 H   0  0  0  0  0  0  0  0  0  0  0  0
   32.7010   27.7410   46.1730 H   0  0  0  0  0  0  0  0  0  0  0  0
   34.3830   28.3520   45.7790 H   0  0  0  0  0  0  0  0  0  0  0  0
   35.2340   27.4090   47.6970 H   0  0  0  0  0  0  0  0  0  0  0  0
   33.5690   26.2770   47.8160 O   0  0  0  0  0  0  0  0  0  0  0  0
   33.4280   26.0530   48.7690 H   0  0  0  0  0  0  0  0  0  0  0  0
  2  1  1  0  0  0  0
  2  3  1  0  0  0  0
  3  8  1  0  0  0  0
  4  3  2  0  0  0  0
  4  9  1  0  0  0  0
  5  4  1  0  0  0  0
  6  7  1  0  0  0  0
  6  5  2  0  0  0  0
  7  2  2  0  0  0  0
 11 10  2  0  0  0  0
 11 12  1  0  0  0  0
 12  6  1  0  0  0  0
 13 11  1  0  0  0  0
 14 13  1  0  0  0  0
 15 10  1  0  0  0  0
 16 12  1  0  0  0  0
 17 13  1  0  0  0  0
 19 18  1  0  0  0  0
 19  1  1  0  0  0  0
 19 25  1  1  0  0  0
 20 27  1  0  0  0  0
 20 19  1  0  0  0  0
 21 20  1  0  0  0  0
 22 21  1  0  0  0  0
 22 23  1  0  0  0  0
 23 30  1  6  0  0  0
 23 31  1  0  0  0  0
 23 18  1  0  0  0  0
 24 18  1  0  0  0  0
 26 20  1  0  0  0  0
 28 22  1  0  0  0  0
 29 22  1  0  0  0  0
 31 32  1  0  0  0  0
M  END
>  <minimizedAffinity>
-5.45452118

>  <minimizedRMSD>
0.768715441

$$$$
