
 OpenBabel03262521173D

 28 28  0  0  0  0  0  0  0  0999 V2000
   38.4250   32.3220   46.3050 C   0  0  0  0  0  0  0  0  0  0  0  0
   39.7160   32.8210   46.3290 C   0  0  0  0  0  0  0  0  0  0  0  0
   40.3650   33.1200   45.1140 C   0  0  0  0  0  0  0  0  0  0  0  0
   39.6500   32.8880   43.9580 N   0  0  0  0  0  0  0  0  0  0  0  0
   38.3900   32.3990   43.9850 C   0  0  0  0  0  0  0  0  0  0  0  0
   37.8110   32.1300   45.1310 N   0  0  0  0  0  0  0  0  0  0  0  0
   40.3280   33.0250   47.1930 H   0  0  0  0  0  0  0  0  0  0  0  0
   41.3750   33.5120   45.0770 H   0  0  0  0  0  0  0  0  0  0  0  0
   35.7710   33.2190   43.4170 N   0  0  0  0  0  0  0  0  0  0  0  0
   36.4990   32.8540   42.4300 C   0  0  0  0  0  0  0  0  0  0  0  0
   37.7170   32.1850   42.7400 N   0  0  0  0  0  0  0  0  0  0  0  0
   36.2350   33.0400   41.0430 N   0  0  0  0  0  0  0  0  0  0  0  0
   36.0090   33.8360   40.4040 H   0  0  0  0  0  0  0  0  0  0  0  0
   34.8690   33.7080   43.3870 H   0  0  0  0  0  0  0  0  0  0  0  0
   38.1400   31.5170   42.0430 H   0  0  0  0  0  0  0  0  0  0  0  0
   36.2150   32.3090   40.3000 H   0  0  0  0  0  0  0  0  0  0  0  0
   37.9420   32.0870   47.5700 O   0  0  0  0  0  0  0  0  0  0  0  0
   37.0570   31.0460   47.7310 C   0  0  0  0  0  0  0  0  0  0  0  0
   36.1060   31.4940   48.1420 H   0  0  0  0  0  0  0  0  0  0  0  0
   36.7310   30.5370   46.7930 H   0  0  0  0  0  0  0  0  0  0  0  0
   37.7640   30.3120   48.6140 C   0  0  0  0  0  0  0  0  0  0  0  0
   38.7260   29.8800   48.2240 H   0  0  0  0  0  0  0  0  0  0  0  0
   37.2090   29.3490   48.8490 H   0  0  0  0  0  0  0  0  0  0  0  0
   38.1010   30.9320   49.9290 C   0  0  0  0  0  0  0  0  0  0  0  0
   37.7530   32.0050   49.9020 H   0  0  0  0  0  0  0  0  0  0  0  0
   39.1810   30.9720   50.1490 H   0  0  0  0  0  0  0  0  0  0  0  0
   37.3070   30.1020   51.3120 S   0  0  0  0  0  0  0  0  0  0  0  0
   37.3860   30.8750   52.4610 H   0  0  0  0  0  0  0  0  0  0  0  0
  1  2  1  0  0  0  0
  1 17  1  0  0  0  0
  2  7  1  0  0  0  0
  3  2  2  0  0  0  0
  4  5  2  0  0  0  0
  4  3  1  0  0  0  0
  5  6  1  0  0  0  0
  6  1  2  0  0  0  0
  8  3  1  0  0  0  0
 10 11  1  0  0  0  0
 10  9  2  0  0  0  0
 11  5  1  0  0  0  0
 12 10  1  0  0  0  0
 13 12  1  0  0  0  0
 14  9  1  0  0  0  0
 15 11  1  0  0  0  0
 16 12  1  0  0  0  0
 17 18  1  0  0  0  0
 18 19  1  0  0  0  0
 18 21  1  0  0  0  0
 20 18  1  0  0  0  0
 21 23  1  0  0  0  0
 21 24  1  0  0  0  0
 22 21  1  0  0  0  0
 24 26  1  0  0  0  0
 24 27  1  0  0  0  0
 25 24  1  0  0  0  0
 27 28  1  0  0  0  0
M  END
>  <minimizedAffinity>
-4.49734163

>  <minimizedRMSD>
0.293807715

$$$$
