
 OpenBabel03262521173D

 28 28  0  0  0  0  0  0  0  0999 V2000
   38.4390   32.3340   46.2330 C   0  0  0  0  0  0  0  0  0  0  0  0
   39.7720   32.6990   46.3100 C   0  0  0  0  0  0  0  0  0  0  0  0
   40.4840   32.9720   45.1240 C   0  0  0  0  0  0  0  0  0  0  0  0
   39.7860   32.8540   43.9410 N   0  0  0  0  0  0  0  0  0  0  0  0
   38.4820   32.4950   43.9170 C   0  0  0  0  0  0  0  0  0  0  0  0
   37.8450   32.2470   45.0360 N   0  0  0  0  0  0  0  0  0  0  0  0
   40.3760   32.8090   47.1960 H   0  0  0  0  0  0  0  0  0  0  0  0
   41.5290   33.2610   45.1290 H   0  0  0  0  0  0  0  0  0  0  0  0
   35.7730   33.0520   43.4590 N   0  0  0  0  0  0  0  0  0  0  0  0
   36.5330   32.9420   42.4340 C   0  0  0  0  0  0  0  0  0  0  0  0
   37.8290   32.3950   42.6470 N   0  0  0  0  0  0  0  0  0  0  0  0
   36.2320   33.3090   41.0900 N   0  0  0  0  0  0  0  0  0  0  0  0
   35.9000   34.1580   40.5800 H   0  0  0  0  0  0  0  0  0  0  0  0
   34.8170   33.4190   43.4950 H   0  0  0  0  0  0  0  0  0  0  0  0
   38.3260   31.9040   41.8590 H   0  0  0  0  0  0  0  0  0  0  0  0
   36.2990   32.7060   40.2410 H   0  0  0  0  0  0  0  0  0  0  0  0
   37.8960   32.1060   47.4740 O   0  0  0  0  0  0  0  0  0  0  0  0
   37.0540   31.0270   47.6130 C   0  0  0  0  0  0  0  0  0  0  0  0
   36.0720   31.4350   47.9920 H   0  0  0  0  0  0  0  0  0  0  0  0
   36.7800   30.5010   46.6680 H   0  0  0  0  0  0  0  0  0  0  0  0
   37.7640   30.3290   48.5220 C   0  0  0  0  0  0  0  0  0  0  0  0
   38.7430   29.9130   48.1550 H   0  0  0  0  0  0  0  0  0  0  0  0
   37.2290   29.3570   48.7670 H   0  0  0  0  0  0  0  0  0  0  0  0
   38.0650   30.9820   49.8290 C   0  0  0  0  0  0  0  0  0  0  0  0
   37.6770   32.0410   49.7800 H   0  0  0  0  0  0  0  0  0  0  0  0
   39.1400   31.0650   50.0590 H   0  0  0  0  0  0  0  0  0  0  0  0
   37.2870   30.1470   51.2180 S   0  0  0  0  0  0  0  0  0  0  0  0
   37.3250   30.9410   52.3540 H   0  0  0  0  0  0  0  0  0  0  0  0
  1  2  1  0  0  0  0
  1 17  1  0  0  0  0
  2  7  1  0  0  0  0
  3  8  1  0  0  0  0
  3  2  2  0  0  0  0
  4  3  1  0  0  0  0
  5  4  2  0  0  0  0
  5  6  1  0  0  0  0
  6  1  2  0  0  0  0
  9 14  1  0  0  0  0
 10 11  1  0  0  0  0
 10  9  2  0  0  0  0
 11  5  1  0  0  0  0
 12 10  1  0  0  0  0
 13 12  1  0  0  0  0
 15 11  1  0  0  0  0
 16 12  1  0  0  0  0
 17 18  1  0  0  0  0
 18 19  1  0  0  0  0
 18 21  1  0  0  0  0
 20 18  1  0  0  0  0
 21 23  1  0  0  0  0
 21 24  1  0  0  0  0
 22 21  1  0  0  0  0
 24 26  1  0  0  0  0
 24 27  1  0  0  0  0
 25 24  1  0  0  0  0
 27 28  1  0  0  0  0
M  END
>  <minimizedAffinity>
-4.50043631

>  <minimizedRMSD>
0.390202165

$$$$
