
 OpenBabel03272502173D

 32 33  0  0  1  0  0  0  0  0999 V2000
   36.0990   29.3710   49.4250 S   0  0  0  0  0  0  0  0  0  0  0  0
   37.2090   30.6670   48.9460 C   0  0  0  0  0  0  0  0  0  0  0  0
   37.1330   31.8020   49.7710 C   0  0  0  0  0  0  0  0  0  0  0  0
   37.9520   32.8870   49.5020 C   0  0  0  0  0  0  0  0  0  0  0  0
   38.8010   32.7920   48.4310 N   0  0  0  0  0  0  0  0  0  0  0  0
   38.8540   31.6900   47.6530 C   0  0  0  0  0  0  0  0  0  0  0  0
   38.0680   30.6490   47.9120 N   0  0  0  0  0  0  0  0  0  0  0  0
   36.4660   31.8950   50.6250 H   0  0  0  0  0  0  0  0  0  0  0  0
   37.9250   33.7790   50.1120 H   0  0  0  0  0  0  0  0  0  0  0  0
   38.2260   30.7130   45.0620 N   0  0  0  0  0  0  0  0  0  0  0  0
   39.4520   30.9000   45.3950 C   0  0  0  0  0  0  0  0  0  0  0  0
   39.7620   31.6620   46.5560 N   0  0  0  0  0  0  0  0  0  0  0  0
   40.5120   30.3550   44.6170 N   0  0  0  0  0  0  0  0  0  0  0  0
   41.2390   29.8850   44.0510 H   0  0  0  0  0  0  0  0  0  0  0  0
   37.9850   30.1570   44.2150 H   0  0  0  0  0  0  0  0  0  0  0  0
   40.6590   32.1950   46.5900 H   0  0  0  0  0  0  0  0  0  0  0  0
   41.3340   30.9460   44.3540 H   0  0  0  0  0  0  0  0  0  0  0  0
   33.5350   28.6240   49.0690 N   0  0  0  0  0  0  0  0  0  0  0  0
   34.3690   29.7980   49.0210 C   0  0  2  0  0  0  0  0  0  0  0  0
   34.3310   30.3450   47.6060 C   0  0  0  0  0  0  0  0  0  0  0  0
   33.2350   29.8230   46.8850 O   0  0  0  0  0  0  0  0  0  0  0  0
   33.5530   28.4670   46.6880 C   0  0  0  0  0  0  0  0  0  0  0  0
   33.9010   27.7680   47.9650 C   0  0  2  0  0  0  0  0  0  0  0  0
   32.5550   28.9300   48.8970 H   0  0  0  0  0  0  0  0  0  0  0  0
   34.0810   30.5710   49.7680 H   0  0  0  0  0  0  0  0  0  0  0  0
   35.2320   30.0600   47.0300 H   0  0  0  0  0  0  0  0  0  0  0  0
   34.2240   31.4450   47.6170 H   0  0  0  0  0  0  0  0  0  0  0  0
   32.6170   28.0050   46.2820 H   0  0  0  0  0  0  0  0  0  0  0  0
   34.3920   28.3470   45.9850 H   0  0  0  0  0  0  0  0  0  0  0  0
   34.9610   27.4590   48.0300 H   0  0  0  0  0  0  0  0  0  0  0  0
   33.1480   26.5790   48.0930 O   0  0  0  0  0  0  0  0  0  0  0  0
   32.9080   26.4570   49.0450 H   0  0  0  0  0  0  0  0  0  0  0  0
  2  1  1  0  0  0  0
  2  3  1  0  0  0  0
  3  8  1  0  0  0  0
  4  3  2  0  0  0  0
  4  9  1  0  0  0  0
  5  4  1  0  0  0  0
  6  7  1  0  0  0  0
  6  5  2  0  0  0  0
  7  2  2  0  0  0  0
 10 11  2  0  0  0  0
 11 12  1  0  0  0  0
 12 16  1  0  0  0  0
 12  6  1  0  0  0  0
 13 11  1  0  0  0  0
 14 13  1  0  0  0  0
 15 10  1  0  0  0  0
 17 13  1  0  0  0  0
 19 18  1  0  0  0  0
 19  1  1  0  0  0  0
 19 25  1  1  0  0  0
 20 27  1  0  0  0  0
 20 19  1  0  0  0  0
 21 20  1  0  0  0  0
 22 21  1  0  0  0  0
 22 23  1  0  0  0  0
 23 30  1  1  0  0  0
 23 31  1  0  0  0  0
 23 18  1  0  0  0  0
 24 18  1  0  0  0  0
 26 20  1  0  0  0  0
 28 22  1  0  0  0  0
 29 22  1  0  0  0  0
 31 32  1  0  0  0  0
M  END
>  <minimizedAffinity>
-5.49530315

>  <minimizedRMSD>
0.152783886

$$$$
