
     RDKit          3D

 38 40  0  0  0  0  0  0  0  0999 V2000
   34.3278   30.4521   47.6020 F   0  0  0  0  0  0  0  0  0  0  0  0
   34.7461   29.9856   46.3809 C   0  0  0  0  0  0  0  0  0  0  0  0
   33.8781   29.3687   45.5033 C   0  0  0  0  0  0  0  0  0  0  0  0
   34.3639   28.9394   44.2888 C   0  0  0  0  0  0  0  0  0  0  0  0
   35.7109   29.1255   43.9514 C   0  0  0  0  0  0  0  0  0  0  0  0
   36.5232   29.7498   44.8770 C   0  0  0  0  0  0  0  0  0  0  0  0
   36.0911   30.1835   46.0733 C   0  0  0  0  0  0  0  0  0  0  0  0
   37.9843   32.4184   44.9666 Br  0  0  0  0  0  0  0  0  0  0  0  0
   37.8854   31.8396   46.7796 C   0  0  0  0  0  0  0  0  0  0  0  0
   36.9966   30.8239   47.0103 C   0  0  0  0  0  0  0  0  0  0  0  0
   36.8981   30.3189   48.3195 C   0  0  0  0  0  0  0  0  0  0  0  0
   37.6611   30.8268   49.3195 C   0  0  0  0  0  0  0  0  0  0  0  0
   38.5416   31.8576   49.0203 C   0  0  0  0  0  0  0  0  0  0  0  0
   38.6635   32.3801   47.7336 C   0  0  0  0  0  0  0  0  0  0  0  0
   39.4990   33.3884   47.3629 O   0  0  0  0  0  0  0  0  0  0  0  0
   32.2560   28.1960   46.8436 C   0  0  0  0  0  0  0  0  0  0  0  0
   32.5277   29.2393   45.9660 C   0  0  0  0  0  0  0  0  0  0  0  0
   31.4783   30.0746   45.6100 C   0  0  0  0  0  0  0  0  0  0  0  0
   30.2443   29.8571   46.1156 N   0  0  0  0  0  0  0  0  0  0  0  0
   30.0040   28.8498   46.9571 C   0  0  0  0  0  0  0  0  0  0  0  0
   30.9942   28.0369   47.3117 N   0  0  0  0  0  0  0  0  0  0  0  0
   33.6609   28.4648   43.6337 H   0  0  0  0  0  0  0  0  0  0  0  0
   36.0560   28.7788   42.9955 H   0  0  0  0  0  0  0  0  0  0  0  0
   37.5433   29.8553   44.5432 H   0  0  0  0  0  0  0  0  0  0  0  0
   36.2231   29.5175   48.5869 H   0  0  0  0  0  0  0  0  0  0  0  0
   37.6085   30.4601   50.3348 H   0  0  0  0  0  0  0  0  0  0  0  0
   39.1672   32.2893   49.7940 H   0  0  0  0  0  0  0  0  0  0  0  0
   39.0828   34.2255   46.9511 H   0  0  0  0  0  0  0  0  0  0  0  0
   33.0342   27.5027   47.1643 H   0  0  0  0  0  0  0  0  0  0  0  0
   31.7117   30.8874   44.9199 H   0  0  0  0  0  0  0  0  0  0  0  0
   29.2769   26.8279   48.7804 N   0  0  0  0  0  0  0  0  0  0  0  0
   28.4660   27.8069   48.5922 C   0  0  0  0  0  0  0  0  0  0  0  0
   28.6899   28.6552   47.4670 N   0  0  0  0  0  0  0  0  0  0  0  0
   27.3664   28.0609   49.4660 N   0  0  0  0  0  0  0  0  0  0  0  0
   26.8414   28.4633   50.2530 H   0  0  0  0  0  0  0  0  0  0  0  0
   29.1111   26.2101   49.6027 H   0  0  0  0  0  0  0  0  0  0  0  0
   27.8733   29.1405   47.0119 H   0  0  0  0  0  0  0  0  0  0  0  0
   27.5966   28.7415   50.2483 H   0  0  0  0  0  0  0  0  0  0  0  0
  2  1  1  0
  3 17  1  0
  3  2  2  0
  4  3  1  0
  5  4  2  0
  5  6  1  0
  6  7  2  0
  7  2  1  0
  7 10  1  0
  8  9  1  0
  9 10  2  0
  9 14  1  0
 10 11  1  0
 11 12  2  0
 13 12  1  0
 14 13  2  0
 15 14  1  0
 16 21  2  0
 17 16  1  0
 18 17  2  0
 18 19  1  0
 19 20  2  0
 20 21  1  0
  4 22  1  0
  5 23  1  0
  6 24  1  0
 11 25  1  0
 12 26  1  0
 13 27  1  0
 15 28  1  0
 16 29  1  0
 18 30  1  0
 31 32  2  3
 32 33  1  0
 32 34  1  0
 34 35  1  0
 31 36  1  0
 33 37  1  0
 34 38  1  0
 20 33  1  0
M  ISO  8  22  14  23  14  24  14  25  14  26  14  27  14  28   3  29  14
M  ISO  2  30  14  35   5
M  END
>  <DihAtoms>  (1) 
18,19,32,31

>  <DihDeg>  (1) 
2.493075233770565e-05

$$$$
