
 OpenBabel03272505373D

 30 31  0  0  0  0  0  0  0  0999 V2000
   36.4180   30.5640   46.5250 C   0  0  0  0  0  0  0  0  0  0  0  0
   35.1590   29.9740   46.4750 C   0  0  0  0  0  0  0  0  0  0  0  0
   34.5190   29.7120   45.3010 C   0  0  0  0  0  0  0  0  0  0  0  0
   35.1070   30.0310   44.0790 C   0  0  0  0  0  0  0  0  0  0  0  0
   36.3460   30.6120   44.1130 C   0  0  0  0  0  0  0  0  0  0  0  0
   36.9970   30.8780   45.3070 C   0  0  0  0  0  0  0  0  0  0  0  0
   34.7170   29.7320   47.4560 H   0  0  0  0  0  0  0  0  0  0  0  0
   33.5500   29.2510   45.4170 H   0  0  0  0  0  0  0  0  0  0  0  0
   34.5210   29.7840   43.2070 H   0  0  0  0  0  0  0  0  0  0  0  0
   36.6750   30.8120   43.1160 H   0  0  0  0  0  0  0  0  0  0  0  0
   37.4450   30.2930   50.0240 C   0  0  0  0  0  0  0  0  0  0  0  0
   38.2930   31.3910   50.1810 C   0  0  0  0  0  0  0  0  0  0  0  0
   38.4980   32.2160   49.0760 C   0  0  0  0  0  0  0  0  0  0  0  0
   37.8610   31.8930   47.9280 N   0  0  0  0  0  0  0  0  0  0  0  0
   37.0530   30.8340   47.8010 C   0  0  0  0  0  0  0  0  0  0  0  0
   36.8520   30.0390   48.8570 N   0  0  0  0  0  0  0  0  0  0  0  0
   38.7560   31.5630   51.1410 H   0  0  0  0  0  0  0  0  0  0  0  0
   39.1510   33.0630   49.1930 H   0  0  0  0  0  0  0  0  0  0  0  0
   37.2220   29.4130   51.2250 C   0  0  0  0  0  0  0  0  0  0  0  0
   35.8450   29.1790   51.3730 F   0  0  0  0  0  0  0  0  0  0  0  0
   37.9130   28.2700   51.0510 F   0  0  0  0  0  0  0  0  0  0  0  0
   37.6160   30.1150   52.3450 F   0  0  0  0  0  0  0  0  0  0  0  0
   39.5920   29.6380   44.7090 N   0  0  0  0  0  0  0  0  0  0  0  0
   39.3960   30.9110   44.5380 C   0  0  0  0  0  0  0  0  0  0  0  0
   38.2800   31.4680   45.2240 N   0  0  0  0  0  0  0  0  0  0  0  0
   40.2900   31.6760   43.6950 N   0  0  0  0  0  0  0  0  0  0  0  0
   40.3610   31.1880   42.7700 H   0  0  0  0  0  0  0  0  0  0  0  0
   40.3820   29.1980   44.2360 H   0  0  0  0  0  0  0  0  0  0  0  0
   38.6140   32.3680   45.6270 H   0  0  0  0  0  0  0  0  0  0  0  0
   40.8060   32.5410   43.8710 H   0  0  0  0  0  0  0  0  0  0  0  0
  1 15  1  0  0  0  0
  2  1  1  0  0  0  0
  2  7  1  0  0  0  0
  3  8  1  0  0  0  0
  3  2  2  0  0  0  0
  4  5  2  0  0  0  0
  4  3  1  0  0  0  0
  5  6  1  0  0  0  0
  6  1  2  0  0  0  0
  9  4  1  0  0  0  0
 10  5  1  0  0  0  0
 11 12  1  0  0  0  0
 11 19  1  0  0  0  0
 12 17  1  0  0  0  0
 13 18  1  0  0  0  0
 13 12  2  0  0  0  0
 14 13  1  0  0  0  0
 15 14  2  0  0  0  0
 15 16  1  0  0  0  0
 16 11  2  0  0  0  0
 19 20  1  0  0  0  0
 19 22  1  0  0  0  0
 21 19  1  0  0  0  0
 24 23  2  0  0  0  0
 24 25  1  0  0  0  0
 25  6  1  0  0  0  0
 25 29  1  0  0  0  0
 26 30  1  0  0  0  0
 26 24  1  0  0  0  0
 27 26  1  0  0  0  0
 28 23  1  0  0  0  0
M  END
>  <minimizedAffinity>
-6.19206905

>  <minimizedRMSD>
0.15130499

$$$$
