
     RDKit          3D

 30 31  0  0  0  0  0  0  0  0999 V2000
   37.4167   30.2789   50.0328 C   0  0  0  0  0  0  0  0  0  0  0  0
   38.2961   31.3564   50.1605 C   0  0  0  0  0  0  0  0  0  0  0  0
   38.5233   32.1453   49.0335 C   0  0  0  0  0  0  0  0  0  0  0  0
   37.8750   31.8104   47.8953 N   0  0  0  0  0  0  0  0  0  0  0  0
   37.0366   30.7713   47.7967 C   0  0  0  0  0  0  0  0  0  0  0  0
   36.8145   30.0110   48.8742 N   0  0  0  0  0  0  0  0  0  0  0  0
   36.3917   30.4861   46.5289 C   0  0  0  0  0  0  0  0  0  0  0  0
   35.1077   29.9522   46.4958 C   0  0  0  0  0  0  0  0  0  0  0  0
   34.4577   29.6781   45.3303 C   0  0  0  0  0  0  0  0  0  0  0  0
   35.0628   29.9262   44.0989 C   0  0  0  0  0  0  0  0  0  0  0  0
   36.3266   30.4513   44.1172 C   0  0  0  0  0  0  0  0  0  0  0  0
   36.9873   30.7285   45.3034 C   0  0  0  0  0  0  0  0  0  0  0  0
   37.1698   29.4388   51.2579 C   0  0  0  0  0  0  0  0  0  0  0  0
   35.7923   29.1973   51.3789 F   0  0  0  0  0  0  0  0  0  0  0  0
   37.8763   28.2972   51.1405 F   0  0  0  0  0  0  0  0  0  0  0  0
   37.5286   30.1821   52.3632 F   0  0  0  0  0  0  0  0  0  0  0  0
   38.7646   31.5405   51.1150 H   0  0  0  0  0  0  0  0  0  0  0  0
   39.1997   32.9762   49.1268 H   0  0  0  0  0  0  0  0  0  0  0  0
   34.6529   29.7664   47.4827 H   0  0  0  0  0  0  0  0  0  0  0  0
   33.4690   29.2669   45.4590 H   0  0  0  0  0  0  0  0  0  0  0  0
   34.4666   29.6763   43.2351 H   0  0  0  0  0  0  0  0  0  0  0  0
   36.6661   30.5998   43.1139 H   0  0  0  0  0  0  0  0  0  0  0  0
   38.2722   32.1313   43.0651 N   0  0  0  0  0  0  0  0  0  0  0  0
   38.7059   32.2629   44.2839 C   0  0  0  0  0  0  0  0  0  0  0  0
   38.2956   31.2566   45.2033 N   0  0  0  0  0  0  0  0  0  0  0  0
   39.5575   33.3793   44.6340 N   0  0  0  0  0  0  0  0  0  0  0  0
   39.0861   34.2600   44.3146 H   0  0  0  0  0  0  0  0  0  0  0  0
   38.5420   32.8304   42.3725 H   0  0  0  0  0  0  0  0  0  0  0  0
   39.1438   31.0157   45.7577 H   0  0  0  0  0  0  0  0  0  0  0  0
   40.4648   33.4137   45.1037 H   0  0  0  0  0  0  0  0  0  0  0  0
  1  2  2  0
  1 13  1  0
  3  2  1  0
  4  3  2  0
  5  4  1  0
  5  6  2  0
  6  1  1  0
  7  5  1  0
  8  7  2  0
  9  8  1  0
 10 11  1  0
 10  9  2  0
 11 12  2  0
 12  7  1  0
 13 14  1  0
 13 16  1  0
 15 13  1  0
  2 17  1  0
  3 18  1  0
  8 19  1  0
  9 20  1  0
 10 21  1  0
 11 22  1  0
 23 24  2  3
 24 25  1  0
 24 26  1  0
 26 27  1  0
 23 28  1  0
 25 29  1  0
 26 30  1  0
 12 25  1  0
M  ISO  7  17  14  18  14  19  14  20  14  21  14  22  14  27   5
M  END
>  <DihAtoms>  (1) 
10,11,24,23

>  <DihDeg>  (1) 
-2.4728154275966037

$$$$
