
 OpenBabel03272508413D

 41 43  0  0  1  0  0  0  0  0999 V2000
   35.4490   29.1490   33.8500 N   0  0  0  0  0  0  0  0  0  0  0  0
   36.1180   27.9190   34.2650 C   0  0  0  0  0  0  0  0  0  0  0  0
   37.3130   27.5870   33.4930 C   0  0  2  0  0  0  0  0  0  0  0  0
   37.1170   27.7870   32.0290 N   0  0  0  0  0  0  0  0  0  0  0  0
   36.6480   29.1710   31.8370 C   0  0  0  0  0  0  0  0  0  0  0  0
   35.2620   29.1540   32.4420 C   0  0  0  0  0  0  0  0  0  0  0  0
   35.3150   27.1620   33.9590 H   0  0  0  0  0  0  0  0  0  0  0  0
   36.2930   27.9440   35.3370 H   0  0  0  0  0  0  0  0  0  0  0  0
   38.1830   28.2500   33.6460 H   0  0  0  0  0  0  0  0  0  0  0  0
   36.4490   27.0880   31.6470 H   0  0  0  0  0  0  0  0  0  0  0  0
   36.5500   29.3040   30.7410 H   0  0  0  0  0  0  0  0  0  0  0  0
   37.3550   29.8330   32.3320 H   0  0  0  0  0  0  0  0  0  0  0  0
   34.7580   28.2240   32.0870 H   0  0  0  0  0  0  0  0  0  0  0  0
   34.6480   30.0030   32.1280 H   0  0  0  0  0  0  0  0  0  0  0  0
   38.8920   27.1080   35.9650 Cl  0  0  0  0  0  0  0  0  0  0  0  0
   38.4030   25.8330   34.8420 C   0  0  0  0  0  0  0  0  0  0  0  0
   37.7010   26.2070   33.7290 C   0  0  0  0  0  0  0  0  0  0  0  0
   37.2450   25.3120   32.7470 C   0  0  0  0  0  0  0  0  0  0  0  0
   37.5630   23.9660   32.9730 C   0  0  0  0  0  0  0  0  0  0  0  0
   38.2830   23.5770   34.1120 C   0  0  0  0  0  0  0  0  0  0  0  0
   38.6870   24.5100   35.0200 C   0  0  0  0  0  0  0  0  0  0  0  0
   36.6990   25.3340   31.8360 H   0  0  0  0  0  0  0  0  0  0  0  0
   37.3090   23.1200   32.3460 H   0  0  0  0  0  0  0  0  0  0  0  0
   38.5370   22.5290   34.2850 H   0  0  0  0  0  0  0  0  0  0  0  0
   37.6690   23.8390   37.6440 N   0  0  0  0  0  0  0  0  0  0  0  0
   38.8650   23.4710   37.3010 C   0  0  0  0  0  0  0  0  0  0  0  0
   39.4330   24.2300   36.2140 N   0  0  0  0  0  0  0  0  0  0  0  0
   39.6310   22.4190   37.8970 N   0  0  0  0  0  0  0  0  0  0  0  0
   39.7090   21.4160   38.1140 H   0  0  0  0  0  0  0  0  0  0  0  0
   37.2110   23.3360   38.4120 H   0  0  0  0  0  0  0  0  0  0  0  0
   40.4210   24.5530   36.3550 H   0  0  0  0  0  0  0  0  0  0  0  0
   40.5020   22.8760   38.2850 H   0  0  0  0  0  0  0  0  0  0  0  0
   35.0530   30.1510   34.7690 C   0  0  0  0  0  0  0  0  0  0  0  0
   35.9780   30.9710   35.4190 C   0  0  0  0  0  0  0  0  0  0  0  0
   35.5050   31.9340   36.3020 C   0  0  0  0  0  0  0  0  0  0  0  0
   34.1350   32.0310   36.4930 N   0  0  0  0  0  0  0  0  0  0  0  0
   33.2840   31.2110   35.8370 C   0  0  0  0  0  0  0  0  0  0  0  0
   33.7180   30.2900   34.9920 N   0  0  0  0  0  0  0  0  0  0  0  0
   37.0100   30.7900   35.1810 H   0  0  0  0  0  0  0  0  0  0  0  0
   36.2210   32.5580   36.7960 H   0  0  0  0  0  0  0  0  0  0  0  0
   32.2540   31.3850   36.0680 H   0  0  0  0  0  0  0  0  0  0  0  0
  1  2  1  0  0  0  0
  1 33  1  0  0  0  0
  2  8  1  0  0  0  0
  3  9  1  1  0  0  0
  3 17  1  0  0  0  0
  3  2  1  0  0  0  0
  4  3  1  0  0  0  0
  5  4  1  0  0  0  0
  5 12  1  0  0  0  0
  5  6  1  0  0  0  0
  6  1  1  0  0  0  0
  7  2  1  0  0  0  0
 10  4  1  0  0  0  0
 11  5  1  0  0  0  0
 13  6  1  0  0  0  0
 14  6  1  0  0  0  0
 16 21  1  0  0  0  0
 16 15  1  0  0  0  0
 17 16  2  0  0  0  0
 18 19  2  0  0  0  0
 18 17  1  0  0  0  0
 19 20  1  0  0  0  0
 20 24  1  0  0  0  0
 20 21  2  0  0  0  0
 21 27  1  0  0  0  0
 22 18  1  0  0  0  0
 23 19  1  0  0  0  0
 25 30  1  0  0  0  0
 26 25  2  0  0  0  0
 26 28  1  0  0  0  0
 27 31  1  0  0  0  0
 27 26  1  0  0  0  0
 28 29  1  0  0  0  0
 28 32  1  0  0  0  0
 33 38  2  0  0  0  0
 33 34  1  0  0  0  0
 34 35  2  0  0  0  0
 35 36  1  0  0  0  0
 35 40  1  0  0  0  0
 37 41  1  0  0  0  0
 37 36  2  0  0  0  0
 38 37  1  0  0  0  0
 39 34  1  0  0  0  0
M  END
>  <minimizedAffinity>
-5.84065437

$$$$

 OpenBabel03272508413D

 41 43  0  0  1  0  0  0  0  0999 V2000
   37.1040   27.4370   32.2120 N   0  0  0  0  0  0  0  0  0  0  0  0
   37.0760   26.2740   33.0950 C   0  0  0  0  0  0  0  0  0  0  0  0
   38.3900   25.8280   33.5540 C   0  0  2  0  0  0  0  0  0  0  0  0
   39.4020   25.8190   32.4590 N   0  0  0  0  0  0  0  0  0  0  0  0
   39.4040   27.1650   31.8570 C   0  0  0  0  0  0  0  0  0  0  0  0
   38.0570   27.2430   31.1750 C   0  0  0  0  0  0  0  0  0  0  0  0
   36.7100   25.4870   32.3490 H   0  0  0  0  0  0  0  0  0  0  0  0
   36.3750   26.4510   33.9060 H   0  0  0  0  0  0  0  0  0  0  0  0
   38.9040   26.5010   34.2630 H   0  0  0  0  0  0  0  0  0  0  0  0
   39.1860   25.0770   31.7630 H   0  0  0  0  0  0  0  0  0  0  0  0
   40.1910   27.1410   31.0770 H   0  0  0  0  0  0  0  0  0  0  0  0
   39.5540   27.8870   32.6580 H   0  0  0  0  0  0  0  0  0  0  0  0
   37.8990   26.2750   30.6440 H   0  0  0  0  0  0  0  0  0  0  0  0
   38.0000   28.0430   30.4320 H   0  0  0  0  0  0  0  0  0  0  0  0
   38.2030   25.7070   36.5190 Cl  0  0  0  0  0  0  0  0  0  0  0  0
   38.1790   24.2860   35.4670 C   0  0  0  0  0  0  0  0  0  0  0  0
   38.3020   24.4930   34.1210 C   0  0  0  0  0  0  0  0  0  0  0  0
   38.3010   23.4670   33.1610 C   0  0  0  0  0  0  0  0  0  0  0  0
   38.1680   22.1700   33.6750 C   0  0  0  0  0  0  0  0  0  0  0  0
   38.0430   21.9510   35.0550 C   0  0  0  0  0  0  0  0  0  0  0  0
   38.0500   23.0040   35.9200 C   0  0  0  0  0  0  0  0  0  0  0  0
   38.3690   23.3580   32.1070 H   0  0  0  0  0  0  0  0  0  0  0  0
   38.1440   21.2450   33.1140 H   0  0  0  0  0  0  0  0  0  0  0  0
   37.9470   20.9400   35.4570 H   0  0  0  0  0  0  0  0  0  0  0  0
   40.0830   22.2080   37.8180 N   0  0  0  0  0  0  0  0  0  0  0  0
   39.0950   22.9550   38.2040 C   0  0  0  0  0  0  0  0  0  0  0  0
   37.9370   22.9000   37.3470 N   0  0  0  0  0  0  0  0  0  0  0  0
   39.0680   23.7890   39.3680 N   0  0  0  0  0  0  0  0  0  0  0  0
   39.4770   24.5840   39.8770 H   0  0  0  0  0  0  0  0  0  0  0  0
   40.9370   22.2040   38.3870 H   0  0  0  0  0  0  0  0  0  0  0  0
   37.0160   22.7870   37.8370 H   0  0  0  0  0  0  0  0  0  0  0  0
   38.2780   23.4240   39.9690 H   0  0  0  0  0  0  0  0  0  0  0  0
   36.2650   28.5620   32.4030 C   0  0  0  0  0  0  0  0  0  0  0  0
   35.8440   28.9680   33.6700 C   0  0  0  0  0  0  0  0  0  0  0  0
   35.0250   30.0870   33.7710 C   0  0  0  0  0  0  0  0  0  0  0  0
   34.6690   30.7440   32.6030 N   0  0  0  0  0  0  0  0  0  0  0  0
   35.1070   30.3080   31.4010 C   0  0  0  0  0  0  0  0  0  0  0  0
   35.8870   29.2450   31.2880 N   0  0  0  0  0  0  0  0  0  0  0  0
   36.1920   28.3700   34.4920 H   0  0  0  0  0  0  0  0  0  0  0  0
   34.7070   30.3900   34.7470 H   0  0  0  0  0  0  0  0  0  0  0  0
   34.7650   30.8990   30.5780 H   0  0  0  0  0  0  0  0  0  0  0  0
  1 33  1  0  0  0  0
  1  2  1  0  0  0  0
  2  3  1  0  0  0  0
  2  8  1  0  0  0  0
  3 17  1  0  0  0  0
  3  9  1  1  0  0  0
  4  3  1  0  0  0  0
  5  4  1  0  0  0  0
  5 12  1  0  0  0  0
  6  5  1  0  0  0  0
  6  1  1  0  0  0  0
  7  2  1  0  0  0  0
 10  4  1  0  0  0  0
 11  5  1  0  0  0  0
 13  6  1  0  0  0  0
 14  6  1  0  0  0  0
 16 21  1  0  0  0  0
 16 15  1  0  0  0  0
 17 16  2  0  0  0  0
 18 19  2  0  0  0  0
 18 17  1  0  0  0  0
 19 20  1  0  0  0  0
 20 24  1  0  0  0  0
 20 21  2  0  0  0  0
 21 27  1  0  0  0  0
 22 18  1  0  0  0  0
 23 19  1  0  0  0  0
 25 26  2  0  0  0  0
 25 30  1  0  0  0  0
 26 28  1  0  0  0  0
 27 31  1  0  0  0  0
 27 26  1  0  0  0  0
 28 29  1  0  0  0  0
 28 32  1  0  0  0  0
 33 34  1  0  0  0  0
 34 35  2  0  0  0  0
 34 39  1  0  0  0  0
 35 40  1  0  0  0  0
 36 35  1  0  0  0  0
 37 36  2  0  0  0  0
 38 37  1  0  0  0  0
 38 33  2  0  0  0  0
 41 37  1  0  0  0  0
M  END
>  <minimizedAffinity>
-5.79499197

$$$$

 OpenBabel03272508413D

 41 43  0  0  1  0  0  0  0  0999 V2000
   36.2770   29.0270   32.6420 N   0  0  0  0  0  0  0  0  0  0  0  0
   35.5590   29.2140   33.9010 C   0  0  0  0  0  0  0  0  0  0  0  0
   34.2330   29.8120   33.7600 C   0  0  2  0  0  0  0  0  0  0  0  0
   34.2240   30.9540   32.8020 N   0  0  0  0  0  0  0  0  0  0  0  0
   34.7950   30.4650   31.5350 C   0  0  0  0  0  0  0  0  0  0  0  0
   36.2490   30.2250   31.8790 C   0  0  0  0  0  0  0  0  0  0  0  0
   36.2260   30.0140   34.3740 H   0  0  0  0  0  0  0  0  0  0  0  0
   35.5520   28.2800   34.4570 H   0  0  0  0  0  0  0  0  0  0  0  0
   33.4680   29.1750   33.2820 H   0  0  0  0  0  0  0  0  0  0  0  0
   34.7530   31.7630   33.1870 H   0  0  0  0  0  0  0  0  0  0  0  0
   34.7390   31.3200   30.8320 H   0  0  0  0  0  0  0  0  0  0  0  0
   34.2410   29.5750   31.2420 H   0  0  0  0  0  0  0  0  0  0  0  0
   36.5960   31.1030   32.4730 H   0  0  0  0  0  0  0  0  0  0  0  0
   36.8900   30.1470   30.9960 H   0  0  0  0  0  0  0  0  0  0  0  0
   35.9100   31.8770   35.0870 Cl  0  0  0  0  0  0  0  0  0  0  0  0
   34.4010   31.2470   35.7590 C   0  0  0  0  0  0  0  0  0  0  0  0
   33.7490   30.2770   35.0480 C   0  0  0  0  0  0  0  0  0  0  0  0
   32.5430   29.6800   35.4520 C   0  0  0  0  0  0  0  0  0  0  0  0
   32.0260   30.1440   36.6690 C   0  0  0  0  0  0  0  0  0  0  0  0
   32.6910   31.1370   37.4030 C   0  0  0  0  0  0  0  0  0  0  0  0
   33.8570   31.6680   36.9380 C   0  0  0  0  0  0  0  0  0  0  0  0
   31.8560   28.9480   35.1030 H   0  0  0  0  0  0  0  0  0  0  0  0
   31.1160   29.8200   37.1580 H   0  0  0  0  0  0  0  0  0  0  0  0
   32.2930   31.4940   38.3550 H   0  0  0  0  0  0  0  0  0  0  0  0
   33.6460   34.5400   36.6620 N   0  0  0  0  0  0  0  0  0  0  0  0
   34.1380   34.0300   37.7480 C   0  0  0  0  0  0  0  0  0  0  0  0
   34.6260   32.6800   37.6050 N   0  0  0  0  0  0  0  0  0  0  0  0
   34.2320   34.6780   39.0210 N   0  0  0  0  0  0  0  0  0  0  0  0
   33.7410   35.1230   39.8090 H   0  0  0  0  0  0  0  0  0  0  0  0
   33.2810   35.4990   36.7000 H   0  0  0  0  0  0  0  0  0  0  0  0
   35.5700   32.4940   38.0230 H   0  0  0  0  0  0  0  0  0  0  0  0
   35.2630   34.7160   39.2540 H   0  0  0  0  0  0  0  0  0  0  0  0
   36.9070   27.8070   32.2950 C   0  0  0  0  0  0  0  0  0  0  0  0
   37.5850   27.6370   31.0870 C   0  0  0  0  0  0  0  0  0  0  0  0
   38.1800   26.4090   30.8260 C   0  0  0  0  0  0  0  0  0  0  0  0
   38.0680   25.4120   31.7840 N   0  0  0  0  0  0  0  0  0  0  0  0
   37.4000   25.6300   32.9380 C   0  0  0  0  0  0  0  0  0  0  0  0
   36.8290   26.7940   33.2010 N   0  0  0  0  0  0  0  0  0  0  0  0
   37.5950   28.4900   30.4340 H   0  0  0  0  0  0  0  0  0  0  0  0
   38.6970   26.2880   29.8970 H   0  0  0  0  0  0  0  0  0  0  0  0
   37.3860   24.7850   33.5940 H   0  0  0  0  0  0  0  0  0  0  0  0
  1  2  1  0  0  0  0
  2  7  1  0  0  0  0
  2  8  1  0  0  0  0
  3  9  1  6  0  0  0
  3  2  1  0  0  0  0
  3 17  1  0  0  0  0
  4 10  1  0  0  0  0
  4  3  1  0  0  0  0
  5  6  1  0  0  0  0
  5  4  1  0  0  0  0
  6 13  1  0  0  0  0
  6  1  1  0  0  0  0
 11  5  1  0  0  0  0
 12  5  1  0  0  0  0
 14  6  1  0  0  0  0
 15 16  1  0  0  0  0
 16 21  1  0  0  0  0
 17 18  1  0  0  0  0
 17 16  2  0  0  0  0
 18 19  2  0  0  0  0
 19 23  1  0  0  0  0
 19 20  1  0  0  0  0
 20 24  1  0  0  0  0
 21 20  2  0  0  0  0
 21 27  1  0  0  0  0
 22 18  1  0  0  0  0
 25 30  1  0  0  0  0
 25 26  2  0  0  0  0
 26 28  1  0  0  0  0
 27 26  1  0  0  0  0
 27 31  1  0  0  0  0
 28 32  1  0  0  0  0
 28 29  1  0  0  0  0
 33  1  1  0  0  0  0
 33 38  1  0  0  0  0
 34 33  2  0  0  0  0
 35 34  1  0  0  0  0
 35 36  2  0  0  0  0
 36 37  1  0  0  0  0
 37 38  2  0  0  0  0
 37 41  1  0  0  0  0
 39 34  1  0  0  0  0
 40 35  1  0  0  0  0
M  END
>  <minimizedAffinity>
-5.70757818

$$$$

 OpenBabel03272508413D

 41 43  0  0  1  0  0  0  0  0999 V2000
   36.4200   28.0530   32.3530 N   0  0  0  0  0  0  0  0  0  0  0  0
   35.9010   28.6810   33.5660 C   0  0  0  0  0  0  0  0  0  0  0  0
   34.9890   29.7980   33.3280 C   0  0  2  0  0  0  0  0  0  0  0  0
   35.4740   30.7080   32.2520 N   0  0  0  0  0  0  0  0  0  0  0  0
   35.7250   29.8790   31.0600 C   0  0  0  0  0  0  0  0  0  0  0  0
   36.9180   29.0420   31.4630 C   0  0  0  0  0  0  0  0  0  0  0  0
   36.8730   29.1360   33.9650 H   0  0  0  0  0  0  0  0  0  0  0  0
   35.4860   27.9190   34.2200 H   0  0  0  0  0  0  0  0  0  0  0  0
   34.0050   29.5320   32.9040 H   0  0  0  0  0  0  0  0  0  0  0  0
   36.3240   31.2230   32.5580 H   0  0  0  0  0  0  0  0  0  0  0  0
   36.0440   30.5840   30.2660 H   0  0  0  0  0  0  0  0  0  0  0  0
   34.8180   29.3130   30.8520 H   0  0  0  0  0  0  0  0  0  0  0  0
   37.6440   29.7240   31.9660 H   0  0  0  0  0  0  0  0  0  0  0  0
   37.4280   28.5850   30.6100 H   0  0  0  0  0  0  0  0  0  0  0  0
   32.3720   29.4360   34.6900 Cl  0  0  0  0  0  0  0  0  0  0  0  0
   33.6650   30.4790   35.2950 C   0  0  0  0  0  0  0  0  0  0  0  0
   34.8070   30.5690   34.5460 C   0  0  0  0  0  0  0  0  0  0  0  0
   35.9180   31.3550   34.8940 C   0  0  0  0  0  0  0  0  0  0  0  0
   35.7900   32.0730   36.0910 C   0  0  0  0  0  0  0  0  0  0  0  0
   34.6210   31.9860   36.8610 C   0  0  0  0  0  0  0  0  0  0  0  0
   33.5880   31.1960   36.4540 C   0  0  0  0  0  0  0  0  0  0  0  0
   36.8840   31.5870   34.5170 H   0  0  0  0  0  0  0  0  0  0  0  0
   36.5220   32.7340   36.5370 H   0  0  0  0  0  0  0  0  0  0  0  0
   34.5170   32.5510   37.7900 H   0  0  0  0  0  0  0  0  0  0  0  0
   31.3880   33.0660   36.6380 N   0  0  0  0  0  0  0  0  0  0  0  0
   31.1730   31.7970   36.8020 C   0  0  0  0  0  0  0  0  0  0  0  0
   32.3460   31.0350   37.1550 N   0  0  0  0  0  0  0  0  0  0  0  0
   29.9150   31.1270   36.6700 N   0  0  0  0  0  0  0  0  0  0  0  0
   29.1230   30.8770   36.0620 H   0  0  0  0  0  0  0  0  0  0  0  0
   30.5920   33.6620   36.3860 H   0  0  0  0  0  0  0  0  0  0  0  0
   32.2250   30.3590   37.9480 H   0  0  0  0  0  0  0  0  0  0  0  0
   29.7110   30.7000   37.6160 H   0  0  0  0  0  0  0  0  0  0  0  0
   36.4150   26.6500   32.1570 C   0  0  0  0  0  0  0  0  0  0  0  0
   35.5780   26.0330   31.2260 C   0  0  0  0  0  0  0  0  0  0  0  0
   35.6390   24.6510   31.0910 C   0  0  0  0  0  0  0  0  0  0  0  0
   36.5320   23.9550   31.8920 N   0  0  0  0  0  0  0  0  0  0  0  0
   37.3210   24.6030   32.7780 C   0  0  0  0  0  0  0  0  0  0  0  0
   37.2740   25.9190   32.9170 N   0  0  0  0  0  0  0  0  0  0  0  0
   34.9330   26.6890   30.6700 H   0  0  0  0  0  0  0  0  0  0  0  0
   34.9930   24.1870   30.3760 H   0  0  0  0  0  0  0  0  0  0  0  0
   37.9660   23.9570   33.3350 H   0  0  0  0  0  0  0  0  0  0  0  0
  1  2  1  0  0  0  0
  2  7  1  0  0  0  0
  2  8  1  0  0  0  0
  3  9  1  6  0  0  0
  3  2  1  0  0  0  0
  3 17  1  0  0  0  0
  4 10  1  0  0  0  0
  4  3  1  0  0  0  0
  5  6  1  0  0  0  0
  5  4  1  0  0  0  0
  6 13  1  0  0  0  0
  6  1  1  0  0  0  0
 11  5  1  0  0  0  0
 12  5  1  0  0  0  0
 14  6  1  0  0  0  0
 15 16  1  0  0  0  0
 16 21  1  0  0  0  0
 17 18  1  0  0  0  0
 17 16  2  0  0  0  0
 18 19  2  0  0  0  0
 19 23  1  0  0  0  0
 19 20  1  0  0  0  0
 20 24  1  0  0  0  0
 21 20  2  0  0  0  0
 21 27  1  0  0  0  0
 22 18  1  0  0  0  0
 25 26  2  0  0  0  0
 26 27  1  0  0  0  0
 27 31  1  0  0  0  0
 28 26  1  0  0  0  0
 28 32  1  0  0  0  0
 29 28  1  0  0  0  0
 30 25  1  0  0  0  0
 33  1  1  0  0  0  0
 33 38  1  0  0  0  0
 34 33  2  0  0  0  0
 35 34  1  0  0  0  0
 35 36  2  0  0  0  0
 36 37  1  0  0  0  0
 37 38  2  0  0  0  0
 37 41  1  0  0  0  0
 39 34  1  0  0  0  0
 40 35  1  0  0  0  0
M  END
>  <minimizedAffinity>
-5.61035967

$$$$

 OpenBabel03272508413D

 41 43  0  0  1  0  0  0  0  0999 V2000
   36.2840   28.1840   32.4100 N   0  0  0  0  0  0  0  0  0  0  0  0
   36.7110   27.0170   33.1780 C   0  0  0  0  0  0  0  0  0  0  0  0
   38.0460   26.5250   32.8430 C   0  0  2  0  0  0  0  0  0  0  0  0
   38.2860   26.4900   31.3720 N   0  0  0  0  0  0  0  0  0  0  0  0
   37.9990   27.8380   30.8510 C   0  0  0  0  0  0  0  0  0  0  0  0
   36.5010   27.9650   31.0230 C   0  0  0  0  0  0  0  0  0  0  0  0
   35.9700   26.2470   32.7660 H   0  0  0  0  0  0  0  0  0  0  0  0
   36.5780   27.2120   34.2390 H   0  0  0  0  0  0  0  0  0  0  0  0
   38.8860   27.1760   33.1430 H   0  0  0  0  0  0  0  0  0  0  0  0
   37.7000   25.7600   30.9200 H   0  0  0  0  0  0  0  0  0  0  0  0
   38.2230   27.7930   29.7670 H   0  0  0  0  0  0  0  0  0  0  0  0
   38.5870   28.5490   31.4270 H   0  0  0  0  0  0  0  0  0  0  0  0
   36.0470   27.0060   30.6790 H   0  0  0  0  0  0  0  0  0  0  0  0
   36.0690   28.7710   30.4230 H   0  0  0  0  0  0  0  0  0  0  0  0
   39.8420   26.3520   35.2060 Cl  0  0  0  0  0  0  0  0  0  0  0  0
   39.0180   24.9630   34.4860 C   0  0  0  0  0  0  0  0  0  0  0  0
   38.2430   25.1910   33.3820 C   0  0  0  0  0  0  0  0  0  0  0  0
   37.5280   24.1910   32.7010 C   0  0  0  0  0  0  0  0  0  0  0  0
   37.6600   22.8990   33.2280 C   0  0  0  0  0  0  0  0  0  0  0  0
   38.4550   22.6600   34.3590 C   0  0  0  0  0  0  0  0  0  0  0  0
   39.1140   23.6880   34.9640 C   0  0  0  0  0  0  0  0  0  0  0  0
   36.8780   24.1000   31.8660 H   0  0  0  0  0  0  0  0  0  0  0  0
   37.1990   21.9920   32.8580 H   0  0  0  0  0  0  0  0  0  0  0  0
   38.5640   21.6520   34.7660 H   0  0  0  0  0  0  0  0  0  0  0  0
   38.3480   22.9940   37.6660 N   0  0  0  0  0  0  0  0  0  0  0  0
   39.5620   22.7780   37.2630 C   0  0  0  0  0  0  0  0  0  0  0  0
   39.9580   23.5610   36.1180 N   0  0  0  0  0  0  0  0  0  0  0  0
   40.4980   21.8640   37.8440 N   0  0  0  0  0  0  0  0  0  0  0  0
   40.7250   20.8910   38.0890 H   0  0  0  0  0  0  0  0  0  0  0  0
   38.0080   22.4660   38.4780 H   0  0  0  0  0  0  0  0  0  0  0  0
   40.8980   24.0200   36.1870 H   0  0  0  0  0  0  0  0  0  0  0  0
   41.3190   22.4510   38.1630 H   0  0  0  0  0  0  0  0  0  0  0  0
   35.7240   29.3350   33.0170 C   0  0  0  0  0  0  0  0  0  0  0  0
   35.7890   29.5550   34.3940 C   0  0  0  0  0  0  0  0  0  0  0  0
   35.2200   30.7140   34.9090 C   0  0  0  0  0  0  0  0  0  0  0  0
   34.6150   31.5940   34.0240 N   0  0  0  0  0  0  0  0  0  0  0  0
   34.5810   31.3320   32.6990 C   0  0  0  0  0  0  0  0  0  0  0  0
   35.1190   30.2330   32.1930 N   0  0  0  0  0  0  0  0  0  0  0  0
   36.2860   28.7930   34.9660 H   0  0  0  0  0  0  0  0  0  0  0  0
   35.2740   30.8740   35.9650 H   0  0  0  0  0  0  0  0  0  0  0  0
   34.0880   32.0860   32.1220 H   0  0  0  0  0  0  0  0  0  0  0  0
  1 33  1  0  0  0  0
  1  2  1  0  0  0  0
  2  8  1  0  0  0  0
  3  9  1  1  0  0  0
  3  2  1  0  0  0  0
  3 17  1  0  0  0  0
  4  3  1  0  0  0  0
  5  6  1  0  0  0  0
  5  4  1  0  0  0  0
  5 12  1  0  0  0  0
  6  1  1  0  0  0  0
  7  2  1  0  0  0  0
 10  4  1  0  0  0  0
 11  5  1  0  0  0  0
 13  6  1  0  0  0  0
 14  6  1  0  0  0  0
 16 21  1  0  0  0  0
 16 15  1  0  0  0  0
 17 16  2  0  0  0  0
 18 19  2  0  0  0  0
 18 17  1  0  0  0  0
 19 20  1  0  0  0  0
 20 24  1  0  0  0  0
 20 21  2  0  0  0  0
 21 27  1  0  0  0  0
 22 18  1  0  0  0  0
 23 19  1  0  0  0  0
 25 30  1  0  0  0  0
 26 25  2  0  0  0  0
 26 28  1  0  0  0  0
 27 31  1  0  0  0  0
 27 26  1  0  0  0  0
 28 29  1  0  0  0  0
 28 32  1  0  0  0  0
 33 34  1  0  0  0  0
 34 35  2  0  0  0  0
 34 39  1  0  0  0  0
 35 40  1  0  0  0  0
 36 35  1  0  0  0  0
 37 36  2  0  0  0  0
 38 37  1  0  0  0  0
 38 33  2  0  0  0  0
 41 37  1  0  0  0  0
M  END
>  <minimizedAffinity>
-5.47308683

$$$$

 OpenBabel03272508413D

 41 43  0  0  1  0  0  0  0  0999 V2000
   38.4390   27.7190   30.5440 N   0  0  0  0  0  0  0  0  0  0  0  0
   38.7380   27.2160   31.8820 C   0  0  0  0  0  0  0  0  0  0  0  0
   37.7060   26.3520   32.4510 C   0  0  2  0  0  0  0  0  0  0  0  0
   36.3320   26.8820   32.2220 N   0  0  0  0  0  0  0  0  0  0  0  0
   36.1880   27.1090   30.7730 C   0  0  0  0  0  0  0  0  0  0  0  0
   37.1270   28.2650   30.5080 C   0  0  0  0  0  0  0  0  0  0  0  0
   38.6910   28.2010   32.4630 H   0  0  0  0  0  0  0  0  0  0  0  0
   39.7270   26.7650   31.8880 H   0  0  0  0  0  0  0  0  0  0  0  0
   37.5940   25.3610   31.9760 H   0  0  0  0  0  0  0  0  0  0  0  0
   36.1740   27.7490   32.7740 H   0  0  0  0  0  0  0  0  0  0  0  0
   35.1480   27.4640   30.6280 H   0  0  0  0  0  0  0  0  0  0  0  0
   36.4480   26.1830   30.2640 H   0  0  0  0  0  0  0  0  0  0  0  0
   36.9670   29.0130   31.3190 H   0  0  0  0  0  0  0  0  0  0  0  0
   36.9330   28.7630   29.5540 H   0  0  0  0  0  0  0  0  0  0  0  0
   37.9840   23.5460   33.3930 Cl  0  0  0  0  0  0  0  0  0  0  0  0
   38.0890   24.9590   34.4500 C   0  0  0  0  0  0  0  0  0  0  0  0
   37.9130   26.1900   33.8800 C   0  0  0  0  0  0  0  0  0  0  0  0
   37.9660   27.4020   34.5880 C   0  0  0  0  0  0  0  0  0  0  0  0
   38.2140   27.2800   35.9620 C   0  0  0  0  0  0  0  0  0  0  0  0
   38.3930   26.0200   36.5520 C   0  0  0  0  0  0  0  0  0  0  0  0
   38.3290   24.8910   35.7930 C   0  0  0  0  0  0  0  0  0  0  0  0
   37.8780   28.4440   34.3990 H   0  0  0  0  0  0  0  0  0  0  0  0
   38.2930   28.0810   36.6850 H   0  0  0  0  0  0  0  0  0  0  0  0
   38.5790   25.9240   37.6250 H   0  0  0  0  0  0  0  0  0  0  0  0
   40.7740   23.3680   36.0580 N   0  0  0  0  0  0  0  0  0  0  0  0
   39.7520   23.0830   36.8030 C   0  0  0  0  0  0  0  0  0  0  0  0
   38.4890   23.5530   36.2880 N   0  0  0  0  0  0  0  0  0  0  0  0
   39.7790   22.3660   38.0420 N   0  0  0  0  0  0  0  0  0  0  0  0
   40.1210   22.3190   39.0120 H   0  0  0  0  0  0  0  0  0  0  0  0
   41.7020   23.0590   36.3720 H   0  0  0  0  0  0  0  0  0  0  0  0
   37.7050   22.8570   36.3060 H   0  0  0  0  0  0  0  0  0  0  0  0
   39.1870   21.5030   37.8930 H   0  0  0  0  0  0  0  0  0  0  0  0
   39.3700   27.6590   29.4790 C   0  0  0  0  0  0  0  0  0  0  0  0
   40.6830   27.2200   29.6630 C   0  0  0  0  0  0  0  0  0  0  0  0
   41.5320   27.1860   28.5630 C   0  0  0  0  0  0  0  0  0  0  0  0
   41.0290   27.5920   27.3360 N   0  0  0  0  0  0  0  0  0  0  0  0
   39.7490   28.0080   27.2140 C   0  0  0  0  0  0  0  0  0  0  0  0
   38.9280   28.0460   28.2520 N   0  0  0  0  0  0  0  0  0  0  0  0
   40.9430   26.9340   30.6650 H   0  0  0  0  0  0  0  0  0  0  0  0
   42.5360   26.8480   28.7140 H   0  0  0  0  0  0  0  0  0  0  0  0
   39.4820   28.2940   26.2190 H   0  0  0  0  0  0  0  0  0  0  0  0
  1  2  1  0  0  0  0
  2  8  1  0  0  0  0
  2  3  1  0  0  0  0
  2  7  1  0  0  0  0
  3  9  1  6  0  0  0
  3 17  1  0  0  0  0
  4  3  1  0  0  0  0
  4 10  1  0  0  0  0
  5  4  1  0  0  0  0
  6  1  1  0  0  0  0
  6  5  1  0  0  0  0
  6 13  1  0  0  0  0
 11  5  1  0  0  0  0
 12  5  1  0  0  0  0
 14  6  1  0  0  0  0
 15 16  1  0  0  0  0
 16 21  1  0  0  0  0
 17 16  2  0  0  0  0
 17 18  1  0  0  0  0
 18 19  2  0  0  0  0
 19 20  1  0  0  0  0
 19 23  1  0  0  0  0
 20 24  1  0  0  0  0
 21 27  1  0  0  0  0
 21 20  2  0  0  0  0
 22 18  1  0  0  0  0
 25 30  1  0  0  0  0
 25 26  2  0  0  0  0
 26 28  1  0  0  0  0
 27 31  1  0  0  0  0
 27 26  1  0  0  0  0
 28 29  1  0  0  0  0
 32 28  1  0  0  0  0
 33 34  1  0  0  0  0
 33  1  1  0  0  0  0
 34 39  1  0  0  0  0
 35 40  1  0  0  0  0
 35 34  2  0  0  0  0
 36 35  1  0  0  0  0
 37 36  2  0  0  0  0
 37 38  1  0  0  0  0
 38 33  2  0  0  0  0
 41 37  1  0  0  0  0
M  END
>  <minimizedAffinity>
-5.32672119

$$$$

 OpenBabel03272508413D

 41 43  0  0  1  0  0  0  0  0999 V2000
   38.7850   25.9130   35.0410 N   0  0  0  0  0  0  0  0  0  0  0  0
   37.9690   26.5200   33.9920 C   0  0  0  0  0  0  0  0  0  0  0  0
   38.6760   26.7590   32.7350 C   0  0  2  0  0  0  0  0  0  0  0  0
   40.0350   27.3320   32.9480 N   0  0  0  0  0  0  0  0  0  0  0  0
   40.7480   26.4310   33.8710 C   0  0  0  0  0  0  0  0  0  0  0  0
   40.0110   26.6190   35.1780 C   0  0  0  0  0  0  0  0  0  0  0  0
   37.7970   27.5470   34.4670 H   0  0  0  0  0  0  0  0  0  0  0  0
   37.0540   25.9480   33.8680 H   0  0  0  0  0  0  0  0  0  0  0  0
   38.9520   25.8580   32.1610 H   0  0  0  0  0  0  0  0  0  0  0  0
   39.9740   28.3030   33.3150 H   0  0  0  0  0  0  0  0  0  0  0  0
   41.7660   26.8580   33.9790 H   0  0  0  0  0  0  0  0  0  0  0  0
   40.6990   25.4250   33.4580 H   0  0  0  0  0  0  0  0  0  0  0  0
   39.8460   27.7140   35.3100 H   0  0  0  0  0  0  0  0  0  0  0  0
   40.5770   26.2620   36.0430 H   0  0  0  0  0  0  0  0  0  0  0  0
   39.3490   26.6810   29.8410 Cl  0  0  0  0  0  0  0  0  0  0  0  0
   38.0930   27.7130   30.5360 C   0  0  0  0  0  0  0  0  0  0  0  0
   37.9130   27.6640   31.8910 C   0  0  0  0  0  0  0  0  0  0  0  0
   36.9590   28.4230   32.5880 C   0  0  0  0  0  0  0  0  0  0  0  0
   36.1740   29.2700   31.7930 C   0  0  0  0  0  0  0  0  0  0  0  0
   36.3560   29.3260   30.4040 C   0  0  0  0  0  0  0  0  0  0  0  0
   37.3040   28.5520   29.8040 C   0  0  0  0  0  0  0  0  0  0  0  0
   36.6210   28.5630   33.5860 H   0  0  0  0  0  0  0  0  0  0  0  0
   35.3880   29.9350   32.1270 H   0  0  0  0  0  0  0  0  0  0  0  0
   35.7500   29.9910   29.7840 H   0  0  0  0  0  0  0  0  0  0  0  0
   38.5420   30.6170   28.1990 N   0  0  0  0  0  0  0  0  0  0  0  0
   38.5910   29.3800   27.8110 C   0  0  0  0  0  0  0  0  0  0  0  0
   37.5820   28.5310   28.3960 N   0  0  0  0  0  0  0  0  0  0  0  0
   39.5280   28.8200   26.8850 N   0  0  0  0  0  0  0  0  0  0  0  0
   40.5100   28.6170   26.6570 H   0  0  0  0  0  0  0  0  0  0  0  0
   39.2350   31.2710   27.8180 H   0  0  0  0  0  0  0  0  0  0  0  0
   37.0770   27.9010   27.7260 H   0  0  0  0  0  0  0  0  0  0  0  0
   38.9530   28.4520   26.0760 H   0  0  0  0  0  0  0  0  0  0  0  0
   38.3550   24.7920   35.7910 C   0  0  0  0  0  0  0  0  0  0  0  0
   38.1780   23.5340   35.2130 C   0  0  0  0  0  0  0  0  0  0  0  0
   37.7580   22.4840   36.0210 C   0  0  0  0  0  0  0  0  0  0  0  0
   37.5360   22.7430   37.3660 N   0  0  0  0  0  0  0  0  0  0  0  0
   37.7250   23.9810   37.8750 C   0  0  0  0  0  0  0  0  0  0  0  0
   38.1240   24.9900   37.1180 N   0  0  0  0  0  0  0  0  0  0  0  0
   38.3840   23.4710   34.1600 H   0  0  0  0  0  0  0  0  0  0  0  0
   37.6240   21.5240   35.5690 H   0  0  0  0  0  0  0  0  0  0  0  0
   37.5210   24.0520   38.9220 H   0  0  0  0  0  0  0  0  0  0  0  0
  1  6  1  0  0  0  0
  1 33  1  0  0  0  0
  2  7  1  0  0  0  0
  2  1  1  0  0  0  0
  3  9  1  6  0  0  0
  3  4  1  0  0  0  0
  3  2  1  0  0  0  0
  4 10  1  0  0  0  0
  4  5  1  0  0  0  0
  5 11  1  0  0  0  0
  5  6  1  0  0  0  0
  6 13  1  0  0  0  0
  6 14  1  0  0  0  0
  8  2  1  0  0  0  0
 12  5  1  0  0  0  0
 15 16  1  0  0  0  0
 16 17  1  0  0  0  0
 17 18  2  0  0  0  0
 17  3  1  0  0  0  0
 18 22  1  0  0  0  0
 19 23  1  0  0  0  0
 19 18  1  0  0  0  0
 20 19  2  0  0  0  0
 21 20  1  0  0  0  0
 21 16  2  0  0  0  0
 24 20  1  0  0  0  0
 26 25  2  0  0  0  0
 26 27  1  0  0  0  0
 27 21  1  0  0  0  0
 28 26  1  0  0  0  0
 29 28  1  0  0  0  0
 30 25  1  0  0  0  0
 31 27  1  0  0  0  0
 32 28  1  0  0  0  0
 33 38  1  0  0  0  0
 34 33  2  0  0  0  0
 34 35  1  0  0  0  0
 35 36  2  0  0  0  0
 36 37  1  0  0  0  0
 37 41  1  0  0  0  0
 38 37  2  0  0  0  0
 39 34  1  0  0  0  0
 40 35  1  0  0  0  0
M  END
>  <minimizedAffinity>
-5.31704092

$$$$

 OpenBabel03272508413D

 41 43  0  0  1  0  0  0  0  0999 V2000
   34.2480   31.8980   36.2980 N   0  0  0  0  0  0  0  0  0  0  0  0
   35.0970   31.1820   35.3490 C   0  0  0  0  0  0  0  0  0  0  0  0
   34.3720   30.5120   34.2710 C   0  0  2  0  0  0  0  0  0  0  0  0
   33.1570   29.8010   34.7600 N   0  0  0  0  0  0  0  0  0  0  0  0
   32.3470   30.7810   35.5050 C   0  0  0  0  0  0  0  0  0  0  0  0
   33.1850   31.0620   36.7320 C   0  0  0  0  0  0  0  0  0  0  0  0
   35.4850   30.3550   36.0400 H   0  0  0  0  0  0  0  0  0  0  0  0
   35.8820   31.8430   34.9930 H   0  0  0  0  0  0  0  0  0  0  0  0
   33.8990   31.1770   33.5260 H   0  0  0  0  0  0  0  0  0  0  0  0
   33.4190   28.9820   35.3450 H   0  0  0  0  0  0  0  0  0  0  0  0
   31.4350   30.2380   35.8200 H   0  0  0  0  0  0  0  0  0  0  0  0
   32.1850   31.6400   34.8550 H   0  0  0  0  0  0  0  0  0  0  0  0
   33.5560   30.0800   37.1100 H   0  0  0  0  0  0  0  0  0  0  0  0
   32.6160   31.5340   37.5390 H   0  0  0  0  0  0  0  0  0  0  0  0
   34.2630   30.5610   31.3010 Cl  0  0  0  0  0  0  0  0  0  0  0  0
   35.3130   29.4870   32.2340 C   0  0  0  0  0  0  0  0  0  0  0  0
   35.2350   29.5570   33.5980 C   0  0  0  0  0  0  0  0  0  0  0  0
   36.0030   28.7700   34.4730 C   0  0  0  0  0  0  0  0  0  0  0  0
   36.8820   27.8720   33.8510 C   0  0  0  0  0  0  0  0  0  0  0  0
   36.9630   27.7950   32.4530 C   0  0  0  0  0  0  0  0  0  0  0  0
   36.1850   28.5980   31.6750 C   0  0  0  0  0  0  0  0  0  0  0  0
   36.1390   28.6360   35.5180 H   0  0  0  0  0  0  0  0  0  0  0  0
   37.5570   27.1790   34.3360 H   0  0  0  0  0  0  0  0  0  0  0  0
   37.6430   27.0900   31.9680 H   0  0  0  0  0  0  0  0  0  0  0  0
   37.7670   30.2330   29.8880 N   0  0  0  0  0  0  0  0  0  0  0  0
   37.3010   29.0940   29.4790 C   0  0  0  0  0  0  0  0  0  0  0  0
   36.1790   28.6020   30.2400 N   0  0  0  0  0  0  0  0  0  0  0  0
   37.7920   28.3240   28.3770 N   0  0  0  0  0  0  0  0  0  0  0  0
   38.5800   27.8130   27.9560 H   0  0  0  0  0  0  0  0  0  0  0  0
   38.5670   30.6360   29.3870 H   0  0  0  0  0  0  0  0  0  0  0  0
   35.3700   28.2450   29.6740 H   0  0  0  0  0  0  0  0  0  0  0  0
   36.9890   28.2480   27.6930 H   0  0  0  0  0  0  0  0  0  0  0  0
   34.5090   33.2300   36.7020 C   0  0  0  0  0  0  0  0  0  0  0  0
   35.3700   34.0680   35.9900 C   0  0  0  0  0  0  0  0  0  0  0  0
   35.5680   35.3640   36.4510 C   0  0  0  0  0  0  0  0  0  0  0  0
   34.8960   35.7590   37.5980 N   0  0  0  0  0  0  0  0  0  0  0  0
   34.0720   34.9070   38.2480 C   0  0  0  0  0  0  0  0  0  0  0  0
   33.8740   33.6700   37.8210 N   0  0  0  0  0  0  0  0  0  0  0  0
   35.8280   33.6350   35.1190 H   0  0  0  0  0  0  0  0  0  0  0  0
   36.2300   35.9980   35.8990 H   0  0  0  0  0  0  0  0  0  0  0  0
   33.6130   35.3300   39.1160 H   0  0  0  0  0  0  0  0  0  0  0  0
  1 33  1  0  0  0  0
  1  6  1  0  0  0  0
  2  7  1  0  0  0  0
  2  1  1  0  0  0  0
  3  9  1  6  0  0  0
  3  4  1  0  0  0  0
  3  2  1  0  0  0  0
  4 10  1  0  0  0  0
  4  5  1  0  0  0  0
  5 11  1  0  0  0  0
  5  6  1  0  0  0  0
  6 13  1  0  0  0  0
  6 14  1  0  0  0  0
  8  2  1  0  0  0  0
 12  5  1  0  0  0  0
 15 16  1  0  0  0  0
 16 17  1  0  0  0  0
 17  3  1  0  0  0  0
 17 18  2  0  0  0  0
 18 22  1  0  0  0  0
 19 23  1  0  0  0  0
 19 18  1  0  0  0  0
 20 19  2  0  0  0  0
 21 16  2  0  0  0  0
 21 20  1  0  0  0  0
 24 20  1  0  0  0  0
 26 25  2  0  0  0  0
 26 27  1  0  0  0  0
 27 21  1  0  0  0  0
 28 26  1  0  0  0  0
 29 28  1  0  0  0  0
 30 25  1  0  0  0  0
 31 27  1  0  0  0  0
 32 28  1  0  0  0  0
 33 38  1  0  0  0  0
 34 35  1  0  0  0  0
 34 33  2  0  0  0  0
 35 36  2  0  0  0  0
 36 37  1  0  0  0  0
 37 41  1  0  0  0  0
 38 37  2  0  0  0  0
 39 34  1  0  0  0  0
 40 35  1  0  0  0  0
M  END
>  <minimizedAffinity>
-5.29106951

$$$$

 OpenBabel03272508413D

 41 43  0  0  1  0  0  0  0  0999 V2000
   37.3400   26.9050   31.1610 N   0  0  0  0  0  0  0  0  0  0  0  0
   37.8870   26.4960   32.4520 C   0  0  0  0  0  0  0  0  0  0  0  0
   37.7860   25.0650   32.7290 C   0  0  2  0  0  0  0  0  0  0  0  0
   36.4560   24.5060   32.3530 N   0  0  0  0  0  0  0  0  0  0  0  0
   36.2180   24.8590   30.9430 C   0  0  0  0  0  0  0  0  0  0  0  0
   36.0390   26.3600   30.9860 C   0  0  0  0  0  0  0  0  0  0  0  0
   37.1340   27.0130   33.1410 H   0  0  0  0  0  0  0  0  0  0  0  0
   38.8970   26.8840   32.5570 H   0  0  0  0  0  0  0  0  0  0  0  0
   38.4320   24.4110   32.1160 H   0  0  0  0  0  0  0  0  0  0  0  0
   35.7120   24.8700   32.9820 H   0  0  0  0  0  0  0  0  0  0  0  0
   35.2450   24.3980   30.6800 H   0  0  0  0  0  0  0  0  0  0  0  0
   37.0750   24.5170   30.3650 H   0  0  0  0  0  0  0  0  0  0  0  0
   35.3740   26.5880   31.8520 H   0  0  0  0  0  0  0  0  0  0  0  0
   35.5610   26.7600   30.0870 H   0  0  0  0  0  0  0  0  0  0  0  0
   38.8910   22.3800   33.3670 Cl  0  0  0  0  0  0  0  0  0  0  0  0
   38.5570   23.6250   34.5770 C   0  0  0  0  0  0  0  0  0  0  0  0
   38.0220   24.8050   34.1390 C   0  0  0  0  0  0  0  0  0  0  0  0
   37.7020   25.8860   34.9780 C   0  0  0  0  0  0  0  0  0  0  0  0
   37.9650   25.6820   36.3390 C   0  0  0  0  0  0  0  0  0  0  0  0
   38.5120   24.4730   36.7940 C   0  0  0  0  0  0  0  0  0  0  0  0
   38.7970   23.4740   35.9130 C   0  0  0  0  0  0  0  0  0  0  0  0
   37.3060   26.8680   34.9010 H   0  0  0  0  0  0  0  0  0  0  0  0
   37.7940   26.3800   37.1490 H   0  0  0  0  0  0  0  0  0  0  0  0
   38.7100   24.3110   37.8560 H   0  0  0  0  0  0  0  0  0  0  0  0
   41.5830   22.6970   35.9920 N   0  0  0  0  0  0  0  0  0  0  0  0
   40.7130   22.0600   36.7140 C   0  0  0  0  0  0  0  0  0  0  0  0
   39.3500   22.1970   36.2640 N   0  0  0  0  0  0  0  0  0  0  0  0
   40.9930   21.2650   37.8710 N   0  0  0  0  0  0  0  0  0  0  0  0
   41.3720   21.2230   38.8270 H   0  0  0  0  0  0  0  0  0  0  0  0
   42.5710   22.6380   36.2630 H   0  0  0  0  0  0  0  0  0  0  0  0
   38.7970   21.3070   36.2180 H   0  0  0  0  0  0  0  0  0  0  0  0
   40.6640   20.2870   37.6390 H   0  0  0  0  0  0  0  0  0  0  0  0
   38.0460   27.7390   30.2610 C   0  0  0  0  0  0  0  0  0  0  0  0
   37.3940   28.5300   29.3120 C   0  0  0  0  0  0  0  0  0  0  0  0
   38.1610   29.3250   28.4700 C   0  0  0  0  0  0  0  0  0  0  0  0
   39.5400   29.2920   28.6160 N   0  0  0  0  0  0  0  0  0  0  0  0
   40.1200   28.5090   29.5530 C   0  0  0  0  0  0  0  0  0  0  0  0
   39.4030   27.7460   30.3620 N   0  0  0  0  0  0  0  0  0  0  0  0
   36.3220   28.4610   29.3050 H   0  0  0  0  0  0  0  0  0  0  0  0
   37.6530   29.9270   27.7460 H   0  0  0  0  0  0  0  0  0  0  0  0
   41.1880   28.5720   29.5670 H   0  0  0  0  0  0  0  0  0  0  0  0
  1  2  1  0  0  0  0
  2  8  1  0  0  0  0
  2  3  1  0  0  0  0
  2  7  1  0  0  0  0
  3  9  1  6  0  0  0
  3 17  1  0  0  0  0
  4  3  1  0  0  0  0
  4 10  1  0  0  0  0
  5  6  1  0  0  0  0
  5  4  1  0  0  0  0
  6  1  1  0  0  0  0
  6 13  1  0  0  0  0
 11  5  1  0  0  0  0
 12  5  1  0  0  0  0
 14  6  1  0  0  0  0
 15 16  1  0  0  0  0
 16 21  1  0  0  0  0
 17 16  2  0  0  0  0
 17 18  1  0  0  0  0
 18 19  2  0  0  0  0
 19 20  1  0  0  0  0
 19 23  1  0  0  0  0
 20 24  1  0  0  0  0
 21 27  1  0  0  0  0
 21 20  2  0  0  0  0
 22 18  1  0  0  0  0
 25 30  1  0  0  0  0
 25 26  2  0  0  0  0
 26 28  1  0  0  0  0
 27 26  1  0  0  0  0
 28 29  1  0  0  0  0
 31 27  1  0  0  0  0
 32 28  1  0  0  0  0
 33 38  1  0  0  0  0
 33  1  1  0  0  0  0
 34 33  2  0  0  0  0
 35 36  2  0  0  0  0
 35 34  1  0  0  0  0
 36 37  1  0  0  0  0
 37 41  1  0  0  0  0
 37 38  2  0  0  0  0
 39 34  1  0  0  0  0
 40 35  1  0  0  0  0
M  END
>  <minimizedAffinity>
-5.2899828

$$$$
