REMARK  Name = 
REMARK  3 active torsions:
REMARK  status: ('A' for Active; 'I' for Inactive)
REMARK    1  A    between atoms: C_3  and  C_17
REMARK    2  A    between atoms: C_7  and  C_10
REMARK    3  A    between atoms: C_14  and  O_15
REMARK                            x       y       z     vdW  Elec       q    Type
REMARK                         _______ _______ _______ _____ _____    ______ ____
ROOT
ATOM      1  F   UNL     1      34.328  30.452  47.602  0.00  0.00    +0.000 F 
ATOM      2  C   UNL     1      34.746  29.986  46.381  0.00  0.00    +0.000 A 
ATOM      3  C   UNL     1      33.878  29.369  45.503  0.00  0.00    +0.000 A 
ATOM      4  C   UNL     1      34.364  28.939  44.289  0.00  0.00    +0.000 A 
ATOM      5  C   UNL     1      35.711  29.125  43.951  0.00  0.00    +0.000 A 
ATOM      6  C   UNL     1      36.523  29.750  44.877  0.00  0.00    +0.000 A 
ATOM      7  C   UNL     1      36.091  30.183  46.073  0.00  0.00    +0.000 A 
ATOM      8  H   UNL     1      33.661  28.465  43.634  0.00  0.00    +0.000 HD
ATOM      9  H   UNL     1      36.056  28.779  42.995  0.00  0.00    +0.000 HD
ATOM     10  H   UNL     1      37.543  29.855  44.543  0.00  0.00    +0.000 HD
ENDROOT
BRANCH   3  12
ATOM     11  C   UNL     1      32.256  28.196  46.844  0.00  0.00    +0.000 A 
ATOM     12  C   UNL     1      32.528  29.239  45.966  0.00  0.00    +0.000 A 
ATOM     13  C   UNL     1      31.478  30.075  45.610  0.00  0.00    +0.000 A 
ATOM     14  N   UNL     1      30.244  29.857  46.116  0.00  0.00    +0.000 NA
ATOM     15  C   UNL     1      30.004  28.850  46.957  0.00  0.00    +0.000 A 
ATOM     16  N   UNL     1      30.994  28.037  47.312  0.00  0.00    +0.000 NA
ATOM     17  H   UNL     1      33.034  27.503  47.164  0.00  0.00    +0.000 HD
ATOM     18  H   UNL     1      31.712  30.887  44.920  0.00  0.00    +0.000 HD
ATOM     19  N   UNL     1      29.374  27.258  49.195  0.00  0.00    +0.000 NA
ATOM     20  C   UNL     1      28.490  28.081  48.758  0.00  0.00    +0.000 C 
ATOM     21  N   UNL     1      28.690  28.655  47.467  0.00  0.00    +0.000 N 
ATOM     22  N   UNL     1      27.332  28.427  49.518  0.00  0.00    +0.000 N 
ATOM     23  H   UNL     1      26.738  28.952  50.172  0.00  0.00    +0.000 HD
ATOM     24  H   UNL     1      29.226  26.840  50.138  0.00  0.00    +0.000 HD
ATOM     25  H   UNL     1      27.856  28.937  46.889  0.00  0.00    +0.000 HD
ATOM     26  H   UNL     1      27.465  29.293  50.119  0.00  0.00    +0.000 HD
ENDBRANCH   3  12
BRANCH   7  29
ATOM     27 BR   UNL     1      37.984  32.418  44.967  0.00  0.00    +0.000 Br
ATOM     28  C   UNL     1      37.885  31.840  46.780  0.00  0.00    +0.000 A 
ATOM     29  C   UNL     1      36.997  30.824  47.010  0.00  0.00    +0.000 A 
ATOM     30  C   UNL     1      36.898  30.319  48.319  0.00  0.00    +0.000 A 
ATOM     31  C   UNL     1      37.661  30.827  49.319  0.00  0.00    +0.000 A 
ATOM     32  C   UNL     1      38.542  31.858  49.020  0.00  0.00    +0.000 A 
ATOM     33  C   UNL     1      38.663  32.380  47.734  0.00  0.00    +0.000 A 
ATOM     34  H   UNL     1      36.223  29.517  48.587  0.00  0.00    +0.000 HD
ATOM     35  H   UNL     1      37.608  30.460  50.335  0.00  0.00    +0.000 HD
ATOM     36  H   UNL     1      39.167  32.289  49.794  0.00  0.00    +0.000 HD
BRANCH  33  37
ATOM     37  O   UNL     1      39.499  33.388  47.363  0.00  0.00    +0.000 OA
ATOM     38  H   UNL     1      39.083  34.225  46.951  0.00  0.00    +0.000 HD
ENDBRANCH  33  37
ENDBRANCH   7  29
TORSDOF 3
