
 OpenBabel03272508403D

 41 43  0  0  1  0  0  0  0  0999 V2000
   33.2930   29.2870   46.4870 N   0  0  0  0  0  0  0  0  0  0  0  0
   32.5000   30.2460   45.7210 C   0  0  0  0  0  0  0  0  0  0  0  0
   33.1250   30.6940   44.4780 C   0  0  2  0  0  0  0  0  0  0  0  0
   34.5740   31.0000   44.6480 N   0  0  0  0  0  0  0  0  0  0  0  0
   35.2050   29.8050   45.2360 C   0  0  0  0  0  0  0  0  0  0  0  0
   34.6260   29.7580   46.6320 C   0  0  0  0  0  0  0  0  0  0  0  0
   32.5420   31.1340   46.4420 H   0  0  0  0  0  0  0  0  0  0  0  0
   31.4960   29.8570   45.5810 H   0  0  0  0  0  0  0  0  0  0  0  0
   33.1970   29.9370   43.6770 H   0  0  0  0  0  0  0  0  0  0  0  0
   34.7060   31.8460   45.2380 H   0  0  0  0  0  0  0  0  0  0  0  0
   36.2850   30.0450   45.3130 H   0  0  0  0  0  0  0  0  0  0  0  0
   34.9540   28.9530   44.6070 H   0  0  0  0  0  0  0  0  0  0  0  0
   34.6570   30.7970   47.0380 H   0  0  0  0  0  0  0  0  0  0  0  0
   35.1980   29.1200   47.3120 H   0  0  0  0  0  0  0  0  0  0  0  0
   33.6120   31.3170   41.6120 Cl  0  0  0  0  0  0  0  0  0  0  0  0
   32.5590   32.2690   42.6660 C   0  0  0  0  0  0  0  0  0  0  0  0
   32.4520   31.8780   43.9730 C   0  0  0  0  0  0  0  0  0  0  0  0
   31.6580   32.5330   44.9290 C   0  0  0  0  0  0  0  0  0  0  0  0
   30.9580   33.6520   44.4580 C   0  0  0  0  0  0  0  0  0  0  0  0
   31.0650   34.0580   43.1200 C   0  0  0  0  0  0  0  0  0  0  0  0
   31.8570   33.3650   42.2540 C   0  0  0  0  0  0  0  0  0  0  0  0
   31.4010   32.4390   45.9550 H   0  0  0  0  0  0  0  0  0  0  0  0
   30.2950   34.2940   45.0250 H   0  0  0  0  0  0  0  0  0  0  0  0
   30.5260   34.9340   42.7540 H   0  0  0  0  0  0  0  0  0  0  0  0
   33.1840   35.6790   41.1310 N   0  0  0  0  0  0  0  0  0  0  0  0
   33.0940   34.5850   40.4380 C   0  0  0  0  0  0  0  0  0  0  0  0
   32.0480   33.6910   40.8690 N   0  0  0  0  0  0  0  0  0  0  0  0
   33.9170   34.2170   39.3270 N   0  0  0  0  0  0  0  0  0  0  0  0
   34.8630   34.0080   38.9760 H   0  0  0  0  0  0  0  0  0  0  0  0
   33.9100   36.3560   40.8730 H   0  0  0  0  0  0  0  0  0  0  0  0
   31.4480   33.2950   40.1040 H   0  0  0  0  0  0  0  0  0  0  0  0
   33.2640   34.1140   38.5020 H   0  0  0  0  0  0  0  0  0  0  0  0
   32.7500   28.0840   47.0000 C   0  0  0  0  0  0  0  0  0  0  0  0
   33.4720   26.8900   47.0160 C   0  0  0  0  0  0  0  0  0  0  0  0
   32.8670   25.7550   47.5430 C   0  0  0  0  0  0  0  0  0  0  0  0
   31.5720   25.8690   48.0270 N   0  0  0  0  0  0  0  0  0  0  0  0
   30.9190   27.0510   47.9880 C   0  0  0  0  0  0  0  0  0  0  0  0
   31.4810   28.1410   47.4900 N   0  0  0  0  0  0  0  0  0  0  0  0
   34.4650   26.9390   46.6100 H   0  0  0  0  0  0  0  0  0  0  0  0
   33.4280   24.8440   47.5500 H   0  0  0  0  0  0  0  0  0  0  0  0
   29.9290   27.0100   48.3910 H   0  0  0  0  0  0  0  0  0  0  0  0
  1  6  1  0  0  0  0
  1 33  1  0  0  0  0
  2  7  1  0  0  0  0
  2  1  1  0  0  0  0
  3  9  1  6  0  0  0
  3  4  1  0  0  0  0
  3  2  1  0  0  0  0
  4  5  1  0  0  0  0
  4 10  1  0  0  0  0
  5 11  1  0  0  0  0
  5  6  1  0  0  0  0
  6 13  1  0  0  0  0
  6 14  1  0  0  0  0
  8  2  1  0  0  0  0
 12  5  1  0  0  0  0
 15 16  1  0  0  0  0
 16 17  1  0  0  0  0
 17  3  1  0  0  0  0
 17 18  2  0  0  0  0
 18 22  1  0  0  0  0
 19 18  1  0  0  0  0
 19 23  1  0  0  0  0
 20 19  2  0  0  0  0
 21 16  2  0  0  0  0
 21 20  1  0  0  0  0
 24 20  1  0  0  0  0
 26 27  1  0  0  0  0
 26 25  2  0  0  0  0
 27 21  1  0  0  0  0
 28 26  1  0  0  0  0
 29 28  1  0  0  0  0
 30 25  1  0  0  0  0
 31 27  1  0  0  0  0
 32 28  1  0  0  0  0
 33 34  2  0  0  0  0
 33 38  1  0  0  0  0
 34 35  1  0  0  0  0
 35 40  1  0  0  0  0
 35 36  2  0  0  0  0
 37 36  1  0  0  0  0
 37 41  1  0  0  0  0
 38 37  2  0  0  0  0
 39 34  1  0  0  0  0
M  END
>  <minimizedAffinity>
-3.69497967

>  <minimizedRMSD>
8.15561199

$$$$
