
 OpenBabel03262520323D

 22 22  0  0  0  0  0  0  0  0999 V2000
   34.9330   28.5240   49.2800 C   0  0  0  0  0  0  0  0  0  0  0  0
   34.5610   28.7960   48.0730 C   0  0  0  0  0  0  0  0  0  0  0  0
   37.2510   30.0380   51.6640 C   0  0  0  0  0  0  0  0  0  0  0  0
   38.1990   30.6490   50.7990 C   0  0  0  0  0  0  0  0  0  0  0  0
   38.0180   30.5120   49.4240 C   0  0  0  0  0  0  0  0  0  0  0  0
   36.9230   29.7880   48.9890 N   0  0  0  0  0  0  0  0  0  0  0  0
   36.0610   29.2340   49.8480 C   0  0  0  0  0  0  0  0  0  0  0  0
   36.2180   29.3540   51.1590 N   0  0  0  0  0  0  0  0  0  0  0  0
   37.4450   30.1840   52.7330 H   0  0  0  0  0  0  0  0  0  0  0  0
   39.0510   31.2110   51.1020 H   0  0  0  0  0  0  0  0  0  0  0  0
   38.6480   30.9160   48.6540 H   0  0  0  0  0  0  0  0  0  0  0  0
   33.4340   28.3010   47.2650 C   0  0  0  0  0  0  0  0  0  0  0  0
   33.8390   28.0810   46.2470 H   0  0  0  0  0  0  0  0  0  0  0  0
   33.1170   27.3250   47.7460 H   0  0  0  0  0  0  0  0  0  0  0  0
   33.7580   30.3560   45.4330 N   0  0  0  0  0  0  0  0  0  0  0  0
   32.8090   30.3040   46.2870 C   0  0  0  0  0  0  0  0  0  0  0  0
   32.3640   29.2400   47.1280 N   0  0  0  0  0  0  0  0  0  0  0  0
   32.3750   31.6450   46.0950 N   0  0  0  0  0  0  0  0  0  0  0  0
   31.5670   31.8270   45.4390 H   0  0  0  0  0  0  0  0  0  0  0  0
   34.4140   29.5880   45.1830 H   0  0  0  0  0  0  0  0  0  0  0  0
   31.3830   29.4350   47.4120 H   0  0  0  0  0  0  0  0  0  0  0  0
   32.7810   32.5200   46.5420 H   0  0  0  0  0  0  0  0  0  0  0  0
  1  7  1  0  0  0  0
  2  1  2  0  0  0  0
  3  9  1  0  0  0  0
  4 10  1  0  0  0  0
  4  3  2  0  0  0  0
  5  4  1  0  0  0  0
  6  5  2  0  0  0  0
  6  7  1  0  0  0  0
  7  8  2  0  0  0  0
  8  3  1  0  0  0  0
 11  5  1  0  0  0  0
 12 14  1  0  0  0  0
 12  2  1  0  0  0  0
 13 12  1  0  0  0  0
 15 16  2  0  0  0  0
 16 17  1  0  0  0  0
 17 12  1  0  0  0  0
 17 21  1  0  0  0  0
 18 16  1  0  0  0  0
 18 22  1  0  0  0  0
 19 18  1  0  0  0  0
 20 15  1  0  0  0  0
M  END
>  <minimizedAffinity>
-4.50532389

>  <minimizedRMSD>
3.18513274

$$$$
