REMARK  Name = 
REMARK  3 active torsions:
REMARK  status: ('A' for Active; 'I' for Inactive)
REMARK    1  A    between atoms: C_1  and  C_13
REMARK    2  A    between atoms: C_5  and  C_7
REMARK    3  A    between atoms: C_12  and  N_25
REMARK                            x       y       z     vdW  Elec       q    Type
REMARK                         _______ _______ _______ _____ _____    ______ ____
ROOT
ATOM      1  C   UNL     1      36.392  30.486  46.529  0.00  0.00    +0.000 A 
ATOM      2  C   UNL     1      35.108  29.952  46.496  0.00  0.00    +0.000 A 
ATOM      3  C   UNL     1      34.458  29.678  45.330  0.00  0.00    +0.000 A 
ATOM      4  C   UNL     1      35.063  29.926  44.099  0.00  0.00    +0.000 A 
ATOM      5  C   UNL     1      36.327  30.451  44.117  0.00  0.00    +0.000 A 
ATOM      6  C   UNL     1      36.987  30.729  45.303  0.00  0.00    +0.000 A 
ATOM      7  H   UNL     1      34.653  29.766  47.483  0.00  0.00    +0.000 HD
ATOM      8  H   UNL     1      33.469  29.267  45.459  0.00  0.00    +0.000 HD
ATOM      9  H   UNL     1      34.467  29.676  43.235  0.00  0.00    +0.000 HD
ATOM     10  H   UNL     1      36.666  30.600  43.114  0.00  0.00    +0.000 HD
ENDROOT
BRANCH   1  15
ATOM     11  C   UNL     1      37.417  30.279  50.033  0.00  0.00    +0.000 A 
ATOM     12  C   UNL     1      38.296  31.356  50.160  0.00  0.00    +0.000 A 
ATOM     13  C   UNL     1      38.523  32.145  49.033  0.00  0.00    +0.000 A 
ATOM     14  N   UNL     1      37.875  31.810  47.895  0.00  0.00    +0.000 NA
ATOM     15  C   UNL     1      37.037  30.771  47.797  0.00  0.00    +0.000 A 
ATOM     16  N   UNL     1      36.815  30.011  48.874  0.00  0.00    +0.000 NA
ATOM     17  H   UNL     1      38.765  31.541  51.115  0.00  0.00    +0.000 HD
ATOM     18  H   UNL     1      39.200  32.976  49.127  0.00  0.00    +0.000 HD
BRANCH  11  19
ATOM     19  C   UNL     1      37.170  29.439  51.258  0.00  0.00    +0.000 C 
ATOM     20  F   UNL     1      35.792  29.197  51.379  0.00  0.00    +0.000 F 
ATOM     21  F   UNL     1      37.876  28.297  51.141  0.00  0.00    +0.000 F 
ATOM     22  F   UNL     1      37.529  30.182  52.363  0.00  0.00    +0.000 F 
ENDBRANCH  11  19
ENDBRANCH   1  15
BRANCH   6  25
ATOM     23  N   UNL     1      38.923  30.525  43.104  0.00  0.00    +0.000 NA
ATOM     24  C   UNL     1      39.000  31.477  43.986  0.00  0.00    +0.000 C 
ATOM     25  N   UNL     1      38.296  31.257  45.203  0.00  0.00    +0.000 N 
ATOM     26  N   UNL     1      39.774  32.667  43.704  0.00  0.00    +0.000 N 
ATOM     27  H   UNL     1      39.458  33.048  42.779  0.00  0.00    +0.000 HD
ATOM     28  H   UNL     1      39.414  30.641  42.216  0.00  0.00    +0.000 HD
ATOM     29  H   UNL     1      38.939  31.563  45.963  0.00  0.00    +0.000 HD
ATOM     30  H   UNL     1      40.511  33.133  44.236  0.00  0.00    +0.000 HD
ENDBRANCH   6  25
TORSDOF 3
