
 OpenBabel03262522533D

 32 34  0  0  0  0  0  0  0  0999 V2000
   38.7280   26.8020   32.9260 C   0  0  0  0  0  0  0  0  0  0  0  0
   39.9140   26.8260   33.5330 C   0  0  0  0  0  0  0  0  0  0  0  0
   40.0750   26.1400   34.7190 C   0  0  0  0  0  0  0  0  0  0  0  0
   38.9800   25.4780   35.1830 C   0  0  0  0  0  0  0  0  0  0  0  0
   37.7210   25.8360   33.9240 S   0  0  0  0  0  0  0  0  0  0  0  0
   40.7480   27.3940   33.0800 H   0  0  0  0  0  0  0  0  0  0  0  0
   41.0010   26.0990   35.2890 H   0  0  0  0  0  0  0  0  0  0  0  0
   38.8420   24.6710   36.3980 C   0  0  0  0  0  0  0  0  0  0  0  0
   37.8800   24.9880   37.3070 C   0  0  0  0  0  0  0  0  0  0  0  0
   37.7970   24.1910   38.4290 C   0  0  0  0  0  0  0  0  0  0  0  0
   38.6270   23.1410   38.6310 N   0  0  0  0  0  0  0  0  0  0  0  0
   39.5460   22.9140   37.6650 C   0  0  0  0  0  0  0  0  0  0  0  0
   39.6890   23.6440   36.5450 N   0  0  0  0  0  0  0  0  0  0  0  0
   37.1840   25.8230   37.1970 H   0  0  0  0  0  0  0  0  0  0  0  0
   37.0620   24.3690   39.2050 H   0  0  0  0  0  0  0  0  0  0  0  0
   42.1130   22.6950   36.4690 N   0  0  0  0  0  0  0  0  0  0  0  0
   41.6060   21.6900   37.0740 C   0  0  0  0  0  0  0  0  0  0  0  0
   40.4310   21.8160   37.8510 N   0  0  0  0  0  0  0  0  0  0  0  0
   42.2620   20.4360   36.9410 N   0  0  0  0  0  0  0  0  0  0  0  0
   42.6300   19.4790   36.8870 H   0  0  0  0  0  0  0  0  0  0  0  0
   42.9840   22.6600   35.8780 H   0  0  0  0  0  0  0  0  0  0  0  0
   40.2600   21.0650   38.5550 H   0  0  0  0  0  0  0  0  0  0  0  0
   41.7390   19.5730   37.2040 H   0  0  0  0  0  0  0  0  0  0  0  0
   38.8670   28.0330   29.4980 C   0  0  0  0  0  0  0  0  0  0  0  0
   37.6000   28.6240   29.3100 C   0  0  0  0  0  0  0  0  0  0  0  0
   36.7000   28.5900   30.3820 C   0  0  0  0  0  0  0  0  0  0  0  0
   37.0840   27.9910   31.5590 N   0  0  0  0  0  0  0  0  0  0  0  0
   38.3130   27.4470   31.6670 C   0  0  0  0  0  0  0  0  0  0  0  0
   39.1900   27.4580   30.6760 N   0  0  0  0  0  0  0  0  0  0  0  0
   39.5400   28.0740   28.6510 H   0  0  0  0  0  0  0  0  0  0  0  0
   37.3710   29.0700   28.3680 H   0  0  0  0  0  0  0  0  0  0  0  0
   35.7210   29.0330   30.2730 H   0  0  0  0  0  0  0  0  0  0  0  0
  1  2  2  0  0  0  0
  1  5  1  0  0  0  0
  2  3  1  0  0  0  0
  3  4  2  0  0  0  0
  3  7  1  0  0  0  0
  4  8  1  0  0  0  0
  5  4  1  0  0  0  0
  6  2  1  0  0  0  0
  8 13  2  0  0  0  0
  8  9  1  0  0  0  0
  9 10  2  0  0  0  0
 10 11  1  0  0  0  0
 10 15  1  0  0  0  0
 12 18  1  0  0  0  0
 12 11  2  0  0  0  0
 13 12  1  0  0  0  0
 14  9  1  0  0  0  0
 16 17  2  0  0  0  0
 17 18  1  0  0  0  0
 18 22  1  0  0  0  0
 19 17  1  0  0  0  0
 19 23  1  0  0  0  0
 20 19  1  0  0  0  0
 21 16  1  0  0  0  0
 24 29  1  0  0  0  0
 25 24  2  0  0  0  0
 25 26  1  0  0  0  0
 26 27  2  0  0  0  0
 27 28  1  0  0  0  0
 28  1  1  0  0  0  0
 29 28  2  0  0  0  0
 30 24  1  0  0  0  0
 31 25  1  0  0  0  0
 32 26  1  0  0  0  0
M  END
>  <minimizedAffinity>
-5.87791634

$$$$

 OpenBabel03262522533D

 32 34  0  0  0  0  0  0  0  0999 V2000
   38.6040   25.5310   35.5080 C   0  0  0  0  0  0  0  0  0  0  0  0
   38.5530   26.6940   36.1530 C   0  0  0  0  0  0  0  0  0  0  0  0
   37.8430   27.7390   35.6000 C   0  0  0  0  0  0  0  0  0  0  0  0
   37.2350   27.4870   34.4080 C   0  0  0  0  0  0  0  0  0  0  0  0
   37.6810   25.7570   34.0790 S   0  0  0  0  0  0  0  0  0  0  0  0
   39.0800   26.8070   37.1190 H   0  0  0  0  0  0  0  0  0  0  0  0
   37.7410   28.7250   36.0480 H   0  0  0  0  0  0  0  0  0  0  0  0
   36.4190   28.3840   33.5850 C   0  0  0  0  0  0  0  0  0  0  0  0
   35.4290   29.1120   34.1690 C   0  0  0  0  0  0  0  0  0  0  0  0
   34.6970   29.9400   33.3450 C   0  0  0  0  0  0  0  0  0  0  0  0
   34.9390   30.0330   32.0150 N   0  0  0  0  0  0  0  0  0  0  0  0
   35.9460   29.2650   31.5400 C   0  0  0  0  0  0  0  0  0  0  0  0
   36.7040   28.4360   32.2780 N   0  0  0  0  0  0  0  0  0  0  0  0
   35.1890   29.0780   35.2330 H   0  0  0  0  0  0  0  0  0  0  0  0
   33.8890   30.5570   33.7210 H   0  0  0  0  0  0  0  0  0  0  0  0
   37.2130   27.2170   30.0330 N   0  0  0  0  0  0  0  0  0  0  0  0
   37.0240   28.3680   29.5090 C   0  0  0  0  0  0  0  0  0  0  0  0
   36.2220   29.3430   30.1460 N   0  0  0  0  0  0  0  0  0  0  0  0
   37.6490   28.6380   28.2610 N   0  0  0  0  0  0  0  0  0  0  0  0
   38.0770   28.9530   27.3820 H   0  0  0  0  0  0  0  0  0  0  0  0
   37.7990   26.4540   29.6040 H   0  0  0  0  0  0  0  0  0  0  0  0
   35.8560   30.1080   29.5380 H   0  0  0  0  0  0  0  0  0  0  0  0
   37.7210   29.6300   27.9470 H   0  0  0  0  0  0  0  0  0  0  0  0
   39.6330   22.6570   37.5010 C   0  0  0  0  0  0  0  0  0  0  0  0
   40.5260   21.9720   36.6520 C   0  0  0  0  0  0  0  0  0  0  0  0
   40.7680   22.5170   35.3850 C   0  0  0  0  0  0  0  0  0  0  0  0
   40.1320   23.6820   35.0250 N   0  0  0  0  0  0  0  0  0  0  0  0
   39.2900   24.2820   35.8890 C   0  0  0  0  0  0  0  0  0  0  0  0
   39.0360   23.7980   37.0950 N   0  0  0  0  0  0  0  0  0  0  0  0
   39.4660   22.2120   38.4730 H   0  0  0  0  0  0  0  0  0  0  0  0
   40.9830   21.0720   36.9990 H   0  0  0  0  0  0  0  0  0  0  0  0
   41.4470   22.0180   34.7090 H   0  0  0  0  0  0  0  0  0  0  0  0
  1 28  1  0  0  0  0
  1  2  2  0  0  0  0
  2  6  1  0  0  0  0
  3  7  1  0  0  0  0
  3  2  1  0  0  0  0
  4  3  2  0  0  0  0
  5  4  1  0  0  0  0
  5  1  1  0  0  0  0
  8  9  1  0  0  0  0
  8  4  1  0  0  0  0
  9 14  1  0  0  0  0
 10 15  1  0  0  0  0
 10  9  2  0  0  0  0
 11 10  1  0  0  0  0
 12 11  2  0  0  0  0
 12 13  1  0  0  0  0
 13  8  2  0  0  0  0
 17 16  2  0  0  0  0
 17 18  1  0  0  0  0
 18 12  1  0  0  0  0
 19 17  1  0  0  0  0
 20 19  1  0  0  0  0
 21 16  1  0  0  0  0
 22 18  1  0  0  0  0
 23 19  1  0  0  0  0
 24 30  1  0  0  0  0
 25 31  1  0  0  0  0
 25 24  2  0  0  0  0
 26 25  1  0  0  0  0
 27 26  2  0  0  0  0
 27 28  1  0  0  0  0
 28 29  2  0  0  0  0
 29 24  1  0  0  0  0
 32 26  1  0  0  0  0
M  END
>  <minimizedAffinity>
-5.86676264

$$$$

 OpenBabel03262522533D

 32 34  0  0  0  0  0  0  0  0999 V2000
   39.5990   25.8250   32.2490 C   0  0  0  0  0  0  0  0  0  0  0  0
   39.7220   26.7710   33.1780 C   0  0  0  0  0  0  0  0  0  0  0  0
   39.5570   26.4330   34.5050 C   0  0  0  0  0  0  0  0  0  0  0  0
   39.2760   25.1260   34.7620 C   0  0  0  0  0  0  0  0  0  0  0  0
   39.2470   24.3810   33.1060 S   0  0  0  0  0  0  0  0  0  0  0  0
   39.9510   27.8090   32.8740 H   0  0  0  0  0  0  0  0  0  0  0  0
   39.6370   27.1310   35.3360 H   0  0  0  0  0  0  0  0  0  0  0  0
   39.0520   24.4710   36.0530 C   0  0  0  0  0  0  0  0  0  0  0  0
   38.0540   24.9150   36.8650 C   0  0  0  0  0  0  0  0  0  0  0  0
   37.8890   24.2580   38.0660 C   0  0  0  0  0  0  0  0  0  0  0  0
   38.6770   23.2200   38.4340 N   0  0  0  0  0  0  0  0  0  0  0  0
   39.6380   22.8610   37.5530 C   0  0  0  0  0  0  0  0  0  0  0  0
   39.8600   23.4500   36.3650 N   0  0  0  0  0  0  0  0  0  0  0  0
   37.3890   25.7460   36.6200 H   0  0  0  0  0  0  0  0  0  0  0  0
   37.1200   24.5420   38.7750 H   0  0  0  0  0  0  0  0  0  0  0  0
   42.2570   22.4440   36.5340 N   0  0  0  0  0  0  0  0  0  0  0  0
   41.6900   21.5290   37.2230 C   0  0  0  0  0  0  0  0  0  0  0  0
   40.4800   21.7730   37.9140 N   0  0  0  0  0  0  0  0  0  0  0  0
   42.3150   20.2540   37.2730 N   0  0  0  0  0  0  0  0  0  0  0  0
   42.6580   19.2890   37.3520 H   0  0  0  0  0  0  0  0  0  0  0  0
   43.1560   22.3190   35.9990 H   0  0  0  0  0  0  0  0  0  0  0  0
   40.2510   21.1130   38.6900 H   0  0  0  0  0  0  0  0  0  0  0  0
   41.7550   19.4390   37.6060 H   0  0  0  0  0  0  0  0  0  0  0  0
   39.9560   27.3200   28.9430 C   0  0  0  0  0  0  0  0  0  0  0  0
   39.9730   26.2050   28.0800 C   0  0  0  0  0  0  0  0  0  0  0  0
   39.8580   24.9340   28.6540 C   0  0  0  0  0  0  0  0  0  0  0  0
   39.7370   24.8260   30.0200 N   0  0  0  0  0  0  0  0  0  0  0  0
   39.7280   25.9360   30.7840 C   0  0  0  0  0  0  0  0  0  0  0  0
   39.8350   27.1550   30.2770 N   0  0  0  0  0  0  0  0  0  0  0  0
   40.0470   28.2890   28.4700 H   0  0  0  0  0  0  0  0  0  0  0  0
   40.0710   26.3650   27.0290 H   0  0  0  0  0  0  0  0  0  0  0  0
   39.8670   24.0580   28.0220 H   0  0  0  0  0  0  0  0  0  0  0  0
  1  5  1  0  0  0  0
  1  2  2  0  0  0  0
  2  3  1  0  0  0  0
  3  4  2  0  0  0  0
  3  7  1  0  0  0  0
  4  8  1  0  0  0  0
  5  4  1  0  0  0  0
  6  2  1  0  0  0  0
  8 13  2  0  0  0  0
  8  9  1  0  0  0  0
  9 10  2  0  0  0  0
 10 11  1  0  0  0  0
 10 15  1  0  0  0  0
 12 18  1  0  0  0  0
 12 11  2  0  0  0  0
 13 12  1  0  0  0  0
 14  9  1  0  0  0  0
 16 17  2  0  0  0  0
 17 19  1  0  0  0  0
 17 18  1  0  0  0  0
 18 22  1  0  0  0  0
 19 20  1  0  0  0  0
 19 23  1  0  0  0  0
 21 16  1  0  0  0  0
 24 29  1  0  0  0  0
 25 26  1  0  0  0  0
 25 24  2  0  0  0  0
 26 27  2  0  0  0  0
 27 28  1  0  0  0  0
 28  1  1  0  0  0  0
 29 28  2  0  0  0  0
 30 24  1  0  0  0  0
 31 25  1  0  0  0  0
 32 26  1  0  0  0  0
M  END
>  <minimizedAffinity>
-5.54441404

$$$$

 OpenBabel03262522533D

 32 34  0  0  0  0  0  0  0  0999 V2000
   38.1770   25.7010   34.5870 C   0  0  0  0  0  0  0  0  0  0  0  0
   38.2990   25.9050   33.2760 C   0  0  0  0  0  0  0  0  0  0  0  0
   37.6050   26.9430   32.6910 C   0  0  0  0  0  0  0  0  0  0  0  0
   36.8330   27.6950   33.5220 C   0  0  0  0  0  0  0  0  0  0  0  0
   37.0990   26.9160   35.1420 S   0  0  0  0  0  0  0  0  0  0  0  0
   38.9510   25.2410   32.6790 H   0  0  0  0  0  0  0  0  0  0  0  0
   37.6390   27.1900   31.6310 H   0  0  0  0  0  0  0  0  0  0  0  0
   35.9920   28.8500   33.2010 C   0  0  0  0  0  0  0  0  0  0  0  0
   35.5370   29.0140   31.9280 C   0  0  0  0  0  0  0  0  0  0  0  0
   34.7480   30.1180   31.6870 C   0  0  0  0  0  0  0  0  0  0  0  0
   34.4330   31.0070   32.6590 N   0  0  0  0  0  0  0  0  0  0  0  0
   34.9370   30.7480   33.8870 C   0  0  0  0  0  0  0  0  0  0  0  0
   35.7120   29.6950   34.2010 N   0  0  0  0  0  0  0  0  0  0  0  0
   35.7590   28.3310   31.1060 H   0  0  0  0  0  0  0  0  0  0  0  0
   34.3410   30.3290   30.7050 H   0  0  0  0  0  0  0  0  0  0  0  0
   36.5030   31.1280   36.2270 N   0  0  0  0  0  0  0  0  0  0  0  0
   35.3430   31.6600   36.1440 C   0  0  0  0  0  0  0  0  0  0  0  0
   34.6220   31.6650   34.9280 N   0  0  0  0  0  0  0  0  0  0  0  0
   34.7990   32.2470   37.3190 N   0  0  0  0  0  0  0  0  0  0  0  0
   34.2960   32.6690   38.1090 H   0  0  0  0  0  0  0  0  0  0  0  0
   37.0840   31.0950   37.1050 H   0  0  0  0  0  0  0  0  0  0  0  0
   33.8590   32.3720   34.8470 H   0  0  0  0  0  0  0  0  0  0  0  0
   33.7760   32.4520   37.3420 H   0  0  0  0  0  0  0  0  0  0  0  0
   38.6030   23.2240   37.2270 C   0  0  0  0  0  0  0  0  0  0  0  0
   39.9200   22.7600   37.0310 C   0  0  0  0  0  0  0  0  0  0  0  0
   40.6560   23.3130   35.9770 C   0  0  0  0  0  0  0  0  0  0  0  0
   40.0720   24.2750   35.1860 N   0  0  0  0  0  0  0  0  0  0  0  0
   38.8080   24.6720   35.4330 C   0  0  0  0  0  0  0  0  0  0  0  0
   38.0800   24.1710   36.4190 N   0  0  0  0  0  0  0  0  0  0  0  0
   38.0580   22.7770   38.0480 H   0  0  0  0  0  0  0  0  0  0  0  0
   40.3070   22.0100   37.6840 H   0  0  0  0  0  0  0  0  0  0  0  0
   41.6680   22.9800   35.7990 H   0  0  0  0  0  0  0  0  0  0  0  0
  1  5  1  0  0  0  0
  1 28  1  0  0  0  0
  2  1  2  0  0  0  0
  3  2  1  0  0  0  0
  3  4  2  0  0  0  0
  4  5  1  0  0  0  0
  6  2  1  0  0  0  0
  7  3  1  0  0  0  0
  8  4  1  0  0  0  0
  8 13  1  0  0  0  0
  9  8  2  0  0  0  0
 10  9  1  0  0  0  0
 10 11  2  0  0  0  0
 11 12  1  0  0  0  0
 12 13  2  0  0  0  0
 12 18  1  0  0  0  0
 14  9  1  0  0  0  0
 15 10  1  0  0  0  0
 16 21  1  0  0  0  0
 17 16  2  0  0  0  0
 17 19  1  0  0  0  0
 18 17  1  0  0  0  0
 19 23  1  0  0  0  0
 19 20  1  0  0  0  0
 22 18  1  0  0  0  0
 24 30  1  0  0  0  0
 25 24  1  0  0  0  0
 25 31  1  0  0  0  0
 26 25  2  0  0  0  0
 27 28  2  0  0  0  0
 27 26  1  0  0  0  0
 28 29  1  0  0  0  0
 29 24  2  0  0  0  0
 32 26  1  0  0  0  0
M  END
>  <minimizedAffinity>
-5.44444084

$$$$

 OpenBabel03262522533D

 32 34  0  0  0  0  0  0  0  0999 V2000
   38.7090   25.7030   34.8610 C   0  0  0  0  0  0  0  0  0  0  0  0
   39.1200   26.3170   33.7530 C   0  0  0  0  0  0  0  0  0  0  0  0
   38.3270   27.2980   33.1950 C   0  0  0  0  0  0  0  0  0  0  0  0
   37.1580   27.5640   33.8390 C   0  0  0  0  0  0  0  0  0  0  0  0
   37.1940   26.4130   35.2440 S   0  0  0  0  0  0  0  0  0  0  0  0
   40.0880   26.0330   33.2980 H   0  0  0  0  0  0  0  0  0  0  0  0
   38.5740   27.8560   32.2940 H   0  0  0  0  0  0  0  0  0  0  0  0
   36.1200   28.5390   33.4950 C   0  0  0  0  0  0  0  0  0  0  0  0
   35.5320   28.4860   32.2680 C   0  0  0  0  0  0  0  0  0  0  0  0
   34.5610   29.4270   32.0020 C   0  0  0  0  0  0  0  0  0  0  0  0
   34.2000   30.3670   32.9080 N   0  0  0  0  0  0  0  0  0  0  0  0
   34.8470   30.3290   34.0940 C   0  0  0  0  0  0  0  0  0  0  0  0
   35.8030   29.4440   34.4280 N   0  0  0  0  0  0  0  0  0  0  0  0
   35.7830   27.7510   31.5000 H   0  0  0  0  0  0  0  0  0  0  0  0
   34.0390   29.4610   31.0530 H   0  0  0  0  0  0  0  0  0  0  0  0
   36.5390   31.2030   36.2030 N   0  0  0  0  0  0  0  0  0  0  0  0
   35.3070   31.5460   36.1920 C   0  0  0  0  0  0  0  0  0  0  0  0
   34.4870   31.3050   35.0650 N   0  0  0  0  0  0  0  0  0  0  0  0
   34.7860   32.1800   37.3520 N   0  0  0  0  0  0  0  0  0  0  0  0
   34.2960   32.6130   38.1450 H   0  0  0  0  0  0  0  0  0  0  0  0
   37.1950   31.3570   37.0130 H   0  0  0  0  0  0  0  0  0  0  0  0
   33.6180   31.8790   34.9960 H   0  0  0  0  0  0  0  0  0  0  0  0
   33.7500   32.2350   37.4640 H   0  0  0  0  0  0  0  0  0  0  0  0
   41.2520   23.3250   35.9400 C   0  0  0  0  0  0  0  0  0  0  0  0
   40.6470   22.6720   37.0340 C   0  0  0  0  0  0  0  0  0  0  0  0
   39.3520   23.0650   37.3910 C   0  0  0  0  0  0  0  0  0  0  0  0
   38.7310   24.0570   36.6710 N   0  0  0  0  0  0  0  0  0  0  0  0
   39.3710   24.6370   35.6360 C   0  0  0  0  0  0  0  0  0  0  0  0
   40.5950   24.2940   35.2680 N   0  0  0  0  0  0  0  0  0  0  0  0
   42.2540   23.0010   35.6880 H   0  0  0  0  0  0  0  0  0  0  0  0
   41.1910   21.9110   37.5480 H   0  0  0  0  0  0  0  0  0  0  0  0
   38.8590   22.5850   38.2250 H   0  0  0  0  0  0  0  0  0  0  0  0
  1  5  1  0  0  0  0
  1 28  1  0  0  0  0
  2  1  2  0  0  0  0
  3  2  1  0  0  0  0
  3  4  2  0  0  0  0
  4  5  1  0  0  0  0
  6  2  1  0  0  0  0
  7  3  1  0  0  0  0
  8  4  1  0  0  0  0
  8 13  1  0  0  0  0
  9  8  2  0  0  0  0
 10  9  1  0  0  0  0
 10 11  2  0  0  0  0
 11 12  1  0  0  0  0
 12 13  2  0  0  0  0
 12 18  1  0  0  0  0
 14  9  1  0  0  0  0
 15 10  1  0  0  0  0
 16 21  1  0  0  0  0
 17 16  2  0  0  0  0
 17 19  1  0  0  0  0
 18 17  1  0  0  0  0
 19 23  1  0  0  0  0
 19 20  1  0  0  0  0
 22 18  1  0  0  0  0
 24 25  1  0  0  0  0
 25 26  2  0  0  0  0
 25 31  1  0  0  0  0
 26 32  1  0  0  0  0
 27 26  1  0  0  0  0
 28 27  2  0  0  0  0
 29 28  1  0  0  0  0
 29 24  2  0  0  0  0
 30 24  1  0  0  0  0
M  END
>  <minimizedAffinity>
-5.43805695

$$$$

 OpenBabel03262522533D

 32 34  0  0  0  0  0  0  0  0999 V2000
   38.3760   25.5530   35.0920 C   0  0  0  0  0  0  0  0  0  0  0  0
   37.4720   26.5230   35.2130 C   0  0  0  0  0  0  0  0  0  0  0  0
   37.2100   27.3360   34.1300 C   0  0  0  0  0  0  0  0  0  0  0  0
   37.9160   27.0730   32.9960 C   0  0  0  0  0  0  0  0  0  0  0  0
   38.9540   25.6630   33.4790 S   0  0  0  0  0  0  0  0  0  0  0  0
   36.9470   26.6630   36.1770 H   0  0  0  0  0  0  0  0  0  0  0  0
   36.4910   28.1530   34.1290 H   0  0  0  0  0  0  0  0  0  0  0  0
   37.8580   27.7520   31.7000 C   0  0  0  0  0  0  0  0  0  0  0  0
   38.7930   27.4680   30.7520 C   0  0  0  0  0  0  0  0  0  0  0  0
   38.6860   28.1370   29.5520 C   0  0  0  0  0  0  0  0  0  0  0  0
   37.7040   29.0380   29.3130 N   0  0  0  0  0  0  0  0  0  0  0  0
   36.8280   29.2450   30.3230 C   0  0  0  0  0  0  0  0  0  0  0  0
   36.8650   28.6330   31.5190 N   0  0  0  0  0  0  0  0  0  0  0  0
   39.6060   26.7520   30.8900 H   0  0  0  0  0  0  0  0  0  0  0  0
   39.3850   27.9750   28.7400 H   0  0  0  0  0  0  0  0  0  0  0  0
   35.4590   30.6500   32.3780 N   0  0  0  0  0  0  0  0  0  0  0  0
   35.0250   30.6990   31.1760 C   0  0  0  0  0  0  0  0  0  0  0  0
   35.7850   30.1870   30.0990 N   0  0  0  0  0  0  0  0  0  0  0  0
   33.7500   31.2870   30.9560 N   0  0  0  0  0  0  0  0  0  0  0  0
   32.8310   31.6570   30.6840 H   0  0  0  0  0  0  0  0  0  0  0  0
   34.9370   31.0140   33.2170 H   0  0  0  0  0  0  0  0  0  0  0  0
   35.5340   30.5380   29.1490 H   0  0  0  0  0  0  0  0  0  0  0  0
   33.2740   31.1110   30.0440 H   0  0  0  0  0  0  0  0  0  0  0  0
   40.3840   22.9640   36.6900 C   0  0  0  0  0  0  0  0  0  0  0  0
   39.7080   22.7290   37.9050 C   0  0  0  0  0  0  0  0  0  0  0  0
   38.5530   23.4760   38.1630 C   0  0  0  0  0  0  0  0  0  0  0  0
   38.1290   24.3960   37.2330 N   0  0  0  0  0  0  0  0  0  0  0  0
   38.8260   24.5670   36.0920 C   0  0  0  0  0  0  0  0  0  0  0  0
   39.9230   23.8800   35.8130 N   0  0  0  0  0  0  0  0  0  0  0  0
   41.2740   22.3730   36.5190 H   0  0  0  0  0  0  0  0  0  0  0  0
   40.0960   21.9990   38.5810 H   0  0  0  0  0  0  0  0  0  0  0  0
   38.0110   23.3210   39.0850 H   0  0  0  0  0  0  0  0  0  0  0  0
  1  2  2  0  0  0  0
  1 28  1  0  0  0  0
  2  6  1  0  0  0  0
  3  2  1  0  0  0  0
  4  5  1  0  0  0  0
  4  3  2  0  0  0  0
  5  1  1  0  0  0  0
  7  3  1  0  0  0  0
  8  4  1  0  0  0  0
  9 14  1  0  0  0  0
  9  8  2  0  0  0  0
 10  9  1  0  0  0  0
 11 10  2  0  0  0  0
 11 12  1  0  0  0  0
 12 13  2  0  0  0  0
 13  8  1  0  0  0  0
 15 10  1  0  0  0  0
 16 21  1  0  0  0  0
 17 16  2  0  0  0  0
 18 12  1  0  0  0  0
 18 17  1  0  0  0  0
 19 17  1  0  0  0  0
 20 19  1  0  0  0  0
 22 18  1  0  0  0  0
 23 19  1  0  0  0  0
 24 25  1  0  0  0  0
 25 26  2  0  0  0  0
 25 31  1  0  0  0  0
 26 32  1  0  0  0  0
 27 26  1  0  0  0  0
 28 27  2  0  0  0  0
 29 28  1  0  0  0  0
 29 24  2  0  0  0  0
 30 24  1  0  0  0  0
M  END
>  <minimizedAffinity>
-5.42697525

$$$$

 OpenBabel03262522533D

 32 34  0  0  0  0  0  0  0  0999 V2000
   36.4600   28.1520   32.7760 C   0  0  0  0  0  0  0  0  0  0  0  0
   36.6850   27.9740   34.0770 C   0  0  0  0  0  0  0  0  0  0  0  0
   37.1590   26.7550   34.5150 C   0  0  0  0  0  0  0  0  0  0  0  0
   37.3630   25.8100   33.5570 C   0  0  0  0  0  0  0  0  0  0  0  0
   36.8770   26.6640   32.0300 S   0  0  0  0  0  0  0  0  0  0  0  0
   36.4890   28.8020   34.7840 H   0  0  0  0  0  0  0  0  0  0  0  0
   37.3730   26.5120   35.5540 H   0  0  0  0  0  0  0  0  0  0  0  0
   37.8540   24.4380   33.7100 C   0  0  0  0  0  0  0  0  0  0  0  0
   37.9750   23.6440   32.6120 C   0  0  0  0  0  0  0  0  0  0  0  0
   38.4450   22.3640   32.8180 C   0  0  0  0  0  0  0  0  0  0  0  0
   38.7730   21.9050   34.0490 N   0  0  0  0  0  0  0  0  0  0  0  0
   38.6140   22.7770   35.0700 C   0  0  0  0  0  0  0  0  0  0  0  0
   38.1640   24.0380   34.9500 N   0  0  0  0  0  0  0  0  0  0  0  0
   37.7250   23.9600   31.5970 H   0  0  0  0  0  0  0  0  0  0  0  0
   38.5730   21.6620   32.0030 H   0  0  0  0  0  0  0  0  0  0  0  0
   37.5540   23.8550   37.4760 N   0  0  0  0  0  0  0  0  0  0  0  0
   38.5320   23.0320   37.5240 C   0  0  0  0  0  0  0  0  0  0  0  0
   38.9520   22.3220   36.3750 N   0  0  0  0  0  0  0  0  0  0  0  0
   39.1850   22.8520   38.7730 N   0  0  0  0  0  0  0  0  0  0  0  0
   39.7500   22.6690   39.6110 H   0  0  0  0  0  0  0  0  0  0  0  0
   37.2000   24.4100   38.2980 H   0  0  0  0  0  0  0  0  0  0  0  0
   39.5150   21.4600   36.5460 H   0  0  0  0  0  0  0  0  0  0  0  0
   40.1230   22.3940   38.7810 H   0  0  0  0  0  0  0  0  0  0  0  0
   34.2110   30.8220   31.7270 C   0  0  0  0  0  0  0  0  0  0  0  0
   34.9820   31.5560   30.8020 C   0  0  0  0  0  0  0  0  0  0  0  0
   36.2860   31.1160   30.5480 C   0  0  0  0  0  0  0  0  0  0  0  0
   36.7560   30.0000   31.2010 N   0  0  0  0  0  0  0  0  0  0  0  0
   35.9610   29.3480   32.0720 C   0  0  0  0  0  0  0  0  0  0  0  0
   34.7230   29.7340   32.3400 N   0  0  0  0  0  0  0  0  0  0  0  0
   33.2070   31.1860   31.9040 H   0  0  0  0  0  0  0  0  0  0  0  0
   34.5520   32.4130   30.3330 H   0  0  0  0  0  0  0  0  0  0  0  0
   36.9050   31.6550   29.8450 H   0  0  0  0  0  0  0  0  0  0  0  0
  1  2  2  0  0  0  0
  2  3  1  0  0  0  0
  2  6  1  0  0  0  0
  3  7  1  0  0  0  0
  4  8  1  0  0  0  0
  4  3  2  0  0  0  0
  5  1  1  0  0  0  0
  5  4  1  0  0  0  0
  8 13  1  0  0  0  0
  9 10  1  0  0  0  0
  9  8  2  0  0  0  0
 10 11  2  0  0  0  0
 11 12  1  0  0  0  0
 12 18  1  0  0  0  0
 13 12  2  0  0  0  0
 14  9  1  0  0  0  0
 15 10  1  0  0  0  0
 16 17  2  0  0  0  0
 16 21  1  0  0  0  0
 17 19  1  0  0  0  0
 18 22  1  0  0  0  0
 18 17  1  0  0  0  0
 19 23  1  0  0  0  0
 19 20  1  0  0  0  0
 24 30  1  0  0  0  0
 24 29  1  0  0  0  0
 25 24  2  0  0  0  0
 26 25  1  0  0  0  0
 26 27  2  0  0  0  0
 27 28  1  0  0  0  0
 28 29  2  0  0  0  0
 28  1  1  0  0  0  0
 31 25  1  0  0  0  0
 32 26  1  0  0  0  0
M  END
>  <minimizedAffinity>
-5.42663383

$$$$

 OpenBabel03262522533D

 32 34  0  0  0  0  0  0  0  0999 V2000
   36.2690   28.3660   33.9310 C   0  0  0  0  0  0  0  0  0  0  0  0
   36.3230   27.8860   32.6900 C   0  0  0  0  0  0  0  0  0  0  0  0
   36.9130   26.6600   32.4690 C   0  0  0  0  0  0  0  0  0  0  0  0
   37.4050   26.0230   33.5660 C   0  0  0  0  0  0  0  0  0  0  0  0
   37.0240   27.1790   34.9150 S   0  0  0  0  0  0  0  0  0  0  0  0
   35.8950   28.4760   31.8570 H   0  0  0  0  0  0  0  0  0  0  0  0
   37.0050   26.1840   31.4940 H   0  0  0  0  0  0  0  0  0  0  0  0
   38.0780   24.7250   33.6510 C   0  0  0  0  0  0  0  0  0  0  0  0
   38.4390   24.0810   32.5070 C   0  0  0  0  0  0  0  0  0  0  0  0
   39.0710   22.8650   32.6490 C   0  0  0  0  0  0  0  0  0  0  0  0
   39.3250   22.3220   33.8640 N   0  0  0  0  0  0  0  0  0  0  0  0
   38.9240   23.0440   34.9340 C   0  0  0  0  0  0  0  0  0  0  0  0
   38.3040   24.2360   34.8770 N   0  0  0  0  0  0  0  0  0  0  0  0
   38.2600   24.4710   31.5030 H   0  0  0  0  0  0  0  0  0  0  0  0
   39.3940   22.2820   31.7950 H   0  0  0  0  0  0  0  0  0  0  0  0
   37.4520   23.6890   37.2770 N   0  0  0  0  0  0  0  0  0  0  0  0
   38.5310   23.0100   37.3700 C   0  0  0  0  0  0  0  0  0  0  0  0
   39.1790   22.4970   36.2220 N   0  0  0  0  0  0  0  0  0  0  0  0
   39.0610   22.7840   38.6700 N   0  0  0  0  0  0  0  0  0  0  0  0
   39.5500   22.5890   39.5520 H   0  0  0  0  0  0  0  0  0  0  0  0
   36.9280   24.0950   38.0960 H   0  0  0  0  0  0  0  0  0  0  0  0
   39.8430   21.7080   36.3810 H   0  0  0  0  0  0  0  0  0  0  0  0
   40.0500   22.4630   38.7530 H   0  0  0  0  0  0  0  0  0  0  0  0
   34.0460   31.2410   34.2000 C   0  0  0  0  0  0  0  0  0  0  0  0
   34.5920   31.9790   35.2710 C   0  0  0  0  0  0  0  0  0  0  0  0
   35.7360   31.4700   35.8960 C   0  0  0  0  0  0  0  0  0  0  0  0
   36.2740   30.2870   35.4460 N   0  0  0  0  0  0  0  0  0  0  0  0
   35.6980   29.6350   34.4160 C   0  0  0  0  0  0  0  0  0  0  0  0
   34.6150   30.0850   33.8000 N   0  0  0  0  0  0  0  0  0  0  0  0
   33.1610   31.6590   33.7380 H   0  0  0  0  0  0  0  0  0  0  0  0
   34.1200   32.8900   35.5660 H   0  0  0  0  0  0  0  0  0  0  0  0
   36.1810   32.0100   36.7190 H   0  0  0  0  0  0  0  0  0  0  0  0
  1 28  1  0  0  0  0
  1  5  1  0  0  0  0
  2  1  2  0  0  0  0
  3  2  1  0  0  0  0
  3  4  2  0  0  0  0
  4  8  1  0  0  0  0
  4  5  1  0  0  0  0
  6  2  1  0  0  0  0
  7  3  1  0  0  0  0
  8 13  1  0  0  0  0
  9 10  1  0  0  0  0
  9  8  2  0  0  0  0
 10 11  2  0  0  0  0
 11 12  1  0  0  0  0
 12 18  1  0  0  0  0
 13 12  2  0  0  0  0
 14  9  1  0  0  0  0
 15 10  1  0  0  0  0
 16 17  2  0  0  0  0
 16 21  1  0  0  0  0
 17 19  1  0  0  0  0
 18 22  1  0  0  0  0
 18 17  1  0  0  0  0
 19 23  1  0  0  0  0
 19 20  1  0  0  0  0
 24 25  1  0  0  0  0
 25 31  1  0  0  0  0
 25 26  2  0  0  0  0
 26 32  1  0  0  0  0
 27 26  1  0  0  0  0
 28 27  2  0  0  0  0
 29 24  2  0  0  0  0
 29 28  1  0  0  0  0
 30 24  1  0  0  0  0
M  END
>  <minimizedAffinity>
-5.34985828

$$$$

 OpenBabel03262522533D

 32 34  0  0  0  0  0  0  0  0999 V2000
   36.2800   23.7220   31.7990 C   0  0  0  0  0  0  0  0  0  0  0  0
   37.2300   24.3680   32.4730 C   0  0  0  0  0  0  0  0  0  0  0  0
   37.2560   25.7470   32.4400 C   0  0  0  0  0  0  0  0  0  0  0  0
   36.2830   26.3490   31.7030 C   0  0  0  0  0  0  0  0  0  0  0  0
   35.3310   24.9440   31.0560 S   0  0  0  0  0  0  0  0  0  0  0  0
   37.9810   23.7930   33.0460 H   0  0  0  0  0  0  0  0  0  0  0  0
   37.9890   26.3640   32.9560 H   0  0  0  0  0  0  0  0  0  0  0  0
   36.0520   27.7780   31.4800 C   0  0  0  0  0  0  0  0  0  0  0  0
   35.1330   28.4340   32.2400 C   0  0  0  0  0  0  0  0  0  0  0  0
   34.9600   29.7780   31.9870 C   0  0  0  0  0  0  0  0  0  0  0  0
   35.6640   30.4280   31.0290 N   0  0  0  0  0  0  0  0  0  0  0  0
   36.5500   29.6810   30.3330 C   0  0  0  0  0  0  0  0  0  0  0  0
   36.7760   28.3690   30.5210 N   0  0  0  0  0  0  0  0  0  0  0  0
   34.5380   27.9620   33.0250 H   0  0  0  0  0  0  0  0  0  0  0  0
   34.2510   30.3810   32.5420 H   0  0  0  0  0  0  0  0  0  0  0  0
   37.7150   28.3800   28.0920 N   0  0  0  0  0  0  0  0  0  0  0  0
   38.0100   29.5980   28.3440 C   0  0  0  0  0  0  0  0  0  0  0  0
   37.3040   30.3380   29.3210 N   0  0  0  0  0  0  0  0  0  0  0  0
   39.0750   30.1870   27.6100 N   0  0  0  0  0  0  0  0  0  0  0  0
   39.8450   30.7020   27.1660 H   0  0  0  0  0  0  0  0  0  0  0  0
   38.2060   27.7820   27.3770 H   0  0  0  0  0  0  0  0  0  0  0  0
   37.3720   31.3770   29.2500 H   0  0  0  0  0  0  0  0  0  0  0  0
   39.4940   31.0730   27.9680 H   0  0  0  0  0  0  0  0  0  0  0  0
   36.7330   20.2470   30.7940 C   0  0  0  0  0  0  0  0  0  0  0  0
   35.6630   19.5810   31.4250 C   0  0  0  0  0  0  0  0  0  0  0  0
   34.7850   20.3480   32.2000 C   0  0  0  0  0  0  0  0  0  0  0  0
   35.0000   21.7010   32.3130 N   0  0  0  0  0  0  0  0  0  0  0  0
   36.0450   22.2710   31.6800 C   0  0  0  0  0  0  0  0  0  0  0  0
   36.8970   21.5790   30.9390 N   0  0  0  0  0  0  0  0  0  0  0  0
   37.3960   19.6280   30.2030 H   0  0  0  0  0  0  0  0  0  0  0  0
   35.5590   18.5270   31.2930 H   0  0  0  0  0  0  0  0  0  0  0  0
   33.9540   19.8690   32.6980 H   0  0  0  0  0  0  0  0  0  0  0  0
  1  2  2  0  0  0  0
  2  6  1  0  0  0  0
  3  2  1  0  0  0  0
  3  7  1  0  0  0  0
  4  3  2  0  0  0  0
  5  4  1  0  0  0  0
  5  1  1  0  0  0  0
  8  4  1  0  0  0  0
  8  9  1  0  0  0  0
  9 14  1  0  0  0  0
 10  9  2  0  0  0  0
 10 15  1  0  0  0  0
 11 10  1  0  0  0  0
 12 13  1  0  0  0  0
 12 11  2  0  0  0  0
 13  8  2  0  0  0  0
 16 17  2  0  0  0  0
 17 18  1  0  0  0  0
 18 12  1  0  0  0  0
 19 23  1  0  0  0  0
 19 17  1  0  0  0  0
 20 19  1  0  0  0  0
 21 16  1  0  0  0  0
 22 18  1  0  0  0  0
 24 29  2  0  0  0  0
 24 25  1  0  0  0  0
 25 26  2  0  0  0  0
 26 27  1  0  0  0  0
 26 32  1  0  0  0  0
 28  1  1  0  0  0  0
 28 27  2  0  0  0  0
 29 28  1  0  0  0  0
 30 24  1  0  0  0  0
 31 25  1  0  0  0  0
M  END
>  <minimizedAffinity>
-5.34774971

$$$$
