
 OpenBabel03272502053D

 38 40  0  0  0  0  0  0  0  0999 V2000
   34.2720   30.5100   47.5230 F   0  0  0  0  0  0  0  0  0  0  0  0
   34.6590   29.9870   46.3150 C   0  0  0  0  0  0  0  0  0  0  0  0
   33.7610   29.3610   45.4740 C   0  0  0  0  0  0  0  0  0  0  0  0
   34.2160   28.8730   44.2700 C   0  0  0  0  0  0  0  0  0  0  0  0
   35.5630   29.0090   43.9060 C   0  0  0  0  0  0  0  0  0  0  0  0
   36.4050   29.6460   44.7950 C   0  0  0  0  0  0  0  0  0  0  0  0
   36.0030   30.1360   45.9800 C   0  0  0  0  0  0  0  0  0  0  0  0
   33.4910   28.3940   43.6440 H   0  0  0  0  0  0  0  0  0  0  0  0
   35.8830   28.6180   42.9590 H   0  0  0  0  0  0  0  0  0  0  0  0
   37.4220   29.7110   44.4430 H   0  0  0  0  0  0  0  0  0  0  0  0
   32.1390   28.3110   46.9130 C   0  0  0  0  0  0  0  0  0  0  0  0
   32.4150   29.2860   45.9610 C   0  0  0  0  0  0  0  0  0  0  0  0
   31.3740   30.1110   45.5600 C   0  0  0  0  0  0  0  0  0  0  0  0
   30.1430   29.9490   46.0950 N   0  0  0  0  0  0  0  0  0  0  0  0
   29.8990   29.0070   47.0070 C   0  0  0  0  0  0  0  0  0  0  0  0
   30.8810   28.2050   47.4060 N   0  0  0  0  0  0  0  0  0  0  0  0
   32.9110   27.6300   47.2710 H   0  0  0  0  0  0  0  0  0  0  0  0
   31.6110   30.8690   44.8120 H   0  0  0  0  0  0  0  0  0  0  0  0
   29.1650   27.1290   48.9760 N   0  0  0  0  0  0  0  0  0  0  0  0
   28.3670   28.1060   48.7290 C   0  0  0  0  0  0  0  0  0  0  0  0
   28.5890   28.8690   47.5450 N   0  0  0  0  0  0  0  0  0  0  0  0
   27.2820   28.4380   49.5970 N   0  0  0  0  0  0  0  0  0  0  0  0
   26.7740   28.9020   50.3600 H   0  0  0  0  0  0  0  0  0  0  0  0
   29.0010   26.5730   49.8420 H   0  0  0  0  0  0  0  0  0  0  0  0
   27.7740   29.3340   47.0670 H   0  0  0  0  0  0  0  0  0  0  0  0
   27.5340   29.1670   50.3260 H   0  0  0  0  0  0  0  0  0  0  0  0
   37.8670   32.3480   44.7830 Br  0  0  0  0  0  0  0  0  0  0  0  0
   37.8240   31.7970   46.6060 C   0  0  0  0  0  0  0  0  0  0  0  0
   36.9410   30.7870   46.8790 C   0  0  0  0  0  0  0  0  0  0  0  0
   36.8820   30.3010   48.1970 C   0  0  0  0  0  0  0  0  0  0  0  0
   37.6770   30.8210   49.1650 C   0  0  0  0  0  0  0  0  0  0  0  0
   38.5520   31.8440   48.8240 C   0  0  0  0  0  0  0  0  0  0  0  0
   38.6330   32.3470   47.5270 C   0  0  0  0  0  0  0  0  0  0  0  0
   36.2130   29.5050   48.4980 H   0  0  0  0  0  0  0  0  0  0  0  0
   37.6560   30.4680   50.1870 H   0  0  0  0  0  0  0  0  0  0  0  0
   39.2020   32.2840   49.5710 H   0  0  0  0  0  0  0  0  0  0  0  0
   39.4600   33.3470   47.1160 O   0  0  0  0  0  0  0  0  0  0  0  0
   39.0340   34.1800   46.7050 H   0  0  0  0  0  0  0  0  0  0  0  0
  2  1  1  0  0  0  0
  3 12  1  0  0  0  0
  3  2  2  0  0  0  0
  4  3  1  0  0  0  0
  5  4  2  0  0  0  0
  5  6  1  0  0  0  0
  6  7  2  0  0  0  0
  7  2  1  0  0  0  0
  7 29  1  0  0  0  0
  8  4  1  0  0  0  0
  9  5  1  0  0  0  0
 10  6  1  0  0  0  0
 11 17  1  0  0  0  0
 11 16  1  0  0  0  0
 12 11  2  0  0  0  0
 13 12  1  0  0  0  0
 13 14  2  0  0  0  0
 14 15  1  0  0  0  0
 15 16  2  0  0  0  0
 15 21  1  0  0  0  0
 18 13  1  0  0  0  0
 19 24  1  0  0  0  0
 20 19  2  0  0  0  0
 20 22  1  0  0  0  0
 21 20  1  0  0  0  0
 22 26  1  0  0  0  0
 22 23  1  0  0  0  0
 25 21  1  0  0  0  0
 27 28  1  0  0  0  0
 28 29  2  0  0  0  0
 28 33  1  0  0  0  0
 29 30  1  0  0  0  0
 30 34  1  0  0  0  0
 30 31  2  0  0  0  0
 31 35  1  0  0  0  0
 32 31  1  0  0  0  0
 32 36  1  0  0  0  0
 33 32  2  0  0  0  0
 37 33  1  0  0  0  0
 38 37  1  0  0  0  0
M  END
>  <minimizedAffinity>
-6.19662237

>  <minimizedRMSD>
0.210375667

$$$$
