
 OpenBabel03272509333D

 40 43  0  0  1  0  0  0  0  0999 V2000
   37.4100   31.9500   48.3130 C   0  0  1  0  0  0  0  0  0  0  0  0
   38.7380   32.5450   48.5470 C   0  0  0  0  0  0  0  0  0  0  0  0
   38.6380   31.5530   47.4450 C   0  0  2  0  0  0  0  0  0  0  0  0
   36.6830   32.4650   47.7090 H   0  0  0  0  0  0  0  0  0  0  0  0
   39.2620   32.1680   49.4780 H   0  0  0  0  0  0  0  0  0  0  0  0
   38.7200   33.6180   48.5220 H   0  0  0  0  0  0  0  0  0  0  0  0
   38.6920   30.4770   47.4060 H   0  0  0  0  0  0  0  0  0  0  0  0
   38.8240   32.2210   46.1290 C   0  0  0  0  0  0  0  0  0  0  0  0
   39.9190   33.0940   46.1720 C   0  0  0  0  0  0  0  0  0  0  0  0
   40.3360   33.7680   45.0440 C   0  0  0  0  0  0  0  0  0  0  0  0
   39.6770   33.5940   43.8210 C   0  0  0  0  0  0  0  0  0  0  0  0
   38.6060   32.7300   43.8040 C   0  0  0  0  0  0  0  0  0  0  0  0
   37.8550   32.4760   42.6800 C   0  0  0  0  0  0  0  0  0  0  0  0
   36.7690   31.6210   42.6630 C   0  0  0  0  0  0  0  0  0  0  0  0
   36.4000   30.9760   43.8190 C   0  0  0  0  0  0  0  0  0  0  0  0
   37.1410   31.2180   44.9540 C   0  0  0  0  0  0  0  0  0  0  0  0
   38.2130   32.0760   44.9340 C   0  0  0  0  0  0  0  0  0  0  0  0
   40.6270   33.4290   46.8990 H   0  0  0  0  0  0  0  0  0  0  0  0
   41.1440   34.4650   44.9040 H   0  0  0  0  0  0  0  0  0  0  0  0
   39.8730   34.0410   42.8560 H   0  0  0  0  0  0  0  0  0  0  0  0
   38.1120   32.9670   41.7380 H   0  0  0  0  0  0  0  0  0  0  0  0
   36.1990   31.4470   41.7520 H   0  0  0  0  0  0  0  0  0  0  0  0
   35.5710   30.3020   43.8660 H   0  0  0  0  0  0  0  0  0  0  0  0
   36.8340   30.6930   45.8760 H   0  0  0  0  0  0  0  0  0  0  0  0
   35.1790   29.7230   50.3740 C   0  0  0  0  0  0  0  0  0  0  0  0
   35.6020   30.7780   49.5030 C   0  0  0  0  0  0  0  0  0  0  0  0
   36.9470   30.8650   49.2000 C   0  0  0  0  0  0  0  0  0  0  0  0
   37.7940   29.9290   49.7580 N   0  0  0  0  0  0  0  0  0  0  0  0
   37.3660   28.9580   50.5650 C   0  0  0  0  0  0  0  0  0  0  0  0
   36.0640   28.8330   50.8900 N   0  0  0  0  0  0  0  0  0  0  0  0
   34.1350   29.6560   50.6090 H   0  0  0  0  0  0  0  0  0  0  0  0
   34.8570   31.4570   49.1210 H   0  0  0  0  0  0  0  0  0  0  0  0
   38.7630   29.2590   53.0130 N   0  0  0  0  0  0  0  0  0  0  0  0
   38.7040   28.0700   52.4650 C   0  0  0  0  0  0  0  0  0  0  0  0
   38.2930   28.0120   51.1130 N   0  0  0  0  0  0  0  0  0  0  0  0
   39.0290   26.8440   53.1510 N   0  0  0  0  0  0  0  0  0  0  0  0
   39.6870   26.1270   52.7700 H   0  0  0  0  0  0  0  0  0  0  0  0
   39.0750   29.2490   54.0250 H   0  0  0  0  0  0  0  0  0  0  0  0
   38.6800   27.2510   50.4920 H   0  0  0  0  0  0  0  0  0  0  0  0
   38.5300   26.7590   54.0710 H   0  0  0  0  0  0  0  0  0  0  0  0
  1  4  1  6  0  0  0
  1  2  1  0  0  0  0
  1 27  1  0  0  0  0
  2  5  1  0  0  0  0
  3  7  1  1  0  0  0
  3  1  1  0  0  0  0
  3  2  1  0  0  0  0
  6  2  1  0  0  0  0
  8  9  1  0  0  0  0
  8  3  1  0  0  0  0
  9 18  1  0  0  0  0
 10  9  2  0  0  0  0
 11 10  1  0  0  0  0
 12 11  2  0  0  0  0
 12 17  1  0  0  0  0
 13 12  1  0  0  0  0
 14 13  2  0  0  0  0
 14 15  1  0  0  0  0
 15 23  1  0  0  0  0
 15 16  2  0  0  0  0
 16 24  1  0  0  0  0
 17 16  1  0  0  0  0
 17  8  2  0  0  0  0
 19 10  1  0  0  0  0
 20 11  1  0  0  0  0
 21 13  1  0  0  0  0
 22 14  1  0  0  0  0
 25 31  1  0  0  0  0
 25 30  1  0  0  0  0
 26 25  2  0  0  0  0
 27 26  1  0  0  0  0
 27 28  2  0  0  0  0
 28 29  1  0  0  0  0
 29 30  2  0  0  0  0
 29 35  1  0  0  0  0
 32 26  1  0  0  0  0
 33 38  1  0  0  0  0
 34 33  2  0  0  0  0
 34 36  1  0  0  0  0
 35 34  1  0  0  0  0
 36 40  1  0  0  0  0
 37 36  1  0  0  0  0
 39 35  1  0  0  0  0
M  END
>  <minimizedAffinity>
-5.01756239

>  <minimizedRMSD>
1.75241411

$$$$
