
     RDKit          3D

 40 43  0  0  0  0  0  0  0  0999 V2000
   37.5514   32.0626   48.5015 C   0  0  1  0  0  0  0  0  0  0  0  0
   38.7823   32.8030   48.8326 C   0  0  0  0  0  0  0  0  0  0  0  0
   38.9298   31.6399   47.9187 C   0  0  2  0  0  0  0  0  0  0  0  0
   39.2953   32.0987   46.5521 C   0  0  0  0  0  0  0  0  0  0  0  0
   39.7475   33.4242   46.5840 C   0  0  0  0  0  0  0  0  0  0  0  0
   40.2192   34.0417   45.4449 C   0  0  0  0  0  0  0  0  0  0  0  0
   40.2596   33.3590   44.2242 C   0  0  0  0  0  0  0  0  0  0  0  0
   39.8109   32.0583   44.2194 C   0  0  0  0  0  0  0  0  0  0  0  0
   39.7766   31.2734   43.0901 C   0  0  0  0  0  0  0  0  0  0  0  0
   39.3117   29.9706   43.0777 C   0  0  0  0  0  0  0  0  0  0  0  0
   38.8547   29.4067   44.2448 C   0  0  0  0  0  0  0  0  0  0  0  0
   38.8821   30.1793   45.3846 C   0  0  0  0  0  0  0  0  0  0  0  0
   39.3498   31.4702   45.3588 C   0  0  0  0  0  0  0  0  0  0  0  0
   35.2783   29.5900   50.2064 C   0  0  0  0  0  0  0  0  0  0  0  0
   35.7854   30.5126   49.2362 C   0  0  0  0  0  0  0  0  0  0  0  0
   37.0108   31.0995   49.4812 C   0  0  0  0  0  0  0  0  0  0  0  0
   37.6662   30.7557   50.6465 N   0  0  0  0  0  0  0  0  0  0  0  0
   37.1647   29.8909   51.5286 C   0  0  0  0  0  0  0  0  0  0  0  0
   35.9726   29.2947   51.3326 N   0  0  0  0  0  0  0  0  0  0  0  0
   36.9066   32.4056   47.7111 H   0  0  0  0  0  0  0  0  0  0  0  0
   39.1633   32.6303   49.8853 H   0  0  0  0  0  0  0  0  0  0  0  0
   38.7035   33.8516   48.6176 H   0  0  0  0  0  0  0  0  0  0  0  0
   39.0547   30.5815   48.0773 H   0  0  0  0  0  0  0  0  0  0  0  0
   39.8687   34.1948   47.3152 H   0  0  0  0  0  0  0  0  0  0  0  0
   40.5978   35.0387   45.2954 H   0  0  0  0  0  0  0  0  0  0  0  0
   40.5952   33.6925   43.2507 H   0  0  0  0  0  0  0  0  0  0  0  0
   40.1306   31.6799   42.1395 H   0  0  0  0  0  0  0  0  0  0  0  0
   39.3000   29.3818   42.1633 H   0  0  0  0  0  0  0  0  0  0  0  0
   38.4847   28.4054   44.2974 H   0  0  0  0  0  0  0  0  0  0  0  0
   38.5117   29.7126   46.3159 H   0  0  0  0  0  0  0  0  0  0  0  0
   34.3256   29.1363   50.0137 H   0  0  0  0  0  0  0  0  0  0  0  0
   35.1923   30.7108   48.3574 H   0  0  0  0  0  0  0  0  0  0  0  0
   36.2488   30.3262   54.1762 N   0  0  0  0  0  0  0  0  0  0  0  0
   37.2625   29.5167   53.9864 C   0  0  0  0  0  0  0  0  0  0  0  0
   37.8928   29.5717   52.7221 N   0  0  0  0  0  0  0  0  0  0  0  0
   37.7587   28.5927   54.9766 N   0  0  0  0  0  0  0  0  0  0  0  0
   38.7652   28.5258   55.2489 H   0  0  0  0  0  0  0  0  0  0  0  0
   35.8124   30.2462   55.1377 H   0  0  0  0  0  0  0  0  0  0  0  0
   38.9270   29.3725   52.6547 H   0  0  0  0  0  0  0  0  0  0  0  0
   36.9938   28.0015   55.3866 H   0  0  0  0  0  0  0  0  0  0  0  0
  1  2  1  0
  1 16  1  0
  3  1  1  0
  3  2  1  0
  4  5  2  0
  4  3  1  0
  6  5  1  0
  7  6  2  0
  8  7  1  0
  8 13  2  0
  9  8  1  0
 10  9  2  0
 10 11  1  0
 11 12  2  0
 13 12  1  0
 13  4  1  0
 14 19  2  0
 15 16  2  0
 15 14  1  0
 16 17  1  0
 17 18  2  0
 19 18  1  0
  1 20  1  6
  2 21  1  0
  2 22  1  0
  3 23  1  1
  5 24  1  0
  6 25  1  0
  7 26  1  0
  9 27  1  0
 10 28  1  0
 11 29  1  0
 12 30  1  0
 14 31  1  0
 15 32  1  0
 33 34  2  3
 34 35  1  0
 34 36  1  0
 36 37  1  0
 33 38  1  0
 35 39  1  0
 36 40  1  0
 18 35  1  0
M  ISO  8  20  13  21  13  22  13  23  13  24  14  25  14  26  14  27  14
M  ISO  6  28  14  29  14  30  14  31  14  32  14  37   5
M  END
>  <DihAtoms>  (1) 
16,17,34,33

>  <DihDeg>  (1) 
179.99943320433755

$$$$
