
     RDKit          3D

 44 46  0  0  0  0  0  0  0  0999 V2000
   39.5962   33.3767   47.1067 C   0  0  0  0  0  0  0  0  0  0  0  0
   39.5387   32.5197   46.0150 C   0  0  0  0  0  0  0  0  0  0  0  0
   39.0184   31.2708   46.2262 C   0  0  0  0  0  0  0  0  0  0  0  0
   38.5947   30.9505   47.4818 N   0  0  0  0  0  0  0  0  0  0  0  0
   38.6661   31.7836   48.4799 C   0  0  0  0  0  0  0  0  0  0  0  0
   39.1782   33.0539   48.3333 N   0  0  0  0  0  0  0  0  0  0  0  0
   39.9972   32.9666   44.8164 O   0  0  0  0  0  0  0  0  0  0  0  0
   40.0987   32.0850   43.7494 C   0  0  0  0  0  0  0  0  0  0  0  0
   40.7178   30.8508   43.7264 C   0  0  0  0  0  0  0  0  0  0  0  0
   40.7134   30.1304   42.5877 C   0  0  0  0  0  0  0  0  0  0  0  0
   40.0942   30.6423   41.4804 C   0  0  0  0  0  0  0  0  0  0  0  0
   39.4720   31.8882   41.5105 C   0  0  0  0  0  0  0  0  0  0  0  0
   39.4896   32.5950   42.6700 N   0  0  0  0  0  0  0  0  0  0  0  0
   38.7971   32.4340   40.2698 C   0  0  0  0  0  0  0  0  0  0  0  0
   38.0290   31.0764   50.0199 S   0  0  0  0  0  0  0  0  0  0  0  0
   36.2621   31.4929   50.0175 C   0  0  0  0  0  0  0  0  0  0  0  0
   35.5839   29.2776   51.4913 F   0  0  0  0  0  0  0  0  0  0  0  0
   35.2677   29.3074   50.1479 C   0  0  0  0  0  0  0  0  0  0  0  0
   35.5570   30.3668   49.3125 C   0  0  0  0  0  0  0  0  0  0  0  0
   35.2211   30.3495   47.9940 C   0  0  0  0  0  0  0  0  0  0  0  0
   34.5644   29.2454   47.4360 C   0  0  0  0  0  0  0  0  0  0  0  0
   34.2701   28.1774   48.2674 C   0  0  0  0  0  0  0  0  0  0  0  0
   34.6124   28.2021   49.5961 C   0  0  0  0  0  0  0  0  0  0  0  0
   39.9916   34.3774   47.0243 H   0  0  0  0  0  0  0  0  0  0  0  0
   38.9408   30.5531   45.4076 H   0  0  0  0  0  0  0  0  0  0  0  0
   41.1826   30.5425   44.6536 H   0  0  0  0  0  0  0  0  0  0  0  0
   41.1976   29.1751   42.5868 H   0  0  0  0  0  0  0  0  0  0  0  0
   40.0947   30.0538   40.5623 H   0  0  0  0  0  0  0  0  0  0  0  0
   39.4903   33.1706   39.8165 H   0  0  0  0  0  0  0  0  0  0  0  0
   38.4986   31.6126   39.6151 H   0  0  0  0  0  0  0  0  0  0  0  0
   37.9166   33.0023   40.6194 H   0  0  0  0  0  0  0  0  0  0  0  0
   35.9610   31.5876   51.0627 H   0  0  0  0  0  0  0  0  0  0  0  0
   36.0519   32.4598   49.5242 H   0  0  0  0  0  0  0  0  0  0  0  0
   35.5093   31.2468   47.4594 H   0  0  0  0  0  0  0  0  0  0  0  0
   34.3288   29.3040   46.3781 H   0  0  0  0  0  0  0  0  0  0  0  0
   33.7710   27.3829   47.7816 H   0  0  0  0  0  0  0  0  0  0  0  0
   33.6907   28.2195   52.3566 N   0  0  0  0  0  0  0  0  0  0  0  0
   34.2860   27.1625   51.8532 C   0  0  0  0  0  0  0  0  0  0  0  0
   34.3029   27.1069   50.4519 N   0  0  0  0  0  0  0  0  0  0  0  0
   34.8822   26.1226   52.6373 N   0  0  0  0  0  0  0  0  0  0  0  0
   35.7451   25.7987   53.1683 H   0  0  0  0  0  0  0  0  0  0  0  0
   33.6876   28.2442   53.3946 H   0  0  0  0  0  0  0  0  0  0  0  0
   34.0677   26.1607   50.0191 H   0  0  0  0  0  0  0  0  0  0  0  0
   34.0920   25.4194   52.6617 H   0  0  0  0  0  0  0  0  0  0  0  0
  1  6  2  0
  2  3  2  0
  2  1  1  0
  3  4  1  0
  4  5  2  0
  5 15  1  0
  6  5  1  0
  7  2  1  0
  8  7  1  0
  9  8  2  0
 10  9  1  0
 11 12  1  0
 11 10  2  0
 12 13  2  0
 13  8  1  0
 14 12  1  0
 16 15  1  0
 18 17  1  0
 19 16  1  0
 19 18  2  0
 20 19  1  0
 21 20  2  0
 21 22  1  0
 22 23  2  0
 23 18  1  0
  1 24  1  0
  3 25  1  0
  9 26  1  0
 10 27  1  0
 11 28  1  0
 14 29  1  0
 14 30  1  0
 14 31  1  0
 16 32  1  0
 16 33  1  0
 20 34  1  0
 21 35  1  0
 22 36  1  0
 37 38  2  3
 38 39  1  0
 38 40  1  0
 40 41  1  0
 37 42  1  0
 39 43  1  0
 40 44  1  0
 23 39  1  0
M  ISO  8  24  14  25  14  26  14  27  14  28  14  29   8  30   8  31   8
M  ISO  6  32   8  33   8  34  14  35  14  36  14  41   5
M  END
>  <DihAtoms>  (1) 
21,22,38,37

>  <DihDeg>  (1) 
2.470452621209206

$$$$
