
 OpenBabel03272509333D

 40 43  0  0  1  0  0  0  0  0999 V2000
   37.6000   32.0880   48.1260 C   0  0  1  0  0  0  0  0  0  0  0  0
   38.8990   32.6780   48.4930 C   0  0  0  0  0  0  0  0  0  0  0  0
   38.9330   31.5350   47.5440 C   0  0  2  0  0  0  0  0  0  0  0  0
   37.0080   32.5230   47.3400 H   0  0  0  0  0  0  0  0  0  0  0  0
   39.2440   32.4330   49.5430 H   0  0  0  0  0  0  0  0  0  0  0  0
   38.9380   33.7360   48.3110 H   0  0  0  0  0  0  0  0  0  0  0  0
   38.9390   30.4640   47.6690 H   0  0  0  0  0  0  0  0  0  0  0  0
   39.3640   31.9930   46.1960 C   0  0  0  0  0  0  0  0  0  0  0  0
   39.8130   33.3190   46.2490 C   0  0  0  0  0  0  0  0  0  0  0  0
   40.3390   33.9360   45.1350 C   0  0  0  0  0  0  0  0  0  0  0  0
   40.4420   33.2520   43.9180 C   0  0  0  0  0  0  0  0  0  0  0  0
   39.9950   31.9510   43.8920 C   0  0  0  0  0  0  0  0  0  0  0  0
   40.0180   31.1640   42.7630 C   0  0  0  0  0  0  0  0  0  0  0  0
   39.5560   29.8620   42.7300 C   0  0  0  0  0  0  0  0  0  0  0  0
   39.0430   29.2980   43.8730 C   0  0  0  0  0  0  0  0  0  0  0  0
   39.0120   30.0710   45.0120 C   0  0  0  0  0  0  0  0  0  0  0  0
   39.4790   31.3630   45.0080 C   0  0  0  0  0  0  0  0  0  0  0  0
   39.8970   34.0910   46.9850 H   0  0  0  0  0  0  0  0  0  0  0  0
   40.7240   34.9340   45.0030 H   0  0  0  0  0  0  0  0  0  0  0  0
   40.8240   33.5860   42.9620 H   0  0  0  0  0  0  0  0  0  0  0  0
   40.4180   31.5710   41.8310 H   0  0  0  0  0  0  0  0  0  0  0  0
   39.5900   29.2720   41.8160 H   0  0  0  0  0  0  0  0  0  0  0  0
   38.6720   28.2960   43.9080 H   0  0  0  0  0  0  0  0  0  0  0  0
   38.5970   29.6060   45.9240 H   0  0  0  0  0  0  0  0  0  0  0  0
   35.0140   29.9040   49.7800 C   0  0  0  0  0  0  0  0  0  0  0  0
   35.6300   30.7980   48.8460 C   0  0  0  0  0  0  0  0  0  0  0  0
   36.9450   31.1590   49.0680 C   0  0  0  0  0  0  0  0  0  0  0  0
   37.5770   30.6340   50.1780 N   0  0  0  0  0  0  0  0  0  0  0  0
   36.9730   29.8030   51.0270 C   0  0  0  0  0  0  0  0  0  0  0  0
   35.6920   29.4230   50.8520 N   0  0  0  0  0  0  0  0  0  0  0  0
   33.9940   29.6250   49.6060 H   0  0  0  0  0  0  0  0  0  0  0  0
   35.0460   31.1500   48.0100 H   0  0  0  0  0  0  0  0  0  0  0  0
   37.4440   27.0590   51.5620 N   0  0  0  0  0  0  0  0  0  0  0  0
   38.1520   27.9550   52.2040 C   0  0  0  0  0  0  0  0  0  0  0  0
   37.6820   29.2880   52.1620 N   0  0  0  0  0  0  0  0  0  0  0  0
   39.3600   27.6630   52.9360 N   0  0  0  0  0  0  0  0  0  0  0  0
   39.5250   27.9670   53.9220 H   0  0  0  0  0  0  0  0  0  0  0  0
   37.8370   26.0780   51.6250 H   0  0  0  0  0  0  0  0  0  0  0  0
   37.8560   29.9210   52.9880 H   0  0  0  0  0  0  0  0  0  0  0  0
   40.0470   27.1110   52.3630 H   0  0  0  0  0  0  0  0  0  0  0  0
  1  4  1  6  0  0  0
  1  2  1  0  0  0  0
  1 27  1  0  0  0  0
  2  5  1  0  0  0  0
  3  7  1  1  0  0  0
  3  1  1  0  0  0  0
  3  2  1  0  0  0  0
  6  2  1  0  0  0  0
  8  9  1  0  0  0  0
  8  3  1  0  0  0  0
  9 18  1  0  0  0  0
 10  9  2  0  0  0  0
 11 10  1  0  0  0  0
 12 11  2  0  0  0  0
 12 17  1  0  0  0  0
 13 12  1  0  0  0  0
 14 13  2  0  0  0  0
 14 15  1  0  0  0  0
 15 23  1  0  0  0  0
 15 16  2  0  0  0  0
 16 24  1  0  0  0  0
 17 16  1  0  0  0  0
 17  8  2  0  0  0  0
 19 10  1  0  0  0  0
 20 11  1  0  0  0  0
 21 13  1  0  0  0  0
 22 14  1  0  0  0  0
 25 30  1  0  0  0  0
 26 27  1  0  0  0  0
 26 25  2  0  0  0  0
 27 28  2  0  0  0  0
 28 29  1  0  0  0  0
 29 35  1  0  0  0  0
 30 29  2  0  0  0  0
 31 25  1  0  0  0  0
 32 26  1  0  0  0  0
 33 38  1  0  0  0  0
 33 34  2  0  0  0  0
 34 36  1  0  0  0  0
 35 34  1  0  0  0  0
 35 39  1  0  0  0  0
 36 37  1  0  0  0  0
 40 36  1  0  0  0  0
M  END
>  <minimizedAffinity>
-2.91803122

>  <minimizedRMSD>
0.547452152

$$$$
