
 OpenBabel03272502063D

 40 43  0  0  0  0  0  0  0  0999 V2000
   34.1660   30.4200   47.6950 F   0  0  0  0  0  0  0  0  0  0  0  0
   34.5740   29.9530   46.4710 C   0  0  0  0  0  0  0  0  0  0  0  0
   33.7010   29.3480   45.5810 C   0  0  0  0  0  0  0  0  0  0  0  0
   34.1800   28.9210   44.3650 C   0  0  0  0  0  0  0  0  0  0  0  0
   35.5260   29.0940   44.0260 C   0  0  0  0  0  0  0  0  0  0  0  0
   36.3450   29.7050   44.9590 C   0  0  0  0  0  0  0  0  0  0  0  0
   35.9190   30.1360   46.1590 C   0  0  0  0  0  0  0  0  0  0  0  0
   33.4660   28.4620   43.7180 H   0  0  0  0  0  0  0  0  0  0  0  0
   35.8610   28.7450   43.0590 H   0  0  0  0  0  0  0  0  0  0  0  0
   37.3670   29.8000   44.6200 H   0  0  0  0  0  0  0  0  0  0  0  0
   32.0770   28.2180   46.9590 C   0  0  0  0  0  0  0  0  0  0  0  0
   32.3460   29.2290   46.0480 C   0  0  0  0  0  0  0  0  0  0  0  0
   31.2990   30.0560   45.6670 C   0  0  0  0  0  0  0  0  0  0  0  0
   30.0580   29.8650   46.1840 N   0  0  0  0  0  0  0  0  0  0  0  0
   29.8400   28.8780   47.0610 C   0  0  0  0  0  0  0  0  0  0  0  0
   30.8170   28.0710   47.4450 N   0  0  0  0  0  0  0  0  0  0  0  0
   32.8390   27.5290   47.3060 H   0  0  0  0  0  0  0  0  0  0  0  0
   31.5260   30.8440   44.9510 H   0  0  0  0  0  0  0  0  0  0  0  0
   28.5210   28.7060   47.5880 N   0  0  0  0  0  0  0  0  0  0  0  0
   27.8950   29.8470   47.9320 C   0  0  0  0  0  0  0  0  0  0  0  0
   26.6040   29.7170   48.4500 C   0  0  0  0  0  0  0  0  0  0  0  0
   26.1130   28.4150   48.5490 C   0  0  0  0  0  0  0  0  0  0  0  0
   24.8060   28.1900   49.0660 N   0  0  0  0  0  0  0  0  0  0  0  0
   26.8060   27.3280   48.1810 N   0  0  0  0  0  0  0  0  0  0  0  0
   28.0290   27.4570   47.6920 C   0  0  0  0  0  0  0  0  0  0  0  0
   28.7540   26.4980   47.3210 O   0  0  0  0  0  0  0  0  0  0  0  0
   23.7650   28.2460   49.0090 H   0  0  0  0  0  0  0  0  0  0  0  0
   24.8450   27.7190   50.0080 H   0  0  0  0  0  0  0  0  0  0  0  0
   37.8850   32.3110   45.0560 Br  0  0  0  0  0  0  0  0  0  0  0  0
   37.7550   31.7460   46.8700 C   0  0  0  0  0  0  0  0  0  0  0  0
   36.8360   30.7550   47.0940 C   0  0  0  0  0  0  0  0  0  0  0  0
   36.7180   30.2560   48.4020 C   0  0  0  0  0  0  0  0  0  0  0  0
   37.4930   30.7460   49.4090 C   0  0  0  0  0  0  0  0  0  0  0  0
   38.3990   31.7470   49.1190 C   0  0  0  0  0  0  0  0  0  0  0  0
   38.5420   32.2690   47.8240 C   0  0  0  0  0  0  0  0  0  0  0  0
   36.0240   29.4740   48.6750 H   0  0  0  0  0  0  0  0  0  0  0  0
   37.4300   30.3850   50.4250 H   0  0  0  0  0  0  0  0  0  0  0  0
   39.0350   32.1670   49.8870 H   0  0  0  0  0  0  0  0  0  0  0  0
   39.4050   33.2530   47.4550 O   0  0  0  0  0  0  0  0  0  0  0  0
   39.1300   34.2220   47.5840 H   0  0  0  0  0  0  0  0  0  0  0  0
  2  1  1  0  0  0  0
  3 12  1  0  0  0  0
  3  2  2  0  0  0  0
  4  3  1  0  0  0  0
  5  4  2  0  0  0  0
  5  6  1  0  0  0  0
  6  7  2  0  0  0  0
  7  2  1  0  0  0  0
  7 31  1  0  0  0  0
  8  4  1  0  0  0  0
  9  5  1  0  0  0  0
 10  6  1  0  0  0  0
 11 17  1  0  0  0  0
 11 16  1  0  0  0  0
 12 11  2  0  0  0  0
 13 12  1  0  0  0  0
 13 14  2  0  0  0  0
 14 15  1  0  0  0  0
 15 16  2  0  0  0  0
 15 19  1  0  0  0  0
 18 13  1  0  0  0  0
 19 25  1  0  0  0  0
 19 20  1  0  0  0  0
 20 21  2  0  0  0  0
 21 22  1  0  0  0  0
 22 23  1  0  0  0  0
 23 28  1  0  0  0  0
 24 22  2  0  0  0  0
 25 24  1  0  0  0  0
 26 25  2  0  0  0  0
 27 23  1  0  0  0  0
 29 30  1  0  0  0  0
 30 31  2  0  0  0  0
 30 35  1  0  0  0  0
 31 32  1  0  0  0  0
 32 36  1  0  0  0  0
 32 33  2  0  0  0  0
 33 37  1  0  0  0  0
 34 33  1  0  0  0  0
 34 38  1  0  0  0  0
 35 34  2  0  0  0  0
 39 40  1  0  0  0  0
 39 35  1  0  0  0  0
M  END
>  <minimizedAffinity>
-8.12908936

>  <minimizedRMSD>
0.203981668

$$$$
