
 OpenBabel03272508053D

 36 39  0  0  0  0  0  0  0  0999 V2000
   38.8930   30.8830   45.7870 C   0  0  0  0  0  0  0  0  0  0  0  0
   40.0880   31.5200   46.0500 C   0  0  0  0  0  0  0  0  0  0  0  0
   40.9290   31.4710   44.9540 C   0  0  0  0  0  0  0  0  0  0  0  0
   40.1970   30.7890   44.0440 N   0  0  0  0  0  0  0  0  0  0  0  0
   39.0120   30.4460   44.5250 N   0  0  0  0  0  0  0  0  0  0  0  0
   40.3570   32.0060   46.9900 H   0  0  0  0  0  0  0  0  0  0  0  0
   41.9270   31.8520   44.7860 H   0  0  0  0  0  0  0  0  0  0  0  0
   37.7770   30.7370   46.6970 C   0  0  0  0  0  0  0  0  0  0  0  0
   37.9860   30.9510   48.0760 C   0  0  0  0  0  0  0  0  0  0  0  0
   36.9020   30.8080   48.9340 C   0  0  0  0  0  0  0  0  0  0  0  0
   35.6960   30.4690   48.3900 N   0  0  0  0  0  0  0  0  0  0  0  0
   35.5140   30.2680   47.0630 C   0  0  0  0  0  0  0  0  0  0  0  0
   36.5680   30.4070   46.2300 N   0  0  0  0  0  0  0  0  0  0  0  0
   38.9870   31.2200   48.4170 H   0  0  0  0  0  0  0  0  0  0  0  0
   34.5360   29.9990   46.6790 H   0  0  0  0  0  0  0  0  0  0  0  0
   37.0970   31.0280   50.3900 C   0  0  0  0  0  0  0  0  0  0  0  0
   36.5870   32.2750   50.6520 F   0  0  0  0  0  0  0  0  0  0  0  0
   36.4230   30.1000   51.1680 F   0  0  0  0  0  0  0  0  0  0  0  0
   38.4510   31.0370   50.7310 F   0  0  0  0  0  0  0  0  0  0  0  0
   40.5690   30.4270   42.6690 C   0  0  0  0  0  0  0  0  0  0  0  0
   40.1550   31.1910   41.5670 C   0  0  0  0  0  0  0  0  0  0  0  0
   40.5180   30.8230   40.3320 C   0  0  0  0  0  0  0  0  0  0  0  0
   41.3220   29.6600   40.1520 C   0  0  0  0  0  0  0  0  0  0  0  0
   41.5420   29.0950   41.9070 S   0  0  0  0  0  0  0  0  0  0  0  0
   39.5410   32.0840   41.6710 H   0  0  0  0  0  0  0  0  0  0  0  0
   40.3060   31.2700   39.3750 H   0  0  0  0  0  0  0  0  0  0  0  0
   41.8790   28.9820   39.1020 N   0  0  0  0  0  0  0  0  0  0  0  0
   41.3890   27.8530   38.6170 C   0  0  0  0  0  3  0  0  0  0  0  0
   42.0310   27.2390   37.5440 C   0  0  0  0  0  3  0  0  0  0  0  0
   43.1640   27.8170   37.0060 C   0  0  0  0  0  0  0  0  0  0  0  0
   43.9080   27.2810   35.9050 N   0  0  0  0  0  0  0  0  0  0  0  0
   43.6470   28.9800   37.5250 N   0  0  0  0  0  0  0  0  0  0  0  0
   42.9980   29.5580   38.5750 C   0  0  0  0  0  0  0  0  0  0  0  0
   43.5060   30.6280   38.9970 O   0  0  0  0  0  0  0  0  0  0  0  0
   44.9520   27.3680   35.9000 H   0  0  0  0  0  0  0  0  0  0  0  0
   43.2550   26.8500   35.2150 H   0  0  0  0  0  0  0  0  0  0  0  0
  1  2  1  0  0  0  0
  1  8  1  0  0  0  0
  2  6  1  0  0  0  0
  3  2  2  0  0  0  0
  4  5  1  0  0  0  0
  4  3  1  0  0  0  0
  5  1  2  0  0  0  0
  7  3  1  0  0  0  0
  8  9  1  0  0  0  0
  9 14  1  0  0  0  0
  9 10  2  0  0  0  0
 10 16  1  0  0  0  0
 11 10  1  0  0  0  0
 12 11  2  0  0  0  0
 13  8  2  0  0  0  0
 13 12  1  0  0  0  0
 15 12  1  0  0  0  0
 16 17  1  0  0  0  0
 16 19  1  0  0  0  0
 16 18  1  0  0  0  0
 20  4  1  0  0  0  0
 21 25  1  0  0  0  0
 21 20  2  0  0  0  0
 22 21  1  0  0  0  0
 23 22  2  0  0  0  0
 23 24  1  0  0  0  0
 24 20  1  0  0  0  0
 26 22  1  0  0  0  0
 27 23  1  0  0  0  0
 28 27  1  0  0  0  0
 29 28  2  0  0  0  0
 30 32  2  0  0  0  0
 30 29  1  0  0  0  0
 31 30  1  0  0  0  0
 32 33  1  0  0  0  0
 33 34  2  0  0  0  0
 33 27  1  0  0  0  0
 35 31  1  0  0  0  0
 36 31  1  0  0  0  0
M  END
>  <minimizedAffinity>
-6.54973698

>  <minimizedRMSD>
0.555787504

$$$$
