
     RDKit          3D

 42 45  0  0  0  0  0  0  0  0999 V2000
   34.3248   30.4615   47.6023 F   0  0  0  0  0  0  0  0  0  0  0  0
   34.7431   29.9889   46.3829 C   0  0  0  0  0  0  0  0  0  0  0  0
   33.8805   29.3646   45.4961 C   0  0  0  0  0  0  0  0  0  0  0  0
   34.3690   28.9340   44.2854 C   0  0  0  0  0  0  0  0  0  0  0  0
   35.7142   29.1208   43.9493 C   0  0  0  0  0  0  0  0  0  0  0  0
   36.5216   29.7501   44.8787 C   0  0  0  0  0  0  0  0  0  0  0  0
   36.0873   30.1864   46.0739 C   0  0  0  0  0  0  0  0  0  0  0  0
   37.9820   32.4226   44.9707 Br  0  0  0  0  0  0  0  0  0  0  0  0
   37.8817   31.8432   46.7832 C   0  0  0  0  0  0  0  0  0  0  0  0
   36.9931   30.8248   47.0070 C   0  0  0  0  0  0  0  0  0  0  0  0
   36.8993   30.3140   48.3115 C   0  0  0  0  0  0  0  0  0  0  0  0
   37.6674   30.8189   49.3168 C   0  0  0  0  0  0  0  0  0  0  0  0
   38.5425   31.8471   49.0267 C   0  0  0  0  0  0  0  0  0  0  0  0
   38.6613   32.3807   47.7341 C   0  0  0  0  0  0  0  0  0  0  0  0
   39.4930   33.3924   47.3659 O   0  0  0  0  0  0  0  0  0  0  0  0
   32.2577   28.2022   46.8478 C   0  0  0  0  0  0  0  0  0  0  0  0
   32.5249   29.2336   45.9596 C   0  0  0  0  0  0  0  0  0  0  0  0
   31.4774   30.0669   45.5973 C   0  0  0  0  0  0  0  0  0  0  0  0
   30.2362   29.8616   46.1094 N   0  0  0  0  0  0  0  0  0  0  0  0
   30.0199   28.8561   46.9644 C   0  0  0  0  0  0  0  0  0  0  0  0
   30.9981   28.0417   47.3302 N   0  0  0  0  0  0  0  0  0  0  0  0
   33.6633   28.4597   43.6397 H   0  0  0  0  0  0  0  0  0  0  0  0
   36.0555   28.7666   42.9856 H   0  0  0  0  0  0  0  0  0  0  0  0
   37.5437   29.8555   44.5431 H   0  0  0  0  0  0  0  0  0  0  0  0
   36.2292   29.5114   48.5853 H   0  0  0  0  0  0  0  0  0  0  0  0
   37.6221   30.4503   50.3305 H   0  0  0  0  0  0  0  0  0  0  0  0
   39.1718   32.2799   49.7934 H   0  0  0  0  0  0  0  0  0  0  0  0
   39.1910   34.3517   47.5033 H   0  0  0  0  0  0  0  0  0  0  0  0
   33.0212   27.5070   47.1797 H   0  0  0  0  0  0  0  0  0  0  0  0
   31.7029   30.8711   44.8988 H   0  0  0  0  0  0  0  0  0  0  0  0
   28.7009   28.6688   47.4857 N   0  0  0  0  0  0  0  0  0  0  0  0
   27.7192   28.7065   46.5659 C   0  0  0  0  0  0  0  0  0  0  0  0
   26.4157   28.5274   47.0375 C   0  0  0  0  0  0  0  0  0  0  0  0
   26.2857   28.3297   48.4126 C   0  0  0  0  0  0  0  0  0  0  0  0
   24.9935   28.1384   48.9802 N   0  0  0  0  0  0  0  0  0  0  0  0
   27.3217   28.3061   49.2633 N   0  0  0  0  0  0  0  0  0  0  0  0
   28.5535   28.4765   48.8095 C   0  0  0  0  0  0  0  0  0  0  0  0
   29.5859   28.4704   49.5296 O   0  0  0  0  0  0  0  0  0  0  0  0
   27.9082   28.8642   45.5247 H   0  0  0  0  0  0  0  0  0  0  0  0
   25.5667   28.5430   46.3672 H   0  0  0  0  0  0  0  0  0  0  0  0
   24.1221   27.5851   49.1329 H   0  0  0  0  0  0  0  0  0  0  0  0
   24.7133   28.9629   49.5727 H   0  0  0  0  0  0  0  0  0  0  0  0
  2  1  1  0
  3 17  1  0
  3  2  2  0
  4  3  1  0
  5  4  2  0
  5  6  1  0
  6  7  2  0
  7  2  1  0
  7 10  1  0
  8  9  1  0
  9 10  2  0
  9 14  1  0
 10 11  1  0
 11 12  2  0
 13 12  1  0
 14 13  2  0
 15 14  1  0
 16 21  2  0
 17 16  1  0
 18 17  2  0
 18 19  1  0
 19 20  2  0
 20 21  1  0
  4 22  1  0
  5 23  1  0
  6 24  1  0
 11 25  1  0
 12 26  1  0
 13 27  1  0
 15 28  1  0
 16 29  1  0
 18 30  1  0
 31 32  1  0
 32 33  2  0
 33 34  1  0
 34 35  1  0
 34 36  2  0
 36 37  1  0
 37 38  2  0
 37 31  1  0
 32 39  1  0
 33 40  1  0
 35 41  1  0
 35 42  1  0
 20 31  1  0
M  ISO  8  22  14  23  14  24  14  25  14  26  14  27  14  28   3  29  14
M  ISO  1  30  14
M  END
>  <DihAtoms>  (1) 
18,19,30,31

>  <DihDeg>  (1) 
62.11019901933329

$$$$
