
 OpenBabel03272504333D

 41 44  0  0  0  0  0  0  0  0999 V2000
   35.1670   29.6220   47.5980 C   0  0  0  0  0  0  0  0  0  0  0  0
   35.3340   30.0920   46.2980 C   0  0  0  0  0  0  0  0  0  0  0  0
   34.3200   29.9570   45.3760 C   0  0  0  0  0  0  0  0  0  0  0  0
   33.1660   29.3510   45.7910 N   0  0  0  0  0  0  0  0  0  0  0  0
   33.0320   28.9050   47.0570 C   0  0  0  0  0  0  0  0  0  0  0  0
   34.0250   29.0340   47.9670 N   0  0  0  0  0  0  0  0  0  0  0  0
   36.2680   30.5630   46.0260 H   0  0  0  0  0  0  0  0  0  0  0  0
   34.4190   30.3140   44.3520 H   0  0  0  0  0  0  0  0  0  0  0  0
   31.7790   28.2640   47.4650 C   0  0  0  0  0  0  0  0  0  0  0  0
   31.6840   27.5830   48.6450 C   0  0  0  0  0  0  0  0  0  0  0  0
   30.5190   26.9630   49.0700 C   0  0  0  0  0  0  0  0  0  0  0  0
   29.4660   27.0750   48.2300 N   0  0  0  0  0  0  0  0  0  0  0  0
   29.5490   27.7390   47.0710 C   0  0  0  0  0  0  0  0  0  0  0  0
   30.7000   28.3360   46.6800 N   0  0  0  0  0  0  0  0  0  0  0  0
   32.5310   27.4970   49.3130 H   0  0  0  0  0  0  0  0  0  0  0  0
   30.4500   26.4260   50.0050 H   0  0  0  0  0  0  0  0  0  0  0  0
   28.4870   27.9030   46.1340 N   0  0  0  0  0  0  0  0  0  0  0  0
   27.2670   28.1040   46.6610 C   0  0  0  0  0  3  0  0  0  0  0  0
   26.2420   28.2630   45.7470 C   0  0  0  0  0  3  0  0  0  0  0  0
   26.5560   28.2020   44.4040 C   0  0  0  0  0  0  0  0  0  0  0  0
   25.5470   28.3590   43.4170 N   0  0  0  0  0  0  0  0  0  0  0  0
   27.8260   27.9940   43.9510 N   0  0  0  0  0  0  0  0  0  0  0  0
   28.8280   27.8380   44.8340 C   0  0  0  0  0  0  0  0  0  0  0  0
   30.0260   27.6420   44.4910 O   0  0  0  0  0  0  0  0  0  0  0  0
   24.7710   28.0440   42.7960 H   0  0  0  0  0  0  0  0  0  0  0  0
   25.1030   27.3990   43.3130 H   0  0  0  0  0  0  0  0  0  0  0  0
   36.1860   29.7340   48.6000 N   0  0  0  0  0  0  0  0  0  0  0  0
   36.2100   28.8990   49.7790 C   0  0  0  0  0  0  0  0  0  0  0  0
   36.4940   29.6240   51.0640 C   0  0  0  0  0  0  0  0  0  0  0  0
   37.2880   30.7840   50.9920 N   0  0  0  0  0  0  0  0  0  0  0  0
   37.0580   31.5720   49.7850 C   0  0  0  0  0  0  0  0  0  0  0  0
   37.2820   30.6270   48.6160 C   0  0  0  0  0  0  0  0  0  0  0  0
   35.2660   28.3220   49.9010 H   0  0  0  0  0  0  0  0  0  0  0  0
   37.0220   28.1300   49.6180 H   0  0  0  0  0  0  0  0  0  0  0  0
   36.9700   28.8830   51.7430 H   0  0  0  0  0  0  0  0  0  0  0  0
   35.5170   29.8630   51.5610 H   0  0  0  0  0  0  0  0  0  0  0  0
   37.0130   31.4270   51.7950 H   0  0  0  0  0  0  0  0  0  0  0  0
   36.0160   31.9430   49.8390 H   0  0  0  0  0  0  0  0  0  0  0  0
   37.7740   32.4130   49.7770 H   0  0  0  0  0  0  0  0  0  0  0  0
   37.3190   31.2380   47.7050 H   0  0  0  0  0  0  0  0  0  0  0  0
   38.2690   30.1430   48.7840 H   0  0  0  0  0  0  0  0  0  0  0  0
  1  6  1  0  0  0  0
  1 27  1  0  0  0  0
  2  1  2  0  0  0  0
  3  4  2  0  0  0  0
  3  2  1  0  0  0  0
  4  5  1  0  0  0  0
  5  9  1  0  0  0  0
  5  6  2  0  0  0  0
  7  2  1  0  0  0  0
  8  3  1  0  0  0  0
  9 10  1  0  0  0  0
 10 11  2  0  0  0  0
 10 15  1  0  0  0  0
 11 16  1  0  0  0  0
 12 11  1  0  0  0  0
 13 12  2  0  0  0  0
 14 13  1  0  0  0  0
 14  9  2  0  0  0  0
 17 18  1  0  0  0  0
 17 13  1  0  0  0  0
 19 18  2  0  0  0  0
 20 19  1  0  0  0  0
 21 20  1  0  0  0  0
 22 20  2  0  0  0  0
 22 23  1  0  0  0  0
 23 17  1  0  0  0  0
 24 23  2  0  0  0  0
 25 21  1  0  0  0  0
 26 21  1  0  0  0  0
 27 32  1  0  0  0  0
 27 28  1  0  0  0  0
 28 33  1  0  0  0  0
 28 29  1  0  0  0  0
 29 36  1  0  0  0  0
 29 35  1  0  0  0  0
 30 29  1  0  0  0  0
 30 37  1  0  0  0  0
 31 38  1  0  0  0  0
 31 30  1  0  0  0  0
 32 41  1  0  0  0  0
 32 31  1  0  0  0  0
 34 28  1  0  0  0  0
 39 31  1  0  0  0  0
 40 32  1  0  0  0  0
M  END
>  <minimizedAffinity>
-5.65787029

>  <minimizedRMSD>
0.689425111

$$$$
