
 OpenBabel03272508043D

 36 39  0  0  0  0  0  0  0  0999 V2000
   38.8930   30.9130   45.7770 C   0  0  0  0  0  0  0  0  0  0  0  0
   40.0600   31.6100   46.0120 C   0  0  0  0  0  0  0  0  0  0  0  0
   40.9020   31.5510   44.9170 C   0  0  0  0  0  0  0  0  0  0  0  0
   40.1990   30.8030   44.0370 N   0  0  0  0  0  0  0  0  0  0  0  0
   39.0300   30.4300   44.5330 N   0  0  0  0  0  0  0  0  0  0  0  0
   40.3090   32.1440   46.9310 H   0  0  0  0  0  0  0  0  0  0  0  0
   41.8840   31.9670   44.7320 H   0  0  0  0  0  0  0  0  0  0  0  0
   37.7830   30.7580   46.6940 C   0  0  0  0  0  0  0  0  0  0  0  0
   37.9990   30.9740   48.0710 C   0  0  0  0  0  0  0  0  0  0  0  0
   36.9220   30.8210   48.9370 C   0  0  0  0  0  0  0  0  0  0  0  0
   35.7160   30.4710   48.4010 N   0  0  0  0  0  0  0  0  0  0  0  0
   35.5280   30.2680   47.0750 C   0  0  0  0  0  0  0  0  0  0  0  0
   36.5750   30.4160   46.2340 N   0  0  0  0  0  0  0  0  0  0  0  0
   39.0000   31.2510   48.4060 H   0  0  0  0  0  0  0  0  0  0  0  0
   34.5490   29.9900   46.6960 H   0  0  0  0  0  0  0  0  0  0  0  0
   37.1250   31.0430   50.3910 C   0  0  0  0  0  0  0  0  0  0  0  0
   36.6060   32.2870   50.6560 F   0  0  0  0  0  0  0  0  0  0  0  0
   36.4630   30.1100   51.1740 F   0  0  0  0  0  0  0  0  0  0  0  0
   38.4800   31.0630   50.7230 F   0  0  0  0  0  0  0  0  0  0  0  0
   40.5860   30.4020   42.6770 C   0  0  0  0  0  0  0  0  0  0  0  0
   40.2220   31.1590   41.5530 C   0  0  0  0  0  0  0  0  0  0  0  0
   40.5970   30.7550   40.3320 C   0  0  0  0  0  0  0  0  0  0  0  0
   41.3630   29.5610   40.1910 C   0  0  0  0  0  0  0  0  0  0  0  0
   41.5270   29.0220   41.9600 S   0  0  0  0  0  0  0  0  0  0  0  0
   39.6380   32.0740   41.6270 H   0  0  0  0  0  0  0  0  0  0  0  0
   40.4200   31.1900   39.3630 H   0  0  0  0  0  0  0  0  0  0  0  0
   41.9170   28.8440   39.1660 N   0  0  0  0  0  0  0  0  0  0  0  0
   43.1000   29.1130   38.6390 C   0  0  0  0  0  3  0  0  0  0  0  0
   43.5750   28.3220   37.5950 C   0  0  0  0  0  3  0  0  0  0  0  0
   42.8070   27.2730   37.1300 C   0  0  0  0  0  0  0  0  0  0  0  0
   43.1880   26.3920   36.0660 N   0  0  0  0  0  0  0  0  0  0  0  0
   41.5930   27.0170   37.6920 N   0  0  0  0  0  0  0  0  0  0  0  0
   41.1530   27.8090   38.7100 C   0  0  0  0  0  0  0  0  0  0  0  0
   40.0230   27.5090   39.1750 O   0  0  0  0  0  0  0  0  0  0  0  0
   42.4580   26.0450   35.4010 H   0  0  0  0  0  0  0  0  0  0  0  0
   44.2140   26.2100   36.1110 H   0  0  0  0  0  0  0  0  0  0  0  0
  1  2  1  0  0  0  0
  1  8  1  0  0  0  0
  2  6  1  0  0  0  0
  3  2  2  0  0  0  0
  4  5  1  0  0  0  0
  4  3  1  0  0  0  0
  5  1  2  0  0  0  0
  7  3  1  0  0  0  0
  8  9  1  0  0  0  0
  9 14  1  0  0  0  0
  9 10  2  0  0  0  0
 10 16  1  0  0  0  0
 11 10  1  0  0  0  0
 12 11  2  0  0  0  0
 13  8  2  0  0  0  0
 13 12  1  0  0  0  0
 15 12  1  0  0  0  0
 16 17  1  0  0  0  0
 16 19  1  0  0  0  0
 16 18  1  0  0  0  0
 20  4  1  0  0  0  0
 21 25  1  0  0  0  0
 21 20  2  0  0  0  0
 22 21  1  0  0  0  0
 23 22  2  0  0  0  0
 23 24  1  0  0  0  0
 24 20  1  0  0  0  0
 26 22  1  0  0  0  0
 27 23  1  0  0  0  0
 28 27  1  0  0  0  0
 29 28  2  0  0  0  0
 30 29  1  0  0  0  0
 30 32  2  0  0  0  0
 31 36  1  0  0  0  0
 31 30  1  0  0  0  0
 32 33  1  0  0  0  0
 33 27  1  0  0  0  0
 33 34  2  0  0  0  0
 35 31  1  0  0  0  0
M  END
>  <minimizedAffinity>
-6.42591572

>  <minimizedRMSD>
0.199695021

$$$$
