
 OpenBabel03272506273D

 43 46  0  0  0  0  0  0  0  0999 V2000
   35.3070   30.1350   44.4550 C   0  0  0  0  0  0  0  0  0  0  0  0
   35.1740   29.7150   45.7690 C   0  0  0  0  0  0  0  0  0  0  0  0
   34.0240   29.8820   46.5380 C   0  0  0  0  0  0  0  0  0  0  0  0
   32.9170   30.5260   45.9430 C   0  0  0  0  0  0  0  0  0  0  0  0
   33.0700   30.9360   44.6350 C   0  0  0  0  0  0  0  0  0  0  0  0
   34.2000   30.7650   43.8930 C   0  0  0  0  0  0  0  0  0  0  0  0
   36.0210   29.2090   46.2620 H   0  0  0  0  0  0  0  0  0  0  0  0
   34.0440   29.5080   47.5590 H   0  0  0  0  0  0  0  0  0  0  0  0
   32.0970   30.5990   46.6220 H   0  0  0  0  0  0  0  0  0  0  0  0
   32.1500   31.3940   44.3850 H   0  0  0  0  0  0  0  0  0  0  0  0
   36.7000   28.6380   43.1670 C   0  0  0  0  0  0  0  0  0  0  0  0
   36.5680   29.8780   43.8210 C   0  0  0  0  0  0  0  0  0  0  0  0
   37.6580   30.7550   43.8040 C   0  0  0  0  0  0  0  0  0  0  0  0
   38.7920   30.3680   43.1600 N   0  0  0  0  0  0  0  0  0  0  0  0
   38.9000   29.1650   42.5330 C   0  0  0  0  0  0  0  0  0  0  0  0
   37.8480   28.3010   42.5400 N   0  0  0  0  0  0  0  0  0  0  0  0
   35.8760   27.9420   43.1610 H   0  0  0  0  0  0  0  0  0  0  0  0
   39.8160   28.8890   42.0300 H   0  0  0  0  0  0  0  0  0  0  0  0
   37.6610   32.0890   44.4530 C   0  0  0  0  0  0  0  0  0  0  0  0
   38.9400   32.6700   44.3220 F   0  0  0  0  0  0  0  0  0  0  0  0
   36.7450   32.9680   44.0030 F   0  0  0  0  0  0  0  0  0  0  0  0
   37.5070   31.9460   45.8320 F   0  0  0  0  0  0  0  0  0  0  0  0
   34.3690   31.2910   42.2290 S   0  0  0  0  0  0  0  0  0  0  0  0
   31.3550   31.6830   41.5840 Cl  0  0  0  0  0  0  0  0  0  0  0  0
   32.4350   33.0550   41.6720 C   0  0  0  0  0  0  0  0  0  0  0  0
   33.7930   32.9410   41.9410 C   0  0  0  0  0  0  0  0  0  0  0  0
   34.5870   34.0490   41.9840 C   0  0  0  0  0  0  0  0  0  0  0  0
   34.0280   35.2870   41.7620 C   0  0  0  0  0  0  0  0  0  0  0  0
   32.6670   35.4140   41.4910 C   0  0  0  0  0  0  0  0  0  0  0  0
   31.8440   34.2980   41.4410 C   0  0  0  0  0  0  0  0  0  0  0  0
   35.6320   34.0620   42.1430 H   0  0  0  0  0  0  0  0  0  0  0  0
   34.5770   36.2200   41.7770 H   0  0  0  0  0  0  0  0  0  0  0  0
   32.2260   36.3780   41.3160 H   0  0  0  0  0  0  0  0  0  0  0  0
   30.4500   34.4290   41.1620 N   0  0  0  0  0  0  0  0  0  0  0  0
   29.5600   34.5040   42.1720 C   0  0  0  0  0  3  0  0  0  0  0  0
   28.2450   34.6290   41.7710 C   0  0  0  0  0  3  0  0  0  0  0  0
   27.8370   34.6750   40.4500 C   0  0  0  0  0  0  0  0  0  0  0  0
   26.4700   34.8030   40.0750 N   0  0  0  0  0  0  0  0  0  0  0  0
   28.8140   34.5900   39.5200 N   0  0  0  0  0  0  0  0  0  0  0  0
   30.1260   34.4660   39.8560 C   0  0  0  0  0  0  0  0  0  0  0  0
   30.9490   34.3960   38.9220 O   0  0  0  0  0  0  0  0  0  0  0  0
   26.4860   35.8450   39.9280 H   0  0  0  0  0  0  0  0  0  0  0  0
   25.6740   34.1720   39.9610 H   0  0  0  0  0  0  0  0  0  0  0  0
  1  2  1  0  0  0  0
  2  7  1  0  0  0  0
  2  3  2  0  0  0  0
  3  8  1  0  0  0  0
  4  3  1  0  0  0  0
  4  9  1  0  0  0  0
  5  4  2  0  0  0  0
  6  1  2  0  0  0  0
  6  5  1  0  0  0  0
 10  5  1  0  0  0  0
 11 12  1  0  0  0  0
 12  1  1  0  0  0  0
 13 12  2  0  0  0  0
 13 19  1  0  0  0  0
 14 13  1  0  0  0  0
 15 16  1  0  0  0  0
 15 14  2  0  0  0  0
 16 11  2  0  0  0  0
 17 11  1  0  0  0  0
 18 15  1  0  0  0  0
 19 22  1  0  0  0  0
 20 19  1  0  0  0  0
 21 19  1  0  0  0  0
 23  6  1  0  0  0  0
 24 25  1  0  0  0  0
 25 26  1  0  0  0  0
 26 27  2  0  0  0  0
 26 23  1  0  0  0  0
 27 31  1  0  0  0  0
 28 32  1  0  0  0  0
 28 27  1  0  0  0  0
 29 28  2  0  0  0  0
 30 29  1  0  0  0  0
 30 25  2  0  0  0  0
 33 29  1  0  0  0  0
 34 30  1  0  0  0  0
 34 35  1  0  0  0  0
 36 35  2  0  0  0  0
 37 36  1  0  0  0  0
 38 37  1  0  0  0  0
 39 40  1  0  0  0  0
 39 37  2  0  0  0  0
 40 34  1  0  0  0  0
 41 40  2  0  0  0  0
 42 38  1  0  0  0  0
 43 38  1  0  0  0  0
M  END
>  <minimizedAffinity>
-4.21303082

>  <minimizedRMSD>
10.5502281

$$$$
