
 OpenBabel03272502063D

 40 43  0  0  0  0  0  0  0  0999 V2000
   34.0870   30.3950   47.7290 F   0  0  0  0  0  0  0  0  0  0  0  0
   34.5150   29.9480   46.5040 C   0  0  0  0  0  0  0  0  0  0  0  0
   33.6590   29.3470   45.5950 C   0  0  0  0  0  0  0  0  0  0  0  0
   34.1580   28.9410   44.3790 C   0  0  0  0  0  0  0  0  0  0  0  0
   35.5070   29.1300   44.0610 C   0  0  0  0  0  0  0  0  0  0  0  0
   36.3080   29.7350   45.0130 C   0  0  0  0  0  0  0  0  0  0  0  0
   35.8630   30.1460   46.2130 C   0  0  0  0  0  0  0  0  0  0  0  0
   33.4570   28.4840   43.7170 H   0  0  0  0  0  0  0  0  0  0  0  0
   35.8580   28.7960   43.0940 H   0  0  0  0  0  0  0  0  0  0  0  0
   37.3340   29.8430   44.6900 H   0  0  0  0  0  0  0  0  0  0  0  0
   32.0620   28.3310   47.0880 C   0  0  0  0  0  0  0  0  0  0  0  0
   32.2990   29.2110   46.0420 C   0  0  0  0  0  0  0  0  0  0  0  0
   31.2170   29.9010   45.5160 C   0  0  0  0  0  0  0  0  0  0  0  0
   29.9730   29.7080   46.0260 N   0  0  0  0  0  0  0  0  0  0  0  0
   29.7870   28.8510   47.0370 C   0  0  0  0  0  0  0  0  0  0  0  0
   30.7980   28.1760   47.5610 N   0  0  0  0  0  0  0  0  0  0  0  0
   32.8530   27.7530   47.5540 H   0  0  0  0  0  0  0  0  0  0  0  0
   31.4190   30.5870   44.6950 H   0  0  0  0  0  0  0  0  0  0  0  0
   28.4640   28.6730   47.5520 N   0  0  0  0  0  0  0  0  0  0  0  0
   28.2290   27.4650   48.0970 C   0  0  0  0  0  3  0  0  0  0  0  0
   26.9470   27.2520   48.6120 C   0  0  0  0  0  3  0  0  0  0  0  0
   26.0580   28.3220   48.4960 C   0  0  0  0  0  0  0  0  0  0  0  0
   24.7290   28.1930   48.9930 N   0  0  0  0  0  0  0  0  0  0  0  0
   26.3750   29.4970   47.9360 N   0  0  0  0  0  0  0  0  0  0  0  0
   27.5910   29.6920   47.4510 C   0  0  0  0  0  0  0  0  0  0  0  0
   27.9800   30.7580   46.9080 O   0  0  0  0  0  0  0  0  0  0  0  0
   24.0350   28.1030   49.7670 H   0  0  0  0  0  0  0  0  0  0  0  0
   24.0300   28.1710   48.2060 H   0  0  0  0  0  0  0  0  0  0  0  0
   37.9000   32.2720   45.1450 Br  0  0  0  0  0  0  0  0  0  0  0  0
   37.7050   31.7320   46.9620 C   0  0  0  0  0  0  0  0  0  0  0  0
   36.7620   30.7610   47.1690 C   0  0  0  0  0  0  0  0  0  0  0  0
   36.5950   30.2800   48.4780 C   0  0  0  0  0  0  0  0  0  0  0  0
   37.3470   30.7680   49.5030 C   0  0  0  0  0  0  0  0  0  0  0  0
   38.2790   31.7490   49.2290 C   0  0  0  0  0  0  0  0  0  0  0  0
   38.4720   32.2520   47.9320 C   0  0  0  0  0  0  0  0  0  0  0  0
   35.8780   29.5140   48.7390 H   0  0  0  0  0  0  0  0  0  0  0  0
   37.2470   30.4210   50.5210 H   0  0  0  0  0  0  0  0  0  0  0  0
   38.8990   32.1680   50.0110 H   0  0  0  0  0  0  0  0  0  0  0  0
   39.3630   33.2170   47.5790 O   0  0  0  0  0  0  0  0  0  0  0  0
   39.1010   34.1920   47.6880 H   0  0  0  0  0  0  0  0  0  0  0  0
  2  1  1  0  0  0  0
  3 12  1  0  0  0  0
  3  2  2  0  0  0  0
  4  3  1  0  0  0  0
  5  4  2  0  0  0  0
  5  6  1  0  0  0  0
  6  7  2  0  0  0  0
  7  2  1  0  0  0  0
  7 31  1  0  0  0  0
  8  4  1  0  0  0  0
  9  5  1  0  0  0  0
 10  6  1  0  0  0  0
 11 17  1  0  0  0  0
 11 16  1  0  0  0  0
 12 11  2  0  0  0  0
 13 14  2  0  0  0  0
 13 12  1  0  0  0  0
 14 15  1  0  0  0  0
 15 19  1  0  0  0  0
 15 16  2  0  0  0  0
 18 13  1  0  0  0  0
 19 20  1  0  0  0  0
 20 21  2  0  0  0  0
 22 21  1  0  0  0  0
 22 23  1  0  0  0  0
 23 27  1  0  0  0  0
 24 22  2  0  0  0  0
 25 19  1  0  0  0  0
 25 24  1  0  0  0  0
 26 25  2  0  0  0  0
 28 23  1  0  0  0  0
 29 30  1  0  0  0  0
 30 31  2  0  0  0  0
 30 35  1  0  0  0  0
 31 32  1  0  0  0  0
 32 36  1  0  0  0  0
 32 33  2  0  0  0  0
 33 37  1  0  0  0  0
 34 33  1  0  0  0  0
 34 38  1  0  0  0  0
 35 34  2  0  0  0  0
 39 40  1  0  0  0  0
 39 35  1  0  0  0  0
M  END
>  <minimizedAffinity>
-7.90649033

>  <minimizedRMSD>
0.30200848

$$$$
