REMARK  Name = 
REMARK  5 active torsions:
REMARK  status: ('A' for Active; 'I' for Inactive)
REMARK    1  A    between atoms: C_1  and  C_8
REMARK    2  A    between atoms: C_6  and  S_17
REMARK    3  A    between atoms: C_9  and  C_13
REMARK    4  A    between atoms: S_17  and  C_20
REMARK    5  A    between atoms: C_24  and  N_34
REMARK                            x       y       z     vdW  Elec       q    Type
REMARK                         _______ _______ _______ _____ _____    ______ ____
ROOT
ATOM      1  C   UNL     1      34.107  28.754  45.876  0.00  0.00    +0.000 A 
ATOM      2  C   UNL     1      34.325  28.297  44.586  0.00  0.00    +0.000 A 
ATOM      3  C   UNL     1      35.324  28.773  43.739  0.00  0.00    +0.000 A 
ATOM      4  C   UNL     1      36.173  29.792  44.223  0.00  0.00    +0.000 A 
ATOM      5  C   UNL     1      35.939  30.233  45.509  0.00  0.00    +0.000 A 
ATOM      6  C   UNL     1      34.959  29.758  46.328  0.00  0.00    +0.000 A 
ATOM      7  H   UNL     1      33.679  27.502  44.179  0.00  0.00    +0.000 HD
ATOM      8  H   UNL     1      35.394  28.332  42.747  0.00  0.00    +0.000 HD
ATOM      9  H   UNL     1      36.896  30.077  43.492  0.00  0.00    +0.000 HD
ATOM     10  H   UNL     1      36.661  30.988  45.673  0.00  0.00    +0.000 HD
ENDROOT
BRANCH   1  12
ATOM     11  C   UNL     1      33.339  26.981  47.327  0.00  0.00    +0.000 A 
ATOM     12  C   UNL     1      33.028  28.147  46.601  0.00  0.00    +0.000 A 
ATOM     13  C   UNL     1      31.712  28.620  46.639  0.00  0.00    +0.000 A 
ATOM     14  N   UNL     1      30.796  27.932  47.373  0.00  0.00    +0.000 NA
ATOM     15  C   UNL     1      31.116  26.807  48.069  0.00  0.00    +0.000 A 
ATOM     16  N   UNL     1      32.392  26.334  48.042  0.00  0.00    +0.000 NA
ATOM     17  H   UNL     1      34.345  26.593  47.318  0.00  0.00    +0.000 HD
ATOM     18  H   UNL     1      30.364  26.284  48.642  0.00  0.00    +0.000 HD
BRANCH  13  19
ATOM     19  C   UNL     1      31.243  29.831  45.922  0.00  0.00    +0.000 C 
ATOM     20  F   UNL     1      29.877  30.041  46.202  0.00  0.00    +0.000 F 
ATOM     21  F   UNL     1      31.913  30.970  46.183  0.00  0.00    +0.000 F 
ATOM     22  F   UNL     1      31.263  29.604  44.545  0.00  0.00    +0.000 F 
ENDBRANCH  13  19
ENDBRANCH   1  12
BRANCH   6  23
ATOM     23  S   UNL     1      34.684  30.331  47.962  0.00  0.00    +0.000 S 
BRANCH  23  26
ATOM     24 CL   UNL     1      34.985  29.169  50.828  0.00  0.00    +0.000 Cl
ATOM     25  C   UNL     1      36.256  30.137  50.119  0.00  0.00    +0.000 A 
ATOM     26  C   UNL     1      36.173  30.696  48.850  0.00  0.00    +0.000 A 
ATOM     27  C   UNL     1      37.194  31.453  48.357  0.00  0.00    +0.000 A 
ATOM     28  C   UNL     1      38.315  31.657  49.129  0.00  0.00    +0.000 A 
ATOM     29  C   UNL     1      38.410  31.102  50.403  0.00  0.00    +0.000 A 
ATOM     30  C   UNL     1      37.380  30.331  50.923  0.00  0.00    +0.000 A 
ATOM     31  H   UNL     1      37.209  31.948  47.423  0.00  0.00    +0.000 HD
ATOM     32  H   UNL     1      39.174  32.240  48.822  0.00  0.00    +0.000 HD
ATOM     33  H   UNL     1      39.283  31.259  51.010  0.00  0.00    +0.000 HD
BRANCH  30  34
ATOM     34  N   UNL     1      37.478  29.764  52.230  0.00  0.00    +0.000 N 
ATOM     35  C   UNL     1      37.629  28.433  52.382  0.00  0.00    +0.000 A 
ATOM     36  C   UNL     1      37.711  28.011  53.694  0.00  0.00    +0.000 A 
ATOM     37  C   UNL     1      37.648  28.856  54.788  0.00  0.00    +0.000 A 
ATOM     38  N   UNL     1      37.736  28.383  56.127  0.00  0.00    +0.000 N 
ATOM     39  N   UNL     1      37.496  30.171  54.516  0.00  0.00    +0.000 NA
ATOM     40  C   UNL     1      37.409  30.646  53.245  0.00  0.00    +0.000 A 
ATOM     41  O   UNL     1      37.270  31.877  53.105  0.00  0.00    +0.000 OA
ATOM     42  H   UNL     1      38.762  28.577  56.252  0.00  0.00    +0.000 HD
ATOM     43  H   UNL     1      37.092  27.979  56.811  0.00  0.00    +0.000 HD
ENDBRANCH  30  34
ENDBRANCH  23  26
ENDBRANCH   6  23
TORSDOF 5
