
 OpenBabel03272504333D

 41 44  0  0  0  0  0  0  0  0999 V2000
   35.0930   29.5860   47.5980 C   0  0  0  0  0  0  0  0  0  0  0  0
   35.2760   30.0400   46.2940 C   0  0  0  0  0  0  0  0  0  0  0  0
   34.2630   29.9220   45.3690 C   0  0  0  0  0  0  0  0  0  0  0  0
   33.0920   29.3490   45.7840 N   0  0  0  0  0  0  0  0  0  0  0  0
   32.9420   28.9180   47.0550 C   0  0  0  0  0  0  0  0  0  0  0  0
   33.9340   29.0310   47.9680 N   0  0  0  0  0  0  0  0  0  0  0  0
   36.2230   30.4850   46.0220 H   0  0  0  0  0  0  0  0  0  0  0  0
   34.3750   30.2660   44.3420 H   0  0  0  0  0  0  0  0  0  0  0  0
   31.6720   28.3120   47.4630 C   0  0  0  0  0  0  0  0  0  0  0  0
   31.5680   27.6030   48.6260 C   0  0  0  0  0  0  0  0  0  0  0  0
   30.3860   27.0150   49.0500 C   0  0  0  0  0  0  0  0  0  0  0  0
   29.3270   27.1880   48.2290 N   0  0  0  0  0  0  0  0  0  0  0  0
   29.4190   27.8800   47.0870 C   0  0  0  0  0  0  0  0  0  0  0  0
   30.5860   28.4450   46.6960 N   0  0  0  0  0  0  0  0  0  0  0  0
   32.4190   27.4680   49.2790 H   0  0  0  0  0  0  0  0  0  0  0  0
   30.3100   26.4560   49.9720 H   0  0  0  0  0  0  0  0  0  0  0  0
   28.3520   28.1080   46.1700 N   0  0  0  0  0  0  0  0  0  0  0  0
   27.9430   29.3830   46.0510 C   0  0  0  0  0  3  0  0  0  0  0  0
   26.9100   29.5990   45.1600 C   0  0  0  0  0  3  0  0  0  0  0  0
   26.3990   28.5080   44.4850 C   0  0  0  0  0  0  0  0  0  0  0  0
   25.3380   28.6640   43.5550 N   0  0  0  0  0  0  0  0  0  0  0  0
   26.8730   27.2400   44.6630 N   0  0  0  0  0  0  0  0  0  0  0  0
   27.8770   27.0240   45.5280 C   0  0  0  0  0  0  0  0  0  0  0  0
   28.3680   25.8810   45.7480 O   0  0  0  0  0  0  0  0  0  0  0  0
   24.3410   28.7550   43.2590 H   0  0  0  0  0  0  0  0  0  0  0  0
   24.4500   28.6650   44.1390 H   0  0  0  0  0  0  0  0  0  0  0  0
   36.1100   29.6830   48.6030 N   0  0  0  0  0  0  0  0  0  0  0  0
   36.1040   28.8640   49.7930 C   0  0  0  0  0  0  0  0  0  0  0  0
   36.4030   29.5980   51.0690 C   0  0  0  0  0  0  0  0  0  0  0  0
   37.2320   30.7330   50.9850 N   0  0  0  0  0  0  0  0  0  0  0  0
   37.0300   31.5110   49.7670 C   0  0  0  0  0  0  0  0  0  0  0  0
   37.2310   30.5430   48.6120 C   0  0  0  0  0  0  0  0  0  0  0  0
   35.1430   28.3170   49.9190 H   0  0  0  0  0  0  0  0  0  0  0  0
   36.8940   28.0690   49.6470 H   0  0  0  0  0  0  0  0  0  0  0  0
   36.8550   28.8530   51.7610 H   0  0  0  0  0  0  0  0  0  0  0  0
   35.4320   29.8730   51.5580 H   0  0  0  0  0  0  0  0  0  0  0  0
   36.9720   31.3960   51.7780 H   0  0  0  0  0  0  0  0  0  0  0  0
   35.9990   31.9120   49.8110 H   0  0  0  0  0  0  0  0  0  0  0  0
   37.7700   32.3300   49.7500 H   0  0  0  0  0  0  0  0  0  0  0  0
   37.2900   31.1400   47.6920 H   0  0  0  0  0  0  0  0  0  0  0  0
   38.2030   30.0330   48.7910 H   0  0  0  0  0  0  0  0  0  0  0  0
  1  6  1  0  0  0  0
  1 27  1  0  0  0  0
  2  1  2  0  0  0  0
  3  4  2  0  0  0  0
  3  2  1  0  0  0  0
  4  5  1  0  0  0  0
  5  9  1  0  0  0  0
  5  6  2  0  0  0  0
  7  2  1  0  0  0  0
  8  3  1  0  0  0  0
  9 10  1  0  0  0  0
 10 11  2  0  0  0  0
 10 15  1  0  0  0  0
 11 16  1  0  0  0  0
 12 11  1  0  0  0  0
 13 12  2  0  0  0  0
 14 13  1  0  0  0  0
 14  9  2  0  0  0  0
 17 13  1  0  0  0  0
 18 17  1  0  0  0  0
 19 18  2  0  0  0  0
 20 22  2  0  0  0  0
 20 19  1  0  0  0  0
 21 26  1  0  0  0  0
 21 20  1  0  0  0  0
 22 23  1  0  0  0  0
 23 24  2  0  0  0  0
 23 17  1  0  0  0  0
 25 21  1  0  0  0  0
 27 32  1  0  0  0  0
 27 28  1  0  0  0  0
 28 33  1  0  0  0  0
 28 29  1  0  0  0  0
 29 36  1  0  0  0  0
 29 35  1  0  0  0  0
 30 29  1  0  0  0  0
 30 37  1  0  0  0  0
 31 38  1  0  0  0  0
 31 30  1  0  0  0  0
 32 41  1  0  0  0  0
 32 31  1  0  0  0  0
 34 28  1  0  0  0  0
 39 31  1  0  0  0  0
 40 32  1  0  0  0  0
M  END
>  <minimizedAffinity>
-5.760921

>  <minimizedRMSD>
0.524059772

$$$$
