
 OpenBabel03272504343D

 41 44  0  0  0  0  0  0  0  0999 V2000
   38.9300   25.1520   35.3210 C   0  0  0  0  0  0  0  0  0  0  0  0
   40.2140   25.3780   34.8300 C   0  0  0  0  0  0  0  0  0  0  0  0
   40.4420   26.3860   33.9200 C   0  0  0  0  0  0  0  0  0  0  0  0
   39.3680   27.1380   33.5290 N   0  0  0  0  0  0  0  0  0  0  0  0
   38.1350   26.8970   34.0220 C   0  0  0  0  0  0  0  0  0  0  0  0
   37.9050   25.9080   34.9160 N   0  0  0  0  0  0  0  0  0  0  0  0
   41.0250   24.7510   35.1750 H   0  0  0  0  0  0  0  0  0  0  0  0
   41.4330   26.5870   33.5170 H   0  0  0  0  0  0  0  0  0  0  0  0
   37.0100   27.7270   33.5810 C   0  0  0  0  0  0  0  0  0  0  0  0
   36.4600   27.5710   32.3410 C   0  0  0  0  0  0  0  0  0  0  0  0
   35.3940   28.3320   31.8850 C   0  0  0  0  0  0  0  0  0  0  0  0
   34.9280   29.2530   32.7560 N   0  0  0  0  0  0  0  0  0  0  0  0
   35.4610   29.4150   33.9730 C   0  0  0  0  0  0  0  0  0  0  0  0
   36.5010   28.6570   34.3940 N   0  0  0  0  0  0  0  0  0  0  0  0
   36.8370   26.8310   31.6480 H   0  0  0  0  0  0  0  0  0  0  0  0
   34.9620   28.2040   30.9030 H   0  0  0  0  0  0  0  0  0  0  0  0
   35.0260   30.3600   34.9480 N   0  0  0  0  0  0  0  0  0  0  0  0
   35.8820   31.3630   35.2120 C   0  0  0  0  0  3  0  0  0  0  0  0
   35.4560   32.2780   36.1560 C   0  0  0  0  0  3  0  0  0  0  0  0
   34.2180   32.0850   36.7320 C   0  0  0  0  0  0  0  0  0  0  0  0
   33.7230   32.9890   37.7090 N   0  0  0  0  0  0  0  0  0  0  0  0
   33.4070   31.0350   36.4080 N   0  0  0  0  0  0  0  0  0  0  0  0
   33.8150   30.1430   35.4900 C   0  0  0  0  0  0  0  0  0  0  0  0
   33.1220   29.1480   35.1380 O   0  0  0  0  0  0  0  0  0  0  0  0
   33.6160   33.3850   38.6690 H   0  0  0  0  0  0  0  0  0  0  0  0
   34.1530   32.6740   38.6280 H   0  0  0  0  0  0  0  0  0  0  0  0
   38.6340   24.1190   36.2700 N   0  0  0  0  0  0  0  0  0  0  0  0
   37.7270   24.3210   37.3770 C   0  0  0  0  0  0  0  0  0  0  0  0
   38.2110   23.7890   38.6960 C   0  0  0  0  0  0  0  0  0  0  0  0
   39.0730   22.6760   38.6700 N   0  0  0  0  0  0  0  0  0  0  0  0
   40.0000   22.6860   37.5430 C   0  0  0  0  0  0  0  0  0  0  0  0
   39.1420   22.8010   36.2930 C   0  0  0  0  0  0  0  0  0  0  0  0
   37.4590   25.3930   37.5070 H   0  0  0  0  0  0  0  0  0  0  0  0
   36.7650   23.7930   37.1110 H   0  0  0  0  0  0  0  0  0  0  0  0
   37.3000   23.5450   39.2880 H   0  0  0  0  0  0  0  0  0  0  0  0
   38.6910   24.6270   39.2650 H   0  0  0  0  0  0  0  0  0  0  0  0
   39.6930   22.7140   39.5350 H   0  0  0  0  0  0  0  0  0  0  0  0
   40.6650   23.5600   37.6850 H   0  0  0  0  0  0  0  0  0  0  0  0
   40.5780   21.7460   37.5600 H   0  0  0  0  0  0  0  0  0  0  0  0
   39.7930   22.6030   35.4320 H   0  0  0  0  0  0  0  0  0  0  0  0
   38.3670   22.0090   36.3670 H   0  0  0  0  0  0  0  0  0  0  0  0
  1 27  1  0  0  0  0
  2  7  1  0  0  0  0
  2  1  2  0  0  0  0
  3  2  1  0  0  0  0
  4  3  2  0  0  0  0
  4  5  1  0  0  0  0
  5  6  2  0  0  0  0
  6  1  1  0  0  0  0
  8  3  1  0  0  0  0
  9  5  1  0  0  0  0
  9 14  1  0  0  0  0
 10  9  2  0  0  0  0
 11 10  1  0  0  0  0
 11 12  2  0  0  0  0
 12 13  1  0  0  0  0
 13 14  2  0  0  0  0
 13 17  1  0  0  0  0
 15 10  1  0  0  0  0
 16 11  1  0  0  0  0
 17 18  1  0  0  0  0
 17 23  1  0  0  0  0
 18 19  2  0  0  0  0
 19 20  1  0  0  0  0
 20 21  1  0  0  0  0
 21 26  1  0  0  0  0
 21 25  1  0  0  0  0
 22 20  2  0  0  0  0
 23 22  1  0  0  0  0
 24 23  2  0  0  0  0
 27 32  1  0  0  0  0
 27 28  1  0  0  0  0
 28 33  1  0  0  0  0
 28 29  1  0  0  0  0
 29 36  1  0  0  0  0
 29 35  1  0  0  0  0
 30 29  1  0  0  0  0
 30 37  1  0  0  0  0
 31 39  1  0  0  0  0
 31 38  1  0  0  0  0
 31 30  1  0  0  0  0
 32 41  1  0  0  0  0
 32 31  1  0  0  0  0
 34 28  1  0  0  0  0
 40 32  1  0  0  0  0
M  END
>  <minimizedAffinity>
-7.0266757

$$$$

 OpenBabel03272504343D

 41 44  0  0  0  0  0  0  0  0999 V2000
   37.9690   24.7440   34.2720 C   0  0  0  0  0  0  0  0  0  0  0  0
   37.8790   23.7270   33.3260 C   0  0  0  0  0  0  0  0  0  0  0  0
   37.3250   23.9740   32.0900 C   0  0  0  0  0  0  0  0  0  0  0  0
   36.8760   25.2420   31.8420 N   0  0  0  0  0  0  0  0  0  0  0  0
   36.9770   26.2100   32.7780 C   0  0  0  0  0  0  0  0  0  0  0  0
   37.5200   25.9720   33.9940 N   0  0  0  0  0  0  0  0  0  0  0  0
   38.2510   22.7420   33.5780 H   0  0  0  0  0  0  0  0  0  0  0  0
   37.2400   23.2000   31.3300 H   0  0  0  0  0  0  0  0  0  0  0  0
   36.4870   27.5570   32.4740 C   0  0  0  0  0  0  0  0  0  0  0  0
   36.4770   28.0340   31.1950 C   0  0  0  0  0  0  0  0  0  0  0  0
   36.0200   29.3010   30.8630 C   0  0  0  0  0  0  0  0  0  0  0  0
   35.5800   30.0460   31.9000 N   0  0  0  0  0  0  0  0  0  0  0  0
   35.5870   29.5890   33.1580 C   0  0  0  0  0  0  0  0  0  0  0  0
   36.0380   28.3460   33.4540 N   0  0  0  0  0  0  0  0  0  0  0  0
   36.8300   27.4320   30.3680 H   0  0  0  0  0  0  0  0  0  0  0  0
   36.0140   29.6730   29.8480 H   0  0  0  0  0  0  0  0  0  0  0  0
   35.1400   30.3100   34.3030 N   0  0  0  0  0  0  0  0  0  0  0  0
   36.0960   30.6710   35.1760 C   0  0  0  0  0  3  0  0  0  0  0  0
   35.6580   31.3720   36.2840 C   0  0  0  0  0  3  0  0  0  0  0  0
   34.3080   31.6320   36.3940 C   0  0  0  0  0  0  0  0  0  0  0  0
   33.7940   32.3470   37.5080 N   0  0  0  0  0  0  0  0  0  0  0  0
   33.3980   31.2270   35.4590 N   0  0  0  0  0  0  0  0  0  0  0  0
   33.8180   30.5470   34.3790 C   0  0  0  0  0  0  0  0  0  0  0  0
   33.0380   30.1400   33.4730 O   0  0  0  0  0  0  0  0  0  0  0  0
   33.4440   32.4590   38.4850 H   0  0  0  0  0  0  0  0  0  0  0  0
   33.6740   31.6220   38.2770 H   0  0  0  0  0  0  0  0  0  0  0  0
   38.5360   24.5450   35.5740 N   0  0  0  0  0  0  0  0  0  0  0  0
   39.8000   23.8740   35.7740 C   0  0  0  0  0  0  0  0  0  0  0  0
   39.8130   22.8670   36.8880 C   0  0  0  0  0  0  0  0  0  0  0  0
   38.9390   23.0850   37.9700 N   0  0  0  0  0  0  0  0  0  0  0  0
   37.6600   23.6680   37.5750 C   0  0  0  0  0  0  0  0  0  0  0  0
   37.9960   24.9430   36.8170 C   0  0  0  0  0  0  0  0  0  0  0  0
   40.1610   23.3780   34.8460 H   0  0  0  0  0  0  0  0  0  0  0  0
   40.5610   24.6750   36.0100 H   0  0  0  0  0  0  0  0  0  0  0  0
   40.8620   22.8200   37.2560 H   0  0  0  0  0  0  0  0  0  0  0  0
   39.6300   21.8500   36.4510 H   0  0  0  0  0  0  0  0  0  0  0  0
   38.6890   22.1400   38.3930 H   0  0  0  0  0  0  0  0  0  0  0  0
   37.1490   22.9180   36.9410 H   0  0  0  0  0  0  0  0  0  0  0  0
   37.0750   23.8750   38.4880 H   0  0  0  0  0  0  0  0  0  0  0  0
   37.0600   25.5030   36.6910 H   0  0  0  0  0  0  0  0  0  0  0  0
   38.6940   25.5200   37.4610 H   0  0  0  0  0  0  0  0  0  0  0  0
  1 27  1  0  0  0  0
  2  7  1  0  0  0  0
  2  1  2  0  0  0  0
  3  2  1  0  0  0  0
  4  3  2  0  0  0  0
  4  5  1  0  0  0  0
  5  6  2  0  0  0  0
  6  1  1  0  0  0  0
  8  3  1  0  0  0  0
  9  5  1  0  0  0  0
  9 14  1  0  0  0  0
 10  9  2  0  0  0  0
 11 10  1  0  0  0  0
 11 12  2  0  0  0  0
 12 13  1  0  0  0  0
 13 14  2  0  0  0  0
 13 17  1  0  0  0  0
 15 10  1  0  0  0  0
 16 11  1  0  0  0  0
 17 23  1  0  0  0  0
 17 18  1  0  0  0  0
 18 19  2  0  0  0  0
 19 20  1  0  0  0  0
 20 21  1  0  0  0  0
 21 26  1  0  0  0  0
 21 25  1  0  0  0  0
 22 20  2  0  0  0  0
 23 22  1  0  0  0  0
 24 23  2  0  0  0  0
 27 28  1  0  0  0  0
 27 32  1  0  0  0  0
 28 34  1  0  0  0  0
 28 29  1  0  0  0  0
 29 35  1  0  0  0  0
 29 30  1  0  0  0  0
 30 37  1  0  0  0  0
 31 30  1  0  0  0  0
 31 39  1  0  0  0  0
 32 41  1  0  0  0  0
 32 31  1  0  0  0  0
 33 28  1  0  0  0  0
 36 29  1  0  0  0  0
 38 31  1  0  0  0  0
 40 32  1  0  0  0  0
M  END
>  <minimizedAffinity>
-6.46756649

$$$$

 OpenBabel03272504343D

 41 44  0  0  0  0  0  0  0  0999 V2000
   39.3810   23.4200   34.5460 C   0  0  0  0  0  0  0  0  0  0  0  0
   40.6410   23.4580   33.9560 C   0  0  0  0  0  0  0  0  0  0  0  0
   40.8120   24.0350   32.7180 C   0  0  0  0  0  0  0  0  0  0  0  0
   39.7060   24.5590   32.1070 N   0  0  0  0  0  0  0  0  0  0  0  0
   38.4950   24.5090   32.7020 C   0  0  0  0  0  0  0  0  0  0  0  0
   38.3220   23.9420   33.9190 N   0  0  0  0  0  0  0  0  0  0  0  0
   41.4810   23.0280   34.4850 H   0  0  0  0  0  0  0  0  0  0  0  0
   41.7840   24.0800   32.2300 H   0  0  0  0  0  0  0  0  0  0  0  0
   37.3340   25.0830   32.0180 C   0  0  0  0  0  0  0  0  0  0  0  0
   36.2190   24.3340   31.7670 C   0  0  0  0  0  0  0  0  0  0  0  0
   35.0980   24.8370   31.1250 C   0  0  0  0  0  0  0  0  0  0  0  0
   35.1780   26.1340   30.7560 N   0  0  0  0  0  0  0  0  0  0  0  0
   36.2650   26.8770   30.9960 C   0  0  0  0  0  0  0  0  0  0  0  0
   37.3470   26.3600   31.6260 N   0  0  0  0  0  0  0  0  0  0  0  0
   36.1610   23.2950   32.0650 H   0  0  0  0  0  0  0  0  0  0  0  0
   34.2190   24.2400   30.9290 H   0  0  0  0  0  0  0  0  0  0  0  0
   36.4260   28.2480   30.6410 N   0  0  0  0  0  0  0  0  0  0  0  0
   37.3300   28.5000   29.6790 C   0  0  0  0  0  3  0  0  0  0  0  0
   37.4820   29.8300   29.3360 C   0  0  0  0  0  3  0  0  0  0  0  0
   36.7090   30.7610   29.9990 C   0  0  0  0  0  0  0  0  0  0  0  0
   36.8180   32.1440   29.6940 N   0  0  0  0  0  0  0  0  0  0  0  0
   35.8110   30.4210   30.9690 N   0  0  0  0  0  0  0  0  0  0  0  0
   35.6580   29.1290   31.3060 C   0  0  0  0  0  0  0  0  0  0  0  0
   34.8490   28.7370   32.1920 O   0  0  0  0  0  0  0  0  0  0  0  0
   37.2330   33.1000   29.7540 H   0  0  0  0  0  0  0  0  0  0  0  0
   37.6480   32.4930   30.2590 H   0  0  0  0  0  0  0  0  0  0  0  0
   39.1430   22.8330   35.8310 N   0  0  0  0  0  0  0  0  0  0  0  0
   37.9520   23.1090   36.6020 C   0  0  0  0  0  0  0  0  0  0  0  0
   38.1890   23.3830   38.0590 C   0  0  0  0  0  0  0  0  0  0  0  0
   39.3050   22.7700   38.6610 N   0  0  0  0  0  0  0  0  0  0  0  0
   40.4610   22.6710   37.7760 C   0  0  0  0  0  0  0  0  0  0  0  0
   39.9780   21.9360   36.5350 C   0  0  0  0  0  0  0  0  0  0  0  0
   37.3660   23.9540   36.1750 H   0  0  0  0  0  0  0  0  0  0  0  0
   37.2890   22.1990   36.5140 H   0  0  0  0  0  0  0  0  0  0  0  0
   37.2600   23.0780   38.5900 H   0  0  0  0  0  0  0  0  0  0  0  0
   38.2390   24.4930   38.2100 H   0  0  0  0  0  0  0  0  0  0  0  0
   39.6300   23.3870   39.4670 H   0  0  0  0  0  0  0  0  0  0  0  0
   40.7860   23.7060   37.5570 H   0  0  0  0  0  0  0  0  0  0  0  0
   41.2540   22.1120   38.3010 H   0  0  0  0  0  0  0  0  0  0  0  0
   40.8670   21.6670   35.9490 H   0  0  0  0  0  0  0  0  0  0  0  0
   39.4700   21.0140   36.8900 H   0  0  0  0  0  0  0  0  0  0  0  0
  1 27  1  0  0  0  0
  2  7  1  0  0  0  0
  2  1  1  0  0  0  0
  3  2  2  0  0  0  0
  4  5  2  0  0  0  0
  4  3  1  0  0  0  0
  5  6  1  0  0  0  0
  6  1  2  0  0  0  0
  8  3  1  0  0  0  0
  9  5  1  0  0  0  0
 10  9  1  0  0  0  0
 10 15  1  0  0  0  0
 11 10  2  0  0  0  0
 12 13  2  0  0  0  0
 12 11  1  0  0  0  0
 13 14  1  0  0  0  0
 14  9  2  0  0  0  0
 16 11  1  0  0  0  0
 17 13  1  0  0  0  0
 17 23  1  0  0  0  0
 18 17  1  0  0  0  0
 19 18  2  0  0  0  0
 19 20  1  0  0  0  0
 20 22  2  0  0  0  0
 21 25  1  0  0  0  0
 21 20  1  0  0  0  0
 21 26  1  0  0  0  0
 22 23  1  0  0  0  0
 23 24  2  0  0  0  0
 27 32  1  0  0  0  0
 27 28  1  0  0  0  0
 28 29  1  0  0  0  0
 29 36  1  0  0  0  0
 29 35  1  0  0  0  0
 29 30  1  0  0  0  0
 30 37  1  0  0  0  0
 31 39  1  0  0  0  0
 31 30  1  0  0  0  0
 32 41  1  0  0  0  0
 32 31  1  0  0  0  0
 33 28  1  0  0  0  0
 34 28  1  0  0  0  0
 38 31  1  0  0  0  0
 40 32  1  0  0  0  0
M  END
>  <minimizedAffinity>
-6.28430939

$$$$

 OpenBabel03272504343D

 41 44  0  0  0  0  0  0  0  0999 V2000
   37.8630   24.0680   33.4300 C   0  0  0  0  0  0  0  0  0  0  0  0
   38.8790   24.1820   34.3750 C   0  0  0  0  0  0  0  0  0  0  0  0
   39.2030   25.4130   34.9010 C   0  0  0  0  0  0  0  0  0  0  0  0
   38.4920   26.4950   34.4600 N   0  0  0  0  0  0  0  0  0  0  0  0
   37.5110   26.3540   33.5430 C   0  0  0  0  0  0  0  0  0  0  0  0
   37.1900   25.1480   33.0220 N   0  0  0  0  0  0  0  0  0  0  0  0
   39.4080   23.2920   34.6870 H   0  0  0  0  0  0  0  0  0  0  0  0
   39.9920   25.5350   35.6410 H   0  0  0  0  0  0  0  0  0  0  0  0
   36.7700   27.5370   33.0960 C   0  0  0  0  0  0  0  0  0  0  0  0
   36.6080   27.8100   31.7680 C   0  0  0  0  0  0  0  0  0  0  0  0
   35.9130   28.9160   31.3020 C   0  0  0  0  0  0  0  0  0  0  0  0
   35.3990   29.7200   32.2580 N   0  0  0  0  0  0  0  0  0  0  0  0
   35.5540   29.4630   33.5620 C   0  0  0  0  0  0  0  0  0  0  0  0
   36.2370   28.3740   33.9910 N   0  0  0  0  0  0  0  0  0  0  0  0
   37.0210   27.1610   31.0070 H   0  0  0  0  0  0  0  0  0  0  0  0
   35.7870   29.1260   30.2500 H   0  0  0  0  0  0  0  0  0  0  0  0
   35.0430   30.2580   34.6290 N   0  0  0  0  0  0  0  0  0  0  0  0
   35.9620   30.9040   35.3680 C   0  0  0  0  0  3  0  0  0  0  0  0
   35.4630   31.6760   36.4000 C   0  0  0  0  0  3  0  0  0  0  0  0
   34.0950   31.7140   36.5770 C   0  0  0  0  0  0  0  0  0  0  0  0
   33.5200   32.4880   37.6190 N   0  0  0  0  0  0  0  0  0  0  0  0
   33.2270   31.0250   35.7800 N   0  0  0  0  0  0  0  0  0  0  0  0
   33.7060   30.2730   34.7740 C   0  0  0  0  0  0  0  0  0  0  0  0
   32.9680   29.6080   33.9950 O   0  0  0  0  0  0  0  0  0  0  0  0
   33.2060   32.6810   38.5960 H   0  0  0  0  0  0  0  0  0  0  0  0
   33.5720   31.8750   38.4870 H   0  0  0  0  0  0  0  0  0  0  0  0
   37.4830   22.8140   32.8480 N   0  0  0  0  0  0  0  0  0  0  0  0
   36.9630   22.7090   31.5040 C   0  0  0  0  0  0  0  0  0  0  0  0
   35.7620   21.8200   31.3560 C   0  0  0  0  0  0  0  0  0  0  0  0
   35.6340   20.7470   32.2580 N   0  0  0  0  0  0  0  0  0  0  0  0
   36.1060   21.0600   33.6040 C   0  0  0  0  0  0  0  0  0  0  0  0
   37.5410   21.5350   33.4460 C   0  0  0  0  0  0  0  0  0  0  0  0
   36.7200   23.7050   31.0720 H   0  0  0  0  0  0  0  0  0  0  0  0
   37.7960   22.2920   30.8640 H   0  0  0  0  0  0  0  0  0  0  0  0
   35.7840   21.4340   30.3130 H   0  0  0  0  0  0  0  0  0  0  0  0
   34.8400   22.4580   31.3920 H   0  0  0  0  0  0  0  0  0  0  0  0
   34.5970   20.5310   32.3760 H   0  0  0  0  0  0  0  0  0  0  0  0
   35.4380   21.8490   34.0010 H   0  0  0  0  0  0  0  0  0  0  0  0
   36.0400   20.1450   34.2170 H   0  0  0  0  0  0  0  0  0  0  0  0
   37.9820   21.5780   34.4510 H   0  0  0  0  0  0  0  0  0  0  0  0
   38.0650   20.7650   32.8390 H   0  0  0  0  0  0  0  0  0  0  0  0
  1  2  1  0  0  0  0
  2  7  1  0  0  0  0
  2  3  2  0  0  0  0
  3  8  1  0  0  0  0
  4  3  1  0  0  0  0
  5  4  2  0  0  0  0
  6  1  2  0  0  0  0
  6  5  1  0  0  0  0
  9  5  1  0  0  0  0
  9 14  1  0  0  0  0
 10  9  2  0  0  0  0
 11 10  1  0  0  0  0
 11 12  2  0  0  0  0
 12 13  1  0  0  0  0
 13 14  2  0  0  0  0
 13 17  1  0  0  0  0
 15 10  1  0  0  0  0
 16 11  1  0  0  0  0
 17 23  1  0  0  0  0
 17 18  1  0  0  0  0
 18 19  2  0  0  0  0
 19 20  1  0  0  0  0
 20 21  1  0  0  0  0
 21 26  1  0  0  0  0
 21 25  1  0  0  0  0
 22 20  2  0  0  0  0
 23 22  1  0  0  0  0
 24 23  2  0  0  0  0
 27  1  1  0  0  0  0
 27 32  1  0  0  0  0
 28 27  1  0  0  0  0
 29 36  1  0  0  0  0
 29 28  1  0  0  0  0
 29 30  1  0  0  0  0
 30 37  1  0  0  0  0
 30 31  1  0  0  0  0
 31 38  1  0  0  0  0
 31 39  1  0  0  0  0
 32 31  1  0  0  0  0
 32 40  1  0  0  0  0
 33 28  1  0  0  0  0
 34 28  1  0  0  0  0
 35 29  1  0  0  0  0
 41 32  1  0  0  0  0
M  END
>  <minimizedAffinity>
-6.13082409

$$$$

 OpenBabel03272504343D

 41 44  0  0  0  0  0  0  0  0999 V2000
   33.2580   30.0780   35.1360 C   0  0  0  0  0  0  0  0  0  0  0  0
   33.8790   31.1130   35.8300 C   0  0  0  0  0  0  0  0  0  0  0  0
   35.0720   31.6340   35.3800 C   0  0  0  0  0  0  0  0  0  0  0  0
   35.6060   31.0950   34.2410 N   0  0  0  0  0  0  0  0  0  0  0  0
   34.9820   30.0920   33.5890 C   0  0  0  0  0  0  0  0  0  0  0  0
   33.8100   29.5770   34.0270 N   0  0  0  0  0  0  0  0  0  0  0  0
   33.4110   31.5000   36.7250 H   0  0  0  0  0  0  0  0  0  0  0  0
   35.5830   32.4420   35.9000 H   0  0  0  0  0  0  0  0  0  0  0  0
   35.5840   29.5420   32.3710 C   0  0  0  0  0  0  0  0  0  0  0  0
   35.9940   30.3570   31.3550 C   0  0  0  0  0  0  0  0  0  0  0  0
   36.5700   29.8800   30.1870 C   0  0  0  0  0  0  0  0  0  0  0  0
   36.7010   28.5370   30.1150 N   0  0  0  0  0  0  0  0  0  0  0  0
   36.3010   27.7290   31.1040 C   0  0  0  0  0  0  0  0  0  0  0  0
   35.7420   28.2220   32.2360 N   0  0  0  0  0  0  0  0  0  0  0  0
   35.8870   31.4320   31.4190 H   0  0  0  0  0  0  0  0  0  0  0  0
   36.8930   30.5290   29.3870 H   0  0  0  0  0  0  0  0  0  0  0  0
   36.4050   26.3080   31.1060 N   0  0  0  0  0  0  0  0  0  0  0  0
   35.2420   25.6360   31.0370 C   0  0  0  0  0  3  0  0  0  0  0  0
   35.3480   24.2580   31.0360 C   0  0  0  0  0  3  0  0  0  0  0  0
   36.6110   23.7060   31.1060 C   0  0  0  0  0  0  0  0  0  0  0  0
   36.7870   22.2970   31.1090 N   0  0  0  0  0  0  0  0  0  0  0  0
   37.7460   24.4620   31.1740 N   0  0  0  0  0  0  0  0  0  0  0  0
   37.6500   25.8020   31.1740 C   0  0  0  0  0  0  0  0  0  0  0  0
   38.6520   26.5670   31.2350 O   0  0  0  0  0  0  0  0  0  0  0  0
   36.8300   21.3460   31.5390 H   0  0  0  0  0  0  0  0  0  0  0  0
   36.6470   21.9980   32.1200 H   0  0  0  0  0  0  0  0  0  0  0  0
   32.0170   29.4980   35.5570 N   0  0  0  0  0  0  0  0  0  0  0  0
   30.7470   30.1620   35.3670 C   0  0  0  0  0  0  0  0  0  0  0  0
   29.8310   30.1290   36.5560 C   0  0  0  0  0  0  0  0  0  0  0  0
   29.9400   29.0310   37.4300 N   0  0  0  0  0  0  0  0  0  0  0  0
   31.3100   28.5540   37.5950 C   0  0  0  0  0  0  0  0  0  0  0  0
   31.8220   28.2530   36.1960 C   0  0  0  0  0  0  0  0  0  0  0  0
   30.8730   31.2200   35.0480 H   0  0  0  0  0  0  0  0  0  0  0  0
   30.2320   29.6400   34.5070 H   0  0  0  0  0  0  0  0  0  0  0  0
   28.7950   30.1890   36.1550 H   0  0  0  0  0  0  0  0  0  0  0  0
   29.9570   31.0840   37.1300 H   0  0  0  0  0  0  0  0  0  0  0  0
   29.6420   29.3470   38.4020 H   0  0  0  0  0  0  0  0  0  0  0  0
   31.8740   29.3690   38.0880 H   0  0  0  0  0  0  0  0  0  0  0  0
   31.2900   27.6510   38.2290 H   0  0  0  0  0  0  0  0  0  0  0  0
   32.7660   27.7030   36.3050 H   0  0  0  0  0  0  0  0  0  0  0  0
   31.0620   27.6010   35.7140 H   0  0  0  0  0  0  0  0  0  0  0  0
  1 27  1  0  0  0  0
  1  2  1  0  0  0  0
  2  7  1  0  0  0  0
  3  2  2  0  0  0  0
  3  8  1  0  0  0  0
  4  3  1  0  0  0  0
  5  6  1  0  0  0  0
  5  4  2  0  0  0  0
  6  1  2  0  0  0  0
  9  5  1  0  0  0  0
 10 15  1  0  0  0  0
 10  9  2  0  0  0  0
 11 10  1  0  0  0  0
 12 11  2  0  0  0  0
 12 13  1  0  0  0  0
 13 17  1  0  0  0  0
 13 14  2  0  0  0  0
 14  9  1  0  0  0  0
 16 11  1  0  0  0  0
 17 23  1  0  0  0  0
 18 17  1  0  0  0  0
 19 18  2  0  0  0  0
 19 20  1  0  0  0  0
 20 21  1  0  0  0  0
 20 22  2  0  0  0  0
 21 25  1  0  0  0  0
 21 26  1  0  0  0  0
 23 22  1  0  0  0  0
 23 24  2  0  0  0  0
 27 32  1  0  0  0  0
 28 27  1  0  0  0  0
 28 29  1  0  0  0  0
 29 36  1  0  0  0  0
 29 30  1  0  0  0  0
 30 31  1  0  0  0  0
 30 37  1  0  0  0  0
 31 38  1  0  0  0  0
 31 39  1  0  0  0  0
 32 40  1  0  0  0  0
 32 31  1  0  0  0  0
 33 28  1  0  0  0  0
 34 28  1  0  0  0  0
 35 29  1  0  0  0  0
 41 32  1  0  0  0  0
M  END
>  <minimizedAffinity>
-6.11375141

$$$$

 OpenBabel03272504343D

 41 44  0  0  0  0  0  0  0  0999 V2000
   33.4910   30.5670   34.9130 C   0  0  0  0  0  0  0  0  0  0  0  0
   32.1370   30.3870   34.6390 C   0  0  0  0  0  0  0  0  0  0  0  0
   31.7420   29.7060   33.5090 C   0  0  0  0  0  0  0  0  0  0  0  0
   32.7230   29.2250   32.6860 N   0  0  0  0  0  0  0  0  0  0  0  0
   34.0270   29.4150   32.9760 C   0  0  0  0  0  0  0  0  0  0  0  0
   34.4220   30.0830   34.0840 N   0  0  0  0  0  0  0  0  0  0  0  0
   31.4050   30.7890   35.3260 H   0  0  0  0  0  0  0  0  0  0  0  0
   30.6920   29.5490   33.2670 H   0  0  0  0  0  0  0  0  0  0  0  0
   35.0490   28.8830   32.0710 C   0  0  0  0  0  0  0  0  0  0  0  0
   35.7050   29.6940   31.1890 C   0  0  0  0  0  0  0  0  0  0  0  0
   36.6790   29.2330   30.3160 C   0  0  0  0  0  0  0  0  0  0  0  0
   36.9440   27.9110   30.3930 N   0  0  0  0  0  0  0  0  0  0  0  0
   36.3070   27.1070   31.2530 C   0  0  0  0  0  0  0  0  0  0  0  0
   35.3590   27.5830   32.0950 N   0  0  0  0  0  0  0  0  0  0  0  0
   35.4880   30.7530   31.1320 H   0  0  0  0  0  0  0  0  0  0  0  0
   37.1940   29.8800   29.6220 H   0  0  0  0  0  0  0  0  0  0  0  0
   36.5300   25.7060   31.3960 N   0  0  0  0  0  0  0  0  0  0  0  0
   35.5210   24.9110   30.9980 C   0  0  0  0  0  3  0  0  0  0  0  0
   35.7420   23.5540   31.1360 C   0  0  0  0  0  3  0  0  0  0  0  0
   36.9510   23.1440   31.6600 C   0  0  0  0  0  0  0  0  0  0  0  0
   37.2380   21.7640   31.8280 N   0  0  0  0  0  0  0  0  0  0  0  0
   37.9260   24.0200   32.0430 N   0  0  0  0  0  0  0  0  0  0  0  0
   37.7180   25.3410   31.9090 C   0  0  0  0  0  0  0  0  0  0  0  0
   38.5700   26.2120   32.2400 O   0  0  0  0  0  0  0  0  0  0  0  0
   37.2180   20.8420   32.3190 H   0  0  0  0  0  0  0  0  0  0  0  0
   36.7930   21.4940   32.7550 H   0  0  0  0  0  0  0  0  0  0  0  0
   33.9610   31.2660   36.0720 N   0  0  0  0  0  0  0  0  0  0  0  0
   33.0770   31.6830   37.1370 C   0  0  0  0  0  0  0  0  0  0  0  0
   33.2990   33.0840   37.6320 C   0  0  0  0  0  0  0  0  0  0  0  0
   34.6020   33.6070   37.5370 N   0  0  0  0  0  0  0  0  0  0  0  0
   35.3170   33.1720   36.3410 C   0  0  0  0  0  0  0  0  0  0  0  0
   35.2880   31.6520   36.3650 C   0  0  0  0  0  0  0  0  0  0  0  0
   32.0060   31.5730   36.8580 H   0  0  0  0  0  0  0  0  0  0  0  0
   33.2460   30.9710   37.9980 H   0  0  0  0  0  0  0  0  0  0  0  0
   32.9640   33.0980   38.6930 H   0  0  0  0  0  0  0  0  0  0  0  0
   32.5770   33.7650   37.1080 H   0  0  0  0  0  0  0  0  0  0  0  0
   34.5300   34.6660   37.4420 H   0  0  0  0  0  0  0  0  0  0  0  0
   34.7750   33.5940   35.4730 H   0  0  0  0  0  0  0  0  0  0  0  0
   36.3480   33.5640   36.3900 H   0  0  0  0  0  0  0  0  0  0  0  0
   35.9900   31.3010   35.5970 H   0  0  0  0  0  0  0  0  0  0  0  0
   35.6480   31.3440   37.3700 H   0  0  0  0  0  0  0  0  0  0  0  0
  1 27  1  0  0  0  0
  2  1  1  0  0  0  0
  2  7  1  0  0  0  0
  3  2  2  0  0  0  0
  4  5  2  0  0  0  0
  4  3  1  0  0  0  0
  5  6  1  0  0  0  0
  6  1  2  0  0  0  0
  8  3  1  0  0  0  0
  9 14  1  0  0  0  0
  9  5  1  0  0  0  0
 10  9  2  0  0  0  0
 11 12  2  0  0  0  0
 11 10  1  0  0  0  0
 12 13  1  0  0  0  0
 13 17  1  0  0  0  0
 13 14  2  0  0  0  0
 15 10  1  0  0  0  0
 16 11  1  0  0  0  0
 17 23  1  0  0  0  0
 18 19  2  0  0  0  0
 18 17  1  0  0  0  0
 19 20  1  0  0  0  0
 20 21  1  0  0  0  0
 20 22  2  0  0  0  0
 21 25  1  0  0  0  0
 21 26  1  0  0  0  0
 23 22  1  0  0  0  0
 23 24  2  0  0  0  0
 27 32  1  0  0  0  0
 27 28  1  0  0  0  0
 28 29  1  0  0  0  0
 28 34  1  0  0  0  0
 29 35  1  0  0  0  0
 30 29  1  0  0  0  0
 31 32  1  0  0  0  0
 31 39  1  0  0  0  0
 31 30  1  0  0  0  0
 32 41  1  0  0  0  0
 33 28  1  0  0  0  0
 36 29  1  0  0  0  0
 37 30  1  0  0  0  0
 38 31  1  0  0  0  0
 40 32  1  0  0  0  0
M  END
>  <minimizedAffinity>
-5.98594904

$$$$

 OpenBabel03272504343D

 41 44  0  0  0  0  0  0  0  0999 V2000
   36.1370   28.6810   32.0320 C   0  0  0  0  0  0  0  0  0  0  0  0
   37.0210   29.1790   31.0790 C   0  0  0  0  0  0  0  0  0  0  0  0
   37.9040   28.3350   30.4430 C   0  0  0  0  0  0  0  0  0  0  0  0
   37.8710   27.0110   30.7870 N   0  0  0  0  0  0  0  0  0  0  0  0
   37.0030   26.5560   31.7150 C   0  0  0  0  0  0  0  0  0  0  0  0
   36.1340   27.3810   32.3430 N   0  0  0  0  0  0  0  0  0  0  0  0
   37.0030   30.2350   30.8470 H   0  0  0  0  0  0  0  0  0  0  0  0
   38.6080   28.6930   29.6940 H   0  0  0  0  0  0  0  0  0  0  0  0
   36.9960   25.1310   32.0550 C   0  0  0  0  0  0  0  0  0  0  0  0
   36.3360   24.2220   31.2790 C   0  0  0  0  0  0  0  0  0  0  0  0
   36.3050   22.8650   31.5640 C   0  0  0  0  0  0  0  0  0  0  0  0
   36.9790   22.4920   32.6730 N   0  0  0  0  0  0  0  0  0  0  0  0
   37.6290   23.3740   33.4410 C   0  0  0  0  0  0  0  0  0  0  0  0
   37.6430   24.6950   33.1400 N   0  0  0  0  0  0  0  0  0  0  0  0
   35.7980   24.5270   30.3920 H   0  0  0  0  0  0  0  0  0  0  0  0
   35.7810   22.1500   30.9450 H   0  0  0  0  0  0  0  0  0  0  0  0
   38.3620   23.0620   34.6230 N   0  0  0  0  0  0  0  0  0  0  0  0
   37.8340   23.5130   35.7750 C   0  0  0  0  0  3  0  0  0  0  0  0
   38.5470   23.2060   36.9180 C   0  0  0  0  0  3  0  0  0  0  0  0
   39.7120   22.4800   36.7790 C   0  0  0  0  0  0  0  0  0  0  0  0
   40.4900   22.1320   37.9150 N   0  0  0  0  0  0  0  0  0  0  0  0
   40.1820   22.0590   35.5680 N   0  0  0  0  0  0  0  0  0  0  0  0
   39.4920   22.3530   34.4520 C   0  0  0  0  0  0  0  0  0  0  0  0
   39.8620   22.0000   33.2980 O   0  0  0  0  0  0  0  0  0  0  0  0
   41.2010   22.2900   38.6640 H   0  0  0  0  0  0  0  0  0  0  0  0
   41.0940   22.9840   38.1140 H   0  0  0  0  0  0  0  0  0  0  0  0
   35.1960   29.5110   32.7260 N   0  0  0  0  0  0  0  0  0  0  0  0
   35.1950   29.6470   34.1640 C   0  0  0  0  0  0  0  0  0  0  0  0
   33.8400   29.5710   34.8070 C   0  0  0  0  0  0  0  0  0  0  0  0
   32.7360   30.0020   34.0460 N   0  0  0  0  0  0  0  0  0  0  0  0
   32.8510   29.6860   32.6260 C   0  0  0  0  0  0  0  0  0  0  0  0
   34.1640   30.2960   32.1640 C   0  0  0  0  0  0  0  0  0  0  0  0
   35.8600   28.9010   34.6540 H   0  0  0  0  0  0  0  0  0  0  0  0
   35.6430   30.6580   34.3970 H   0  0  0  0  0  0  0  0  0  0  0  0
   33.9050   30.1640   35.7460 H   0  0  0  0  0  0  0  0  0  0  0  0
   33.6710   28.5200   35.1590 H   0  0  0  0  0  0  0  0  0  0  0  0
   31.8750   29.4690   34.3760 H   0  0  0  0  0  0  0  0  0  0  0  0
   32.8420   28.5820   32.5430 H   0  0  0  0  0  0  0  0  0  0  0  0
   31.9860   30.1260   32.1010 H   0  0  0  0  0  0  0  0  0  0  0  0
   34.1750   30.2530   31.0670 H   0  0  0  0  0  0  0  0  0  0  0  0
   34.1560   31.3560   32.4980 H   0  0  0  0  0  0  0  0  0  0  0  0
  1  6  1  0  0  0  0
  1 27  1  0  0  0  0
  2  1  2  0  0  0  0
  3  4  2  0  0  0  0
  3  2  1  0  0  0  0
  4  5  1  0  0  0  0
  5  9  1  0  0  0  0
  5  6  2  0  0  0  0
  7  2  1  0  0  0  0
  8  3  1  0  0  0  0
  9 14  1  0  0  0  0
 10 11  1  0  0  0  0
 10  9  2  0  0  0  0
 11 12  2  0  0  0  0
 12 13  1  0  0  0  0
 13 17  1  0  0  0  0
 14 13  2  0  0  0  0
 15 10  1  0  0  0  0
 16 11  1  0  0  0  0
 17 18  1  0  0  0  0
 18 19  2  0  0  0  0
 20 19  1  0  0  0  0
 20 21  1  0  0  0  0
 21 26  1  0  0  0  0
 21 25  1  0  0  0  0
 22 20  2  0  0  0  0
 23 17  1  0  0  0  0
 23 22  1  0  0  0  0
 24 23  2  0  0  0  0
 27 28  1  0  0  0  0
 28 34  1  0  0  0  0
 28 33  1  0  0  0  0
 28 29  1  0  0  0  0
 29 36  1  0  0  0  0
 29 35  1  0  0  0  0
 30 37  1  0  0  0  0
 30 29  1  0  0  0  0
 31 30  1  0  0  0  0
 32 41  1  0  0  0  0
 32 31  1  0  0  0  0
 32 27  1  0  0  0  0
 38 31  1  0  0  0  0
 39 31  1  0  0  0  0
 40 32  1  0  0  0  0
M  END
>  <minimizedAffinity>
-5.98478985

$$$$

 OpenBabel03272504343D

 41 44  0  0  0  0  0  0  0  0999 V2000
   39.5480   25.1630   35.1380 C   0  0  0  0  0  0  0  0  0  0  0  0
   40.8630   25.6200   35.1550 C   0  0  0  0  0  0  0  0  0  0  0  0
   41.2690   26.6010   34.2780 C   0  0  0  0  0  0  0  0  0  0  0  0
   40.3370   27.0930   33.4050 N   0  0  0  0  0  0  0  0  0  0  0  0
   39.0690   26.6310   33.4110 C   0  0  0  0  0  0  0  0  0  0  0  0
   38.6650   25.6680   34.2710 N   0  0  0  0  0  0  0  0  0  0  0  0
   41.5570   25.1950   35.8670 H   0  0  0  0  0  0  0  0  0  0  0  0
   42.2900   26.9790   34.2660 H   0  0  0  0  0  0  0  0  0  0  0  0
   38.0990   27.1840   32.4630 C   0  0  0  0  0  0  0  0  0  0  0  0
   36.7550   27.0710   32.6790 C   0  0  0  0  0  0  0  0  0  0  0  0
   35.8020   27.5810   31.8090 C   0  0  0  0  0  0  0  0  0  0  0  0
   36.2940   28.2070   30.7180 N   0  0  0  0  0  0  0  0  0  0  0  0
   37.6080   28.3230   30.4960 C   0  0  0  0  0  0  0  0  0  0  0  0
   38.5180   27.8150   31.3620 N   0  0  0  0  0  0  0  0  0  0  0  0
   36.3670   26.5690   33.5550 H   0  0  0  0  0  0  0  0  0  0  0  0
   34.7410   27.4890   31.9860 H   0  0  0  0  0  0  0  0  0  0  0  0
   38.2050   28.9670   29.3730 N   0  0  0  0  0  0  0  0  0  0  0  0
   38.8440   28.1610   28.5080 C   0  0  0  0  0  3  0  0  0  0  0  0
   39.4190   28.7900   27.4190 C   0  0  0  0  0  3  0  0  0  0  0  0
   39.2890   30.1600   27.3200 C   0  0  0  0  0  0  0  0  0  0  0  0
   39.8570   30.8650   26.2260 N   0  0  0  0  0  0  0  0  0  0  0  0
   38.6210   30.9080   28.2460 N   0  0  0  0  0  0  0  0  0  0  0  0
   38.0590   30.3030   29.3060 C   0  0  0  0  0  0  0  0  0  0  0  0
   37.4270   30.9260   30.2030 O   0  0  0  0  0  0  0  0  0  0  0  0
   40.6200   31.3440   25.6980 H   0  0  0  0  0  0  0  0  0  0  0  0
   40.8740   31.0230   26.4910 H   0  0  0  0  0  0  0  0  0  0  0  0
   39.0690   24.1460   36.0270 N   0  0  0  0  0  0  0  0  0  0  0  0
   37.9800   24.3730   36.9490 C   0  0  0  0  0  0  0  0  0  0  0  0
   38.2080   23.8510   38.3390 C   0  0  0  0  0  0  0  0  0  0  0  0
   39.0440   22.7280   38.4810 N   0  0  0  0  0  0  0  0  0  0  0  0
   40.1610   22.7120   37.5420 C   0  0  0  0  0  0  0  0  0  0  0  0
   39.5460   22.8220   36.1560 C   0  0  0  0  0  0  0  0  0  0  0  0
   37.7080   25.4500   37.0170 H   0  0  0  0  0  0  0  0  0  0  0  0
   37.0740   23.8540   36.5180 H   0  0  0  0  0  0  0  0  0  0  0  0
   37.2010   23.6270   38.7580 H   0  0  0  0  0  0  0  0  0  0  0  0
   38.5890   24.6910   38.9770 H   0  0  0  0  0  0  0  0  0  0  0  0
   39.4970   22.7690   39.4440 H   0  0  0  0  0  0  0  0  0  0  0  0
   40.8020   23.5790   37.7930 H   0  0  0  0  0  0  0  0  0  0  0  0
   40.7120   21.7650   37.6730 H   0  0  0  0  0  0  0  0  0  0  0  0
   40.3390   22.6050   35.4290 H   0  0  0  0  0  0  0  0  0  0  0  0
   38.7580   22.0400   36.0960 H   0  0  0  0  0  0  0  0  0  0  0  0
  1  2  1  0  0  0  0
  1 27  1  0  0  0  0
  2  7  1  0  0  0  0
  3  2  2  0  0  0  0
  4  5  2  0  0  0  0
  4  3  1  0  0  0  0
  5  6  1  0  0  0  0
  6  1  2  0  0  0  0
  8  3  1  0  0  0  0
  9 10  1  0  0  0  0
  9  5  1  0  0  0  0
 10 15  1  0  0  0  0
 11 16  1  0  0  0  0
 11 10  2  0  0  0  0
 12 11  1  0  0  0  0
 13 12  2  0  0  0  0
 13 14  1  0  0  0  0
 14  9  2  0  0  0  0
 17 13  1  0  0  0  0
 18 17  1  0  0  0  0
 19 18  2  0  0  0  0
 20 19  1  0  0  0  0
 20 22  2  0  0  0  0
 21 26  1  0  0  0  0
 21 20  1  0  0  0  0
 22 23  1  0  0  0  0
 23 17  1  0  0  0  0
 23 24  2  0  0  0  0
 25 21  1  0  0  0  0
 27 32  1  0  0  0  0
 27 28  1  0  0  0  0
 28 33  1  0  0  0  0
 28 29  1  0  0  0  0
 29 30  1  0  0  0  0
 29 35  1  0  0  0  0
 29 36  1  0  0  0  0
 30 37  1  0  0  0  0
 31 39  1  0  0  0  0
 31 38  1  0  0  0  0
 31 30  1  0  0  0  0
 32 31  1  0  0  0  0
 34 28  1  0  0  0  0
 40 32  1  0  0  0  0
 41 32  1  0  0  0  0
M  END
>  <minimizedAffinity>
-5.98286104

$$$$

 OpenBabel03272504343D

 41 44  0  0  0  0  0  0  0  0999 V2000
   36.5730   28.6140   32.0600 C   0  0  0  0  0  0  0  0  0  0  0  0
   36.0660   29.2240   33.2040 C   0  0  0  0  0  0  0  0  0  0  0  0
   36.1480   28.5890   34.4230 C   0  0  0  0  0  0  0  0  0  0  0  0
   36.7380   27.3560   34.4550 N   0  0  0  0  0  0  0  0  0  0  0  0
   37.2210   26.7880   33.3290 C   0  0  0  0  0  0  0  0  0  0  0  0
   37.1430   27.4070   32.1290 N   0  0  0  0  0  0  0  0  0  0  0  0
   35.6090   30.2010   33.1200 H   0  0  0  0  0  0  0  0  0  0  0  0
   35.7610   29.0390   35.3360 H   0  0  0  0  0  0  0  0  0  0  0  0
   37.8490   25.4670   33.4040 C   0  0  0  0  0  0  0  0  0  0  0  0
   39.1530   25.3230   33.7830 C   0  0  0  0  0  0  0  0  0  0  0  0
   39.7860   24.0920   33.8680 C   0  0  0  0  0  0  0  0  0  0  0  0
   39.0200   23.0260   33.5470 N   0  0  0  0  0  0  0  0  0  0  0  0
   37.7420   23.1550   33.1730 C   0  0  0  0  0  0  0  0  0  0  0  0
   37.1480   24.3710   33.0990 N   0  0  0  0  0  0  0  0  0  0  0  0
   39.7610   26.1810   34.0390 H   0  0  0  0  0  0  0  0  0  0  0  0
   40.8180   23.9850   34.1690 H   0  0  0  0  0  0  0  0  0  0  0  0
   36.8700   22.0840   32.8210 N   0  0  0  0  0  0  0  0  0  0  0  0
   36.5070   22.0260   31.5280 C   0  0  0  0  0  3  0  0  0  0  0  0
   35.6630   20.9850   31.1910 C   0  0  0  0  0  3  0  0  0  0  0  0
   35.2760   20.1160   32.1900 C   0  0  0  0  0  0  0  0  0  0  0  0
   34.4100   19.0260   31.9090 N   0  0  0  0  0  0  0  0  0  0  0  0
   35.6900   20.2460   33.4850 N   0  0  0  0  0  0  0  0  0  0  0  0
   36.5120   21.2560   33.8190 C   0  0  0  0  0  0  0  0  0  0  0  0
   36.9360   21.4410   34.9930 O   0  0  0  0  0  0  0  0  0  0  0  0
   33.4880   18.5600   31.7560 H   0  0  0  0  0  0  0  0  0  0  0  0
   33.4280   19.4320   31.9390 H   0  0  0  0  0  0  0  0  0  0  0  0
   36.5160   29.2260   30.7650 N   0  0  0  0  0  0  0  0  0  0  0  0
   36.9810   28.5580   29.5700 C   0  0  0  0  0  0  0  0  0  0  0  0
   37.8170   29.4060   28.6550 C   0  0  0  0  0  0  0  0  0  0  0  0
   37.5720   30.7920   28.6500 N   0  0  0  0  0  0  0  0  0  0  0  0
   37.2220   31.3250   29.9640 C   0  0  0  0  0  0  0  0  0  0  0  0
   36.0290   30.5130   30.4420 C   0  0  0  0  0  0  0  0  0  0  0  0
   37.5470   27.6290   29.8050 H   0  0  0  0  0  0  0  0  0  0  0  0
   36.0610   28.2240   29.0050 H   0  0  0  0  0  0  0  0  0  0  0  0
   37.6740   28.9950   27.6310 H   0  0  0  0  0  0  0  0  0  0  0  0
   38.8990   29.2130   28.8790 H   0  0  0  0  0  0  0  0  0  0  0  0
   38.4750   31.2900   28.3860 H   0  0  0  0  0  0  0  0  0  0  0  0
   38.1120   31.1940   30.6090 H   0  0  0  0  0  0  0  0  0  0  0  0
   36.9720   32.3940   29.8500 H   0  0  0  0  0  0  0  0  0  0  0  0
   35.6200   31.0230   31.3240 H   0  0  0  0  0  0  0  0  0  0  0  0
   35.2830   30.5310   29.6190 H   0  0  0  0  0  0  0  0  0  0  0  0
  1  6  2  0  0  0  0
  1  2  1  0  0  0  0
  2  3  2  0  0  0  0
  3  4  1  0  0  0  0
  3  8  1  0  0  0  0
  5  9  1  0  0  0  0
  5  4  2  0  0  0  0
  6  5  1  0  0  0  0
  7  2  1  0  0  0  0
  9 10  1  0  0  0  0
 10 11  2  0  0  0  0
 10 15  1  0  0  0  0
 11 16  1  0  0  0  0
 12 11  1  0  0  0  0
 13 12  2  0  0  0  0
 14 13  1  0  0  0  0
 14  9  2  0  0  0  0
 17 13  1  0  0  0  0
 17 23  1  0  0  0  0
 18 17  1  0  0  0  0
 19 18  2  0  0  0  0
 19 20  1  0  0  0  0
 20 22  2  0  0  0  0
 21 26  1  0  0  0  0
 21 20  1  0  0  0  0
 22 23  1  0  0  0  0
 23 24  2  0  0  0  0
 25 21  1  0  0  0  0
 27  1  1  0  0  0  0
 28 33  1  0  0  0  0
 28 27  1  0  0  0  0
 29 36  1  0  0  0  0
 29 28  1  0  0  0  0
 30 29  1  0  0  0  0
 30 31  1  0  0  0  0
 31 32  1  0  0  0  0
 31 38  1  0  0  0  0
 32 27  1  0  0  0  0
 32 40  1  0  0  0  0
 34 28  1  0  0  0  0
 35 29  1  0  0  0  0
 37 30  1  0  0  0  0
 39 31  1  0  0  0  0
 41 32  1  0  0  0  0
M  END
>  <minimizedAffinity>
-5.96850395

$$$$
