REMARK  Name = 
REMARK  2 active torsions:
REMARK  status: ('A' for Active; 'I' for Inactive)
REMARK    1  A    between atoms: C_1  and  N_7
REMARK    2  A    between atoms: C_5  and  C_13
REMARK                            x       y       z     vdW  Elec       q    Type
REMARK                         _______ _______ _______ _____ _____    ______ ____
ROOT
ATOM      1  C   UNL     1      35.108  29.627  47.558  0.00  0.00    +0.000 A 
ATOM      2  C   UNL     1      35.282  30.050  46.243  0.00  0.00    +0.000 A 
ATOM      3  C   UNL     1      34.265  29.904  45.326  0.00  0.00    +0.000 A 
ATOM      4  N   UNL     1      33.100  29.334  45.761  0.00  0.00    +0.000 NA
ATOM      5  C   UNL     1      32.959  28.933  47.042  0.00  0.00    +0.000 A 
ATOM      6  N   UNL     1      33.955  29.074  47.947  0.00  0.00    +0.000 NA
ATOM      7  H   UNL     1      36.225  30.494  45.955  0.00  0.00    +0.000 HD
ATOM      8  H   UNL     1      34.370  30.224  44.291  0.00  0.00    +0.000 HD
ENDROOT
BRANCH   5   9
ATOM      9  C   UNL     1      31.695  28.329  47.471  0.00  0.00    +0.000 A 
ATOM     10  C   UNL     1      31.654  27.426  48.495  0.00  0.00    +0.000 A 
ATOM     11  C   UNL     1      30.480  26.832  48.934  0.00  0.00    +0.000 A 
ATOM     12  N   UNL     1      29.362  27.207  48.275  0.00  0.00    +0.000 NA
ATOM     13  C   UNL     1      29.391  28.090  47.270  0.00  0.00    +0.000 A 
ATOM     14  N   UNL     1      30.552  28.656  46.861  0.00  0.00    +0.000 NA
ATOM     15  H   UNL     1      32.553  27.130  49.019  0.00  0.00    +0.000 HD
ATOM     16  H   UNL     1      30.454  26.119  49.745  0.00  0.00    +0.000 HD
ATOM     17  N   UNL     1      28.259  28.537  46.528  0.00  0.00    +0.000 N 
ATOM     18  C   UNL     1      28.489  29.529  45.650  0.00  0.00    +0.000 A 
ATOM     19  C   UNL     1      27.389  29.957  44.932  0.00  0.00    +0.000 A 
ATOM     20  C   UNL     1      26.178  29.341  45.175  0.00  0.00    +0.000 A 
ATOM     21  N   UNL     1      25.010  29.736  44.469  0.00  0.00    +0.000 N 
ATOM     22  N   UNL     1      26.028  28.337  46.087  0.00  0.00    +0.000 NA
ATOM     23  C   UNL     1      27.095  27.916  46.788  0.00  0.00    +0.000 A 
ATOM     24  O   UNL     1      27.036  26.994  47.649  0.00  0.00    +0.000 OA
ATOM     25  H   UNL     1      24.169  30.324  44.279  0.00  0.00    +0.000 HD
ATOM     26  H   UNL     1      24.637  30.582  44.992  0.00  0.00    +0.000 HD
ENDBRANCH   5   9
BRANCH   1  27
ATOM     27  N   UNL     1      36.130  29.754  48.555  0.00  0.00    +0.000 N 
ATOM     28  C   UNL     1      36.189  28.898  49.718  0.00  0.00    +0.000 C 
ATOM     29  C   UNL     1      36.458  29.608  51.014  0.00  0.00    +0.000 C 
ATOM     30  N   UNL     1      37.214  30.794  50.959  0.00  0.00    +0.000 NA
ATOM     31  C   UNL     1      36.950  31.597  49.769  0.00  0.00    +0.000 C 
ATOM     32  C   UNL     1      37.196  30.681  48.581  0.00  0.00    +0.000 C 
ATOM     33  H   UNL     1      35.265  28.289  49.835  0.00  0.00    +0.000 HD
ATOM     34  H   UNL     1      37.024  28.159  49.537  0.00  0.00    +0.000 HD
ATOM     35  H   UNL     1      36.963  28.870  51.676  0.00  0.00    +0.000 HD
ATOM     36  H   UNL     1      35.478  29.806  51.522  0.00  0.00    +0.000 HD
ATOM     37  H   UNL     1      36.924  31.413  51.776  0.00  0.00    +0.000 HD
ATOM     38  H   UNL     1      35.897  31.932  49.837  0.00  0.00    +0.000 HD
ATOM     39  H   UNL     1      37.638  32.460  49.772  0.00  0.00    +0.000 HD
ATOM     40  H   UNL     1      37.207  31.310  47.681  0.00  0.00    +0.000 HD
ATOM     41  H   UNL     1      38.199  30.227  48.733  0.00  0.00    +0.000 HD
ENDBRANCH   1  27
TORSDOF 2
