
 OpenBabel03272502073D

 40 43  0  0  0  0  0  0  0  0999 V2000
   34.2020   30.4400   47.6850 F   0  0  0  0  0  0  0  0  0  0  0  0
   34.6090   29.9680   46.4610 C   0  0  0  0  0  0  0  0  0  0  0  0
   33.7340   29.3580   45.5760 C   0  0  0  0  0  0  0  0  0  0  0  0
   34.2120   28.9270   44.3600 C   0  0  0  0  0  0  0  0  0  0  0  0
   35.5570   29.1000   44.0190 C   0  0  0  0  0  0  0  0  0  0  0  0
   36.3770   29.7150   44.9480 C   0  0  0  0  0  0  0  0  0  0  0  0
   35.9530   30.1500   46.1470 C   0  0  0  0  0  0  0  0  0  0  0  0
   33.4970   28.4650   43.7170 H   0  0  0  0  0  0  0  0  0  0  0  0
   35.8900   28.7460   43.0520 H   0  0  0  0  0  0  0  0  0  0  0  0
   37.3990   29.8090   44.6070 H   0  0  0  0  0  0  0  0  0  0  0  0
   32.0960   28.1860   46.9010 C   0  0  0  0  0  0  0  0  0  0  0  0
   32.3800   29.2410   46.0460 C   0  0  0  0  0  0  0  0  0  0  0  0
   31.3480   30.1080   45.7190 C   0  0  0  0  0  0  0  0  0  0  0  0
   30.1060   29.9130   46.2340 N   0  0  0  0  0  0  0  0  0  0  0  0
   29.8740   28.8840   47.0560 C   0  0  0  0  0  0  0  0  0  0  0  0
   30.8370   28.0370   47.3870 N   0  0  0  0  0  0  0  0  0  0  0  0
   32.8460   27.4640   47.2030 H   0  0  0  0  0  0  0  0  0  0  0  0
   31.5860   30.9300   45.0470 H   0  0  0  0  0  0  0  0  0  0  0  0
   28.5550   28.7080   47.5820 N   0  0  0  0  0  0  0  0  0  0  0  0
   27.6490   29.6010   47.1440 C   0  0  0  0  0  3  0  0  0  0  0  0
   26.3470   29.4620   47.6360 C   0  0  0  0  0  3  0  0  0  0  0  0
   26.1420   28.4080   48.5260 C   0  0  0  0  0  0  0  0  0  0  0  0
   24.8460   28.1910   49.0770 N   0  0  0  0  0  0  0  0  0  0  0  0
   27.1050   27.5590   48.9130 N   0  0  0  0  0  0  0  0  0  0  0  0
   28.3350   27.6980   48.4430 C   0  0  0  0  0  0  0  0  0  0  0  0
   29.3020   26.9530   48.7480 O   0  0  0  0  0  0  0  0  0  0  0  0
   23.8430   27.9130   49.0020 H   0  0  0  0  0  0  0  0  0  0  0  0
   24.8290   28.4120   50.1070 H   0  0  0  0  0  0  0  0  0  0  0  0
   37.9070   32.3310   45.0340 Br  0  0  0  0  0  0  0  0  0  0  0  0
   37.7860   31.7680   46.8500 C   0  0  0  0  0  0  0  0  0  0  0  0
   36.8710   30.7740   47.0780 C   0  0  0  0  0  0  0  0  0  0  0  0
   36.7600   30.2750   48.3870 C   0  0  0  0  0  0  0  0  0  0  0  0
   37.5370   30.7690   49.3910 C   0  0  0  0  0  0  0  0  0  0  0  0
   38.4380   31.7730   49.0960 C   0  0  0  0  0  0  0  0  0  0  0  0
   38.5750   32.2940   47.8000 C   0  0  0  0  0  0  0  0  0  0  0  0
   36.0700   29.4910   48.6630 H   0  0  0  0  0  0  0  0  0  0  0  0
   37.4790   30.4090   50.4070 H   0  0  0  0  0  0  0  0  0  0  0  0
   39.0760   32.1960   49.8610 H   0  0  0  0  0  0  0  0  0  0  0  0
   39.4330   33.2810   47.4270 O   0  0  0  0  0  0  0  0  0  0  0  0
   39.1540   34.2490   47.5550 H   0  0  0  0  0  0  0  0  0  0  0  0
  2  1  1  0  0  0  0
  3 12  1  0  0  0  0
  3  2  2  0  0  0  0
  4  3  1  0  0  0  0
  5  4  2  0  0  0  0
  5  6  1  0  0  0  0
  6  7  2  0  0  0  0
  7  2  1  0  0  0  0
  7 31  1  0  0  0  0
  8  4  1  0  0  0  0
  9  5  1  0  0  0  0
 10  6  1  0  0  0  0
 11 17  1  0  0  0  0
 11 16  1  0  0  0  0
 12 11  2  0  0  0  0
 13 12  1  0  0  0  0
 13 14  2  0  0  0  0
 14 15  1  0  0  0  0
 15 16  2  0  0  0  0
 15 19  1  0  0  0  0
 18 13  1  0  0  0  0
 19 25  1  0  0  0  0
 20 19  1  0  0  0  0
 20 21  2  0  0  0  0
 21 22  1  0  0  0  0
 22 24  2  0  0  0  0
 22 23  1  0  0  0  0
 23 28  1  0  0  0  0
 25 26  2  0  0  0  0
 25 24  1  0  0  0  0
 27 23  1  0  0  0  0
 29 30  1  0  0  0  0
 30 31  2  0  0  0  0
 30 35  1  0  0  0  0
 31 32  1  0  0  0  0
 32 36  1  0  0  0  0
 32 33  2  0  0  0  0
 33 37  1  0  0  0  0
 34 33  1  0  0  0  0
 34 38  1  0  0  0  0
 35 34  2  0  0  0  0
 39 40  1  0  0  0  0
 39 35  1  0  0  0  0
M  END
>  <minimizedAffinity>
-8.02824116

>  <minimizedRMSD>
0.168788642

$$$$
