
 OpenBabel03272504323D

 41 44  0  0  0  0  0  0  0  0999 V2000
   34.9280   29.5280   47.5530 C   0  0  0  0  0  0  0  0  0  0  0  0
   35.0630   29.9280   46.2260 C   0  0  0  0  0  0  0  0  0  0  0  0
   34.0230   29.7580   45.3400 C   0  0  0  0  0  0  0  0  0  0  0  0
   32.8750   29.1870   45.8170 N   0  0  0  0  0  0  0  0  0  0  0  0
   32.7720   28.8090   47.1080 C   0  0  0  0  0  0  0  0  0  0  0  0
   33.7910   28.9740   47.9830 N   0  0  0  0  0  0  0  0  0  0  0  0
   35.9940   30.3740   45.9050 H   0  0  0  0  0  0  0  0  0  0  0  0
   34.0970   30.0600   44.2970 H   0  0  0  0  0  0  0  0  0  0  0  0
   31.5250   28.2030   47.5820 C   0  0  0  0  0  0  0  0  0  0  0  0
   31.4380   27.6410   48.8240 C   0  0  0  0  0  0  0  0  0  0  0  0
   30.2780   27.0590   49.3130 C   0  0  0  0  0  0  0  0  0  0  0  0
   29.2220   27.0820   48.4710 N   0  0  0  0  0  0  0  0  0  0  0  0
   29.2960   27.6290   47.2520 C   0  0  0  0  0  0  0  0  0  0  0  0
   30.4420   28.1910   46.7990 N   0  0  0  0  0  0  0  0  0  0  0  0
   32.2880   27.6260   49.4940 H   0  0  0  0  0  0  0  0  0  0  0  0
   30.2160   26.6170   50.2970 H   0  0  0  0  0  0  0  0  0  0  0  0
   28.2300   27.6940   46.3080 N   0  0  0  0  0  0  0  0  0  0  0  0
   27.3700   28.7150   46.4630 C   0  0  0  0  0  3  0  0  0  0  0  0
   26.3400   28.7740   45.5450 C   0  0  0  0  0  3  0  0  0  0  0  0
   26.2860   27.7990   44.5700 C   0  0  0  0  0  0  0  0  0  0  0  0
   25.2520   27.8040   43.5970 N   0  0  0  0  0  0  0  0  0  0  0  0
   27.2020   26.7900   44.4800 N   0  0  0  0  0  0  0  0  0  0  0  0
   28.2070   26.7290   45.3700 C   0  0  0  0  0  0  0  0  0  0  0  0
   29.0910   25.8270   45.3530 O   0  0  0  0  0  0  0  0  0  0  0  0
   24.2980   27.6040   43.2240 H   0  0  0  0  0  0  0  0  0  0  0  0
   24.4250   27.3250   44.0610 H   0  0  0  0  0  0  0  0  0  0  0  0
   35.9760   29.6810   48.5190 N   0  0  0  0  0  0  0  0  0  0  0  0
   36.0810   28.8380   49.6880 C   0  0  0  0  0  0  0  0  0  0  0  0
   36.3750   29.5650   50.9690 C   0  0  0  0  0  0  0  0  0  0  0  0
   37.1100   30.7620   50.8820 N   0  0  0  0  0  0  0  0  0  0  0  0
   36.8000   31.5490   49.6920 C   0  0  0  0  0  0  0  0  0  0  0  0
   37.0270   30.6250   48.5070 C   0  0  0  0  0  0  0  0  0  0  0  0
   35.1710   28.2150   49.8370 H   0  0  0  0  0  0  0  0  0  0  0  0
   36.9220   28.1100   49.4910 H   0  0  0  0  0  0  0  0  0  0  0  0
   36.9100   28.8410   51.6240 H   0  0  0  0  0  0  0  0  0  0  0  0
   35.4070   29.7520   51.5030 H   0  0  0  0  0  0  0  0  0  0  0  0
   36.8330   31.3840   51.7010 H   0  0  0  0  0  0  0  0  0  0  0  0
   35.7440   31.8680   49.7870 H   0  0  0  0  0  0  0  0  0  0  0  0
   37.4740   32.4230   49.6680 H   0  0  0  0  0  0  0  0  0  0  0  0
   37.0020   31.2450   47.6010 H   0  0  0  0  0  0  0  0  0  0  0  0
   38.0410   30.1890   48.6340 H   0  0  0  0  0  0  0  0  0  0  0  0
  1  6  1  0  0  0  0
  1 27  1  0  0  0  0
  2  1  2  0  0  0  0
  3  4  2  0  0  0  0
  3  2  1  0  0  0  0
  4  5  1  0  0  0  0
  5  9  1  0  0  0  0
  5  6  2  0  0  0  0
  7  2  1  0  0  0  0
  8  3  1  0  0  0  0
  9 10  1  0  0  0  0
 10 11  2  0  0  0  0
 10 15  1  0  0  0  0
 11 16  1  0  0  0  0
 12 11  1  0  0  0  0
 13 12  2  0  0  0  0
 14 13  1  0  0  0  0
 14  9  2  0  0  0  0
 17 18  1  0  0  0  0
 17 13  1  0  0  0  0
 19 18  2  0  0  0  0
 20 19  1  0  0  0  0
 21 26  1  0  0  0  0
 21 20  1  0  0  0  0
 22 20  2  0  0  0  0
 22 23  1  0  0  0  0
 23 17  1  0  0  0  0
 24 23  2  0  0  0  0
 25 21  1  0  0  0  0
 27 28  1  0  0  0  0
 28 33  1  0  0  0  0
 28 29  1  0  0  0  0
 29 36  1  0  0  0  0
 29 35  1  0  0  0  0
 30 29  1  0  0  0  0
 30 37  1  0  0  0  0
 31 38  1  0  0  0  0
 31 30  1  0  0  0  0
 32 27  1  0  0  0  0
 32 41  1  0  0  0  0
 32 31  1  0  0  0  0
 34 28  1  0  0  0  0
 39 31  1  0  0  0  0
 40 32  1  0  0  0  0
M  END
>  <minimizedAffinity>
-5.73408937

>  <minimizedRMSD>
0.832821131

$$$$
