
 OpenBabel03272502063D

 40 43  0  0  0  0  0  0  0  0999 V2000
   34.0720   30.3630   47.7100 F   0  0  0  0  0  0  0  0  0  0  0  0
   34.5040   29.9200   46.4850 C   0  0  0  0  0  0  0  0  0  0  0  0
   33.6510   29.3180   45.5730 C   0  0  0  0  0  0  0  0  0  0  0  0
   34.1540   28.9180   44.3570 C   0  0  0  0  0  0  0  0  0  0  0  0
   35.5030   29.1130   44.0410 C   0  0  0  0  0  0  0  0  0  0  0  0
   36.3000   29.7190   44.9960 C   0  0  0  0  0  0  0  0  0  0  0  0
   35.8510   30.1250   46.1960 C   0  0  0  0  0  0  0  0  0  0  0  0
   33.4560   28.4590   43.6930 H   0  0  0  0  0  0  0  0  0  0  0  0
   35.8560   28.7830   43.0740 H   0  0  0  0  0  0  0  0  0  0  0  0
   37.3260   29.8330   44.6740 H   0  0  0  0  0  0  0  0  0  0  0  0
   32.0740   28.4020   47.1490 C   0  0  0  0  0  0  0  0  0  0  0  0
   32.2910   29.1750   46.0180 C   0  0  0  0  0  0  0  0  0  0  0  0
   31.1910   29.7620   45.4110 C   0  0  0  0  0  0  0  0  0  0  0  0
   29.9480   29.5740   45.9260 N   0  0  0  0  0  0  0  0  0  0  0  0
   29.7820   28.8210   47.0190 C   0  0  0  0  0  0  0  0  0  0  0  0
   30.8110   28.2460   47.6230 N   0  0  0  0  0  0  0  0  0  0  0  0
   32.8800   27.9090   47.6810 H   0  0  0  0  0  0  0  0  0  0  0  0
   31.3780   30.3650   44.5240 H   0  0  0  0  0  0  0  0  0  0  0  0
   28.4590   28.6450   47.5370 N   0  0  0  0  0  0  0  0  0  0  0  0
   28.1670   27.3880   47.9200 C   0  0  0  0  0  3  0  0  0  0  0  0
   26.8830   27.1760   48.4310 C   0  0  0  0  0  3  0  0  0  0  0  0
   26.0530   28.2970   48.4830 C   0  0  0  0  0  0  0  0  0  0  0  0
   24.7280   28.1720   48.9900 N   0  0  0  0  0  0  0  0  0  0  0  0
   26.4260   29.5190   48.0780 N   0  0  0  0  0  0  0  0  0  0  0  0
   27.6430   29.7120   47.5950 C   0  0  0  0  0  0  0  0  0  0  0  0
   28.0810   30.8220   47.1920 O   0  0  0  0  0  0  0  0  0  0  0  0
   24.0430   28.0140   49.7600 H   0  0  0  0  0  0  0  0  0  0  0  0
   24.0150   28.2940   48.2230 H   0  0  0  0  0  0  0  0  0  0  0  0
   37.8850   32.2580   45.1350 Br  0  0  0  0  0  0  0  0  0  0  0  0
   37.6870   31.7150   46.9510 C   0  0  0  0  0  0  0  0  0  0  0  0
   36.7460   30.7410   47.1550 C   0  0  0  0  0  0  0  0  0  0  0  0
   36.5780   30.2580   48.4630 C   0  0  0  0  0  0  0  0  0  0  0  0
   37.3260   30.7470   49.4900 C   0  0  0  0  0  0  0  0  0  0  0  0
   38.2570   31.7310   49.2200 C   0  0  0  0  0  0  0  0  0  0  0  0
   38.4510   32.2360   47.9240 C   0  0  0  0  0  0  0  0  0  0  0  0
   35.8630   29.4900   48.7210 H   0  0  0  0  0  0  0  0  0  0  0  0
   37.2240   30.3990   50.5070 H   0  0  0  0  0  0  0  0  0  0  0  0
   38.8740   32.1500   50.0040 H   0  0  0  0  0  0  0  0  0  0  0  0
   39.3400   33.2040   47.5740 O   0  0  0  0  0  0  0  0  0  0  0  0
   39.0760   34.1780   47.6830 H   0  0  0  0  0  0  0  0  0  0  0  0
  2  1  1  0  0  0  0
  3 12  1  0  0  0  0
  3  2  2  0  0  0  0
  4  3  1  0  0  0  0
  5  4  2  0  0  0  0
  5  6  1  0  0  0  0
  6  7  2  0  0  0  0
  7  2  1  0  0  0  0
  7 31  1  0  0  0  0
  8  4  1  0  0  0  0
  9  5  1  0  0  0  0
 10  6  1  0  0  0  0
 11 16  1  0  0  0  0
 11 17  1  0  0  0  0
 12 11  2  0  0  0  0
 13 14  2  0  0  0  0
 13 12  1  0  0  0  0
 14 15  1  0  0  0  0
 15 19  1  0  0  0  0
 15 16  2  0  0  0  0
 18 13  1  0  0  0  0
 19 25  1  0  0  0  0
 19 20  1  0  0  0  0
 20 21  2  0  0  0  0
 21 22  1  0  0  0  0
 22 23  1  0  0  0  0
 23 27  1  0  0  0  0
 24 22  2  0  0  0  0
 25 24  1  0  0  0  0
 26 25  2  0  0  0  0
 28 23  1  0  0  0  0
 29 30  1  0  0  0  0
 30 31  2  0  0  0  0
 30 35  1  0  0  0  0
 31 32  1  0  0  0  0
 32 36  1  0  0  0  0
 32 33  2  0  0  0  0
 33 37  1  0  0  0  0
 34 33  1  0  0  0  0
 34 38  1  0  0  0  0
 35 34  2  0  0  0  0
 39 40  1  0  0  0  0
 39 35  1  0  0  0  0
M  END
>  <minimizedAffinity>
-7.632792

>  <minimizedRMSD>
0.355989873

$$$$
