
 OpenBabel03272502063D

 40 43  0  0  0  0  0  0  0  0999 V2000
   34.1840   30.4450   47.6770 F   0  0  0  0  0  0  0  0  0  0  0  0
   34.5920   29.9730   46.4550 C   0  0  0  0  0  0  0  0  0  0  0  0
   33.7170   29.3670   45.5670 C   0  0  0  0  0  0  0  0  0  0  0  0
   34.1960   28.9350   44.3520 C   0  0  0  0  0  0  0  0  0  0  0  0
   35.5430   29.1040   44.0130 C   0  0  0  0  0  0  0  0  0  0  0  0
   36.3630   29.7150   44.9450 C   0  0  0  0  0  0  0  0  0  0  0  0
   35.9380   30.1510   46.1430 C   0  0  0  0  0  0  0  0  0  0  0  0
   33.4810   28.4760   43.7060 H   0  0  0  0  0  0  0  0  0  0  0  0
   35.8770   28.7500   43.0470 H   0  0  0  0  0  0  0  0  0  0  0  0
   37.3850   29.8060   44.6060 H   0  0  0  0  0  0  0  0  0  0  0  0
   32.0780   28.2150   46.9080 C   0  0  0  0  0  0  0  0  0  0  0  0
   32.3610   29.2540   46.0340 C   0  0  0  0  0  0  0  0  0  0  0  0
   31.3270   30.1110   45.6860 C   0  0  0  0  0  0  0  0  0  0  0  0
   30.0850   29.9220   46.1990 N   0  0  0  0  0  0  0  0  0  0  0  0
   29.8530   28.9080   47.0410 C   0  0  0  0  0  0  0  0  0  0  0  0
   30.8170   28.0710   47.3920 N   0  0  0  0  0  0  0  0  0  0  0  0
   32.8290   27.5020   47.2270 H   0  0  0  0  0  0  0  0  0  0  0  0
   31.5660   30.9210   44.9980 H   0  0  0  0  0  0  0  0  0  0  0  0
   28.5330   28.7380   47.5650 N   0  0  0  0  0  0  0  0  0  0  0  0
   28.4530   27.9500   48.6530 C   0  0  0  0  0  3  0  0  0  0  0  0
   27.1780   27.7590   49.1940 C   0  0  0  0  0  3  0  0  0  0  0  0
   26.1340   28.4110   48.5370 C   0  0  0  0  0  0  0  0  0  0  0  0
   24.8010   28.2740   49.0200 N   0  0  0  0  0  0  0  0  0  0  0  0
   26.3000   29.1820   47.4540 N   0  0  0  0  0  0  0  0  0  0  0  0
   27.5100   29.3580   46.9470 C   0  0  0  0  0  0  0  0  0  0  0  0
   27.7650   30.0610   45.9340 O   0  0  0  0  0  0  0  0  0  0  0  0
   24.0490   28.4400   49.7240 H   0  0  0  0  0  0  0  0  0  0  0  0
   24.2120   27.7110   48.3520 H   0  0  0  0  0  0  0  0  0  0  0  0
   37.9000   32.3270   45.0370 Br  0  0  0  0  0  0  0  0  0  0  0  0
   37.7740   31.7620   46.8520 C   0  0  0  0  0  0  0  0  0  0  0  0
   36.8560   30.7710   47.0770 C   0  0  0  0  0  0  0  0  0  0  0  0
   36.7400   30.2710   48.3850 C   0  0  0  0  0  0  0  0  0  0  0  0
   37.5160   30.7610   49.3910 C   0  0  0  0  0  0  0  0  0  0  0  0
   38.4210   31.7630   49.1000 C   0  0  0  0  0  0  0  0  0  0  0  0
   38.5620   32.2840   47.8040 C   0  0  0  0  0  0  0  0  0  0  0  0
   36.0470   29.4890   48.6590 H   0  0  0  0  0  0  0  0  0  0  0  0
   37.4550   30.4000   50.4070 H   0  0  0  0  0  0  0  0  0  0  0  0
   39.0590   32.1830   49.8660 H   0  0  0  0  0  0  0  0  0  0  0  0
   39.4240   33.2690   47.4340 O   0  0  0  0  0  0  0  0  0  0  0  0
   39.1480   34.2380   47.5630 H   0  0  0  0  0  0  0  0  0  0  0  0
  2  1  1  0  0  0  0
  3 12  1  0  0  0  0
  3  2  2  0  0  0  0
  4  3  1  0  0  0  0
  5  4  2  0  0  0  0
  5  6  1  0  0  0  0
  6  7  2  0  0  0  0
  7  2  1  0  0  0  0
  7 31  1  0  0  0  0
  8  4  1  0  0  0  0
  9  5  1  0  0  0  0
 10  6  1  0  0  0  0
 11 17  1  0  0  0  0
 11 16  1  0  0  0  0
 12 11  2  0  0  0  0
 13 12  1  0  0  0  0
 13 14  2  0  0  0  0
 14 15  1  0  0  0  0
 15 16  2  0  0  0  0
 15 19  1  0  0  0  0
 18 13  1  0  0  0  0
 19 20  1  0  0  0  0
 20 21  2  0  0  0  0
 22 23  1  0  0  0  0
 22 21  1  0  0  0  0
 23 27  1  0  0  0  0
 24 22  2  0  0  0  0
 25 24  1  0  0  0  0
 25 19  1  0  0  0  0
 26 25  2  0  0  0  0
 28 23  1  0  0  0  0
 29 30  1  0  0  0  0
 30 31  2  0  0  0  0
 30 35  1  0  0  0  0
 31 32  1  0  0  0  0
 32 36  1  0  0  0  0
 32 33  2  0  0  0  0
 33 37  1  0  0  0  0
 34 33  1  0  0  0  0
 34 38  1  0  0  0  0
 35 34  2  0  0  0  0
 39 40  1  0  0  0  0
 39 35  1  0  0  0  0
M  END
>  <minimizedAffinity>
-8.01955795

>  <minimizedRMSD>
0.184186995

$$$$
