
 OpenBabel03272502063D

 40 43  0  0  0  0  0  0  0  0999 V2000
   34.3650   30.4430   47.0610 F   0  0  0  0  0  0  0  0  0  0  0  0
   34.7140   29.8890   45.8540 C   0  0  0  0  0  0  0  0  0  0  0  0
   33.8000   29.2220   45.0530 C   0  0  0  0  0  0  0  0  0  0  0  0
   34.2220   28.7100   43.8480 C   0  0  0  0  0  0  0  0  0  0  0  0
   35.5490   28.8580   43.4330 C   0  0  0  0  0  0  0  0  0  0  0  0
   36.4110   29.5330   44.2790 C   0  0  0  0  0  0  0  0  0  0  0  0
   36.0420   30.0480   45.4650 C   0  0  0  0  0  0  0  0  0  0  0  0
   33.4790   28.2060   43.2710 H   0  0  0  0  0  0  0  0  0  0  0  0
   35.8380   28.4400   42.4780 H   0  0  0  0  0  0  0  0  0  0  0  0
   37.4150   29.6030   43.8860 H   0  0  0  0  0  0  0  0  0  0  0  0
   31.9260   27.8710   45.7390 C   0  0  0  0  0  0  0  0  0  0  0  0
   32.4700   29.1380   45.5930 C   0  0  0  0  0  0  0  0  0  0  0  0
   31.7030   30.2250   45.9880 C   0  0  0  0  0  0  0  0  0  0  0  0
   30.4610   30.0300   46.5010 N   0  0  0  0  0  0  0  0  0  0  0  0
   29.9730   28.7910   46.6270 C   0  0  0  0  0  0  0  0  0  0  0  0
   30.6780   27.7330   46.2590 N   0  0  0  0  0  0  0  0  0  0  0  0
   32.4590   26.9710   45.4530 H   0  0  0  0  0  0  0  0  0  0  0  0
   32.1440   31.2120   45.8660 H   0  0  0  0  0  0  0  0  0  0  0  0
   28.6610   28.6210   47.1730 N   0  0  0  0  0  0  0  0  0  0  0  0
   27.7190   28.2680   46.2780 C   0  0  0  0  0  3  0  0  0  0  0  0
   26.4240   28.0930   46.7750 C   0  0  0  0  0  3  0  0  0  0  0  0
   26.2600   28.3060   48.1430 C   0  0  0  0  0  0  0  0  0  0  0  0
   24.9730   28.1490   48.7350 N   0  0  0  0  0  0  0  0  0  0  0  0
   27.2570   28.6580   48.9680 N   0  0  0  0  0  0  0  0  0  0  0  0
   28.4810   28.8210   48.4920 C   0  0  0  0  0  0  0  0  0  0  0  0
   29.4790   29.1500   49.1850 O   0  0  0  0  0  0  0  0  0  0  0  0
   24.1610   27.5720   49.0430 H   0  0  0  0  0  0  0  0  0  0  0  0
   24.5840   29.0770   49.0470 H   0  0  0  0  0  0  0  0  0  0  0  0
   37.7230   32.3630   44.1870 Br  0  0  0  0  0  0  0  0  0  0  0  0
   37.8190   31.7880   46.0010 C   0  0  0  0  0  0  0  0  0  0  0  0
   37.0020   30.7320   46.3090 C   0  0  0  0  0  0  0  0  0  0  0  0
   37.0530   30.2240   47.6170 C   0  0  0  0  0  0  0  0  0  0  0  0
   37.8880   30.7690   48.5450 C   0  0  0  0  0  0  0  0  0  0  0  0
   38.6850   31.8330   48.1740 C   0  0  0  0  0  0  0  0  0  0  0  0
   38.6580   32.3660   46.8750 C   0  0  0  0  0  0  0  0  0  0  0  0
   36.4490   29.3940   47.9520 H   0  0  0  0  0  0  0  0  0  0  0  0
   37.9550   30.4030   49.5600 H   0  0  0  0  0  0  0  0  0  0  0  0
   39.3640   32.2980   48.8770 H   0  0  0  0  0  0  0  0  0  0  0  0
   39.4060   33.4110   46.4300 O   0  0  0  0  0  0  0  0  0  0  0  0
   39.0750   34.3570   46.5930 H   0  0  0  0  0  0  0  0  0  0  0  0
  2  1  1  0  0  0  0
  3 12  1  0  0  0  0
  3  2  2  0  0  0  0
  4  3  1  0  0  0  0
  5  4  2  0  0  0  0
  5  6  1  0  0  0  0
  6  7  2  0  0  0  0
  7  2  1  0  0  0  0
  7 31  1  0  0  0  0
  8  4  1  0  0  0  0
  9  5  1  0  0  0  0
 10  6  1  0  0  0  0
 11 16  1  0  0  0  0
 12 11  2  0  0  0  0
 12 13  1  0  0  0  0
 13 14  2  0  0  0  0
 14 15  1  0  0  0  0
 15 19  1  0  0  0  0
 16 15  2  0  0  0  0
 17 11  1  0  0  0  0
 18 13  1  0  0  0  0
 19 25  1  0  0  0  0
 20 21  2  0  0  0  0
 20 19  1  0  0  0  0
 21 22  1  0  0  0  0
 22 23  1  0  0  0  0
 22 24  2  0  0  0  0
 23 27  1  0  0  0  0
 23 28  1  0  0  0  0
 25 24  1  0  0  0  0
 25 26  2  0  0  0  0
 29 30  1  0  0  0  0
 30 31  2  0  0  0  0
 30 35  1  0  0  0  0
 31 32  1  0  0  0  0
 32 36  1  0  0  0  0
 32 33  2  0  0  0  0
 33 37  1  0  0  0  0
 34 33  1  0  0  0  0
 34 38  1  0  0  0  0
 35 34  2  0  0  0  0
 39 40  1  0  0  0  0
 39 35  1  0  0  0  0
M  END
>  <minimizedAffinity>
-6.52480078

>  <minimizedRMSD>
0.760744572

$$$$
