
 OpenBabel03272502063D

 40 43  0  0  0  0  0  0  0  0999 V2000
   34.1790   30.4370   47.6880 F   0  0  0  0  0  0  0  0  0  0  0  0
   34.5870   29.9670   46.4640 C   0  0  0  0  0  0  0  0  0  0  0  0
   33.7120   29.3620   45.5760 C   0  0  0  0  0  0  0  0  0  0  0  0
   34.1910   28.9330   44.3600 C   0  0  0  0  0  0  0  0  0  0  0  0
   35.5380   29.1040   44.0210 C   0  0  0  0  0  0  0  0  0  0  0  0
   36.3570   29.7150   44.9520 C   0  0  0  0  0  0  0  0  0  0  0  0
   35.9320   30.1480   46.1520 C   0  0  0  0  0  0  0  0  0  0  0  0
   33.4770   28.4730   43.7140 H   0  0  0  0  0  0  0  0  0  0  0  0
   35.8710   28.7520   43.0540 H   0  0  0  0  0  0  0  0  0  0  0  0
   37.3790   29.8080   44.6140 H   0  0  0  0  0  0  0  0  0  0  0  0
   32.0850   28.2290   46.9470 C   0  0  0  0  0  0  0  0  0  0  0  0
   32.3570   29.2460   46.0430 C   0  0  0  0  0  0  0  0  0  0  0  0
   31.3140   30.0790   45.6690 C   0  0  0  0  0  0  0  0  0  0  0  0
   30.0720   29.8900   46.1860 N   0  0  0  0  0  0  0  0  0  0  0  0
   29.8510   28.8980   47.0560 C   0  0  0  0  0  0  0  0  0  0  0  0
   30.8250   28.0840   47.4330 N   0  0  0  0  0  0  0  0  0  0  0  0
   32.8450   27.5350   47.2890 H   0  0  0  0  0  0  0  0  0  0  0  0
   31.5430   30.8710   44.9580 H   0  0  0  0  0  0  0  0  0  0  0  0
   28.5320   28.7270   47.5830 N   0  0  0  0  0  0  0  0  0  0  0  0
   28.4830   28.2530   48.8410 C   0  0  0  0  0  3  0  0  0  0  0  0
   27.2090   28.0720   49.3900 C   0  0  0  0  0  3  0  0  0  0  0  0
   26.1350   28.4050   48.5640 C   0  0  0  0  0  0  0  0  0  0  0  0
   24.8030   28.2530   49.0410 N   0  0  0  0  0  0  0  0  0  0  0  0
   26.2730   28.8740   47.3150 N   0  0  0  0  0  0  0  0  0  0  0  0
   27.4820   29.0430   46.8020 C   0  0  0  0  0  0  0  0  0  0  0  0
   27.7100   29.4760   45.6420 O   0  0  0  0  0  0  0  0  0  0  0  0
   24.0050   28.5160   49.6600 H   0  0  0  0  0  0  0  0  0  0  0  0
   24.3070   27.4730   48.5380 H   0  0  0  0  0  0  0  0  0  0  0  0
   37.8970   32.3230   45.0460 Br  0  0  0  0  0  0  0  0  0  0  0  0
   37.7690   31.7590   46.8610 C   0  0  0  0  0  0  0  0  0  0  0  0
   36.8500   30.7680   47.0860 C   0  0  0  0  0  0  0  0  0  0  0  0
   36.7330   30.2690   48.3940 C   0  0  0  0  0  0  0  0  0  0  0  0
   37.5090   30.7590   49.4010 C   0  0  0  0  0  0  0  0  0  0  0  0
   38.4140   31.7600   49.1090 C   0  0  0  0  0  0  0  0  0  0  0  0
   38.5570   32.2810   47.8140 C   0  0  0  0  0  0  0  0  0  0  0  0
   36.0390   29.4870   48.6680 H   0  0  0  0  0  0  0  0  0  0  0  0
   37.4470   30.3990   50.4170 H   0  0  0  0  0  0  0  0  0  0  0  0
   39.0520   32.1800   49.8770 H   0  0  0  0  0  0  0  0  0  0  0  0
   39.4190   33.2660   47.4440 O   0  0  0  0  0  0  0  0  0  0  0  0
   39.1440   34.2350   47.5720 H   0  0  0  0  0  0  0  0  0  0  0  0
  2  1  1  0  0  0  0
  3 12  1  0  0  0  0
  3  2  2  0  0  0  0
  4  3  1  0  0  0  0
  5  4  2  0  0  0  0
  5  6  1  0  0  0  0
  6  7  2  0  0  0  0
  7  2  1  0  0  0  0
  7 31  1  0  0  0  0
  8  4  1  0  0  0  0
  9  5  1  0  0  0  0
 10  6  1  0  0  0  0
 11 17  1  0  0  0  0
 11 16  1  0  0  0  0
 12 11  2  0  0  0  0
 13 12  1  0  0  0  0
 13 14  2  0  0  0  0
 14 15  1  0  0  0  0
 15 16  2  0  0  0  0
 15 19  1  0  0  0  0
 18 13  1  0  0  0  0
 19 20  1  0  0  0  0
 20 21  2  0  0  0  0
 22 23  1  0  0  0  0
 22 21  1  0  0  0  0
 23 27  1  0  0  0  0
 24 22  2  0  0  0  0
 25 24  1  0  0  0  0
 25 19  1  0  0  0  0
 26 25  2  0  0  0  0
 28 23  1  0  0  0  0
 29 30  1  0  0  0  0
 30 31  2  0  0  0  0
 30 35  1  0  0  0  0
 31 32  1  0  0  0  0
 32 36  1  0  0  0  0
 32 33  2  0  0  0  0
 33 37  1  0  0  0  0
 34 33  1  0  0  0  0
 34 38  1  0  0  0  0
 35 34  2  0  0  0  0
 39 40  1  0  0  0  0
 39 35  1  0  0  0  0
M  END
>  <minimizedAffinity>
-8.03584576

>  <minimizedRMSD>
0.190032884

$$$$
