
 OpenBabel03272504333D

 41 44  0  0  0  0  0  0  0  0999 V2000
   35.0720   29.6160   47.5760 C   0  0  0  0  0  0  0  0  0  0  0  0
   35.2120   30.0750   46.2690 C   0  0  0  0  0  0  0  0  0  0  0  0
   34.1840   29.9230   45.3650 C   0  0  0  0  0  0  0  0  0  0  0  0
   33.0420   29.3110   45.8050 N   0  0  0  0  0  0  0  0  0  0  0  0
   32.9340   28.8760   47.0780 C   0  0  0  0  0  0  0  0  0  0  0  0
   33.9410   29.0220   47.9700 N   0  0  0  0  0  0  0  0  0  0  0  0
   36.1380   30.5510   45.9770 H   0  0  0  0  0  0  0  0  0  0  0  0
   34.2630   30.2710   44.3370 H   0  0  0  0  0  0  0  0  0  0  0  0
   31.6940   28.2280   47.5130 C   0  0  0  0  0  0  0  0  0  0  0  0
   31.6270   27.5500   48.6970 C   0  0  0  0  0  0  0  0  0  0  0  0
   30.4750   26.9240   49.1480 C   0  0  0  0  0  0  0  0  0  0  0  0
   29.4050   27.0270   48.3290 N   0  0  0  0  0  0  0  0  0  0  0  0
   29.4590   27.6870   47.1660 C   0  0  0  0  0  0  0  0  0  0  0  0
   30.5990   28.2900   46.7500 N   0  0  0  0  0  0  0  0  0  0  0  0
   32.4880   27.4720   49.3490 H   0  0  0  0  0  0  0  0  0  0  0  0
   30.4280   26.3910   50.0860 H   0  0  0  0  0  0  0  0  0  0  0  0
   28.3780   27.8410   46.2500 N   0  0  0  0  0  0  0  0  0  0  0  0
   28.1580   26.8020   45.4250 C   0  0  0  0  0  3  0  0  0  0  0  0
   27.1080   26.9560   44.5400 C   0  0  0  0  0  3  0  0  0  0  0  0
   26.3950   28.1370   44.5800 C   0  0  0  0  0  0  0  0  0  0  0  0
   25.3040   28.3540   43.6960 N   0  0  0  0  0  0  0  0  0  0  0  0
   26.6840   29.1470   45.4520 N   0  0  0  0  0  0  0  0  0  0  0  0
   27.7040   29.0030   46.3160 C   0  0  0  0  0  0  0  0  0  0  0  0
   28.0320   29.8920   47.1500 O   0  0  0  0  0  0  0  0  0  0  0  0
   24.8520   28.6280   42.7970 H   0  0  0  0  0  0  0  0  0  0  0  0
   25.7410   28.6990   42.7910 H   0  0  0  0  0  0  0  0  0  0  0  0
   36.1070   29.7460   48.5590 N   0  0  0  0  0  0  0  0  0  0  0  0
   36.1870   28.8880   49.7190 C   0  0  0  0  0  0  0  0  0  0  0  0
   36.4700   29.5970   51.0130 C   0  0  0  0  0  0  0  0  0  0  0  0
   37.2190   30.7870   50.9500 N   0  0  0  0  0  0  0  0  0  0  0  0
   36.9330   31.5910   49.7660 C   0  0  0  0  0  0  0  0  0  0  0  0
   37.1680   30.6790   48.5720 C   0  0  0  0  0  0  0  0  0  0  0  0
   35.2690   28.2740   49.8480 H   0  0  0  0  0  0  0  0  0  0  0  0
   37.0240   28.1540   49.5250 H   0  0  0  0  0  0  0  0  0  0  0  0
   36.9890   28.8600   51.6660 H   0  0  0  0  0  0  0  0  0  0  0  0
   35.4960   29.7880   51.5350 H   0  0  0  0  0  0  0  0  0  0  0  0
   36.9360   31.4030   51.7720 H   0  0  0  0  0  0  0  0  0  0  0  0
   35.8790   31.9200   49.8490 H   0  0  0  0  0  0  0  0  0  0  0  0
   37.6160   32.4580   49.7610 H   0  0  0  0  0  0  0  0  0  0  0  0
   37.1630   31.3110   47.6740 H   0  0  0  0  0  0  0  0  0  0  0  0
   38.1760   30.2310   48.7090 H   0  0  0  0  0  0  0  0  0  0  0  0
  1  6  1  0  0  0  0
  1 27  1  0  0  0  0
  2  1  2  0  0  0  0
  3  4  2  0  0  0  0
  3  2  1  0  0  0  0
  4  5  1  0  0  0  0
  5  9  1  0  0  0  0
  5  6  2  0  0  0  0
  7  2  1  0  0  0  0
  8  3  1  0  0  0  0
  9 10  1  0  0  0  0
 10 11  2  0  0  0  0
 10 15  1  0  0  0  0
 11 16  1  0  0  0  0
 12 11  1  0  0  0  0
 13 12  2  0  0  0  0
 14 13  1  0  0  0  0
 14  9  2  0  0  0  0
 17 23  1  0  0  0  0
 17 13  1  0  0  0  0
 18 17  1  0  0  0  0
 19 20  1  0  0  0  0
 19 18  2  0  0  0  0
 20 22  2  0  0  0  0
 21 20  1  0  0  0  0
 22 23  1  0  0  0  0
 23 24  2  0  0  0  0
 25 21  1  0  0  0  0
 26 21  1  0  0  0  0
 27 32  1  0  0  0  0
 27 28  1  0  0  0  0
 28 33  1  0  0  0  0
 28 29  1  0  0  0  0
 29 36  1  0  0  0  0
 29 35  1  0  0  0  0
 30 29  1  0  0  0  0
 30 37  1  0  0  0  0
 31 38  1  0  0  0  0
 31 30  1  0  0  0  0
 32 41  1  0  0  0  0
 32 31  1  0  0  0  0
 34 28  1  0  0  0  0
 39 31  1  0  0  0  0
 40 32  1  0  0  0  0
M  END
>  <minimizedAffinity>
-5.90386868

>  <minimizedRMSD>
0.672554493

$$$$
