
 OpenBabel03272502063D

 40 43  0  0  0  0  0  0  0  0999 V2000
   34.2060   30.4390   47.6880 F   0  0  0  0  0  0  0  0  0  0  0  0
   34.6150   29.9700   46.4650 C   0  0  0  0  0  0  0  0  0  0  0  0
   33.7430   29.3600   45.5760 C   0  0  0  0  0  0  0  0  0  0  0  0
   34.2230   28.9330   44.3610 C   0  0  0  0  0  0  0  0  0  0  0  0
   35.5690   29.1080   44.0220 C   0  0  0  0  0  0  0  0  0  0  0  0
   36.3860   29.7230   44.9530 C   0  0  0  0  0  0  0  0  0  0  0  0
   35.9600   30.1550   46.1520 C   0  0  0  0  0  0  0  0  0  0  0  0
   33.5110   28.4700   43.7150 H   0  0  0  0  0  0  0  0  0  0  0  0
   35.9040   28.7570   43.0550 H   0  0  0  0  0  0  0  0  0  0  0  0
   37.4080   29.8200   44.6140 H   0  0  0  0  0  0  0  0  0  0  0  0
   32.1250   28.2380   46.9670 C   0  0  0  0  0  0  0  0  0  0  0  0
   32.3880   29.2400   46.0440 C   0  0  0  0  0  0  0  0  0  0  0  0
   31.3370   30.0550   45.6520 C   0  0  0  0  0  0  0  0  0  0  0  0
   30.0960   29.8630   46.1700 N   0  0  0  0  0  0  0  0  0  0  0  0
   29.8840   28.8860   47.0590 C   0  0  0  0  0  0  0  0  0  0  0  0
   30.8650   28.0900   47.4540 N   0  0  0  0  0  0  0  0  0  0  0  0
   32.8900   27.5580   47.3230 H   0  0  0  0  0  0  0  0  0  0  0  0
   31.5600   30.8360   44.9270 H   0  0  0  0  0  0  0  0  0  0  0  0
   28.5650   28.7120   47.5870 N   0  0  0  0  0  0  0  0  0  0  0  0
   27.5900   29.3090   46.8770 C   0  0  0  0  0  3  0  0  0  0  0  0
   26.2870   29.1610   47.3620 C   0  0  0  0  0  3  0  0  0  0  0  0
   26.1510   28.4070   48.5290 C   0  0  0  0  0  0  0  0  0  0  0  0
   24.8590   28.2040   49.0920 N   0  0  0  0  0  0  0  0  0  0  0  0
   27.1810   27.8440   49.1750 N   0  0  0  0  0  0  0  0  0  0  0  0
   28.4120   27.9880   48.7120 C   0  0  0  0  0  0  0  0  0  0  0  0
   29.4390   27.4970   49.2480 O   0  0  0  0  0  0  0  0  0  0  0  0
   23.9010   27.7930   49.0860 H   0  0  0  0  0  0  0  0  0  0  0  0
   24.7580   28.7220   50.0040 H   0  0  0  0  0  0  0  0  0  0  0  0
   37.9170   32.3350   45.0450 Br  0  0  0  0  0  0  0  0  0  0  0  0
   37.7910   31.7730   46.8610 C   0  0  0  0  0  0  0  0  0  0  0  0
   36.8750   30.7790   47.0870 C   0  0  0  0  0  0  0  0  0  0  0  0
   36.7600   30.2810   48.3950 C   0  0  0  0  0  0  0  0  0  0  0  0
   37.5330   30.7750   49.4010 C   0  0  0  0  0  0  0  0  0  0  0  0
   38.4360   31.7780   49.1090 C   0  0  0  0  0  0  0  0  0  0  0  0
   38.5770   32.2990   47.8130 C   0  0  0  0  0  0  0  0  0  0  0  0
   36.0680   29.4970   48.6700 H   0  0  0  0  0  0  0  0  0  0  0  0
   37.4720   30.4150   50.4180 H   0  0  0  0  0  0  0  0  0  0  0  0
   39.0710   32.2010   49.8760 H   0  0  0  0  0  0  0  0  0  0  0  0
   39.4360   33.2850   47.4430 O   0  0  0  0  0  0  0  0  0  0  0  0
   39.1570   34.2540   47.5700 H   0  0  0  0  0  0  0  0  0  0  0  0
  2  1  1  0  0  0  0
  3 12  1  0  0  0  0
  3  2  2  0  0  0  0
  4  3  1  0  0  0  0
  5  4  2  0  0  0  0
  5  6  1  0  0  0  0
  6  7  2  0  0  0  0
  7  2  1  0  0  0  0
  7 31  1  0  0  0  0
  8  4  1  0  0  0  0
  9  5  1  0  0  0  0
 10  6  1  0  0  0  0
 11 17  1  0  0  0  0
 11 16  1  0  0  0  0
 12 11  2  0  0  0  0
 13 12  1  0  0  0  0
 13 14  2  0  0  0  0
 14 15  1  0  0  0  0
 15 16  2  0  0  0  0
 15 19  1  0  0  0  0
 18 13  1  0  0  0  0
 19 25  1  0  0  0  0
 20 21  2  0  0  0  0
 20 19  1  0  0  0  0
 21 22  1  0  0  0  0
 22 23  1  0  0  0  0
 22 24  2  0  0  0  0
 23 28  1  0  0  0  0
 25 24  1  0  0  0  0
 25 26  2  0  0  0  0
 27 23  1  0  0  0  0
 29 30  1  0  0  0  0
 30 31  2  0  0  0  0
 30 35  1  0  0  0  0
 31 32  1  0  0  0  0
 32 36  1  0  0  0  0
 32 33  2  0  0  0  0
 33 37  1  0  0  0  0
 34 33  1  0  0  0  0
 34 38  1  0  0  0  0
 35 34  2  0  0  0  0
 39 40  1  0  0  0  0
 39 35  1  0  0  0  0
M  END
>  <minimizedAffinity>
-8.01465416

>  <minimizedRMSD>
0.166636318

$$$$
