
 OpenBabel03272506273D

 43 46  0  0  0  0  0  0  0  0999 V2000
   34.9250   28.1980   48.2680 C   0  0  0  0  0  0  0  0  0  0  0  0
   34.3220   26.9630   48.4470 C   0  0  0  0  0  0  0  0  0  0  0  0
   33.5690   26.3050   47.4760 C   0  0  0  0  0  0  0  0  0  0  0  0
   33.4050   26.9370   46.2240 C   0  0  0  0  0  0  0  0  0  0  0  0
   34.0130   28.1650   46.0670 C   0  0  0  0  0  0  0  0  0  0  0  0
   34.7480   28.7970   47.0240 C   0  0  0  0  0  0  0  0  0  0  0  0
   34.4320   26.4440   49.4130 H   0  0  0  0  0  0  0  0  0  0  0  0
   33.1460   25.3380   47.7380 H   0  0  0  0  0  0  0  0  0  0  0  0
   32.8120   26.3450   45.5630 H   0  0  0  0  0  0  0  0  0  0  0  0
   33.7650   28.4670   45.0840 H   0  0  0  0  0  0  0  0  0  0  0  0
   37.0290   28.3930   49.4400 C   0  0  0  0  0  0  0  0  0  0  0  0
   35.6610   28.7230   49.3820 C   0  0  0  0  0  0  0  0  0  0  0  0
   35.1290   29.5250   50.3970 C   0  0  0  0  0  0  0  0  0  0  0  0
   35.9560   29.9460   51.3920 N   0  0  0  0  0  0  0  0  0  0  0  0
   37.2760   29.6180   51.4300 C   0  0  0  0  0  0  0  0  0  0  0  0
   37.8090   28.8380   50.4500 N   0  0  0  0  0  0  0  0  0  0  0  0
   37.4680   27.7780   48.6710 H   0  0  0  0  0  0  0  0  0  0  0  0
   37.9050   29.9690   52.2350 H   0  0  0  0  0  0  0  0  0  0  0  0
   33.7080   29.9470   50.4640 C   0  0  0  0  0  0  0  0  0  0  0  0
   33.3230   30.0780   51.8140 F   0  0  0  0  0  0  0  0  0  0  0  0
   33.3990   31.0870   49.8180 F   0  0  0  0  0  0  0  0  0  0  0  0
   32.8870   28.9240   49.9880 F   0  0  0  0  0  0  0  0  0  0  0  0
   35.5160   30.3570   46.7980 S   0  0  0  0  0  0  0  0  0  0  0  0
   33.8360   31.1060   44.2950 Cl  0  0  0  0  0  0  0  0  0  0  0  0
   35.5630   30.8680   44.1720 C   0  0  0  0  0  0  0  0  0  0  0  0
   36.3640   30.5180   45.2510 C   0  0  0  0  0  0  0  0  0  0  0  0
   37.7050   30.3340   45.0890 C   0  0  0  0  0  0  0  0  0  0  0  0
   38.2630   30.5040   43.8420 C   0  0  0  0  0  0  0  0  0  0  0  0
   37.4690   30.8550   42.7520 C   0  0  0  0  0  0  0  0  0  0  0  0
   36.1020   31.0430   42.8970 C   0  0  0  0  0  0  0  0  0  0  0  0
   38.3890   30.0330   45.8370 H   0  0  0  0  0  0  0  0  0  0  0  0
   39.3150   30.3820   43.6180 H   0  0  0  0  0  0  0  0  0  0  0  0
   37.9000   30.9880   41.7760 H   0  0  0  0  0  0  0  0  0  0  0  0
   35.2900   31.4020   41.7780 N   0  0  0  0  0  0  0  0  0  0  0  0
   34.7470   30.4440   41.0000 C   0  0  0  0  0  3  0  0  0  0  0  0
   33.9840   30.9210   39.9520 C   0  0  0  0  0  3  0  0  0  0  0  0
   33.7730   32.2630   39.6920 C   0  0  0  0  0  0  0  0  0  0  0  0
   32.9800   32.7150   38.6010 N   0  0  0  0  0  0  0  0  0  0  0  0
   34.3670   33.1340   40.5370 N   0  0  0  0  0  0  0  0  0  0  0  0
   35.1290   32.7240   41.5860 C   0  0  0  0  0  0  0  0  0  0  0  0
   35.6310   33.6100   42.3060 O   0  0  0  0  0  0  0  0  0  0  0  0
   32.0950   32.8590   39.1500 H   0  0  0  0  0  0  0  0  0  0  0  0
   33.1240   32.8770   37.6010 H   0  0  0  0  0  0  0  0  0  0  0  0
  1  2  1  0  0  0  0
  1 12  1  0  0  0  0
  2  7  1  0  0  0  0
  3  8  1  0  0  0  0
  3  2  2  0  0  0  0
  4  3  1  0  0  0  0
  5  4  2  0  0  0  0
  5  6  1  0  0  0  0
  6  1  2  0  0  0  0
  9  4  1  0  0  0  0
 10  5  1  0  0  0  0
 11 16  1  0  0  0  0
 12 11  2  0  0  0  0
 12 13  1  0  0  0  0
 13 19  1  0  0  0  0
 13 14  2  0  0  0  0
 14 15  1  0  0  0  0
 15 18  1  0  0  0  0
 16 15  2  0  0  0  0
 17 11  1  0  0  0  0
 19 20  1  0  0  0  0
 21 19  1  0  0  0  0
 22 19  1  0  0  0  0
 23  6  1  0  0  0  0
 25 24  1  0  0  0  0
 25 26  1  0  0  0  0
 26 23  1  0  0  0  0
 27 26  2  0  0  0  0
 27 31  1  0  0  0  0
 28 27  1  0  0  0  0
 29 30  1  0  0  0  0
 29 28  2  0  0  0  0
 30 25  2  0  0  0  0
 32 28  1  0  0  0  0
 33 29  1  0  0  0  0
 34 30  1  0  0  0  0
 35 34  1  0  0  0  0
 36 35  2  0  0  0  0
 37 36  1  0  0  0  0
 37 39  2  0  0  0  0
 38 42  1  0  0  0  0
 38 37  1  0  0  0  0
 39 40  1  0  0  0  0
 40 34  1  0  0  0  0
 40 41  2  0  0  0  0
 43 38  1  0  0  0  0
M  END
>  <minimizedAffinity>
-1.8197732

>  <minimizedRMSD>
8.32733822

$$$$
