
 OpenBabel03272502073D

 40 43  0  0  0  0  0  0  0  0999 V2000
   34.1910   30.4160   47.6620 F   0  0  0  0  0  0  0  0  0  0  0  0
   34.6010   29.9400   46.4410 C   0  0  0  0  0  0  0  0  0  0  0  0
   33.7270   29.3310   45.5530 C   0  0  0  0  0  0  0  0  0  0  0  0
   34.2080   28.8960   44.3410 C   0  0  0  0  0  0  0  0  0  0  0  0
   35.5560   29.0630   44.0040 C   0  0  0  0  0  0  0  0  0  0  0  0
   36.3740   29.6780   44.9340 C   0  0  0  0  0  0  0  0  0  0  0  0
   35.9470   30.1170   46.1310 C   0  0  0  0  0  0  0  0  0  0  0  0
   33.4950   28.4340   43.6960 H   0  0  0  0  0  0  0  0  0  0  0  0
   35.8910   28.7070   43.0390 H   0  0  0  0  0  0  0  0  0  0  0  0
   37.3970   29.7680   44.5970 H   0  0  0  0  0  0  0  0  0  0  0  0
   32.0210   28.0440   46.6680 C   0  0  0  0  0  0  0  0  0  0  0  0
   32.3710   29.2190   46.0190 C   0  0  0  0  0  0  0  0  0  0  0  0
   31.4000   30.2000   45.8790 C   0  0  0  0  0  0  0  0  0  0  0  0
   30.1510   29.9950   46.3710 N   0  0  0  0  0  0  0  0  0  0  0  0
   29.8530   28.8490   46.9920 C   0  0  0  0  0  0  0  0  0  0  0  0
   30.7560   27.8920   47.1420 N   0  0  0  0  0  0  0  0  0  0  0  0
   32.7200   27.2300   46.8170 H   0  0  0  0  0  0  0  0  0  0  0  0
   31.6910   31.1150   45.3660 H   0  0  0  0  0  0  0  0  0  0  0  0
   28.5280   28.6670   47.5010 N   0  0  0  0  0  0  0  0  0  0  0  0
   27.6030   28.3660   46.5710 C   0  0  0  0  0  3  0  0  0  0  0  0
   26.2960   28.1800   47.0290 C   0  0  0  0  0  3  0  0  0  0  0  0
   26.1030   28.3300   48.4030 C   0  0  0  0  0  0  0  0  0  0  0  0
   24.8030   28.1580   48.9580 N   0  0  0  0  0  0  0  0  0  0  0  0
   27.0850   28.6320   49.2640 N   0  0  0  0  0  0  0  0  0  0  0  0
   28.3210   28.8060   48.8230 C   0  0  0  0  0  0  0  0  0  0  0  0
   29.3050   29.0920   49.5540 O   0  0  0  0  0  0  0  0  0  0  0  0
   23.9780   27.5750   49.2200 H   0  0  0  0  0  0  0  0  0  0  0  0
   24.4140   29.0740   49.3040 H   0  0  0  0  0  0  0  0  0  0  0  0
   37.8850   32.3170   45.0270 Br  0  0  0  0  0  0  0  0  0  0  0  0
   37.7720   31.7410   46.8400 C   0  0  0  0  0  0  0  0  0  0  0  0
   36.8640   30.7410   47.0640 C   0  0  0  0  0  0  0  0  0  0  0  0
   36.7590   30.2330   48.3690 C   0  0  0  0  0  0  0  0  0  0  0  0
   37.5350   30.7250   49.3750 C   0  0  0  0  0  0  0  0  0  0  0  0
   38.4290   31.7360   49.0850 C   0  0  0  0  0  0  0  0  0  0  0  0
   38.5600   32.2660   47.7910 C   0  0  0  0  0  0  0  0  0  0  0  0
   36.0730   29.4430   48.6430 H   0  0  0  0  0  0  0  0  0  0  0  0
   37.4820   30.3580   50.3890 H   0  0  0  0  0  0  0  0  0  0  0  0
   39.0660   32.1580   49.8510 H   0  0  0  0  0  0  0  0  0  0  0  0
   39.4110   33.2610   47.4230 O   0  0  0  0  0  0  0  0  0  0  0  0
   39.1270   34.2260   47.5590 H   0  0  0  0  0  0  0  0  0  0  0  0
  2  1  1  0  0  0  0
  3 12  1  0  0  0  0
  3  2  2  0  0  0  0
  4  3  1  0  0  0  0
  5  4  2  0  0  0  0
  5  6  1  0  0  0  0
  6  7  2  0  0  0  0
  7  2  1  0  0  0  0
  7 31  1  0  0  0  0
  8  4  1  0  0  0  0
  9  5  1  0  0  0  0
 10  6  1  0  0  0  0
 11 17  1  0  0  0  0
 11 16  1  0  0  0  0
 12 11  2  0  0  0  0
 13 12  1  0  0  0  0
 13 14  2  0  0  0  0
 14 15  1  0  0  0  0
 15 16  2  0  0  0  0
 15 19  1  0  0  0  0
 18 13  1  0  0  0  0
 19 25  1  0  0  0  0
 20 21  2  0  0  0  0
 20 19  1  0  0  0  0
 21 22  1  0  0  0  0
 22 23  1  0  0  0  0
 22 24  2  0  0  0  0
 23 27  1  0  0  0  0
 23 28  1  0  0  0  0
 25 24  1  0  0  0  0
 25 26  2  0  0  0  0
 29 30  1  0  0  0  0
 30 31  2  0  0  0  0
 30 35  1  0  0  0  0
 31 32  1  0  0  0  0
 32 36  1  0  0  0  0
 32 33  2  0  0  0  0
 33 37  1  0  0  0  0
 34 33  1  0  0  0  0
 34 38  1  0  0  0  0
 35 34  2  0  0  0  0
 39 40  1  0  0  0  0
 39 35  1  0  0  0  0
M  END
>  <minimizedAffinity>
-7.61561441

>  <minimizedRMSD>
0.245356902

$$$$
