
 OpenBabel03272508043D

 36 39  0  0  0  0  0  0  0  0999 V2000
   38.8940   30.9110   45.7790 C   0  0  0  0  0  0  0  0  0  0  0  0
   40.0620   31.6050   46.0150 C   0  0  0  0  0  0  0  0  0  0  0  0
   40.9040   31.5460   44.9210 C   0  0  0  0  0  0  0  0  0  0  0  0
   40.2000   30.8020   44.0400 N   0  0  0  0  0  0  0  0  0  0  0  0
   39.0300   30.4300   44.5350 N   0  0  0  0  0  0  0  0  0  0  0  0
   40.3120   32.1370   46.9350 H   0  0  0  0  0  0  0  0  0  0  0  0
   41.8870   31.9610   44.7360 H   0  0  0  0  0  0  0  0  0  0  0  0
   37.7830   30.7560   46.6960 C   0  0  0  0  0  0  0  0  0  0  0  0
   37.9990   30.9720   48.0730 C   0  0  0  0  0  0  0  0  0  0  0  0
   36.9220   30.8200   48.9380 C   0  0  0  0  0  0  0  0  0  0  0  0
   35.7150   30.4710   48.4010 N   0  0  0  0  0  0  0  0  0  0  0  0
   35.5270   30.2680   47.0750 C   0  0  0  0  0  0  0  0  0  0  0  0
   36.5750   30.4160   46.2350 N   0  0  0  0  0  0  0  0  0  0  0  0
   39.0000   31.2490   48.4090 H   0  0  0  0  0  0  0  0  0  0  0  0
   34.5490   29.9920   46.6960 H   0  0  0  0  0  0  0  0  0  0  0  0
   37.1240   31.0420   50.3920 C   0  0  0  0  0  0  0  0  0  0  0  0
   36.6060   32.2850   50.6570 F   0  0  0  0  0  0  0  0  0  0  0  0
   36.4600   30.1090   51.1750 F   0  0  0  0  0  0  0  0  0  0  0  0
   38.4790   31.0600   50.7250 F   0  0  0  0  0  0  0  0  0  0  0  0
   40.5870   30.4010   42.6790 C   0  0  0  0  0  0  0  0  0  0  0  0
   40.2210   31.1590   41.5550 C   0  0  0  0  0  0  0  0  0  0  0  0
   40.5960   30.7560   40.3340 C   0  0  0  0  0  0  0  0  0  0  0  0
   41.3620   29.5630   40.1920 C   0  0  0  0  0  0  0  0  0  0  0  0
   41.5270   29.0230   41.9600 S   0  0  0  0  0  0  0  0  0  0  0  0
   39.6380   32.0740   41.6310 H   0  0  0  0  0  0  0  0  0  0  0  0
   40.4190   31.1920   39.3650 H   0  0  0  0  0  0  0  0  0  0  0  0
   41.9160   28.8470   39.1650 N   0  0  0  0  0  0  0  0  0  0  0  0
   43.0980   29.1170   38.6380 C   0  0  0  0  0  3  0  0  0  0  0  0
   43.5740   28.3270   37.5940 C   0  0  0  0  0  3  0  0  0  0  0  0
   42.8070   27.2780   37.1280 C   0  0  0  0  0  0  0  0  0  0  0  0
   43.1870   26.3980   36.0630 N   0  0  0  0  0  0  0  0  0  0  0  0
   41.5920   27.0220   37.6900 N   0  0  0  0  0  0  0  0  0  0  0  0
   41.1520   27.8130   38.7100 C   0  0  0  0  0  0  0  0  0  0  0  0
   40.0230   27.5120   39.1740 O   0  0  0  0  0  0  0  0  0  0  0  0
   42.4570   26.0510   35.3980 H   0  0  0  0  0  0  0  0  0  0  0  0
   44.2140   26.2160   36.1070 H   0  0  0  0  0  0  0  0  0  0  0  0
  1  2  1  0  0  0  0
  1  8  1  0  0  0  0
  2  6  1  0  0  0  0
  3  2  2  0  0  0  0
  4  5  1  0  0  0  0
  4  3  1  0  0  0  0
  5  1  2  0  0  0  0
  7  3  1  0  0  0  0
  8  9  1  0  0  0  0
  9 14  1  0  0  0  0
  9 10  2  0  0  0  0
 10 16  1  0  0  0  0
 11 10  1  0  0  0  0
 12 11  2  0  0  0  0
 13  8  2  0  0  0  0
 13 12  1  0  0  0  0
 15 12  1  0  0  0  0
 16 17  1  0  0  0  0
 16 19  1  0  0  0  0
 16 18  1  0  0  0  0
 20  4  1  0  0  0  0
 21 25  1  0  0  0  0
 21 20  2  0  0  0  0
 22 21  1  0  0  0  0
 23 22  2  0  0  0  0
 23 24  1  0  0  0  0
 24 20  1  0  0  0  0
 26 22  1  0  0  0  0
 27 23  1  0  0  0  0
 28 27  1  0  0  0  0
 29 28  2  0  0  0  0
 30 29  1  0  0  0  0
 30 32  2  0  0  0  0
 31 36  1  0  0  0  0
 31 30  1  0  0  0  0
 32 33  1  0  0  0  0
 33 27  1  0  0  0  0
 33 34  2  0  0  0  0
 35 31  1  0  0  0  0
M  END
>  <minimizedAffinity>
-6.42544079

>  <minimizedRMSD>
0.131848395

$$$$
