
     RDKit          3D

 38 41  0  0  0  0  0  0  0  0999 V2000
   38.9063   30.8808   45.7629 C   0  0  0  0  0  0  0  0  0  0  0  0
   40.1084   31.5064   46.0221 C   0  0  0  0  0  0  0  0  0  0  0  0
   40.9432   31.4521   44.9218 C   0  0  0  0  0  0  0  0  0  0  0  0
   40.2003   30.7801   44.0137 N   0  0  0  0  0  0  0  0  0  0  0  0
   39.0150   30.4461   44.4993 N   0  0  0  0  0  0  0  0  0  0  0  0
   37.7922   30.7431   46.6777 C   0  0  0  0  0  0  0  0  0  0  0  0
   38.0064   30.9679   48.0539 C   0  0  0  0  0  0  0  0  0  0  0  0
   36.9253   30.8324   48.9167 C   0  0  0  0  0  0  0  0  0  0  0  0
   35.7171   30.4890   48.3805 N   0  0  0  0  0  0  0  0  0  0  0  0
   35.5314   30.2770   47.0547 C   0  0  0  0  0  0  0  0  0  0  0  0
   36.5819   30.4087   46.2168 N   0  0  0  0  0  0  0  0  0  0  0  0
   37.1254   31.0639   50.3700 C   0  0  0  0  0  0  0  0  0  0  0  0
   36.6022   32.3066   50.6270 F   0  0  0  0  0  0  0  0  0  0  0  0
   36.4655   30.1326   51.1576 F   0  0  0  0  0  0  0  0  0  0  0  0
   38.4798   31.0900   50.7039 F   0  0  0  0  0  0  0  0  0  0  0  0
   40.5635   30.4176   42.6361 C   0  0  0  0  0  0  0  0  0  0  0  0
   40.1817   31.2100   41.5411 C   0  0  0  0  0  0  0  0  0  0  0  0
   40.5351   30.8412   40.3034 C   0  0  0  0  0  0  0  0  0  0  0  0
   41.2941   29.6500   40.1130 C   0  0  0  0  0  0  0  0  0  0  0  0
   41.4860   29.0575   41.8617 S   0  0  0  0  0  0  0  0  0  0  0  0
   40.3865   31.9871   46.9624 H   0  0  0  0  0  0  0  0  0  0  0  0
   41.9439   31.8248   44.7499 H   0  0  0  0  0  0  0  0  0  0  0  0
   39.0081   31.2388   48.3897 H   0  0  0  0  0  0  0  0  0  0  0  0
   34.5508   30.0055   46.6762 H   0  0  0  0  0  0  0  0  0  0  0  0
   39.6033   32.1236   41.6529 H   0  0  0  0  0  0  0  0  0  0  0  0
   40.3425   31.3056   39.3503 H   0  0  0  0  0  0  0  0  0  0  0  0
   41.8276   28.9623   39.0573 N   0  0  0  0  0  0  0  0  0  0  0  0
   43.0993   28.6048   38.9832 C   0  0  0  0  0  0  0  0  0  0  0  0
   43.5446   27.9058   37.8637 C   0  0  0  0  0  0  0  0  0  0  0  0
   42.6560   27.5981   36.8530 C   0  0  0  0  0  0  0  0  0  0  0  0
   42.9946   26.8858   35.6572 N   0  0  0  0  0  0  0  0  0  0  0  0
   41.3518   27.9786   36.9554 N   0  0  0  0  0  0  0  0  0  0  0  0
   40.9442   28.6616   38.0624 C   0  0  0  0  0  0  0  0  0  0  0  0
   39.7268   28.9764   38.0810 O   0  0  0  0  0  0  0  0  0  0  0  0
   43.8151   28.8373   39.7679 H   0  0  0  0  0  0  0  0  0  0  0  0
   44.5659   27.5744   37.7197 H   0  0  0  0  0  0  0  0  0  0  0  0
   42.5405   27.1553   34.7533 H   0  0  0  0  0  0  0  0  0  0  0  0
   43.6972   26.1456   35.8748 H   0  0  0  0  0  0  0  0  0  0  0  0
  1  2  1  0
  1  6  1  0
  3  2  2  0
  4  5  1  0
  4  3  1  0
  5  1  2  0
  6  7  2  0
  7  8  1  0
  8 12  1  0
  9  8  2  0
 10  9  1  0
 11  6  1  0
 11 10  2  0
 12 13  1  0
 12 15  1  0
 12 14  1  0
 16  4  1  0
 17 16  2  0
 18 17  1  0
 19 18  2  0
 19 20  1  0
 20 16  1  0
  2 21  1  0
  3 22  1  0
  7 23  1  0
 10 24  1  0
 17 25  1  0
 18 26  1  0
 27 28  1  0
 28 29  2  0
 29 30  1  0
 30 31  1  0
 30 32  2  0
 32 33  1  0
 33 34  2  0
 33 27  1  0
 28 35  1  0
 29 36  1  0
 31 37  1  0
 31 38  1  0
 19 27  1  0
M  ISO  6  21  14  22  14  23  14  24  14  25  14  26  14
M  END
>  <DihAtoms>  (1) 
17,18,26,27

>  <DihDeg>  (1) 
-113.19938071139825

$$$$
