
 OpenBabel03272510093D

 21 22  0  0  0  0  0  0  0  0999 V2000
   38.2230   31.1420   48.1440 C   0  0  0  0  0  0  0  0  0  0  0  0
   38.7620   32.4140   48.2430 C   0  0  0  0  0  0  0  0  0  0  0  0
   39.4770   33.0360   47.2340 C   0  0  0  0  0  0  0  0  0  0  0  0
   39.6720   32.3520   46.0410 C   0  0  0  0  0  0  0  0  0  0  0  0
   39.1270   31.0960   45.9730 C   0  0  0  0  0  0  0  0  0  0  0  0
   38.4390   30.5220   46.9710 N   0  0  0  0  0  0  0  0  0  0  0  0
   38.6390   32.9940   49.1540 H   0  0  0  0  0  0  0  0  0  0  0  0
   39.8860   34.0320   47.3410 H   0  0  0  0  0  0  0  0  0  0  0  0
   39.2070   30.4590   45.1030 H   0  0  0  0  0  0  0  0  0  0  0  0
   37.7720   30.6830   50.5830 C   0  0  0  0  0  0  0  0  0  0  0  0
   37.4780   30.5300   49.2340 C   0  0  0  0  0  0  0  0  0  0  0  0
   36.3850   29.7290   48.8730 C   0  0  0  0  0  0  0  0  0  0  0  0
   35.6780   29.1500   49.9000 N   0  0  0  0  0  0  0  0  0  0  0  0
   35.9970   29.3240   51.1900 C   0  0  0  0  0  0  0  0  0  0  0  0
   37.0370   30.0860   51.5370 N   0  0  0  0  0  0  0  0  0  0  0  0
   38.6320   31.3160   50.8230 H   0  0  0  0  0  0  0  0  0  0  0  0
   36.0720   29.5460   47.8600 H   0  0  0  0  0  0  0  0  0  0  0  0
   35.4160   28.8500   51.9730 H   0  0  0  0  0  0  0  0  0  0  0  0
   40.4060   32.9020   44.9120 C   0  0  0  0  0  0  0  0  0  0  0  0
   41.2110   32.3460   44.4510 H   0  0  0  0  0  0  0  0  0  0  0  0
   40.1010   34.0500   44.4580 O   0  0  0  0  0  0  0  0  0  0  0  0
  1  2  1  0  0  0  0
  1 11  1  0  0  0  0
  2  7  1  0  0  0  0
  3  8  1  0  0  0  0
  3  2  2  0  0  0  0
  4  3  1  0  0  0  0
  5  4  2  0  0  0  0
  5  6  1  0  0  0  0
  6  1  2  0  0  0  0
  9  5  1  0  0  0  0
 10 16  1  0  0  0  0
 10 15  1  0  0  0  0
 11 10  2  0  0  0  0
 12 11  1  0  0  0  0
 12 13  2  0  0  0  0
 13 14  1  0  0  0  0
 14 15  2  0  0  0  0
 14 18  1  0  0  0  0
 17 12  1  0  0  0  0
 19  4  1  0  0  0  0
 20 19  1  0  0  0  0
 21 19  2  0  0  0  0
M  END
>  <minimizedAffinity>
-4.9446559

>  <minimizedRMSD>
1.58611286

$$$$
