
 OpenBabel03272506263D

 36 38  0  0  0  0  0  0  0  0999 V2000
   31.7100   26.9560   47.8460 C   0  0  0  0  0  0  0  0  0  0  0  0
   31.5840   25.5840   47.7980 C   0  0  0  0  0  0  0  0  0  0  0  0
   32.6190   24.7160   47.4520 C   0  0  0  0  0  0  0  0  0  0  0  0
   33.8760   25.2770   47.1290 C   0  0  0  0  0  0  0  0  0  0  0  0
   33.9700   26.6510   47.1870 C   0  0  0  0  0  0  0  0  0  0  0  0
   32.9520   27.4900   47.5280 C   0  0  0  0  0  0  0  0  0  0  0  0
   30.6180   25.1120   48.0420 H   0  0  0  0  0  0  0  0  0  0  0  0
   32.3960   23.6350   47.4480 H   0  0  0  0  0  0  0  0  0  0  0  0
   34.5830   24.5230   46.8830 H   0  0  0  0  0  0  0  0  0  0  0  0
   34.9580   26.8670   46.9120 H   0  0  0  0  0  0  0  0  0  0  0  0
   30.3100   27.8610   49.6060 C   0  0  0  0  0  0  0  0  0  0  0  0
   30.5300   27.6950   48.2260 C   0  0  0  0  0  0  0  0  0  0  0  0
   29.6040   28.2500   47.3370 C   0  0  0  0  0  0  0  0  0  0  0  0
   28.5330   28.9250   47.8360 N   0  0  0  0  0  0  0  0  0  0  0  0
   28.3420   29.0720   49.1790 C   0  0  0  0  0  0  0  0  0  0  0  0
   29.2310   28.5400   50.0570 N   0  0  0  0  0  0  0  0  0  0  0  0
   31.0080   27.4450   50.3120 H   0  0  0  0  0  0  0  0  0  0  0  0
   27.4470   29.6330   49.4480 H   0  0  0  0  0  0  0  0  0  0  0  0
   29.7070   28.1480   45.8540 C   0  0  0  0  0  0  0  0  0  0  0  0
   28.5740   28.7370   45.2630 F   0  0  0  0  0  0  0  0  0  0  0  0
   30.8110   28.6830   45.3000 F   0  0  0  0  0  0  0  0  0  0  0  0
   29.6120   26.8090   45.4680 F   0  0  0  0  0  0  0  0  0  0  0  0
   33.1000   29.2370   47.5940 S   0  0  0  0  0  0  0  0  0  0  0  0
   34.0910   29.4390   50.5380 Cl  0  0  0  0  0  0  0  0  0  0  0  0
   35.1500   29.8510   49.2080 C   0  0  0  0  0  0  0  0  0  0  0  0
   34.7510   29.8040   47.8780 C   0  0  0  0  0  0  0  0  0  0  0  0
   35.6090   30.1680   46.8830 C   0  0  0  0  0  0  0  0  0  0  0  0
   36.8870   30.5810   47.2230 C   0  0  0  0  0  0  0  0  0  0  0  0
   37.2930   30.6300   48.5490 C   0  0  0  0  0  0  0  0  0  0  0  0
   36.4240   30.2630   49.5700 C   0  0  0  0  0  0  0  0  0  0  0  0
   35.3930   30.2030   45.8460 H   0  0  0  0  0  0  0  0  0  0  0  0
   37.6480   30.8900   46.5190 H   0  0  0  0  0  0  0  0  0  0  0  0
   38.2960   30.9520   48.8360 H   0  0  0  0  0  0  0  0  0  0  0  0
   36.8480   30.3120   50.9650 C   0  0  0  0  0  0  0  0  0  0  0  0
   36.6850   31.1900   51.5390 H   0  0  0  0  0  0  0  0  0  0  0  0
   37.4030   29.3000   51.4600 O   0  0  0  0  0  0  0  0  0  0  0  0
  1 12  1  0  0  0  0
  2  1  1  0  0  0  0
  2  7  1  0  0  0  0
  3  2  2  0  0  0  0
  4  5  2  0  0  0  0
  4  3  1  0  0  0  0
  5  6  1  0  0  0  0
  6 23  1  0  0  0  0
  6  1  2  0  0  0  0
  8  3  1  0  0  0  0
  9  4  1  0  0  0  0
 10  5  1  0  0  0  0
 11 16  1  0  0  0  0
 11 17  1  0  0  0  0
 12 11  2  0  0  0  0
 13 14  2  0  0  0  0
 13 12  1  0  0  0  0
 14 15  1  0  0  0  0
 15 18  1  0  0  0  0
 15 16  2  0  0  0  0
 19 13  1  0  0  0  0
 20 19  1  0  0  0  0
 21 19  1  0  0  0  0
 22 19  1  0  0  0  0
 23 26  1  0  0  0  0
 25 30  1  0  0  0  0
 25 24  1  0  0  0  0
 26 25  2  0  0  0  0
 27 28  2  0  0  0  0
 27 26  1  0  0  0  0
 28 29  1  0  0  0  0
 29 33  1  0  0  0  0
 29 30  2  0  0  0  0
 30 34  1  0  0  0  0
 31 27  1  0  0  0  0
 32 28  1  0  0  0  0
 34 36  2  0  0  0  0
 34 35  1  0  0  0  0
M  END
>  <minimizedAffinity>
-5.55988979

>  <minimizedRMSD>
3.23717761

$$$$
