
 OpenBabel03272509233D

 40 43  0  0  0  0  0  0  0  0999 V2000
   37.3610   26.3920   32.2710 C   0  0  0  0  0  0  0  0  0  0  0  0
   36.2070   26.8650   31.6880 C   0  0  0  0  0  0  0  0  0  0  0  0
   35.3780   25.8720   31.1470 C   0  0  0  0  0  0  0  0  0  0  0  0
   35.7240   24.5120   31.2110 C   0  0  0  0  0  0  0  0  0  0  0  0
   36.9350   24.1300   31.8320 C   0  0  0  0  0  0  0  0  0  0  0  0
   37.7560   25.1110   32.3680 C   0  0  0  0  0  0  0  0  0  0  0  0
   34.4450   26.1210   30.6630 H   0  0  0  0  0  0  0  0  0  0  0  0
   35.0630   23.7680   30.7830 H   0  0  0  0  0  0  0  0  0  0  0  0
   37.1720   23.0780   31.8650 H   0  0  0  0  0  0  0  0  0  0  0  0
   35.0160   28.7920   32.5900 C   0  0  0  0  0  0  0  0  0  0  0  0
   35.8500   28.2450   31.6200 C   0  0  0  0  0  0  0  0  0  0  0  0
   36.3140   29.0920   30.5950 C   0  0  0  0  0  0  0  0  0  0  0  0
   35.9230   30.3830   30.6130 N   0  0  0  0  0  0  0  0  0  0  0  0
   35.1010   30.8850   31.5870 C   0  0  0  0  0  0  0  0  0  0  0  0
   34.6570   30.0890   32.5600 N   0  0  0  0  0  0  0  0  0  0  0  0
   34.6600   28.1410   33.3760 H   0  0  0  0  0  0  0  0  0  0  0  0
   34.8690   31.9320   31.4790 H   0  0  0  0  0  0  0  0  0  0  0  0
   37.2070   28.5550   29.5360 C   0  0  0  0  0  0  0  0  0  0  0  0
   36.5510   28.1720   28.7250 H   0  0  0  0  0  0  0  0  0  0  0  0
   37.7260   27.6780   29.9880 H   0  0  0  0  0  0  0  0  0  0  0  0
   37.9280   29.3150   29.1670 H   0  0  0  0  0  0  0  0  0  0  0  0
   38.2490   27.3130   32.8370 O   0  0  0  0  0  0  0  0  0  0  0  0
   38.2170   27.6050   33.8010 H   0  0  0  0  0  0  0  0  0  0  0  0
   38.9210   24.6610   32.9590 O   0  0  0  0  0  0  0  0  0  0  0  0
   38.2640   24.3760   35.3470 C   0  0  0  0  0  0  0  0  0  0  0  0
   39.0600   24.1770   34.2310 C   0  0  0  0  0  0  0  0  0  0  0  0
   40.1980   23.3720   34.3450 C   0  0  0  0  0  0  0  0  0  0  0  0
   40.5260   22.7730   35.5780 C   0  0  0  0  0  0  0  0  0  0  0  0
   41.5070   21.9760   36.0090 N   0  0  0  0  0  0  0  0  0  0  0  0
   41.3530   21.6850   37.3030 C   0  0  0  0  0  0  0  0  0  0  0  0
   40.2180   22.3320   37.7010 N   0  0  0  0  0  0  0  0  0  0  0  0
   39.6950   23.0050   36.6600 C   0  0  0  0  0  0  0  0  0  0  0  0
   38.5800   23.7950   36.5470 C   0  0  0  0  0  0  0  0  0  0  0  0
   37.4110   25.0130   35.1540 H   0  0  0  0  0  0  0  0  0  0  0  0
   40.9040   23.1370   33.5490 H   0  0  0  0  0  0  0  0  0  0  0  0
   42.2820   21.6400   35.3880 H   0  0  0  0  0  0  0  0  0  0  0  0
   41.9670   21.0700   37.9520 H   0  0  0  0  0  0  0  0  0  0  0  0
   37.7260   24.0280   37.6780 C   0  0  0  0  0  0  0  0  0  0  0  0
   36.7260   23.6310   37.7480 H   0  0  0  0  0  0  0  0  0  0  0  0
   38.0310   24.7010   38.6930 O   0  0  0  0  0  0  0  0  0  0  0  0
  1  6  1  0  0  0  0
  1 22  1  0  0  0  0
  2  1  2  0  0  0  0
  3  4  2  0  0  0  0
  3  2  1  0  0  0  0
  4  5  1  0  0  0  0
  5  9  1  0  0  0  0
  5  6  2  0  0  0  0
  6 24  1  0  0  0  0
  7  3  1  0  0  0  0
  8  4  1  0  0  0  0
 10 16  1  0  0  0  0
 11  2  1  0  0  0  0
 11 10  2  0  0  0  0
 12 13  2  0  0  0  0
 12 11  1  0  0  0  0
 13 14  1  0  0  0  0
 14 15  2  0  0  0  0
 15 10  1  0  0  0  0
 17 14  1  0  0  0  0
 18 20  1  0  0  0  0
 18 12  1  0  0  0  0
 19 18  1  0  0  0  0
 21 18  1  0  0  0  0
 22 23  1  0  0  0  0
 24 26  1  0  0  0  0
 25 33  1  0  0  0  0
 26 27  1  0  0  0  0
 26 25  2  0  0  0  0
 27 28  2  0  0  0  0
 28 29  1  0  0  0  0
 28 32  1  0  0  0  0
 29 30  1  0  0  0  0
 30 31  2  0  0  0  0
 30 37  1  0  0  0  0
 32 31  1  0  0  0  0
 33 32  2  0  0  0  0
 33 38  1  0  0  0  0
 34 25  1  0  0  0  0
 35 27  1  0  0  0  0
 36 29  1  0  0  0  0
 38 39  1  0  0  0  0
 38 40  2  0  0  0  0
M  END
>  <minimizedAffinity>
-5.99918652

$$$$

 OpenBabel03272509233D

 40 43  0  0  0  0  0  0  0  0999 V2000
   37.5730   27.0200   34.8010 C   0  0  0  0  0  0  0  0  0  0  0  0
   37.7760   25.6780   34.5660 C   0  0  0  0  0  0  0  0  0  0  0  0
   37.2950   25.2250   33.3300 C   0  0  0  0  0  0  0  0  0  0  0  0
   36.6610   26.0920   32.4250 C   0  0  0  0  0  0  0  0  0  0  0  0
   36.5010   27.4550   32.7630 C   0  0  0  0  0  0  0  0  0  0  0  0
   36.9770   27.9070   33.9860 C   0  0  0  0  0  0  0  0  0  0  0  0
   37.3960   24.1910   33.0340 H   0  0  0  0  0  0  0  0  0  0  0  0
   36.2990   25.7100   31.4780 H   0  0  0  0  0  0  0  0  0  0  0  0
   36.0110   28.0960   32.0470 H   0  0  0  0  0  0  0  0  0  0  0  0
   37.6890   24.2180   36.5170 C   0  0  0  0  0  0  0  0  0  0  0  0
   38.4190   24.7920   35.4810 C   0  0  0  0  0  0  0  0  0  0  0  0
   39.7860   24.4670   35.3770 C   0  0  0  0  0  0  0  0  0  0  0  0
   40.3070   23.6190   36.2890 N   0  0  0  0  0  0  0  0  0  0  0  0
   39.5540   23.0740   37.2950 C   0  0  0  0  0  0  0  0  0  0  0  0
   38.2600   23.3780   37.4000 N   0  0  0  0  0  0  0  0  0  0  0  0
   36.6400   24.4680   36.5950 H   0  0  0  0  0  0  0  0  0  0  0  0
   40.0980   22.4150   37.9520 H   0  0  0  0  0  0  0  0  0  0  0  0
   40.6070   25.0530   34.2880 C   0  0  0  0  0  0  0  0  0  0  0  0
   41.0130   26.0140   34.6720 H   0  0  0  0  0  0  0  0  0  0  0  0
   39.8970   25.2960   33.4640 H   0  0  0  0  0  0  0  0  0  0  0  0
   41.4120   24.3660   33.9490 H   0  0  0  0  0  0  0  0  0  0  0  0
   38.0210   27.5610   36.0110 O   0  0  0  0  0  0  0  0  0  0  0  0
   38.9350   27.9650   36.1410 H   0  0  0  0  0  0  0  0  0  0  0  0
   36.7850   29.2500   34.2450 O   0  0  0  0  0  0  0  0  0  0  0  0
   34.3240   29.5690   34.4910 C   0  0  0  0  0  0  0  0  0  0  0  0
   35.6570   29.8320   34.7570 C   0  0  0  0  0  0  0  0  0  0  0  0
   35.9800   30.8330   35.6800 C   0  0  0  0  0  0  0  0  0  0  0  0
   34.9600   31.5590   36.3270 C   0  0  0  0  0  0  0  0  0  0  0  0
   34.9300   32.5440   37.2290 N   0  0  0  0  0  0  0  0  0  0  0  0
   33.6730   32.8860   37.5200 C   0  0  0  0  0  0  0  0  0  0  0  0
   32.8770   32.0760   36.7620 N   0  0  0  0  0  0  0  0  0  0  0  0
   33.6450   31.2550   36.0230 C   0  0  0  0  0  0  0  0  0  0  0  0
   33.3310   30.2740   35.1180 C   0  0  0  0  0  0  0  0  0  0  0  0
   34.1830   28.7800   33.7640 H   0  0  0  0  0  0  0  0  0  0  0  0
   36.9830   31.1360   35.9780 H   0  0  0  0  0  0  0  0  0  0  0  0
   35.7970   32.9700   37.6370 H   0  0  0  0  0  0  0  0  0  0  0  0
   33.3020   33.6420   38.2050 H   0  0  0  0  0  0  0  0  0  0  0  0
   31.9610   29.9680   34.8120 C   0  0  0  0  0  0  0  0  0  0  0  0
   31.3670   30.5600   34.1340 H   0  0  0  0  0  0  0  0  0  0  0  0
   31.3090   29.0040   35.2800 O   0  0  0  0  0  0  0  0  0  0  0  0
  1 22  1  0  0  0  0
  2  1  1  0  0  0  0
  2 11  1  0  0  0  0
  3  2  2  0  0  0  0
  4  5  2  0  0  0  0
  4  3  1  0  0  0  0
  5  6  1  0  0  0  0
  6 24  1  0  0  0  0
  6  1  2  0  0  0  0
  7  3  1  0  0  0  0
  8  4  1  0  0  0  0
  9  5  1  0  0  0  0
 10 16  1  0  0  0  0
 10 15  1  0  0  0  0
 11 10  2  0  0  0  0
 12 11  1  0  0  0  0
 12 13  2  0  0  0  0
 13 14  1  0  0  0  0
 14 15  2  0  0  0  0
 14 17  1  0  0  0  0
 18 19  1  0  0  0  0
 18 12  1  0  0  0  0
 20 18  1  0  0  0  0
 21 18  1  0  0  0  0
 22 23  1  0  0  0  0
 24 26  1  0  0  0  0
 25 26  2  0  0  0  0
 25 33  1  0  0  0  0
 26 27  1  0  0  0  0
 27 35  1  0  0  0  0
 27 28  2  0  0  0  0
 28 29  1  0  0  0  0
 29 30  1  0  0  0  0
 29 36  1  0  0  0  0
 30 37  1  0  0  0  0
 31 30  2  0  0  0  0
 32 28  1  0  0  0  0
 32 31  1  0  0  0  0
 33 32  2  0  0  0  0
 34 25  1  0  0  0  0
 38 33  1  0  0  0  0
 38 40  2  0  0  0  0
 39 38  1  0  0  0  0
M  END
>  <minimizedAffinity>
-5.78877831

$$$$

 OpenBabel03272509233D

 40 43  0  0  0  0  0  0  0  0999 V2000
   37.9780   26.1290   32.1220 C   0  0  0  0  0  0  0  0  0  0  0  0
   36.8660   26.6950   31.5400 C   0  0  0  0  0  0  0  0  0  0  0  0
   35.8330   25.7910   31.2580 C   0  0  0  0  0  0  0  0  0  0  0  0
   35.9500   24.4250   31.5570 C   0  0  0  0  0  0  0  0  0  0  0  0
   37.1370   23.9420   32.1560 C   0  0  0  0  0  0  0  0  0  0  0  0
   38.1610   24.8350   32.4360 C   0  0  0  0  0  0  0  0  0  0  0  0
   34.9100   26.1190   30.8000 H   0  0  0  0  0  0  0  0  0  0  0  0
   35.1340   23.7510   31.3270 H   0  0  0  0  0  0  0  0  0  0  0  0
   37.1970   22.8880   32.3740 H   0  0  0  0  0  0  0  0  0  0  0  0
   37.0340   28.5380   29.9520 C   0  0  0  0  0  0  0  0  0  0  0  0
   36.7400   28.0830   31.2330 C   0  0  0  0  0  0  0  0  0  0  0  0
   36.3230   29.0300   32.1900 C   0  0  0  0  0  0  0  0  0  0  0  0
   36.2330   30.3200   31.8080 N   0  0  0  0  0  0  0  0  0  0  0  0
   36.5310   30.7290   30.5350 C   0  0  0  0  0  0  0  0  0  0  0  0
   36.9270   29.8400   29.6240 N   0  0  0  0  0  0  0  0  0  0  0  0
   37.3540   27.8110   29.2180 H   0  0  0  0  0  0  0  0  0  0  0  0
   36.4170   31.7880   30.3680 H   0  0  0  0  0  0  0  0  0  0  0  0
   35.9970   28.5930   33.5710 C   0  0  0  0  0  0  0  0  0  0  0  0
   36.9430   28.6350   34.1540 H   0  0  0  0  0  0  0  0  0  0  0  0
   35.7000   27.5220   33.4930 H   0  0  0  0  0  0  0  0  0  0  0  0
   35.1960   29.2100   34.0310 H   0  0  0  0  0  0  0  0  0  0  0  0
   39.0610   26.9570   32.4390 O   0  0  0  0  0  0  0  0  0  0  0  0
   39.1750   27.4150   33.3290 H   0  0  0  0  0  0  0  0  0  0  0  0
   39.2880   24.2900   33.0210 O   0  0  0  0  0  0  0  0  0  0  0  0
   40.2440   22.8870   34.8470 C   0  0  0  0  0  0  0  0  0  0  0  0
   39.4110   23.8550   34.3120 C   0  0  0  0  0  0  0  0  0  0  0  0
   38.5290   24.5340   35.1610 C   0  0  0  0  0  0  0  0  0  0  0  0
   38.4950   24.2350   36.5380 C   0  0  0  0  0  0  0  0  0  0  0  0
   37.7950   24.6840   37.5830 N   0  0  0  0  0  0  0  0  0  0  0  0
   38.1540   24.0530   38.7040 C   0  0  0  0  0  0  0  0  0  0  0  0
   39.1260   23.1640   38.3410 N   0  0  0  0  0  0  0  0  0  0  0  0
   39.3500   23.2590   37.0170 C   0  0  0  0  0  0  0  0  0  0  0  0
   40.2130   22.5940   36.1850 C   0  0  0  0  0  0  0  0  0  0  0  0
   40.8850   22.4230   34.1090 H   0  0  0  0  0  0  0  0  0  0  0  0
   37.8250   25.3120   34.8690 H   0  0  0  0  0  0  0  0  0  0  0  0
   37.0680   25.4350   37.5020 H   0  0  0  0  0  0  0  0  0  0  0  0
   37.7860   24.1770   39.7170 H   0  0  0  0  0  0  0  0  0  0  0  0
   41.0960   21.5840   36.6960 C   0  0  0  0  0  0  0  0  0  0  0  0
   40.7840   20.5650   36.8640 H   0  0  0  0  0  0  0  0  0  0  0  0
   42.3010   21.7570   37.0010 O   0  0  0  0  0  0  0  0  0  0  0  0
  1  6  1  0  0  0  0
  1 22  1  0  0  0  0
  2  1  2  0  0  0  0
  3  2  1  0  0  0  0
  3  4  2  0  0  0  0
  4  5  1  0  0  0  0
  5  9  1  0  0  0  0
  5  6  2  0  0  0  0
  6 24  1  0  0  0  0
  7  3  1  0  0  0  0
  8  4  1  0  0  0  0
 10 11  1  0  0  0  0
 11  2  1  0  0  0  0
 11 12  2  0  0  0  0
 12 18  1  0  0  0  0
 13 12  1  0  0  0  0
 14 13  2  0  0  0  0
 15 10  2  0  0  0  0
 15 14  1  0  0  0  0
 16 10  1  0  0  0  0
 17 14  1  0  0  0  0
 18 21  1  0  0  0  0
 18 19  1  0  0  0  0
 20 18  1  0  0  0  0
 22 23  1  0  0  0  0
 24 26  1  0  0  0  0
 25 33  1  0  0  0  0
 26 25  2  0  0  0  0
 26 27  1  0  0  0  0
 27 28  2  0  0  0  0
 28 32  1  0  0  0  0
 28 29  1  0  0  0  0
 29 30  1  0  0  0  0
 30 37  1  0  0  0  0
 31 30  2  0  0  0  0
 32 31  1  0  0  0  0
 33 38  1  0  0  0  0
 33 32  2  0  0  0  0
 34 25  1  0  0  0  0
 35 27  1  0  0  0  0
 36 29  1  0  0  0  0
 38 39  1  0  0  0  0
 38 40  2  0  0  0  0
M  END
>  <minimizedAffinity>
-5.69956732

$$$$

 OpenBabel03272509233D

 40 43  0  0  0  0  0  0  0  0999 V2000
   36.6070   26.4250   31.1710 C   0  0  0  0  0  0  0  0  0  0  0  0
   37.4580   27.5060   31.2260 C   0  0  0  0  0  0  0  0  0  0  0  0
   38.3520   27.4900   32.3060 C   0  0  0  0  0  0  0  0  0  0  0  0
   38.3550   26.4420   33.2400 C   0  0  0  0  0  0  0  0  0  0  0  0
   37.4370   25.3760   33.0960 C   0  0  0  0  0  0  0  0  0  0  0  0
   36.5520   25.3900   32.0270 C   0  0  0  0  0  0  0  0  0  0  0  0
   39.0680   28.2850   32.4530 H   0  0  0  0  0  0  0  0  0  0  0  0
   39.0570   26.4590   34.0650 H   0  0  0  0  0  0  0  0  0  0  0  0
   37.4640   24.5870   33.8290 H   0  0  0  0  0  0  0  0  0  0  0  0
   38.1850   28.4490   29.0980 C   0  0  0  0  0  0  0  0  0  0  0  0
   37.4610   28.5730   30.2780 C   0  0  0  0  0  0  0  0  0  0  0  0
   36.7470   29.7690   30.4920 C   0  0  0  0  0  0  0  0  0  0  0  0
   36.8080   30.7230   29.5400 N   0  0  0  0  0  0  0  0  0  0  0  0
   37.5340   30.5620   28.3890 C   0  0  0  0  0  0  0  0  0  0  0  0
   38.2120   29.4340   28.1800 N   0  0  0  0  0  0  0  0  0  0  0  0
   38.7320   27.5310   28.9350 H   0  0  0  0  0  0  0  0  0  0  0  0
   37.4950   31.4040   27.7170 H   0  0  0  0  0  0  0  0  0  0  0  0
   35.9580   29.9500   31.7370 C   0  0  0  0  0  0  0  0  0  0  0  0
   36.6430   30.3930   32.4910 H   0  0  0  0  0  0  0  0  0  0  0  0
   35.6960   28.9240   32.0860 H   0  0  0  0  0  0  0  0  0  0  0  0
   35.0530   30.5740   31.5770 H   0  0  0  0  0  0  0  0  0  0  0  0
   35.6800   26.3570   30.1260 O   0  0  0  0  0  0  0  0  0  0  0  0
   35.8590   25.9020   29.2450 H   0  0  0  0  0  0  0  0  0  0  0  0
   35.6870   24.3150   31.9510 O   0  0  0  0  0  0  0  0  0  0  0  0
   35.3740   21.8440   32.0520 C   0  0  0  0  0  0  0  0  0  0  0  0
   36.0190   23.0140   31.6880 C   0  0  0  0  0  0  0  0  0  0  0  0
   37.1980   22.9350   30.9390 C   0  0  0  0  0  0  0  0  0  0  0  0
   37.7160   21.6800   30.5600 C   0  0  0  0  0  0  0  0  0  0  0  0
   38.7830   21.2700   29.8670 N   0  0  0  0  0  0  0  0  0  0  0  0
   38.8190   19.9380   29.7910 C   0  0  0  0  0  0  0  0  0  0  0  0
   37.7210   19.4920   30.4700 N   0  0  0  0  0  0  0  0  0  0  0  0
   37.0310   20.5440   30.9500 C   0  0  0  0  0  0  0  0  0  0  0  0
   35.8770   20.6230   31.6850 C   0  0  0  0  0  0  0  0  0  0  0  0
   34.4750   22.0140   32.6290 H   0  0  0  0  0  0  0  0  0  0  0  0
   37.7980   23.7740   30.5910 H   0  0  0  0  0  0  0  0  0  0  0  0
   39.4800   21.9330   29.4510 H   0  0  0  0  0  0  0  0  0  0  0  0
   39.5430   19.2910   29.3060 H   0  0  0  0  0  0  0  0  0  0  0  0
   35.1750   19.4340   32.0830 C   0  0  0  0  0  0  0  0  0  0  0  0
   34.4260   18.9630   31.4660 H   0  0  0  0  0  0  0  0  0  0  0  0
   35.3430   18.8190   33.1630 O   0  0  0  0  0  0  0  0  0  0  0  0
  1  2  2  0  0  0  0
  1  6  1  0  0  0  0
  2  3  1  0  0  0  0
  3  7  1  0  0  0  0
  3  4  2  0  0  0  0
  4  8  1  0  0  0  0
  5  4  1  0  0  0  0
  5  9  1  0  0  0  0
  6  5  2  0  0  0  0
 10 11  1  0  0  0  0
 11 12  2  0  0  0  0
 11  2  1  0  0  0  0
 12 18  1  0  0  0  0
 13 12  1  0  0  0  0
 14 13  2  0  0  0  0
 15 14  1  0  0  0  0
 15 10  2  0  0  0  0
 16 10  1  0  0  0  0
 17 14  1  0  0  0  0
 18 20  1  0  0  0  0
 18 19  1  0  0  0  0
 21 18  1  0  0  0  0
 22  1  1  0  0  0  0
 23 22  1  0  0  0  0
 24  6  1  0  0  0  0
 25 34  1  0  0  0  0
 26 24  1  0  0  0  0
 26 25  1  0  0  0  0
 27 26  2  0  0  0  0
 28 27  1  0  0  0  0
 28 32  2  0  0  0  0
 29 28  1  0  0  0  0
 30 29  1  0  0  0  0
 30 31  2  0  0  0  0
 31 32  1  0  0  0  0
 32 33  1  0  0  0  0
 33 25  2  0  0  0  0
 33 38  1  0  0  0  0
 35 27  1  0  0  0  0
 36 29  1  0  0  0  0
 37 30  1  0  0  0  0
 38 40  2  0  0  0  0
 39 38  1  0  0  0  0
M  END
>  <minimizedAffinity>
-5.61499357

$$$$

 OpenBabel03272509233D

 40 43  0  0  0  0  0  0  0  0999 V2000
   38.0150   25.5320   34.1430 C   0  0  0  0  0  0  0  0  0  0  0  0
   38.8000   25.3440   35.2580 C   0  0  0  0  0  0  0  0  0  0  0  0
   38.7970   26.4170   36.1600 C   0  0  0  0  0  0  0  0  0  0  0  0
   38.0440   27.5770   35.9180 C   0  0  0  0  0  0  0  0  0  0  0  0
   37.2700   27.6720   34.7390 C   0  0  0  0  0  0  0  0  0  0  0  0
   37.2710   26.6110   33.8450 C   0  0  0  0  0  0  0  0  0  0  0  0
   39.3750   26.3850   37.0720 H   0  0  0  0  0  0  0  0  0  0  0  0
   38.0630   28.3900   36.6350 H   0  0  0  0  0  0  0  0  0  0  0  0
   36.7020   28.5760   34.5820 H   0  0  0  0  0  0  0  0  0  0  0  0
   40.8680   24.0720   35.0260 C   0  0  0  0  0  0  0  0  0  0  0  0
   39.5670   24.1670   35.5100 C   0  0  0  0  0  0  0  0  0  0  0  0
   39.0540   23.0770   36.2410 C   0  0  0  0  0  0  0  0  0  0  0  0
   39.8530   22.0070   36.4290 N   0  0  0  0  0  0  0  0  0  0  0  0
   41.1300   21.9520   35.9360 C   0  0  0  0  0  0  0  0  0  0  0  0
   41.6220   22.9790   35.2420 N   0  0  0  0  0  0  0  0  0  0  0  0
   41.2600   24.9090   34.4650 H   0  0  0  0  0  0  0  0  0  0  0  0
   41.6560   21.0380   36.1590 H   0  0  0  0  0  0  0  0  0  0  0  0
   37.6710   23.1310   36.7800 C   0  0  0  0  0  0  0  0  0  0  0  0
   37.0020   22.7290   35.9880 H   0  0  0  0  0  0  0  0  0  0  0  0
   37.4310   24.2120   36.9030 H   0  0  0  0  0  0  0  0  0  0  0  0
   37.5690   22.5750   37.7360 H   0  0  0  0  0  0  0  0  0  0  0  0
   37.9570   24.5120   33.1870 O   0  0  0  0  0  0  0  0  0  0  0  0
   37.2740   23.7720   33.1960 H   0  0  0  0  0  0  0  0  0  0  0  0
   36.4910   26.7770   32.7170 O   0  0  0  0  0  0  0  0  0  0  0  0
   35.9940   29.0360   31.7870 C   0  0  0  0  0  0  0  0  0  0  0  0
   36.5860   27.7850   31.7970 C   0  0  0  0  0  0  0  0  0  0  0  0
   37.4220   27.4220   30.7350 C   0  0  0  0  0  0  0  0  0  0  0  0
   37.6560   28.3210   29.6750 C   0  0  0  0  0  0  0  0  0  0  0  0
   38.3760   28.2860   28.5500 N   0  0  0  0  0  0  0  0  0  0  0  0
   38.2560   29.4290   27.8710 C   0  0  0  0  0  0  0  0  0  0  0  0
   37.4180   30.2180   28.6070 N   0  0  0  0  0  0  0  0  0  0  0  0
   37.0390   29.5580   29.7180 C   0  0  0  0  0  0  0  0  0  0  0  0
   36.2200   29.9120   30.7580 C   0  0  0  0  0  0  0  0  0  0  0  0
   35.3680   29.2170   32.6500 H   0  0  0  0  0  0  0  0  0  0  0  0
   37.9460   26.4730   30.6220 H   0  0  0  0  0  0  0  0  0  0  0  0
   38.9500   27.4560   28.2670 H   0  0  0  0  0  0  0  0  0  0  0  0
   38.7040   29.7250   26.9280 H   0  0  0  0  0  0  0  0  0  0  0  0
   35.5850   31.2000   30.7890 C   0  0  0  0  0  0  0  0  0  0  0  0
   34.5580   31.3530   30.5000 H   0  0  0  0  0  0  0  0  0  0  0  0
   36.1320   32.2710   31.1460 O   0  0  0  0  0  0  0  0  0  0  0  0
  1  2  1  0  0  0  0
  2 11  1  0  0  0  0
  2  3  2  0  0  0  0
  3  7  1  0  0  0  0
  4  3  1  0  0  0  0
  4  8  1  0  0  0  0
  5  4  2  0  0  0  0
  6  1  2  0  0  0  0
  6  5  1  0  0  0  0
  9  5  1  0  0  0  0
 10 15  2  0  0  0  0
 10 11  1  0  0  0  0
 11 12  2  0  0  0  0
 12 13  1  0  0  0  0
 12 18  1  0  0  0  0
 14 17  1  0  0  0  0
 14 13  2  0  0  0  0
 15 14  1  0  0  0  0
 16 10  1  0  0  0  0
 18 20  1  0  0  0  0
 18 21  1  0  0  0  0
 19 18  1  0  0  0  0
 22 23  1  0  0  0  0
 22  1  1  0  0  0  0
 24  6  1  0  0  0  0
 25 26  1  0  0  0  0
 25 34  1  0  0  0  0
 26 24  1  0  0  0  0
 27 26  2  0  0  0  0
 28 32  2  0  0  0  0
 28 27  1  0  0  0  0
 29 28  1  0  0  0  0
 30 29  1  0  0  0  0
 30 31  2  0  0  0  0
 31 32  1  0  0  0  0
 32 33  1  0  0  0  0
 33 38  1  0  0  0  0
 33 25  2  0  0  0  0
 35 27  1  0  0  0  0
 36 29  1  0  0  0  0
 37 30  1  0  0  0  0
 38 40  2  0  0  0  0
 39 38  1  0  0  0  0
M  END
>  <minimizedAffinity>
-5.5842948

$$$$

 OpenBabel03272509233D

 40 43  0  0  0  0  0  0  0  0999 V2000
   36.6380   27.7670   32.8330 C   0  0  0  0  0  0  0  0  0  0  0  0
   36.7900   27.3010   31.5460 C   0  0  0  0  0  0  0  0  0  0  0  0
   36.5090   28.2450   30.5480 C   0  0  0  0  0  0  0  0  0  0  0  0
   36.1080   29.5530   30.8660 C   0  0  0  0  0  0  0  0  0  0  0  0
   35.9810   29.9320   32.2210 C   0  0  0  0  0  0  0  0  0  0  0  0
   36.2590   29.0000   33.2110 C   0  0  0  0  0  0  0  0  0  0  0  0
   36.5920   27.9950   29.5000 H   0  0  0  0  0  0  0  0  0  0  0  0
   35.8980   30.2590   30.0710 H   0  0  0  0  0  0  0  0  0  0  0  0
   35.6720   30.9430   32.4330 H   0  0  0  0  0  0  0  0  0  0  0  0
   38.5510   25.6720   31.1110 C   0  0  0  0  0  0  0  0  0  0  0  0
   37.1970   25.9740   31.2160 C   0  0  0  0  0  0  0  0  0  0  0  0
   36.2700   24.9380   30.9900 C   0  0  0  0  0  0  0  0  0  0  0  0
   36.7490   23.7140   30.6830 N   0  0  0  0  0  0  0  0  0  0  0  0
   38.0910   23.4560   30.5900 C   0  0  0  0  0  0  0  0  0  0  0  0
   38.9740   24.4320   30.8020 N   0  0  0  0  0  0  0  0  0  0  0  0
   39.2610   26.4680   31.2850 H   0  0  0  0  0  0  0  0  0  0  0  0
   38.3320   22.4360   30.3370 H   0  0  0  0  0  0  0  0  0  0  0  0
   34.8140   25.2100   31.0910 C   0  0  0  0  0  0  0  0  0  0  0  0
   34.4760   25.5370   30.0830 H   0  0  0  0  0  0  0  0  0  0  0  0
   34.7110   26.0820   31.7770 H   0  0  0  0  0  0  0  0  0  0  0  0
   34.2440   24.3300   31.4570 H   0  0  0  0  0  0  0  0  0  0  0  0
   36.8970   26.8940   33.8940 O   0  0  0  0  0  0  0  0  0  0  0  0
   37.7980   26.7980   34.3350 H   0  0  0  0  0  0  0  0  0  0  0  0
   36.1140   29.4450   34.5110 O   0  0  0  0  0  0  0  0  0  0  0  0
   33.7100   30.0430   34.7880 C   0  0  0  0  0  0  0  0  0  0  0  0
   35.0700   30.1700   35.0160 C   0  0  0  0  0  0  0  0  0  0  0  0
   35.5220   31.1710   35.8830 C   0  0  0  0  0  0  0  0  0  0  0  0
   34.6030   32.0340   36.5130 C   0  0  0  0  0  0  0  0  0  0  0  0
   34.7020   33.0570   37.3660 N   0  0  0  0  0  0  0  0  0  0  0  0
   33.4970   33.5490   37.6640 C   0  0  0  0  0  0  0  0  0  0  0  0
   32.6000   32.7970   36.9620 N   0  0  0  0  0  0  0  0  0  0  0  0
   33.2560   31.8620   36.2490 C   0  0  0  0  0  0  0  0  0  0  0  0
   32.8140   30.8810   35.4000 C   0  0  0  0  0  0  0  0  0  0  0  0
   33.4660   29.2410   34.1040 H   0  0  0  0  0  0  0  0  0  0  0  0
   36.5590   31.3760   36.1460 H   0  0  0  0  0  0  0  0  0  0  0  0
   35.6200   33.4040   37.7360 H   0  0  0  0  0  0  0  0  0  0  0  0
   33.2280   34.3710   38.3190 H   0  0  0  0  0  0  0  0  0  0  0  0
   31.4130   30.7140   35.1350 C   0  0  0  0  0  0  0  0  0  0  0  0
   30.7630   31.5360   34.8830 H   0  0  0  0  0  0  0  0  0  0  0  0
   30.7930   29.6230   35.1640 O   0  0  0  0  0  0  0  0  0  0  0  0
  1  6  1  0  0  0  0
  1 22  1  0  0  0  0
  2  1  2  0  0  0  0
  3  4  2  0  0  0  0
  3  2  1  0  0  0  0
  4  5  1  0  0  0  0
  5  9  1  0  0  0  0
  5  6  2  0  0  0  0
  6 24  1  0  0  0  0
  7  3  1  0  0  0  0
  8  4  1  0  0  0  0
 10 11  1  0  0  0  0
 10 16  1  0  0  0  0
 11  2  1  0  0  0  0
 12 18  1  0  0  0  0
 12 11  2  0  0  0  0
 13 12  1  0  0  0  0
 14 13  2  0  0  0  0
 14 15  1  0  0  0  0
 15 10  2  0  0  0  0
 17 14  1  0  0  0  0
 18 21  1  0  0  0  0
 18 20  1  0  0  0  0
 19 18  1  0  0  0  0
 22 23  1  0  0  0  0
 24 26  1  0  0  0  0
 25 26  2  0  0  0  0
 25 33  1  0  0  0  0
 26 27  1  0  0  0  0
 27 35  1  0  0  0  0
 27 28  2  0  0  0  0
 28 29  1  0  0  0  0
 29 30  1  0  0  0  0
 29 36  1  0  0  0  0
 30 37  1  0  0  0  0
 31 30  2  0  0  0  0
 32 28  1  0  0  0  0
 32 31  1  0  0  0  0
 33 32  2  0  0  0  0
 34 25  1  0  0  0  0
 38 40  2  0  0  0  0
 38 33  1  0  0  0  0
 39 38  1  0  0  0  0
M  END
>  <minimizedAffinity>
-5.58396196

$$$$

 OpenBabel03272509233D

 40 43  0  0  0  0  0  0  0  0999 V2000
   36.3140   26.5310   31.4610 C   0  0  0  0  0  0  0  0  0  0  0  0
   36.2780   27.6290   32.2920 C   0  0  0  0  0  0  0  0  0  0  0  0
   37.0610   27.5100   33.4480 C   0  0  0  0  0  0  0  0  0  0  0  0
   37.8120   26.3530   33.7110 C   0  0  0  0  0  0  0  0  0  0  0  0
   37.7800   25.2780   32.7930 C   0  0  0  0  0  0  0  0  0  0  0  0
   37.0060   25.3940   31.6470 C   0  0  0  0  0  0  0  0  0  0  0  0
   37.1130   28.3070   34.1760 H   0  0  0  0  0  0  0  0  0  0  0  0
   38.4080   26.2910   34.6140 H   0  0  0  0  0  0  0  0  0  0  0  0
   38.3680   24.4040   33.0220 H   0  0  0  0  0  0  0  0  0  0  0  0
   34.2970   28.9990   32.6700 C   0  0  0  0  0  0  0  0  0  0  0  0
   35.5170   28.8080   32.0310 C   0  0  0  0  0  0  0  0  0  0  0  0
   35.9580   29.8040   31.1370 C   0  0  0  0  0  0  0  0  0  0  0  0
   35.1710   30.8840   30.9530 N   0  0  0  0  0  0  0  0  0  0  0  0
   33.9750   31.0370   31.6030 C   0  0  0  0  0  0  0  0  0  0  0  0
   33.5510   30.0980   32.4490 N   0  0  0  0  0  0  0  0  0  0  0  0
   33.9600   28.2350   33.3550 H   0  0  0  0  0  0  0  0  0  0  0  0
   33.4490   31.9470   31.3620 H   0  0  0  0  0  0  0  0  0  0  0  0
   37.2550   29.6460   30.4310 C   0  0  0  0  0  0  0  0  0  0  0  0
   37.0430   29.0970   29.4880 H   0  0  0  0  0  0  0  0  0  0  0  0
   37.8750   28.9790   31.0730 H   0  0  0  0  0  0  0  0  0  0  0  0
   37.7550   30.6190   30.2440 H   0  0  0  0  0  0  0  0  0  0  0  0
   35.5610   26.5610   30.2820 O   0  0  0  0  0  0  0  0  0  0  0  0
   35.9160   26.8890   29.3980 H   0  0  0  0  0  0  0  0  0  0  0  0
   37.0260   24.3050   30.7980 O   0  0  0  0  0  0  0  0  0  0  0  0
   38.0950   22.1210   31.3500 C   0  0  0  0  0  0  0  0  0  0  0  0
   37.0300   22.9850   31.1590 C   0  0  0  0  0  0  0  0  0  0  0  0
   35.7270   22.5080   31.3440 C   0  0  0  0  0  0  0  0  0  0  0  0
   35.5080   21.1670   31.7200 C   0  0  0  0  0  0  0  0  0  0  0  0
   34.4280   20.4220   31.9700 N   0  0  0  0  0  0  0  0  0  0  0  0
   34.7730   19.1750   32.2970 C   0  0  0  0  0  0  0  0  0  0  0  0
   36.1380   19.1370   32.2490 N   0  0  0  0  0  0  0  0  0  0  0  0
   36.6090   20.3480   31.8970 C   0  0  0  0  0  0  0  0  0  0  0  0
   37.8840   20.8170   31.7150 C   0  0  0  0  0  0  0  0  0  0  0  0
   39.0560   22.5870   31.1810 H   0  0  0  0  0  0  0  0  0  0  0  0
   34.8080   23.0800   31.2270 H   0  0  0  0  0  0  0  0  0  0  0  0
   33.4510   20.7970   31.9090 H   0  0  0  0  0  0  0  0  0  0  0  0
   34.1460   18.3280   32.5550 H   0  0  0  0  0  0  0  0  0  0  0  0
   39.0180   19.9560   31.9020 C   0  0  0  0  0  0  0  0  0  0  0  0
   38.9880   18.8970   31.7000 H   0  0  0  0  0  0  0  0  0  0  0  0
   40.1470   20.3190   32.3120 O   0  0  0  0  0  0  0  0  0  0  0  0
  1  6  2  0  0  0  0
  1  2  1  0  0  0  0
  2  3  2  0  0  0  0
  3  4  1  0  0  0  0
  3  7  1  0  0  0  0
  4  8  1  0  0  0  0
  5  9  1  0  0  0  0
  5  4  2  0  0  0  0
  6  5  1  0  0  0  0
 10 16  1  0  0  0  0
 11  2  1  0  0  0  0
 11 10  2  0  0  0  0
 12 11  1  0  0  0  0
 13 12  2  0  0  0  0
 13 14  1  0  0  0  0
 14 15  2  0  0  0  0
 15 10  1  0  0  0  0
 17 14  1  0  0  0  0
 18 20  1  0  0  0  0
 18 12  1  0  0  0  0
 19 18  1  0  0  0  0
 21 18  1  0  0  0  0
 22  1  1  0  0  0  0
 23 22  1  0  0  0  0
 24 26  1  0  0  0  0
 24  6  1  0  0  0  0
 25 33  1  0  0  0  0
 26 27  1  0  0  0  0
 26 25  2  0  0  0  0
 27 28  2  0  0  0  0
 28 32  1  0  0  0  0
 28 29  1  0  0  0  0
 29 30  1  0  0  0  0
 30 37  1  0  0  0  0
 31 30  2  0  0  0  0
 32 31  1  0  0  0  0
 33 32  2  0  0  0  0
 33 38  1  0  0  0  0
 34 25  1  0  0  0  0
 35 27  1  0  0  0  0
 36 29  1  0  0  0  0
 38 40  2  0  0  0  0
 39 38  1  0  0  0  0
M  END
>  <minimizedAffinity>
-5.56158066

$$$$

 OpenBabel03272509233D

 40 43  0  0  0  0  0  0  0  0999 V2000
   36.0550   28.7200   33.5640 C   0  0  0  0  0  0  0  0  0  0  0  0
   35.5100   29.9840   33.5660 C   0  0  0  0  0  0  0  0  0  0  0  0
   35.4560   30.5980   32.3080 C   0  0  0  0  0  0  0  0  0  0  0  0
   35.9270   29.9500   31.1540 C   0  0  0  0  0  0  0  0  0  0  0  0
   36.4720   28.6500   31.2580 C   0  0  0  0  0  0  0  0  0  0  0  0
   36.5260   28.0400   32.5030 C   0  0  0  0  0  0  0  0  0  0  0  0
   35.0480   31.5910   32.1840 H   0  0  0  0  0  0  0  0  0  0  0  0
   35.8720   30.4520   30.1950 H   0  0  0  0  0  0  0  0  0  0  0  0
   36.8250   28.1790   30.3550 H   0  0  0  0  0  0  0  0  0  0  0  0
   35.8790   31.4740   35.4610 C   0  0  0  0  0  0  0  0  0  0  0  0
   35.0280   30.6470   34.7350 C   0  0  0  0  0  0  0  0  0  0  0  0
   33.7040   30.4980   35.1920 C   0  0  0  0  0  0  0  0  0  0  0  0
   33.3390   31.1640   36.3070 N   0  0  0  0  0  0  0  0  0  0  0  0
   34.2080   31.9700   36.9950 C   0  0  0  0  0  0  0  0  0  0  0  0
   35.4630   32.1160   36.5680 N   0  0  0  0  0  0  0  0  0  0  0  0
   36.8950   31.5880   35.1090 H   0  0  0  0  0  0  0  0  0  0  0  0
   33.7840   32.4410   37.8670 H   0  0  0  0  0  0  0  0  0  0  0  0
   32.7570   29.6260   34.4510 C   0  0  0  0  0  0  0  0  0  0  0  0
   32.8650   28.6030   34.8710 H   0  0  0  0  0  0  0  0  0  0  0  0
   33.1260   29.5960   33.4000 H   0  0  0  0  0  0  0  0  0  0  0  0
   31.7110   29.9940   34.5100 H   0  0  0  0  0  0  0  0  0  0  0  0
   36.1500   28.0300   34.7770 O   0  0  0  0  0  0  0  0  0  0  0  0
   35.4340   27.4150   35.1300 H   0  0  0  0  0  0  0  0  0  0  0  0
   37.0690   26.7700   32.5260 O   0  0  0  0  0  0  0  0  0  0  0  0
   38.3730   25.3620   34.1170 C   0  0  0  0  0  0  0  0  0  0  0  0
   38.1990   26.3750   33.1900 C   0  0  0  0  0  0  0  0  0  0  0  0
   39.2990   27.1590   32.8270 C   0  0  0  0  0  0  0  0  0  0  0  0
   40.5650   26.9170   33.3980 C   0  0  0  0  0  0  0  0  0  0  0  0
   41.7770   27.4630   33.2720 N   0  0  0  0  0  0  0  0  0  0  0  0
   42.6630   26.8460   34.0580 C   0  0  0  0  0  0  0  0  0  0  0  0
   41.9700   25.8660   34.7090 N   0  0  0  0  0  0  0  0  0  0  0  0
   40.6810   25.8910   34.3190 C   0  0  0  0  0  0  0  0  0  0  0  0
   39.6030   25.1240   34.6750 C   0  0  0  0  0  0  0  0  0  0  0  0
   37.4630   24.8170   34.3290 H   0  0  0  0  0  0  0  0  0  0  0  0
   39.2970   27.9820   32.1140 H   0  0  0  0  0  0  0  0  0  0  0  0
   41.9750   28.2680   32.6310 H   0  0  0  0  0  0  0  0  0  0  0  0
   43.7220   27.0400   34.1930 H   0  0  0  0  0  0  0  0  0  0  0  0
   39.7380   24.0630   35.6320 C   0  0  0  0  0  0  0  0  0  0  0  0
   40.4180   24.1120   36.4680 H   0  0  0  0  0  0  0  0  0  0  0  0
   39.1010   22.9820   35.6150 O   0  0  0  0  0  0  0  0  0  0  0  0
  1  2  1  0  0  0  0
  1 22  1  0  0  0  0
  2 11  1  0  0  0  0
  3  2  2  0  0  0  0
  4  5  2  0  0  0  0
  4  3  1  0  0  0  0
  5  6  1  0  0  0  0
  6 24  1  0  0  0  0
  6  1  2  0  0  0  0
  7  3  1  0  0  0  0
  8  4  1  0  0  0  0
  9  5  1  0  0  0  0
 10 15  1  0  0  0  0
 11 12  1  0  0  0  0
 11 10  2  0  0  0  0
 12 13  2  0  0  0  0
 13 14  1  0  0  0  0
 14 17  1  0  0  0  0
 15 14  2  0  0  0  0
 16 10  1  0  0  0  0
 18 21  1  0  0  0  0
 18 19  1  0  0  0  0
 18 12  1  0  0  0  0
 20 18  1  0  0  0  0
 22 23  1  0  0  0  0
 24 26  1  0  0  0  0
 25 34  1  0  0  0  0
 25 33  1  0  0  0  0
 26 25  2  0  0  0  0
 27 26  1  0  0  0  0
 27 28  2  0  0  0  0
 28 32  1  0  0  0  0
 29 28  1  0  0  0  0
 29 30  1  0  0  0  0
 30 37  1  0  0  0  0
 30 31  2  0  0  0  0
 32 33  2  0  0  0  0
 32 31  1  0  0  0  0
 33 38  1  0  0  0  0
 35 27  1  0  0  0  0
 36 29  1  0  0  0  0
 38 39  1  0  0  0  0
 40 38  2  0  0  0  0
M  END
>  <minimizedAffinity>
-5.52366352

$$$$

 OpenBabel03272509233D

 40 43  0  0  0  0  0  0  0  0999 V2000
   37.3690   26.4750   33.5420 C   0  0  0  0  0  0  0  0  0  0  0  0
   36.7980   26.7400   32.3170 C   0  0  0  0  0  0  0  0  0  0  0  0
   36.5860   25.6090   31.5170 C   0  0  0  0  0  0  0  0  0  0  0  0
   36.9380   24.3220   31.9560 C   0  0  0  0  0  0  0  0  0  0  0  0
   37.5210   24.1570   33.2330 C   0  0  0  0  0  0  0  0  0  0  0  0
   37.7320   25.2750   34.0270 C   0  0  0  0  0  0  0  0  0  0  0  0
   36.1440   25.6910   30.5350 H   0  0  0  0  0  0  0  0  0  0  0  0
   36.7620   23.4680   31.3130 H   0  0  0  0  0  0  0  0  0  0  0  0
   37.7800   23.1570   33.5410 H   0  0  0  0  0  0  0  0  0  0  0  0
   35.2390   28.6150   32.2830 C   0  0  0  0  0  0  0  0  0  0  0  0
   36.4370   28.0450   31.8660 C   0  0  0  0  0  0  0  0  0  0  0  0
   37.2580   28.7940   31.0000 C   0  0  0  0  0  0  0  0  0  0  0  0
   36.8350   30.0190   30.6270 N   0  0  0  0  0  0  0  0  0  0  0  0
   35.6470   30.5460   31.0600 C   0  0  0  0  0  0  0  0  0  0  0  0
   34.8650   29.8430   31.8790 N   0  0  0  0  0  0  0  0  0  0  0  0
   34.6100   28.0390   32.9470 H   0  0  0  0  0  0  0  0  0  0  0  0
   35.4330   31.5330   30.6830 H   0  0  0  0  0  0  0  0  0  0  0  0
   38.5480   28.2290   30.5270 C   0  0  0  0  0  0  0  0  0  0  0  0
   38.3290   27.6630   29.5960 H   0  0  0  0  0  0  0  0  0  0  0  0
   38.8620   27.4910   31.3010 H   0  0  0  0  0  0  0  0  0  0  0  0
   39.3190   29.0130   30.3690 H   0  0  0  0  0  0  0  0  0  0  0  0
   37.6180   27.5450   34.4080 O   0  0  0  0  0  0  0  0  0  0  0  0
   36.9620   27.8710   35.1000 H   0  0  0  0  0  0  0  0  0  0  0  0
   38.3050   25.0350   35.2610 O   0  0  0  0  0  0  0  0  0  0  0  0
   40.7630   24.7160   34.9940 C   0  0  0  0  0  0  0  0  0  0  0  0
   39.5070   24.4270   35.5010 C   0  0  0  0  0  0  0  0  0  0  0  0
   39.3660   23.3640   36.4000 C   0  0  0  0  0  0  0  0  0  0  0  0
   40.4890   22.6030   36.7820 C   0  0  0  0  0  0  0  0  0  0  0  0
   40.6900   21.5600   37.5920 N   0  0  0  0  0  0  0  0  0  0  0  0
   41.9770   21.2070   37.6060 C   0  0  0  0  0  0  0  0  0  0  0  0
   42.6130   22.0710   36.7610 N   0  0  0  0  0  0  0  0  0  0  0  0
   41.7190   22.9360   36.2450 C   0  0  0  0  0  0  0  0  0  0  0  0
   41.8560   23.9770   35.3640 C   0  0  0  0  0  0  0  0  0  0  0  0
   40.7640   25.5530   34.3090 H   0  0  0  0  0  0  0  0  0  0  0  0
   38.4400   23.0350   36.8680 H   0  0  0  0  0  0  0  0  0  0  0  0
   39.9170   21.1020   38.1330 H   0  0  0  0  0  0  0  0  0  0  0  0
   42.4710   20.4100   38.1520 H   0  0  0  0  0  0  0  0  0  0  0  0
   43.1400   24.3110   34.8150 C   0  0  0  0  0  0  0  0  0  0  0  0
   43.6370   23.7030   34.0760 H   0  0  0  0  0  0  0  0  0  0  0  0
   43.8200   25.3220   35.1180 O   0  0  0  0  0  0  0  0  0  0  0  0
  1  6  1  0  0  0  0
  1 22  1  0  0  0  0
  2  1  2  0  0  0  0
  3  4  2  0  0  0  0
  3  2  1  0  0  0  0
  4  5  1  0  0  0  0
  5  9  1  0  0  0  0
  5  6  2  0  0  0  0
  6 24  1  0  0  0  0
  7  3  1  0  0  0  0
  8  4  1  0  0  0  0
 10 16  1  0  0  0  0
 11 10  2  0  0  0  0
 11  2  1  0  0  0  0
 12 11  1  0  0  0  0
 13 12  2  0  0  0  0
 13 14  1  0  0  0  0
 14 15  2  0  0  0  0
 15 10  1  0  0  0  0
 17 14  1  0  0  0  0
 18 12  1  0  0  0  0
 18 20  1  0  0  0  0
 19 18  1  0  0  0  0
 21 18  1  0  0  0  0
 22 23  1  0  0  0  0
 24 26  1  0  0  0  0
 25 33  2  0  0  0  0
 25 26  1  0  0  0  0
 26 27  2  0  0  0  0
 27 28  1  0  0  0  0
 27 35  1  0  0  0  0
 28 29  1  0  0  0  0
 29 30  1  0  0  0  0
 29 36  1  0  0  0  0
 30 37  1  0  0  0  0
 31 30  2  0  0  0  0
 32 31  1  0  0  0  0
 32 28  2  0  0  0  0
 33 32  1  0  0  0  0
 34 25  1  0  0  0  0
 38 40  2  0  0  0  0
 38 33  1  0  0  0  0
 39 38  1  0  0  0  0
M  END
>  <minimizedAffinity>
-5.505198

$$$$
