
 OpenBabel03272506013D

 40 42  0  0  1  0  0  0  0  0999 V2000
   35.3280   30.3170   49.8030 C   0  0  2  0  0  0  0  0  0  0  0  0
   36.2500   31.3270   49.2940 C   0  0  0  0  0  0  0  0  0  0  0  0
   37.7390   30.8830   49.3910 C   0  0  2  0  0  0  0  0  0  0  0  0
   38.1570   30.5700   50.7360 C   0  0  0  0  0  0  0  0  0  0  0  0
   37.1020   29.8190   51.5500 C   0  0  0  0  0  0  0  0  0  0  0  0
   36.0350   29.2560   50.6620 C   0  0  0  0  0  0  0  0  0  0  0  0
   34.5850   30.7530   50.5360 H   0  0  0  0  0  0  0  0  0  0  0  0
   36.2390   32.2030   50.0290 H   0  0  0  0  0  0  0  0  0  0  0  0
   36.1710   31.7710   48.3310 H   0  0  0  0  0  0  0  0  0  0  0  0
   37.8780   30.0430   48.6830 H   0  0  0  0  0  0  0  0  0  0  0  0
   39.1220   30.0220   50.7110 H   0  0  0  0  0  0  0  0  0  0  0  0
   38.3620   31.4840   51.3260 H   0  0  0  0  0  0  0  0  0  0  0  0
   36.6880   30.3970   52.3750 H   0  0  0  0  0  0  0  0  0  0  0  0
   37.6210   28.9460   51.9950 H   0  0  0  0  0  0  0  0  0  0  0  0
   36.5200   28.5780   49.9240 H   0  0  0  0  0  0  0  0  0  0  0  0
   35.3460   28.6630   51.2610 H   0  0  0  0  0  0  0  0  0  0  0  0
   38.6240   30.6550   46.5820 Cl  0  0  0  0  0  0  0  0  0  0  0  0
   38.9860   32.0460   47.5700 C   0  0  0  0  0  0  0  0  0  0  0  0
   38.4810   32.0590   48.8450 C   0  0  0  0  0  0  0  0  0  0  0  0
   38.7820   33.2120   49.5480 C   0  0  0  0  0  0  0  0  0  0  0  0
   39.5240   34.2520   49.0210 C   0  0  0  0  0  0  0  0  0  0  0  0
   40.0040   34.1590   47.7140 C   0  0  0  0  0  0  0  0  0  0  0  0
   39.7240   33.0160   46.9670 C   0  0  0  0  0  0  0  0  0  0  0  0
   38.4170   33.3060   50.5620 H   0  0  0  0  0  0  0  0  0  0  0  0
   39.7090   35.1120   49.6490 H   0  0  0  0  0  0  0  0  0  0  0  0
   40.5840   34.9770   47.3100 H   0  0  0  0  0  0  0  0  0  0  0  0
   40.2110   32.9230   45.6400 N   0  0  0  0  0  0  0  0  0  0  0  0
   40.0780   33.5880   44.8710 H   0  0  0  0  0  0  0  0  0  0  0  0
   40.7670   32.0600   45.4520 H   0  0  0  0  0  0  0  0  0  0  0  0
   34.5450   29.5940   48.8070 C   0  0  0  0  0  0  0  0  0  0  0  0
   34.9400   29.8180   47.4970 C   0  0  0  0  0  0  0  0  0  0  0  0
   34.2740   29.1560   46.4720 C   0  0  0  0  0  0  0  0  0  0  0  0
   33.2300   28.2920   46.8140 N   0  0  0  0  0  0  0  0  0  0  0  0
   32.8770   28.1040   48.0990 C   0  0  0  0  0  0  0  0  0  0  0  0
   33.5460   28.7610   49.0430 N   0  0  0  0  0  0  0  0  0  0  0  0
   35.6740   30.4030   46.9610 H   0  0  0  0  0  0  0  0  0  0  0  0
   34.3780   29.1510   45.4150 H   0  0  0  0  0  0  0  0  0  0  0  0
   31.7880   27.2040   48.4600 C   0  0  0  0  0  0  0  0  0  0  0  0
   31.7610   26.1850   48.0940 H   0  0  0  0  0  0  0  0  0  0  0  0
   30.8500   27.5930   49.2120 O   0  0  0  0  0  0  0  0  0  0  0  0
  1  7  1  1  0  0  0
  1  6  1  0  0  0  0
  2  3  1  0  0  0  0
  2  1  1  0  0  0  0
  2  8  1  0  0  0  0
  3 10  1  6  0  0  0
  3  4  1  0  0  0  0
  4 12  1  0  0  0  0
  4  5  1  0  0  0  0
  5 14  1  0  0  0  0
  5 13  1  0  0  0  0
  6 16  1  0  0  0  0
  6  5  1  0  0  0  0
  9  2  1  0  0  0  0
 11  4  1  0  0  0  0
 15  6  1  0  0  0  0
 17 18  1  0  0  0  0
 18 19  1  0  0  0  0
 19  3  1  0  0  0  0
 19 20  2  0  0  0  0
 20 24  1  0  0  0  0
 21 20  1  0  0  0  0
 21 25  1  0  0  0  0
 22 21  2  0  0  0  0
 23 18  2  0  0  0  0
 23 22  1  0  0  0  0
 26 22  1  0  0  0  0
 27 23  1  0  0  0  0
 28 27  1  0  0  0  0
 29 27  1  0  0  0  0
 30 35  1  0  0  0  0
 30  1  1  0  0  0  0
 31 30  2  0  0  0  0
 32 33  2  0  0  0  0
 32 31  1  0  0  0  0
 33 34  1  0  0  0  0
 34 38  1  0  0  0  0
 34 35  2  0  0  0  0
 36 31  1  0  0  0  0
 37 32  1  0  0  0  0
 38 40  2  0  0  0  0
 39 38  1  0  0  0  0
M  END
>  <minimizedAffinity>
-7.516891

>  <minimizedRMSD>
0.38009429

$$$$
