
 OpenBabel03272510323D

 22 23  0  0  0  0  0  0  0  0999 V2000
   36.0990   30.2710   48.7340 C   0  0  0  0  0  0  0  0  0  0  0  0
   35.0900   30.2610   47.8190 C   0  0  0  0  0  0  0  0  0  0  0  0
   34.0710   29.3270   47.8840 C   0  0  0  0  0  0  0  0  0  0  0  0
   34.0930   28.4010   48.8960 C   0  0  0  0  0  0  0  0  0  0  0  0
   35.1120   28.3830   49.8520 C   0  0  0  0  0  0  0  0  0  0  0  0
   36.1150   29.3320   49.7540 C   0  0  0  0  0  0  0  0  0  0  0  0
   35.0640   30.9930   47.0100 H   0  0  0  0  0  0  0  0  0  0  0  0
   33.2580   29.2840   47.1850 H   0  0  0  0  0  0  0  0  0  0  0  0
   33.3540   27.6210   49.0550 H   0  0  0  0  0  0  0  0  0  0  0  0
   35.1670   27.6650   50.6710 H   0  0  0  0  0  0  0  0  0  0  0  0
   38.0590   33.2660   49.3980 C   0  0  0  0  0  0  0  0  0  0  0  0
   39.0630   33.2460   48.4090 C   0  0  0  0  0  0  0  0  0  0  0  0
   39.0440   32.1670   47.5040 C   0  0  0  0  0  0  0  0  0  0  0  0
   38.0810   31.2200   47.6280 N   0  0  0  0  0  0  0  0  0  0  0  0
   37.1330   31.2800   48.5980 C   0  0  0  0  0  0  0  0  0  0  0  0
   37.1450   32.3060   49.4640 N   0  0  0  0  0  0  0  0  0  0  0  0
   37.9900   34.0530   50.1400 H   0  0  0  0  0  0  0  0  0  0  0  0
   39.7890   34.0430   48.3880 H   0  0  0  0  0  0  0  0  0  0  0  0
   39.8080   32.1380   46.7400 H   0  0  0  0  0  0  0  0  0  0  0  0
   37.1850   29.3250   50.7440 C   0  0  0  0  0  0  0  0  0  0  0  0
   38.1270   28.8280   50.5750 H   0  0  0  0  0  0  0  0  0  0  0  0
   37.0920   29.8930   51.8630 O   0  0  0  0  0  0  0  0  0  0  0  0
  1  6  1  0  0  0  0
  2  3  1  0  0  0  0
  2  1  2  0  0  0  0
  3  4  2  0  0  0  0
  4  9  1  0  0  0  0
  4  5  1  0  0  0  0
  5 10  1  0  0  0  0
  6  5  2  0  0  0  0
  6 20  1  0  0  0  0
  7  2  1  0  0  0  0
  8  3  1  0  0  0  0
 11 16  1  0  0  0  0
 11 17  1  0  0  0  0
 12 11  2  0  0  0  0
 13 14  2  0  0  0  0
 13 12  1  0  0  0  0
 14 15  1  0  0  0  0
 15  1  1  0  0  0  0
 15 16  2  0  0  0  0
 18 12  1  0  0  0  0
 19 13  1  0  0  0  0
 20 22  2  0  0  0  0
 21 20  1  0  0  0  0
M  END
>  <minimizedAffinity>
-5.48659611

>  <minimizedRMSD>
0.392298102

$$$$
