
 OpenBabel03272510323D

 22 23  0  0  0  0  0  0  0  0999 V2000
   36.0990   30.2710   48.7350 C   0  0  0  0  0  0  0  0  0  0  0  0
   35.0890   30.2600   47.8190 C   0  0  0  0  0  0  0  0  0  0  0  0
   34.0700   29.3270   47.8840 C   0  0  0  0  0  0  0  0  0  0  0  0
   34.0920   28.4000   48.8960 C   0  0  0  0  0  0  0  0  0  0  0  0
   35.1110   28.3830   49.8520 C   0  0  0  0  0  0  0  0  0  0  0  0
   36.1150   29.3320   49.7540 C   0  0  0  0  0  0  0  0  0  0  0  0
   35.0640   30.9930   47.0110 H   0  0  0  0  0  0  0  0  0  0  0  0
   33.2570   29.2830   47.1850 H   0  0  0  0  0  0  0  0  0  0  0  0
   33.3530   27.6210   49.0550 H   0  0  0  0  0  0  0  0  0  0  0  0
   35.1660   27.6640   50.6710 H   0  0  0  0  0  0  0  0  0  0  0  0
   38.0590   33.2660   49.3980 C   0  0  0  0  0  0  0  0  0  0  0  0
   39.0630   33.2450   48.4090 C   0  0  0  0  0  0  0  0  0  0  0  0
   39.0440   32.1660   47.5050 C   0  0  0  0  0  0  0  0  0  0  0  0
   38.0800   31.2200   47.6280 N   0  0  0  0  0  0  0  0  0  0  0  0
   37.1320   31.2800   48.5980 C   0  0  0  0  0  0  0  0  0  0  0  0
   37.1440   32.3050   49.4640 N   0  0  0  0  0  0  0  0  0  0  0  0
   37.9890   34.0530   50.1400 H   0  0  0  0  0  0  0  0  0  0  0  0
   39.7890   34.0430   48.3890 H   0  0  0  0  0  0  0  0  0  0  0  0
   39.8070   32.1370   46.7400 H   0  0  0  0  0  0  0  0  0  0  0  0
   37.1840   29.3240   50.7440 C   0  0  0  0  0  0  0  0  0  0  0  0
   38.1260   28.8270   50.5750 H   0  0  0  0  0  0  0  0  0  0  0  0
   37.0920   29.8920   51.8620 O   0  0  0  0  0  0  0  0  0  0  0  0
  1  6  1  0  0  0  0
  2  3  1  0  0  0  0
  2  1  2  0  0  0  0
  3  4  2  0  0  0  0
  4  9  1  0  0  0  0
  4  5  1  0  0  0  0
  5 10  1  0  0  0  0
  6  5  2  0  0  0  0
  6 20  1  0  0  0  0
  7  2  1  0  0  0  0
  8  3  1  0  0  0  0
 11 16  1  0  0  0  0
 11 17  1  0  0  0  0
 12 11  2  0  0  0  0
 13 14  2  0  0  0  0
 13 12  1  0  0  0  0
 14 15  1  0  0  0  0
 15  1  1  0  0  0  0
 15 16  2  0  0  0  0
 18 12  1  0  0  0  0
 19 13  1  0  0  0  0
 20 22  2  0  0  0  0
 21 20  1  0  0  0  0
M  END
>  <minimizedAffinity>
-5.4833107

>  <minimizedRMSD>
0.410516918

$$$$
