
 OpenBabel03272510333D

 22 23  0  0  0  0  0  0  0  0999 V2000
   36.0780   30.2560   48.6690 C   0  0  0  0  0  0  0  0  0  0  0  0
   35.0730   30.2690   47.7490 C   0  0  0  0  0  0  0  0  0  0  0  0
   34.0510   29.3380   47.7890 C   0  0  0  0  0  0  0  0  0  0  0  0
   34.0640   28.3900   48.7820 C   0  0  0  0  0  0  0  0  0  0  0  0
   35.0790   28.3490   49.7420 C   0  0  0  0  0  0  0  0  0  0  0  0
   36.0860   29.2970   49.6690 C   0  0  0  0  0  0  0  0  0  0  0  0
   35.0550   31.0180   46.9550 H   0  0  0  0  0  0  0  0  0  0  0  0
   33.2410   29.3120   47.0850 H   0  0  0  0  0  0  0  0  0  0  0  0
   33.3210   27.6110   48.9210 H   0  0  0  0  0  0  0  0  0  0  0  0
   35.1260   27.6140   50.5470 H   0  0  0  0  0  0  0  0  0  0  0  0
   38.0410   33.2340   49.3990 C   0  0  0  0  0  0  0  0  0  0  0  0
   39.0540   33.2260   48.4200 C   0  0  0  0  0  0  0  0  0  0  0  0
   39.0410   32.1610   47.4980 C   0  0  0  0  0  0  0  0  0  0  0  0
   38.0740   31.2160   47.5980 N   0  0  0  0  0  0  0  0  0  0  0  0
   37.1160   31.2640   48.5590 C   0  0  0  0  0  0  0  0  0  0  0  0
   37.1230   32.2760   49.4400 N   0  0  0  0  0  0  0  0  0  0  0  0
   37.9660   34.0100   50.1520 H   0  0  0  0  0  0  0  0  0  0  0  0
   39.7830   34.0220   48.4190 H   0  0  0  0  0  0  0  0  0  0  0  0
   39.8120   32.1420   46.7410 H   0  0  0  0  0  0  0  0  0  0  0  0
   37.1500   29.2640   50.6630 C   0  0  0  0  0  0  0  0  0  0  0  0
   38.0920   28.7690   50.4890 H   0  0  0  0  0  0  0  0  0  0  0  0
   37.0520   29.8080   51.7940 O   0  0  0  0  0  0  0  0  0  0  0  0
  1  6  1  0  0  0  0
  2  3  1  0  0  0  0
  2  1  2  0  0  0  0
  3  4  2  0  0  0  0
  4  9  1  0  0  0  0
  4  5  1  0  0  0  0
  5 10  1  0  0  0  0
  6  5  2  0  0  0  0
  6 20  1  0  0  0  0
  7  2  1  0  0  0  0
  8  3  1  0  0  0  0
 11 16  1  0  0  0  0
 11 17  1  0  0  0  0
 12 11  2  0  0  0  0
 13 14  2  0  0  0  0
 13 12  1  0  0  0  0
 14 15  1  0  0  0  0
 15  1  1  0  0  0  0
 15 16  2  0  0  0  0
 18 12  1  0  0  0  0
 19 13  1  0  0  0  0
 20 22  2  0  0  0  0
 21 20  1  0  0  0  0
M  END
>  <minimizedAffinity>
-5.47314501

>  <minimizedRMSD>
0.386258453

$$$$
