
 OpenBabel03272503103D

 39 42  0  0  0  0  0  0  0  0999 V2000
   37.9710   26.3600   35.0490 C   0  0  0  0  0  0  0  0  0  0  0  0
   38.7390   26.8080   35.9610 O   0  0  0  0  0  0  0  0  0  0  0  0
   37.7350   24.9590   35.0850 N   0  0  0  0  0  0  0  0  0  0  0  0
   37.1230   24.5560   34.3610 H   0  0  0  0  0  0  0  0  0  0  0  0
   36.4370   28.1440   34.5450 C   0  0  0  0  0  0  0  0  0  0  0  0
   37.4200   27.2830   34.0860 C   0  0  0  0  0  0  0  0  0  0  0  0
   37.8690   27.2840   32.7780 C   0  0  0  0  0  0  0  0  0  0  0  0
   37.3200   28.1800   31.8870 C   0  0  0  0  0  0  0  0  0  0  0  0
   37.5360   28.4220   30.5830 N   0  0  0  0  0  0  0  0  0  0  0  0
   36.7230   29.4060   30.2130 C   0  0  0  0  0  0  0  0  0  0  0  0
   35.9960   29.7900   31.2610 N   0  0  0  0  0  0  0  0  0  0  0  0
   36.3350   29.0430   32.3490 C   0  0  0  0  0  0  0  0  0  0  0  0
   35.8850   29.0460   33.6460 C   0  0  0  0  0  0  0  0  0  0  0  0
   36.0940   28.1390   35.5550 H   0  0  0  0  0  0  0  0  0  0  0  0
   38.6420   26.5890   32.4640 H   0  0  0  0  0  0  0  0  0  0  0  0
   38.2340   27.8940   30.0250 H   0  0  0  0  0  0  0  0  0  0  0  0
   36.7180   29.7770   29.1970 H   0  0  0  0  0  0  0  0  0  0  0  0
   34.8460   29.9910   34.0390 C   0  0  0  0  0  0  0  0  0  0  0  0
   35.0050   31.0580   34.0270 H   0  0  0  0  0  0  0  0  0  0  0  0
   33.7420   29.5160   34.3990 O   0  0  0  0  0  0  0  0  0  0  0  0
   40.2090   23.8670   34.7260 F   0  0  0  0  0  0  0  0  0  0  0  0
   39.6580   23.7370   35.9600 C   0  0  0  0  0  0  0  0  0  0  0  0
   40.3390   23.0850   36.9460 C   0  0  0  0  0  0  0  0  0  0  0  0
   39.7220   22.9940   38.1620 C   0  0  0  0  0  0  0  0  0  0  0  0
   38.4830   23.5160   38.4180 C   0  0  0  0  0  0  0  0  0  0  0  0
   37.8130   24.1710   37.4000 C   0  0  0  0  0  0  0  0  0  0  0  0
   38.4060   24.2840   36.1570 C   0  0  0  0  0  0  0  0  0  0  0  0
   40.2450   22.4790   38.9660 H   0  0  0  0  0  0  0  0  0  0  0  0
   38.0240   23.4230   39.3940 H   0  0  0  0  0  0  0  0  0  0  0  0
   36.8250   24.5990   37.5700 H   0  0  0  0  0  0  0  0  0  0  0  0
   44.0270   22.7820   36.1590 C   0  0  0  0  0  0  0  0  0  0  0  0
   42.7690   23.3400   36.4600 C   0  0  0  0  0  0  0  0  0  0  0  0
   41.6610   22.5420   36.6340 C   0  0  0  0  0  0  0  0  0  0  0  0
   41.8460   21.1980   36.5010 N   0  0  0  0  0  0  0  0  0  0  0  0
   43.0470   20.6720   36.2160 C   0  0  0  0  0  0  0  0  0  0  0  0
   44.1090   21.4480   36.0490 N   0  0  0  0  0  0  0  0  0  0  0  0
   44.7850   23.5430   36.0540 H   0  0  0  0  0  0  0  0  0  0  0  0
   42.6010   24.4080   36.5690 H   0  0  0  0  0  0  0  0  0  0  0  0
   43.2240   19.6030   36.1040 H   0  0  0  0  0  0  0  0  0  0  0  0
  1  3  1  0  0  0  0
  1  2  2  0  0  0  0
  3 27  1  0  0  0  0
  4  3  1  0  0  0  0
  5 14  1  0  0  0  0
  6  5  1  0  0  0  0
  6  1  1  0  0  0  0
  7  6  2  0  0  0  0
  8 12  2  0  0  0  0
  8  7  1  0  0  0  0
  9  8  1  0  0  0  0
 10  9  1  0  0  0  0
 10 11  2  0  0  0  0
 11 12  1  0  0  0  0
 12 13  1  0  0  0  0
 13 18  1  0  0  0  0
 13  5  2  0  0  0  0
 15  7  1  0  0  0  0
 16  9  1  0  0  0  0
 17 10  1  0  0  0  0
 18 20  2  0  0  0  0
 19 18  1  0  0  0  0
 21 22  1  0  0  0  0
 22 27  2  0  0  0  0
 22 23  1  0  0  0  0
 23 24  2  0  0  0  0
 24 25  1  0  0  0  0
 24 28  1  0  0  0  0
 25 29  1  0  0  0  0
 26 30  1  0  0  0  0
 26 25  2  0  0  0  0
 27 26  1  0  0  0  0
 31 32  1  0  0  0  0
 32 38  1  0  0  0  0
 32 33  2  0  0  0  0
 33 23  1  0  0  0  0
 34 33  1  0  0  0  0
 35 34  2  0  0  0  0
 36 31  2  0  0  0  0
 36 35  1  0  0  0  0
 37 31  1  0  0  0  0
 39 35  1  0  0  0  0
M  END
>  <minimizedAffinity>
-6.40334654

$$$$

 OpenBabel03272503103D

 39 42  0  0  0  0  0  0  0  0999 V2000
   37.9010   26.3400   35.1070 C   0  0  0  0  0  0  0  0  0  0  0  0
   38.6740   26.7950   36.0130 O   0  0  0  0  0  0  0  0  0  0  0  0
   37.6680   24.9390   35.1540 N   0  0  0  0  0  0  0  0  0  0  0  0
   37.0520   24.5300   34.4350 H   0  0  0  0  0  0  0  0  0  0  0  0
   37.8030   27.1390   32.8410 C   0  0  0  0  0  0  0  0  0  0  0  0
   37.3440   27.2560   34.1420 C   0  0  0  0  0  0  0  0  0  0  0  0
   36.4010   28.1930   34.5240 C   0  0  0  0  0  0  0  0  0  0  0  0
   35.8920   29.0500   33.5740 C   0  0  0  0  0  0  0  0  0  0  0  0
   34.9880   30.0430   33.6290 N   0  0  0  0  0  0  0  0  0  0  0  0
   34.8670   30.5490   32.4060 C   0  0  0  0  0  0  0  0  0  0  0  0
   35.6790   29.8930   31.5790 N   0  0  0  0  0  0  0  0  0  0  0  0
   36.3530   28.9310   32.2700 C   0  0  0  0  0  0  0  0  0  0  0  0
   37.2890   28.0040   31.8840 C   0  0  0  0  0  0  0  0  0  0  0  0
   38.5310   26.4140   32.5500 H   0  0  0  0  0  0  0  0  0  0  0  0
   36.0720   28.2470   35.5580 H   0  0  0  0  0  0  0  0  0  0  0  0
   34.5070   30.3120   34.5080 H   0  0  0  0  0  0  0  0  0  0  0  0
   34.1900   31.3680   32.2020 H   0  0  0  0  0  0  0  0  0  0  0  0
   37.7120   27.9540   30.4890 C   0  0  0  0  0  0  0  0  0  0  0  0
   37.2890   27.2550   29.7850 H   0  0  0  0  0  0  0  0  0  0  0  0
   38.6000   28.7630   30.1280 O   0  0  0  0  0  0  0  0  0  0  0  0
   40.1350   23.8340   34.7850 F   0  0  0  0  0  0  0  0  0  0  0  0
   39.5930   23.7180   36.0240 C   0  0  0  0  0  0  0  0  0  0  0  0
   40.2800   23.0730   37.0110 C   0  0  0  0  0  0  0  0  0  0  0  0
   39.6730   22.9950   38.2330 C   0  0  0  0  0  0  0  0  0  0  0  0
   38.4380   23.5240   38.4940 C   0  0  0  0  0  0  0  0  0  0  0  0
   37.7620   24.1730   37.4750 C   0  0  0  0  0  0  0  0  0  0  0  0
   38.3450   24.2720   36.2260 C   0  0  0  0  0  0  0  0  0  0  0  0
   40.2000   22.4860   39.0370 H   0  0  0  0  0  0  0  0  0  0  0  0
   37.9870   23.4420   39.4740 H   0  0  0  0  0  0  0  0  0  0  0  0
   36.7770   24.6060   37.6490 H   0  0  0  0  0  0  0  0  0  0  0  0
   43.9560   22.7500   36.1750 C   0  0  0  0  0  0  0  0  0  0  0  0
   42.7020   23.3150   36.4800 C   0  0  0  0  0  0  0  0  0  0  0  0
   41.5970   22.5220   36.6930 C   0  0  0  0  0  0  0  0  0  0  0  0
   41.7820   21.1740   36.5940 N   0  0  0  0  0  0  0  0  0  0  0  0
   42.9790   20.6410   36.3030 C   0  0  0  0  0  0  0  0  0  0  0  0
   44.0370   21.4130   36.1000 N   0  0  0  0  0  0  0  0  0  0  0  0
   44.7110   23.5080   36.0380 H   0  0  0  0  0  0  0  0  0  0  0  0
   42.5350   24.3860   36.5630 H   0  0  0  0  0  0  0  0  0  0  0  0
   43.1540   19.5710   36.2180 H   0  0  0  0  0  0  0  0  0  0  0  0
  1  3  1  0  0  0  0
  1  2  2  0  0  0  0
  3 27  1  0  0  0  0
  4  3  1  0  0  0  0
  5  6  1  0  0  0  0
  6  7  2  0  0  0  0
  6  1  1  0  0  0  0
  7 15  1  0  0  0  0
  8  9  1  0  0  0  0
  8  7  1  0  0  0  0
  9 16  1  0  0  0  0
 10  9  1  0  0  0  0
 11 12  1  0  0  0  0
 11 10  2  0  0  0  0
 12  8  2  0  0  0  0
 13 12  1  0  0  0  0
 13  5  2  0  0  0  0
 14  5  1  0  0  0  0
 17 10  1  0  0  0  0
 18 13  1  0  0  0  0
 19 18  1  0  0  0  0
 20 18  2  0  0  0  0
 21 22  1  0  0  0  0
 22 27  2  0  0  0  0
 22 23  1  0  0  0  0
 23 24  2  0  0  0  0
 24 25  1  0  0  0  0
 24 28  1  0  0  0  0
 25 29  1  0  0  0  0
 26 30  1  0  0  0  0
 26 25  2  0  0  0  0
 27 26  1  0  0  0  0
 31 32  1  0  0  0  0
 32 38  1  0  0  0  0
 32 33  2  0  0  0  0
 33 23  1  0  0  0  0
 34 33  1  0  0  0  0
 35 34  2  0  0  0  0
 36 31  2  0  0  0  0
 36 35  1  0  0  0  0
 37 31  1  0  0  0  0
 39 35  1  0  0  0  0
M  END
>  <minimizedAffinity>
-6.19052649

$$$$

 OpenBabel03272503103D

 39 42  0  0  0  0  0  0  0  0999 V2000
   39.1380   26.1510   34.3180 C   0  0  0  0  0  0  0  0  0  0  0  0
   39.4760   27.3740   34.4340 O   0  0  0  0  0  0  0  0  0  0  0  0
   37.9640   25.9140   33.5530 N   0  0  0  0  0  0  0  0  0  0  0  0
   37.6530   24.9380   33.4400 H   0  0  0  0  0  0  0  0  0  0  0  0
   41.3190   25.2620   34.8050 C   0  0  0  0  0  0  0  0  0  0  0  0
   39.9480   25.1410   34.9530 C   0  0  0  0  0  0  0  0  0  0  0  0
   39.3590   24.1140   35.6680 C   0  0  0  0  0  0  0  0  0  0  0  0
   40.1640   23.1670   36.2610 C   0  0  0  0  0  0  0  0  0  0  0  0
   39.9020   22.0770   37.0010 N   0  0  0  0  0  0  0  0  0  0  0  0
   41.0640   21.5140   37.3200 C   0  0  0  0  0  0  0  0  0  0  0  0
   42.0560   22.2310   36.7940 N   0  0  0  0  0  0  0  0  0  0  0  0
   41.5390   23.2910   36.1110 C   0  0  0  0  0  0  0  0  0  0  0  0
   42.1310   24.3070   35.4030 C   0  0  0  0  0  0  0  0  0  0  0  0
   41.7700   26.0570   34.2520 H   0  0  0  0  0  0  0  0  0  0  0  0
   38.2770   24.0600   35.7570 H   0  0  0  0  0  0  0  0  0  0  0  0
   38.9360   21.7850   37.2430 H   0  0  0  0  0  0  0  0  0  0  0  0
   41.1050   20.6140   37.9190 H   0  0  0  0  0  0  0  0  0  0  0  0
   43.5850   24.3550   35.3000 C   0  0  0  0  0  0  0  0  0  0  0  0
   44.1670   23.4990   34.9980 H   0  0  0  0  0  0  0  0  0  0  0  0
   44.1460   25.4410   35.5800 O   0  0  0  0  0  0  0  0  0  0  0  0
   36.3620   27.4740   35.1150 F   0  0  0  0  0  0  0  0  0  0  0  0
   36.5510   27.8840   33.8350 C   0  0  0  0  0  0  0  0  0  0  0  0
   35.9520   29.0260   33.3880 C   0  0  0  0  0  0  0  0  0  0  0  0
   36.1890   29.3760   32.0890 C   0  0  0  0  0  0  0  0  0  0  0  0
   36.9800   28.6440   31.2440 C   0  0  0  0  0  0  0  0  0  0  0  0
   37.5750   27.4900   31.7220 C   0  0  0  0  0  0  0  0  0  0  0  0
   37.3590   27.1040   33.0310 C   0  0  0  0  0  0  0  0  0  0  0  0
   35.7230   30.2820   31.7080 H   0  0  0  0  0  0  0  0  0  0  0  0
   37.1440   28.9520   30.2200 H   0  0  0  0  0  0  0  0  0  0  0  0
   38.2110   26.8840   31.0770 H   0  0  0  0  0  0  0  0  0  0  0  0
   34.7710   31.5090   35.9860 C   0  0  0  0  0  0  0  0  0  0  0  0
   35.6070   30.8030   35.0990 C   0  0  0  0  0  0  0  0  0  0  0  0
   35.1150   29.7800   34.3200 C   0  0  0  0  0  0  0  0  0  0  0  0
   33.7890   29.4910   34.4540 N   0  0  0  0  0  0  0  0  0  0  0  0
   32.9970   30.1660   35.3010 C   0  0  0  0  0  0  0  0  0  0  0  0
   33.4800   31.1500   36.0480 N   0  0  0  0  0  0  0  0  0  0  0  0
   35.3130   32.2750   36.5190 H   0  0  0  0  0  0  0  0  0  0  0  0
   36.6650   31.0190   34.9780 H   0  0  0  0  0  0  0  0  0  0  0  0
   31.9370   29.9570   35.4290 H   0  0  0  0  0  0  0  0  0  0  0  0
  1  2  2  0  0  0  0
  1  6  1  0  0  0  0
  3  1  1  0  0  0  0
  4  3  1  0  0  0  0
  5  6  2  0  0  0  0
  5 13  1  0  0  0  0
  6  7  1  0  0  0  0
  7 15  1  0  0  0  0
  7  8  2  0  0  0  0
  8  9  1  0  0  0  0
  9 16  1  0  0  0  0
  9 10  1  0  0  0  0
 10 17  1  0  0  0  0
 11 10  2  0  0  0  0
 12  8  1  0  0  0  0
 12 11  1  0  0  0  0
 13 12  2  0  0  0  0
 14  5  1  0  0  0  0
 18 13  1  0  0  0  0
 18 20  2  0  0  0  0
 19 18  1  0  0  0  0
 22 21  1  0  0  0  0
 23 22  1  0  0  0  0
 23 33  1  0  0  0  0
 24 23  2  0  0  0  0
 25 26  2  0  0  0  0
 25 24  1  0  0  0  0
 26 27  1  0  0  0  0
 27  3  1  0  0  0  0
 27 22  2  0  0  0  0
 28 24  1  0  0  0  0
 29 25  1  0  0  0  0
 30 26  1  0  0  0  0
 31 36  1  0  0  0  0
 31 37  1  0  0  0  0
 32 31  2  0  0  0  0
 33 34  2  0  0  0  0
 33 32  1  0  0  0  0
 34 35  1  0  0  0  0
 35 39  1  0  0  0  0
 35 36  2  0  0  0  0
 38 32  1  0  0  0  0
M  END
>  <minimizedAffinity>
-6.07609844

$$$$

 OpenBabel03272503103D

 39 42  0  0  0  0  0  0  0  0999 V2000
   36.4530   25.6890   32.0970 C   0  0  0  0  0  0  0  0  0  0  0  0
   35.3800   26.1260   31.5670 O   0  0  0  0  0  0  0  0  0  0  0  0
   37.3220   26.6850   32.6200 N   0  0  0  0  0  0  0  0  0  0  0  0
   38.2040   26.3740   33.0540 H   0  0  0  0  0  0  0  0  0  0  0  0
   37.7270   23.8250   32.9280 C   0  0  0  0  0  0  0  0  0  0  0  0
   36.6900   24.2670   32.1240 C   0  0  0  0  0  0  0  0  0  0  0  0
   35.9050   23.4100   31.3730 C   0  0  0  0  0  0  0  0  0  0  0  0
   36.1600   22.0570   31.4240 C   0  0  0  0  0  0  0  0  0  0  0  0
   35.5910   20.9960   30.8270 N   0  0  0  0  0  0  0  0  0  0  0  0
   36.2380   19.9070   31.2330 C   0  0  0  0  0  0  0  0  0  0  0  0
   37.2060   20.2630   32.0750 N   0  0  0  0  0  0  0  0  0  0  0  0
   37.2000   21.6160   32.2310 C   0  0  0  0  0  0  0  0  0  0  0  0
   37.9830   22.4620   32.9780 C   0  0  0  0  0  0  0  0  0  0  0  0
   38.3300   24.4910   33.5050 H   0  0  0  0  0  0  0  0  0  0  0  0
   35.1020   23.8020   30.7570 H   0  0  0  0  0  0  0  0  0  0  0  0
   34.7890   21.0860   30.1750 H   0  0  0  0  0  0  0  0  0  0  0  0
   35.9550   18.9240   30.8820 H   0  0  0  0  0  0  0  0  0  0  0  0
   39.0540   21.9060   33.7970 C   0  0  0  0  0  0  0  0  0  0  0  0
   39.8990   21.3920   33.3670 H   0  0  0  0  0  0  0  0  0  0  0  0
   38.9610   22.0480   35.0410 O   0  0  0  0  0  0  0  0  0  0  0  0
   36.0950   27.9800   34.6840 F   0  0  0  0  0  0  0  0  0  0  0  0
   36.2150   28.6650   33.5180 C   0  0  0  0  0  0  0  0  0  0  0  0
   35.7320   29.9390   33.4230 C   0  0  0  0  0  0  0  0  0  0  0  0
   35.8890   30.5660   32.2200 C   0  0  0  0  0  0  0  0  0  0  0  0
   36.4920   29.9820   31.1390 C   0  0  0  0  0  0  0  0  0  0  0  0
   36.9720   28.6900   31.2620 C   0  0  0  0  0  0  0  0  0  0  0  0
   36.8330   28.0230   32.4640 C   0  0  0  0  0  0  0  0  0  0  0  0
   35.5120   31.5820   32.1170 H   0  0  0  0  0  0  0  0  0  0  0  0
   36.5980   30.5100   30.2000 H   0  0  0  0  0  0  0  0  0  0  0  0
   37.4590   28.1950   30.4210 H   0  0  0  0  0  0  0  0  0  0  0  0
   35.1320   31.8600   36.6260 C   0  0  0  0  0  0  0  0  0  0  0  0
   35.7790   31.3080   35.5030 C   0  0  0  0  0  0  0  0  0  0  0  0
   35.0940   30.5280   34.6000 C   0  0  0  0  0  0  0  0  0  0  0  0
   33.7690   30.3220   34.8480 N   0  0  0  0  0  0  0  0  0  0  0  0
   33.1570   30.8510   35.9190 C   0  0  0  0  0  0  0  0  0  0  0  0
   33.8260   31.6010   36.7850 N   0  0  0  0  0  0  0  0  0  0  0  0
   35.8110   32.4420   37.2300 H   0  0  0  0  0  0  0  0  0  0  0  0
   36.8340   31.4610   35.2880 H   0  0  0  0  0  0  0  0  0  0  0  0
   32.1020   30.7030   36.1430 H   0  0  0  0  0  0  0  0  0  0  0  0
  1  6  1  0  0  0  0
  1  3  1  0  0  0  0
  2  1  2  0  0  0  0
  3  4  1  0  0  0  0
  5 13  1  0  0  0  0
  5 14  1  0  0  0  0
  6  5  2  0  0  0  0
  7  8  2  0  0  0  0
  7  6  1  0  0  0  0
  8 12  1  0  0  0  0
  9 10  1  0  0  0  0
  9  8  1  0  0  0  0
 10 11  2  0  0  0  0
 11 12  1  0  0  0  0
 12 13  2  0  0  0  0
 13 18  1  0  0  0  0
 15  7  1  0  0  0  0
 16  9  1  0  0  0  0
 17 10  1  0  0  0  0
 18 20  2  0  0  0  0
 19 18  1  0  0  0  0
 22 21  1  0  0  0  0
 23 22  1  0  0  0  0
 23 33  1  0  0  0  0
 24 23  2  0  0  0  0
 25 26  2  0  0  0  0
 25 24  1  0  0  0  0
 26 27  1  0  0  0  0
 27  3  1  0  0  0  0
 27 22  2  0  0  0  0
 28 24  1  0  0  0  0
 29 25  1  0  0  0  0
 30 26  1  0  0  0  0
 31 36  1  0  0  0  0
 31 37  1  0  0  0  0
 32 31  2  0  0  0  0
 33 34  2  0  0  0  0
 33 32  1  0  0  0  0
 34 35  1  0  0  0  0
 35 39  1  0  0  0  0
 35 36  2  0  0  0  0
 38 32  1  0  0  0  0
M  END
>  <minimizedAffinity>
-6.04114532

$$$$

 OpenBabel03272503103D

 39 42  0  0  0  0  0  0  0  0999 V2000
   38.1760   25.5350   33.9270 C   0  0  0  0  0  0  0  0  0  0  0  0
   37.1970   25.1240   33.2220 O   0  0  0  0  0  0  0  0  0  0  0  0
   38.5850   26.8730   33.6770 N   0  0  0  0  0  0  0  0  0  0  0  0
   39.3770   27.2430   34.2240 H   0  0  0  0  0  0  0  0  0  0  0  0
   38.2040   24.6260   36.1540 C   0  0  0  0  0  0  0  0  0  0  0  0
   38.7680   24.6380   34.8890 C   0  0  0  0  0  0  0  0  0  0  0  0
   39.8430   23.8420   34.5390 C   0  0  0  0  0  0  0  0  0  0  0  0
   40.3820   22.9980   35.4840 C   0  0  0  0  0  0  0  0  0  0  0  0
   41.4020   22.1230   35.4550 N   0  0  0  0  0  0  0  0  0  0  0  0
   41.4940   21.5660   36.6580 C   0  0  0  0  0  0  0  0  0  0  0  0
   40.5480   22.0740   37.4480 N   0  0  0  0  0  0  0  0  0  0  0  0
   39.8160   22.9870   36.7520 C   0  0  0  0  0  0  0  0  0  0  0  0
   38.7480   23.7750   37.1060 C   0  0  0  0  0  0  0  0  0  0  0  0
   37.3740   25.2420   36.4190 H   0  0  0  0  0  0  0  0  0  0  0  0
   40.2520   23.8860   33.5340 H   0  0  0  0  0  0  0  0  0  0  0  0
   41.9750   21.9630   34.6050 H   0  0  0  0  0  0  0  0  0  0  0  0
   42.2490   20.8230   36.8760 H   0  0  0  0  0  0  0  0  0  0  0  0
   38.2200   23.6950   38.4630 C   0  0  0  0  0  0  0  0  0  0  0  0
   38.0560   22.7520   38.9610 H   0  0  0  0  0  0  0  0  0  0  0  0
   37.9560   24.7750   39.0430 O   0  0  0  0  0  0  0  0  0  0  0  0
   36.3660   28.3190   34.3330 F   0  0  0  0  0  0  0  0  0  0  0  0
   36.6940   28.2670   33.0170 C   0  0  0  0  0  0  0  0  0  0  0  0
   35.9260   28.9200   32.0970 C   0  0  0  0  0  0  0  0  0  0  0  0
   36.3170   28.8230   30.7910 C   0  0  0  0  0  0  0  0  0  0  0  0
   37.4160   28.1160   30.3850 C   0  0  0  0  0  0  0  0  0  0  0  0
   38.1780   27.4630   31.3380 C   0  0  0  0  0  0  0  0  0  0  0  0
   37.8140   27.5380   32.6690 C   0  0  0  0  0  0  0  0  0  0  0  0
   35.7210   29.3340   30.0370 H   0  0  0  0  0  0  0  0  0  0  0  0
   37.6950   28.0600   29.3400 H   0  0  0  0  0  0  0  0  0  0  0  0
   39.0600   26.8910   31.0490 H   0  0  0  0  0  0  0  0  0  0  0  0
   33.6740   31.6820   33.3640 C   0  0  0  0  0  0  0  0  0  0  0  0
   34.8180   30.9960   32.9120 C   0  0  0  0  0  0  0  0  0  0  0  0
   34.7590   29.6640   32.5700 C   0  0  0  0  0  0  0  0  0  0  0  0
   33.5470   29.0530   32.6910 N   0  0  0  0  0  0  0  0  0  0  0  0
   32.4600   29.7120   33.1220 C   0  0  0  0  0  0  0  0  0  0  0  0
   32.5260   30.9950   33.4500 N   0  0  0  0  0  0  0  0  0  0  0  0
   33.8930   32.7150   33.5890 H   0  0  0  0  0  0  0  0  0  0  0  0
   35.7930   31.4660   32.8080 H   0  0  0  0  0  0  0  0  0  0  0  0
   31.4800   29.2490   33.2290 H   0  0  0  0  0  0  0  0  0  0  0  0
  1  6  1  0  0  0  0
  2  1  2  0  0  0  0
  3  1  1  0  0  0  0
  3  4  1  0  0  0  0
  5 14  1  0  0  0  0
  5 13  1  0  0  0  0
  6  5  2  0  0  0  0
  7  6  1  0  0  0  0
  7  8  2  0  0  0  0
  8 12  1  0  0  0  0
  9  8  1  0  0  0  0
  9 10  1  0  0  0  0
 10 17  1  0  0  0  0
 10 11  2  0  0  0  0
 12 13  2  0  0  0  0
 12 11  1  0  0  0  0
 13 18  1  0  0  0  0
 15  7  1  0  0  0  0
 16  9  1  0  0  0  0
 18 19  1  0  0  0  0
 18 20  2  0  0  0  0
 22 21  1  0  0  0  0
 23 33  1  0  0  0  0
 23 22  2  0  0  0  0
 24 23  1  0  0  0  0
 25 24  2  0  0  0  0
 25 26  1  0  0  0  0
 26 27  2  0  0  0  0
 27 22  1  0  0  0  0
 27  3  1  0  0  0  0
 28 24  1  0  0  0  0
 29 25  1  0  0  0  0
 30 26  1  0  0  0  0
 31 36  1  0  0  0  0
 31 37  1  0  0  0  0
 32 31  2  0  0  0  0
 33 34  2  0  0  0  0
 33 32  1  0  0  0  0
 34 35  1  0  0  0  0
 35 39  1  0  0  0  0
 35 36  2  0  0  0  0
 38 32  1  0  0  0  0
M  END
>  <minimizedAffinity>
-6.00181723

$$$$

 OpenBabel03272503103D

 39 42  0  0  0  0  0  0  0  0999 V2000
   36.4430   25.7100   31.2180 C   0  0  0  0  0  0  0  0  0  0  0  0
   35.3020   26.1390   30.8440 O   0  0  0  0  0  0  0  0  0  0  0  0
   37.3490   26.7080   31.6690 N   0  0  0  0  0  0  0  0  0  0  0  0
   38.2850   26.4030   31.9760 H   0  0  0  0  0  0  0  0  0  0  0  0
   35.7490   23.4570   31.6940 C   0  0  0  0  0  0  0  0  0  0  0  0
   36.7110   24.2940   31.1560 C   0  0  0  0  0  0  0  0  0  0  0  0
   37.8780   23.8250   30.5810 C   0  0  0  0  0  0  0  0  0  0  0  0
   38.0990   22.4660   30.5400 C   0  0  0  0  0  0  0  0  0  0  0  0
   39.1090   21.7180   30.0620 N   0  0  0  0  0  0  0  0  0  0  0  0
   38.8080   20.4420   30.2830 C   0  0  0  0  0  0  0  0  0  0  0  0
   37.6260   20.3710   30.8930 N   0  0  0  0  0  0  0  0  0  0  0  0
   37.1340   21.6280   31.0800 C   0  0  0  0  0  0  0  0  0  0  0  0
   35.9730   22.0870   31.6510 C   0  0  0  0  0  0  0  0  0  0  0  0
   34.8490   23.8240   32.1360 H   0  0  0  0  0  0  0  0  0  0  0  0
   38.6050   24.5210   30.1720 H   0  0  0  0  0  0  0  0  0  0  0  0
   39.9460   22.1330   29.6100 H   0  0  0  0  0  0  0  0  0  0  0  0
   39.4780   19.6480   29.9820 H   0  0  0  0  0  0  0  0  0  0  0  0
   35.0160   21.1300   32.1930 C   0  0  0  0  0  0  0  0  0  0  0  0
   34.1680   20.7810   31.6240 H   0  0  0  0  0  0  0  0  0  0  0  0
   35.2110   20.7190   33.3630 O   0  0  0  0  0  0  0  0  0  0  0  0
   36.1740   27.8130   33.8700 F   0  0  0  0  0  0  0  0  0  0  0  0
   36.2250   28.5830   32.7530 C   0  0  0  0  0  0  0  0  0  0  0  0
   35.7030   29.8440   32.7700 C   0  0  0  0  0  0  0  0  0  0  0  0
   35.7910   30.5610   31.6100 C   0  0  0  0  0  0  0  0  0  0  0  0
   36.3640   30.0740   30.4660 C   0  0  0  0  0  0  0  0  0  0  0  0
   36.8860   28.7920   30.4750 C   0  0  0  0  0  0  0  0  0  0  0  0
   36.8160   28.0380   31.6310 C   0  0  0  0  0  0  0  0  0  0  0  0
   35.3820   31.5690   31.5970 H   0  0  0  0  0  0  0  0  0  0  0  0
   36.4150   30.6710   29.5640 H   0  0  0  0  0  0  0  0  0  0  0  0
   37.3500   28.3750   29.5820 H   0  0  0  0  0  0  0  0  0  0  0  0
   35.1700   31.5570   36.1000 C   0  0  0  0  0  0  0  0  0  0  0  0
   35.7840   31.1090   34.9140 C   0  0  0  0  0  0  0  0  0  0  0  0
   35.0990   30.3280   34.0110 C   0  0  0  0  0  0  0  0  0  0  0  0
   33.8090   30.0170   34.3230 N   0  0  0  0  0  0  0  0  0  0  0  0
   33.2290   30.4480   35.4540 C   0  0  0  0  0  0  0  0  0  0  0  0
   33.8960   31.1990   36.3190 N   0  0  0  0  0  0  0  0  0  0  0  0
   35.8440   32.1550   36.6950 H   0  0  0  0  0  0  0  0  0  0  0  0
   36.8110   31.3460   34.6480 H   0  0  0  0  0  0  0  0  0  0  0  0
   32.2020   30.2150   35.7290 H   0  0  0  0  0  0  0  0  0  0  0  0
  1  3  1  0  0  0  0
  2  1  2  0  0  0  0
  3  4  1  0  0  0  0
  5 14  1  0  0  0  0
  6  1  1  0  0  0  0
  6  5  2  0  0  0  0
  7  6  1  0  0  0  0
  8  7  2  0  0  0  0
  8 12  1  0  0  0  0
  9 10  1  0  0  0  0
  9  8  1  0  0  0  0
 10 11  2  0  0  0  0
 11 12  1  0  0  0  0
 12 13  2  0  0  0  0
 13  5  1  0  0  0  0
 13 18  1  0  0  0  0
 15  7  1  0  0  0  0
 16  9  1  0  0  0  0
 17 10  1  0  0  0  0
 18 20  2  0  0  0  0
 19 18  1  0  0  0  0
 22 23  1  0  0  0  0
 22 21  1  0  0  0  0
 23 33  1  0  0  0  0
 24 23  2  0  0  0  0
 25 26  2  0  0  0  0
 25 24  1  0  0  0  0
 26 27  1  0  0  0  0
 27  3  1  0  0  0  0
 27 22  2  0  0  0  0
 28 24  1  0  0  0  0
 29 25  1  0  0  0  0
 30 26  1  0  0  0  0
 31 36  1  0  0  0  0
 31 37  1  0  0  0  0
 32 31  2  0  0  0  0
 33 34  2  0  0  0  0
 33 32  1  0  0  0  0
 34 35  1  0  0  0  0
 35 39  1  0  0  0  0
 35 36  2  0  0  0  0
 38 32  1  0  0  0  0
M  END
>  <minimizedAffinity>
-5.85429525

$$$$

 OpenBabel03272503103D

 39 42  0  0  0  0  0  0  0  0999 V2000
   36.8480   27.1240   31.9060 C   0  0  0  0  0  0  0  0  0  0  0  0
   37.5920   26.6280   32.8140 O   0  0  0  0  0  0  0  0  0  0  0  0
   36.6570   26.3030   30.7620 N   0  0  0  0  0  0  0  0  0  0  0  0
   36.0650   26.6700   30.0010 H   0  0  0  0  0  0  0  0  0  0  0  0
   36.0420   28.8100   33.4200 C   0  0  0  0  0  0  0  0  0  0  0  0
   36.2790   28.4340   32.1090 C   0  0  0  0  0  0  0  0  0  0  0  0
   35.9950   29.2510   31.0300 C   0  0  0  0  0  0  0  0  0  0  0  0
   35.4530   30.4950   31.2620 C   0  0  0  0  0  0  0  0  0  0  0  0
   35.0760   31.4960   30.4470 N   0  0  0  0  0  0  0  0  0  0  0  0
   34.6110   32.4840   31.2050 C   0  0  0  0  0  0  0  0  0  0  0  0
   34.6890   32.1250   32.4860 N   0  0  0  0  0  0  0  0  0  0  0  0
   35.2160   30.8720   32.5770 C   0  0  0  0  0  0  0  0  0  0  0  0
   35.4950   30.0650   33.6520 C   0  0  0  0  0  0  0  0  0  0  0  0
   36.2630   28.1760   34.2490 H   0  0  0  0  0  0  0  0  0  0  0  0
   36.1990   28.9120   30.0180 H   0  0  0  0  0  0  0  0  0  0  0  0
   35.1610   31.4370   29.4150 H   0  0  0  0  0  0  0  0  0  0  0  0
   34.2460   33.4030   30.7670 H   0  0  0  0  0  0  0  0  0  0  0  0
   35.2110   30.5470   34.9990 C   0  0  0  0  0  0  0  0  0  0  0  0
   34.2120   30.5660   35.4040 H   0  0  0  0  0  0  0  0  0  0  0  0
   36.1840   30.9460   35.6850 O   0  0  0  0  0  0  0  0  0  0  0  0
   35.4120   24.0890   31.7570 F   0  0  0  0  0  0  0  0  0  0  0  0
   36.6920   23.9320   31.3350 C   0  0  0  0  0  0  0  0  0  0  0  0
   37.2930   22.7090   31.4210 C   0  0  0  0  0  0  0  0  0  0  0  0
   38.5830   22.6260   30.9770 C   0  0  0  0  0  0  0  0  0  0  0  0
   39.2730   23.6920   30.4650 C   0  0  0  0  0  0  0  0  0  0  0  0
   38.6410   24.9210   30.3900 C   0  0  0  0  0  0  0  0  0  0  0  0
   37.3360   25.0430   30.8290 C   0  0  0  0  0  0  0  0  0  0  0  0
   39.0850   21.6620   31.0340 H   0  0  0  0  0  0  0  0  0  0  0  0
   40.2950   23.5890   30.1240 H   0  0  0  0  0  0  0  0  0  0  0  0
   39.1610   25.7900   29.9880 H   0  0  0  0  0  0  0  0  0  0  0  0
   35.1780   19.5900   31.7450 C   0  0  0  0  0  0  0  0  0  0  0  0
   35.9130   20.6500   31.1790 C   0  0  0  0  0  0  0  0  0  0  0  0
   36.5230   21.5950   31.9720 C   0  0  0  0  0  0  0  0  0  0  0  0
   36.3790   21.4500   33.3200 N   0  0  0  0  0  0  0  0  0  0  0  0
   35.6780   20.4370   33.8540 C   0  0  0  0  0  0  0  0  0  0  0  0
   35.0930   19.5310   33.0820 N   0  0  0  0  0  0  0  0  0  0  0  0
   34.7670   18.9420   30.9860 H   0  0  0  0  0  0  0  0  0  0  0  0
   36.0390   20.7830   30.1070 H   0  0  0  0  0  0  0  0  0  0  0  0
   35.5460   20.2970   34.9250 H   0  0  0  0  0  0  0  0  0  0  0  0
  1  6  1  0  0  0  0
  1  2  2  0  0  0  0
  3 27  1  0  0  0  0
  3  1  1  0  0  0  0
  4  3  1  0  0  0  0
  5 13  1  0  0  0  0
  5 14  1  0  0  0  0
  6  5  2  0  0  0  0
  7  8  2  0  0  0  0
  7  6  1  0  0  0  0
  8 12  1  0  0  0  0
  9 10  1  0  0  0  0
  9  8  1  0  0  0  0
 10 11  2  0  0  0  0
 11 12  1  0  0  0  0
 12 13  2  0  0  0  0
 13 18  1  0  0  0  0
 15  7  1  0  0  0  0
 16  9  1  0  0  0  0
 17 10  1  0  0  0  0
 18 19  1  0  0  0  0
 18 20  2  0  0  0  0
 22 23  1  0  0  0  0
 22 21  1  0  0  0  0
 23 33  1  0  0  0  0
 24 28  1  0  0  0  0
 24 23  2  0  0  0  0
 25 24  1  0  0  0  0
 26 25  2  0  0  0  0
 26 27  1  0  0  0  0
 27 22  2  0  0  0  0
 29 25  1  0  0  0  0
 30 26  1  0  0  0  0
 31 36  1  0  0  0  0
 32 31  2  0  0  0  0
 32 33  1  0  0  0  0
 33 34  2  0  0  0  0
 34 35  1  0  0  0  0
 35 39  1  0  0  0  0
 36 35  2  0  0  0  0
 37 31  1  0  0  0  0
 38 32  1  0  0  0  0
M  END
>  <minimizedAffinity>
-5.85322571

$$$$

 OpenBabel03272503103D

 39 42  0  0  0  0  0  0  0  0999 V2000
   36.3380   25.7520   31.2170 C   0  0  0  0  0  0  0  0  0  0  0  0
   35.2090   26.2130   30.8470 O   0  0  0  0  0  0  0  0  0  0  0  0
   37.2710   26.7230   31.6720 N   0  0  0  0  0  0  0  0  0  0  0  0
   38.1990   26.3920   31.9760 H   0  0  0  0  0  0  0  0  0  0  0  0
   37.8170   23.9260   30.7050 C   0  0  0  0  0  0  0  0  0  0  0  0
   36.5680   24.3300   31.1450 C   0  0  0  0  0  0  0  0  0  0  0  0
   35.5740   23.4380   31.5040 C   0  0  0  0  0  0  0  0  0  0  0  0
   35.8310   22.0880   31.4240 C   0  0  0  0  0  0  0  0  0  0  0  0
   35.0920   20.9980   31.6940 N   0  0  0  0  0  0  0  0  0  0  0  0
   35.8380   19.9280   31.4370 C   0  0  0  0  0  0  0  0  0  0  0  0
   37.0360   20.3230   31.0090 N   0  0  0  0  0  0  0  0  0  0  0  0
   37.0840   21.6840   30.9820 C   0  0  0  0  0  0  0  0  0  0  0  0
   38.0750   22.5640   30.6240 C   0  0  0  0  0  0  0  0  0  0  0  0
   38.5820   24.6190   30.4290 H   0  0  0  0  0  0  0  0  0  0  0  0
   34.6090   23.8030   31.8440 H   0  0  0  0  0  0  0  0  0  0  0  0
   34.1160   21.0580   32.0390 H   0  0  0  0  0  0  0  0  0  0  0  0
   35.4520   18.9280   31.5810 H   0  0  0  0  0  0  0  0  0  0  0  0
   39.3610   22.0470   30.1720 C   0  0  0  0  0  0  0  0  0  0  0  0
   39.5450   21.7850   29.1420 H   0  0  0  0  0  0  0  0  0  0  0  0
   40.2630   21.9130   31.0340 O   0  0  0  0  0  0  0  0  0  0  0  0
   36.1520   27.8530   33.8890 F   0  0  0  0  0  0  0  0  0  0  0  0
   36.2100   28.6250   32.7730 C   0  0  0  0  0  0  0  0  0  0  0  0
   35.7220   29.8990   32.7990 C   0  0  0  0  0  0  0  0  0  0  0  0
   35.8160   30.6160   31.6400 C   0  0  0  0  0  0  0  0  0  0  0  0
   36.3630   30.1180   30.4890 C   0  0  0  0  0  0  0  0  0  0  0  0
   36.8500   28.8220   30.4890 C   0  0  0  0  0  0  0  0  0  0  0  0
   36.7740   28.0670   31.6430 C   0  0  0  0  0  0  0  0  0  0  0  0
   35.4330   31.6350   31.6340 H   0  0  0  0  0  0  0  0  0  0  0  0
   36.4190   30.7150   29.5880 H   0  0  0  0  0  0  0  0  0  0  0  0
   37.2920   28.3950   29.5890 H   0  0  0  0  0  0  0  0  0  0  0  0
   35.2750   31.6130   36.1410 C   0  0  0  0  0  0  0  0  0  0  0  0
   35.8630   31.1520   34.9480 C   0  0  0  0  0  0  0  0  0  0  0  0
   35.1450   30.3960   34.0480 C   0  0  0  0  0  0  0  0  0  0  0  0
   33.8500   30.1220   34.3730 N   0  0  0  0  0  0  0  0  0  0  0  0
   33.2950   30.5650   35.5120 C   0  0  0  0  0  0  0  0  0  0  0  0
   33.9930   31.2920   36.3730 N   0  0  0  0  0  0  0  0  0  0  0  0
   35.9720   32.1880   36.7320 H   0  0  0  0  0  0  0  0  0  0  0  0
   36.8930   31.3600   34.6710 H   0  0  0  0  0  0  0  0  0  0  0  0
   32.2640   30.3610   35.7960 H   0  0  0  0  0  0  0  0  0  0  0  0
  1  3  1  0  0  0  0
  2  1  2  0  0  0  0
  3  4  1  0  0  0  0
  5  6  1  0  0  0  0
  6  1  1  0  0  0  0
  6  7  2  0  0  0  0
  7 15  1  0  0  0  0
  8  7  1  0  0  0  0
  8  9  1  0  0  0  0
  9 16  1  0  0  0  0
 10 17  1  0  0  0  0
 10  9  1  0  0  0  0
 11 10  2  0  0  0  0
 12 11  1  0  0  0  0
 12  8  2  0  0  0  0
 13  5  2  0  0  0  0
 13 12  1  0  0  0  0
 14  5  1  0  0  0  0
 18 13  1  0  0  0  0
 18 20  2  0  0  0  0
 19 18  1  0  0  0  0
 22 23  1  0  0  0  0
 22 21  1  0  0  0  0
 23 33  1  0  0  0  0
 24 23  2  0  0  0  0
 25 24  1  0  0  0  0
 26 25  2  0  0  0  0
 26 27  1  0  0  0  0
 27  3  1  0  0  0  0
 27 22  2  0  0  0  0
 28 24  1  0  0  0  0
 29 25  1  0  0  0  0
 30 26  1  0  0  0  0
 31 36  1  0  0  0  0
 31 37  1  0  0  0  0
 32 31  2  0  0  0  0
 33 34  2  0  0  0  0
 33 32  1  0  0  0  0
 34 35  1  0  0  0  0
 35 39  1  0  0  0  0
 35 36  2  0  0  0  0
 38 32  1  0  0  0  0
M  END
>  <minimizedAffinity>
-5.74107456

$$$$

 OpenBabel03272503103D

 39 42  0  0  0  0  0  0  0  0999 V2000
   37.2010   26.3700   31.5620 C   0  0  0  0  0  0  0  0  0  0  0  0
   36.1440   25.9780   32.1580 O   0  0  0  0  0  0  0  0  0  0  0  0
   38.3190   25.5000   31.6720 N   0  0  0  0  0  0  0  0  0  0  0  0
   39.1950   25.7830   31.2090 H   0  0  0  0  0  0  0  0  0  0  0  0
   36.4800   28.6620   31.4440 C   0  0  0  0  0  0  0  0  0  0  0  0
   37.1740   27.6230   30.8480 C   0  0  0  0  0  0  0  0  0  0  0  0
   37.8190   27.7520   29.6310 C   0  0  0  0  0  0  0  0  0  0  0  0
   37.7730   28.9640   28.9790 C   0  0  0  0  0  0  0  0  0  0  0  0
   38.2840   29.3950   27.8130 N   0  0  0  0  0  0  0  0  0  0  0  0
   37.9330   30.6680   27.6620 C   0  0  0  0  0  0  0  0  0  0  0  0
   37.2070   31.0480   28.7130 N   0  0  0  0  0  0  0  0  0  0  0  0
   37.0760   30.0040   29.5780 C   0  0  0  0  0  0  0  0  0  0  0  0
   36.4340   29.8830   30.7850 C   0  0  0  0  0  0  0  0  0  0  0  0
   35.9830   28.5570   32.3840 H   0  0  0  0  0  0  0  0  0  0  0  0
   38.3520   26.9080   29.2030 H   0  0  0  0  0  0  0  0  0  0  0  0
   38.8470   28.7850   27.1900 H   0  0  0  0  0  0  0  0  0  0  0  0
   38.2320   31.2330   26.7900 H   0  0  0  0  0  0  0  0  0  0  0  0
   35.7260   31.0330   31.3370 C   0  0  0  0  0  0  0  0  0  0  0  0
   34.7020   31.2540   31.0820 H   0  0  0  0  0  0  0  0  0  0  0  0
   36.3580   31.7700   32.1320 O   0  0  0  0  0  0  0  0  0  0  0  0
   38.8530   25.4140   34.3460 F   0  0  0  0  0  0  0  0  0  0  0  0
   38.3370   24.2880   33.7900 C   0  0  0  0  0  0  0  0  0  0  0  0
   38.1110   23.1870   34.5640 C   0  0  0  0  0  0  0  0  0  0  0  0
   37.5900   22.0910   33.9360 C   0  0  0  0  0  0  0  0  0  0  0  0
   37.2970   22.0580   32.5990 C   0  0  0  0  0  0  0  0  0  0  0  0
   37.5370   23.1880   31.8370 C   0  0  0  0  0  0  0  0  0  0  0  0
   38.0620   24.3160   32.4380 C   0  0  0  0  0  0  0  0  0  0  0  0
   37.4010   21.2000   34.5310 H   0  0  0  0  0  0  0  0  0  0  0  0
   36.8860   21.1710   32.1350 H   0  0  0  0  0  0  0  0  0  0  0  0
   37.3140   23.1960   30.7700 H   0  0  0  0  0  0  0  0  0  0  0  0
   37.9470   23.9010   38.2750 C   0  0  0  0  0  0  0  0  0  0  0  0
   37.6010   23.8470   36.9110 C   0  0  0  0  0  0  0  0  0  0  0  0
   38.4370   23.2620   35.9880 C   0  0  0  0  0  0  0  0  0  0  0  0
   39.6060   22.7420   36.4620 N   0  0  0  0  0  0  0  0  0  0  0  0
   39.9300   22.7960   37.7630 C   0  0  0  0  0  0  0  0  0  0  0  0
   39.1180   23.3630   38.6450 N   0  0  0  0  0  0  0  0  0  0  0  0
   37.1840   24.3930   38.8600 H   0  0  0  0  0  0  0  0  0  0  0  0
   36.6740   24.2550   36.5140 H   0  0  0  0  0  0  0  0  0  0  0  0
   40.8550   22.3910   38.1690 H   0  0  0  0  0  0  0  0  0  0  0  0
  1  3  1  0  0  0  0
  1  2  2  0  0  0  0
  3 27  1  0  0  0  0
  4  3  1  0  0  0  0
  5 14  1  0  0  0  0
  6  5  1  0  0  0  0
  6  1  1  0  0  0  0
  7  6  2  0  0  0  0
  8 12  2  0  0  0  0
  8  7  1  0  0  0  0
  9  8  1  0  0  0  0
 10  9  1  0  0  0  0
 10 11  2  0  0  0  0
 11 12  1  0  0  0  0
 12 13  1  0  0  0  0
 13 18  1  0  0  0  0
 13  5  2  0  0  0  0
 15  7  1  0  0  0  0
 16  9  1  0  0  0  0
 17 10  1  0  0  0  0
 18 20  2  0  0  0  0
 19 18  1  0  0  0  0
 22 21  1  0  0  0  0
 22 23  1  0  0  0  0
 23 33  1  0  0  0  0
 24 28  1  0  0  0  0
 24 23  2  0  0  0  0
 25 24  1  0  0  0  0
 26 27  1  0  0  0  0
 26 25  2  0  0  0  0
 27 22  2  0  0  0  0
 29 25  1  0  0  0  0
 30 26  1  0  0  0  0
 31 36  1  0  0  0  0
 31 37  1  0  0  0  0
 32 31  2  0  0  0  0
 33 34  2  0  0  0  0
 33 32  1  0  0  0  0
 34 35  1  0  0  0  0
 35 39  1  0  0  0  0
 35 36  2  0  0  0  0
 38 32  1  0  0  0  0
M  END
>  <minimizedAffinity>
-5.66914797

$$$$
