
 OpenBabel03262522003D

 30 31  0  0  1  0  0  0  0  0999 V2000
   38.5080   24.7000   35.6820 N   0  0  0  0  0  0  0  0  0  0  0  0
   39.9280   24.5480   35.7750 C   0  0  0  0  0  0  0  0  0  0  0  0
   40.4840   23.1930   35.6570 C   0  0  0  0  0  0  0  0  0  0  0  0
   39.6070   22.0330   35.9600 C   0  0  0  0  0  0  0  0  0  0  0  0
   38.1300   22.3390   35.9740 C   0  0  0  0  0  0  0  0  0  0  0  0
   37.8800   23.7400   36.5100 C   0  0  1  0  0  0  0  0  0  0  0  0
   40.3220   25.1700   34.9130 H   0  0  0  0  0  0  0  0  0  0  0  0
   40.3720   25.1270   36.6400 H   0  0  0  0  0  0  0  0  0  0  0  0
   41.0440   23.0530   34.6830 H   0  0  0  0  0  0  0  0  0  0  0  0
   41.3360   23.1060   36.4000 H   0  0  0  0  0  0  0  0  0  0  0  0
   39.9470   21.3790   36.7990 H   0  0  0  0  0  0  0  0  0  0  0  0
   39.6840   21.3100   35.0980 H   0  0  0  0  0  0  0  0  0  0  0  0
   37.6360   21.5840   36.6350 H   0  0  0  0  0  0  0  0  0  0  0  0
   37.6500   22.2750   34.9770 H   0  0  0  0  0  0  0  0  0  0  0  0
   36.7860   23.8840   36.3530 H   0  0  0  0  0  0  0  0  0  0  0  0
   37.8380   25.6800   34.8690 C   0  0  0  0  0  0  0  0  0  0  0  0
   37.5210   26.9690   35.2890 C   0  0  0  0  0  0  0  0  0  0  0  0
   36.8740   27.8070   34.3950 C   0  0  0  0  0  0  0  0  0  0  0  0
   36.5820   27.3220   33.1530 N   0  0  0  0  0  0  0  0  0  0  0  0
   36.9000   26.0740   32.7760 C   0  0  0  0  0  0  0  0  0  0  0  0
   37.5220   25.2720   33.6370 N   0  0  0  0  0  0  0  0  0  0  0  0
   37.7980   27.2410   36.2840 H   0  0  0  0  0  0  0  0  0  0  0  0
   36.6220   28.8130   34.7080 H   0  0  0  0  0  0  0  0  0  0  0  0
   36.5710   25.5910   31.4360 C   0  0  0  0  0  0  0  0  0  0  0  0
   37.2930   25.7140   30.6410 H   0  0  0  0  0  0  0  0  0  0  0  0
   35.4510   25.0350   31.2190 O   0  0  0  0  0  0  0  0  0  0  0  0
   38.2720   23.7660   37.9630 C   0  0  0  0  0  0  0  0  0  0  0  0
   37.3200   22.9850   38.6360 F   0  0  0  0  0  0  0  0  0  0  0  0
   38.0850   25.0210   38.4900 F   0  0  0  0  0  0  0  0  0  0  0  0
   39.4690   23.2230   38.2690 F   0  0  0  0  0  0  0  0  0  0  0  0
  1  2  1  0  0  0  0
  1  6  1  0  0  0  0
  2  8  1  0  0  0  0
  3  2  1  0  0  0  0
  3  4  1  0  0  0  0
  3 10  1  0  0  0  0
  4  5  1  0  0  0  0
  4 11  1  0  0  0  0
  5  6  1  0  0  0  0
  5 13  1  0  0  0  0
  6 15  1  6  0  0  0
  6 27  1  0  0  0  0
  7  2  1  0  0  0  0
  9  3  1  0  0  0  0
 12  4  1  0  0  0  0
 14  5  1  0  0  0  0
 16 17  1  0  0  0  0
 16  1  1  0  0  0  0
 17 22  1  0  0  0  0
 18 23  1  0  0  0  0
 18 17  2  0  0  0  0
 19 18  1  0  0  0  0
 20 19  2  0  0  0  0
 20 21  1  0  0  0  0
 21 16  2  0  0  0  0
 24 20  1  0  0  0  0
 25 24  1  0  0  0  0
 26 24  2  0  0  0  0
 27 30  1  0  0  0  0
 27 29  1  0  0  0  0
 27 28  1  0  0  0  0
M  END
>  <minimizedAffinity>
-5.00161934

$$$$

 OpenBabel03262522003D

 30 31  0  0  1  0  0  0  0  0999 V2000
   38.7340   22.9390   35.5950 N   0  0  0  0  0  0  0  0  0  0  0  0
   39.9950   23.0040   36.2680 C   0  0  0  0  0  0  0  0  0  0  0  0
   39.9970   22.9070   37.7340 C   0  0  0  0  0  0  0  0  0  0  0  0
   38.7590   23.2590   38.4750 C   0  0  0  0  0  0  0  0  0  0  0  0
   37.5060   23.3000   37.6360 C   0  0  0  0  0  0  0  0  0  0  0  0
   37.8170   23.8060   36.2360 C   0  0  1  0  0  0  0  0  0  0  0  0
   40.5670   22.1180   35.8540 H   0  0  0  0  0  0  0  0  0  0  0  0
   40.6510   23.8430   35.8860 H   0  0  0  0  0  0  0  0  0  0  0  0
   40.4330   21.9240   38.0890 H   0  0  0  0  0  0  0  0  0  0  0  0
   40.7770   23.6320   38.1250 H   0  0  0  0  0  0  0  0  0  0  0  0
   38.8530   24.1060   39.1970 H   0  0  0  0  0  0  0  0  0  0  0  0
   38.5320   22.4140   39.1860 H   0  0  0  0  0  0  0  0  0  0  0  0
   36.7860   23.9910   38.1390 H   0  0  0  0  0  0  0  0  0  0  0  0
   37.0070   22.3160   37.5290 H   0  0  0  0  0  0  0  0  0  0  0  0
   36.8530   23.6700   35.6940 H   0  0  0  0  0  0  0  0  0  0  0  0
   38.4570   22.1180   34.4470 C   0  0  0  0  0  0  0  0  0  0  0  0
   39.4090   21.7290   33.5090 C   0  0  0  0  0  0  0  0  0  0  0  0
   38.9960   20.9340   32.4510 C   0  0  0  0  0  0  0  0  0  0  0  0
   37.6800   20.5770   32.3880 N   0  0  0  0  0  0  0  0  0  0  0  0
   36.7850   20.9690   33.3070 C   0  0  0  0  0  0  0  0  0  0  0  0
   37.1850   21.7320   34.3220 N   0  0  0  0  0  0  0  0  0  0  0  0
   40.4100   22.0660   33.6590 H   0  0  0  0  0  0  0  0  0  0  0  0
   39.7260   20.6220   31.7130 H   0  0  0  0  0  0  0  0  0  0  0  0
   35.3830   20.5670   33.2050 C   0  0  0  0  0  0  0  0  0  0  0  0
   34.9330   20.0170   34.0200 H   0  0  0  0  0  0  0  0  0  0  0  0
   34.7110   20.8650   32.1710 O   0  0  0  0  0  0  0  0  0  0  0  0
   38.2350   25.2490   36.3380 C   0  0  0  0  0  0  0  0  0  0  0  0
   37.2820   25.9810   35.6160 F   0  0  0  0  0  0  0  0  0  0  0  0
   39.3990   25.4630   35.6410 F   0  0  0  0  0  0  0  0  0  0  0  0
   38.2400   25.7820   37.5780 F   0  0  0  0  0  0  0  0  0  0  0  0
  1  6  1  0  0  0  0
  1  2  1  0  0  0  0
  2  3  1  0  0  0  0
  3  9  1  0  0  0  0
  3 10  1  0  0  0  0
  3  4  1  0  0  0  0
  4 12  1  0  0  0  0
  4 11  1  0  0  0  0
  5 13  1  0  0  0  0
  5  4  1  0  0  0  0
  6 15  1  6  0  0  0
  6 27  1  0  0  0  0
  6  5  1  0  0  0  0
  7  2  1  0  0  0  0
  8  2  1  0  0  0  0
 14  5  1  0  0  0  0
 16  1  1  0  0  0  0
 17 22  1  0  0  0  0
 17 16  2  0  0  0  0
 18 17  1  0  0  0  0
 19 18  2  0  0  0  0
 19 20  1  0  0  0  0
 20 21  2  0  0  0  0
 21 16  1  0  0  0  0
 23 18  1  0  0  0  0
 24 20  1  0  0  0  0
 24 25  1  0  0  0  0
 26 24  2  0  0  0  0
 27 30  1  0  0  0  0
 28 27  1  0  0  0  0
 29 27  1  0  0  0  0
M  END
>  <minimizedAffinity>
-4.83061504

$$$$

 OpenBabel03262522003D

 30 31  0  0  1  0  0  0  0  0999 V2000
   38.5370   25.2710   35.0880 N   0  0  0  0  0  0  0  0  0  0  0  0
   38.0230   24.8160   33.8310 C   0  0  0  0  0  0  0  0  0  0  0  0
   38.6690   25.3070   32.6060 C   0  0  0  0  0  0  0  0  0  0  0  0
   39.4300   26.5810   32.6610 C   0  0  0  0  0  0  0  0  0  0  0  0
   39.7990   27.0410   34.0500 C   0  0  0  0  0  0  0  0  0  0  0  0
   38.7060   26.6750   35.0420 C   0  0  1  0  0  0  0  0  0  0  0  0
   38.1570   23.6920   33.8770 H   0  0  0  0  0  0  0  0  0  0  0  0
   36.8930   24.8660   33.7780 H   0  0  0  0  0  0  0  0  0  0  0  0
   39.2540   24.4900   32.0850 H   0  0  0  0  0  0  0  0  0  0  0  0
   37.8530   25.4960   31.8410 H   0  0  0  0  0  0  0  0  0  0  0  0
   39.0580   27.3940   31.9940 H   0  0  0  0  0  0  0  0  0  0  0  0
   40.4440   26.3950   32.2050 H   0  0  0  0  0  0  0  0  0  0  0  0
   39.9250   28.1510   34.0140 H   0  0  0  0  0  0  0  0  0  0  0  0
   40.7470   26.6080   34.4280 H   0  0  0  0  0  0  0  0  0  0  0  0
   39.1490   26.9510   36.0260 H   0  0  0  0  0  0  0  0  0  0  0  0
   38.8300   24.4220   36.2110 C   0  0  0  0  0  0  0  0  0  0  0  0
   38.1080   24.4130   37.4020 C   0  0  0  0  0  0  0  0  0  0  0  0
   38.5060   23.5390   38.4000 C   0  0  0  0  0  0  0  0  0  0  0  0
   39.5840   22.7350   38.1620 N   0  0  0  0  0  0  0  0  0  0  0  0
   40.2600   22.7670   37.0040 C   0  0  0  0  0  0  0  0  0  0  0  0
   39.8750   23.6070   36.0460 N   0  0  0  0  0  0  0  0  0  0  0  0
   37.2820   25.0850   37.4780 H   0  0  0  0  0  0  0  0  0  0  0  0
   37.9540   23.5210   39.3320 H   0  0  0  0  0  0  0  0  0  0  0  0
   41.4100   21.8900   36.7860 C   0  0  0  0  0  0  0  0  0  0  0  0
   41.9020   21.9000   35.8230 H   0  0  0  0  0  0  0  0  0  0  0  0
   41.8180   21.1340   37.7190 O   0  0  0  0  0  0  0  0  0  0  0  0
   37.4770   27.4770   34.7060 C   0  0  0  0  0  0  0  0  0  0  0  0
   37.4670   28.5620   35.5940 F   0  0  0  0  0  0  0  0  0  0  0  0
   36.3410   26.7800   35.0400 F   0  0  0  0  0  0  0  0  0  0  0  0
   37.4360   28.0170   33.4700 F   0  0  0  0  0  0  0  0  0  0  0  0
  1 16  1  0  0  0  0
  2  7  1  0  0  0  0
  2  1  1  0  0  0  0
  3  4  1  0  0  0  0
  3  2  1  0  0  0  0
  4  5  1  0  0  0  0
  5 14  1  0  0  0  0
  5  6  1  0  0  0  0
  6  1  1  0  0  0  0
  6 15  1  1  0  0  0
  8  2  1  0  0  0  0
  9  3  1  0  0  0  0
 10  3  1  0  0  0  0
 11  4  1  0  0  0  0
 12  4  1  0  0  0  0
 13  5  1  0  0  0  0
 16 17  1  0  0  0  0
 17 22  1  0  0  0  0
 17 18  2  0  0  0  0
 18 23  1  0  0  0  0
 19 18  1  0  0  0  0
 20 19  2  0  0  0  0
 21 16  2  0  0  0  0
 21 20  1  0  0  0  0
 24 20  1  0  0  0  0
 24 26  2  0  0  0  0
 25 24  1  0  0  0  0
 27 29  1  0  0  0  0
 27  6  1  0  0  0  0
 27 28  1  0  0  0  0
 30 27  1  0  0  0  0
M  END
>  <minimizedAffinity>
-4.76415205

$$$$

 OpenBabel03262522003D

 30 31  0  0  1  0  0  0  0  0999 V2000
   38.4250   25.9470   35.3350 N   0  0  0  0  0  0  0  0  0  0  0  0
   37.9950   27.2930   35.5660 C   0  0  0  0  0  0  0  0  0  0  0  0
   36.9590   27.8440   34.6820 C   0  0  0  0  0  0  0  0  0  0  0  0
   36.7720   27.2420   33.3370 C   0  0  0  0  0  0  0  0  0  0  0  0
   37.3900   25.8770   33.1610 C   0  0  0  0  0  0  0  0  0  0  0  0
   38.6820   25.7690   33.9550 C   0  0  1  0  0  0  0  0  0  0  0  0
   37.5840   27.2660   36.6210 H   0  0  0  0  0  0  0  0  0  0  0  0
   38.8600   28.0060   35.7210 H   0  0  0  0  0  0  0  0  0  0  0  0
   35.9730   27.9760   35.2230 H   0  0  0  0  0  0  0  0  0  0  0  0
   37.2260   28.9260   34.4740 H   0  0  0  0  0  0  0  0  0  0  0  0
   36.9330   27.9310   32.4740 H   0  0  0  0  0  0  0  0  0  0  0  0
   35.6750   27.0150   33.2120 H   0  0  0  0  0  0  0  0  0  0  0  0
   37.6000   25.7410   32.0710 H   0  0  0  0  0  0  0  0  0  0  0  0
   36.7330   25.0430   33.4820 H   0  0  0  0  0  0  0  0  0  0  0  0
   38.9640   24.6970   33.8430 H   0  0  0  0  0  0  0  0  0  0  0  0
   38.5690   24.9440   36.3560 C   0  0  0  0  0  0  0  0  0  0  0  0
   37.8510   24.9260   37.5490 C   0  0  0  0  0  0  0  0  0  0  0  0
   38.0940   23.8950   38.4420 C   0  0  0  0  0  0  0  0  0  0  0  0
   39.0250   22.9550   38.1030 N   0  0  0  0  0  0  0  0  0  0  0  0
   39.7010   22.9990   36.9460 C   0  0  0  0  0  0  0  0  0  0  0  0
   39.4650   23.9910   36.0900 N   0  0  0  0  0  0  0  0  0  0  0  0
   37.1480   25.7130   37.7090 H   0  0  0  0  0  0  0  0  0  0  0  0
   37.5430   23.8670   39.3740 H   0  0  0  0  0  0  0  0  0  0  0  0
   40.6910   21.9730   36.6180 C   0  0  0  0  0  0  0  0  0  0  0  0
   40.8050   21.6640   35.5880 H   0  0  0  0  0  0  0  0  0  0  0  0
   41.4010   21.4610   37.5360 O   0  0  0  0  0  0  0  0  0  0  0  0
   39.6900   26.7070   33.3460 C   0  0  0  0  0  0  0  0  0  0  0  0
   40.6340   25.8960   32.6990 F   0  0  0  0  0  0  0  0  0  0  0  0
   40.4220   27.3300   34.3270 F   0  0  0  0  0  0  0  0  0  0  0  0
   39.2250   27.5500   32.3990 F   0  0  0  0  0  0  0  0  0  0  0  0
  1  2  1  0  0  0  0
  1 16  1  0  0  0  0
  2  8  1  0  0  0  0
  2  7  1  0  0  0  0
  3  9  1  0  0  0  0
  3  2  1  0  0  0  0
  4  3  1  0  0  0  0
  5  4  1  0  0  0  0
  5 14  1  0  0  0  0
  5  6  1  0  0  0  0
  6 15  1  6  0  0  0
  6  1  1  0  0  0  0
 10  3  1  0  0  0  0
 11  4  1  0  0  0  0
 12  4  1  0  0  0  0
 13  5  1  0  0  0  0
 16 17  1  0  0  0  0
 17 22  1  0  0  0  0
 17 18  2  0  0  0  0
 18 23  1  0  0  0  0
 19 18  1  0  0  0  0
 20 19  2  0  0  0  0
 21 16  2  0  0  0  0
 21 20  1  0  0  0  0
 24 20  1  0  0  0  0
 24 26  2  0  0  0  0
 25 24  1  0  0  0  0
 27  6  1  0  0  0  0
 27 29  1  0  0  0  0
 28 27  1  0  0  0  0
 30 27  1  0  0  0  0
M  END
>  <minimizedAffinity>
-4.73038769

$$$$

 OpenBabel03262522003D

 30 31  0  0  1  0  0  0  0  0999 V2000
   37.0250   21.4440   33.4450 N   0  0  0  0  0  0  0  0  0  0  0  0
   35.8290   20.7690   33.8490 C   0  0  0  0  0  0  0  0  0  0  0  0
   35.4780   19.5210   33.1580 C   0  0  0  0  0  0  0  0  0  0  0  0
   36.0270   19.2770   31.7990 C   0  0  0  0  0  0  0  0  0  0  0  0
   37.2020   20.1450   31.4240 C   0  0  0  0  0  0  0  0  0  0  0  0
   37.0590   21.5310   32.0330 C   0  0  1  0  0  0  0  0  0  0  0  0
   36.0100   20.5320   34.9410 H   0  0  0  0  0  0  0  0  0  0  0  0
   34.9470   21.4710   33.9550 H   0  0  0  0  0  0  0  0  0  0  0  0
   35.6060   18.6190   33.8300 H   0  0  0  0  0  0  0  0  0  0  0  0
   34.3530   19.5130   33.0150 H   0  0  0  0  0  0  0  0  0  0  0  0
   35.2690   19.1570   30.9880 H   0  0  0  0  0  0  0  0  0  0  0  0
   36.4900   18.2490   31.7950 H   0  0  0  0  0  0  0  0  0  0  0  0
   37.2230   20.2200   30.3090 H   0  0  0  0  0  0  0  0  0  0  0  0
   38.1810   19.7400   31.7500 H   0  0  0  0  0  0  0  0  0  0  0  0
   38.0300   22.0210   31.7900 H   0  0  0  0  0  0  0  0  0  0  0  0
   38.0270   21.9490   34.3450 C   0  0  0  0  0  0  0  0  0  0  0  0
   39.3880   22.0090   34.0570 C   0  0  0  0  0  0  0  0  0  0  0  0
   40.2380   22.5220   35.0230 C   0  0  0  0  0  0  0  0  0  0  0  0
   39.6950   22.9390   36.2040 N   0  0  0  0  0  0  0  0  0  0  0  0
   38.3790   22.8690   36.4530 C   0  0  0  0  0  0  0  0  0  0  0  0
   37.5640   22.3760   35.5230 N   0  0  0  0  0  0  0  0  0  0  0  0
   39.7010   21.6540   33.1000 H   0  0  0  0  0  0  0  0  0  0  0  0
   41.2990   22.5750   34.8120 H   0  0  0  0  0  0  0  0  0  0  0  0
   37.8350   23.3260   37.7320 C   0  0  0  0  0  0  0  0  0  0  0  0
   36.7830   23.5690   37.7970 H   0  0  0  0  0  0  0  0  0  0  0  0
   38.5930   23.4310   38.7430 O   0  0  0  0  0  0  0  0  0  0  0  0
   35.8820   22.2110   31.3860 C   0  0  0  0  0  0  0  0  0  0  0  0
   36.4040   23.3030   30.6780 F   0  0  0  0  0  0  0  0  0  0  0  0
   35.0840   22.8000   32.3370 F   0  0  0  0  0  0  0  0  0  0  0  0
   35.1960   21.4840   30.4790 F   0  0  0  0  0  0  0  0  0  0  0  0
  1  2  1  0  0  0  0
  1 16  1  0  0  0  0
  2  8  1  0  0  0  0
  2  7  1  0  0  0  0
  3  9  1  0  0  0  0
  3  2  1  0  0  0  0
  4  3  1  0  0  0  0
  5 14  1  0  0  0  0
  5  4  1  0  0  0  0
  5  6  1  0  0  0  0
  6 15  1  6  0  0  0
  6  1  1  0  0  0  0
 10  3  1  0  0  0  0
 11  4  1  0  0  0  0
 12  4  1  0  0  0  0
 13  5  1  0  0  0  0
 16 21  1  0  0  0  0
 17 16  2  0  0  0  0
 17 18  1  0  0  0  0
 18 19  2  0  0  0  0
 19 20  1  0  0  0  0
 20 24  1  0  0  0  0
 21 20  2  0  0  0  0
 22 17  1  0  0  0  0
 23 18  1  0  0  0  0
 24 25  1  0  0  0  0
 24 26  2  0  0  0  0
 27  6  1  0  0  0  0
 27 29  1  0  0  0  0
 28 27  1  0  0  0  0
 30 27  1  0  0  0  0
M  END
>  <minimizedAffinity>
-4.69329214

$$$$

 OpenBabel03262522003D

 30 31  0  0  1  0  0  0  0  0999 V2000
   37.8810   25.5990   33.7110 N   0  0  0  0  0  0  0  0  0  0  0  0
   38.2460   24.6680   34.7350 C   0  0  0  0  0  0  0  0  0  0  0  0
   38.2580   25.1450   36.1250 C   0  0  0  0  0  0  0  0  0  0  0  0
   38.4060   26.6010   36.3790 C   0  0  0  0  0  0  0  0  0  0  0  0
   38.1340   27.4860   35.1880 C   0  0  0  0  0  0  0  0  0  0  0  0
   38.5890   26.8090   33.9050 C   0  0  1  0  0  0  0  0  0  0  0  0
   37.4650   23.8520   34.6470 H   0  0  0  0  0  0  0  0  0  0  0  0
   39.1700   24.0710   34.4720 H   0  0  0  0  0  0  0  0  0  0  0  0
   37.4110   24.6980   36.7290 H   0  0  0  0  0  0  0  0  0  0  0  0
   39.1500   24.6740   36.6420 H   0  0  0  0  0  0  0  0  0  0  0  0
   39.3050   26.8970   36.9720 H   0  0  0  0  0  0  0  0  0  0  0  0
   37.5860   26.9120   37.0880 H   0  0  0  0  0  0  0  0  0  0  0  0
   38.7010   28.4370   35.3390 H   0  0  0  0  0  0  0  0  0  0  0  0
   37.0640   27.7490   35.0610 H   0  0  0  0  0  0  0  0  0  0  0  0
   38.2250   27.4960   33.1080 H   0  0  0  0  0  0  0  0  0  0  0  0
   36.9400   25.3330   32.6560 C   0  0  0  0  0  0  0  0  0  0  0  0
   36.2840   26.3150   31.9190 C   0  0  0  0  0  0  0  0  0  0  0  0
   35.4020   25.9090   30.9300 C   0  0  0  0  0  0  0  0  0  0  0  0
   35.2250   24.5690   30.7340 N   0  0  0  0  0  0  0  0  0  0  0  0
   35.8720   23.6460   31.4610 C   0  0  0  0  0  0  0  0  0  0  0  0
   36.7180   24.0390   32.4100 N   0  0  0  0  0  0  0  0  0  0  0  0
   36.5000   27.3320   32.1580 H   0  0  0  0  0  0  0  0  0  0  0  0
   34.8850   26.6620   30.3480 H   0  0  0  0  0  0  0  0  0  0  0  0
   35.6550   22.2200   31.2220 C   0  0  0  0  0  0  0  0  0  0  0  0
   35.8850   21.8100   30.2480 H   0  0  0  0  0  0  0  0  0  0  0  0
   35.2060   21.4810   32.1500 O   0  0  0  0  0  0  0  0  0  0  0  0
   40.0900   26.6950   33.9390 C   0  0  0  0  0  0  0  0  0  0  0  0
   40.4870   27.1730   35.1970 F   0  0  0  0  0  0  0  0  0  0  0  0
   40.6610   27.5860   33.0640 F   0  0  0  0  0  0  0  0  0  0  0  0
   40.5970   25.4470   33.8480 F   0  0  0  0  0  0  0  0  0  0  0  0
  1  6  1  0  0  0  0
  1  2  1  0  0  0  0
  2  3  1  0  0  0  0
  3  4  1  0  0  0  0
  3 10  1  0  0  0  0
  3  9  1  0  0  0  0
  4 11  1  0  0  0  0
  4 12  1  0  0  0  0
  5 13  1  0  0  0  0
  5  4  1  0  0  0  0
  6 15  1  6  0  0  0
  6 27  1  0  0  0  0
  6  5  1  0  0  0  0
  7  2  1  0  0  0  0
  8  2  1  0  0  0  0
 14  5  1  0  0  0  0
 16  1  1  0  0  0  0
 17 22  1  0  0  0  0
 17 16  2  0  0  0  0
 18 17  1  0  0  0  0
 19 18  2  0  0  0  0
 19 20  1  0  0  0  0
 20 21  2  0  0  0  0
 21 16  1  0  0  0  0
 23 18  1  0  0  0  0
 24 20  1  0  0  0  0
 24 26  2  0  0  0  0
 25 24  1  0  0  0  0
 27 28  1  0  0  0  0
 29 27  1  0  0  0  0
 30 27  1  0  0  0  0
M  END
>  <minimizedAffinity>
-4.67601299

$$$$

 OpenBabel03262522003D

 30 31  0  0  1  0  0  0  0  0999 V2000
   38.8650   23.2260   35.1390 N   0  0  0  0  0  0  0  0  0  0  0  0
   39.7980   24.3110   35.1020 C   0  0  0  0  0  0  0  0  0  0  0  0
   41.1740   24.0500   35.5480 C   0  0  0  0  0  0  0  0  0  0  0  0
   41.4240   22.9080   36.4630 C   0  0  0  0  0  0  0  0  0  0  0  0
   40.3110   21.8920   36.5310 C   0  0  0  0  0  0  0  0  0  0  0  0
   38.9580   22.5720   36.3910 C   0  0  1  0  0  0  0  0  0  0  0  0
   39.8280   24.6020   34.0080 H   0  0  0  0  0  0  0  0  0  0  0  0
   39.3730   25.2660   35.5370 H   0  0  0  0  0  0  0  0  0  0  0  0
   41.9040   24.0620   34.6820 H   0  0  0  0  0  0  0  0  0  0  0  0
   41.5250   24.9600   36.1260 H   0  0  0  0  0  0  0  0  0  0  0  0
   41.8630   23.1720   37.4550 H   0  0  0  0  0  0  0  0  0  0  0  0
   42.2660   22.2960   36.0280 H   0  0  0  0  0  0  0  0  0  0  0  0
   40.3800   21.3830   37.5240 H   0  0  0  0  0  0  0  0  0  0  0  0
   40.3700   21.1090   35.7480 H   0  0  0  0  0  0  0  0  0  0  0  0
   38.2450   21.7180   36.3330 H   0  0  0  0  0  0  0  0  0  0  0  0
   37.9790   22.8670   34.0640 C   0  0  0  0  0  0  0  0  0  0  0  0
   37.8800   23.5610   32.8610 C   0  0  0  0  0  0  0  0  0  0  0  0
   36.9800   23.0990   31.9140 C   0  0  0  0  0  0  0  0  0  0  0  0
   36.2420   21.9900   32.2130 N   0  0  0  0  0  0  0  0  0  0  0  0
   36.3600   21.3430   33.3820 C   0  0  0  0  0  0  0  0  0  0  0  0
   37.2250   21.7890   34.2900 N   0  0  0  0  0  0  0  0  0  0  0  0
   38.5070   24.4150   32.7360 H   0  0  0  0  0  0  0  0  0  0  0  0
   36.8920   23.6280   30.9730 H   0  0  0  0  0  0  0  0  0  0  0  0
   35.5500   20.1580   33.6660 C   0  0  0  0  0  0  0  0  0  0  0  0
   34.8510   20.1850   34.4900 H   0  0  0  0  0  0  0  0  0  0  0  0
   35.6730   19.1200   32.9480 O   0  0  0  0  0  0  0  0  0  0  0  0
   38.7380   23.4370   37.6040 C   0  0  0  0  0  0  0  0  0  0  0  0
   37.5440   22.9900   38.1890 F   0  0  0  0  0  0  0  0  0  0  0  0
   38.4460   24.7270   37.2290 F   0  0  0  0  0  0  0  0  0  0  0  0
   39.6720   23.3540   38.5750 F   0  0  0  0  0  0  0  0  0  0  0  0
  1  6  1  0  0  0  0
  2  1  1  0  0  0  0
  2  8  1  0  0  0  0
  2  3  1  0  0  0  0
  3 10  1  0  0  0  0
  3  4  1  0  0  0  0
  4  5  1  0  0  0  0
  4 11  1  0  0  0  0
  5 13  1  0  0  0  0
  6 15  1  1  0  0  0
  6  5  1  0  0  0  0
  6 27  1  0  0  0  0
  7  2  1  0  0  0  0
  9  3  1  0  0  0  0
 12  4  1  0  0  0  0
 14  5  1  0  0  0  0
 16 21  1  0  0  0  0
 16  1  1  0  0  0  0
 17 16  2  0  0  0  0
 18 19  2  0  0  0  0
 18 17  1  0  0  0  0
 19 20  1  0  0  0  0
 20 24  1  0  0  0  0
 20 21  2  0  0  0  0
 22 17  1  0  0  0  0
 23 18  1  0  0  0  0
 24 25  1  0  0  0  0
 26 24  2  0  0  0  0
 27 28  1  0  0  0  0
 27 30  1  0  0  0  0
 29 27  1  0  0  0  0
M  END
>  <minimizedAffinity>
-4.63336182

$$$$

 OpenBabel03262522003D

 30 31  0  0  1  0  0  0  0  0999 V2000
   38.5480   25.3740   34.5950 N   0  0  0  0  0  0  0  0  0  0  0  0
   39.8580   25.8140   34.9670 C   0  0  0  0  0  0  0  0  0  0  0  0
   40.9400   24.8200   34.9750 C   0  0  0  0  0  0  0  0  0  0  0  0
   40.5890   23.3840   35.1130 C   0  0  0  0  0  0  0  0  0  0  0  0
   39.1440   23.0520   34.8340 C   0  0  0  0  0  0  0  0  0  0  0  0
   38.2390   24.1830   35.2950 C   0  0  1  0  0  0  0  0  0  0  0  0
   40.1070   26.6030   34.1920 H   0  0  0  0  0  0  0  0  0  0  0  0
   39.8540   26.4610   35.8960 H   0  0  0  0  0  0  0  0  0  0  0  0
   41.6750   24.9930   34.1310 H   0  0  0  0  0  0  0  0  0  0  0  0
   41.6000   25.0390   35.8710 H   0  0  0  0  0  0  0  0  0  0  0  0
   41.0120   22.8680   36.0090 H   0  0  0  0  0  0  0  0  0  0  0  0
   41.1170   22.8200   34.2910 H   0  0  0  0  0  0  0  0  0  0  0  0
   38.8990   22.1160   35.3940 H   0  0  0  0  0  0  0  0  0  0  0  0
   38.9260   22.8690   33.7630 H   0  0  0  0  0  0  0  0  0  0  0  0
   37.2340   23.8750   34.9250 H   0  0  0  0  0  0  0  0  0  0  0  0
   37.6910   26.0480   33.6560 C   0  0  0  0  0  0  0  0  0  0  0  0
   37.5190   27.4280   33.5960 C   0  0  0  0  0  0  0  0  0  0  0  0
   36.6600   27.9380   32.6360 C   0  0  0  0  0  0  0  0  0  0  0  0
   36.0280   27.0580   31.8040 N   0  0  0  0  0  0  0  0  0  0  0  0
   36.2130   25.7320   31.8870 C   0  0  0  0  0  0  0  0  0  0  0  0
   37.0400   25.2460   32.8100 N   0  0  0  0  0  0  0  0  0  0  0  0
   38.0650   28.0200   34.2960 H   0  0  0  0  0  0  0  0  0  0  0  0
   36.5170   29.0100   32.5760 H   0  0  0  0  0  0  0  0  0  0  0  0
   35.5180   24.8220   30.9780 C   0  0  0  0  0  0  0  0  0  0  0  0
   35.9140   23.8270   30.8260 H   0  0  0  0  0  0  0  0  0  0  0  0
   34.4650   25.2020   30.3820 O   0  0  0  0  0  0  0  0  0  0  0  0
   38.3110   24.2640   36.7960 C   0  0  0  0  0  0  0  0  0  0  0  0
   37.1300   23.6770   37.2740 F   0  0  0  0  0  0  0  0  0  0  0  0
   38.2120   25.5690   37.2140 F   0  0  0  0  0  0  0  0  0  0  0  0
   39.3190   23.5830   37.3830 F   0  0  0  0  0  0  0  0  0  0  0  0
  1  2  1  0  0  0  0
  1  6  1  0  0  0  0
  2  3  1  0  0  0  0
  2  8  1  0  0  0  0
  3  4  1  0  0  0  0
  3 10  1  0  0  0  0
  4 11  1  0  0  0  0
  5  4  1  0  0  0  0
  5  6  1  0  0  0  0
  5 13  1  0  0  0  0
  6 15  1  6  0  0  0
  6 27  1  0  0  0  0
  7  2  1  0  0  0  0
  9  3  1  0  0  0  0
 12  4  1  0  0  0  0
 14  5  1  0  0  0  0
 16  1  1  0  0  0  0
 17 16  1  0  0  0  0
 17 22  1  0  0  0  0
 18 17  2  0  0  0  0
 19 20  2  0  0  0  0
 19 18  1  0  0  0  0
 20 21  1  0  0  0  0
 21 16  2  0  0  0  0
 23 18  1  0  0  0  0
 24 20  1  0  0  0  0
 25 24  1  0  0  0  0
 26 24  2  0  0  0  0
 27 29  1  0  0  0  0
 27 28  1  0  0  0  0
 27 30  1  0  0  0  0
M  END
>  <minimizedAffinity>
-4.61552143

$$$$

 OpenBabel03262522003D

 30 31  0  0  1  0  0  0  0  0999 V2000
   38.7060   23.2680   35.0440 N   0  0  0  0  0  0  0  0  0  0  0  0
   39.6100   24.3770   35.0050 C   0  0  0  0  0  0  0  0  0  0  0  0
   40.9950   24.1510   35.4420 C   0  0  0  0  0  0  0  0  0  0  0  0
   41.2800   23.0130   36.3520 C   0  0  0  0  0  0  0  0  0  0  0  0
   40.1940   21.9680   36.4230 C   0  0  0  0  0  0  0  0  0  0  0  0
   38.8230   22.6130   36.2930 C   0  0  1  0  0  0  0  0  0  0  0  0
   39.6260   24.6720   33.9120 H   0  0  0  0  0  0  0  0  0  0  0  0
   39.1630   25.3190   35.4450 H   0  0  0  0  0  0  0  0  0  0  0  0
   41.7190   24.1850   34.5730 H   0  0  0  0  0  0  0  0  0  0  0  0
   41.3250   25.0680   36.0210 H   0  0  0  0  0  0  0  0  0  0  0  0
   41.7170   23.2860   37.3420 H   0  0  0  0  0  0  0  0  0  0  0  0
   42.1350   22.4250   35.9100 H   0  0  0  0  0  0  0  0  0  0  0  0
   40.2820   21.4580   37.4140 H   0  0  0  0  0  0  0  0  0  0  0  0
   40.2690   21.1900   35.6370 H   0  0  0  0  0  0  0  0  0  0  0  0
   38.1320   21.7410   36.2360 H   0  0  0  0  0  0  0  0  0  0  0  0
   37.8240   22.8900   33.9730 C   0  0  0  0  0  0  0  0  0  0  0  0
   37.2670   21.6230   33.8210 C   0  0  0  0  0  0  0  0  0  0  0  0
   36.4310   21.4020   32.7380 C   0  0  0  0  0  0  0  0  0  0  0  0
   36.2020   22.4380   31.8790 N   0  0  0  0  0  0  0  0  0  0  0  0
   36.7540   23.6490   32.0510 C   0  0  0  0  0  0  0  0  0  0  0  0
   37.5560   23.8580   33.0930 N   0  0  0  0  0  0  0  0  0  0  0  0
   37.5150   20.8880   34.5540 H   0  0  0  0  0  0  0  0  0  0  0  0
   35.9900   20.4210   32.6070 H   0  0  0  0  0  0  0  0  0  0  0  0
   36.4850   24.7340   31.1090 C   0  0  0  0  0  0  0  0  0  0  0  0
   37.3150   25.3010   30.7100 H   0  0  0  0  0  0  0  0  0  0  0  0
   35.2910   24.9980   30.7690 O   0  0  0  0  0  0  0  0  0  0  0  0
   38.5870   23.4690   37.5100 C   0  0  0  0  0  0  0  0  0  0  0  0
   37.4010   22.9980   38.0910 F   0  0  0  0  0  0  0  0  0  0  0  0
   38.2730   24.7540   37.1410 F   0  0  0  0  0  0  0  0  0  0  0  0
   39.5220   23.3970   38.4810 F   0  0  0  0  0  0  0  0  0  0  0  0
  1  6  1  0  0  0  0
  2  1  1  0  0  0  0
  2  3  1  0  0  0  0
  2  8  1  0  0  0  0
  3 10  1  0  0  0  0
  3  4  1  0  0  0  0
  4  5  1  0  0  0  0
  4 11  1  0  0  0  0
  5 13  1  0  0  0  0
  6 15  1  1  0  0  0
  6  5  1  0  0  0  0
  6 27  1  0  0  0  0
  7  2  1  0  0  0  0
  9  3  1  0  0  0  0
 12  4  1  0  0  0  0
 14  5  1  0  0  0  0
 16  1  1  0  0  0  0
 17 16  1  0  0  0  0
 17 22  1  0  0  0  0
 18 17  2  0  0  0  0
 19 20  2  0  0  0  0
 19 18  1  0  0  0  0
 20 21  1  0  0  0  0
 21 16  2  0  0  0  0
 23 18  1  0  0  0  0
 24 20  1  0  0  0  0
 25 24  1  0  0  0  0
 26 24  2  0  0  0  0
 27 28  1  0  0  0  0
 27 30  1  0  0  0  0
 29 27  1  0  0  0  0
M  END
>  <minimizedAffinity>
-4.61229372

$$$$
