
 OpenBabel03272510193D

 30 32  0  0  0  0  0  0  0  0999 V2000
   37.4240   29.1850   50.8540 Br  0  0  0  0  0  0  0  0  0  0  0  0
   36.0160   29.2630   49.5690 C   0  0  0  0  0  0  0  0  0  0  0  0
   36.0070   30.2520   48.5850 C   0  0  0  0  0  0  0  0  0  0  0  0
   34.9570   30.2450   47.6930 C   0  0  0  0  0  0  0  0  0  0  0  0
   33.9330   29.3160   47.7310 C   0  0  0  0  0  0  0  0  0  0  0  0
   33.9740   28.3640   48.7050 C   0  0  0  0  0  0  0  0  0  0  0  0
   35.0100   28.3480   49.6080 C   0  0  0  0  0  0  0  0  0  0  0  0
   34.9200   31.0030   46.9120 H   0  0  0  0  0  0  0  0  0  0  0  0
   33.2180   27.5890   48.8220 H   0  0  0  0  0  0  0  0  0  0  0  0
   35.0420   27.5880   50.3850 H   0  0  0  0  0  0  0  0  0  0  0  0
   37.9960   33.1730   49.4520 C   0  0  0  0  0  0  0  0  0  0  0  0
   39.0280   33.1750   48.4560 C   0  0  0  0  0  0  0  0  0  0  0  0
   39.0080   32.1610   47.5080 C   0  0  0  0  0  0  0  0  0  0  0  0
   38.0230   31.2250   47.5670 N   0  0  0  0  0  0  0  0  0  0  0  0
   37.0650   31.2460   48.5120 C   0  0  0  0  0  0  0  0  0  0  0  0
   37.0540   32.2290   49.4600 N   0  0  0  0  0  0  0  0  0  0  0  0
   37.9850   33.9500   50.2030 H   0  0  0  0  0  0  0  0  0  0  0  0
   39.7580   33.9780   48.5190 H   0  0  0  0  0  0  0  0  0  0  0  0
   39.7740   32.1620   46.7700 H   0  0  0  0  0  0  0  0  0  0  0  0
   32.8250   29.3180   46.7780 C   0  0  0  0  0  0  0  0  0  0  0  0
   32.0470   28.2270   46.4810 C   0  0  0  0  0  0  0  0  0  0  0  0
   31.0090   28.2610   45.5780 C   0  0  0  0  0  0  0  0  0  0  0  0
   30.7240   29.3940   44.9470 N   0  0  0  0  0  0  0  0  0  0  0  0
   31.4730   30.4820   45.2200 C   0  0  0  0  0  0  0  0  0  0  0  0
   32.4850   30.4310   46.1070 N   0  0  0  0  0  0  0  0  0  0  0  0
   32.2790   27.2840   47.0010 H   0  0  0  0  0  0  0  0  0  0  0  0
   30.4050   27.3980   45.3530 H   0  0  0  0  0  0  0  0  0  0  0  0
   31.2570   31.7900   44.5880 C   0  0  0  0  0  0  0  0  0  0  0  0
   30.7220   31.7650   43.6320 H   0  0  0  0  0  0  0  0  0  0  0  0
   31.6310   32.8750   45.0600 O   0  0  0  0  0  0  0  0  0  0  0  0
  2  7  1  0  0  0  0
  2  1  1  0  0  0  0
  3  2  2  0  0  0  0
  4  5  2  0  0  0  0
  4  3  1  0  0  0  0
  5  6  1  0  0  0  0
  6  9  1  0  0  0  0
  6  7  2  0  0  0  0
  7 10  1  0  0  0  0
  8  4  1  0  0  0  0
 11 16  1  0  0  0  0
 11 17  1  0  0  0  0
 12 18  1  0  0  0  0
 12 11  2  0  0  0  0
 13 14  2  0  0  0  0
 13 12  1  0  0  0  0
 14 15  1  0  0  0  0
 15  3  1  0  0  0  0
 15 16  2  0  0  0  0
 19 13  1  0  0  0  0
 20  5  1  0  0  0  0
 21 20  1  0  0  0  0
 21 26  1  0  0  0  0
 22 21  2  0  0  0  0
 23 24  2  0  0  0  0
 23 22  1  0  0  0  0
 24 25  1  0  0  0  0
 25 20  2  0  0  0  0
 27 22  1  0  0  0  0
 28 30  2  0  0  0  0
 28 24  1  0  0  0  0
 29 28  1  0  0  0  0
M  END
>  <minimizedAffinity>
-5.91208649

>  <minimizedRMSD>
0.189897075

$$$$
