
 OpenBabel03272510223D

 30 32  0  0  0  0  0  0  0  0999 V2000
   35.8140   30.1690   31.4940 Br  0  0  0  0  0  0  0  0  0  0  0  0
   36.5520   28.7440   32.5260 C   0  0  0  0  0  0  0  0  0  0  0  0
   36.2640   28.6300   33.8870 C   0  0  0  0  0  0  0  0  0  0  0  0
   36.8330   27.5760   34.5670 C   0  0  0  0  0  0  0  0  0  0  0  0
   37.6600   26.6430   33.9670 C   0  0  0  0  0  0  0  0  0  0  0  0
   37.9200   26.7840   32.6370 C   0  0  0  0  0  0  0  0  0  0  0  0
   37.3650   27.8270   31.9360 C   0  0  0  0  0  0  0  0  0  0  0  0
   36.6280   27.4580   35.6300 H   0  0  0  0  0  0  0  0  0  0  0  0
   38.5570   26.1050   32.0730 H   0  0  0  0  0  0  0  0  0  0  0  0
   37.5720   27.9390   30.8740 H   0  0  0  0  0  0  0  0  0  0  0  0
   33.2040   30.1960   35.0810 C   0  0  0  0  0  0  0  0  0  0  0  0
   33.6790   31.3530   35.7850 C   0  0  0  0  0  0  0  0  0  0  0  0
   35.0520   31.5590   35.8270 C   0  0  0  0  0  0  0  0  0  0  0  0
   35.8710   30.6670   35.2070 N   0  0  0  0  0  0  0  0  0  0  0  0
   35.3990   29.5900   34.5530 C   0  0  0  0  0  0  0  0  0  0  0  0
   34.0550   29.3560   34.4910 N   0  0  0  0  0  0  0  0  0  0  0  0
   32.1410   30.0090   35.0310 H   0  0  0  0  0  0  0  0  0  0  0  0
   32.9230   31.9870   36.2380 H   0  0  0  0  0  0  0  0  0  0  0  0
   35.4050   32.4160   36.3490 H   0  0  0  0  0  0  0  0  0  0  0  0
   38.2570   25.5280   34.7000 C   0  0  0  0  0  0  0  0  0  0  0  0
   39.2450   24.7110   34.2090 C   0  0  0  0  0  0  0  0  0  0  0  0
   39.7890   23.6670   34.9230 C   0  0  0  0  0  0  0  0  0  0  0  0
   39.3530   23.4160   36.1520 N   0  0  0  0  0  0  0  0  0  0  0  0
   38.3830   24.2030   36.6590 C   0  0  0  0  0  0  0  0  0  0  0  0
   37.8630   25.2200   35.9460 N   0  0  0  0  0  0  0  0  0  0  0  0
   39.6110   24.9140   33.1900 H   0  0  0  0  0  0  0  0  0  0  0  0
   40.5640   23.0330   34.5290 H   0  0  0  0  0  0  0  0  0  0  0  0
   37.8190   24.0260   38.0040 C   0  0  0  0  0  0  0  0  0  0  0  0
   37.1970   23.1340   38.1360 H   0  0  0  0  0  0  0  0  0  0  0  0
   38.0030   24.8010   38.9560 O   0  0  0  0  0  0  0  0  0  0  0  0
  1  2  1  0  0  0  0
  2  3  1  0  0  0  0
  3 15  1  0  0  0  0
  3  4  2  0  0  0  0
  4  8  1  0  0  0  0
  5  4  1  0  0  0  0
  5 20  1  0  0  0  0
  6  5  2  0  0  0  0
  7  2  2  0  0  0  0
  7  6  1  0  0  0  0
  9  6  1  0  0  0  0
 10  7  1  0  0  0  0
 11 12  1  0  0  0  0
 12 13  2  0  0  0  0
 12 18  1  0  0  0  0
 13 19  1  0  0  0  0
 14 13  1  0  0  0  0
 15 14  2  0  0  0  0
 16 15  1  0  0  0  0
 16 11  2  0  0  0  0
 17 11  1  0  0  0  0
 20 25  1  0  0  0  0
 21 20  2  0  0  0  0
 21 22  1  0  0  0  0
 22 23  2  0  0  0  0
 23 24  1  0  0  0  0
 24 28  1  0  0  0  0
 25 24  2  0  0  0  0
 26 21  1  0  0  0  0
 27 22  1  0  0  0  0
 28 29  1  0  0  0  0
 28 30  2  0  0  0  0
M  END
>  <minimizedAffinity>
-5.40840626

$$$$

 OpenBabel03272510223D

 30 32  0  0  0  0  0  0  0  0999 V2000
   35.0850   32.0080   32.3210 Br  0  0  0  0  0  0  0  0  0  0  0  0
   35.7410   30.2780   32.7860 C   0  0  0  0  0  0  0  0  0  0  0  0
   35.6150   29.8000   34.0910 C   0  0  0  0  0  0  0  0  0  0  0  0
   36.1120   28.5410   34.3520 C   0  0  0  0  0  0  0  0  0  0  0  0
   36.7180   27.7500   33.3930 C   0  0  0  0  0  0  0  0  0  0  0  0
   36.8240   28.2480   32.1300 C   0  0  0  0  0  0  0  0  0  0  0  0
   36.3360   29.5010   31.8430 C   0  0  0  0  0  0  0  0  0  0  0  0
   36.0300   28.1370   35.3600 H   0  0  0  0  0  0  0  0  0  0  0  0
   37.2820   27.7070   31.3050 H   0  0  0  0  0  0  0  0  0  0  0  0
   36.4200   29.8980   30.8340 H   0  0  0  0  0  0  0  0  0  0  0  0
   32.9990   31.1390   36.2360 C   0  0  0  0  0  0  0  0  0  0  0  0
   33.7010   32.0760   37.0650 C   0  0  0  0  0  0  0  0  0  0  0  0
   35.0670   32.2190   36.8590 C   0  0  0  0  0  0  0  0  0  0  0  0
   35.6670   31.4730   35.8920 N   0  0  0  0  0  0  0  0  0  0  0  0
   34.9850   30.6020   35.1270 C   0  0  0  0  0  0  0  0  0  0  0  0
   33.6410   30.4360   35.3030 N   0  0  0  0  0  0  0  0  0  0  0  0
   31.9350   31.0070   36.3740 H   0  0  0  0  0  0  0  0  0  0  0  0
   33.1060   32.6090   37.8020 H   0  0  0  0  0  0  0  0  0  0  0  0
   35.5870   32.9130   37.4730 H   0  0  0  0  0  0  0  0  0  0  0  0
   37.2410   26.4150   33.6830 C   0  0  0  0  0  0  0  0  0  0  0  0
   37.4730   25.4460   32.7400 C   0  0  0  0  0  0  0  0  0  0  0  0
   37.9670   24.1980   33.0440 C   0  0  0  0  0  0  0  0  0  0  0  0
   38.2420   23.8890   34.3060 N   0  0  0  0  0  0  0  0  0  0  0  0
   38.0230   24.8240   35.2530 C   0  0  0  0  0  0  0  0  0  0  0  0
   37.5390   26.0410   34.9370 N   0  0  0  0  0  0  0  0  0  0  0  0
   37.2480   25.6950   31.6910 H   0  0  0  0  0  0  0  0  0  0  0  0
   38.1460   23.4450   32.2950 H   0  0  0  0  0  0  0  0  0  0  0  0
   38.2870   24.6030   36.6810 C   0  0  0  0  0  0  0  0  0  0  0  0
   39.2830   24.9060   37.0250 H   0  0  0  0  0  0  0  0  0  0  0  0
   37.4760   24.1140   37.4830 O   0  0  0  0  0  0  0  0  0  0  0  0
  1  2  1  0  0  0  0
  2  3  1  0  0  0  0
  3  4  2  0  0  0  0
  3 15  1  0  0  0  0
  4  8  1  0  0  0  0
  5 20  1  0  0  0  0
  5  4  1  0  0  0  0
  6  5  2  0  0  0  0
  7  6  1  0  0  0  0
  7  2  2  0  0  0  0
  9  6  1  0  0  0  0
 10  7  1  0  0  0  0
 11 17  1  0  0  0  0
 11 12  1  0  0  0  0
 12 18  1  0  0  0  0
 13 12  2  0  0  0  0
 13 19  1  0  0  0  0
 14 13  1  0  0  0  0
 15 16  1  0  0  0  0
 15 14  2  0  0  0  0
 16 11  2  0  0  0  0
 20 25  1  0  0  0  0
 21 22  1  0  0  0  0
 21 20  2  0  0  0  0
 22 23  2  0  0  0  0
 23 24  1  0  0  0  0
 24 28  1  0  0  0  0
 25 24  2  0  0  0  0
 26 21  1  0  0  0  0
 27 22  1  0  0  0  0
 28 29  1  0  0  0  0
 28 30  2  0  0  0  0
M  END
>  <minimizedAffinity>
-5.35317183

$$$$

 OpenBabel03272510223D

 30 32  0  0  0  0  0  0  0  0999 V2000
   37.2900   28.7500   29.6160 Br  0  0  0  0  0  0  0  0  0  0  0  0
   36.5330   29.3520   31.2600 C   0  0  0  0  0  0  0  0  0  0  0  0
   36.0770   28.4360   32.2090 C   0  0  0  0  0  0  0  0  0  0  0  0
   35.5420   28.9450   33.3720 C   0  0  0  0  0  0  0  0  0  0  0  0
   35.4430   30.3000   33.6330 C   0  0  0  0  0  0  0  0  0  0  0  0
   35.8980   31.1660   32.6850 C   0  0  0  0  0  0  0  0  0  0  0  0
   36.4360   30.6840   31.5160 C   0  0  0  0  0  0  0  0  0  0  0  0
   35.1770   28.2570   34.1340 H   0  0  0  0  0  0  0  0  0  0  0  0
   35.8650   32.2490   32.7930 H   0  0  0  0  0  0  0  0  0  0  0  0
   36.7990   31.3760   30.7600 H   0  0  0  0  0  0  0  0  0  0  0  0
   37.3710   25.0380   32.3450 C   0  0  0  0  0  0  0  0  0  0  0  0
   36.4160   24.2910   31.5780 C   0  0  0  0  0  0  0  0  0  0  0  0
   35.3460   24.9870   31.0320 C   0  0  0  0  0  0  0  0  0  0  0  0
   35.2540   26.3280   31.2480 N   0  0  0  0  0  0  0  0  0  0  0  0
   36.1640   27.0040   31.9710 C   0  0  0  0  0  0  0  0  0  0  0  0
   37.2290   26.3520   32.5230 N   0  0  0  0  0  0  0  0  0  0  0  0
   38.2140   24.5230   32.7820 H   0  0  0  0  0  0  0  0  0  0  0  0
   36.6030   23.2260   31.4800 H   0  0  0  0  0  0  0  0  0  0  0  0
   34.6380   24.4340   30.4630 H   0  0  0  0  0  0  0  0  0  0  0  0
   34.8740   30.8280   34.8720 C   0  0  0  0  0  0  0  0  0  0  0  0
   35.5140   31.7020   35.7150 C   0  0  0  0  0  0  0  0  0  0  0  0
   34.9520   32.1830   36.8760 C   0  0  0  0  0  0  0  0  0  0  0  0
   33.7300   31.7960   37.2220 N   0  0  0  0  0  0  0  0  0  0  0  0
   33.0780   30.9380   36.4120 C   0  0  0  0  0  0  0  0  0  0  0  0
   33.6430   30.4780   35.2800 N   0  0  0  0  0  0  0  0  0  0  0  0
   36.5280   32.0270   35.4330 H   0  0  0  0  0  0  0  0  0  0  0  0
   35.4630   32.8690   37.5290 H   0  0  0  0  0  0  0  0  0  0  0  0
   31.7240   30.4380   36.6870 C   0  0  0  0  0  0  0  0  0  0  0  0
   30.9280   31.1880   36.6270 H   0  0  0  0  0  0  0  0  0  0  0  0
   31.4480   29.2610   36.9700 O   0  0  0  0  0  0  0  0  0  0  0  0
  1  2  1  0  0  0  0
  2  7  2  0  0  0  0
  2  3  1  0  0  0  0
  3  4  2  0  0  0  0
  4  5  1  0  0  0  0
  4  8  1  0  0  0  0
  5 20  1  0  0  0  0
  6  9  1  0  0  0  0
  6  5  2  0  0  0  0
  7  6  1  0  0  0  0
 10  7  1  0  0  0  0
 11 16  1  0  0  0  0
 11 17  1  0  0  0  0
 12 11  2  0  0  0  0
 13 14  2  0  0  0  0
 13 12  1  0  0  0  0
 14 15  1  0  0  0  0
 15  3  1  0  0  0  0
 15 16  2  0  0  0  0
 18 12  1  0  0  0  0
 19 13  1  0  0  0  0
 20 25  2  0  0  0  0
 20 21  1  0  0  0  0
 21 22  2  0  0  0  0
 22 23  1  0  0  0  0
 22 27  1  0  0  0  0
 24 28  1  0  0  0  0
 24 23  2  0  0  0  0
 25 24  1  0  0  0  0
 26 21  1  0  0  0  0
 28 30  2  0  0  0  0
 29 28  1  0  0  0  0
M  END
>  <minimizedAffinity>
-5.32516289

$$$$

 OpenBabel03272510223D

 30 32  0  0  0  0  0  0  0  0999 V2000
   36.5990   28.1610   31.7820 Br  0  0  0  0  0  0  0  0  0  0  0  0
   36.4100   26.2630   31.7530 C   0  0  0  0  0  0  0  0  0  0  0  0
   37.3390   25.4470   32.4000 C   0  0  0  0  0  0  0  0  0  0  0  0
   37.1360   24.0860   32.3360 C   0  0  0  0  0  0  0  0  0  0  0  0
   36.0710   23.5060   31.6710 C   0  0  0  0  0  0  0  0  0  0  0  0
   35.1820   24.3330   31.0500 C   0  0  0  0  0  0  0  0  0  0  0  0
   35.3610   25.6940   31.0990 C   0  0  0  0  0  0  0  0  0  0  0  0
   37.8430   23.4200   32.8310 H   0  0  0  0  0  0  0  0  0  0  0  0
   34.3120   23.9780   30.5010 H   0  0  0  0  0  0  0  0  0  0  0  0
   34.6520   26.3530   30.6040 H   0  0  0  0  0  0  0  0  0  0  0  0
   40.6930   26.7340   32.9770 C   0  0  0  0  0  0  0  0  0  0  0  0
   40.6730   27.0940   34.3650 C   0  0  0  0  0  0  0  0  0  0  0  0
   39.4930   26.8810   35.0670 C   0  0  0  0  0  0  0  0  0  0  0  0
   38.4260   26.3480   34.4130 N   0  0  0  0  0  0  0  0  0  0  0  0
   38.4720   26.0180   33.1100 C   0  0  0  0  0  0  0  0  0  0  0  0
   39.6150   26.2130   32.3890 N   0  0  0  0  0  0  0  0  0  0  0  0
   41.5970   26.8880   32.4060 H   0  0  0  0  0  0  0  0  0  0  0  0
   41.5900   27.5120   34.7690 H   0  0  0  0  0  0  0  0  0  0  0  0
   39.4780   27.1490   36.0960 H   0  0  0  0  0  0  0  0  0  0  0  0
   35.8660   22.0600   31.6110 C   0  0  0  0  0  0  0  0  0  0  0  0
   35.0640   21.3480   32.4670 C   0  0  0  0  0  0  0  0  0  0  0  0
   34.8910   19.9850   32.3850 C   0  0  0  0  0  0  0  0  0  0  0  0
   35.5210   19.2990   31.4390 N   0  0  0  0  0  0  0  0  0  0  0  0
   36.3150   19.9740   30.5830 C   0  0  0  0  0  0  0  0  0  0  0  0
   36.4730   21.3080   30.6780 N   0  0  0  0  0  0  0  0  0  0  0  0
   34.5390   21.9120   33.2550 H   0  0  0  0  0  0  0  0  0  0  0  0
   34.2590   19.4370   33.0620 H   0  0  0  0  0  0  0  0  0  0  0  0
   37.0630   19.3290   29.4960 C   0  0  0  0  0  0  0  0  0  0  0  0
   38.1540   19.3440   29.6060 H   0  0  0  0  0  0  0  0  0  0  0  0
   36.5470   18.7910   28.5040 O   0  0  0  0  0  0  0  0  0  0  0  0
  2  1  1  0  0  0  0
  2  3  1  0  0  0  0
  3 15  1  0  0  0  0
  4  3  2  0  0  0  0
  4  8  1  0  0  0  0
  5  4  1  0  0  0  0
  6  7  1  0  0  0  0
  6  5  2  0  0  0  0
  7  2  2  0  0  0  0
  9  6  1  0  0  0  0
 10  7  1  0  0  0  0
 11 12  1  0  0  0  0
 12 18  1  0  0  0  0
 12 13  2  0  0  0  0
 13 19  1  0  0  0  0
 14 13  1  0  0  0  0
 15 14  2  0  0  0  0
 16 11  2  0  0  0  0
 16 15  1  0  0  0  0
 17 11  1  0  0  0  0
 20  5  1  0  0  0  0
 20 21  1  0  0  0  0
 21 26  1  0  0  0  0
 22 21  2  0  0  0  0
 22 27  1  0  0  0  0
 23 22  1  0  0  0  0
 24 25  1  0  0  0  0
 24 23  2  0  0  0  0
 25 20  2  0  0  0  0
 28 29  1  0  0  0  0
 28 24  1  0  0  0  0
 30 28  2  0  0  0  0
M  END
>  <minimizedAffinity>
-5.22428417

$$$$

 OpenBabel03272510223D

 30 32  0  0  0  0  0  0  0  0999 V2000
   35.1670   32.4490   32.4580 Br  0  0  0  0  0  0  0  0  0  0  0  0
   35.7140   30.6400   32.7140 C   0  0  0  0  0  0  0  0  0  0  0  0
   35.4610   29.9870   33.9210 C   0  0  0  0  0  0  0  0  0  0  0  0
   35.8860   28.6810   34.0330 C   0  0  0  0  0  0  0  0  0  0  0  0
   36.5390   28.0050   33.0180 C   0  0  0  0  0  0  0  0  0  0  0  0
   36.7690   28.6730   31.8530 C   0  0  0  0  0  0  0  0  0  0  0  0
   36.3550   29.9760   31.7150 C   0  0  0  0  0  0  0  0  0  0  0  0
   35.7050   28.1410   34.9610 H   0  0  0  0  0  0  0  0  0  0  0  0
   37.2730   28.2320   30.9950 H   0  0  0  0  0  0  0  0  0  0  0  0
   36.5390   30.5090   30.7850 H   0  0  0  0  0  0  0  0  0  0  0  0
   34.9910   32.0490   36.8820 C   0  0  0  0  0  0  0  0  0  0  0  0
   33.5760   31.9830   37.1080 C   0  0  0  0  0  0  0  0  0  0  0  0
   32.8200   31.2230   36.2240 C   0  0  0  0  0  0  0  0  0  0  0  0
   33.4490   30.5850   35.2000 N   0  0  0  0  0  0  0  0  0  0  0  0
   34.7790   30.6630   35.0110 C   0  0  0  0  0  0  0  0  0  0  0  0
   35.5530   31.4010   35.8600 N   0  0  0  0  0  0  0  0  0  0  0  0
   35.6050   32.6320   37.5530 H   0  0  0  0  0  0  0  0  0  0  0  0
   33.1970   32.5380   37.9600 H   0  0  0  0  0  0  0  0  0  0  0  0
   31.7710   31.1740   36.3910 H   0  0  0  0  0  0  0  0  0  0  0  0
   36.9840   26.6180   33.1480 C   0  0  0  0  0  0  0  0  0  0  0  0
   37.7250   26.1310   34.1960 C   0  0  0  0  0  0  0  0  0  0  0  0
   38.1300   24.8190   34.2920 C   0  0  0  0  0  0  0  0  0  0  0  0
   37.8000   23.9590   33.3350 N   0  0  0  0  0  0  0  0  0  0  0  0
   37.0720   24.4110   32.2940 C   0  0  0  0  0  0  0  0  0  0  0  0
   36.6850   25.6990   32.2170 N   0  0  0  0  0  0  0  0  0  0  0  0
   38.0010   26.8400   34.9930 H   0  0  0  0  0  0  0  0  0  0  0  0
   38.7100   24.4480   35.1190 H   0  0  0  0  0  0  0  0  0  0  0  0
   36.6470   23.5590   31.1760 C   0  0  0  0  0  0  0  0  0  0  0  0
   36.1730   24.0860   30.3400 H   0  0  0  0  0  0  0  0  0  0  0  0
   36.7900   22.3270   31.1300 O   0  0  0  0  0  0  0  0  0  0  0  0
  1  2  1  0  0  0  0
  2  3  1  0  0  0  0
  3  4  2  0  0  0  0
  3 15  1  0  0  0  0
  4  8  1  0  0  0  0
  5 20  1  0  0  0  0
  5  4  1  0  0  0  0
  6  5  2  0  0  0  0
  7  6  1  0  0  0  0
  7  2  2  0  0  0  0
  9  6  1  0  0  0  0
 10  7  1  0  0  0  0
 11 12  1  0  0  0  0
 11 17  1  0  0  0  0
 12 18  1  0  0  0  0
 13 19  1  0  0  0  0
 13 12  2  0  0  0  0
 14 13  1  0  0  0  0
 15 14  2  0  0  0  0
 15 16  1  0  0  0  0
 16 11  2  0  0  0  0
 20 21  1  0  0  0  0
 21 22  2  0  0  0  0
 21 26  1  0  0  0  0
 22 27  1  0  0  0  0
 23 22  1  0  0  0  0
 24 23  2  0  0  0  0
 25 24  1  0  0  0  0
 25 20  2  0  0  0  0
 28 24  1  0  0  0  0
 29 28  1  0  0  0  0
 30 28  2  0  0  0  0
M  END
>  <minimizedAffinity>
-5.10861063

$$$$

 OpenBabel03272510223D

 30 32  0  0  0  0  0  0  0  0999 V2000
   36.0160   30.2020   31.4360 Br  0  0  0  0  0  0  0  0  0  0  0  0
   36.5700   28.7190   32.5000 C   0  0  0  0  0  0  0  0  0  0  0  0
   36.2000   28.6310   33.8430 C   0  0  0  0  0  0  0  0  0  0  0  0
   36.6370   27.5310   34.5470 C   0  0  0  0  0  0  0  0  0  0  0  0
   37.4120   26.5300   33.9890 C   0  0  0  0  0  0  0  0  0  0  0  0
   37.7550   26.6480   32.6760 C   0  0  0  0  0  0  0  0  0  0  0  0
   37.3310   27.7350   31.9500 C   0  0  0  0  0  0  0  0  0  0  0  0
   36.3660   27.4310   35.5970 H   0  0  0  0  0  0  0  0  0  0  0  0
   38.3600   25.9160   32.1440 H   0  0  0  0  0  0  0  0  0  0  0  0
   37.6050   27.8290   30.9020 H   0  0  0  0  0  0  0  0  0  0  0  0
   33.2270   30.4610   34.8700 C   0  0  0  0  0  0  0  0  0  0  0  0
   33.7620   31.5680   35.6100 C   0  0  0  0  0  0  0  0  0  0  0  0
   35.1430   31.6500   35.7350 C   0  0  0  0  0  0  0  0  0  0  0  0
   35.9140   30.6900   35.1560 N   0  0  0  0  0  0  0  0  0  0  0  0
   35.3870   29.6620   34.4650 C   0  0  0  0  0  0  0  0  0  0  0  0
   34.0330   29.5500   34.3230 N   0  0  0  0  0  0  0  0  0  0  0  0
   32.1570   30.3710   34.7560 H   0  0  0  0  0  0  0  0  0  0  0  0
   33.0400   32.2650   36.0240 H   0  0  0  0  0  0  0  0  0  0  0  0
   35.5390   32.4690   36.2840 H   0  0  0  0  0  0  0  0  0  0  0  0
   37.8700   25.3670   34.7480 C   0  0  0  0  0  0  0  0  0  0  0  0
   37.9970   25.3260   36.1140 C   0  0  0  0  0  0  0  0  0  0  0  0
   38.4310   24.2150   36.8000 C   0  0  0  0  0  0  0  0  0  0  0  0
   38.7490   23.1130   36.1320 N   0  0  0  0  0  0  0  0  0  0  0  0
   38.6330   23.1250   34.7880 C   0  0  0  0  0  0  0  0  0  0  0  0
   38.2070   24.2220   34.1330 N   0  0  0  0  0  0  0  0  0  0  0  0
   37.7340   26.2370   36.6740 H   0  0  0  0  0  0  0  0  0  0  0  0
   38.5260   24.1940   37.8730 H   0  0  0  0  0  0  0  0  0  0  0  0
   38.9550   21.9710   33.9390 C   0  0  0  0  0  0  0  0  0  0  0  0
   39.8230   21.3830   34.2580 H   0  0  0  0  0  0  0  0  0  0  0  0
   38.3220   21.6410   32.9230 O   0  0  0  0  0  0  0  0  0  0  0  0
  1  2  1  0  0  0  0
  2  3  1  0  0  0  0
  3 15  1  0  0  0  0
  3  4  2  0  0  0  0
  4  8  1  0  0  0  0
  5  4  1  0  0  0  0
  5 20  1  0  0  0  0
  6  5  2  0  0  0  0
  7  2  2  0  0  0  0
  7  6  1  0  0  0  0
  9  6  1  0  0  0  0
 10  7  1  0  0  0  0
 11 12  1  0  0  0  0
 12 13  2  0  0  0  0
 12 18  1  0  0  0  0
 13 19  1  0  0  0  0
 14 13  1  0  0  0  0
 15 14  2  0  0  0  0
 16 15  1  0  0  0  0
 16 11  2  0  0  0  0
 17 11  1  0  0  0  0
 20 21  1  0  0  0  0
 21 26  1  0  0  0  0
 21 22  2  0  0  0  0
 22 27  1  0  0  0  0
 23 22  1  0  0  0  0
 24 23  2  0  0  0  0
 25 20  2  0  0  0  0
 25 24  1  0  0  0  0
 28 29  1  0  0  0  0
 28 24  1  0  0  0  0
 30 28  2  0  0  0  0
M  END
>  <minimizedAffinity>
-5.00128174

$$$$

 OpenBabel03272510223D

 30 32  0  0  0  0  0  0  0  0999 V2000
   37.8100   26.3040   31.1310 Br  0  0  0  0  0  0  0  0  0  0  0  0
   37.0090   27.5160   32.3670 C   0  0  0  0  0  0  0  0  0  0  0  0
   37.3140   27.4470   33.7270 C   0  0  0  0  0  0  0  0  0  0  0  0
   36.6970   28.3560   34.5590 C   0  0  0  0  0  0  0  0  0  0  0  0
   35.8060   29.3140   34.1100 C   0  0  0  0  0  0  0  0  0  0  0  0
   35.5310   29.3530   32.7760 C   0  0  0  0  0  0  0  0  0  0  0  0
   36.1340   28.4580   31.9240 C   0  0  0  0  0  0  0  0  0  0  0  0
   36.9130   28.3300   35.6260 H   0  0  0  0  0  0  0  0  0  0  0  0
   34.8460   30.0670   32.3230 H   0  0  0  0  0  0  0  0  0  0  0  0
   35.9150   28.4900   30.8600 H   0  0  0  0  0  0  0  0  0  0  0  0
   40.4610   25.9690   34.7980 C   0  0  0  0  0  0  0  0  0  0  0  0
   40.0840   24.6430   35.1950 C   0  0  0  0  0  0  0  0  0  0  0  0
   38.7440   24.2960   35.0810 C   0  0  0  0  0  0  0  0  0  0  0  0
   37.8640   25.2170   34.6040 N   0  0  0  0  0  0  0  0  0  0  0  0
   38.2450   26.4550   34.2370 C   0  0  0  0  0  0  0  0  0  0  0  0
   39.5540   26.8300   34.3370 N   0  0  0  0  0  0  0  0  0  0  0  0
   41.4970   26.2680   34.8760 H   0  0  0  0  0  0  0  0  0  0  0  0
   40.8810   24.0030   35.5600 H   0  0  0  0  0  0  0  0  0  0  0  0
   38.4640   23.3130   35.3750 H   0  0  0  0  0  0  0  0  0  0  0  0
   35.1580   30.2730   35.0030 C   0  0  0  0  0  0  0  0  0  0  0  0
   35.8190   31.2200   35.7450 C   0  0  0  0  0  0  0  0  0  0  0  0
   35.1810   32.1100   36.5780 C   0  0  0  0  0  0  0  0  0  0  0  0
   33.8580   32.0740   36.6880 N   0  0  0  0  0  0  0  0  0  0  0  0
   33.1830   31.1540   35.9690 C   0  0  0  0  0  0  0  0  0  0  0  0
   33.8240   30.2900   35.1590 N   0  0  0  0  0  0  0  0  0  0  0  0
   36.9170   31.2550   35.6580 H   0  0  0  0  0  0  0  0  0  0  0  0
   35.7100   32.8490   37.1550 H   0  0  0  0  0  0  0  0  0  0  0  0
   31.7210   31.0140   36.0060 C   0  0  0  0  0  0  0  0  0  0  0  0
   31.3120   30.2200   35.3730 H   0  0  0  0  0  0  0  0  0  0  0  0
   30.9600   31.7190   36.6870 O   0  0  0  0  0  0  0  0  0  0  0  0
  1  2  1  0  0  0  0
  2  3  1  0  0  0  0
  3 15  1  0  0  0  0
  3  4  2  0  0  0  0
  4  8  1  0  0  0  0
  5  4  1  0  0  0  0
  5 20  1  0  0  0  0
  6  5  2  0  0  0  0
  7  2  2  0  0  0  0
  7  6  1  0  0  0  0
  9  6  1  0  0  0  0
 10  7  1  0  0  0  0
 11 17  1  0  0  0  0
 11 12  1  0  0  0  0
 12 18  1  0  0  0  0
 13 12  2  0  0  0  0
 13 19  1  0  0  0  0
 14 13  1  0  0  0  0
 15 16  1  0  0  0  0
 15 14  2  0  0  0  0
 16 11  2  0  0  0  0
 20 25  2  0  0  0  0
 20 21  1  0  0  0  0
 21 22  2  0  0  0  0
 22 23  1  0  0  0  0
 22 27  1  0  0  0  0
 24 28  1  0  0  0  0
 24 23  2  0  0  0  0
 25 24  1  0  0  0  0
 26 21  1  0  0  0  0
 28 30  2  0  0  0  0
 29 28  1  0  0  0  0
M  END
>  <minimizedAffinity>
-4.97672081

$$$$

 OpenBabel03272510223D

 30 32  0  0  0  0  0  0  0  0999 V2000
   37.1420   28.6340   31.4710 Br  0  0  0  0  0  0  0  0  0  0  0  0
   37.5760   27.4410   32.8950 C   0  0  0  0  0  0  0  0  0  0  0  0
   38.6110   26.5150   32.7540 C   0  0  0  0  0  0  0  0  0  0  0  0
   38.8670   25.6870   33.8250 C   0  0  0  0  0  0  0  0  0  0  0  0
   38.1540   25.7350   35.0100 C   0  0  0  0  0  0  0  0  0  0  0  0
   37.1510   26.6510   35.1130 C   0  0  0  0  0  0  0  0  0  0  0  0
   36.8750   27.4900   34.0600 C   0  0  0  0  0  0  0  0  0  0  0  0
   39.6680   24.9530   33.7490 H   0  0  0  0  0  0  0  0  0  0  0  0
   36.5330   26.7700   36.0010 H   0  0  0  0  0  0  0  0  0  0  0  0
   36.0750   28.2210   34.1420 H   0  0  0  0  0  0  0  0  0  0  0  0
   39.6010   25.4300   29.4250 C   0  0  0  0  0  0  0  0  0  0  0  0
   40.7770   26.2080   29.1620 C   0  0  0  0  0  0  0  0  0  0  0  0
   41.1970   27.0910   30.1480 C   0  0  0  0  0  0  0  0  0  0  0  0
   40.4820   27.1760   31.3030 N   0  0  0  0  0  0  0  0  0  0  0  0
   39.3820   26.4340   31.5250 C   0  0  0  0  0  0  0  0  0  0  0  0
   38.9410   25.5550   30.5780 N   0  0  0  0  0  0  0  0  0  0  0  0
   39.2490   24.7350   28.6770 H   0  0  0  0  0  0  0  0  0  0  0  0
   41.2560   26.0480   28.2010 H   0  0  0  0  0  0  0  0  0  0  0  0
   42.0680   27.6680   29.9530 H   0  0  0  0  0  0  0  0  0  0  0  0
   38.4360   24.8510   36.1400 C   0  0  0  0  0  0  0  0  0  0  0  0
   37.8430   24.9480   37.3740 C   0  0  0  0  0  0  0  0  0  0  0  0
   38.1290   24.0990   38.4190 C   0  0  0  0  0  0  0  0  0  0  0  0
   39.0190   23.1290   38.2530 N   0  0  0  0  0  0  0  0  0  0  0  0
   39.6170   23.0110   37.0500 C   0  0  0  0  0  0  0  0  0  0  0  0
   39.3250   23.8500   36.0380 N   0  0  0  0  0  0  0  0  0  0  0  0
   37.1030   25.7510   37.5190 H   0  0  0  0  0  0  0  0  0  0  0  0
   37.6570   24.1840   39.3840 H   0  0  0  0  0  0  0  0  0  0  0  0
   40.6170   21.9800   36.7430 C   0  0  0  0  0  0  0  0  0  0  0  0
   40.6610   21.6690   35.6930 H   0  0  0  0  0  0  0  0  0  0  0  0
   41.3820   21.4650   37.5740 O   0  0  0  0  0  0  0  0  0  0  0  0
  1  2  1  0  0  0  0
  2  7  1  0  0  0  0
  3  2  2  0  0  0  0
  3  4  1  0  0  0  0
  4  5  2  0  0  0  0
  5  6  1  0  0  0  0
  5 20  1  0  0  0  0
  6  9  1  0  0  0  0
  7 10  1  0  0  0  0
  7  6  2  0  0  0  0
  8  4  1  0  0  0  0
 11 16  1  0  0  0  0
 12 11  2  0  0  0  0
 12 13  1  0  0  0  0
 13 14  2  0  0  0  0
 14 15  1  0  0  0  0
 15  3  1  0  0  0  0
 16 15  2  0  0  0  0
 17 11  1  0  0  0  0
 18 12  1  0  0  0  0
 19 13  1  0  0  0  0
 20 21  1  0  0  0  0
 21 26  1  0  0  0  0
 21 22  2  0  0  0  0
 22 27  1  0  0  0  0
 23 22  1  0  0  0  0
 24 23  2  0  0  0  0
 25 20  2  0  0  0  0
 25 24  1  0  0  0  0
 28 24  1  0  0  0  0
 28 30  2  0  0  0  0
 29 28  1  0  0  0  0
M  END
>  <minimizedAffinity>
-4.9717927

$$$$

 OpenBabel03272510223D

 30 32  0  0  0  0  0  0  0  0999 V2000
   38.5290   26.9710   30.8090 Br  0  0  0  0  0  0  0  0  0  0  0  0
   37.3390   27.8420   32.0200 C   0  0  0  0  0  0  0  0  0  0  0  0
   37.3900   27.5640   33.3870 C   0  0  0  0  0  0  0  0  0  0  0  0
   36.5000   28.2310   34.2000 C   0  0  0  0  0  0  0  0  0  0  0  0
   35.5780   29.1480   33.7260 C   0  0  0  0  0  0  0  0  0  0  0  0
   35.5570   29.3950   32.3860 C   0  0  0  0  0  0  0  0  0  0  0  0
   36.4340   28.7430   31.5530 C   0  0  0  0  0  0  0  0  0  0  0  0
   36.5130   28.0380   35.2710 H   0  0  0  0  0  0  0  0  0  0  0  0
   34.8720   30.0970   31.9140 H   0  0  0  0  0  0  0  0  0  0  0  0
   36.4170   28.9400   30.4840 H   0  0  0  0  0  0  0  0  0  0  0  0
   40.4560   26.2850   34.8720 C   0  0  0  0  0  0  0  0  0  0  0  0
   40.2160   24.8730   34.9570 C   0  0  0  0  0  0  0  0  0  0  0  0
   38.9950   24.4000   34.4950 C   0  0  0  0  0  0  0  0  0  0  0  0
   38.0940   25.2870   33.9910 N   0  0  0  0  0  0  0  0  0  0  0  0
   38.3440   26.6070   33.9230 C   0  0  0  0  0  0  0  0  0  0  0  0
   39.5340   27.1070   34.3670 N   0  0  0  0  0  0  0  0  0  0  0  0
   41.3970   26.6820   35.2240 H   0  0  0  0  0  0  0  0  0  0  0  0
   41.0160   24.2730   35.3800 H   0  0  0  0  0  0  0  0  0  0  0  0
   38.8170   23.3540   34.5570 H   0  0  0  0  0  0  0  0  0  0  0  0
   34.6400   29.8500   34.5990 C   0  0  0  0  0  0  0  0  0  0  0  0
   33.3010   29.5630   34.6990 C   0  0  0  0  0  0  0  0  0  0  0  0
   32.4420   30.2420   35.5320 C   0  0  0  0  0  0  0  0  0  0  0  0
   32.9040   31.2310   36.2880 N   0  0  0  0  0  0  0  0  0  0  0  0
   34.2160   31.5340   36.2090 C   0  0  0  0  0  0  0  0  0  0  0  0
   35.0430   30.8580   35.3890 N   0  0  0  0  0  0  0  0  0  0  0  0
   32.9110   28.7430   34.0750 H   0  0  0  0  0  0  0  0  0  0  0  0
   31.3930   30.0080   35.6030 H   0  0  0  0  0  0  0  0  0  0  0  0
   34.8450   32.6050   36.9940 C   0  0  0  0  0  0  0  0  0  0  0  0
   35.9380   32.5570   37.0570 H   0  0  0  0  0  0  0  0  0  0  0  0
   34.2300   33.5200   37.5640 O   0  0  0  0  0  0  0  0  0  0  0  0
  1  2  1  0  0  0  0
  2  3  1  0  0  0  0
  3 15  1  0  0  0  0
  3  4  2  0  0  0  0
  4  8  1  0  0  0  0
  5  4  1  0  0  0  0
  5 20  1  0  0  0  0
  6  5  2  0  0  0  0
  7  2  2  0  0  0  0
  7  6  1  0  0  0  0
  9  6  1  0  0  0  0
 10  7  1  0  0  0  0
 11 12  1  0  0  0  0
 11 17  1  0  0  0  0
 12 18  1  0  0  0  0
 13 19  1  0  0  0  0
 13 12  2  0  0  0  0
 14 13  1  0  0  0  0
 15 14  2  0  0  0  0
 15 16  1  0  0  0  0
 16 11  2  0  0  0  0
 20 21  2  0  0  0  0
 20 25  1  0  0  0  0
 21 22  1  0  0  0  0
 22 27  1  0  0  0  0
 22 23  2  0  0  0  0
 24 23  1  0  0  0  0
 24 28  1  0  0  0  0
 25 24  2  0  0  0  0
 26 21  1  0  0  0  0
 28 29  1  0  0  0  0
 28 30  2  0  0  0  0
M  END
>  <minimizedAffinity>
-4.91529655

$$$$
