
 OpenBabel03272510333D

 22 23  0  0  0  0  0  0  0  0999 V2000
   35.9960   30.1790   48.6380 C   0  0  0  0  0  0  0  0  0  0  0  0
   35.1510   30.0550   47.5750 C   0  0  0  0  0  0  0  0  0  0  0  0
   34.1340   29.1180   47.5720 C   0  0  0  0  0  0  0  0  0  0  0  0
   33.9880   28.3050   48.6680 C   0  0  0  0  0  0  0  0  0  0  0  0
   34.8350   28.4050   49.7750 C   0  0  0  0  0  0  0  0  0  0  0  0
   35.8420   29.3550   49.7410 C   0  0  0  0  0  0  0  0  0  0  0  0
   35.2610   30.6970   46.7000 H   0  0  0  0  0  0  0  0  0  0  0  0
   33.4480   28.9870   46.7580 H   0  0  0  0  0  0  0  0  0  0  0  0
   33.2310   27.5350   48.7860 H   0  0  0  0  0  0  0  0  0  0  0  0
   34.7530   27.7790   50.6640 H   0  0  0  0  0  0  0  0  0  0  0  0
   37.9460   33.1450   49.4470 C   0  0  0  0  0  0  0  0  0  0  0  0
   38.9870   33.1420   48.4970 C   0  0  0  0  0  0  0  0  0  0  0  0
   38.9960   32.0850   47.5670 C   0  0  0  0  0  0  0  0  0  0  0  0
   38.0240   31.1420   47.6310 N   0  0  0  0  0  0  0  0  0  0  0  0
   37.0400   31.1850   48.5650 C   0  0  0  0  0  0  0  0  0  0  0  0
   37.0240   32.1900   49.4540 N   0  0  0  0  0  0  0  0  0  0  0  0
   37.8520   33.9160   50.2040 H   0  0  0  0  0  0  0  0  0  0  0  0
   39.7170   33.9350   48.5230 H   0  0  0  0  0  0  0  0  0  0  0  0
   39.7890   32.0690   46.8310 H   0  0  0  0  0  0  0  0  0  0  0  0
   36.7340   29.4700   50.8880 C   0  0  0  0  0  0  0  0  0  0  0  0
   36.5450   30.1500   51.7040 H   0  0  0  0  0  0  0  0  0  0  0  0
   37.7850   28.7890   51.0130 O   0  0  0  0  0  0  0  0  0  0  0  0
  1  6  1  0  0  0  0
  2  1  2  0  0  0  0
  3  2  1  0  0  0  0
  3  4  2  0  0  0  0
  4  9  1  0  0  0  0
  4  5  1  0  0  0  0
  5 10  1  0  0  0  0
  6  5  2  0  0  0  0
  6 20  1  0  0  0  0
  7  2  1  0  0  0  0
  8  3  1  0  0  0  0
 11 16  1  0  0  0  0
 11 17  1  0  0  0  0
 12 18  1  0  0  0  0
 12 11  2  0  0  0  0
 13 14  2  0  0  0  0
 13 12  1  0  0  0  0
 14 15  1  0  0  0  0
 15  1  1  0  0  0  0
 15 16  2  0  0  0  0
 19 13  1  0  0  0  0
 20 22  2  0  0  0  0
 20 21  1  0  0  0  0
M  END
>  <minimizedAffinity>
-5.31493759

>  <minimizedRMSD>
0.402109563

$$$$
