
 OpenBabel03272510323D

 22 23  0  0  0  0  0  0  0  0999 V2000
   36.0990   30.2710   48.7340 C   0  0  0  0  0  0  0  0  0  0  0  0
   35.0890   30.2610   47.8180 C   0  0  0  0  0  0  0  0  0  0  0  0
   34.0700   29.3280   47.8830 C   0  0  0  0  0  0  0  0  0  0  0  0
   34.0920   28.4010   48.8950 C   0  0  0  0  0  0  0  0  0  0  0  0
   35.1120   28.3830   49.8510 C   0  0  0  0  0  0  0  0  0  0  0  0
   36.1150   29.3320   49.7530 C   0  0  0  0  0  0  0  0  0  0  0  0
   35.0640   30.9940   47.0100 H   0  0  0  0  0  0  0  0  0  0  0  0
   33.2570   29.2840   47.1840 H   0  0  0  0  0  0  0  0  0  0  0  0
   33.3530   27.6210   49.0530 H   0  0  0  0  0  0  0  0  0  0  0  0
   35.1660   27.6640   50.6700 H   0  0  0  0  0  0  0  0  0  0  0  0
   38.0590   33.2660   49.3980 C   0  0  0  0  0  0  0  0  0  0  0  0
   39.0630   33.2460   48.4090 C   0  0  0  0  0  0  0  0  0  0  0  0
   39.0440   32.1660   47.5040 C   0  0  0  0  0  0  0  0  0  0  0  0
   38.0810   31.2200   47.6280 N   0  0  0  0  0  0  0  0  0  0  0  0
   37.1320   31.2800   48.5970 C   0  0  0  0  0  0  0  0  0  0  0  0
   37.1450   32.3050   49.4630 N   0  0  0  0  0  0  0  0  0  0  0  0
   37.9900   34.0530   50.1400 H   0  0  0  0  0  0  0  0  0  0  0  0
   39.7890   34.0430   48.3890 H   0  0  0  0  0  0  0  0  0  0  0  0
   39.8080   32.1380   46.7400 H   0  0  0  0  0  0  0  0  0  0  0  0
   37.1850   29.3240   50.7420 C   0  0  0  0  0  0  0  0  0  0  0  0
   38.1260   28.8270   50.5740 H   0  0  0  0  0  0  0  0  0  0  0  0
   37.0900   29.8920   51.8620 O   0  0  0  0  0  0  0  0  0  0  0  0
  1  6  1  0  0  0  0
  2  3  1  0  0  0  0
  2  1  2  0  0  0  0
  3  4  2  0  0  0  0
  4  9  1  0  0  0  0
  4  5  1  0  0  0  0
  5 10  1  0  0  0  0
  6  5  2  0  0  0  0
  6 20  1  0  0  0  0
  7  2  1  0  0  0  0
  8  3  1  0  0  0  0
 11 16  1  0  0  0  0
 11 17  1  0  0  0  0
 12 11  2  0  0  0  0
 13 14  2  0  0  0  0
 13 12  1  0  0  0  0
 14 15  1  0  0  0  0
 15  1  1  0  0  0  0
 15 16  2  0  0  0  0
 18 12  1  0  0  0  0
 19 13  1  0  0  0  0
 20 22  2  0  0  0  0
 21 20  1  0  0  0  0
M  END
>  <minimizedAffinity>
-5.48344469

>  <minimizedRMSD>
0.45245707

$$$$
