
 OpenBabel03272510323D

 22 23  0  0  0  0  0  0  0  0999 V2000
   36.1980   30.0950   48.6280 C   0  0  0  0  0  0  0  0  0  0  0  0
   35.1160   30.0240   47.8020 C   0  0  0  0  0  0  0  0  0  0  0  0
   34.0440   29.2010   48.0930 C   0  0  0  0  0  0  0  0  0  0  0  0
   34.0860   28.4470   49.2400 C   0  0  0  0  0  0  0  0  0  0  0  0
   35.1790   28.4960   50.1090 C   0  0  0  0  0  0  0  0  0  0  0  0
   36.2350   29.3310   49.7850 C   0  0  0  0  0  0  0  0  0  0  0  0
   35.0740   30.6190   46.8880 H   0  0  0  0  0  0  0  0  0  0  0  0
   33.1730   29.1150   47.4710 H   0  0  0  0  0  0  0  0  0  0  0  0
   33.3100   27.7670   49.5770 H   0  0  0  0  0  0  0  0  0  0  0  0
   35.2520   27.9140   51.0290 H   0  0  0  0  0  0  0  0  0  0  0  0
   38.4080   32.9880   48.6410 C   0  0  0  0  0  0  0  0  0  0  0  0
   39.3260   32.7240   47.6050 C   0  0  0  0  0  0  0  0  0  0  0  0
   39.1600   31.5160   46.9000 C   0  0  0  0  0  0  0  0  0  0  0  0
   38.1470   30.6850   47.2470 N   0  0  0  0  0  0  0  0  0  0  0  0
   37.2850   30.9800   48.2540 C   0  0  0  0  0  0  0  0  0  0  0  0
   37.4370   32.1290   48.9290 N   0  0  0  0  0  0  0  0  0  0  0  0
   38.4520   33.8900   49.2410 H   0  0  0  0  0  0  0  0  0  0  0  0
   40.1010   33.4450   47.4010 H   0  0  0  0  0  0  0  0  0  0  0  0
   39.8570   31.2990   46.1020 H   0  0  0  0  0  0  0  0  0  0  0  0
   37.3810   29.3910   50.6820 C   0  0  0  0  0  0  0  0  0  0  0  0
   38.3030   28.8690   50.4820 H   0  0  0  0  0  0  0  0  0  0  0  0
   37.3810   30.0520   51.7530 O   0  0  0  0  0  0  0  0  0  0  0  0
  1  6  1  0  0  0  0
  2  3  1  0  0  0  0
  2  1  2  0  0  0  0
  3  4  2  0  0  0  0
  4  9  1  0  0  0  0
  4  5  1  0  0  0  0
  5 10  1  0  0  0  0
  6  5  2  0  0  0  0
  6 20  1  0  0  0  0
  7  2  1  0  0  0  0
  8  3  1  0  0  0  0
 11 16  1  0  0  0  0
 11 17  1  0  0  0  0
 12 11  2  0  0  0  0
 13 14  2  0  0  0  0
 13 12  1  0  0  0  0
 14 15  1  0  0  0  0
 15  1  1  0  0  0  0
 15 16  2  0  0  0  0
 18 12  1  0  0  0  0
 19 13  1  0  0  0  0
 20 22  2  0  0  0  0
 21 20  1  0  0  0  0
M  END
>  <minimizedAffinity>
-5.30264425

>  <minimizedRMSD>
0.743448615

$$$$
