
 OpenBabel03272509493D

 27 28  0  0  0  0  0  0  0  0999 V2000
   33.7220   28.5930   48.7050 C   0  0  0  0  0  0  0  0  0  0  0  0
   33.1930   29.5150   49.0120 H   0  0  0  0  0  0  0  0  0  0  0  0
   34.3500   28.8760   47.8170 H   0  0  0  0  0  0  0  0  0  0  0  0
   32.8100   27.4590   48.3480 C   0  0  0  0  0  0  0  0  0  0  0  0
   33.0410   27.0430   47.3260 H   0  0  0  0  0  0  0  0  0  0  0  0
   32.9450   26.6000   49.0410 H   0  0  0  0  0  0  0  0  0  0  0  0
   31.3710   27.8610   48.3510 C   0  0  0  0  0  0  0  0  0  0  0  0
   30.6950   27.7310   49.5370 C   0  0  0  0  0  0  0  0  0  0  0  0
   29.3650   28.0700   49.6630 C   0  0  0  0  0  0  0  0  0  0  0  0
   28.7190   28.5420   48.5810 N   0  0  0  0  0  0  0  0  0  0  0  0
   29.3900   28.6670   47.4180 C   0  0  0  0  0  0  0  0  0  0  0  0
   30.6900   28.3380   47.2930 N   0  0  0  0  0  0  0  0  0  0  0  0
   31.1630   27.3550   50.4460 H   0  0  0  0  0  0  0  0  0  0  0  0
   28.8130   27.9750   50.5890 H   0  0  0  0  0  0  0  0  0  0  0  0
   28.8370   29.0520   46.5690 H   0  0  0  0  0  0  0  0  0  0  0  0
   34.6350   28.2060   49.7240 O   0  0  0  0  0  0  0  0  0  0  0  0
   37.2400   30.1900   51.2710 C   0  0  0  0  0  0  0  0  0  0  0  0
   37.9000   30.6440   50.1120 C   0  0  0  0  0  0  0  0  0  0  0  0
   37.4170   30.2470   48.8790 C   0  0  0  0  0  0  0  0  0  0  0  0
   36.3190   29.4320   48.8950 N   0  0  0  0  0  0  0  0  0  0  0  0
   35.7080   29.0120   49.9970 C   0  0  0  0  0  0  0  0  0  0  0  0
   36.1790   29.3990   51.1910 N   0  0  0  0  0  0  0  0  0  0  0  0
   37.6230   30.5050   52.2450 H   0  0  0  0  0  0  0  0  0  0  0  0
   38.7550   31.2800   50.1320 H   0  0  0  0  0  0  0  0  0  0  0  0
   38.0460   30.6750   47.6190 C   0  0  0  0  0  0  0  0  0  0  0  0
   38.1660   29.9150   46.8590 H   0  0  0  0  0  0  0  0  0  0  0  0
   38.3910   31.8830   47.5350 O   0  0  0  0  0  0  0  0  0  0  0  0
  1  2  1  0  0  0  0
  1 16  1  0  0  0  0
  3  1  1  0  0  0  0
  4  7  1  0  0  0  0
  4  1  1  0  0  0  0
  4  6  1  0  0  0  0
  5  4  1  0  0  0  0
  7  8  1  0  0  0  0
  8  9  2  0  0  0  0
  8 13  1  0  0  0  0
  9 14  1  0  0  0  0
 10  9  1  0  0  0  0
 11 10  2  0  0  0  0
 12 11  1  0  0  0  0
 12  7  2  0  0  0  0
 15 11  1  0  0  0  0
 16 21  1  0  0  0  0
 17 23  1  0  0  0  0
 18 24  1  0  0  0  0
 18 17  2  0  0  0  0
 19 20  2  0  0  0  0
 19 18  1  0  0  0  0
 20 21  1  0  0  0  0
 21 22  2  0  0  0  0
 22 17  1  0  0  0  0
 25 19  1  0  0  0  0
 26 25  1  0  0  0  0
 27 25  2  0  0  0  0
M  END
>  <minimizedAffinity>
-4.69315386

>  <minimizedRMSD>
0.0181402043

$$$$
