REMARK  Name = 
REMARK  5 active torsions:
REMARK  status: ('A' for Active; 'I' for Inactive)
REMARK    1  A    between atoms: C_1  and  C_2
REMARK    2  A    between atoms: C_1  and  O_9
REMARK    3  A    between atoms: C_2  and  C_3
REMARK    4  A    between atoms: O_9  and  C_14
REMARK    5  A    between atoms: CA_12  and  C_25
REMARK                            x       y       z     vdW  Elec       q    Type
REMARK                         _______ _______ _______ _____ _____    ______ ____
ROOT
ATOM      1  C   UNL     1      33.728  28.590  48.696  0.00  0.00    +0.000 C 
ATOM      2  H   UNL     1      33.201  29.521  48.980  0.00  0.00    +0.000 HD
ATOM      3  H   UNL     1      34.372  28.854  47.814  0.00  0.00    +0.000 HD
ENDROOT
BRANCH   1   4
ATOM      4  C   UNL     1      32.813  27.457  48.342  0.00  0.00    +0.000 C 
ATOM      5  H   UNL     1      33.041  27.039  47.321  0.00  0.00    +0.000 HD
ATOM      6  H   UNL     1      32.947  26.599  49.036  0.00  0.00    +0.000 HD
BRANCH   4   7
ATOM      7  C   UNL     1      31.375  27.862  48.347  0.00  0.00    +0.000 A 
ATOM      8  C   UNL     1      30.699  27.730  49.533  0.00  0.00    +0.000 A 
ATOM      9  C   UNL     1      29.369  28.072  49.660  0.00  0.00    +0.000 A 
ATOM     10  N   UNL     1      28.724  28.548  48.580  0.00  0.00    +0.000 NA
ATOM     11  C   UNL     1      29.395  28.675  47.417  0.00  0.00    +0.000 A 
ATOM     12  N   UNL     1      30.694  28.343  47.290  0.00  0.00    +0.000 NA
ATOM     13  H   UNL     1      31.166  27.351  50.441  0.00  0.00    +0.000 HD
ATOM     14  H   UNL     1      28.818  27.975  50.586  0.00  0.00    +0.000 HD
ATOM     15  H   UNL     1      28.842  29.063  46.569  0.00  0.00    +0.000 HD
ENDBRANCH   4   7
ENDBRANCH   1   4
BRANCH   1  16
ATOM     16  O   UNL     1      34.621  28.213  49.736  0.00  0.00    +0.000 OA
BRANCH  16  21
ATOM     17  C   UNL     1      37.230  30.187  51.288  0.00  0.00    +0.000 A 
ATOM     18  C   UNL     1      37.901  30.630  50.130  0.00  0.00    +0.000 A 
ATOM     19  CA  UNL     1      37.422  30.229  48.896  0.00  0.00    +0.000 A 
ATOM     20  N   UNL     1      36.318  29.422  48.910  0.00  0.00    +0.000 NA
ATOM     21  C   UNL     1      35.698  29.013  50.011  0.00  0.00    +0.000 A 
ATOM     22  N   UNL     1      36.164  29.403  51.206  0.00  0.00    +0.000 NA
ATOM     23  H   UNL     1      37.610  30.505  52.262  0.00  0.00    +0.000 HD
ATOM     24  H   UNL     1      38.760  31.260  50.152  0.00  0.00    +0.000 HD
BRANCH  19  25
ATOM     25  C   UNL     1      38.062  30.646  47.638  0.00  0.00    +0.000 C 
ATOM     26  H   UNL     1      37.486  30.498  46.735  0.00  0.00    +0.000 HD
ATOM     27  O   UNL     1      39.218  31.136  47.722  0.00  0.00    +0.000 OA
ENDBRANCH  19  25
ENDBRANCH  16  21
ENDBRANCH   1  16
TORSDOF 5
