
 OpenBabel03262523413D

 26 27  0  0  1  0  0  0  0  0999 V2000
   38.2910   23.4960   38.0840 C   0  0  0  0  0  0  0  0  0  0  0  0
   37.5590   23.1280   36.9530 C   0  0  0  0  0  0  0  0  0  0  0  0
   38.1700   22.3830   35.9430 C   0  0  0  0  0  0  0  0  0  0  0  0
   39.4720   22.0510   36.1210 N   0  0  0  0  0  0  0  0  0  0  0  0
   40.1790   22.4050   37.2130 C   0  0  0  0  0  0  0  0  0  0  0  0
   39.5910   23.1280   38.1960 N   0  0  0  0  0  0  0  0  0  0  0  0
   37.4320   22.0030   34.7850 N   0  0  0  0  0  0  0  0  0  0  0  0
   37.7080   22.7580   33.5880 C   0  0  0  0  0  0  0  0  0  0  0  0
   37.0450   22.2340   32.3660 C   0  0  0  0  0  0  0  0  0  0  0  0
   36.2550   21.0980   32.4660 N   0  0  0  0  0  0  0  0  0  0  0  0
   35.6030   20.8040   33.6750 C   0  0  0  0  0  0  0  0  0  0  0  0
   36.4940   20.9300   34.8870 C   0  0  2  0  0  0  0  0  0  0  0  0
   37.7780   24.0740   38.8420 H   0  0  0  0  0  0  0  0  0  0  0  0
   36.5250   23.4380   36.8950 H   0  0  0  0  0  0  0  0  0  0  0  0
   41.2270   22.1270   37.3380 H   0  0  0  0  0  0  0  0  0  0  0  0
   37.3350   23.8030   33.8090 H   0  0  0  0  0  0  0  0  0  0  0  0
   38.8090   22.8800   33.5110 H   0  0  0  0  0  0  0  0  0  0  0  0
   37.8810   22.0270   31.6330 H   0  0  0  0  0  0  0  0  0  0  0  0
   36.4650   23.0420   31.8600 H   0  0  0  0  0  0  0  0  0  0  0  0
   36.7410   20.2420   32.1060 H   0  0  0  0  0  0  0  0  0  0  0  0
   35.1850   19.7820   33.6390 H   0  0  0  0  0  0  0  0  0  0  0  0
   34.7480   21.5140   33.7980 H   0  0  0  0  0  0  0  0  0  0  0  0
   37.0800   19.9820   34.9250 H   0  0  0  0  0  0  0  0  0  0  0  0
   35.6500   20.9950   36.1040 C   0  0  0  0  0  0  0  0  0  0  0  0
   35.1500   21.9630   36.2400 H   0  0  0  0  0  0  0  0  0  0  0  0
   34.9910   20.9300   37.1280 O   0  0  0  0  0  0  0  0  0  0  0  0
  1  6  1  0  0  0  0
  1 13  1  0  0  0  0
  2  1  2  0  0  0  0
  3  4  2  0  0  0  0
  3  2  1  0  0  0  0
  4  5  1  0  0  0  0
  5 15  1  0  0  0  0
  5  6  2  0  0  0  0
  7 12  1  0  0  0  0
  7  3  1  0  0  0  0
  8 16  1  0  0  0  0
  8  7  1  0  0  0  0
  9 10  1  0  0  0  0
  9  8  1  0  0  0  0
 10 11  1  0  0  0  0
 11 22  1  0  0  0  0
 11 12  1  0  0  0  0
 12 23  1  1  0  0  0
 12 24  1  0  0  0  0
 14  2  1  0  0  0  0
 17  8  1  0  0  0  0
 18  9  1  0  0  0  0
 19  9  1  0  0  0  0
 20 10  1  0  0  0  0
 21 11  1  0  0  0  0
 24 25  1  0  0  0  0
 24 26  2  0  0  0  0
M  END
>  <minimizedAffinity>
-4.25828409

$$$$

 OpenBabel03262523413D

 26 27  0  0  1  0  0  0  0  0999 V2000
   39.6630   27.0890   33.7970 C   0  0  0  0  0  0  0  0  0  0  0  0
   39.8170   26.2470   34.9010 C   0  0  0  0  0  0  0  0  0  0  0  0
   38.8920   25.2270   35.1300 C   0  0  0  0  0  0  0  0  0  0  0  0
   37.8720   25.1080   34.2460 N   0  0  0  0  0  0  0  0  0  0  0  0
   37.7230   25.9210   33.1800 C   0  0  0  0  0  0  0  0  0  0  0  0
   38.6170   26.9120   32.9530 N   0  0  0  0  0  0  0  0  0  0  0  0
   39.0410   24.3630   36.2530 N   0  0  0  0  0  0  0  0  0  0  0  0
   38.1550   24.6160   37.3620 C   0  0  0  0  0  0  0  0  0  0  0  0
   38.2220   23.6010   38.4450 C   0  0  0  0  0  0  0  0  0  0  0  0
   39.0890   22.5270   38.3040 N   0  0  0  0  0  0  0  0  0  0  0  0
   40.2590   22.6670   37.5390 C   0  0  0  0  0  0  0  0  0  0  0  0
   40.0310   23.3340   36.2040 C   0  0  2  0  0  0  0  0  0  0  0  0
   40.4040   27.8670   33.6580 H   0  0  0  0  0  0  0  0  0  0  0  0
   40.6630   26.4150   35.5540 H   0  0  0  0  0  0  0  0  0  0  0  0
   36.8930   25.8090   32.4800 H   0  0  0  0  0  0  0  0  0  0  0  0
   38.4680   25.6260   37.7610 H   0  0  0  0  0  0  0  0  0  0  0  0
   37.1390   24.7970   36.9490 H   0  0  0  0  0  0  0  0  0  0  0  0
   37.1700   23.2030   38.5530 H   0  0  0  0  0  0  0  0  0  0  0  0
   38.4040   24.0940   39.4290 H   0  0  0  0  0  0  0  0  0  0  0  0
   38.5900   21.6460   38.0330 H   0  0  0  0  0  0  0  0  0  0  0  0
   40.7230   21.6780   37.3750 H   0  0  0  0  0  0  0  0  0  0  0  0
   40.9870   23.2890   38.1170 H   0  0  0  0  0  0  0  0  0  0  0  0
   39.6400   22.5310   35.5350 H   0  0  0  0  0  0  0  0  0  0  0  0
   41.3330   23.7880   35.6610 C   0  0  0  0  0  0  0  0  0  0  0  0
   41.2670   24.7240   35.0910 H   0  0  0  0  0  0  0  0  0  0  0  0
   42.4540   24.0610   35.2660 O   0  0  0  0  0  0  0  0  0  0  0  0
  1  2  1  0  0  0  0
  2  3  2  0  0  0  0
  2 14  1  0  0  0  0
  3  7  1  0  0  0  0
  4  3  1  0  0  0  0
  5  4  2  0  0  0  0
  6  5  1  0  0  0  0
  6  1  2  0  0  0  0
  7  8  1  0  0  0  0
  8 16  1  0  0  0  0
  8  9  1  0  0  0  0
  9 18  1  0  0  0  0
  9 19  1  0  0  0  0
 10  9  1  0  0  0  0
 11 22  1  0  0  0  0
 11 10  1  0  0  0  0
 12 23  1  6  0  0  0
 12  7  1  0  0  0  0
 12 11  1  0  0  0  0
 13  1  1  0  0  0  0
 15  5  1  0  0  0  0
 17  8  1  0  0  0  0
 20 10  1  0  0  0  0
 21 11  1  0  0  0  0
 24 12  1  0  0  0  0
 25 24  1  0  0  0  0
 26 24  2  0  0  0  0
M  END
>  <minimizedAffinity>
-4.22713614

$$$$

 OpenBabel03262523413D

 26 27  0  0  1  0  0  0  0  0999 V2000
   37.9040   23.1050   32.3470 C   0  0  0  0  0  0  0  0  0  0  0  0
   38.4190   23.2860   33.6330 C   0  0  0  0  0  0  0  0  0  0  0  0
   37.9500   22.4980   34.6850 C   0  0  0  0  0  0  0  0  0  0  0  0
   36.9990   21.5780   34.3930 N   0  0  0  0  0  0  0  0  0  0  0  0
   36.5020   21.4030   33.1520 C   0  0  0  0  0  0  0  0  0  0  0  0
   36.9520   22.1650   32.1270 N   0  0  0  0  0  0  0  0  0  0  0  0
   38.4690   22.6750   36.0000 N   0  0  0  0  0  0  0  0  0  0  0  0
   37.6150   23.3810   36.9230 C   0  0  0  0  0  0  0  0  0  0  0  0
   38.1120   23.4060   38.3230 C   0  0  0  0  0  0  0  0  0  0  0  0
   39.3060   22.7640   38.6220 N   0  0  0  0  0  0  0  0  0  0  0  0
   40.2970   22.6340   37.6350 C   0  0  0  0  0  0  0  0  0  0  0  0
   39.7650   22.1570   36.3050 C   0  0  2  0  0  0  0  0  0  0  0  0
   38.2950   23.7390   31.5610 H   0  0  0  0  0  0  0  0  0  0  0  0
   39.1760   24.0450   33.7740 H   0  0  0  0  0  0  0  0  0  0  0  0
   35.7350   20.6560   32.9370 H   0  0  0  0  0  0  0  0  0  0  0  0
   37.5540   24.4340   36.5180 H   0  0  0  0  0  0  0  0  0  0  0  0
   36.5830   22.9870   36.7970 H   0  0  0  0  0  0  0  0  0  0  0  0
   37.2900   22.9440   38.9450 H   0  0  0  0  0  0  0  0  0  0  0  0
   38.1530   24.4540   38.7030 H   0  0  0  0  0  0  0  0  0  0  0  0
   39.1540   21.8430   39.0980 H   0  0  0  0  0  0  0  0  0  0  0  0
   41.0840   21.9400   37.9800 H   0  0  0  0  0  0  0  0  0  0  0  0
   40.7740   23.6330   37.4790 H   0  0  0  0  0  0  0  0  0  0  0  0
   39.6630   21.0500   36.4060 H   0  0  0  0  0  0  0  0  0  0  0  0
   40.7750   22.4280   35.2540 C   0  0  0  0  0  0  0  0  0  0  0  0
   40.3450   22.5300   34.2490 H   0  0  0  0  0  0  0  0  0  0  0  0
   41.6910   22.6470   34.4800 O   0  0  0  0  0  0  0  0  0  0  0  0
  1  2  1  0  0  0  0
  2 14  1  0  0  0  0
  2  3  2  0  0  0  0
  3  7  1  0  0  0  0
  4  3  1  0  0  0  0
  5  4  2  0  0  0  0
  6  1  2  0  0  0  0
  6  5  1  0  0  0  0
  7 12  1  0  0  0  0
  7  8  1  0  0  0  0
  8  9  1  0  0  0  0
  9 10  1  0  0  0  0
  9 19  1  0  0  0  0
  9 18  1  0  0  0  0
 10 20  1  0  0  0  0
 11 21  1  0  0  0  0
 11 10  1  0  0  0  0
 12 23  1  1  0  0  0
 12 11  1  0  0  0  0
 13  1  1  0  0  0  0
 15  5  1  0  0  0  0
 16  8  1  0  0  0  0
 17  8  1  0  0  0  0
 22 11  1  0  0  0  0
 24 12  1  0  0  0  0
 25 24  1  0  0  0  0
 26 24  2  0  0  0  0
M  END
>  <minimizedAffinity>
-4.20267248

$$$$

 OpenBabel03262523413D

 26 27  0  0  1  0  0  0  0  0999 V2000
   36.1540   30.3390   31.8770 C   0  0  0  0  0  0  0  0  0  0  0  0
   35.5710   30.9740   32.9750 C   0  0  0  0  0  0  0  0  0  0  0  0
   35.3500   30.2590   34.1530 C   0  0  0  0  0  0  0  0  0  0  0  0
   35.7240   28.9570   34.1650 N   0  0  0  0  0  0  0  0  0  0  0  0
   36.2880   28.3430   33.1060 C   0  0  0  0  0  0  0  0  0  0  0  0
   36.5040   29.0310   31.9600 N   0  0  0  0  0  0  0  0  0  0  0  0
   34.7560   30.8990   35.2790 N   0  0  0  0  0  0  0  0  0  0  0  0
   33.3690   30.5840   35.5210 C   0  0  0  0  0  0  0  0  0  0  0  0
   32.8270   31.1350   36.7890 C   0  0  0  0  0  0  0  0  0  0  0  0
   33.6670   31.8700   37.6150 N   0  0  0  0  0  0  0  0  0  0  0  0
   34.7420   32.5840   37.0610 C   0  0  0  0  0  0  0  0  0  0  0  0
   35.5520   31.7840   36.0700 C   0  0  2  0  0  0  0  0  0  0  0  0
   36.3070   30.9310   30.9830 H   0  0  0  0  0  0  0  0  0  0  0  0
   35.3040   32.0170   32.8750 H   0  0  0  0  0  0  0  0  0  0  0  0
   36.5820   27.2920   33.1350 H   0  0  0  0  0  0  0  0  0  0  0  0
   32.8120   31.0240   34.6410 H   0  0  0  0  0  0  0  0  0  0  0  0
   33.2440   29.4870   35.3930 H   0  0  0  0  0  0  0  0  0  0  0  0
   32.4430   30.2430   37.3690 H   0  0  0  0  0  0  0  0  0  0  0  0
   31.8990   31.7220   36.5940 H   0  0  0  0  0  0  0  0  0  0  0  0
   33.9950   31.3170   38.4420 H   0  0  0  0  0  0  0  0  0  0  0  0
   35.4080   32.9450   37.8640 H   0  0  0  0  0  0  0  0  0  0  0  0
   34.3360   33.4810   36.5320 H   0  0  0  0  0  0  0  0  0  0  0  0
   36.2350   31.1520   36.6860 H   0  0  0  0  0  0  0  0  0  0  0  0
   36.3850   32.7090   35.2660 C   0  0  0  0  0  0  0  0  0  0  0  0
   35.8410   33.1810   34.4370 H   0  0  0  0  0  0  0  0  0  0  0  0
   37.1650   33.4400   34.6800 O   0  0  0  0  0  0  0  0  0  0  0  0
  1  6  2  0  0  0  0
  1  2  1  0  0  0  0
  2  3  2  0  0  0  0
  3  4  1  0  0  0  0
  3  7  1  0  0  0  0
  5 15  1  0  0  0  0
  5  4  2  0  0  0  0
  6  5  1  0  0  0  0
  7  8  1  0  0  0  0
  7 12  1  0  0  0  0
  8  9  1  0  0  0  0
  9 18  1  0  0  0  0
  9 10  1  0  0  0  0
 10 20  1  0  0  0  0
 11 10  1  0  0  0  0
 11 21  1  0  0  0  0
 12 23  1  1  0  0  0
 12 11  1  0  0  0  0
 13  1  1  0  0  0  0
 14  2  1  0  0  0  0
 16  8  1  0  0  0  0
 17  8  1  0  0  0  0
 19  9  1  0  0  0  0
 22 11  1  0  0  0  0
 24 12  1  0  0  0  0
 25 24  1  0  0  0  0
 26 24  2  0  0  0  0
M  END
>  <minimizedAffinity>
-3.87619233

$$$$

 OpenBabel03262523413D

 26 27  0  0  1  0  0  0  0  0999 V2000
   39.8400   22.8910   37.1350 C   0  0  0  0  0  0  0  0  0  0  0  0
   39.8030   23.6670   35.9750 C   0  0  0  0  0  0  0  0  0  0  0  0
   38.8810   24.7100   35.8670 C   0  0  0  0  0  0  0  0  0  0  0  0
   38.0540   24.9150   36.9210 N   0  0  0  0  0  0  0  0  0  0  0  0
   38.0900   24.1660   38.0410 C   0  0  0  0  0  0  0  0  0  0  0  0
   38.9820   23.1530   38.1520 N   0  0  0  0  0  0  0  0  0  0  0  0
   38.8350   25.5080   34.6880 N   0  0  0  0  0  0  0  0  0  0  0  0
   37.7450   25.2330   33.7850 C   0  0  0  0  0  0  0  0  0  0  0  0
   37.6320   26.1860   32.6510 C   0  0  0  0  0  0  0  0  0  0  0  0
   38.5400   27.2310   32.5610 N   0  0  0  0  0  0  0  0  0  0  0  0
   39.8310   27.0840   33.0950 C   0  0  0  0  0  0  0  0  0  0  0  0
   39.8450   26.4980   34.4860 C   0  0  2  0  0  0  0  0  0  0  0  0
   40.5710   22.0920   37.1760 H   0  0  0  0  0  0  0  0  0  0  0  0
   40.5010   23.4320   35.1840 H   0  0  0  0  0  0  0  0  0  0  0  0
   37.4140   24.3470   38.8800 H   0  0  0  0  0  0  0  0  0  0  0  0
   37.9460   24.1920   33.3930 H   0  0  0  0  0  0  0  0  0  0  0  0
   36.8230   25.1140   34.3940 H   0  0  0  0  0  0  0  0  0  0  0  0
   36.5900   26.6200   32.7220 H   0  0  0  0  0  0  0  0  0  0  0  0
   37.6060   25.6360   31.6810 H   0  0  0  0  0  0  0  0  0  0  0  0
   38.1290   28.1440   32.8700 H   0  0  0  0  0  0  0  0  0  0  0  0
   40.3460   28.0610   33.1090 H   0  0  0  0  0  0  0  0  0  0  0  0
   40.4160   26.4050   32.4270 H   0  0  0  0  0  0  0  0  0  0  0  0
   39.6150   27.3490   35.1690 H   0  0  0  0  0  0  0  0  0  0  0  0
   41.2140   26.0210   34.7960 C   0  0  0  0  0  0  0  0  0  0  0  0
   41.2320   25.0800   35.3640 H   0  0  0  0  0  0  0  0  0  0  0  0
   42.3810   25.7290   34.9930 O   0  0  0  0  0  0  0  0  0  0  0  0
  1 13  1  0  0  0  0
  1  6  1  0  0  0  0
  2  1  2  0  0  0  0
  3  2  1  0  0  0  0
  3  4  2  0  0  0  0
  4  5  1  0  0  0  0
  5  6  2  0  0  0  0
  5 15  1  0  0  0  0
  7  3  1  0  0  0  0
  8 17  1  0  0  0  0
  8  7  1  0  0  0  0
  9 18  1  0  0  0  0
  9  8  1  0  0  0  0
 10  9  1  0  0  0  0
 10 20  1  0  0  0  0
 10 11  1  0  0  0  0
 11 21  1  0  0  0  0
 11 12  1  0  0  0  0
 12  7  1  0  0  0  0
 12 24  1  0  0  0  0
 12 23  1  1  0  0  0
 14  2  1  0  0  0  0
 16  8  1  0  0  0  0
 19  9  1  0  0  0  0
 22 11  1  0  0  0  0
 24 26  2  0  0  0  0
 24 25  1  0  0  0  0
M  END
>  <minimizedAffinity>
-3.80066824

$$$$

 OpenBabel03262523413D

 26 27  0  0  1  0  0  0  0  0999 V2000
   38.4280   26.9420   36.0610 C   0  0  0  0  0  0  0  0  0  0  0  0
   38.1080   27.5070   34.8250 C   0  0  0  0  0  0  0  0  0  0  0  0
   37.7530   26.6820   33.7560 C   0  0  0  0  0  0  0  0  0  0  0  0
   37.7380   25.3460   33.9850 N   0  0  0  0  0  0  0  0  0  0  0  0
   38.0460   24.8010   35.1780 C   0  0  0  0  0  0  0  0  0  0  0  0
   38.3910   25.5960   36.2190 N   0  0  0  0  0  0  0  0  0  0  0  0
   37.4250   27.2490   32.4910 N   0  0  0  0  0  0  0  0  0  0  0  0
   38.4410   27.1430   31.4730 C   0  0  0  0  0  0  0  0  0  0  0  0
   38.0080   27.5950   30.1250 C   0  0  0  0  0  0  0  0  0  0  0  0
   36.7100   28.0550   29.9560 N   0  0  0  0  0  0  0  0  0  0  0  0
   36.0320   28.6470   31.0350 C   0  0  0  0  0  0  0  0  0  0  0  0
   36.1480   27.8680   32.3220 C   0  0  2  0  0  0  0  0  0  0  0  0
   38.6970   27.6190   36.8630 H   0  0  0  0  0  0  0  0  0  0  0  0
   38.1460   28.5840   34.7330 H   0  0  0  0  0  0  0  0  0  0  0  0
   38.0280   23.7210   35.3420 H   0  0  0  0  0  0  0  0  0  0  0  0
   39.2920   27.7890   31.8400 H   0  0  0  0  0  0  0  0  0  0  0  0
   38.8530   26.1120   31.5130 H   0  0  0  0  0  0  0  0  0  0  0  0
   38.1680   26.7090   29.4420 H   0  0  0  0  0  0  0  0  0  0  0  0
   38.7210   28.3520   29.7210 H   0  0  0  0  0  0  0  0  0  0  0  0
   36.0930   27.3440   29.4950 H   0  0  0  0  0  0  0  0  0  0  0  0
   34.9640   28.7740   30.7840 H   0  0  0  0  0  0  0  0  0  0  0  0
   36.4610   29.6650   31.2060 H   0  0  0  0  0  0  0  0  0  0  0  0
   35.3930   27.0500   32.2430 H   0  0  0  0  0  0  0  0  0  0  0  0
   35.7590   28.7420   33.4540 C   0  0  0  0  0  0  0  0  0  0  0  0
   35.9310   28.2860   34.4390 H   0  0  0  0  0  0  0  0  0  0  0  0
   35.4040   29.5440   34.3010 O   0  0  0  0  0  0  0  0  0  0  0  0
  1  6  1  0  0  0  0
  1 13  1  0  0  0  0
  2  1  2  0  0  0  0
  3  4  2  0  0  0  0
  3  2  1  0  0  0  0
  4  5  1  0  0  0  0
  5 15  1  0  0  0  0
  5  6  2  0  0  0  0
  7  3  1  0  0  0  0
  8 17  1  0  0  0  0
  8 16  1  0  0  0  0
  8  7  1  0  0  0  0
  9  8  1  0  0  0  0
 10  9  1  0  0  0  0
 10 11  1  0  0  0  0
 11 22  1  0  0  0  0
 11 12  1  0  0  0  0
 12 23  1  6  0  0  0
 12  7  1  0  0  0  0
 12 24  1  0  0  0  0
 14  2  1  0  0  0  0
 18  9  1  0  0  0  0
 19  9  1  0  0  0  0
 20 10  1  0  0  0  0
 21 11  1  0  0  0  0
 24 26  2  0  0  0  0
 24 25  1  0  0  0  0
M  END
>  <minimizedAffinity>
-3.74573374

$$$$

 OpenBabel03262523413D

 26 27  0  0  1  0  0  0  0  0999 V2000
   34.7750   30.8240   35.1680 C   0  0  0  0  0  0  0  0  0  0  0  0
   35.4820   30.3150   34.0760 C   0  0  0  0  0  0  0  0  0  0  0  0
   34.8120   29.5760   33.0990 C   0  0  0  0  0  0  0  0  0  0  0  0
   33.4800   29.3900   33.2710 N   0  0  0  0  0  0  0  0  0  0  0  0
   32.7980   29.8810   34.3240 C   0  0  0  0  0  0  0  0  0  0  0  0
   33.4430   30.5980   35.2750 N   0  0  0  0  0  0  0  0  0  0  0  0
   35.5240   29.0530   31.9820 N   0  0  0  0  0  0  0  0  0  0  0  0
   35.8060   27.6390   32.0220 C   0  0  0  0  0  0  0  0  0  0  0  0
   36.4020   27.0970   30.7740 C   0  0  0  0  0  0  0  0  0  0  0  0
   36.6200   27.9560   29.7060 N   0  0  0  0  0  0  0  0  0  0  0  0
   36.8610   29.3190   29.9440 C   0  0  0  0  0  0  0  0  0  0  0  0
   35.8990   29.9400   30.9270 C   0  0  2  0  0  0  0  0  0  0  0  0
   35.3350   31.3910   35.9020 H   0  0  0  0  0  0  0  0  0  0  0  0
   36.5430   30.5130   34.0210 H   0  0  0  0  0  0  0  0  0  0  0  0
   31.7250   29.7190   34.4440 H   0  0  0  0  0  0  0  0  0  0  0  0
   36.5300   27.5110   32.8810 H   0  0  0  0  0  0  0  0  0  0  0  0
   34.8870   27.1200   32.3690 H   0  0  0  0  0  0  0  0  0  0  0  0
   35.7040   26.2740   30.4370 H   0  0  0  0  0  0  0  0  0  0  0  0
   37.3450   26.5450   31.0000 H   0  0  0  0  0  0  0  0  0  0  0  0
   35.8980   27.8470   28.9540 H   0  0  0  0  0  0  0  0  0  0  0  0
   36.8190   29.8800   28.9930 H   0  0  0  0  0  0  0  0  0  0  0  0
   37.8950   29.4300   30.3540 H   0  0  0  0  0  0  0  0  0  0  0  0
   34.9770   30.1640   30.3390 H   0  0  0  0  0  0  0  0  0  0  0  0
   36.4580   31.2270   31.4050 C   0  0  0  0  0  0  0  0  0  0  0  0
   36.8970   31.1670   32.4100 H   0  0  0  0  0  0  0  0  0  0  0  0
   36.8810   32.3340   31.6910 O   0  0  0  0  0  0  0  0  0  0  0  0
  1  6  1  0  0  0  0
  1 13  1  0  0  0  0
  2  1  2  0  0  0  0
  3  4  2  0  0  0  0
  3  2  1  0  0  0  0
  4  5  1  0  0  0  0
  5 15  1  0  0  0  0
  5  6  2  0  0  0  0
  7  8  1  0  0  0  0
  7  3  1  0  0  0  0
  8 17  1  0  0  0  0
  8 16  1  0  0  0  0
  9 19  1  0  0  0  0
  9  8  1  0  0  0  0
 10 11  1  0  0  0  0
 10  9  1  0  0  0  0
 11 22  1  0  0  0  0
 11 12  1  0  0  0  0
 12 23  1  6  0  0  0
 12 24  1  0  0  0  0
 12  7  1  0  0  0  0
 14  2  1  0  0  0  0
 18  9  1  0  0  0  0
 20 10  1  0  0  0  0
 21 11  1  0  0  0  0
 24 26  2  0  0  0  0
 24 25  1  0  0  0  0
M  END
>  <minimizedAffinity>
-3.70652604

$$$$

 OpenBabel03262523413D

 26 27  0  0  1  0  0  0  0  0999 V2000
   40.1110   22.6340   37.5450 C   0  0  0  0  0  0  0  0  0  0  0  0
   39.6480   22.4900   36.2350 C   0  0  0  0  0  0  0  0  0  0  0  0
   38.3230   22.8050   35.9290 C   0  0  0  0  0  0  0  0  0  0  0  0
   37.5420   23.2440   36.9460 N   0  0  0  0  0  0  0  0  0  0  0  0
   37.9890   23.3840   38.2100 C   0  0  0  0  0  0  0  0  0  0  0  0
   39.2730   23.0800   38.5130 N   0  0  0  0  0  0  0  0  0  0  0  0
   37.8420   22.6610   34.5960 N   0  0  0  0  0  0  0  0  0  0  0  0
   37.0090   21.5090   34.3500 C   0  0  0  0  0  0  0  0  0  0  0  0
   36.3920   21.4760   32.9990 C   0  0  0  0  0  0  0  0  0  0  0  0
   36.6460   22.5190   32.1200 N   0  0  0  0  0  0  0  0  0  0  0  0
   37.8520   23.2340   32.2120 C   0  0  0  0  0  0  0  0  0  0  0  0
   38.2070   23.6400   33.6220 C   0  0  2  0  0  0  0  0  0  0  0  0
   41.1460   22.3780   37.7380 H   0  0  0  0  0  0  0  0  0  0  0  0
   40.3430   22.1320   35.4880 H   0  0  0  0  0  0  0  0  0  0  0  0
   37.3430   23.7400   39.0150 H   0  0  0  0  0  0  0  0  0  0  0  0
   37.6950   20.6200   34.4810 H   0  0  0  0  0  0  0  0  0  0  0  0
   36.2940   21.4210   35.1960 H   0  0  0  0  0  0  0  0  0  0  0  0
   35.2770   21.4170   33.1760 H   0  0  0  0  0  0  0  0  0  0  0  0
   36.6150   20.5070   32.4930 H   0  0  0  0  0  0  0  0  0  0  0  0
   35.8400   23.1870   32.0510 H   0  0  0  0  0  0  0  0  0  0  0  0
   37.8040   24.1370   31.5770 H   0  0  0  0  0  0  0  0  0  0  0  0
   38.6760   22.5890   31.8190 H   0  0  0  0  0  0  0  0  0  0  0  0
   37.6010   24.5540   33.8290 H   0  0  0  0  0  0  0  0  0  0  0  0
   39.6390   24.0200   33.6700 C   0  0  0  0  0  0  0  0  0  0  0  0
   40.1860   23.5590   34.5040 H   0  0  0  0  0  0  0  0  0  0  0  0
   40.7950   24.4020   33.6100 O   0  0  0  0  0  0  0  0  0  0  0  0
  1 13  1  0  0  0  0
  1  6  1  0  0  0  0
  2  1  2  0  0  0  0
  3  2  1  0  0  0  0
  3  4  2  0  0  0  0
  4  5  1  0  0  0  0
  5  6  2  0  0  0  0
  5 15  1  0  0  0  0
  7  3  1  0  0  0  0
  8 16  1  0  0  0  0
  8  7  1  0  0  0  0
  8 17  1  0  0  0  0
  9 18  1  0  0  0  0
  9  8  1  0  0  0  0
 10 11  1  0  0  0  0
 10  9  1  0  0  0  0
 11 12  1  0  0  0  0
 12 24  1  0  0  0  0
 12 23  1  1  0  0  0
 12  7  1  0  0  0  0
 14  2  1  0  0  0  0
 19  9  1  0  0  0  0
 20 10  1  0  0  0  0
 21 11  1  0  0  0  0
 22 11  1  0  0  0  0
 24 25  1  0  0  0  0
 26 24  2  0  0  0  0
M  END
>  <minimizedAffinity>
-3.64435863

$$$$

 OpenBabel03262523413D

 26 27  0  0  1  0  0  0  0  0999 V2000
   37.3950   24.7670   32.6790 C   0  0  0  0  0  0  0  0  0  0  0  0
   37.2640   23.3840   32.5430 C   0  0  0  0  0  0  0  0  0  0  0  0
   36.2440   22.8590   31.7470 C   0  0  0  0  0  0  0  0  0  0  0  0
   35.4200   23.7430   31.1360 N   0  0  0  0  0  0  0  0  0  0  0  0
   35.5470   25.0790   31.2660 C   0  0  0  0  0  0  0  0  0  0  0  0
   36.5340   25.5940   32.0370 N   0  0  0  0  0  0  0  0  0  0  0  0
   36.1010   21.4490   31.6030 N   0  0  0  0  0  0  0  0  0  0  0  0
   35.0270   20.8460   32.3520 C   0  0  0  0  0  0  0  0  0  0  0  0
   34.8030   19.4070   32.0540 C   0  0  0  0  0  0  0  0  0  0  0  0
   35.6050   18.7850   31.1080 N   0  0  0  0  0  0  0  0  0  0  0  0
   36.9130   19.2480   30.8880 C   0  0  0  0  0  0  0  0  0  0  0  0
   37.0080   20.7480   30.7490 C   0  0  2  0  0  0  0  0  0  0  0  0
   38.2000   25.1310   33.3070 H   0  0  0  0  0  0  0  0  0  0  0  0
   37.9670   22.7520   33.0690 H   0  0  0  0  0  0  0  0  0  0  0  0
   34.8720   25.7760   30.7650 H   0  0  0  0  0  0  0  0  0  0  0  0
   35.3200   20.9720   33.4360 H   0  0  0  0  0  0  0  0  0  0  0  0
   34.1310   21.4940   32.2410 H   0  0  0  0  0  0  0  0  0  0  0  0
   33.7260   19.3310   31.7190 H   0  0  0  0  0  0  0  0  0  0  0  0
   34.8130   18.8090   32.9950 H   0  0  0  0  0  0  0  0  0  0  0  0
   35.1130   18.6580   30.1910 H   0  0  0  0  0  0  0  0  0  0  0  0
   37.3330   18.7740   29.9820 H   0  0  0  0  0  0  0  0  0  0  0  0
   37.5480   18.9390   31.7540 H   0  0  0  0  0  0  0  0  0  0  0  0
   36.7090   20.9680   29.6970 H   0  0  0  0  0  0  0  0  0  0  0  0
   38.4210   21.1610   30.9190 C   0  0  0  0  0  0  0  0  0  0  0  0
   38.5490   22.0190   31.5930 H   0  0  0  0  0  0  0  0  0  0  0  0
   39.6140   21.4100   30.9800 O   0  0  0  0  0  0  0  0  0  0  0  0
  1 13  1  0  0  0  0
  2  1  1  0  0  0  0
  2 14  1  0  0  0  0
  3  2  2  0  0  0  0
  4  5  2  0  0  0  0
  4  3  1  0  0  0  0
  5  6  1  0  0  0  0
  6  1  2  0  0  0  0
  7  3  1  0  0  0  0
  7  8  1  0  0  0  0
  8 16  1  0  0  0  0
  9  8  1  0  0  0  0
  9 19  1  0  0  0  0
 10  9  1  0  0  0  0
 11 10  1  0  0  0  0
 11 22  1  0  0  0  0
 12 23  1  6  0  0  0
 12 11  1  0  0  0  0
 12 24  1  0  0  0  0
 12  7  1  0  0  0  0
 15  5  1  0  0  0  0
 17  8  1  0  0  0  0
 18  9  1  0  0  0  0
 20 10  1  0  0  0  0
 21 11  1  0  0  0  0
 24 26  2  0  0  0  0
 24 25  1  0  0  0  0
M  END
>  <minimizedAffinity>
-3.5999825

$$$$
