
 OpenBabel03272506213D

 22 23  0  0  0  0  0  0  0  0999 V2000
   37.7450   30.4620   50.6990 C   0  0  0  0  0  0  0  0  0  0  0  0
   37.1940   30.6940   49.4050 C   0  0  0  0  0  0  0  0  0  0  0  0
   35.9180   30.2060   49.1910 C   0  0  0  0  0  0  0  0  0  0  0  0
   35.2550   29.5530   50.1610 N   0  0  0  0  0  0  0  0  0  0  0  0
   35.8080   29.3470   51.3870 C   0  0  0  0  0  0  0  0  0  0  0  0
   37.0600   29.8090   51.6480 N   0  0  0  0  0  0  0  0  0  0  0  0
   38.7370   30.8200   50.9280 H   0  0  0  0  0  0  0  0  0  0  0  0
   35.1690   28.8060   52.0860 H   0  0  0  0  0  0  0  0  0  0  0  0
   38.0280   31.4080   48.4650 C   0  0  0  0  0  0  0  0  0  0  0  0
   38.4140   30.7330   47.3370 C   0  0  0  0  0  0  0  0  0  0  0  0
   39.2060   31.2530   46.3350 C   0  0  0  0  0  0  0  0  0  0  0  0
   39.6610   32.5770   46.4650 C   0  0  0  0  0  0  0  0  0  0  0  0
   39.2680   33.2660   47.6140 C   0  0  0  0  0  0  0  0  0  0  0  0
   38.4780   32.7230   48.5970 C   0  0  0  0  0  0  0  0  0  0  0  0
   38.1540   29.6950   47.0750 H   0  0  0  0  0  0  0  0  0  0  0  0
   39.5340   30.7790   45.4460 H   0  0  0  0  0  0  0  0  0  0  0  0
   40.2880   33.1160   45.7590 H   0  0  0  0  0  0  0  0  0  0  0  0
   39.5610   34.2870   47.8140 H   0  0  0  0  0  0  0  0  0  0  0  0
   38.1700   33.2420   49.4820 H   0  0  0  0  0  0  0  0  0  0  0  0
   35.3240   30.4210   47.9120 C   0  0  0  0  0  0  0  0  0  0  0  0
   35.8090   30.6280   46.9750 H   0  0  0  0  0  0  0  0  0  0  0  0
   34.1570   30.4430   47.4680 O   0  0  0  0  0  0  0  0  0  0  0  0
  1  7  1  0  0  0  0
  1  6  1  0  0  0  0
  2  1  2  0  0  0  0
  3  2  1  0  0  0  0
  3  4  2  0  0  0  0
  4  5  1  0  0  0  0
  5  6  2  0  0  0  0
  5  8  1  0  0  0  0
  9 14  1  0  0  0  0
  9  2  1  0  0  0  0
 10  9  2  0  0  0  0
 11 12  2  0  0  0  0
 11 10  1  0  0  0  0
 12 13  1  0  0  0  0
 13 18  1  0  0  0  0
 13 14  2  0  0  0  0
 14 19  1  0  0  0  0
 15 10  1  0  0  0  0
 16 11  1  0  0  0  0
 17 12  1  0  0  0  0
 20  3  1  0  0  0  0
 21 20  1  0  0  0  0
 22 20  2  0  0  0  0
M  END
>  <minimizedAffinity>
-5.12263107

>  <minimizedRMSD>
1.09467149

$$$$
