
 OpenBabel03272509513D

 27 28  0  0  0  0  0  0  0  0999 V2000
   37.9390   22.6150   33.4150 C   0  0  0  0  0  0  0  0  0  0  0  0
   38.2620   23.6470   33.6530 H   0  0  0  0  0  0  0  0  0  0  0  0
   38.8520   22.0850   33.0300 H   0  0  0  0  0  0  0  0  0  0  0  0
   36.8380   22.5400   32.4010 C   0  0  0  0  0  0  0  0  0  0  0  0
   37.1610   21.9910   31.4720 H   0  0  0  0  0  0  0  0  0  0  0  0
   35.9730   21.9590   32.7880 H   0  0  0  0  0  0  0  0  0  0  0  0
   36.3600   23.8910   31.9780 C   0  0  0  0  0  0  0  0  0  0  0  0
   37.0320   24.9730   32.4870 C   0  0  0  0  0  0  0  0  0  0  0  0
   36.6830   26.2680   32.1680 C   0  0  0  0  0  0  0  0  0  0  0  0
   35.6490   26.4650   31.3300 N   0  0  0  0  0  0  0  0  0  0  0  0
   34.9930   25.3970   30.8330 C   0  0  0  0  0  0  0  0  0  0  0  0
   35.3320   24.1310   31.1420 N   0  0  0  0  0  0  0  0  0  0  0  0
   37.8750   24.8780   33.1690 H   0  0  0  0  0  0  0  0  0  0  0  0
   37.1990   27.1350   32.5590 H   0  0  0  0  0  0  0  0  0  0  0  0
   34.1670   25.5950   30.1600 H   0  0  0  0  0  0  0  0  0  0  0  0
   37.5710   21.9430   34.6130 O   0  0  0  0  0  0  0  0  0  0  0  0
   38.0310   23.5140   37.8430 C   0  0  0  0  0  0  0  0  0  0  0  0
   39.3660   23.1360   38.0930 C   0  0  0  0  0  0  0  0  0  0  0  0
   40.0240   22.3720   37.1460 C   0  0  0  0  0  0  0  0  0  0  0  0
   39.3050   22.0450   36.0290 N   0  0  0  0  0  0  0  0  0  0  0  0
   38.0470   22.4090   35.8100 C   0  0  0  0  0  0  0  0  0  0  0  0
   37.4110   23.1490   36.7290 N   0  0  0  0  0  0  0  0  0  0  0  0
   37.5130   24.1180   38.5920 H   0  0  0  0  0  0  0  0  0  0  0  0
   39.9000   23.4080   38.9740 H   0  0  0  0  0  0  0  0  0  0  0  0
   41.4170   21.9350   37.3270 C   0  0  0  0  0  0  0  0  0  0  0  0
   41.9540   22.3750   38.1570 H   0  0  0  0  0  0  0  0  0  0  0  0
   41.8620   21.0930   36.5060 O   0  0  0  0  0  0  0  0  0  0  0  0
  1  2  1  0  0  0  0
  1 16  1  0  0  0  0
  3  1  1  0  0  0  0
  4  6  1  0  0  0  0
  4  1  1  0  0  0  0
  5  4  1  0  0  0  0
  7  4  1  0  0  0  0
  7  8  1  0  0  0  0
  8 13  1  0  0  0  0
  9  8  2  0  0  0  0
  9 14  1  0  0  0  0
 10  9  1  0  0  0  0
 11 12  1  0  0  0  0
 11 10  2  0  0  0  0
 12  7  2  0  0  0  0
 15 11  1  0  0  0  0
 16 21  1  0  0  0  0
 17 18  1  0  0  0  0
 17 23  1  0  0  0  0
 18 24  1  0  0  0  0
 19 25  1  0  0  0  0
 19 18  2  0  0  0  0
 20 19  1  0  0  0  0
 21 20  2  0  0  0  0
 21 22  1  0  0  0  0
 22 17  2  0  0  0  0
 25 26  1  0  0  0  0
 27 25  2  0  0  0  0
M  END
>  <minimizedAffinity>
-4.22455454

$$$$

 OpenBabel03272509513D

 27 28  0  0  0  0  0  0  0  0999 V2000
   37.1980   27.3310   34.5830 C   0  0  0  0  0  0  0  0  0  0  0  0
   36.6880   28.3090   34.6700 H   0  0  0  0  0  0  0  0  0  0  0  0
   36.4250   26.5540   34.8320 H   0  0  0  0  0  0  0  0  0  0  0  0
   38.3850   27.1810   35.4850 C   0  0  0  0  0  0  0  0  0  0  0  0
   39.2890   27.7170   35.0790 H   0  0  0  0  0  0  0  0  0  0  0  0
   38.1990   27.6500   36.4760 H   0  0  0  0  0  0  0  0  0  0  0  0
   38.7690   25.7520   35.6920 C   0  0  0  0  0  0  0  0  0  0  0  0
   37.9190   24.9860   36.4480 C   0  0  0  0  0  0  0  0  0  0  0  0
   38.1670   23.6550   36.7060 C   0  0  0  0  0  0  0  0  0  0  0  0
   39.2810   23.1000   36.1970 N   0  0  0  0  0  0  0  0  0  0  0  0
   40.1130   23.8590   35.4540 C   0  0  0  0  0  0  0  0  0  0  0  0
   39.8730   25.1600   35.1990 N   0  0  0  0  0  0  0  0  0  0  0  0
   37.0020   25.3780   36.8870 H   0  0  0  0  0  0  0  0  0  0  0  0
   37.5100   23.0340   37.3010 H   0  0  0  0  0  0  0  0  0  0  0  0
   41.0000   23.3770   35.0600 H   0  0  0  0  0  0  0  0  0  0  0  0
   37.5620   27.1030   33.2270 O   0  0  0  0  0  0  0  0  0  0  0  0
   35.1820   25.5980   30.9510 C   0  0  0  0  0  0  0  0  0  0  0  0
   35.5170   24.2410   31.1340 C   0  0  0  0  0  0  0  0  0  0  0  0
   36.5300   23.9250   32.0200 C   0  0  0  0  0  0  0  0  0  0  0  0
   37.1290   24.9800   32.6530 N   0  0  0  0  0  0  0  0  0  0  0  0
   36.8010   26.2540   32.4680 C   0  0  0  0  0  0  0  0  0  0  0  0
   35.8180   26.5570   31.6080 N   0  0  0  0  0  0  0  0  0  0  0  0
   34.3800   25.8450   30.2500 H   0  0  0  0  0  0  0  0  0  0  0  0
   35.0300   23.4400   30.6260 H   0  0  0  0  0  0  0  0  0  0  0  0
   36.9430   22.5350   32.2710 C   0  0  0  0  0  0  0  0  0  0  0  0
   36.7480   21.8260   31.4780 H   0  0  0  0  0  0  0  0  0  0  0  0
   37.4840   22.2920   33.3800 O   0  0  0  0  0  0  0  0  0  0  0  0
  1  2  1  0  0  0  0
  1  3  1  0  0  0  0
  1  4  1  0  0  0  0
  4  7  1  0  0  0  0
  4  6  1  0  0  0  0
  5  4  1  0  0  0  0
  7  8  1  0  0  0  0
  8  9  2  0  0  0  0
  8 13  1  0  0  0  0
  9 14  1  0  0  0  0
 10  9  1  0  0  0  0
 11 10  2  0  0  0  0
 12 11  1  0  0  0  0
 12  7  2  0  0  0  0
 15 11  1  0  0  0  0
 16  1  1  0  0  0  0
 17 18  2  0  0  0  0
 17 22  1  0  0  0  0
 18 19  1  0  0  0  0
 19 25  1  0  0  0  0
 19 20  2  0  0  0  0
 21 20  1  0  0  0  0
 21 16  1  0  0  0  0
 22 21  2  0  0  0  0
 23 17  1  0  0  0  0
 24 18  1  0  0  0  0
 25 27  2  0  0  0  0
 26 25  1  0  0  0  0
M  END
>  <minimizedAffinity>
-4.11734056

$$$$

 OpenBabel03272509513D

 27 28  0  0  0  0  0  0  0  0999 V2000
   38.2980   26.4650   34.5970 C   0  0  0  0  0  0  0  0  0  0  0  0
   39.0610   26.7620   35.3420 H   0  0  0  0  0  0  0  0  0  0  0  0
   38.7810   26.5880   33.5900 H   0  0  0  0  0  0  0  0  0  0  0  0
   37.0380   27.2750   34.6630 C   0  0  0  0  0  0  0  0  0  0  0  0
   36.1560   26.6500   34.9810 H   0  0  0  0  0  0  0  0  0  0  0  0
   37.1120   28.0730   35.4330 H   0  0  0  0  0  0  0  0  0  0  0  0
   36.6920   27.9000   33.3510 C   0  0  0  0  0  0  0  0  0  0  0  0
   35.9650   29.0620   33.3910 C   0  0  0  0  0  0  0  0  0  0  0  0
   35.5870   29.7300   32.2460 C   0  0  0  0  0  0  0  0  0  0  0  0
   35.9480   29.2160   31.0560 N   0  0  0  0  0  0  0  0  0  0  0  0
   36.6630   28.0730   31.0240 C   0  0  0  0  0  0  0  0  0  0  0  0
   37.0340   27.4190   32.1410 N   0  0  0  0  0  0  0  0  0  0  0  0
   35.6430   29.5260   34.3230 H   0  0  0  0  0  0  0  0  0  0  0  0
   35.0130   30.6470   32.2560 H   0  0  0  0  0  0  0  0  0  0  0  0
   36.9360   27.6900   30.0470 H   0  0  0  0  0  0  0  0  0  0  0  0
   38.0160   25.0790   34.7320 O   0  0  0  0  0  0  0  0  0  0  0  0
   37.8760   23.7480   38.0970 C   0  0  0  0  0  0  0  0  0  0  0  0
   39.1370   23.1190   38.1460 C   0  0  0  0  0  0  0  0  0  0  0  0
   39.9530   23.1890   37.0320 C   0  0  0  0  0  0  0  0  0  0  0  0
   39.4540   23.8750   35.9600 N   0  0  0  0  0  0  0  0  0  0  0  0
   38.2630   24.4620   35.9290 C   0  0  0  0  0  0  0  0  0  0  0  0
   37.4730   24.3940   37.0110 N   0  0  0  0  0  0  0  0  0  0  0  0
   37.2330   23.6920   38.9780 H   0  0  0  0  0  0  0  0  0  0  0  0
   39.4980   22.5910   38.9980 H   0  0  0  0  0  0  0  0  0  0  0  0
   41.2830   22.5600   36.9990 C   0  0  0  0  0  0  0  0  0  0  0  0
   42.0660   23.1190   36.5050 H   0  0  0  0  0  0  0  0  0  0  0  0
   41.3960   21.4330   37.5470 O   0  0  0  0  0  0  0  0  0  0  0  0
  1  4  1  0  0  0  0
  1 16  1  0  0  0  0
  1  2  1  0  0  0  0
  3  1  1  0  0  0  0
  4  5  1  0  0  0  0
  4  6  1  0  0  0  0
  7  8  1  0  0  0  0
  7  4  1  0  0  0  0
  8 13  1  0  0  0  0
  9 14  1  0  0  0  0
  9  8  2  0  0  0  0
 10  9  1  0  0  0  0
 11 10  2  0  0  0  0
 11 12  1  0  0  0  0
 12  7  2  0  0  0  0
 15 11  1  0  0  0  0
 16 21  1  0  0  0  0
 17 18  1  0  0  0  0
 17 23  1  0  0  0  0
 18 24  1  0  0  0  0
 19 18  2  0  0  0  0
 20 19  1  0  0  0  0
 21 20  2  0  0  0  0
 21 22  1  0  0  0  0
 22 17  2  0  0  0  0
 25 19  1  0  0  0  0
 25 27  2  0  0  0  0
 26 25  1  0  0  0  0
M  END
>  <minimizedAffinity>
-4.08879519

$$$$

 OpenBabel03272509513D

 27 28  0  0  0  0  0  0  0  0999 V2000
   37.8170   22.3080   35.7840 C   0  0  0  0  0  0  0  0  0  0  0  0
   36.8560   22.8560   35.7220 H   0  0  0  0  0  0  0  0  0  0  0  0
   37.5860   21.3310   36.2880 H   0  0  0  0  0  0  0  0  0  0  0  0
   38.8840   23.0370   36.5420 C   0  0  0  0  0  0  0  0  0  0  0  0
   38.6370   23.1190   37.6380 H   0  0  0  0  0  0  0  0  0  0  0  0
   39.8490   22.4870   36.5090 H   0  0  0  0  0  0  0  0  0  0  0  0
   39.1020   24.4240   36.0300 C   0  0  0  0  0  0  0  0  0  0  0  0
   38.2000   25.3780   36.4250 C   0  0  0  0  0  0  0  0  0  0  0  0
   38.2980   26.6920   36.0170 C   0  0  0  0  0  0  0  0  0  0  0  0
   39.3140   27.0370   35.2060 N   0  0  0  0  0  0  0  0  0  0  0  0
   40.1970   26.0930   34.8210 C   0  0  0  0  0  0  0  0  0  0  0  0
   40.1050   24.8100   35.2190 N   0  0  0  0  0  0  0  0  0  0  0  0
   37.3570   25.1610   37.0800 H   0  0  0  0  0  0  0  0  0  0  0  0
   37.5970   27.4600   36.3170 H   0  0  0  0  0  0  0  0  0  0  0  0
   41.0030   26.4090   34.1680 H   0  0  0  0  0  0  0  0  0  0  0  0
   38.2610   21.9790   34.4740 O   0  0  0  0  0  0  0  0  0  0  0  0
   36.6500   23.4510   31.5850 C   0  0  0  0  0  0  0  0  0  0  0  0
   35.6440   22.4880   31.3680 C   0  0  0  0  0  0  0  0  0  0  0  0
   35.5790   21.4000   32.2190 C   0  0  0  0  0  0  0  0  0  0  0  0
   36.5150   21.3550   33.2150 N   0  0  0  0  0  0  0  0  0  0  0  0
   37.4570   22.2720   33.4050 C   0  0  0  0  0  0  0  0  0  0  0  0
   37.5190   23.3250   32.5790 N   0  0  0  0  0  0  0  0  0  0  0  0
   36.7010   24.3100   30.9110 H   0  0  0  0  0  0  0  0  0  0  0  0
   34.9280   22.5510   30.5820 H   0  0  0  0  0  0  0  0  0  0  0  0
   34.5600   20.3490   32.0650 C   0  0  0  0  0  0  0  0  0  0  0  0
   33.5350   20.6830   31.9770 H   0  0  0  0  0  0  0  0  0  0  0  0
   34.9670   19.1580   32.0470 O   0  0  0  0  0  0  0  0  0  0  0  0
  1  3  1  0  0  0  0
  1  4  1  0  0  0  0
  2  1  1  0  0  0  0
  4  5  1  0  0  0  0
  6  4  1  0  0  0  0
  7  8  1  0  0  0  0
  7  4  1  0  0  0  0
  8 13  1  0  0  0  0
  9 14  1  0  0  0  0
  9  8  2  0  0  0  0
 10  9  1  0  0  0  0
 11 10  2  0  0  0  0
 11 12  1  0  0  0  0
 12  7  2  0  0  0  0
 15 11  1  0  0  0  0
 16  1  1  0  0  0  0
 17 22  1  0  0  0  0
 18 17  2  0  0  0  0
 18 19  1  0  0  0  0
 19 20  2  0  0  0  0
 20 21  1  0  0  0  0
 21 16  1  0  0  0  0
 22 21  2  0  0  0  0
 23 17  1  0  0  0  0
 24 18  1  0  0  0  0
 25 19  1  0  0  0  0
 26 25  1  0  0  0  0
 27 25  2  0  0  0  0
M  END
>  <minimizedAffinity>
-4.05213642

$$$$

 OpenBabel03272509513D

 27 28  0  0  0  0  0  0  0  0999 V2000
   38.9570   23.9390   33.6550 C   0  0  0  0  0  0  0  0  0  0  0  0
   38.8060   23.8500   32.5620 H   0  0  0  0  0  0  0  0  0  0  0  0
   40.0680   23.9120   33.8180 H   0  0  0  0  0  0  0  0  0  0  0  0
   38.2960   22.8540   34.4500 C   0  0  0  0  0  0  0  0  0  0  0  0
   37.1840   22.8210   34.2690 H   0  0  0  0  0  0  0  0  0  0  0  0
   38.6630   21.8500   34.1450 H   0  0  0  0  0  0  0  0  0  0  0  0
   38.5030   23.0180   35.9210 C   0  0  0  0  0  0  0  0  0  0  0  0
   39.7250   22.6450   36.4190 C   0  0  0  0  0  0  0  0  0  0  0  0
   40.0330   22.7510   37.7590 C   0  0  0  0  0  0  0  0  0  0  0  0
   39.0970   23.2350   38.5950 N   0  0  0  0  0  0  0  0  0  0  0  0
   37.8980   23.6000   38.0980 C   0  0  0  0  0  0  0  0  0  0  0  0
   37.5940   23.4990   36.7900 N   0  0  0  0  0  0  0  0  0  0  0  0
   40.5220   22.2460   35.7930 H   0  0  0  0  0  0  0  0  0  0  0  0
   40.9900   22.4620   38.1720 H   0  0  0  0  0  0  0  0  0  0  0  0
   37.1700   23.9870   38.8030 H   0  0  0  0  0  0  0  0  0  0  0  0
   38.5250   25.2210   34.0920 O   0  0  0  0  0  0  0  0  0  0  0  0
   37.4200   27.9970   32.0460 C   0  0  0  0  0  0  0  0  0  0  0  0
   36.3870   27.3560   31.3300 C   0  0  0  0  0  0  0  0  0  0  0  0
   36.1340   26.0220   31.5910 C   0  0  0  0  0  0  0  0  0  0  0  0
   36.9240   25.4310   32.5380 N   0  0  0  0  0  0  0  0  0  0  0  0
   37.8930   26.0490   33.2030 C   0  0  0  0  0  0  0  0  0  0  0  0
   38.1370   27.3430   32.9490 N   0  0  0  0  0  0  0  0  0  0  0  0
   37.6180   29.0510   31.8390 H   0  0  0  0  0  0  0  0  0  0  0  0
   35.7880   27.8450   30.5970 H   0  0  0  0  0  0  0  0  0  0  0  0
   35.0750   25.2780   30.8890 C   0  0  0  0  0  0  0  0  0  0  0  0
   34.2870   25.8700   30.4440 H   0  0  0  0  0  0  0  0  0  0  0  0
   35.1770   24.0250   30.8680 O   0  0  0  0  0  0  0  0  0  0  0  0
  1  3  1  0  0  0  0
  1 16  1  0  0  0  0
  1  4  1  0  0  0  0
  2  1  1  0  0  0  0
  4  7  1  0  0  0  0
  5  4  1  0  0  0  0
  6  4  1  0  0  0  0
  7  8  2  0  0  0  0
  7 12  1  0  0  0  0
  8  9  1  0  0  0  0
  9 14  1  0  0  0  0
  9 10  2  0  0  0  0
 11 10  1  0  0  0  0
 11 15  1  0  0  0  0
 12 11  2  0  0  0  0
 13  8  1  0  0  0  0
 17 22  1  0  0  0  0
 18 19  1  0  0  0  0
 18 17  2  0  0  0  0
 19 20  2  0  0  0  0
 20 21  1  0  0  0  0
 21 16  1  0  0  0  0
 22 21  2  0  0  0  0
 23 17  1  0  0  0  0
 24 18  1  0  0  0  0
 25 19  1  0  0  0  0
 26 25  1  0  0  0  0
 27 25  2  0  0  0  0
M  END
>  <minimizedAffinity>
-4.04717875

$$$$

 OpenBabel03272509513D

 27 28  0  0  0  0  0  0  0  0999 V2000
   37.9410   22.2560   35.6210 C   0  0  0  0  0  0  0  0  0  0  0  0
   36.9880   22.8170   35.5820 H   0  0  0  0  0  0  0  0  0  0  0  0
   37.7130   21.2920   36.1520 H   0  0  0  0  0  0  0  0  0  0  0  0
   39.0460   22.9810   36.3280 C   0  0  0  0  0  0  0  0  0  0  0  0
   38.9600   22.8840   37.4470 H   0  0  0  0  0  0  0  0  0  0  0  0
   40.0380   22.5440   36.0810 H   0  0  0  0  0  0  0  0  0  0  0  0
   39.0670   24.4400   36.0070 C   0  0  0  0  0  0  0  0  0  0  0  0
   40.0620   24.8750   35.1680 C   0  0  0  0  0  0  0  0  0  0  0  0
   40.1830   26.1980   34.8000 C   0  0  0  0  0  0  0  0  0  0  0  0
   39.2920   27.0820   35.2850 N   0  0  0  0  0  0  0  0  0  0  0  0
   38.3170   26.6480   36.1090 C   0  0  0  0  0  0  0  0  0  0  0  0
   38.1960   25.3560   36.4700 N   0  0  0  0  0  0  0  0  0  0  0  0
   40.8110   24.2080   34.7440 H   0  0  0  0  0  0  0  0  0  0  0  0
   40.9600   26.5610   34.1410 H   0  0  0  0  0  0  0  0  0  0  0  0
   37.6180   27.3890   36.4790 H   0  0  0  0  0  0  0  0  0  0  0  0
   38.3350   21.8950   34.3040 O   0  0  0  0  0  0  0  0  0  0  0  0
   35.7820   20.8050   31.9780 C   0  0  0  0  0  0  0  0  0  0  0  0
   35.5460   22.0230   31.3100 C   0  0  0  0  0  0  0  0  0  0  0  0
   36.2710   23.1370   31.6940 C   0  0  0  0  0  0  0  0  0  0  0  0
   37.1700   22.9530   32.7080 N   0  0  0  0  0  0  0  0  0  0  0  0
   37.3800   21.7970   33.3270 C   0  0  0  0  0  0  0  0  0  0  0  0
   36.6760   20.7190   32.9540 N   0  0  0  0  0  0  0  0  0  0  0  0
   35.2080   19.9260   31.6740 H   0  0  0  0  0  0  0  0  0  0  0  0
   34.8370   22.1350   30.5220 H   0  0  0  0  0  0  0  0  0  0  0  0
   36.0870   24.4470   31.0490 C   0  0  0  0  0  0  0  0  0  0  0  0
   36.9760   24.9140   30.6480 H   0  0  0  0  0  0  0  0  0  0  0  0
   34.9170   24.9090   31.0190 O   0  0  0  0  0  0  0  0  0  0  0  0
  1  3  1  0  0  0  0
  1  4  1  0  0  0  0
  2  1  1  0  0  0  0
  4  5  1  0  0  0  0
  6  4  1  0  0  0  0
  7  4  1  0  0  0  0
  7 12  1  0  0  0  0
  8  7  2  0  0  0  0
  9  8  1  0  0  0  0
  9 10  2  0  0  0  0
 10 11  1  0  0  0  0
 11 12  2  0  0  0  0
 11 15  1  0  0  0  0
 13  8  1  0  0  0  0
 14  9  1  0  0  0  0
 16  1  1  0  0  0  0
 17 22  1  0  0  0  0
 18 19  1  0  0  0  0
 18 17  2  0  0  0  0
 19 20  2  0  0  0  0
 20 21  1  0  0  0  0
 21 16  1  0  0  0  0
 22 21  2  0  0  0  0
 23 17  1  0  0  0  0
 24 18  1  0  0  0  0
 25 19  1  0  0  0  0
 26 25  1  0  0  0  0
 27 25  2  0  0  0  0
M  END
>  <minimizedAffinity>
-4.0407691

$$$$

 OpenBabel03272509513D

 27 28  0  0  0  0  0  0  0  0999 V2000
   37.8490   27.6000   35.5190 C   0  0  0  0  0  0  0  0  0  0  0  0
   38.1440   28.6510   35.3370 H   0  0  0  0  0  0  0  0  0  0  0  0
   37.3650   27.5840   36.5330 H   0  0  0  0  0  0  0  0  0  0  0  0
   38.9920   26.6320   35.4810 C   0  0  0  0  0  0  0  0  0  0  0  0
   39.5540   26.6860   34.5060 H   0  0  0  0  0  0  0  0  0  0  0  0
   39.7500   26.8720   36.2580 H   0  0  0  0  0  0  0  0  0  0  0  0
   38.5480   25.2170   35.6610 C   0  0  0  0  0  0  0  0  0  0  0  0
   38.0860   24.8670   36.9040 C   0  0  0  0  0  0  0  0  0  0  0  0
   37.6490   23.5900   37.1900 C   0  0  0  0  0  0  0  0  0  0  0  0
   37.6810   22.6680   36.2120 N   0  0  0  0  0  0  0  0  0  0  0  0
   38.1360   23.0190   34.9920 C   0  0  0  0  0  0  0  0  0  0  0  0
   38.5630   24.2650   34.7090 N   0  0  0  0  0  0  0  0  0  0  0  0
   38.0360   25.5680   37.7360 H   0  0  0  0  0  0  0  0  0  0  0  0
   37.2820   23.2940   38.1640 H   0  0  0  0  0  0  0  0  0  0  0  0
   38.1460   22.2490   34.2290 H   0  0  0  0  0  0  0  0  0  0  0  0
   36.8370   27.2240   34.5940 O   0  0  0  0  0  0  0  0  0  0  0  0
   37.3260   28.5060   31.2430 C   0  0  0  0  0  0  0  0  0  0  0  0
   36.2280   29.3860   31.1720 C   0  0  0  0  0  0  0  0  0  0  0  0
   35.3920   29.4880   32.2690 C   0  0  0  0  0  0  0  0  0  0  0  0
   35.7120   28.7090   33.3470 N   0  0  0  0  0  0  0  0  0  0  0  0
   36.7510   27.8830   33.3960 C   0  0  0  0  0  0  0  0  0  0  0  0
   37.5600   27.7860   32.3310 N   0  0  0  0  0  0  0  0  0  0  0  0
   37.9850   28.4270   30.3750 H   0  0  0  0  0  0  0  0  0  0  0  0
   36.0050   29.9820   30.3170 H   0  0  0  0  0  0  0  0  0  0  0  0
   34.2240   30.3830   32.2800 C   0  0  0  0  0  0  0  0  0  0  0  0
   33.7080   30.4870   33.2240 H   0  0  0  0  0  0  0  0  0  0  0  0
   33.9290   30.9480   31.1960 O   0  0  0  0  0  0  0  0  0  0  0  0
  1  3  1  0  0  0  0
  2  1  1  0  0  0  0
  4  1  1  0  0  0  0
  4  7  1  0  0  0  0
  4  6  1  0  0  0  0
  5  4  1  0  0  0  0
  7  8  1  0  0  0  0
  8  9  2  0  0  0  0
  8 13  1  0  0  0  0
  9 14  1  0  0  0  0
 10  9  1  0  0  0  0
 11 10  2  0  0  0  0
 12 11  1  0  0  0  0
 12  7  2  0  0  0  0
 15 11  1  0  0  0  0
 16  1  1  0  0  0  0
 17 22  1  0  0  0  0
 18 17  2  0  0  0  0
 18 19  1  0  0  0  0
 19 25  1  0  0  0  0
 19 20  2  0  0  0  0
 20 21  1  0  0  0  0
 21 16  1  0  0  0  0
 22 21  2  0  0  0  0
 23 17  1  0  0  0  0
 24 18  1  0  0  0  0
 25 26  1  0  0  0  0
 27 25  2  0  0  0  0
M  END
>  <minimizedAffinity>
-3.96382642

$$$$

 OpenBabel03272509513D

 27 28  0  0  0  0  0  0  0  0999 V2000
   36.4450   28.1610   34.0760 C   0  0  0  0  0  0  0  0  0  0  0  0
   36.9740   28.2400   35.0450 H   0  0  0  0  0  0  0  0  0  0  0  0
   35.5640   27.4880   34.2570 H   0  0  0  0  0  0  0  0  0  0  0  0
   37.2890   27.6140   32.9650 C   0  0  0  0  0  0  0  0  0  0  0  0
   37.4260   28.3640   32.1360 H   0  0  0  0  0  0  0  0  0  0  0  0
   38.3190   27.3870   33.3160 H   0  0  0  0  0  0  0  0  0  0  0  0
   36.7030   26.3810   32.3580 C   0  0  0  0  0  0  0  0  0  0  0  0
   35.6800   26.5580   31.4610 C   0  0  0  0  0  0  0  0  0  0  0  0
   35.0620   25.4960   30.8360 C   0  0  0  0  0  0  0  0  0  0  0  0
   35.4820   24.2510   31.1230 N   0  0  0  0  0  0  0  0  0  0  0  0
   36.4880   24.0840   32.0050 C   0  0  0  0  0  0  0  0  0  0  0  0
   37.0950   25.1190   32.6160 N   0  0  0  0  0  0  0  0  0  0  0  0
   35.2960   27.5400   31.1890 H   0  0  0  0  0  0  0  0  0  0  0  0
   34.2530   25.6140   30.1270 H   0  0  0  0  0  0  0  0  0  0  0  0
   36.8000   23.0660   32.2100 H   0  0  0  0  0  0  0  0  0  0  0  0
   35.9050   29.4280   33.7240 O   0  0  0  0  0  0  0  0  0  0  0  0
   35.3060   31.7460   36.4410 C   0  0  0  0  0  0  0  0  0  0  0  0
   33.9040   31.6270   36.5370 C   0  0  0  0  0  0  0  0  0  0  0  0
   33.2540   30.7670   35.6720 C   0  0  0  0  0  0  0  0  0  0  0  0
   34.0450   30.0930   34.7820 N   0  0  0  0  0  0  0  0  0  0  0  0
   35.3650   30.2170   34.7040 C   0  0  0  0  0  0  0  0  0  0  0  0
   35.9930   31.0520   35.5440 N   0  0  0  0  0  0  0  0  0  0  0  0
   35.8180   32.4260   37.1260 H   0  0  0  0  0  0  0  0  0  0  0  0
   33.3150   32.1660   37.2430 H   0  0  0  0  0  0  0  0  0  0  0  0
   31.7940   30.5830   35.7050 C   0  0  0  0  0  0  0  0  0  0  0  0
   31.3290   30.2680   34.7810 H   0  0  0  0  0  0  0  0  0  0  0  0
   31.2160   30.8070   36.8000 O   0  0  0  0  0  0  0  0  0  0  0  0
  1  3  1  0  0  0  0
  1  2  1  0  0  0  0
  4  6  1  0  0  0  0
  4  1  1  0  0  0  0
  5  4  1  0  0  0  0
  7 12  1  0  0  0  0
  7  4  1  0  0  0  0
  8  7  2  0  0  0  0
  9 10  2  0  0  0  0
  9  8  1  0  0  0  0
 10 11  1  0  0  0  0
 11 15  1  0  0  0  0
 11 12  2  0  0  0  0
 13  8  1  0  0  0  0
 14  9  1  0  0  0  0
 16  1  1  0  0  0  0
 16 21  1  0  0  0  0
 17 18  1  0  0  0  0
 17 23  1  0  0  0  0
 18 24  1  0  0  0  0
 19 25  1  0  0  0  0
 19 18  2  0  0  0  0
 20 19  1  0  0  0  0
 21 20  2  0  0  0  0
 21 22  1  0  0  0  0
 22 17  2  0  0  0  0
 25 27  2  0  0  0  0
 26 25  1  0  0  0  0
M  END
>  <minimizedAffinity>
-3.93833208

$$$$

 OpenBabel03272509513D

 27 28  0  0  0  0  0  0  0  0999 V2000
   37.3730   21.7060   34.0370 C   0  0  0  0  0  0  0  0  0  0  0  0
   38.2670   21.0770   33.8590 H   0  0  0  0  0  0  0  0  0  0  0  0
   36.8260   21.2330   34.8970 H   0  0  0  0  0  0  0  0  0  0  0  0
   36.4640   21.8210   32.8510 C   0  0  0  0  0  0  0  0  0  0  0  0
   35.4010   22.0300   33.1580 H   0  0  0  0  0  0  0  0  0  0  0  0
   36.7480   22.6820   32.2080 H   0  0  0  0  0  0  0  0  0  0  0  0
   36.4520   20.5800   32.0200 C   0  0  0  0  0  0  0  0  0  0  0  0
   35.9920   19.4370   32.6210 C   0  0  0  0  0  0  0  0  0  0  0  0
   35.9330   18.2310   31.9540 C   0  0  0  0  0  0  0  0  0  0  0  0
   36.3430   18.1860   30.6740 N   0  0  0  0  0  0  0  0  0  0  0  0
   36.7950   19.3140   30.0890 C   0  0  0  0  0  0  0  0  0  0  0  0
   36.8520   20.4930   30.7370 N   0  0  0  0  0  0  0  0  0  0  0  0
   35.6460   19.4090   33.6530 H   0  0  0  0  0  0  0  0  0  0  0  0
   35.5730   17.3180   32.4100 H   0  0  0  0  0  0  0  0  0  0  0  0
   37.1160   19.2390   29.0560 H   0  0  0  0  0  0  0  0  0  0  0  0
   37.7790   22.9920   34.4900 O   0  0  0  0  0  0  0  0  0  0  0  0
   38.0690   23.8660   37.9910 C   0  0  0  0  0  0  0  0  0  0  0  0
   39.2810   23.2120   38.2910 C   0  0  0  0  0  0  0  0  0  0  0  0
   39.9220   22.5160   37.2820 C   0  0  0  0  0  0  0  0  0  0  0  0
   39.3090   22.5250   36.0590 N   0  0  0  0  0  0  0  0  0  0  0  0
   38.1660   23.1460   35.7940 C   0  0  0  0  0  0  0  0  0  0  0  0
   37.5470   23.8200   36.7740 N   0  0  0  0  0  0  0  0  0  0  0  0
   37.5640   24.4160   38.7900 H   0  0  0  0  0  0  0  0  0  0  0  0
   39.7340   23.2240   39.2560 H   0  0  0  0  0  0  0  0  0  0  0  0
   41.1910   21.8060   37.5090 C   0  0  0  0  0  0  0  0  0  0  0  0
   41.1810   21.0370   38.2700 H   0  0  0  0  0  0  0  0  0  0  0  0
   42.1720   22.1510   36.8020 O   0  0  0  0  0  0  0  0  0  0  0  0
  1 16  1  0  0  0  0
  1  3  1  0  0  0  0
  2  1  1  0  0  0  0
  4  5  1  0  0  0  0
  4  1  1  0  0  0  0
  6  4  1  0  0  0  0
  7  8  1  0  0  0  0
  7  4  1  0  0  0  0
  8 13  1  0  0  0  0
  9 14  1  0  0  0  0
  9  8  2  0  0  0  0
 10  9  1  0  0  0  0
 11 10  2  0  0  0  0
 11 12  1  0  0  0  0
 12  7  2  0  0  0  0
 15 11  1  0  0  0  0
 16 21  1  0  0  0  0
 17 18  1  0  0  0  0
 17 23  1  0  0  0  0
 18 24  1  0  0  0  0
 19 25  1  0  0  0  0
 19 18  2  0  0  0  0
 20 19  1  0  0  0  0
 21 20  2  0  0  0  0
 21 22  1  0  0  0  0
 22 17  2  0  0  0  0
 25 26  1  0  0  0  0
 27 25  2  0  0  0  0
M  END
>  <minimizedAffinity>
-3.93233871

$$$$
