
 OpenBabel03272504363D

 37 39  0  0  0  0  0  0  0  0999 V2000
   36.6340   22.1900   32.1170 C   0  0  0  0  0  0  0  0  0  0  0  0
   36.4900   23.4430   31.5390 C   0  0  0  0  0  0  0  0  0  0  0  0
   37.0770   24.5520   32.1310 C   0  0  0  0  0  0  0  0  0  0  0  0
   37.7830   24.3450   33.2790 N   0  0  0  0  0  0  0  0  0  0  0  0
   37.9100   23.1090   33.8270 C   0  0  0  0  0  0  0  0  0  0  0  0
   37.3400   22.0240   33.2550 N   0  0  0  0  0  0  0  0  0  0  0  0
   35.9270   23.5310   30.6440 H   0  0  0  0  0  0  0  0  0  0  0  0
   36.9890   25.5330   31.7140 H   0  0  0  0  0  0  0  0  0  0  0  0
   36.0530   21.0200   31.5500 N   0  0  0  0  0  0  0  0  0  0  0  0
   34.8670   20.3870   32.1150 C   0  0  0  0  0  0  0  0  0  0  0  0
   34.9380   18.8980   32.2020 C   0  0  0  0  0  0  0  0  0  0  0  0
   35.7050   18.2300   31.2360 N   0  0  0  0  0  0  0  0  0  0  0  0
   36.9380   18.9310   30.9090 C   0  0  0  0  0  0  0  0  0  0  0  0
   36.4880   20.3030   30.4100 C   0  0  0  0  0  0  0  0  0  0  0  0
   34.7060   20.8540   33.1200 H   0  0  0  0  0  0  0  0  0  0  0  0
   34.0070   20.6990   31.4830 H   0  0  0  0  0  0  0  0  0  0  0  0
   33.9080   18.4980   32.2330 H   0  0  0  0  0  0  0  0  0  0  0  0
   35.3640   18.6630   33.2210 H   0  0  0  0  0  0  0  0  0  0  0  0
   35.1720   18.1270   30.3450 H   0  0  0  0  0  0  0  0  0  0  0  0
   37.5090   19.0090   31.8650 H   0  0  0  0  0  0  0  0  0  0  0  0
   37.4730   18.3540   30.1430 H   0  0  0  0  0  0  0  0  0  0  0  0
   35.7200   20.1070   29.6540 H   0  0  0  0  0  0  0  0  0  0  0  0
   37.3730   20.7760   29.9440 H   0  0  0  0  0  0  0  0  0  0  0  0
   38.6770   22.9400   35.0610 C   0  0  0  0  0  0  0  0  0  0  0  0
   39.9010   22.3090   35.0350 C   0  0  0  0  0  0  0  0  0  0  0  0
   40.6510   22.1320   36.1750 C   0  0  0  0  0  0  0  0  0  0  0  0
   40.1080   22.6200   37.3360 N   0  0  0  0  0  0  0  0  0  0  0  0
   38.9200   23.2280   37.3370 C   0  0  0  0  0  0  0  0  0  0  0  0
   38.1600   23.4140   36.2140 N   0  0  0  0  0  0  0  0  0  0  0  0
   40.2770   21.9460   34.0960 H   0  0  0  0  0  0  0  0  0  0  0  0
   38.3770   23.7390   38.6140 C   0  0  0  0  0  0  0  0  0  0  0  0
   39.3410   23.7680   39.6030 F   0  0  0  0  0  0  0  0  0  0  0  0
   37.3450   22.8730   39.0280 F   0  0  0  0  0  0  0  0  0  0  0  0
   37.7820   24.9580   38.4190 F   0  0  0  0  0  0  0  0  0  0  0  0
   41.9360   21.4750   36.1800 C   0  0  0  0  0  0  0  0  0  0  0  0
   42.5470   21.5110   35.2970 H   0  0  0  0  0  0  0  0  0  0  0  0
   42.3600   20.8660   37.1770 O   0  0  0  0  0  0  0  0  0  0  0  0
  1  6  1  0  0  0  0
  2  1  2  0  0  0  0
  2  3  1  0  0  0  0
  3  4  2  0  0  0  0
  4  5  1  0  0  0  0
  5 24  1  0  0  0  0
  6  5  2  0  0  0  0
  7  2  1  0  0  0  0
  8  3  1  0  0  0  0
  9 10  1  0  0  0  0
  9  1  1  0  0  0  0
 10 11  1  0  0  0  0
 10 15  1  0  0  0  0
 11 17  1  0  0  0  0
 11 18  1  0  0  0  0
 12 11  1  0  0  0  0
 13 12  1  0  0  0  0
 13 20  1  0  0  0  0
 14 13  1  0  0  0  0
 14  9  1  0  0  0  0
 16 10  1  0  0  0  0
 19 12  1  0  0  0  0
 21 13  1  0  0  0  0
 22 14  1  0  0  0  0
 23 14  1  0  0  0  0
 24 29  1  0  0  0  0
 25 24  2  0  0  0  0
 25 26  1  0  0  0  0
 26 35  1  0  0  0  0
 26 27  2  0  0  0  0
 27 28  1  0  0  0  0
 28 31  1  0  0  0  0
 29 28  2  0  0  0  0
 30 25  1  0  0  0  0
 31 33  1  0  0  0  0
 31 32  1  0  0  0  0
 34 31  1  0  0  0  0
 35 37  2  0  0  0  0
 36 35  1  0  0  0  0
M  END
>  <minimizedAffinity>
-6.00379562

$$$$

 OpenBabel03272504363D

 37 39  0  0  0  0  0  0  0  0999 V2000
   38.1730   24.4000   34.8220 C   0  0  0  0  0  0  0  0  0  0  0  0
   38.0120   23.3580   33.9200 C   0  0  0  0  0  0  0  0  0  0  0  0
   37.4670   23.6030   32.6680 C   0  0  0  0  0  0  0  0  0  0  0  0
   37.1090   24.8870   32.3850 N   0  0  0  0  0  0  0  0  0  0  0  0
   37.2750   25.8910   33.2840 C   0  0  0  0  0  0  0  0  0  0  0  0
   37.8060   25.6600   34.5060 N   0  0  0  0  0  0  0  0  0  0  0  0
   38.3130   22.3830   34.2070 H   0  0  0  0  0  0  0  0  0  0  0  0
   37.3280   22.8260   31.9460 H   0  0  0  0  0  0  0  0  0  0  0  0
   38.7280   24.2030   36.1190 N   0  0  0  0  0  0  0  0  0  0  0  0
   40.0010   23.5240   36.3270 C   0  0  0  0  0  0  0  0  0  0  0  0
   40.0040   22.5400   37.4500 C   0  0  0  0  0  0  0  0  0  0  0  0
   39.1520   22.7930   38.5350 N   0  0  0  0  0  0  0  0  0  0  0  0
   37.8590   23.3220   38.1260 C   0  0  0  0  0  0  0  0  0  0  0  0
   38.1840   24.6050   37.3630 C   0  0  0  0  0  0  0  0  0  0  0  0
   40.2660   23.0420   35.3530 H   0  0  0  0  0  0  0  0  0  0  0  0
   40.7610   24.3170   36.5030 H   0  0  0  0  0  0  0  0  0  0  0  0
   41.0470   22.4010   37.7930 H   0  0  0  0  0  0  0  0  0  0  0  0
   39.7200   21.5450   36.9980 H   0  0  0  0  0  0  0  0  0  0  0  0
   39.5730   23.4950   39.1820 H   0  0  0  0  0  0  0  0  0  0  0  0
   37.4090   22.5490   37.4570 H   0  0  0  0  0  0  0  0  0  0  0  0
   37.2560   23.5030   39.0270 H   0  0  0  0  0  0  0  0  0  0  0  0
   38.8590   25.1740   38.0110 H   0  0  0  0  0  0  0  0  0  0  0  0
   37.2280   25.1470   37.2340 H   0  0  0  0  0  0  0  0  0  0  0  0
   36.8740   27.2530   32.9320 C   0  0  0  0  0  0  0  0  0  0  0  0
   37.0630   27.7210   31.6500 C   0  0  0  0  0  0  0  0  0  0  0  0
   36.6980   28.9960   31.2820 C   0  0  0  0  0  0  0  0  0  0  0  0
   36.1360   29.7700   32.2640 N   0  0  0  0  0  0  0  0  0  0  0  0
   35.9620   29.2950   33.4990 C   0  0  0  0  0  0  0  0  0  0  0  0
   36.3190   28.0310   33.8840 N   0  0  0  0  0  0  0  0  0  0  0  0
   37.5080   27.0700   30.9210 H   0  0  0  0  0  0  0  0  0  0  0  0
   35.3510   30.1690   34.5240 C   0  0  0  0  0  0  0  0  0  0  0  0
   34.1470   29.6620   34.9730 F   0  0  0  0  0  0  0  0  0  0  0  0
   35.1100   31.4270   33.9390 F   0  0  0  0  0  0  0  0  0  0  0  0
   36.2420   30.3960   35.5410 F   0  0  0  0  0  0  0  0  0  0  0  0
   36.8840   29.5150   29.9480 C   0  0  0  0  0  0  0  0  0  0  0  0
   36.7300   30.5630   29.7670 H   0  0  0  0  0  0  0  0  0  0  0  0
   37.2160   28.7850   28.9980 O   0  0  0  0  0  0  0  0  0  0  0  0
  1  9  1  0  0  0  0
  2  7  1  0  0  0  0
  2  1  2  0  0  0  0
  3  2  1  0  0  0  0
  4  3  2  0  0  0  0
  4  5  1  0  0  0  0
  5  6  2  0  0  0  0
  6  1  1  0  0  0  0
  8  3  1  0  0  0  0
  9 10  1  0  0  0  0
  9 14  1  0  0  0  0
 10 16  1  0  0  0  0
 10 11  1  0  0  0  0
 11 17  1  0  0  0  0
 11 12  1  0  0  0  0
 12 19  1  0  0  0  0
 13 12  1  0  0  0  0
 13 21  1  0  0  0  0
 14 22  1  0  0  0  0
 14 13  1  0  0  0  0
 15 10  1  0  0  0  0
 18 11  1  0  0  0  0
 20 13  1  0  0  0  0
 23 14  1  0  0  0  0
 24  5  1  0  0  0  0
 24 29  1  0  0  0  0
 25 24  2  0  0  0  0
 26 25  1  0  0  0  0
 26 27  2  0  0  0  0
 27 28  1  0  0  0  0
 28 29  2  0  0  0  0
 28 31  1  0  0  0  0
 30 25  1  0  0  0  0
 31 32  1  0  0  0  0
 31 34  1  0  0  0  0
 33 31  1  0  0  0  0
 35 26  1  0  0  0  0
 36 35  1  0  0  0  0
 37 35  2  0  0  0  0
M  END
>  <minimizedAffinity>
-5.93629169

$$$$

 OpenBabel03272504363D

 37 39  0  0  0  0  0  0  0  0999 V2000
   37.0380   24.3460   32.0360 C   0  0  0  0  0  0  0  0  0  0  0  0
   36.3930   23.2560   31.4700 C   0  0  0  0  0  0  0  0  0  0  0  0
   36.4820   22.0090   32.0700 C   0  0  0  0  0  0  0  0  0  0  0  0
   37.2180   21.9190   33.2140 N   0  0  0  0  0  0  0  0  0  0  0  0
   37.8420   23.0000   33.7500 C   0  0  0  0  0  0  0  0  0  0  0  0
   37.7590   24.2190   33.1700 N   0  0  0  0  0  0  0  0  0  0  0  0
   35.8370   23.3990   30.5780 H   0  0  0  0  0  0  0  0  0  0  0  0
   35.9980   21.1460   31.6640 H   0  0  0  0  0  0  0  0  0  0  0  0
   36.9790   25.6480   31.4610 N   0  0  0  0  0  0  0  0  0  0  0  0
   38.1590   26.3210   30.9320 C   0  0  0  0  0  0  0  0  0  0  0  0
   38.2740   27.7610   31.3090 C   0  0  0  0  0  0  0  0  0  0  0  0
   37.0840   28.4750   31.5100 N   0  0  0  0  0  0  0  0  0  0  0  0
   36.0660   27.6930   32.1970 C   0  0  0  0  0  0  0  0  0  0  0  0
   35.8400   26.4740   31.3050 C   0  0  0  0  0  0  0  0  0  0  0  0
   39.0440   25.7300   31.2800 H   0  0  0  0  0  0  0  0  0  0  0  0
   38.1220   26.2100   29.8270 H   0  0  0  0  0  0  0  0  0  0  0  0
   38.9160   28.2690   30.5650 H   0  0  0  0  0  0  0  0  0  0  0  0
   38.8720   27.7900   32.2660 H   0  0  0  0  0  0  0  0  0  0  0  0
   36.6700   28.7710   30.5980 H   0  0  0  0  0  0  0  0  0  0  0  0
   36.5110   27.4060   33.1800 H   0  0  0  0  0  0  0  0  0  0  0  0
   35.1650   28.3140   32.3060 H   0  0  0  0  0  0  0  0  0  0  0  0
   35.6780   26.8690   30.2960 H   0  0  0  0  0  0  0  0  0  0  0  0
   34.9220   25.9770   31.6740 H   0  0  0  0  0  0  0  0  0  0  0  0
   38.6200   22.8510   34.9790 C   0  0  0  0  0  0  0  0  0  0  0  0
   39.8590   22.2500   34.9460 C   0  0  0  0  0  0  0  0  0  0  0  0
   40.6200   22.0920   36.0810 C   0  0  0  0  0  0  0  0  0  0  0  0
   40.0730   22.5670   37.2450 N   0  0  0  0  0  0  0  0  0  0  0  0
   38.8700   23.1450   37.2540 C   0  0  0  0  0  0  0  0  0  0  0  0
   38.0980   23.3110   36.1350 N   0  0  0  0  0  0  0  0  0  0  0  0
   40.2390   21.8970   34.0050 H   0  0  0  0  0  0  0  0  0  0  0  0
   38.3210   23.6420   38.5350 C   0  0  0  0  0  0  0  0  0  0  0  0
   37.2670   22.8650   38.9730 F   0  0  0  0  0  0  0  0  0  0  0  0
   37.8490   24.9530   38.3290 F   0  0  0  0  0  0  0  0  0  0  0  0
   39.3220   23.7500   39.4650 F   0  0  0  0  0  0  0  0  0  0  0  0
   41.9210   21.4680   36.0790 C   0  0  0  0  0  0  0  0  0  0  0  0
   42.5020   21.4690   35.1740 H   0  0  0  0  0  0  0  0  0  0  0  0
   42.3940   20.9260   37.0930 O   0  0  0  0  0  0  0  0  0  0  0  0
  1  6  1  0  0  0  0
  2  1  2  0  0  0  0
  2  3  1  0  0  0  0
  3  4  2  0  0  0  0
  4  5  1  0  0  0  0
  5 24  1  0  0  0  0
  6  5  2  0  0  0  0
  7  2  1  0  0  0  0
  8  3  1  0  0  0  0
  9  1  1  0  0  0  0
 10 15  1  0  0  0  0
 10 11  1  0  0  0  0
 10  9  1  0  0  0  0
 11 12  1  0  0  0  0
 11 18  1  0  0  0  0
 12 13  1  0  0  0  0
 13 21  1  0  0  0  0
 13 20  1  0  0  0  0
 14  9  1  0  0  0  0
 14 23  1  0  0  0  0
 14 13  1  0  0  0  0
 16 10  1  0  0  0  0
 17 11  1  0  0  0  0
 19 12  1  0  0  0  0
 22 14  1  0  0  0  0
 24 29  1  0  0  0  0
 25 24  2  0  0  0  0
 25 26  1  0  0  0  0
 26 27  2  0  0  0  0
 27 28  1  0  0  0  0
 28 31  1  0  0  0  0
 29 28  2  0  0  0  0
 30 25  1  0  0  0  0
 31 32  1  0  0  0  0
 31 34  1  0  0  0  0
 33 31  1  0  0  0  0
 35 26  1  0  0  0  0
 35 37  2  0  0  0  0
 36 35  1  0  0  0  0
M  END
>  <minimizedAffinity>
-5.76711082

$$$$

 OpenBabel03272504363D

 37 39  0  0  0  0  0  0  0  0999 V2000
   39.4490   24.9400   35.1900 C   0  0  0  0  0  0  0  0  0  0  0  0
   40.7020   25.5360   35.1780 C   0  0  0  0  0  0  0  0  0  0  0  0
   40.9980   26.5080   34.2340 C   0  0  0  0  0  0  0  0  0  0  0  0
   40.0170   26.8360   33.3470 N   0  0  0  0  0  0  0  0  0  0  0  0
   38.7970   26.2390   33.3780 C   0  0  0  0  0  0  0  0  0  0  0  0
   38.5010   25.2910   34.2940 N   0  0  0  0  0  0  0  0  0  0  0  0
   41.4180   25.2330   35.8990 H   0  0  0  0  0  0  0  0  0  0  0  0
   41.9530   26.9900   34.1940 H   0  0  0  0  0  0  0  0  0  0  0  0
   39.0930   23.9380   36.1370 N   0  0  0  0  0  0  0  0  0  0  0  0
   38.0280   24.1320   37.1140 C   0  0  0  0  0  0  0  0  0  0  0  0
   38.3600   23.6700   38.4950 C   0  0  0  0  0  0  0  0  0  0  0  0
   39.2480   22.5930   38.6210 N   0  0  0  0  0  0  0  0  0  0  0  0
   40.3430   22.6480   37.6640 C   0  0  0  0  0  0  0  0  0  0  0  0
   39.6670   22.6540   36.2940 C   0  0  0  0  0  0  0  0  0  0  0  0
   37.7710   25.2210   37.0910 H   0  0  0  0  0  0  0  0  0  0  0  0
   37.1370   23.5910   36.7270 H   0  0  0  0  0  0  0  0  0  0  0  0
   37.4160   23.4680   39.0340 H   0  0  0  0  0  0  0  0  0  0  0  0
   38.8040   24.5620   39.0260 H   0  0  0  0  0  0  0  0  0  0  0  0
   38.7570   21.6860   38.4630 H   0  0  0  0  0  0  0  0  0  0  0  0
   40.8760   23.6090   37.8620 H   0  0  0  0  0  0  0  0  0  0  0  0
   40.9850   21.7690   37.8180 H   0  0  0  0  0  0  0  0  0  0  0  0
   38.9580   21.8190   36.3090 H   0  0  0  0  0  0  0  0  0  0  0  0
   40.4620   22.4680   35.5470 H   0  0  0  0  0  0  0  0  0  0  0  0
   37.7780   26.6250   32.4030 C   0  0  0  0  0  0  0  0  0  0  0  0
   37.9080   27.7980   31.6920 C   0  0  0  0  0  0  0  0  0  0  0  0
   36.9700   28.1940   30.7670 C   0  0  0  0  0  0  0  0  0  0  0  0
   35.9000   27.3540   30.5940 N   0  0  0  0  0  0  0  0  0  0  0  0
   35.7950   26.2230   31.2950 C   0  0  0  0  0  0  0  0  0  0  0  0
   36.7170   25.8120   32.2190 N   0  0  0  0  0  0  0  0  0  0  0  0
   38.7680   28.4180   31.8680 H   0  0  0  0  0  0  0  0  0  0  0  0
   34.6220   25.3480   31.0740 C   0  0  0  0  0  0  0  0  0  0  0  0
   33.4750   25.8870   31.6220 F   0  0  0  0  0  0  0  0  0  0  0  0
   34.8740   24.1120   31.6990 F   0  0  0  0  0  0  0  0  0  0  0  0
   34.4890   25.0680   29.7380 F   0  0  0  0  0  0  0  0  0  0  0  0
   37.0780   29.4160   30.0060 C   0  0  0  0  0  0  0  0  0  0  0  0
   37.8240   29.4900   29.2350 H   0  0  0  0  0  0  0  0  0  0  0  0
   36.3340   30.3900   30.2160 O   0  0  0  0  0  0  0  0  0  0  0  0
  1  9  1  0  0  0  0
  2  1  1  0  0  0  0
  2  7  1  0  0  0  0
  3  2  2  0  0  0  0
  4  5  2  0  0  0  0
  4  3  1  0  0  0  0
  5  6  1  0  0  0  0
  6  1  2  0  0  0  0
  8  3  1  0  0  0  0
  9 14  1  0  0  0  0
  9 10  1  0  0  0  0
 10 11  1  0  0  0  0
 11 12  1  0  0  0  0
 11 18  1  0  0  0  0
 11 17  1  0  0  0  0
 13 21  1  0  0  0  0
 13 20  1  0  0  0  0
 13 12  1  0  0  0  0
 14 22  1  0  0  0  0
 14 13  1  0  0  0  0
 15 10  1  0  0  0  0
 16 10  1  0  0  0  0
 19 12  1  0  0  0  0
 23 14  1  0  0  0  0
 24  5  1  0  0  0  0
 25 30  1  0  0  0  0
 25 24  2  0  0  0  0
 26 25  1  0  0  0  0
 27 26  2  0  0  0  0
 27 28  1  0  0  0  0
 28 29  2  0  0  0  0
 29 24  1  0  0  0  0
 31 28  1  0  0  0  0
 31 32  1  0  0  0  0
 31 33  1  0  0  0  0
 34 31  1  0  0  0  0
 35 37  2  0  0  0  0
 35 26  1  0  0  0  0
 36 35  1  0  0  0  0
M  END
>  <minimizedAffinity>
-5.7164731

$$$$

 OpenBabel03272504363D

 37 39  0  0  0  0  0  0  0  0999 V2000
   37.2530   27.2570   32.3590 C   0  0  0  0  0  0  0  0  0  0  0  0
   36.5700   28.2700   33.0150 C   0  0  0  0  0  0  0  0  0  0  0  0
   36.4260   28.2290   34.3940 C   0  0  0  0  0  0  0  0  0  0  0  0
   36.9790   27.1690   35.0470 N   0  0  0  0  0  0  0  0  0  0  0  0
   37.6440   26.1880   34.3840 C   0  0  0  0  0  0  0  0  0  0  0  0
   37.7870   26.2210   33.0400 N   0  0  0  0  0  0  0  0  0  0  0  0
   36.1650   29.0660   32.4440 H   0  0  0  0  0  0  0  0  0  0  0  0
   35.9060   28.9930   34.9350 H   0  0  0  0  0  0  0  0  0  0  0  0
   37.4300   27.2500   30.9460 N   0  0  0  0  0  0  0  0  0  0  0  0
   38.5220   26.5310   30.3000 C   0  0  0  0  0  0  0  0  0  0  0  0
   39.2090   27.2910   29.2140 C   0  0  0  0  0  0  0  0  0  0  0  0
   38.4460   28.2170   28.4890 N   0  0  0  0  0  0  0  0  0  0  0  0
   37.5160   28.9610   29.3260 C   0  0  0  0  0  0  0  0  0  0  0  0
   36.6320   27.8950   29.9710 C   0  0  0  0  0  0  0  0  0  0  0  0
   39.2320   26.2370   31.1130 H   0  0  0  0  0  0  0  0  0  0  0  0
   38.0910   25.5870   29.9010 H   0  0  0  0  0  0  0  0  0  0  0  0
   39.6990   26.5680   28.5350 H   0  0  0  0  0  0  0  0  0  0  0  0
   40.0630   27.8410   29.7070 H   0  0  0  0  0  0  0  0  0  0  0  0
   37.8750   27.7370   27.7580 H   0  0  0  0  0  0  0  0  0  0  0  0
   38.1410   29.4900   30.0850 H   0  0  0  0  0  0  0  0  0  0  0  0
   36.9500   29.6540   28.6870 H   0  0  0  0  0  0  0  0  0  0  0  0
   36.2840   27.2600   29.1500 H   0  0  0  0  0  0  0  0  0  0  0  0
   35.7780   28.4290   30.4310 H   0  0  0  0  0  0  0  0  0  0  0  0
   38.2180   25.0700   35.1310 C   0  0  0  0  0  0  0  0  0  0  0  0
   39.0040   24.1380   34.4900 C   0  0  0  0  0  0  0  0  0  0  0  0
   39.5610   23.0730   35.1600 C   0  0  0  0  0  0  0  0  0  0  0  0
   39.2890   22.9950   36.5010 N   0  0  0  0  0  0  0  0  0  0  0  0
   38.5250   23.9100   37.1020 C   0  0  0  0  0  0  0  0  0  0  0  0
   37.9620   24.9750   36.4530 N   0  0  0  0  0  0  0  0  0  0  0  0
   39.1840   24.2490   33.4360 H   0  0  0  0  0  0  0  0  0  0  0  0
   38.2600   23.7830   38.5520 C   0  0  0  0  0  0  0  0  0  0  0  0
   37.3030   22.8220   38.8120 F   0  0  0  0  0  0  0  0  0  0  0  0
   37.7810   25.0220   39.0190 F   0  0  0  0  0  0  0  0  0  0  0  0
   39.4320   23.5600   39.2270 F   0  0  0  0  0  0  0  0  0  0  0  0
   40.3880   22.0810   34.5160 C   0  0  0  0  0  0  0  0  0  0  0  0
   39.9890   21.0980   34.3400 H   0  0  0  0  0  0  0  0  0  0  0  0
   41.5530   22.3270   34.1570 O   0  0  0  0  0  0  0  0  0  0  0  0
  1  2  2  0  0  0  0
  1  6  1  0  0  0  0
  2  3  1  0  0  0  0
  3  8  1  0  0  0  0
  3  4  2  0  0  0  0
  5  4  1  0  0  0  0
  5 24  1  0  0  0  0
  6  5  2  0  0  0  0
  7  2  1  0  0  0  0
  9  1  1  0  0  0  0
 10  9  1  0  0  0  0
 10 15  1  0  0  0  0
 11 18  1  0  0  0  0
 11 10  1  0  0  0  0
 12 11  1  0  0  0  0
 12 13  1  0  0  0  0
 13 14  1  0  0  0  0
 13 20  1  0  0  0  0
 14 23  1  0  0  0  0
 14  9  1  0  0  0  0
 16 10  1  0  0  0  0
 17 11  1  0  0  0  0
 19 12  1  0  0  0  0
 21 13  1  0  0  0  0
 22 14  1  0  0  0  0
 24 29  1  0  0  0  0
 25 24  2  0  0  0  0
 25 26  1  0  0  0  0
 26 27  2  0  0  0  0
 27 28  1  0  0  0  0
 28 31  1  0  0  0  0
 29 28  2  0  0  0  0
 30 25  1  0  0  0  0
 31 32  1  0  0  0  0
 31 33  1  0  0  0  0
 31 34  1  0  0  0  0
 35 26  1  0  0  0  0
 36 35  1  0  0  0  0
 37 35  2  0  0  0  0
M  END
>  <minimizedAffinity>
-5.65465355

$$$$

 OpenBabel03272504363D

 37 39  0  0  0  0  0  0  0  0999 V2000
   39.2280   24.5910   34.9080 C   0  0  0  0  0  0  0  0  0  0  0  0
   40.4470   24.4060   34.2720 C   0  0  0  0  0  0  0  0  0  0  0  0
   40.8000   25.2100   33.1990 C   0  0  0  0  0  0  0  0  0  0  0  0
   39.9060   26.1660   32.8170 N   0  0  0  0  0  0  0  0  0  0  0  0
   38.7180   26.3300   33.4540 C   0  0  0  0  0  0  0  0  0  0  0  0
   38.3680   25.5490   34.5000 N   0  0  0  0  0  0  0  0  0  0  0  0
   41.0940   23.6420   34.6240 H   0  0  0  0  0  0  0  0  0  0  0  0
   41.7310   25.0970   32.6850 H   0  0  0  0  0  0  0  0  0  0  0  0
   38.8180   23.7940   36.0140 N   0  0  0  0  0  0  0  0  0  0  0  0
   37.7880   24.2300   36.9500 C   0  0  0  0  0  0  0  0  0  0  0  0
   38.1110   23.9860   38.3870 C   0  0  0  0  0  0  0  0  0  0  0  0
   38.9210   22.8820   38.6900 N   0  0  0  0  0  0  0  0  0  0  0  0
   39.9990   22.6920   37.7310 C   0  0  0  0  0  0  0  0  0  0  0  0
   39.2990   22.5160   36.3850 C   0  0  0  0  0  0  0  0  0  0  0  0
   37.6110   25.3160   36.7430 H   0  0  0  0  0  0  0  0  0  0  0  0
   36.8530   23.6990   36.6660 H   0  0  0  0  0  0  0  0  0  0  0  0
   37.1650   23.9490   38.9590 H   0  0  0  0  0  0  0  0  0  0  0  0
   38.6290   24.9190   38.7560 H   0  0  0  0  0  0  0  0  0  0  0  0
   38.3610   22.0010   38.6930 H   0  0  0  0  0  0  0  0  0  0  0  0
   40.6040   23.6300   37.7590 H   0  0  0  0  0  0  0  0  0  0  0  0
   40.5780   21.8060   38.0290 H   0  0  0  0  0  0  0  0  0  0  0  0
   38.5310   21.7510   36.5460 H   0  0  0  0  0  0  0  0  0  0  0  0
   40.0640   22.1460   35.6760 H   0  0  0  0  0  0  0  0  0  0  0  0
   37.7930   27.3690   33.0040 C   0  0  0  0  0  0  0  0  0  0  0  0
   36.8130   27.8380   33.8500 C   0  0  0  0  0  0  0  0  0  0  0  0
   35.9250   28.8160   33.4620 C   0  0  0  0  0  0  0  0  0  0  0  0
   36.0740   29.2940   32.1860 N   0  0  0  0  0  0  0  0  0  0  0  0
   37.0320   28.8240   31.3830 C   0  0  0  0  0  0  0  0  0  0  0  0
   37.9230   27.8530   31.7510 N   0  0  0  0  0  0  0  0  0  0  0  0
   36.7430   27.4270   34.8400 H   0  0  0  0  0  0  0  0  0  0  0  0
   37.1530   29.3720   30.0140 C   0  0  0  0  0  0  0  0  0  0  0  0
   36.9220   28.4040   29.0560 F   0  0  0  0  0  0  0  0  0  0  0  0
   38.4670   29.8520   29.8500 F   0  0  0  0  0  0  0  0  0  0  0  0
   36.3380   30.4650   29.8700 F   0  0  0  0  0  0  0  0  0  0  0  0
   34.8880   29.3270   34.3250 C   0  0  0  0  0  0  0  0  0  0  0  0
   33.9400   28.8230   34.3630 H   0  0  0  0  0  0  0  0  0  0  0  0
   35.0570   30.3380   35.0290 O   0  0  0  0  0  0  0  0  0  0  0  0
  1  9  1  0  0  0  0
  2  7  1  0  0  0  0
  2  1  2  0  0  0  0
  3  2  1  0  0  0  0
  4  3  2  0  0  0  0
  4  5  1  0  0  0  0
  5  6  2  0  0  0  0
  6  1  1  0  0  0  0
  8  3  1  0  0  0  0
  9 14  1  0  0  0  0
  9 10  1  0  0  0  0
 10 11  1  0  0  0  0
 11 12  1  0  0  0  0
 11 18  1  0  0  0  0
 11 17  1  0  0  0  0
 12 19  1  0  0  0  0
 13 20  1  0  0  0  0
 13 21  1  0  0  0  0
 13 12  1  0  0  0  0
 14 22  1  0  0  0  0
 14 13  1  0  0  0  0
 15 10  1  0  0  0  0
 16 10  1  0  0  0  0
 23 14  1  0  0  0  0
 24  5  1  0  0  0  0
 24 25  1  0  0  0  0
 25 30  1  0  0  0  0
 26 25  2  0  0  0  0
 26 35  1  0  0  0  0
 27 26  1  0  0  0  0
 28 29  1  0  0  0  0
 28 27  2  0  0  0  0
 29 24  2  0  0  0  0
 31 28  1  0  0  0  0
 32 31  1  0  0  0  0
 33 31  1  0  0  0  0
 34 31  1  0  0  0  0
 35 36  1  0  0  0  0
 35 37  2  0  0  0  0
M  END
>  <minimizedAffinity>
-5.6418581

$$$$

 OpenBabel03272504363D

 37 39  0  0  0  0  0  0  0  0999 V2000
   39.4620   25.1950   35.1230 C   0  0  0  0  0  0  0  0  0  0  0  0
   40.8120   25.4760   34.9720 C   0  0  0  0  0  0  0  0  0  0  0  0
   41.2210   26.4560   34.0800 C   0  0  0  0  0  0  0  0  0  0  0  0
   40.2480   27.1070   33.3810 N   0  0  0  0  0  0  0  0  0  0  0  0
   38.9320   26.8150   33.5440 C   0  0  0  0  0  0  0  0  0  0  0  0
   38.5270   25.8610   34.4120 N   0  0  0  0  0  0  0  0  0  0  0  0
   41.5140   24.9310   35.5500 H   0  0  0  0  0  0  0  0  0  0  0  0
   42.2520   26.7010   33.9380 H   0  0  0  0  0  0  0  0  0  0  0  0
   38.9880   24.2000   36.0250 N   0  0  0  0  0  0  0  0  0  0  0  0
   37.9180   24.4590   36.9800 C   0  0  0  0  0  0  0  0  0  0  0  0
   38.1660   23.9260   38.3520 C   0  0  0  0  0  0  0  0  0  0  0  0
   38.9480   22.7680   38.4650 N   0  0  0  0  0  0  0  0  0  0  0  0
   40.0710   22.7520   37.5390 C   0  0  0  0  0  0  0  0  0  0  0  0
   39.4380   22.8640   36.1530 C   0  0  0  0  0  0  0  0  0  0  0  0
   37.7620   25.5680   36.9880 H   0  0  0  0  0  0  0  0  0  0  0  0
   36.9930   24.0150   36.5520 H   0  0  0  0  0  0  0  0  0  0  0  0
   37.1920   23.7940   38.8600 H   0  0  0  0  0  0  0  0  0  0  0  0
   38.6740   24.7560   38.9250 H   0  0  0  0  0  0  0  0  0  0  0  0
   38.3810   21.9150   38.2630 H   0  0  0  0  0  0  0  0  0  0  0  0
   40.6830   23.6540   37.7840 H   0  0  0  0  0  0  0  0  0  0  0  0
   40.6260   21.8140   37.6790 H   0  0  0  0  0  0  0  0  0  0  0  0
   38.6560   22.0970   36.1210 H   0  0  0  0  0  0  0  0  0  0  0  0
   40.2340   22.6290   35.4210 H   0  0  0  0  0  0  0  0  0  0  0  0
   37.9280   27.5420   32.7690 C   0  0  0  0  0  0  0  0  0  0  0  0
   38.0780   27.6920   31.4080 C   0  0  0  0  0  0  0  0  0  0  0  0
   37.1540   28.3700   30.6460 C   0  0  0  0  0  0  0  0  0  0  0  0
   36.0770   28.8850   31.3210 N   0  0  0  0  0  0  0  0  0  0  0  0
   35.9530   28.7270   32.6400 C   0  0  0  0  0  0  0  0  0  0  0  0
   36.8600   28.0570   33.4140 N   0  0  0  0  0  0  0  0  0  0  0  0
   38.9420   27.2670   30.9320 H   0  0  0  0  0  0  0  0  0  0  0  0
   34.7730   29.3010   33.3230 C   0  0  0  0  0  0  0  0  0  0  0  0
   34.8060   30.6810   33.3250 F   0  0  0  0  0  0  0  0  0  0  0  0
   34.7820   28.8570   34.6600 F   0  0  0  0  0  0  0  0  0  0  0  0
   33.6210   28.8000   32.7740 F   0  0  0  0  0  0  0  0  0  0  0  0
   37.2830   28.5440   29.2190 C   0  0  0  0  0  0  0  0  0  0  0  0
   37.0820   27.7120   28.5680 H   0  0  0  0  0  0  0  0  0  0  0  0
   37.6220   29.6290   28.7160 O   0  0  0  0  0  0  0  0  0  0  0  0
  1  9  1  0  0  0  0
  2  1  1  0  0  0  0
  2  7  1  0  0  0  0
  3  2  2  0  0  0  0
  4  5  2  0  0  0  0
  4  3  1  0  0  0  0
  5  6  1  0  0  0  0
  6  1  2  0  0  0  0
  8  3  1  0  0  0  0
  9 14  1  0  0  0  0
  9 10  1  0  0  0  0
 10 15  1  0  0  0  0
 10 11  1  0  0  0  0
 11 12  1  0  0  0  0
 11 17  1  0  0  0  0
 11 18  1  0  0  0  0
 13 21  1  0  0  0  0
 13 20  1  0  0  0  0
 13 12  1  0  0  0  0
 14 13  1  0  0  0  0
 16 10  1  0  0  0  0
 19 12  1  0  0  0  0
 22 14  1  0  0  0  0
 23 14  1  0  0  0  0
 24 29  1  0  0  0  0
 24  5  1  0  0  0  0
 25 24  2  0  0  0  0
 26 27  2  0  0  0  0
 26 25  1  0  0  0  0
 27 28  1  0  0  0  0
 28 31  1  0  0  0  0
 28 29  2  0  0  0  0
 30 25  1  0  0  0  0
 31 32  1  0  0  0  0
 31 33  1  0  0  0  0
 34 31  1  0  0  0  0
 35 26  1  0  0  0  0
 36 35  1  0  0  0  0
 37 35  2  0  0  0  0
M  END
>  <minimizedAffinity>
-5.62502623

$$$$

 OpenBabel03272504363D

 37 39  0  0  0  0  0  0  0  0999 V2000
   36.8150   26.6160   32.8450 C   0  0  0  0  0  0  0  0  0  0  0  0
   36.4040   25.8880   31.7370 C   0  0  0  0  0  0  0  0  0  0  0  0
   36.6880   24.5330   31.6540 C   0  0  0  0  0  0  0  0  0  0  0  0
   37.3730   23.9750   32.6920 N   0  0  0  0  0  0  0  0  0  0  0  0
   37.7650   24.7070   33.7660 C   0  0  0  0  0  0  0  0  0  0  0  0
   37.4920   26.0280   33.8540 N   0  0  0  0  0  0  0  0  0  0  0  0
   35.8740   26.3880   30.9660 H   0  0  0  0  0  0  0  0  0  0  0  0
   36.3870   23.9400   30.8160 H   0  0  0  0  0  0  0  0  0  0  0  0
   36.5490   28.0080   32.9810 N   0  0  0  0  0  0  0  0  0  0  0  0
   36.1310   28.6020   34.2450 C   0  0  0  0  0  0  0  0  0  0  0  0
   35.0140   29.5860   34.1310 C   0  0  0  0  0  0  0  0  0  0  0  0
   34.9160   30.3180   32.9390 N   0  0  0  0  0  0  0  0  0  0  0  0
   35.2130   29.5200   31.7590 C   0  0  0  0  0  0  0  0  0  0  0  0
   36.6350   29.0070   31.9820 C   0  0  0  0  0  0  0  0  0  0  0  0
   35.8670   27.7520   34.9230 H   0  0  0  0  0  0  0  0  0  0  0  0
   37.0320   29.0860   34.6840 H   0  0  0  0  0  0  0  0  0  0  0  0
   35.0490   30.2620   35.0060 H   0  0  0  0  0  0  0  0  0  0  0  0
   34.0610   28.9960   34.2670 H   0  0  0  0  0  0  0  0  0  0  0  0
   35.5860   31.1180   32.9380 H   0  0  0  0  0  0  0  0  0  0  0  0
   34.4720   28.6850   31.7590 H   0  0  0  0  0  0  0  0  0  0  0  0
   35.1260   30.1630   30.8720 H   0  0  0  0  0  0  0  0  0  0  0  0
   37.2310   29.8880   32.2450 H   0  0  0  0  0  0  0  0  0  0  0  0
   36.9760   28.5900   31.0150 H   0  0  0  0  0  0  0  0  0  0  0  0
   38.4990   24.0610   34.8530 C   0  0  0  0  0  0  0  0  0  0  0  0
   39.6000   23.2800   34.5790 C   0  0  0  0  0  0  0  0  0  0  0  0
   40.3150   22.6560   35.5750 C   0  0  0  0  0  0  0  0  0  0  0  0
   39.8670   22.8580   36.8560 N   0  0  0  0  0  0  0  0  0  0  0  0
   38.7970   23.6170   37.0980 C   0  0  0  0  0  0  0  0  0  0  0  0
   38.0730   24.2460   36.1210 N   0  0  0  0  0  0  0  0  0  0  0  0
   39.9070   23.1580   33.5560 H   0  0  0  0  0  0  0  0  0  0  0  0
   38.3510   23.8040   38.4960 C   0  0  0  0  0  0  0  0  0  0  0  0
   39.3820   23.5960   39.3910 F   0  0  0  0  0  0  0  0  0  0  0  0
   37.3370   22.8640   38.7620 F   0  0  0  0  0  0  0  0  0  0  0  0
   37.7640   25.0350   38.6430 F   0  0  0  0  0  0  0  0  0  0  0  0
   41.4730   21.8340   35.3190 C   0  0  0  0  0  0  0  0  0  0  0  0
   41.3350   20.8010   35.0540 H   0  0  0  0  0  0  0  0  0  0  0  0
   42.6290   22.2820   35.3970 O   0  0  0  0  0  0  0  0  0  0  0  0
  1  9  1  0  0  0  0
  1  6  1  0  0  0  0
  2  1  2  0  0  0  0
  3  2  1  0  0  0  0
  3  4  2  0  0  0  0
  4  5  1  0  0  0  0
  5  6  2  0  0  0  0
  5 24  1  0  0  0  0
  7  2  1  0  0  0  0
  8  3  1  0  0  0  0
  9 10  1  0  0  0  0
 10 16  1  0  0  0  0
 10 15  1  0  0  0  0
 11 10  1  0  0  0  0
 11 18  1  0  0  0  0
 11 17  1  0  0  0  0
 12 11  1  0  0  0  0
 13 14  1  0  0  0  0
 13 12  1  0  0  0  0
 14 22  1  0  0  0  0
 14  9  1  0  0  0  0
 19 12  1  0  0  0  0
 20 13  1  0  0  0  0
 21 13  1  0  0  0  0
 23 14  1  0  0  0  0
 24 29  1  0  0  0  0
 25 24  2  0  0  0  0
 25 26  1  0  0  0  0
 26 27  2  0  0  0  0
 27 28  1  0  0  0  0
 28 31  1  0  0  0  0
 29 28  2  0  0  0  0
 30 25  1  0  0  0  0
 31 34  1  0  0  0  0
 31 33  1  0  0  0  0
 31 32  1  0  0  0  0
 35 37  2  0  0  0  0
 35 26  1  0  0  0  0
 36 35  1  0  0  0  0
M  END
>  <minimizedAffinity>
-5.49534702

$$$$

 OpenBabel03272504363D

 37 39  0  0  0  0  0  0  0  0999 V2000
   39.5740   24.8270   35.1080 C   0  0  0  0  0  0  0  0  0  0  0  0
   40.8570   25.3480   35.0130 C   0  0  0  0  0  0  0  0  0  0  0  0
   41.1360   26.3380   34.0830 C   0  0  0  0  0  0  0  0  0  0  0  0
   40.1090   26.7590   33.2930 N   0  0  0  0  0  0  0  0  0  0  0  0
   38.8610   26.2350   33.4030 C   0  0  0  0  0  0  0  0  0  0  0  0
   38.5810   25.2690   34.3070 N   0  0  0  0  0  0  0  0  0  0  0  0
   41.6090   24.9740   35.6600 H   0  0  0  0  0  0  0  0  0  0  0  0
   42.1130   26.7640   33.9820 H   0  0  0  0  0  0  0  0  0  0  0  0
   39.2340   23.8100   36.0440 N   0  0  0  0  0  0  0  0  0  0  0  0
   38.0920   23.9290   36.9430 C   0  0  0  0  0  0  0  0  0  0  0  0
   38.3630   23.5110   38.3510 C   0  0  0  0  0  0  0  0  0  0  0  0
   39.3230   22.5090   38.5550 N   0  0  0  0  0  0  0  0  0  0  0  0
   40.4740   22.6410   37.6740 C   0  0  0  0  0  0  0  0  0  0  0  0
   39.8950   22.5780   36.2610 C   0  0  0  0  0  0  0  0  0  0  0  0
   37.7520   24.9940   36.8850 H   0  0  0  0  0  0  0  0  0  0  0  0
   37.2760   23.3140   36.5060 H   0  0  0  0  0  0  0  0  0  0  0  0
   37.4030   23.2390   38.8280 H   0  0  0  0  0  0  0  0  0  0  0  0
   38.6980   24.4410   38.8970 H   0  0  0  0  0  0  0  0  0  0  0  0
   38.9160   21.5640   38.3790 H   0  0  0  0  0  0  0  0  0  0  0  0
   40.9140   23.6440   37.8920 H   0  0  0  0  0  0  0  0  0  0  0  0
   41.1710   21.8180   37.8860 H   0  0  0  0  0  0  0  0  0  0  0  0
   39.2550   21.6890   36.2420 H   0  0  0  0  0  0  0  0  0  0  0  0
   40.7520   22.4480   35.5740 H   0  0  0  0  0  0  0  0  0  0  0  0
   37.7920   26.7200   32.5300 C   0  0  0  0  0  0  0  0  0  0  0  0
   36.8460   25.8470   32.0420 C   0  0  0  0  0  0  0  0  0  0  0  0
   35.8270   26.2660   31.2180 C   0  0  0  0  0  0  0  0  0  0  0  0
   35.8090   27.6030   30.9140 N   0  0  0  0  0  0  0  0  0  0  0  0
   36.7360   28.4310   31.3990 C   0  0  0  0  0  0  0  0  0  0  0  0
   37.7570   28.0330   32.2190 N   0  0  0  0  0  0  0  0  0  0  0  0
   36.9090   24.8090   32.3130 H   0  0  0  0  0  0  0  0  0  0  0  0
   36.6750   29.8660   31.0420 C   0  0  0  0  0  0  0  0  0  0  0  0
   37.7910   30.2620   30.3320 F   0  0  0  0  0  0  0  0  0  0  0  0
   36.6220   30.6110   32.2360 F   0  0  0  0  0  0  0  0  0  0  0  0
   35.5040   30.1370   30.3830 F   0  0  0  0  0  0  0  0  0  0  0  0
   34.8210   25.3760   30.6910 C   0  0  0  0  0  0  0  0  0  0  0  0
   34.0110   25.7820   30.1110 H   0  0  0  0  0  0  0  0  0  0  0  0
   34.8610   24.1490   30.8860 O   0  0  0  0  0  0  0  0  0  0  0  0
  1  9  1  0  0  0  0
  2  1  1  0  0  0  0
  2  7  1  0  0  0  0
  3  2  2  0  0  0  0
  4  5  2  0  0  0  0
  4  3  1  0  0  0  0
  5  6  1  0  0  0  0
  6  1  2  0  0  0  0
  8  3  1  0  0  0  0
  9 14  1  0  0  0  0
  9 10  1  0  0  0  0
 10 11  1  0  0  0  0
 11 12  1  0  0  0  0
 11 17  1  0  0  0  0
 11 18  1  0  0  0  0
 13 21  1  0  0  0  0
 13 20  1  0  0  0  0
 13 12  1  0  0  0  0
 14 13  1  0  0  0  0
 15 10  1  0  0  0  0
 16 10  1  0  0  0  0
 19 12  1  0  0  0  0
 22 14  1  0  0  0  0
 23 14  1  0  0  0  0
 24  5  1  0  0  0  0
 25 30  1  0  0  0  0
 25 24  2  0  0  0  0
 26 25  1  0  0  0  0
 27 26  2  0  0  0  0
 27 28  1  0  0  0  0
 28 29  2  0  0  0  0
 29 24  1  0  0  0  0
 31 28  1  0  0  0  0
 31 33  1  0  0  0  0
 32 31  1  0  0  0  0
 34 31  1  0  0  0  0
 35 37  2  0  0  0  0
 35 26  1  0  0  0  0
 36 35  1  0  0  0  0
M  END
>  <minimizedAffinity>
-5.46828079

$$$$
