
 OpenBabel03262522223D

 25 26  0  0  0  0  0  0  0  0999 V2000
   39.3540   32.3500   45.7170 C   0  0  0  0  0  0  0  0  0  0  0  0
   40.4220   31.5540   45.4500 C   0  0  0  0  0  0  0  0  0  0  0  0
   40.6800   31.1640   44.1650 C   0  0  0  0  0  0  0  0  0  0  0  0
   39.8290   31.6040   43.1700 C   0  0  0  0  0  0  0  0  0  0  0  0
   38.7380   32.4200   43.4570 C   0  0  0  0  0  0  0  0  0  0  0  0
   38.5450   32.7640   44.7480 N   0  0  0  0  0  0  0  0  0  0  0  0
   41.0150   31.2750   46.3110 H   0  0  0  0  0  0  0  0  0  0  0  0
   41.5360   30.5310   43.9780 H   0  0  0  0  0  0  0  0  0  0  0  0
   40.0650   31.2740   42.1560 H   0  0  0  0  0  0  0  0  0  0  0  0
   37.8430   32.8730   42.3550 C   0  0  0  0  0  0  0  0  0  0  0  0
   38.4300   32.9500   41.4270 H   0  0  0  0  0  0  0  0  0  0  0  0
   37.0920   32.0430   42.2350 H   0  0  0  0  0  0  0  0  0  0  0  0
   37.2940   33.7870   42.6100 H   0  0  0  0  0  0  0  0  0  0  0  0
   38.9360   32.8460   46.9660 O   0  0  0  0  0  0  0  0  0  0  0  0
   38.7630   32.2560   49.2040 C   0  0  0  0  0  0  0  0  0  0  0  0
   38.4790   31.9410   47.8700 C   0  0  0  0  0  0  0  0  0  0  0  0
   37.7800   30.7690   47.6470 C   0  0  0  0  0  0  0  0  0  0  0  0
   37.4170   30.0060   48.6980 N   0  0  0  0  0  0  0  0  0  0  0  0
   37.7050   30.3410   49.9450 C   0  0  0  0  0  0  0  0  0  0  0  0
   38.3890   31.4770   50.2390 N   0  0  0  0  0  0  0  0  0  0  0  0
   39.3080   33.1480   49.5400 H   0  0  0  0  0  0  0  0  0  0  0  0
   37.5770   30.5550   46.6140 H   0  0  0  0  0  0  0  0  0  0  0  0
   37.2690   29.4490   51.0140 C   0  0  0  0  0  0  0  0  0  0  0  0
   36.8540   28.4580   50.8880 H   0  0  0  0  0  0  0  0  0  0  0  0
   37.3740   29.8480   52.2020 O   0  0  0  0  0  0  0  0  0  0  0  0
  1 14  1  0  0  0  0
  2  1  1  0  0  0  0
  2  7  1  0  0  0  0
  3  2  2  0  0  0  0
  4  5  2  0  0  0  0
  4  3  1  0  0  0  0
  5  6  1  0  0  0  0
  6  1  2  0  0  0  0
  8  3  1  0  0  0  0
  9  4  1  0  0  0  0
 10 13  1  0  0  0  0
 10  5  1  0  0  0  0
 11 10  1  0  0  0  0
 12 10  1  0  0  0  0
 14 16  1  0  0  0  0
 15 21  1  0  0  0  0
 15 20  1  0  0  0  0
 16 15  2  0  0  0  0
 17 16  1  0  0  0  0
 17 18  2  0  0  0  0
 18 19  1  0  0  0  0
 19 20  2  0  0  0  0
 19 23  1  0  0  0  0
 22 17  1  0  0  0  0
 23 25  2  0  0  0  0
 24 23  1  0  0  0  0
M  END
>  <minimizedAffinity>
-4.97304392

>  <minimizedRMSD>
2.97030926

$$$$
