
     RDKit          3D

 22 23  0  0  0  0  0  0  0  0999 V2000
   37.9829   33.1660   49.4313 C   0  0  0  0  0  0  0  0  0  0  0  0
   39.0200   33.1674   48.4629 C   0  0  0  0  0  0  0  0  0  0  0  0
   39.0079   32.1304   47.5398 C   0  0  0  0  0  0  0  0  0  0  0  0
   38.0263   31.1760   47.5974 N   0  0  0  0  0  0  0  0  0  0  0  0
   37.0505   31.2190   48.5485 C   0  0  0  0  0  0  0  0  0  0  0  0
   37.0470   32.2136   49.4481 N   0  0  0  0  0  0  0  0  0  0  0  0
   37.2640   29.3555   51.0532 Br  0  0  0  0  0  0  0  0  0  0  0  0
   35.9600   29.3182   49.6688 C   0  0  0  0  0  0  0  0  0  0  0  0
   36.0035   30.2157   48.6231 C   0  0  0  0  0  0  0  0  0  0  0  0
   35.0158   30.1235   47.6525 C   0  0  0  0  0  0  0  0  0  0  0  0
   34.0036   29.1839   47.6875 C   0  0  0  0  0  0  0  0  0  0  0  0
   33.9916   28.3019   48.7490 C   0  0  0  0  0  0  0  0  0  0  0  0
   34.9648   28.3799   49.7209 C   0  0  0  0  0  0  0  0  0  0  0  0
   37.9042   33.9436   50.2057 H   0  0  0  0  0  0  0  0  0  0  0  0
   39.7421   33.9570   48.4995 H   0  0  0  0  0  0  0  0  0  0  0  0
   39.7859   32.1071   46.7914 H   0  0  0  0  0  0  0  0  0  0  0  0
   35.0950   30.8451   46.8602 H   0  0  0  0  0  0  0  0  0  0  0  0
   33.2113   27.5564   48.8017 H   0  0  0  0  0  0  0  0  0  0  0  0
   34.9472   27.6816   50.5524 H   0  0  0  0  0  0  0  0  0  0  0  0
   32.9944   29.1462   46.6271 C   0  0  0  0  0  0  0  0  0  0  0  0
   33.2150   29.6959   45.7193 H   0  0  0  0  0  0  0  0  0  0  0  0
   31.9615   28.4606   46.9043 O   0  0  0  0  0  0  0  0  0  0  0  0
  1  6  2  0
  2  1  1  0
  3  4  1  0
  3  2  2  0
  4  5  2  0
  5  9  1  0
  5  6  1  0
  8 13  2  0
  8  7  1  0
  9  8  1  0
 10 11  1  0
 10  9  2  0
 11 12  2  0
 12 13  1  0
  1 14  1  0
  2 15  1  0
  3 16  1  0
 10 17  1  0
 12 18  1  0
 13 19  1  0
 20 21  1  0
 20 22  2  0
 11 20  1  0
M  ISO  7  14  14  15  14  16  14  17  14  18  14  19  14  21   6
M  END
>  <DihAtoms>  (1) 
9,10,19,20

>  <DihDeg>  (1) 
179.99856542270246

$$$$
