
 OpenBabel03272510183D

 22 23  0  0  0  0  0  0  0  0999 V2000
   38.6050   27.2630   35.6900 Br  0  0  0  0  0  0  0  0  0  0  0  0
   38.0450   26.1670   34.2400 C   0  0  0  0  0  0  0  0  0  0  0  0
   38.1230   24.7920   34.3140 C   0  0  0  0  0  0  0  0  0  0  0  0
   37.6950   24.0630   33.2130 C   0  0  0  0  0  0  0  0  0  0  0  0
   37.2010   24.6450   32.0630 C   0  0  0  0  0  0  0  0  0  0  0  0
   37.1370   26.0230   32.0250 C   0  0  0  0  0  0  0  0  0  0  0  0
   37.5580   26.7630   33.1080 C   0  0  0  0  0  0  0  0  0  0  0  0
   37.7760   22.9960   33.3210 H   0  0  0  0  0  0  0  0  0  0  0  0
   36.7550   26.5060   31.1360 H   0  0  0  0  0  0  0  0  0  0  0  0
   37.5050   27.8460   33.0690 H   0  0  0  0  0  0  0  0  0  0  0  0
   38.2330   23.4090   37.6820 C   0  0  0  0  0  0  0  0  0  0  0  0
   39.5520   22.9010   37.8090 C   0  0  0  0  0  0  0  0  0  0  0  0
   40.3830   23.0520   36.7070 C   0  0  0  0  0  0  0  0  0  0  0  0
   39.9130   23.6670   35.5760 N   0  0  0  0  0  0  0  0  0  0  0  0
   38.6360   24.1390   35.5040 C   0  0  0  0  0  0  0  0  0  0  0  0
   37.8200   24.0010   36.5600 N   0  0  0  0  0  0  0  0  0  0  0  0
   37.4980   23.3390   38.4980 H   0  0  0  0  0  0  0  0  0  0  0  0
   39.8260   22.4370   38.7340 H   0  0  0  0  0  0  0  0  0  0  0  0
   41.3920   22.6740   36.7760 H   0  0  0  0  0  0  0  0  0  0  0  0
   36.7660   23.8110   30.9400 C   0  0  0  0  0  0  0  0  0  0  0  0
   37.5110   23.5730   30.1890 H   0  0  0  0  0  0  0  0  0  0  0  0
   35.5460   23.4590   30.9830 O   0  0  0  0  0  0  0  0  0  0  0  0
  2  3  1  0  0  0  0
  2  1  1  0  0  0  0
  3 15  1  0  0  0  0
  4  8  1  0  0  0  0
  4  3  2  0  0  0  0
  5  4  1  0  0  0  0
  6  5  2  0  0  0  0
  6  7  1  0  0  0  0
  7  2  2  0  0  0  0
  9  6  1  0  0  0  0
 10  7  1  0  0  0  0
 11 12  1  0  0  0  0
 11 17  1  0  0  0  0
 12 18  1  0  0  0  0
 13 19  1  0  0  0  0
 13 12  2  0  0  0  0
 14 13  1  0  0  0  0
 15 14  2  0  0  0  0
 15 16  1  0  0  0  0
 16 11  2  0  0  0  0
 20 22  2  0  0  0  0
 20  5  1  0  0  0  0
 21 20  1  0  0  0  0
M  END
>  <minimizedAffinity>
-4.26030493

$$$$

 OpenBabel03272510183D

 22 23  0  0  0  0  0  0  0  0999 V2000
   40.7440   21.5970   33.4420 Br  0  0  0  0  0  0  0  0  0  0  0  0
   40.0310   22.2110   35.0950 C   0  0  0  0  0  0  0  0  0  0  0  0
   38.7150   22.6130   35.1990 C   0  0  0  0  0  0  0  0  0  0  0  0
   38.2720   23.0480   36.4400 C   0  0  0  0  0  0  0  0  0  0  0  0
   39.0780   23.0960   37.5600 C   0  0  0  0  0  0  0  0  0  0  0  0
   40.3880   22.6860   37.4190 C   0  0  0  0  0  0  0  0  0  0  0  0
   40.8450   22.2520   36.1940 C   0  0  0  0  0  0  0  0  0  0  0  0
   37.2400   23.3500   36.4690 H   0  0  0  0  0  0  0  0  0  0  0  0
   41.0420   22.7130   38.2790 H   0  0  0  0  0  0  0  0  0  0  0  0
   41.8770   21.9320   36.0920 H   0  0  0  0  0  0  0  0  0  0  0  0
   36.9600   23.7000   32.1980 C   0  0  0  0  0  0  0  0  0  0  0  0
   36.1710   22.5800   31.8290 C   0  0  0  0  0  0  0  0  0  0  0  0
   36.2680   21.4590   32.6420 C   0  0  0  0  0  0  0  0  0  0  0  0
   37.0950   21.4760   33.7350 N   0  0  0  0  0  0  0  0  0  0  0  0
   37.8340   22.5790   34.0470 C   0  0  0  0  0  0  0  0  0  0  0  0
   37.7530   23.6710   33.2720 N   0  0  0  0  0  0  0  0  0  0  0  0
   36.9550   24.6370   31.6190 H   0  0  0  0  0  0  0  0  0  0  0  0
   35.5550   22.6630   30.9580 H   0  0  0  0  0  0  0  0  0  0  0  0
   35.6780   20.5920   32.3850 H   0  0  0  0  0  0  0  0  0  0  0  0
   38.5400   23.5670   38.8390 C   0  0  0  0  0  0  0  0  0  0  0  0
   38.6550   22.9100   39.6920 H   0  0  0  0  0  0  0  0  0  0  0  0
   37.9920   24.7130   38.7920 O   0  0  0  0  0  0  0  0  0  0  0  0
  1  2  1  0  0  0  0
  2  3  2  0  0  0  0
  2  7  1  0  0  0  0
  3  4  1  0  0  0  0
  4  8  1  0  0  0  0
  4  5  2  0  0  0  0
  5 20  1  0  0  0  0
  6  5  1  0  0  0  0
  6  9  1  0  0  0  0
  7  6  2  0  0  0  0
 10  7  1  0  0  0  0
 11 16  1  0  0  0  0
 12 11  2  0  0  0  0
 12 13  1  0  0  0  0
 13 14  2  0  0  0  0
 14 15  1  0  0  0  0
 15  3  1  0  0  0  0
 16 15  2  0  0  0  0
 17 11  1  0  0  0  0
 18 12  1  0  0  0  0
 19 13  1  0  0  0  0
 20 21  1  0  0  0  0
 22 20  2  0  0  0  0
M  END
>  <minimizedAffinity>
-4.14880085

$$$$

 OpenBabel03272510183D

 22 23  0  0  0  0  0  0  0  0999 V2000
   35.1930   31.7100   32.1860 Br  0  0  0  0  0  0  0  0  0  0  0  0
   35.8810   30.0420   32.7870 C   0  0  0  0  0  0  0  0  0  0  0  0
   35.7460   29.6470   34.1020 C   0  0  0  0  0  0  0  0  0  0  0  0
   36.2750   28.4150   34.4610 C   0  0  0  0  0  0  0  0  0  0  0  0
   36.9230   27.5790   33.5730 C   0  0  0  0  0  0  0  0  0  0  0  0
   37.0390   28.0080   32.2670 C   0  0  0  0  0  0  0  0  0  0  0  0
   36.5200   29.2270   31.8920 C   0  0  0  0  0  0  0  0  0  0  0  0
   36.1430   28.1540   35.4960 H   0  0  0  0  0  0  0  0  0  0  0  0
   37.5420   27.3730   31.5500 H   0  0  0  0  0  0  0  0  0  0  0  0
   36.6170   29.5560   30.8630 H   0  0  0  0  0  0  0  0  0  0  0  0
   33.0640   31.1470   36.0590 C   0  0  0  0  0  0  0  0  0  0  0  0
   33.7240   32.0850   36.8940 C   0  0  0  0  0  0  0  0  0  0  0  0
   35.1020   32.1750   36.7570 C   0  0  0  0  0  0  0  0  0  0  0  0
   35.7520   31.3820   35.8490 N   0  0  0  0  0  0  0  0  0  0  0  0
   35.0730   30.4950   35.0680 C   0  0  0  0  0  0  0  0  0  0  0  0
   33.7400   30.3940   35.1880 N   0  0  0  0  0  0  0  0  0  0  0  0
   31.9740   30.9990   36.0910 H   0  0  0  0  0  0  0  0  0  0  0  0
   33.1290   32.6610   37.5730 H   0  0  0  0  0  0  0  0  0  0  0  0
   35.6300   32.8820   37.3810 H   0  0  0  0  0  0  0  0  0  0  0  0
   37.4570   26.2920   34.0250 C   0  0  0  0  0  0  0  0  0  0  0  0
   37.9770   25.6910   33.2890 H   0  0  0  0  0  0  0  0  0  0  0  0
   37.2400   26.0300   35.2500 O   0  0  0  0  0  0  0  0  0  0  0  0
  1  2  1  0  0  0  0
  2  3  1  0  0  0  0
  3  4  2  0  0  0  0
  3 15  1  0  0  0  0
  4  8  1  0  0  0  0
  5 20  1  0  0  0  0
  5  4  1  0  0  0  0
  6  5  2  0  0  0  0
  7  6  1  0  0  0  0
  7  2  2  0  0  0  0
  9  6  1  0  0  0  0
 10  7  1  0  0  0  0
 11 17  1  0  0  0  0
 11 12  1  0  0  0  0
 12 18  1  0  0  0  0
 13 12  2  0  0  0  0
 13 19  1  0  0  0  0
 14 13  1  0  0  0  0
 15 16  1  0  0  0  0
 15 14  2  0  0  0  0
 16 11  2  0  0  0  0
 20 22  2  0  0  0  0
 21 20  1  0  0  0  0
M  END
>  <minimizedAffinity>
-4.14575815

$$$$

 OpenBabel03272510183D

 22 23  0  0  0  0  0  0  0  0999 V2000
   38.7560   25.1070   33.7890 Br  0  0  0  0  0  0  0  0  0  0  0  0
   37.7290   23.5340   33.4900 C   0  0  0  0  0  0  0  0  0  0  0  0
   37.6980   22.5150   34.4190 C   0  0  0  0  0  0  0  0  0  0  0  0
   36.9240   21.4010   34.1270 C   0  0  0  0  0  0  0  0  0  0  0  0
   36.1940   21.2690   32.9620 C   0  0  0  0  0  0  0  0  0  0  0  0
   36.2480   22.3080   32.0560 C   0  0  0  0  0  0  0  0  0  0  0  0
   37.0110   23.4220   32.3310 C   0  0  0  0  0  0  0  0  0  0  0  0
   36.9340   20.6360   34.8820 H   0  0  0  0  0  0  0  0  0  0  0  0
   35.6860   22.2310   31.1360 H   0  0  0  0  0  0  0  0  0  0  0  0
   37.0480   24.2340   31.6120 H   0  0  0  0  0  0  0  0  0  0  0  0
   40.4380   22.1730   36.7950 C   0  0  0  0  0  0  0  0  0  0  0  0
   39.9460   22.7690   37.9840 C   0  0  0  0  0  0  0  0  0  0  0  0
   38.6570   23.2830   37.9340 C   0  0  0  0  0  0  0  0  0  0  0  0
   37.9330   23.1960   36.7740 N   0  0  0  0  0  0  0  0  0  0  0  0
   38.4510   22.6130   35.6560 C   0  0  0  0  0  0  0  0  0  0  0  0
   39.6950   22.1130   35.6870 N   0  0  0  0  0  0  0  0  0  0  0  0
   41.4480   21.7380   36.7320 H   0  0  0  0  0  0  0  0  0  0  0  0
   40.5880   22.7880   38.8410 H   0  0  0  0  0  0  0  0  0  0  0  0
   38.2570   23.7410   38.8260 H   0  0  0  0  0  0  0  0  0  0  0  0
   35.3990   20.0610   32.7220 C   0  0  0  0  0  0  0  0  0  0  0  0
   35.7860   19.1310   33.1210 H   0  0  0  0  0  0  0  0  0  0  0  0
   34.3300   20.2550   32.0610 O   0  0  0  0  0  0  0  0  0  0  0  0
  2  1  1  0  0  0  0
  2  3  1  0  0  0  0
  3 15  1  0  0  0  0
  4  3  2  0  0  0  0
  4  8  1  0  0  0  0
  5  4  1  0  0  0  0
  6  7  1  0  0  0  0
  6  5  2  0  0  0  0
  7  2  2  0  0  0  0
  9  6  1  0  0  0  0
 10  7  1  0  0  0  0
 11 12  1  0  0  0  0
 12 18  1  0  0  0  0
 13 12  2  0  0  0  0
 13 19  1  0  0  0  0
 14 13  1  0  0  0  0
 15 16  1  0  0  0  0
 15 14  2  0  0  0  0
 16 11  2  0  0  0  0
 17 11  1  0  0  0  0
 20  5  1  0  0  0  0
 20 21  1  0  0  0  0
 22 20  2  0  0  0  0
M  END
>  <minimizedAffinity>
-4.07100201

$$$$

 OpenBabel03272510183D

 22 23  0  0  0  0  0  0  0  0999 V2000
   39.1170   23.7590   30.2800 Br  0  0  0  0  0  0  0  0  0  0  0  0
   37.6630   22.6650   30.8340 C   0  0  0  0  0  0  0  0  0  0  0  0
   36.5840   23.1990   31.5060 C   0  0  0  0  0  0  0  0  0  0  0  0
   35.5630   22.3350   31.8760 C   0  0  0  0  0  0  0  0  0  0  0  0
   35.5810   20.9810   31.6050 C   0  0  0  0  0  0  0  0  0  0  0  0
   36.6760   20.4810   30.9310 C   0  0  0  0  0  0  0  0  0  0  0  0
   37.6980   21.3250   30.5560 C   0  0  0  0  0  0  0  0  0  0  0  0
   34.7460   22.8000   32.3970 H   0  0  0  0  0  0  0  0  0  0  0  0
   36.7160   19.4240   30.7060 H   0  0  0  0  0  0  0  0  0  0  0  0
   38.5560   20.9230   30.0270 H   0  0  0  0  0  0  0  0  0  0  0  0
   37.1330   26.3530   33.2460 C   0  0  0  0  0  0  0  0  0  0  0  0
   36.4560   27.3130   32.4510 C   0  0  0  0  0  0  0  0  0  0  0  0
   35.8160   26.8370   31.3150 C   0  0  0  0  0  0  0  0  0  0  0  0
   35.8600   25.5010   31.0140 N   0  0  0  0  0  0  0  0  0  0  0  0
   36.5260   24.6170   31.8110 C   0  0  0  0  0  0  0  0  0  0  0  0
   37.1500   25.0600   32.9130 N   0  0  0  0  0  0  0  0  0  0  0  0
   37.6710   26.6280   34.1660 H   0  0  0  0  0  0  0  0  0  0  0  0
   36.4770   28.3350   32.7700 H   0  0  0  0  0  0  0  0  0  0  0  0
   35.2920   27.5470   30.6920 H   0  0  0  0  0  0  0  0  0  0  0  0
   34.4660   20.1280   32.0270 C   0  0  0  0  0  0  0  0  0  0  0  0
   33.5020   20.6070   32.1530 H   0  0  0  0  0  0  0  0  0  0  0  0
   34.7700   18.9060   32.1980 O   0  0  0  0  0  0  0  0  0  0  0  0
  1  2  1  0  0  0  0
  2  3  1  0  0  0  0
  3 15  1  0  0  0  0
  3  4  2  0  0  0  0
  4  8  1  0  0  0  0
  5  4  1  0  0  0  0
  5 20  1  0  0  0  0
  6  5  2  0  0  0  0
  7  2  2  0  0  0  0
  7  6  1  0  0  0  0
  9  6  1  0  0  0  0
 10  7  1  0  0  0  0
 11 17  1  0  0  0  0
 12 18  1  0  0  0  0
 12 11  2  0  0  0  0
 13 12  1  0  0  0  0
 14 13  2  0  0  0  0
 14 15  1  0  0  0  0
 15 16  2  0  0  0  0
 16 11  1  0  0  0  0
 19 13  1  0  0  0  0
 20 21  1  0  0  0  0
 20 22  2  0  0  0  0
M  END
>  <minimizedAffinity>
-4.04047585

$$$$

 OpenBabel03272510183D

 22 23  0  0  0  0  0  0  0  0999 V2000
   36.1020   32.1900   35.5370 Br  0  0  0  0  0  0  0  0  0  0  0  0
   34.4410   31.3300   35.8820 C   0  0  0  0  0  0  0  0  0  0  0  0
   33.9610   30.3430   35.0470 C   0  0  0  0  0  0  0  0  0  0  0  0
   32.7410   29.7650   35.3680 C   0  0  0  0  0  0  0  0  0  0  0  0
   31.9960   30.1290   36.4720 C   0  0  0  0  0  0  0  0  0  0  0  0
   32.5070   31.1200   37.2850 C   0  0  0  0  0  0  0  0  0  0  0  0
   33.7160   31.7050   36.9810 C   0  0  0  0  0  0  0  0  0  0  0  0
   32.4120   29.0010   34.6870 H   0  0  0  0  0  0  0  0  0  0  0  0
   31.9450   31.4260   38.1570 H   0  0  0  0  0  0  0  0  0  0  0  0
   34.1100   32.4840   37.6260 H   0  0  0  0  0  0  0  0  0  0  0  0
   35.1300   30.2140   31.5990 C   0  0  0  0  0  0  0  0  0  0  0  0
   36.1130   29.1910   31.6010 C   0  0  0  0  0  0  0  0  0  0  0  0
   36.3500   28.5610   32.8150 C   0  0  0  0  0  0  0  0  0  0  0  0
   35.6470   28.9390   33.9300 N   0  0  0  0  0  0  0  0  0  0  0  0
   34.7120   29.9300   33.8760 C   0  0  0  0  0  0  0  0  0  0  0  0
   34.4710   30.5490   32.7110 N   0  0  0  0  0  0  0  0  0  0  0  0
   34.8680   30.7740   30.6880 H   0  0  0  0  0  0  0  0  0  0  0  0
   36.6080   28.9670   30.6780 H   0  0  0  0  0  0  0  0  0  0  0  0
   37.0930   27.7780   32.8450 H   0  0  0  0  0  0  0  0  0  0  0  0
   30.7140   29.4740   36.7490 C   0  0  0  0  0  0  0  0  0  0  0  0
   30.1760   29.8000   37.6300 H   0  0  0  0  0  0  0  0  0  0  0  0
   30.3830   28.5840   35.9040 O   0  0  0  0  0  0  0  0  0  0  0  0
  1  2  1  0  0  0  0
  2  7  1  0  0  0  0
  3  4  1  0  0  0  0
  3  2  2  0  0  0  0
  4  5  2  0  0  0  0
  5 20  1  0  0  0  0
  5  6  1  0  0  0  0
  6  9  1  0  0  0  0
  7  6  2  0  0  0  0
  7 10  1  0  0  0  0
  8  4  1  0  0  0  0
 11 12  2  0  0  0  0
 11 16  1  0  0  0  0
 12 13  1  0  0  0  0
 13 19  1  0  0  0  0
 13 14  2  0  0  0  0
 15 14  1  0  0  0  0
 15  3  1  0  0  0  0
 16 15  2  0  0  0  0
 17 11  1  0  0  0  0
 18 12  1  0  0  0  0
 20 21  1  0  0  0  0
 22 20  2  0  0  0  0
M  END
>  <minimizedAffinity>
-4.00413084

$$$$

 OpenBabel03272510183D

 22 23  0  0  0  0  0  0  0  0999 V2000
   40.7060   26.7460   34.4000 Br  0  0  0  0  0  0  0  0  0  0  0  0
   39.1120   26.5190   33.3870 C   0  0  0  0  0  0  0  0  0  0  0  0
   38.1610   25.5900   33.7530 C   0  0  0  0  0  0  0  0  0  0  0  0
   37.0250   25.4850   32.9620 C   0  0  0  0  0  0  0  0  0  0  0  0
   36.8090   26.2600   31.8390 C   0  0  0  0  0  0  0  0  0  0  0  0
   37.7820   27.1780   31.5030 C   0  0  0  0  0  0  0  0  0  0  0  0
   38.9160   27.2960   32.2780 C   0  0  0  0  0  0  0  0  0  0  0  0
   36.3150   24.7470   33.2890 H   0  0  0  0  0  0  0  0  0  0  0  0
   37.6390   27.7980   30.6290 H   0  0  0  0  0  0  0  0  0  0  0  0
   39.6760   28.0210   32.0060 H   0  0  0  0  0  0  0  0  0  0  0  0
   38.0130   24.4680   37.2160 C   0  0  0  0  0  0  0  0  0  0  0  0
   38.6710   23.2110   37.2040 C   0  0  0  0  0  0  0  0  0  0  0  0
   39.1580   22.7770   35.9790 C   0  0  0  0  0  0  0  0  0  0  0  0
   38.9890   23.5540   34.8630 N   0  0  0  0  0  0  0  0  0  0  0  0
   38.3480   24.7560   34.9260 C   0  0  0  0  0  0  0  0  0  0  0  0
   37.8720   25.1900   36.1020 N   0  0  0  0  0  0  0  0  0  0  0  0
   37.5910   24.9000   38.1360 H   0  0  0  0  0  0  0  0  0  0  0  0
   38.7550   22.6780   38.1290 H   0  0  0  0  0  0  0  0  0  0  0  0
   39.6640   21.8240   35.9420 H   0  0  0  0  0  0  0  0  0  0  0  0
   35.5850   26.0930   31.0510 C   0  0  0  0  0  0  0  0  0  0  0  0
   35.2150   26.9680   30.5290 H   0  0  0  0  0  0  0  0  0  0  0  0
   35.0960   24.9210   31.0750 O   0  0  0  0  0  0  0  0  0  0  0  0
  2  3  1  0  0  0  0
  2  1  1  0  0  0  0
  3 15  1  0  0  0  0
  4  8  1  0  0  0  0
  4  3  2  0  0  0  0
  5  4  1  0  0  0  0
  6  5  2  0  0  0  0
  6  7  1  0  0  0  0
  7  2  2  0  0  0  0
  9  6  1  0  0  0  0
 10  7  1  0  0  0  0
 11 17  1  0  0  0  0
 12 11  1  0  0  0  0
 12 18  1  0  0  0  0
 13 12  2  0  0  0  0
 14 15  2  0  0  0  0
 14 13  1  0  0  0  0
 15 16  1  0  0  0  0
 16 11  2  0  0  0  0
 19 13  1  0  0  0  0
 20 22  2  0  0  0  0
 20  5  1  0  0  0  0
 21 20  1  0  0  0  0
M  END
>  <minimizedAffinity>
-3.99737525

$$$$

 OpenBabel03272510183D

 22 23  0  0  0  0  0  0  0  0999 V2000
   41.8610   26.8130   33.8270 Br  0  0  0  0  0  0  0  0  0  0  0  0
   41.5430   25.2530   34.8680 C   0  0  0  0  0  0  0  0  0  0  0  0
   40.2750   24.9330   35.3050 C   0  0  0  0  0  0  0  0  0  0  0  0
   40.1260   23.7780   36.0590 C   0  0  0  0  0  0  0  0  0  0  0  0
   41.1780   22.9460   36.3890 C   0  0  0  0  0  0  0  0  0  0  0  0
   42.4330   23.2980   35.9350 C   0  0  0  0  0  0  0  0  0  0  0  0
   42.5980   24.4410   35.1850 C   0  0  0  0  0  0  0  0  0  0  0  0
   39.1190   23.5730   36.3750 H   0  0  0  0  0  0  0  0  0  0  0  0
   43.2750   22.6650   36.1780 H   0  0  0  0  0  0  0  0  0  0  0  0
   43.5890   24.7100   34.8320 H   0  0  0  0  0  0  0  0  0  0  0  0
   37.3250   26.1930   33.5770 C   0  0  0  0  0  0  0  0  0  0  0  0
   36.9610   27.3520   34.3080 C   0  0  0  0  0  0  0  0  0  0  0  0
   37.7570   27.6740   35.3990 C   0  0  0  0  0  0  0  0  0  0  0  0
   38.8320   26.8850   35.7160 N   0  0  0  0  0  0  0  0  0  0  0  0
   39.1410   25.7790   34.9810 C   0  0  0  0  0  0  0  0  0  0  0  0
   38.3820   25.4540   33.9240 N   0  0  0  0  0  0  0  0  0  0  0  0
   36.7580   25.8530   32.6960 H   0  0  0  0  0  0  0  0  0  0  0  0
   36.1040   27.9050   33.9810 H   0  0  0  0  0  0  0  0  0  0  0  0
   37.5030   28.5530   35.9730 H   0  0  0  0  0  0  0  0  0  0  0  0
   40.9450   21.7420   37.1910 C   0  0  0  0  0  0  0  0  0  0  0  0
   39.9170   21.5140   37.4460 H   0  0  0  0  0  0  0  0  0  0  0  0
   41.9980   21.0980   37.4950 O   0  0  0  0  0  0  0  0  0  0  0  0
  1  2  1  0  0  0  0
  2  7  2  0  0  0  0
  2  3  1  0  0  0  0
  3  4  2  0  0  0  0
  4  8  1  0  0  0  0
  4  5  1  0  0  0  0
  5 20  1  0  0  0  0
  6  9  1  0  0  0  0
  6  5  2  0  0  0  0
  7  6  1  0  0  0  0
 10  7  1  0  0  0  0
 11 16  2  0  0  0  0
 11 12  1  0  0  0  0
 12 13  2  0  0  0  0
 13 14  1  0  0  0  0
 13 19  1  0  0  0  0
 15  3  1  0  0  0  0
 15 14  2  0  0  0  0
 16 15  1  0  0  0  0
 17 11  1  0  0  0  0
 18 12  1  0  0  0  0
 20 21  1  0  0  0  0
 20 22  2  0  0  0  0
M  END
>  <minimizedAffinity>
-3.96035385

$$$$

 OpenBabel03272510183D

 22 23  0  0  0  0  0  0  0  0999 V2000
   37.6110   23.3830   37.3340 Br  0  0  0  0  0  0  0  0  0  0  0  0
   39.3890   23.3680   36.6580 C   0  0  0  0  0  0  0  0  0  0  0  0
   39.8030   24.2900   35.7200 C   0  0  0  0  0  0  0  0  0  0  0  0
   41.1160   24.2130   35.2770 C   0  0  0  0  0  0  0  0  0  0  0  0
   42.0140   23.2660   35.7280 C   0  0  0  0  0  0  0  0  0  0  0  0
   41.5650   22.3600   36.6670 C   0  0  0  0  0  0  0  0  0  0  0  0
   40.2640   22.4220   37.1170 C   0  0  0  0  0  0  0  0  0  0  0  0
   41.3890   24.9530   34.5460 H   0  0  0  0  0  0  0  0  0  0  0  0
   42.2460   21.6070   37.0380 H   0  0  0  0  0  0  0  0  0  0  0  0
   39.9200   21.7050   37.8560 H   0  0  0  0  0  0  0  0  0  0  0  0
   38.0070   27.4480   35.4480 C   0  0  0  0  0  0  0  0  0  0  0  0
   37.1720   27.2790   34.3140 C   0  0  0  0  0  0  0  0  0  0  0  0
   37.2530   26.0560   33.6610 C   0  0  0  0  0  0  0  0  0  0  0  0
   38.1080   25.0900   34.1230 N   0  0  0  0  0  0  0  0  0  0  0  0
   38.8910   25.3020   35.2190 C   0  0  0  0  0  0  0  0  0  0  0  0
   38.8260   26.4780   35.8610 N   0  0  0  0  0  0  0  0  0  0  0  0
   38.0180   28.3800   36.0340 H   0  0  0  0  0  0  0  0  0  0  0  0
   36.5360   28.0920   34.0310 H   0  0  0  0  0  0  0  0  0  0  0  0
   36.6270   25.9000   32.7950 H   0  0  0  0  0  0  0  0  0  0  0  0
   43.3860   23.2450   35.2140 C   0  0  0  0  0  0  0  0  0  0  0  0
   43.8170   22.2730   35.0060 H   0  0  0  0  0  0  0  0  0  0  0  0
   43.9150   24.3910   35.0730 O   0  0  0  0  0  0  0  0  0  0  0  0
  2  7  1  0  0  0  0
  2  1  1  0  0  0  0
  3  2  2  0  0  0  0
  4  3  1  0  0  0  0
  4  5  2  0  0  0  0
  5  6  1  0  0  0  0
  6  9  1  0  0  0  0
  6  7  2  0  0  0  0
  7 10  1  0  0  0  0
  8  4  1  0  0  0  0
 11 16  1  0  0  0  0
 11 17  1  0  0  0  0
 12 11  2  0  0  0  0
 13 14  2  0  0  0  0
 13 12  1  0  0  0  0
 14 15  1  0  0  0  0
 15  3  1  0  0  0  0
 15 16  2  0  0  0  0
 18 12  1  0  0  0  0
 19 13  1  0  0  0  0
 20  5  1  0  0  0  0
 21 20  1  0  0  0  0
 22 20  2  0  0  0  0
M  END
>  <minimizedAffinity>
-3.9417851

$$$$
