
 OpenBabel03272505223D

 22 23  0  0  0  0  0  0  0  0999 V2000
   37.9530   23.4870   33.4230 Br  0  0  0  0  0  0  0  0  0  0  0  0
   37.7860   25.2670   34.1220 C   0  0  0  0  0  0  0  0  0  0  0  0
   38.3510   25.5750   35.3370 C   0  0  0  0  0  0  0  0  0  0  0  0
   38.2040   26.8760   35.8020 C   0  0  0  0  0  0  0  0  0  0  0  0
   37.5170   27.8070   35.0580 C   0  0  0  0  0  0  0  0  0  0  0  0
   36.9430   27.4890   33.8210 C   0  0  0  0  0  0  0  0  0  0  0  0
   37.0960   26.1920   33.3700 C   0  0  0  0  0  0  0  0  0  0  0  0
   38.6460   27.1260   36.7580 H   0  0  0  0  0  0  0  0  0  0  0  0
   37.4190   28.8120   35.4440 H   0  0  0  0  0  0  0  0  0  0  0  0
   36.3970   28.2100   33.2190 H   0  0  0  0  0  0  0  0  0  0  0  0
   39.2390   22.9130   37.8730 C   0  0  0  0  0  0  0  0  0  0  0  0
   38.5580   23.9220   37.1910 C   0  0  0  0  0  0  0  0  0  0  0  0
   39.0560   24.5260   36.0460 C   0  0  0  0  0  0  0  0  0  0  0  0
   40.2700   24.0610   35.6280 N   0  0  0  0  0  0  0  0  0  0  0  0
   40.9260   23.0830   36.2910 C   0  0  0  0  0  0  0  0  0  0  0  0
   40.4240   22.5170   37.3920 N   0  0  0  0  0  0  0  0  0  0  0  0
   38.8470   22.4450   38.7640 H   0  0  0  0  0  0  0  0  0  0  0  0
   37.5870   24.2580   37.5720 H   0  0  0  0  0  0  0  0  0  0  0  0
   41.8810   22.8300   35.8240 H   0  0  0  0  0  0  0  0  0  0  0  0
   36.5180   25.8060   32.0870 C   0  0  0  0  0  0  0  0  0  0  0  0
   36.5750   24.7780   31.7550 H   0  0  0  0  0  0  0  0  0  0  0  0
   35.9530   26.6640   31.3590 O   0  0  0  0  0  0  0  0  0  0  0  0
  1  2  1  0  0  0  0
  2  3  1  0  0  0  0
  3  4  2  0  0  0  0
  3 13  1  0  0  0  0
  4  8  1  0  0  0  0
  5  9  1  0  0  0  0
  5  4  1  0  0  0  0
  6  5  2  0  0  0  0
  7  6  1  0  0  0  0
  7  2  2  0  0  0  0
 10  6  1  0  0  0  0
 11 17  1  0  0  0  0
 12 18  1  0  0  0  0
 12 11  2  0  0  0  0
 13 12  1  0  0  0  0
 14 13  2  0  0  0  0
 14 15  1  0  0  0  0
 15 16  2  0  0  0  0
 16 11  1  0  0  0  0
 19 15  1  0  0  0  0
 20  7  1  0  0  0  0
 21 20  1  0  0  0  0
 22 20  2  0  0  0  0
M  END
>  <minimizedAffinity>
-4.30781746

$$$$

 OpenBabel03272505223D

 22 23  0  0  0  0  0  0  0  0999 V2000
   38.5760   24.0320   33.4160 Br  0  0  0  0  0  0  0  0  0  0  0  0
   37.3210   22.5840   33.5260 C   0  0  0  0  0  0  0  0  0  0  0  0
   37.1970   21.8810   34.7020 C   0  0  0  0  0  0  0  0  0  0  0  0
   36.2750   20.8410   34.7330 C   0  0  0  0  0  0  0  0  0  0  0  0
   35.5240   20.5430   33.6210 C   0  0  0  0  0  0  0  0  0  0  0  0
   35.6540   21.2610   32.4260 C   0  0  0  0  0  0  0  0  0  0  0  0
   36.5740   22.2930   32.4070 C   0  0  0  0  0  0  0  0  0  0  0  0
   36.1720   20.2830   35.6560 H   0  0  0  0  0  0  0  0  0  0  0  0
   34.8140   19.7300   33.6740 H   0  0  0  0  0  0  0  0  0  0  0  0
   35.0700   21.0410   31.5370 H   0  0  0  0  0  0  0  0  0  0  0  0
   38.3680   23.3990   37.9620 C   0  0  0  0  0  0  0  0  0  0  0  0
   37.5630   23.0230   36.8860 C   0  0  0  0  0  0  0  0  0  0  0  0
   38.0320   22.2700   35.8200 C   0  0  0  0  0  0  0  0  0  0  0  0
   39.3490   21.9170   35.8970 N   0  0  0  0  0  0  0  0  0  0  0  0
   40.1250   22.2820   36.9400 C   0  0  0  0  0  0  0  0  0  0  0  0
   39.6490   23.0090   37.9550 N   0  0  0  0  0  0  0  0  0  0  0  0
   37.9980   23.9850   38.7900 H   0  0  0  0  0  0  0  0  0  0  0  0
   36.5120   23.3350   36.8760 H   0  0  0  0  0  0  0  0  0  0  0  0
   41.1510   21.9180   36.8440 H   0  0  0  0  0  0  0  0  0  0  0  0
   36.7490   23.0740   31.1870 C   0  0  0  0  0  0  0  0  0  0  0  0
   37.6100   22.9030   30.5540 H   0  0  0  0  0  0  0  0  0  0  0  0
   35.9040   23.9490   30.8630 O   0  0  0  0  0  0  0  0  0  0  0  0
  1  2  1  0  0  0  0
  2  3  1  0  0  0  0
  3  4  2  0  0  0  0
  3 13  1  0  0  0  0
  4  8  1  0  0  0  0
  5  9  1  0  0  0  0
  5  4  1  0  0  0  0
  6  5  2  0  0  0  0
  7  6  1  0  0  0  0
  7  2  2  0  0  0  0
 10  6  1  0  0  0  0
 11 17  1  0  0  0  0
 12 11  2  0  0  0  0
 13 14  2  0  0  0  0
 13 12  1  0  0  0  0
 14 15  1  0  0  0  0
 15 16  2  0  0  0  0
 16 11  1  0  0  0  0
 18 12  1  0  0  0  0
 19 15  1  0  0  0  0
 20  7  1  0  0  0  0
 21 20  1  0  0  0  0
 22 20  2  0  0  0  0
M  END
>  <minimizedAffinity>
-4.2282815

$$$$

 OpenBabel03272505223D

 22 23  0  0  0  0  0  0  0  0999 V2000
   32.4440   29.4270   34.2540 Br  0  0  0  0  0  0  0  0  0  0  0  0
   33.4980   30.5750   35.3740 C   0  0  0  0  0  0  0  0  0  0  0  0
   34.8430   30.7200   35.1240 C   0  0  0  0  0  0  0  0  0  0  0  0
   35.5640   31.5610   35.9620 C   0  0  0  0  0  0  0  0  0  0  0  0
   34.9390   32.2170   36.9970 C   0  0  0  0  0  0  0  0  0  0  0  0
   33.5700   32.0670   37.2480 C   0  0  0  0  0  0  0  0  0  0  0  0
   32.8630   31.2270   36.4080 C   0  0  0  0  0  0  0  0  0  0  0  0
   36.6240   31.6790   35.7720 H   0  0  0  0  0  0  0  0  0  0  0  0
   35.5250   32.8650   37.6320 H   0  0  0  0  0  0  0  0  0  0  0  0
   33.0580   32.5760   38.0600 H   0  0  0  0  0  0  0  0  0  0  0  0
   36.5810   28.0530   33.0810 C   0  0  0  0  0  0  0  0  0  0  0  0
   36.0330   28.7570   34.1550 C   0  0  0  0  0  0  0  0  0  0  0  0
   35.4110   29.9870   34.0100 C   0  0  0  0  0  0  0  0  0  0  0  0
   35.3700   30.4690   32.7330 N   0  0  0  0  0  0  0  0  0  0  0  0
   35.9010   29.7840   31.6960 C   0  0  0  0  0  0  0  0  0  0  0  0
   36.4960   28.6000   31.8620 N   0  0  0  0  0  0  0  0  0  0  0  0
   37.0640   27.0950   33.1980 H   0  0  0  0  0  0  0  0  0  0  0  0
   36.0960   28.3230   35.1590 H   0  0  0  0  0  0  0  0  0  0  0  0
   35.7820   30.3100   30.7450 H   0  0  0  0  0  0  0  0  0  0  0  0
   31.4330   31.0350   36.6240 C   0  0  0  0  0  0  0  0  0  0  0  0
   31.0490   30.0510   36.8600 H   0  0  0  0  0  0  0  0  0  0  0  0
   30.6380   32.0080   36.5380 O   0  0  0  0  0  0  0  0  0  0  0  0
  1  2  1  0  0  0  0
  2  7  1  0  0  0  0
  3  2  2  0  0  0  0
  3  4  1  0  0  0  0
  4  5  2  0  0  0  0
  5  6  1  0  0  0  0
  5  9  1  0  0  0  0
  6 10  1  0  0  0  0
  7 20  1  0  0  0  0
  7  6  2  0  0  0  0
  8  4  1  0  0  0  0
 11 17  1  0  0  0  0
 11 12  1  0  0  0  0
 12 18  1  0  0  0  0
 13 12  2  0  0  0  0
 13  3  1  0  0  0  0
 14 13  1  0  0  0  0
 15 16  1  0  0  0  0
 15 14  2  0  0  0  0
 16 11  2  0  0  0  0
 19 15  1  0  0  0  0
 20 21  1  0  0  0  0
 22 20  2  0  0  0  0
M  END
>  <minimizedAffinity>
-4.22153997

$$$$

 OpenBabel03272505223D

 22 23  0  0  0  0  0  0  0  0999 V2000
   40.8870   23.6320   34.2880 Br  0  0  0  0  0  0  0  0  0  0  0  0
   39.7680   23.7170   35.8450 C   0  0  0  0  0  0  0  0  0  0  0  0
   38.6160   24.4680   35.8130 C   0  0  0  0  0  0  0  0  0  0  0  0
   37.8390   24.4990   36.9640 C   0  0  0  0  0  0  0  0  0  0  0  0
   38.2230   23.7990   38.0840 C   0  0  0  0  0  0  0  0  0  0  0  0
   39.3970   23.0360   38.1120 C   0  0  0  0  0  0  0  0  0  0  0  0
   40.1620   23.0130   36.9610 C   0  0  0  0  0  0  0  0  0  0  0  0
   36.9300   25.0880   36.9460 H   0  0  0  0  0  0  0  0  0  0  0  0
   37.5990   23.8410   38.9640 H   0  0  0  0  0  0  0  0  0  0  0  0
   39.7180   22.4760   38.9860 H   0  0  0  0  0  0  0  0  0  0  0  0
   38.2980   27.1790   33.1960 C   0  0  0  0  0  0  0  0  0  0  0  0
   38.6090   26.5040   34.3760 C   0  0  0  0  0  0  0  0  0  0  0  0
   38.2940   25.1700   34.5870 C   0  0  0  0  0  0  0  0  0  0  0  0
   37.6530   24.5560   33.5490 N   0  0  0  0  0  0  0  0  0  0  0  0
   37.3540   25.2130   32.4070 C   0  0  0  0  0  0  0  0  0  0  0  0
   37.6680   26.5000   32.2290 N   0  0  0  0  0  0  0  0  0  0  0  0
   38.5460   28.2190   33.0360 H   0  0  0  0  0  0  0  0  0  0  0  0
   39.1240   27.0470   35.1780 H   0  0  0  0  0  0  0  0  0  0  0  0
   36.8420   24.5770   31.6810 H   0  0  0  0  0  0  0  0  0  0  0  0
   41.3950   22.2340   36.9360 C   0  0  0  0  0  0  0  0  0  0  0  0
   42.1870   22.4960   36.2460 H   0  0  0  0  0  0  0  0  0  0  0  0
   41.5470   21.2550   37.7130 O   0  0  0  0  0  0  0  0  0  0  0  0
  1  2  1  0  0  0  0
  2  7  1  0  0  0  0
  3  2  2  0  0  0  0
  3  4  1  0  0  0  0
  4  5  2  0  0  0  0
  5  6  1  0  0  0  0
  5  9  1  0  0  0  0
  6 10  1  0  0  0  0
  7  6  2  0  0  0  0
  8  4  1  0  0  0  0
 11 12  1  0  0  0  0
 12 13  2  0  0  0  0
 12 18  1  0  0  0  0
 13  3  1  0  0  0  0
 14 13  1  0  0  0  0
 15 14  2  0  0  0  0
 16 15  1  0  0  0  0
 16 11  2  0  0  0  0
 17 11  1  0  0  0  0
 19 15  1  0  0  0  0
 20  7  1  0  0  0  0
 20 22  2  0  0  0  0
 21 20  1  0  0  0  0
M  END
>  <minimizedAffinity>
-4.20699787

$$$$

 OpenBabel03272505223D

 22 23  0  0  0  0  0  0  0  0999 V2000
   39.2580   26.7540   35.2590 Br  0  0  0  0  0  0  0  0  0  0  0  0
   38.5910   25.4540   34.0130 C   0  0  0  0  0  0  0  0  0  0  0  0
   38.3050   24.1810   34.4490 C   0  0  0  0  0  0  0  0  0  0  0  0
   37.8240   23.2760   33.5110 C   0  0  0  0  0  0  0  0  0  0  0  0
   37.6480   23.6570   32.2010 C   0  0  0  0  0  0  0  0  0  0  0  0
   37.9420   24.9530   31.7620 C   0  0  0  0  0  0  0  0  0  0  0  0
   38.4190   25.8450   32.7050 C   0  0  0  0  0  0  0  0  0  0  0  0
   37.5960   22.2710   33.8470 H   0  0  0  0  0  0  0  0  0  0  0  0
   37.2730   22.9310   31.4940 H   0  0  0  0  0  0  0  0  0  0  0  0
   37.8090   25.2740   30.7330 H   0  0  0  0  0  0  0  0  0  0  0  0
   39.8450   22.8930   37.6540 C   0  0  0  0  0  0  0  0  0  0  0  0
   39.6370   23.1880   36.3060 C   0  0  0  0  0  0  0  0  0  0  0  0
   38.5230   23.8750   35.8480 C   0  0  0  0  0  0  0  0  0  0  0  0
   37.6340   24.2460   36.8170 N   0  0  0  0  0  0  0  0  0  0  0  0
   37.8390   23.9590   38.1200 C   0  0  0  0  0  0  0  0  0  0  0  0
   38.9220   23.2950   38.5360 N   0  0  0  0  0  0  0  0  0  0  0  0
   40.7150   22.3580   38.0060 H   0  0  0  0  0  0  0  0  0  0  0  0
   40.3830   22.8650   35.5710 H   0  0  0  0  0  0  0  0  0  0  0  0
   37.0340   24.3270   38.7610 H   0  0  0  0  0  0  0  0  0  0  0  0
   38.7400   27.2100   32.3010 C   0  0  0  0  0  0  0  0  0  0  0  0
   39.7730   27.5240   32.2300 H   0  0  0  0  0  0  0  0  0  0  0  0
   37.8220   28.0290   32.0340 O   0  0  0  0  0  0  0  0  0  0  0  0
  2  3  1  0  0  0  0
  2  1  1  0  0  0  0
  3 13  1  0  0  0  0
  4  8  1  0  0  0  0
  4  3  2  0  0  0  0
  5  4  1  0  0  0  0
  6  5  2  0  0  0  0
  6  7  1  0  0  0  0
  7  2  2  0  0  0  0
  9  5  1  0  0  0  0
 10  6  1  0  0  0  0
 11 17  1  0  0  0  0
 11 16  1  0  0  0  0
 12 11  2  0  0  0  0
 13 12  1  0  0  0  0
 13 14  2  0  0  0  0
 14 15  1  0  0  0  0
 15 16  2  0  0  0  0
 15 19  1  0  0  0  0
 18 12  1  0  0  0  0
 20  7  1  0  0  0  0
 21 20  1  0  0  0  0
 22 20  2  0  0  0  0
M  END
>  <minimizedAffinity>
-4.06338739

$$$$

 OpenBabel03272505223D

 22 23  0  0  0  0  0  0  0  0999 V2000
   37.4340   24.4880   32.4810 Br  0  0  0  0  0  0  0  0  0  0  0  0
   37.8150   25.4770   34.0810 C   0  0  0  0  0  0  0  0  0  0  0  0
   37.7900   26.8520   34.0520 C   0  0  0  0  0  0  0  0  0  0  0  0
   38.0720   27.5250   35.2340 C   0  0  0  0  0  0  0  0  0  0  0  0
   38.3630   26.8240   36.3810 C   0  0  0  0  0  0  0  0  0  0  0  0
   38.3890   25.4240   36.4070 C   0  0  0  0  0  0  0  0  0  0  0  0
   38.1060   24.7670   35.2240 C   0  0  0  0  0  0  0  0  0  0  0  0
   38.0540   28.6070   35.2190 H   0  0  0  0  0  0  0  0  0  0  0  0
   38.5790   27.3730   37.2860 H   0  0  0  0  0  0  0  0  0  0  0  0
   38.6160   24.8520   37.3020 H   0  0  0  0  0  0  0  0  0  0  0  0
   35.9070   28.6240   31.2910 C   0  0  0  0  0  0  0  0  0  0  0  0
   36.2120   28.0000   32.5010 C   0  0  0  0  0  0  0  0  0  0  0  0
   37.4710   27.5010   32.7950 C   0  0  0  0  0  0  0  0  0  0  0  0
   38.4030   27.6640   31.8100 N   0  0  0  0  0  0  0  0  0  0  0  0
   38.1040   28.2690   30.6400 C   0  0  0  0  0  0  0  0  0  0  0  0
   36.8810   28.7410   30.3800 N   0  0  0  0  0  0  0  0  0  0  0  0
   34.9240   29.0110   31.0660 H   0  0  0  0  0  0  0  0  0  0  0  0
   35.4250   27.8950   33.2570 H   0  0  0  0  0  0  0  0  0  0  0  0
   38.9610   28.3170   29.9640 H   0  0  0  0  0  0  0  0  0  0  0  0
   38.1190   23.3080   35.1940 C   0  0  0  0  0  0  0  0  0  0  0  0
   38.6030   22.7870   34.3790 H   0  0  0  0  0  0  0  0  0  0  0  0
   37.5670   22.6470   36.1130 O   0  0  0  0  0  0  0  0  0  0  0  0
  1  2  1  0  0  0  0
  2  7  1  0  0  0  0
  3  2  2  0  0  0  0
  3  4  1  0  0  0  0
  4  5  2  0  0  0  0
  5  6  1  0  0  0  0
  5  9  1  0  0  0  0
  6 10  1  0  0  0  0
  7  6  2  0  0  0  0
  8  4  1  0  0  0  0
 11 12  1  0  0  0  0
 12 13  2  0  0  0  0
 12 18  1  0  0  0  0
 13  3  1  0  0  0  0
 14 13  1  0  0  0  0
 15 14  2  0  0  0  0
 16 15  1  0  0  0  0
 16 11  2  0  0  0  0
 17 11  1  0  0  0  0
 19 15  1  0  0  0  0
 20  7  1  0  0  0  0
 20 22  2  0  0  0  0
 21 20  1  0  0  0  0
M  END
>  <minimizedAffinity>
-4.04916477

$$$$

 OpenBabel03272505223D

 22 23  0  0  0  0  0  0  0  0999 V2000
   36.0690   32.2590   35.1930 Br  0  0  0  0  0  0  0  0  0  0  0  0
   34.4310   31.4180   35.7360 C   0  0  0  0  0  0  0  0  0  0  0  0
   33.9700   30.3220   35.0460 C   0  0  0  0  0  0  0  0  0  0  0  0
   32.7800   29.7470   35.4760 C   0  0  0  0  0  0  0  0  0  0  0  0
   32.1050   30.2680   36.5550 C   0  0  0  0  0  0  0  0  0  0  0  0
   32.5790   31.3850   37.2540 C   0  0  0  0  0  0  0  0  0  0  0  0
   33.7630   31.9480   36.8170 C   0  0  0  0  0  0  0  0  0  0  0  0
   32.4100   28.8830   34.9370 H   0  0  0  0  0  0  0  0  0  0  0  0
   31.1830   29.8010   36.8670 H   0  0  0  0  0  0  0  0  0  0  0  0
   32.0600   31.8120   38.1080 H   0  0  0  0  0  0  0  0  0  0  0  0
   36.4810   28.4100   32.9610 C   0  0  0  0  0  0  0  0  0  0  0  0
   35.7280   28.8670   34.0430 C   0  0  0  0  0  0  0  0  0  0  0  0
   34.7520   29.8450   33.9220 C   0  0  0  0  0  0  0  0  0  0  0  0
   34.5750   30.3330   32.6590 N   0  0  0  0  0  0  0  0  0  0  0  0
   35.3060   29.8870   31.6140 C   0  0  0  0  0  0  0  0  0  0  0  0
   36.2410   28.9440   31.7570 N   0  0  0  0  0  0  0  0  0  0  0  0
   37.2400   27.6480   33.0600 H   0  0  0  0  0  0  0  0  0  0  0  0
   35.9120   28.4400   35.0360 H   0  0  0  0  0  0  0  0  0  0  0  0
   35.0380   30.3820   30.6770 H   0  0  0  0  0  0  0  0  0  0  0  0
   34.3020   33.1130   37.5100 C   0  0  0  0  0  0  0  0  0  0  0  0
   35.3660   33.1930   37.6880 H   0  0  0  0  0  0  0  0  0  0  0  0
   33.5350   34.0300   37.9060 O   0  0  0  0  0  0  0  0  0  0  0  0
  1  2  1  0  0  0  0
  2  7  1  0  0  0  0
  3  4  1  0  0  0  0
  3  2  2  0  0  0  0
  4  5  2  0  0  0  0
  5  9  1  0  0  0  0
  5  6  1  0  0  0  0
  6 10  1  0  0  0  0
  7  6  2  0  0  0  0
  7 20  1  0  0  0  0
  8  4  1  0  0  0  0
 11 17  1  0  0  0  0
 11 12  1  0  0  0  0
 12 18  1  0  0  0  0
 13 12  2  0  0  0  0
 13  3  1  0  0  0  0
 14 13  1  0  0  0  0
 15 16  1  0  0  0  0
 15 14  2  0  0  0  0
 16 11  2  0  0  0  0
 19 15  1  0  0  0  0
 20 21  1  0  0  0  0
 20 22  2  0  0  0  0
M  END
>  <minimizedAffinity>
-4.01684093

$$$$

 OpenBabel03272505223D

 22 23  0  0  0  0  0  0  0  0999 V2000
   38.1490   23.0440   33.4970 Br  0  0  0  0  0  0  0  0  0  0  0  0
   37.0040   24.2060   32.4840 C   0  0  0  0  0  0  0  0  0  0  0  0
   36.0540   23.6640   31.6500 C   0  0  0  0  0  0  0  0  0  0  0  0
   35.2490   24.5440   30.9380 C   0  0  0  0  0  0  0  0  0  0  0  0
   35.4110   25.9030   31.0750 C   0  0  0  0  0  0  0  0  0  0  0  0
   36.3800   26.4500   31.9250 C   0  0  0  0  0  0  0  0  0  0  0  0
   37.1750   25.5640   32.6280 C   0  0  0  0  0  0  0  0  0  0  0  0
   34.4980   24.1250   30.2790 H   0  0  0  0  0  0  0  0  0  0  0  0
   34.7710   26.5640   30.5090 H   0  0  0  0  0  0  0  0  0  0  0  0
   36.5240   27.5200   32.0470 H   0  0  0  0  0  0  0  0  0  0  0  0
   34.9410   20.0940   32.2200 C   0  0  0  0  0  0  0  0  0  0  0  0
   35.0310   21.4850   32.2950 C   0  0  0  0  0  0  0  0  0  0  0  0
   35.9590   22.2200   31.5730 C   0  0  0  0  0  0  0  0  0  0  0  0
   36.7860   21.4830   30.7750 N   0  0  0  0  0  0  0  0  0  0  0  0
   36.6960   20.1370   30.7050 C   0  0  0  0  0  0  0  0  0  0  0  0
   35.7930   19.4510   31.4120 N   0  0  0  0  0  0  0  0  0  0  0  0
   34.2160   19.5260   32.7850 H   0  0  0  0  0  0  0  0  0  0  0  0
   34.3420   22.0260   32.9530 H   0  0  0  0  0  0  0  0  0  0  0  0
   37.4300   19.7040   30.0210 H   0  0  0  0  0  0  0  0  0  0  0  0
   38.2000   26.0810   33.5280 C   0  0  0  0  0  0  0  0  0  0  0  0
   38.3830   25.5940   34.4770 H   0  0  0  0  0  0  0  0  0  0  0  0
   38.8770   27.0940   33.2090 O   0  0  0  0  0  0  0  0  0  0  0  0
  2  7  1  0  0  0  0
  2  1  1  0  0  0  0
  3  2  2  0  0  0  0
  4  5  2  0  0  0  0
  4  3  1  0  0  0  0
  5  6  1  0  0  0  0
  6 10  1  0  0  0  0
  6  7  2  0  0  0  0
  7 20  1  0  0  0  0
  8  4  1  0  0  0  0
  9  5  1  0  0  0  0
 11 12  1  0  0  0  0
 11 17  1  0  0  0  0
 12 18  1  0  0  0  0
 13  3  1  0  0  0  0
 13 12  2  0  0  0  0
 14 13  1  0  0  0  0
 15 14  2  0  0  0  0
 15 16  1  0  0  0  0
 16 11  2  0  0  0  0
 19 15  1  0  0  0  0
 20 21  1  0  0  0  0
 22 20  2  0  0  0  0
M  END
>  <minimizedAffinity>
-4.00682354

$$$$

 OpenBabel03272505223D

 22 23  0  0  0  0  0  0  0  0999 V2000
   39.8070   26.3000   31.6440 Br  0  0  0  0  0  0  0  0  0  0  0  0
   38.9670   26.8460   33.2820 C   0  0  0  0  0  0  0  0  0  0  0  0
   39.6990   26.8630   34.4460 C   0  0  0  0  0  0  0  0  0  0  0  0
   39.0490   27.2640   35.6070 C   0  0  0  0  0  0  0  0  0  0  0  0
   37.7230   27.6290   35.5710 C   0  0  0  0  0  0  0  0  0  0  0  0
   36.9820   27.6100   34.3830 C   0  0  0  0  0  0  0  0  0  0  0  0
   37.6400   27.2080   33.2360 C   0  0  0  0  0  0  0  0  0  0  0  0
   39.6180   27.2800   36.5280 H   0  0  0  0  0  0  0  0  0  0  0  0
   37.2430   27.9380   36.4890 H   0  0  0  0  0  0  0  0  0  0  0  0
   35.9350   27.8940   34.3350 H   0  0  0  0  0  0  0  0  0  0  0  0
   42.8820   24.8450   34.7700 C   0  0  0  0  0  0  0  0  0  0  0  0
   41.5420   25.2290   34.8300 C   0  0  0  0  0  0  0  0  0  0  0  0
   41.0900   26.4620   34.3830 C   0  0  0  0  0  0  0  0  0  0  0  0
   42.0560   27.2810   33.8730 N   0  0  0  0  0  0  0  0  0  0  0  0
   43.3520   26.9060   33.8150 C   0  0  0  0  0  0  0  0  0  0  0  0
   43.7620   25.7120   34.2540 N   0  0  0  0  0  0  0  0  0  0  0  0
   43.2290   23.8840   35.1190 H   0  0  0  0  0  0  0  0  0  0  0  0
   40.8090   24.5310   35.2500 H   0  0  0  0  0  0  0  0  0  0  0  0
   43.9920   27.6780   33.3810 H   0  0  0  0  0  0  0  0  0  0  0  0
   36.9150   27.1700   31.9700 C   0  0  0  0  0  0  0  0  0  0  0  0
   37.1380   27.8930   31.1970 H   0  0  0  0  0  0  0  0  0  0  0  0
   36.0270   26.3000   31.7700 O   0  0  0  0  0  0  0  0  0  0  0  0
  1  2  1  0  0  0  0
  2  3  1  0  0  0  0
  3  4  2  0  0  0  0
  4  8  1  0  0  0  0
  5  4  1  0  0  0  0
  5  9  1  0  0  0  0
  6  5  2  0  0  0  0
  7  2  2  0  0  0  0
  7  6  1  0  0  0  0
 10  6  1  0  0  0  0
 11 12  1  0  0  0  0
 11 17  1  0  0  0  0
 12 18  1  0  0  0  0
 13  3  1  0  0  0  0
 13 12  2  0  0  0  0
 14 13  1  0  0  0  0
 15 14  2  0  0  0  0
 15 16  1  0  0  0  0
 16 11  2  0  0  0  0
 19 15  1  0  0  0  0
 20  7  1  0  0  0  0
 21 20  1  0  0  0  0
 22 20  2  0  0  0  0
M  END
>  <minimizedAffinity>
-3.99745345

$$$$
