REMARK  Name = 
REMARK  2 active torsions:
REMARK  status: ('A' for Active; 'I' for Inactive)
REMARK    1  A    between atoms: C_5  and  C_9
REMARK    2  A    between atoms: C_11  and  C_20
REMARK                            x       y       z     vdW  Elec       q    Type
REMARK                         _______ _______ _______ _____ _____    ______ ____
ROOT
ATOM      1 BR   UNL     1      37.264  29.355  51.053  0.00  0.00    +0.000 Br
ATOM      2  C   UNL     1      35.960  29.318  49.669  0.00  0.00    +0.000 A 
ATOM      3  C   UNL     1      36.004  30.216  48.623  0.00  0.00    +0.000 A 
ATOM      4  C   UNL     1      35.016  30.123  47.653  0.00  0.00    +0.000 A 
ATOM      5  C   UNL     1      34.004  29.184  47.688  0.00  0.00    +0.000 A 
ATOM      6  C   UNL     1      33.992  28.302  48.749  0.00  0.00    +0.000 A 
ATOM      7  C   UNL     1      34.965  28.380  49.721  0.00  0.00    +0.000 A 
ATOM      8  H   UNL     1      35.095  30.845  46.860  0.00  0.00    +0.000 HD
ATOM      9  H   UNL     1      33.211  27.556  48.802  0.00  0.00    +0.000 HD
ATOM     10  H   UNL     1      34.947  27.682  50.552  0.00  0.00    +0.000 HD
ENDROOT
BRANCH   3  15
ATOM     11  C   UNL     1      37.983  33.166  49.431  0.00  0.00    +0.000 A 
ATOM     12  C   UNL     1      39.020  33.167  48.463  0.00  0.00    +0.000 A 
ATOM     13  C   UNL     1      39.008  32.130  47.540  0.00  0.00    +0.000 A 
ATOM     14  N   UNL     1      38.026  31.176  47.597  0.00  0.00    +0.000 NA
ATOM     15  C   UNL     1      37.050  31.219  48.548  0.00  0.00    +0.000 A 
ATOM     16  N   UNL     1      37.047  32.214  49.448  0.00  0.00    +0.000 NA
ATOM     17  H   UNL     1      37.904  33.944  50.206  0.00  0.00    +0.000 HD
ATOM     18  H   UNL     1      39.742  33.957  48.499  0.00  0.00    +0.000 HD
ATOM     19  H   UNL     1      39.786  32.107  46.791  0.00  0.00    +0.000 HD
ENDBRANCH   3  15
BRANCH   5  20
ATOM     20  C   UNL     1      32.994  29.146  46.627  0.00  0.00    +0.000 C 
ATOM     21  H   UNL     1      32.741  28.172  46.224  0.00  0.00    +0.000 HD
ATOM     22  O   UNL     1      32.528  30.282  46.300  0.00  0.00    +0.000 OA
ENDBRANCH   5  20
TORSDOF 2
