
 OpenBabel03272506463D

 36 38  0  0  1  0  0  0  0  0999 V2000
   32.1690   28.5320   47.4370 C   0  0  2  0  0  0  0  0  0  0  0  0
   33.4180   28.3460   48.2460 C   0  0  1  0  0  0  0  0  0  0  0  0
   33.8010   27.0430   48.1350 O   0  0  0  0  0  0  0  0  0  0  0  0
   33.0780   26.4380   47.1140 C   0  0  0  0  0  0  0  0  0  0  0  0
   32.4790   27.5380   46.2740 C   0  0  1  0  0  0  0  0  0  0  0  0
   31.2450   28.1940   47.8960 H   0  0  0  0  0  0  0  0  0  0  0  0
   33.3030   28.6090   49.3160 H   0  0  0  0  0  0  0  0  0  0  0  0
   32.3820   25.7570   47.5830 H   0  0  0  0  0  0  0  0  0  0  0  0
   33.7590   25.8040   46.4890 H   0  0  0  0  0  0  0  0  0  0  0  0
   33.2040   28.0310   45.6200 H   0  0  0  0  0  0  0  0  0  0  0  0
   32.1060   29.8410   46.9130 O   0  0  0  0  0  0  0  0  0  0  0  0
   31.5870   30.3480   47.5790 H   0  0  0  0  0  0  0  0  0  0  0  0
   34.7330   29.3830   47.4800 S   0  0  0  0  0  0  0  0  0  0  0  0
   37.1310   29.3000   50.6370 C   0  0  0  0  0  0  0  0  0  0  0  0
   37.6340   30.5990   50.7370 C   0  0  0  0  0  0  0  0  0  0  0  0
   37.2130   31.5430   49.7860 C   0  0  0  0  0  0  0  0  0  0  0  0
   36.3470   31.1420   48.8280 N   0  0  0  0  0  0  0  0  0  0  0  0
   35.8800   29.8770   48.7600 C   0  0  0  0  0  0  0  0  0  0  0  0
   36.2660   28.9390   49.6640 N   0  0  0  0  0  0  0  0  0  0  0  0
   37.4770   28.6000   51.3870 H   0  0  0  0  0  0  0  0  0  0  0  0
   38.3280   30.8900   51.5180 H   0  0  0  0  0  0  0  0  0  0  0  0
   37.5810   32.5570   49.8320 H   0  0  0  0  0  0  0  0  0  0  0  0
   31.3200   27.0830   45.6940 O   0  0  0  0  0  0  0  0  0  0  0  0
   29.8410   29.2230   44.3180 Cl  0  0  0  0  0  0  0  0  0  0  0  0
   29.3060   28.1960   45.6260 C   0  0  0  0  0  0  0  0  0  0  0  0
   30.0910   27.2130   46.1830 C   0  0  0  0  0  0  0  0  0  0  0  0
   29.5410   26.4350   47.2030 C   0  0  0  0  0  0  0  0  0  0  0  0
   28.2490   26.6520   47.6340 C   0  0  0  0  0  0  0  0  0  0  0  0
   27.4520   27.6390   47.0810 C   0  0  0  0  0  0  0  0  0  0  0  0
   28.0060   28.4090   46.0660 C   0  0  0  0  0  0  0  0  0  0  0  0
   30.0720   25.6400   47.6960 H   0  0  0  0  0  0  0  0  0  0  0  0
   27.7580   26.0920   48.4170 H   0  0  0  0  0  0  0  0  0  0  0  0
   26.4470   27.8360   47.3900 H   0  0  0  0  0  0  0  0  0  0  0  0
   27.1810   29.4570   45.4690 C   0  0  0  0  0  0  0  0  0  0  0  0
   27.2790   30.4870   45.7840 H   0  0  0  0  0  0  0  0  0  0  0  0
   26.3400   29.1830   44.5770 O   0  0  0  0  0  0  0  0  0  0  0  0
  1  6  1  1  0  0  0
  1  2  1  0  0  0  0
  2  7  1  1  0  0  0
  3  2  1  0  0  0  0
  4  8  1  0  0  0  0
  4  3  1  0  0  0  0
  5 10  1  6  0  0  0
  5  4  1  0  0  0  0
  5  1  1  0  0  0  0
  9  4  1  0  0  0  0
 11  1  1  0  0  0  0
 11 12  1  0  0  0  0
 13  2  1  0  0  0  0
 13 18  1  0  0  0  0
 14 15  1  0  0  0  0
 14 20  1  0  0  0  0
 15 21  1  0  0  0  0
 16 22  1  0  0  0  0
 16 15  2  0  0  0  0
 17 16  1  0  0  0  0
 18 17  2  0  0  0  0
 18 19  1  0  0  0  0
 19 14  2  0  0  0  0
 23 26  1  0  0  0  0
 23  5  1  0  0  0  0
 24 25  1  0  0  0  0
 25 30  2  0  0  0  0
 25 26  1  0  0  0  0
 26 27  2  0  0  0  0
 27 28  1  0  0  0  0
 27 31  1  0  0  0  0
 28 32  1  0  0  0  0
 29 33  1  0  0  0  0
 29 28  2  0  0  0  0
 30 29  1  0  0  0  0
 34 35  1  0  0  0  0
 34 30  1  0  0  0  0
 36 34  2  0  0  0  0
M  END
>  <minimizedAffinity>
-4.60013866

>  <minimizedRMSD>
0.132125482

$$$$
