
 OpenBabel03272501093D

 34 36  0  0  1  0  0  0  0  0999 V2000
   38.0810   26.2140   34.5890 C   0  0  2  0  0  0  0  0  0  0  0  0
   38.4280   25.8600   33.1190 C   0  0  2  0  0  0  0  0  0  0  0  0
   39.2870   26.9760   32.7490 C   0  0  0  0  0  0  0  0  0  0  0  0
   40.0350   27.3230   33.8690 O   0  0  0  0  0  0  0  0  0  0  0  0
   39.5030   26.7120   34.9570 C   0  0  0  0  0  0  0  0  0  0  0  0
   37.3830   27.0500   34.6140 H   0  0  0  0  0  0  0  0  0  0  0  0
   39.0150   24.8960   33.1920 H   0  0  0  0  0  0  0  0  0  0  0  0
   38.8080   27.8510   32.3060 H   0  0  0  0  0  0  0  0  0  0  0  0
   40.0180   26.6160   31.9670 H   0  0  0  0  0  0  0  0  0  0  0  0
   39.3160   27.4840   35.7330 H   0  0  0  0  0  0  0  0  0  0  0  0
   40.1000   25.9120   35.3980 H   0  0  0  0  0  0  0  0  0  0  0  0
   35.6720   24.1140   31.2350 C   0  0  0  0  0  0  0  0  0  0  0  0
   36.8400   24.2810   32.0290 C   0  0  0  0  0  0  0  0  0  0  0  0
   37.2450   25.6110   32.3230 C   0  0  0  0  0  0  0  0  0  0  0  0
   36.5010   26.6670   31.8350 N   0  0  0  0  0  0  0  0  0  0  0  0
   35.4110   26.4540   31.0940 C   0  0  0  0  0  0  0  0  0  0  0  0
   34.9870   25.2000   30.7870 N   0  0  0  0  0  0  0  0  0  0  0  0
   35.4040   23.0900   31.0380 H   0  0  0  0  0  0  0  0  0  0  0  0
   37.3710   23.4220   32.3740 H   0  0  0  0  0  0  0  0  0  0  0  0
   34.7990   27.2470   30.6900 H   0  0  0  0  0  0  0  0  0  0  0  0
   37.7920   25.1160   35.3290 O   0  0  0  0  0  0  0  0  0  0  0  0
   40.0310   23.1130   34.6290 Cl  0  0  0  0  0  0  0  0  0  0  0  0
   39.4070   23.4220   36.2370 C   0  0  0  0  0  0  0  0  0  0  0  0
   38.3970   24.3740   36.2770 C   0  0  0  0  0  0  0  0  0  0  0  0
   37.8980   24.6250   37.5450 C   0  0  0  0  0  0  0  0  0  0  0  0
   38.3600   23.9870   38.6740 C   0  0  0  0  0  0  0  0  0  0  0  0
   39.3650   23.0510   38.5620 C   0  0  0  0  0  0  0  0  0  0  0  0
   39.8910   22.7690   37.3360 C   0  0  0  0  0  0  0  0  0  0  0  0
   37.1110   25.3310   37.7710 H   0  0  0  0  0  0  0  0  0  0  0  0
   37.9910   24.1610   39.6720 H   0  0  0  0  0  0  0  0  0  0  0  0
   39.7870   22.5040   39.3950 H   0  0  0  0  0  0  0  0  0  0  0  0
   40.9550   21.7890   37.1660 C   0  0  0  0  0  0  0  0  0  0  0  0
   40.7410   20.7300   37.1240 H   0  0  0  0  0  0  0  0  0  0  0  0
   42.1620   22.0570   37.0570 O   0  0  0  0  0  0  0  0  0  0  0  0
  1  6  1  1  0  0  0
  1  5  1  0  0  0  0
  1 21  1  0  0  0  0
  2  7  1  1  0  0  0
  2  1  1  0  0  0  0
  3  2  1  0  0  0  0
  3  4  1  0  0  0  0
  4  5  1  0  0  0  0
  5 11  1  0  0  0  0
  5 10  1  0  0  0  0
  8  3  1  0  0  0  0
  9  3  1  0  0  0  0
 12 13  1  0  0  0  0
 13 14  2  0  0  0  0
 13 19  1  0  0  0  0
 14  2  1  0  0  0  0
 15 14  1  0  0  0  0
 16 15  2  0  0  0  0
 17 16  1  0  0  0  0
 17 12  2  0  0  0  0
 18 12  1  0  0  0  0
 20 16  1  0  0  0  0
 21 24  1  0  0  0  0
 22 23  1  0  0  0  0
 23 24  2  0  0  0  0
 23 28  1  0  0  0  0
 24 25  1  0  0  0  0
 25 29  1  0  0  0  0
 25 26  2  0  0  0  0
 26 30  1  0  0  0  0
 27 26  1  0  0  0  0
 27 31  1  0  0  0  0
 28 27  2  0  0  0  0
 32 28  1  0  0  0  0
 33 32  1  0  0  0  0
 34 32  2  0  0  0  0
M  END
>  <minimizedAffinity>
-5.28831148

$$$$

 OpenBabel03272501093D

 34 36  0  0  1  0  0  0  0  0999 V2000
   37.3050   25.3070   31.3380 C   0  0  2  0  0  0  0  0  0  0  0  0
   35.9600   26.0040   31.6710 C   0  0  2  0  0  0  0  0  0  0  0  0
   35.0190   25.1950   30.9090 C   0  0  0  0  0  0  0  0  0  0  0  0
   35.4680   23.8790   30.9450 O   0  0  0  0  0  0  0  0  0  0  0  0
   36.7410   23.8630   31.4120 C   0  0  0  0  0  0  0  0  0  0  0  0
   37.5960   25.5330   30.3120 H   0  0  0  0  0  0  0  0  0  0  0  0
   35.8300   25.8490   32.7840 H   0  0  0  0  0  0  0  0  0  0  0  0
   34.8000   25.5120   29.8870 H   0  0  0  0  0  0  0  0  0  0  0  0
   34.0230   25.2150   31.4410 H   0  0  0  0  0  0  0  0  0  0  0  0
   37.3700   23.3000   30.6900 H   0  0  0  0  0  0  0  0  0  0  0  0
   36.8830   23.4350   32.4060 H   0  0  0  0  0  0  0  0  0  0  0  0
   36.7710   29.3520   30.1470 C   0  0  0  0  0  0  0  0  0  0  0  0
   36.7660   27.9420   30.3320 C   0  0  0  0  0  0  0  0  0  0  0  0
   36.0060   27.4280   31.4160 C   0  0  0  0  0  0  0  0  0  0  0  0
   35.3130   28.3020   32.2300 N   0  0  0  0  0  0  0  0  0  0  0  0
   35.3510   29.6190   32.0110 C   0  0  0  0  0  0  0  0  0  0  0  0
   36.0660   30.1560   30.9880 N   0  0  0  0  0  0  0  0  0  0  0  0
   37.3610   29.6960   29.3140 H   0  0  0  0  0  0  0  0  0  0  0  0
   37.3240   27.3210   29.6670 H   0  0  0  0  0  0  0  0  0  0  0  0
   34.8270   30.3420   32.6210 H   0  0  0  0  0  0  0  0  0  0  0  0
   38.2280   25.4710   32.3170 O   0  0  0  0  0  0  0  0  0  0  0  0
   38.0060   23.1460   34.3330 Cl  0  0  0  0  0  0  0  0  0  0  0  0
   38.1480   24.8430   34.7460 C   0  0  0  0  0  0  0  0  0  0  0  0
   38.2320   25.6860   33.6460 C   0  0  0  0  0  0  0  0  0  0  0  0
   38.3450   27.0310   33.9650 C   0  0  0  0  0  0  0  0  0  0  0  0
   38.3710   27.4970   35.2600 C   0  0  0  0  0  0  0  0  0  0  0  0
   38.2830   26.6030   36.3050 C   0  0  0  0  0  0  0  0  0  0  0  0
   38.1710   25.2680   36.0450 C   0  0  0  0  0  0  0  0  0  0  0  0
   38.4210   27.8320   33.2430 H   0  0  0  0  0  0  0  0  0  0  0  0
   38.4580   28.5350   35.5370 H   0  0  0  0  0  0  0  0  0  0  0  0
   38.2960   26.8810   37.3510 H   0  0  0  0  0  0  0  0  0  0  0  0
   38.0750   24.2850   37.1150 C   0  0  0  0  0  0  0  0  0  0  0  0
   38.1060   23.2250   36.9070 H   0  0  0  0  0  0  0  0  0  0  0  0
   37.9540   24.5520   38.3210 O   0  0  0  0  0  0  0  0  0  0  0  0
  1  6  1  6  0  0  0
  1  5  1  0  0  0  0
  1  2  1  0  0  0  0
  1 21  1  0  0  0  0
  2  7  1  1  0  0  0
  3  4  1  0  0  0  0
  3  9  1  0  0  0  0
  3  2  1  0  0  0  0
  4  5  1  0  0  0  0
  5 11  1  0  0  0  0
  8  3  1  0  0  0  0
 10  5  1  0  0  0  0
 12 13  2  0  0  0  0
 12 17  1  0  0  0  0
 13 14  1  0  0  0  0
 14  2  1  0  0  0  0
 14 15  2  0  0  0  0
 16 15  1  0  0  0  0
 16 20  1  0  0  0  0
 17 16  2  0  0  0  0
 18 12  1  0  0  0  0
 19 13  1  0  0  0  0
 21 24  1  0  0  0  0
 22 23  1  0  0  0  0
 23 28  1  0  0  0  0
 24 25  1  0  0  0  0
 24 23  2  0  0  0  0
 25 26  2  0  0  0  0
 26 30  1  0  0  0  0
 26 27  1  0  0  0  0
 27 31  1  0  0  0  0
 28 27  2  0  0  0  0
 28 32  1  0  0  0  0
 29 25  1  0  0  0  0
 32 34  2  0  0  0  0
 33 32  1  0  0  0  0
M  END
>  <minimizedAffinity>
-5.26909208

$$$$

 OpenBabel03272501093D

 34 36  0  0  1  0  0  0  0  0999 V2000
   37.2430   26.3380   34.4920 C   0  0  2  0  0  0  0  0  0  0  0  0
   37.4360   26.5870   32.9730 C   0  0  2  0  0  0  0  0  0  0  0  0
   36.4680   27.6480   32.7300 C   0  0  0  0  0  0  0  0  0  0  0  0
   36.4460   28.4660   33.8540 O   0  0  0  0  0  0  0  0  0  0  0  0
   37.0950   27.8360   34.8660 C   0  0  0  0  0  0  0  0  0  0  0  0
   36.2980   25.8230   34.6660 H   0  0  0  0  0  0  0  0  0  0  0  0
   38.4970   26.9680   32.8830 H   0  0  0  0  0  0  0  0  0  0  0  0
   35.4600   27.3480   32.4370 H   0  0  0  0  0  0  0  0  0  0  0  0
   36.8450   28.2800   31.8730 H   0  0  0  0  0  0  0  0  0  0  0  0
   36.4250   27.8190   35.7510 H   0  0  0  0  0  0  0  0  0  0  0  0
   38.0530   28.2660   35.1620 H   0  0  0  0  0  0  0  0  0  0  0  0
   38.3050   23.5270   30.9550 C   0  0  0  0  0  0  0  0  0  0  0  0
   38.4900   24.7170   31.7120 C   0  0  0  0  0  0  0  0  0  0  0  0
   37.3270   25.3670   32.2020 C   0  0  0  0  0  0  0  0  0  0  0  0
   36.0850   24.8270   31.9290 N   0  0  0  0  0  0  0  0  0  0  0  0
   35.9670   23.7060   31.2130 C   0  0  0  0  0  0  0  0  0  0  0  0
   37.0520   23.0500   30.7230 N   0  0  0  0  0  0  0  0  0  0  0  0
   39.2140   23.0690   30.6030 H   0  0  0  0  0  0  0  0  0  0  0  0
   39.4780   25.0830   31.8850 H   0  0  0  0  0  0  0  0  0  0  0  0
   35.0190   23.2470   30.9740 H   0  0  0  0  0  0  0  0  0  0  0  0
   38.3600   25.8450   35.0800 O   0  0  0  0  0  0  0  0  0  0  0  0
   40.4710   23.6740   34.4860 Cl  0  0  0  0  0  0  0  0  0  0  0  0
   39.5510   23.8230   35.9710 C   0  0  0  0  0  0  0  0  0  0  0  0
   38.6650   24.8900   35.9810 C   0  0  0  0  0  0  0  0  0  0  0  0
   37.9340   25.0150   37.1520 C   0  0  0  0  0  0  0  0  0  0  0  0
   38.0720   24.1550   38.2190 C   0  0  0  0  0  0  0  0  0  0  0  0
   38.9720   23.1150   38.1410 C   0  0  0  0  0  0  0  0  0  0  0  0
   39.7160   22.9490   37.0090 C   0  0  0  0  0  0  0  0  0  0  0  0
   37.1970   25.7830   37.3420 H   0  0  0  0  0  0  0  0  0  0  0  0
   37.5170   24.2280   39.1410 H   0  0  0  0  0  0  0  0  0  0  0  0
   39.1440   22.3940   38.9300 H   0  0  0  0  0  0  0  0  0  0  0  0
   40.6810   21.8660   36.8790 C   0  0  0  0  0  0  0  0  0  0  0  0
   40.7890   21.3200   35.9540 H   0  0  0  0  0  0  0  0  0  0  0  0
   41.4430   21.4770   37.7790 O   0  0  0  0  0  0  0  0  0  0  0  0
  1  6  1  1  0  0  0
  1  5  1  0  0  0  0
  1 21  1  0  0  0  0
  2  7  1  6  0  0  0
  2  1  1  0  0  0  0
  3  2  1  0  0  0  0
  3  4  1  0  0  0  0
  4  5  1  0  0  0  0
  5 11  1  0  0  0  0
  5 10  1  0  0  0  0
  8  3  1  0  0  0  0
  9  3  1  0  0  0  0
 12 13  1  0  0  0  0
 13 19  1  0  0  0  0
 13 14  2  0  0  0  0
 14  2  1  0  0  0  0
 15 14  1  0  0  0  0
 16 15  2  0  0  0  0
 17 12  2  0  0  0  0
 17 16  1  0  0  0  0
 18 12  1  0  0  0  0
 20 16  1  0  0  0  0
 21 24  1  0  0  0  0
 22 23  1  0  0  0  0
 23 24  2  0  0  0  0
 23 28  1  0  0  0  0
 24 25  1  0  0  0  0
 25 29  1  0  0  0  0
 25 26  2  0  0  0  0
 26 30  1  0  0  0  0
 27 26  1  0  0  0  0
 27 31  1  0  0  0  0
 28 27  2  0  0  0  0
 32 28  1  0  0  0  0
 32 34  2  0  0  0  0
 33 32  1  0  0  0  0
M  END
>  <minimizedAffinity>
-5.11312008

$$$$

 OpenBabel03272501093D

 34 36  0  0  1  0  0  0  0  0999 V2000
   37.2370   26.4130   34.3730 C   0  0  2  0  0  0  0  0  0  0  0  0
   37.5730   26.7640   32.8990 C   0  0  2  0  0  0  0  0  0  0  0  0
   36.5420   27.7480   32.5960 C   0  0  0  0  0  0  0  0  0  0  0  0
   36.3190   28.4950   33.7470 O   0  0  0  0  0  0  0  0  0  0  0  0
   36.9080   27.8690   34.7970 C   0  0  0  0  0  0  0  0  0  0  0  0
   36.3320   25.8080   34.4130 H   0  0  0  0  0  0  0  0  0  0  0  0
   38.5960   27.2420   32.9500 H   0  0  0  0  0  0  0  0  0  0  0  0
   35.6050   27.3770   32.1750 H   0  0  0  0  0  0  0  0  0  0  0  0
   36.9500   28.4580   31.8190 H   0  0  0  0  0  0  0  0  0  0  0  0
   36.1490   27.7430   35.5970 H   0  0  0  0  0  0  0  0  0  0  0  0
   37.7830   28.3640   35.2210 H   0  0  0  0  0  0  0  0  0  0  0  0
   36.7040   23.5940   31.0600 C   0  0  0  0  0  0  0  0  0  0  0  0
   36.5370   24.7390   31.8870 C   0  0  0  0  0  0  0  0  0  0  0  0
   37.6640   25.5850   32.0650 C   0  0  0  0  0  0  0  0  0  0  0  0
   38.8530   25.2680   31.4380 N   0  0  0  0  0  0  0  0  0  0  0  0
   38.9550   24.1800   30.6710 C   0  0  0  0  0  0  0  0  0  0  0  0
   37.9050   23.3410   30.4730 N   0  0  0  0  0  0  0  0  0  0  0  0
   35.8240   22.9810   30.9550 H   0  0  0  0  0  0  0  0  0  0  0  0
   35.5920   24.9260   32.3440 H   0  0  0  0  0  0  0  0  0  0  0  0
   39.8630   23.8910   30.1620 H   0  0  0  0  0  0  0  0  0  0  0  0
   38.3230   25.9880   35.0620 O   0  0  0  0  0  0  0  0  0  0  0  0
   40.3730   23.7770   34.4050 Cl  0  0  0  0  0  0  0  0  0  0  0  0
   39.4770   23.9230   35.9040 C   0  0  0  0  0  0  0  0  0  0  0  0
   38.6170   25.0120   35.9430 C   0  0  0  0  0  0  0  0  0  0  0  0
   37.9040   25.1340   37.1260 C   0  0  0  0  0  0  0  0  0  0  0  0
   38.0350   24.2540   38.1760 C   0  0  0  0  0  0  0  0  0  0  0  0
   38.9080   23.1940   38.0700 C   0  0  0  0  0  0  0  0  0  0  0  0
   39.6340   23.0290   36.9260 C   0  0  0  0  0  0  0  0  0  0  0  0
   37.1890   25.9170   37.3380 H   0  0  0  0  0  0  0  0  0  0  0  0
   37.4940   24.3250   39.1070 H   0  0  0  0  0  0  0  0  0  0  0  0
   39.0730   22.4560   38.8440 H   0  0  0  0  0  0  0  0  0  0  0  0
   40.5700   21.9250   36.7650 C   0  0  0  0  0  0  0  0  0  0  0  0
   40.6660   21.4040   35.8240 H   0  0  0  0  0  0  0  0  0  0  0  0
   41.3190   21.4900   37.6540 O   0  0  0  0  0  0  0  0  0  0  0  0
  1  6  1  1  0  0  0
  1  5  1  0  0  0  0
  1 21  1  0  0  0  0
  2  7  1  6  0  0  0
  2  1  1  0  0  0  0
  3  2  1  0  0  0  0
  3  4  1  0  0  0  0
  4  5  1  0  0  0  0
  5 11  1  0  0  0  0
  5 10  1  0  0  0  0
  8  3  1  0  0  0  0
  9  3  1  0  0  0  0
 12 13  1  0  0  0  0
 13 14  2  0  0  0  0
 13 19  1  0  0  0  0
 14  2  1  0  0  0  0
 15 14  1  0  0  0  0
 16 15  2  0  0  0  0
 17 16  1  0  0  0  0
 17 12  2  0  0  0  0
 18 12  1  0  0  0  0
 20 16  1  0  0  0  0
 21 24  1  0  0  0  0
 22 23  1  0  0  0  0
 23 24  2  0  0  0  0
 23 28  1  0  0  0  0
 24 25  1  0  0  0  0
 25 29  1  0  0  0  0
 25 26  2  0  0  0  0
 26 30  1  0  0  0  0
 27 26  1  0  0  0  0
 27 31  1  0  0  0  0
 28 27  2  0  0  0  0
 32 28  1  0  0  0  0
 32 34  2  0  0  0  0
 33 32  1  0  0  0  0
M  END
>  <minimizedAffinity>
-5.08590126

$$$$

 OpenBabel03272501093D

 34 36  0  0  1  0  0  0  0  0999 V2000
   38.5460   22.9760   36.2300 C   0  0  2  0  0  0  0  0  0  0  0  0
   39.5590   22.5160   37.3110 C   0  0  2  0  0  0  0  0  0  0  0  0
   39.2530   23.4330   38.4000 C   0  0  0  0  0  0  0  0  0  0  0  0
   37.8820   23.6620   38.3880 O   0  0  0  0  0  0  0  0  0  0  0  0
   37.3720   23.1990   37.2190 C   0  0  0  0  0  0  0  0  0  0  0  0
   38.8580   23.9320   35.8120 H   0  0  0  0  0  0  0  0  0  0  0  0
   39.2440   21.4590   37.5610 H   0  0  0  0  0  0  0  0  0  0  0  0
   39.8120   24.3700   38.4370 H   0  0  0  0  0  0  0  0  0  0  0  0
   39.4890   22.9130   39.3750 H   0  0  0  0  0  0  0  0  0  0  0  0
   36.7860   24.0170   36.7480 H   0  0  0  0  0  0  0  0  0  0  0  0
   36.7400   22.3130   37.2880 H   0  0  0  0  0  0  0  0  0  0  0  0
   43.0950   21.4250   36.6030 C   0  0  0  0  0  0  0  0  0  0  0  0
   41.7730   21.3920   37.1280 C   0  0  0  0  0  0  0  0  0  0  0  0
   40.9150   22.4770   36.8060 C   0  0  0  0  0  0  0  0  0  0  0  0
   41.3900   23.5010   36.0100 N   0  0  0  0  0  0  0  0  0  0  0  0
   42.6410   23.4820   35.5420 C   0  0  0  0  0  0  0  0  0  0  0  0
   43.4970   22.4660   35.8250 N   0  0  0  0  0  0  0  0  0  0  0  0
   43.7090   20.5830   36.8740 H   0  0  0  0  0  0  0  0  0  0  0  0
   41.4690   20.5710   37.7390 H   0  0  0  0  0  0  0  0  0  0  0  0
   43.0560   24.2590   34.9180 H   0  0  0  0  0  0  0  0  0  0  0  0
   38.2170   21.9780   35.3730 O   0  0  0  0  0  0  0  0  0  0  0  0
   35.4960   20.5720   34.9990 Cl  0  0  0  0  0  0  0  0  0  0  0  0
   36.4540   21.2950   33.7220 C   0  0  0  0  0  0  0  0  0  0  0  0
   37.6410   21.8640   34.1610 C   0  0  0  0  0  0  0  0  0  0  0  0
   38.4050   22.4380   33.1560 C   0  0  0  0  0  0  0  0  0  0  0  0
   38.0220   22.4470   31.8340 C   0  0  0  0  0  0  0  0  0  0  0  0
   36.8300   21.8630   31.4670 C   0  0  0  0  0  0  0  0  0  0  0  0
   36.0410   21.2840   32.4190 C   0  0  0  0  0  0  0  0  0  0  0  0
   39.3570   22.9280   33.3070 H   0  0  0  0  0  0  0  0  0  0  0  0
   38.5950   22.8860   31.0320 H   0  0  0  0  0  0  0  0  0  0  0  0
   36.4520   21.8240   30.4540 H   0  0  0  0  0  0  0  0  0  0  0  0
   34.7720   20.6550   32.0820 C   0  0  0  0  0  0  0  0  0  0  0  0
   33.8810   21.2430   31.9130 H   0  0  0  0  0  0  0  0  0  0  0  0
   34.5910   19.4330   31.9600 O   0  0  0  0  0  0  0  0  0  0  0  0
  1  6  1  6  0  0  0
  1  5  1  0  0  0  0
  1  2  1  0  0  0  0
  2  7  1  1  0  0  0
  2  3  1  0  0  0  0
  3  8  1  0  0  0  0
  3  9  1  0  0  0  0
  4  3  1  0  0  0  0
  5 11  1  0  0  0  0
  5  4  1  0  0  0  0
 10  5  1  0  0  0  0
 12 18  1  0  0  0  0
 12 13  1  0  0  0  0
 13 19  1  0  0  0  0
 14 13  2  0  0  0  0
 14  2  1  0  0  0  0
 15 14  1  0  0  0  0
 16 17  1  0  0  0  0
 16 15  2  0  0  0  0
 17 12  2  0  0  0  0
 20 16  1  0  0  0  0
 21  1  1  0  0  0  0
 23 24  1  0  0  0  0
 23 22  1  0  0  0  0
 24 21  1  0  0  0  0
 25 29  1  0  0  0  0
 25 24  2  0  0  0  0
 26 25  1  0  0  0  0
 27 26  2  0  0  0  0
 27 28  1  0  0  0  0
 28 23  2  0  0  0  0
 30 26  1  0  0  0  0
 31 27  1  0  0  0  0
 32 28  1  0  0  0  0
 33 32  1  0  0  0  0
 34 32  2  0  0  0  0
M  END
>  <minimizedAffinity>
-5.02409983

$$$$

 OpenBabel03272501093D

 34 36  0  0  1  0  0  0  0  0999 V2000
   35.3280   28.8600   32.1290 C   0  0  2  0  0  0  0  0  0  0  0  0
   36.5850   28.1460   31.5650 C   0  0  2  0  0  0  0  0  0  0  0  0
   36.6540   28.7040   30.2210 C   0  0  0  0  0  0  0  0  0  0  0  0
   36.2370   30.0290   30.2920 O   0  0  0  0  0  0  0  0  0  0  0  0
   35.6500   30.2400   31.4960 C   0  0  0  0  0  0  0  0  0  0  0  0
   34.4300   28.4480   31.6700 H   0  0  0  0  0  0  0  0  0  0  0  0
   37.4350   28.5200   32.2100 H   0  0  0  0  0  0  0  0  0  0  0  0
   36.1310   28.1650   29.4280 H   0  0  0  0  0  0  0  0  0  0  0  0
   37.7360   28.7190   29.9000 H   0  0  0  0  0  0  0  0  0  0  0  0
   34.6490   30.6870   31.3210 H   0  0  0  0  0  0  0  0  0  0  0  0
   36.1990   30.8760   32.1930 H   0  0  0  0  0  0  0  0  0  0  0  0
   35.4680   24.5630   31.2390 C   0  0  0  0  0  0  0  0  0  0  0  0
   35.4890   25.9720   31.0450 C   0  0  0  0  0  0  0  0  0  0  0  0
   36.5060   26.7080   31.7080 C   0  0  0  0  0  0  0  0  0  0  0  0
   37.4180   26.0380   32.5000 N   0  0  0  0  0  0  0  0  0  0  0  0
   37.3540   24.7120   32.6480 C   0  0  0  0  0  0  0  0  0  0  0  0
   36.3980   23.9680   32.0330 N   0  0  0  0  0  0  0  0  0  0  0  0
   34.6800   24.0470   30.7170 H   0  0  0  0  0  0  0  0  0  0  0  0
   34.7540   26.4290   30.4210 H   0  0  0  0  0  0  0  0  0  0  0  0
   38.0430   24.1450   33.2560 H   0  0  0  0  0  0  0  0  0  0  0  0
   35.3630   28.9750   33.4790 O   0  0  0  0  0  0  0  0  0  0  0  0
   32.3430   29.2830   34.0320 Cl  0  0  0  0  0  0  0  0  0  0  0  0
   33.6240   30.1550   34.8510 C   0  0  0  0  0  0  0  0  0  0  0  0
   34.8990   29.8290   34.4120 C   0  0  0  0  0  0  0  0  0  0  0  0
   35.9170   30.5150   35.0550 C   0  0  0  0  0  0  0  0  0  0  0  0
   35.6890   31.4420   36.0470 C   0  0  0  0  0  0  0  0  0  0  0  0
   34.3960   31.7180   36.4350 C   0  0  0  0  0  0  0  0  0  0  0  0
   33.3580   31.0690   35.8320 C   0  0  0  0  0  0  0  0  0  0  0  0
   36.9720   30.3940   34.8470 H   0  0  0  0  0  0  0  0  0  0  0  0
   36.4610   31.9900   36.5640 H   0  0  0  0  0  0  0  0  0  0  0  0
   34.1260   32.4300   37.2040 H   0  0  0  0  0  0  0  0  0  0  0  0
   31.9740   31.3250   36.2070 C   0  0  0  0  0  0  0  0  0  0  0  0
   31.4520   32.2050   35.8590 H   0  0  0  0  0  0  0  0  0  0  0  0
   31.2840   30.5920   36.9330 O   0  0  0  0  0  0  0  0  0  0  0  0
  1  6  1  6  0  0  0
  1 21  1  0  0  0  0
  2 14  1  0  0  0  0
  2  1  1  0  0  0  0
  2  7  1  1  0  0  0
  3  4  1  0  0  0  0
  3  2  1  0  0  0  0
  4  5  1  0  0  0  0
  5  1  1  0  0  0  0
  5 11  1  0  0  0  0
  8  3  1  0  0  0  0
  9  3  1  0  0  0  0
 10  5  1  0  0  0  0
 12 17  1  0  0  0  0
 13 12  2  0  0  0  0
 13 14  1  0  0  0  0
 14 15  2  0  0  0  0
 15 16  1  0  0  0  0
 16 20  1  0  0  0  0
 17 16  2  0  0  0  0
 18 12  1  0  0  0  0
 19 13  1  0  0  0  0
 21 24  1  0  0  0  0
 22 23  1  0  0  0  0
 23 28  1  0  0  0  0
 24 23  2  0  0  0  0
 24 25  1  0  0  0  0
 25 26  2  0  0  0  0
 26 27  1  0  0  0  0
 26 30  1  0  0  0  0
 27 31  1  0  0  0  0
 28 32  1  0  0  0  0
 28 27  2  0  0  0  0
 29 25  1  0  0  0  0
 32 34  2  0  0  0  0
 33 32  1  0  0  0  0
M  END
>  <minimizedAffinity>
-4.91822243

$$$$

 OpenBabel03272501093D

 34 36  0  0  1  0  0  0  0  0999 V2000
   36.0110   29.3130   33.0330 C   0  0  2  0  0  0  0  0  0  0  0  0
   34.6470   30.0310   33.2140 C   0  0  2  0  0  0  0  0  0  0  0  0
   34.6120   30.8840   32.0340 C   0  0  0  0  0  0  0  0  0  0  0  0
   35.2140   30.1880   30.9910 O   0  0  0  0  0  0  0  0  0  0  0  0
   35.8660   29.1130   31.5010 C   0  0  0  0  0  0  0  0  0  0  0  0
   36.8250   30.0090   33.2350 H   0  0  0  0  0  0  0  0  0  0  0  0
   33.8810   29.2020   33.1460 H   0  0  0  0  0  0  0  0  0  0  0  0
   35.0250   31.8900   32.1310 H   0  0  0  0  0  0  0  0  0  0  0  0
   33.5320   31.0390   31.7420 H   0  0  0  0  0  0  0  0  0  0  0  0
   36.9140   29.1370   31.1350 H   0  0  0  0  0  0  0  0  0  0  0  0
   35.4370   28.1380   31.2690 H   0  0  0  0  0  0  0  0  0  0  0  0
   35.4510   31.8800   36.3960 C   0  0  0  0  0  0  0  0  0  0  0  0
   35.6420   31.2980   35.1120 C   0  0  0  0  0  0  0  0  0  0  0  0
   34.5260   30.6540   34.5150 C   0  0  0  0  0  0  0  0  0  0  0  0
   33.3230   30.6190   35.1920 N   0  0  0  0  0  0  0  0  0  0  0  0
   33.1980   31.1830   36.3970 C   0  0  0  0  0  0  0  0  0  0  0  0
   34.2380   31.8090   37.0070 N   0  0  0  0  0  0  0  0  0  0  0  0
   36.3240   32.3570   36.8090 H   0  0  0  0  0  0  0  0  0  0  0  0
   36.5990   31.3580   34.6430 H   0  0  0  0  0  0  0  0  0  0  0  0
   32.2790   31.1810   36.9650 H   0  0  0  0  0  0  0  0  0  0  0  0
   36.0390   28.1000   33.6360 O   0  0  0  0  0  0  0  0  0  0  0  0
   36.6060   25.3560   32.3440 Cl  0  0  0  0  0  0  0  0  0  0  0  0
   37.4150   26.0040   33.7570 C   0  0  0  0  0  0  0  0  0  0  0  0
   36.9700   27.2640   34.1330 C   0  0  0  0  0  0  0  0  0  0  0  0
   37.6050   27.7830   35.2500 C   0  0  0  0  0  0  0  0  0  0  0  0
   38.5940   27.1110   35.9330 C   0  0  0  0  0  0  0  0  0  0  0  0
   38.9870   25.8620   35.5040 C   0  0  0  0  0  0  0  0  0  0  0  0
   38.3930   25.3070   34.4090 C   0  0  0  0  0  0  0  0  0  0  0  0
   37.3930   28.7480   35.6900 H   0  0  0  0  0  0  0  0  0  0  0  0
   39.1050   27.4900   36.8040 H   0  0  0  0  0  0  0  0  0  0  0  0
   39.7550   25.2650   35.9790 H   0  0  0  0  0  0  0  0  0  0  0  0
   38.7740   23.9900   33.9160 C   0  0  0  0  0  0  0  0  0  0  0  0
   38.2930   23.0940   34.2800 H   0  0  0  0  0  0  0  0  0  0  0  0
   39.6520   23.7730   33.0660 O   0  0  0  0  0  0  0  0  0  0  0  0
  1  2  1  0  0  0  0
  1  6  1  1  0  0  0
  1 21  1  0  0  0  0
  2  7  1  6  0  0  0
  2 14  1  0  0  0  0
  3  8  1  0  0  0  0
  3  2  1  0  0  0  0
  4  5  1  0  0  0  0
  4  3  1  0  0  0  0
  5  1  1  0  0  0  0
  9  3  1  0  0  0  0
 10  5  1  0  0  0  0
 11  5  1  0  0  0  0
 12 18  1  0  0  0  0
 12 17  1  0  0  0  0
 13 12  2  0  0  0  0
 14 13  1  0  0  0  0
 14 15  2  0  0  0  0
 15 16  1  0  0  0  0
 16 20  1  0  0  0  0
 16 17  2  0  0  0  0
 19 13  1  0  0  0  0
 21 24  1  0  0  0  0
 22 23  1  0  0  0  0
 23 24  2  0  0  0  0
 23 28  1  0  0  0  0
 24 25  1  0  0  0  0
 25 29  1  0  0  0  0
 25 26  2  0  0  0  0
 26 30  1  0  0  0  0
 27 26  1  0  0  0  0
 27 31  1  0  0  0  0
 28 27  2  0  0  0  0
 32 33  1  0  0  0  0
 32 28  1  0  0  0  0
 34 32  2  0  0  0  0
M  END
>  <minimizedAffinity>
-4.85646248

$$$$

 OpenBabel03272501093D

 34 36  0  0  1  0  0  0  0  0999 V2000
   38.9610   23.3210   35.8600 C   0  0  2  0  0  0  0  0  0  0  0  0
   39.6700   22.4750   36.9500 C   0  0  2  0  0  0  0  0  0  0  0  0
   39.2850   23.1860   38.1620 C   0  0  0  0  0  0  0  0  0  0  0  0
   37.9870   23.6540   37.9830 O   0  0  0  0  0  0  0  0  0  0  0  0
   37.6580   23.5410   36.6720 C   0  0  0  0  0  0  0  0  0  0  0  0
   39.4780   24.2720   35.7340 H   0  0  0  0  0  0  0  0  0  0  0  0
   39.1690   21.4630   36.8910 H   0  0  0  0  0  0  0  0  0  0  0  0
   39.9490   23.9810   38.5070 H   0  0  0  0  0  0  0  0  0  0  0  0
   39.2510   22.4440   39.0120 H   0  0  0  0  0  0  0  0  0  0  0  0
   37.2930   24.5290   36.3190 H   0  0  0  0  0  0  0  0  0  0  0  0
   36.9080   22.7860   36.4290 H   0  0  0  0  0  0  0  0  0  0  0  0
   43.2190   23.1120   35.8600 C   0  0  0  0  0  0  0  0  0  0  0  0
   41.8400   23.3590   36.1110 C   0  0  0  0  0  0  0  0  0  0  0  0
   41.0800   22.3010   36.6750 C   0  0  0  0  0  0  0  0  0  0  0  0
   41.6980   21.0970   36.9520 N   0  0  0  0  0  0  0  0  0  0  0  0
   42.9960   20.9180   36.6970 C   0  0  0  0  0  0  0  0  0  0  0  0
   43.7630   21.9020   36.1580 N   0  0  0  0  0  0  0  0  0  0  0  0
   43.7550   23.9420   35.4320 H   0  0  0  0  0  0  0  0  0  0  0  0
   41.4230   24.3120   35.8720 H   0  0  0  0  0  0  0  0  0  0  0  0
   43.5230   19.9960   36.8960 H   0  0  0  0  0  0  0  0  0  0  0  0
   38.6730   22.5970   34.7510 O   0  0  0  0  0  0  0  0  0  0  0  0
   38.3070   24.9740   32.8180 Cl  0  0  0  0  0  0  0  0  0  0  0  0
   37.3560   23.5020   32.8160 C   0  0  0  0  0  0  0  0  0  0  0  0
   37.7270   22.5890   33.7920 C   0  0  0  0  0  0  0  0  0  0  0  0
   36.9780   21.4220   33.7970 C   0  0  0  0  0  0  0  0  0  0  0  0
   35.9530   21.1830   32.9100 C   0  0  0  0  0  0  0  0  0  0  0  0
   35.6380   22.1350   31.9640 C   0  0  0  0  0  0  0  0  0  0  0  0
   36.3450   23.3010   31.9180 C   0  0  0  0  0  0  0  0  0  0  0  0
   37.1210   20.5990   34.4830 H   0  0  0  0  0  0  0  0  0  0  0  0
   35.3550   20.2860   32.8900 H   0  0  0  0  0  0  0  0  0  0  0  0
   34.8500   22.0300   31.2300 H   0  0  0  0  0  0  0  0  0  0  0  0
   36.0500   24.3360   30.9370 C   0  0  0  0  0  0  0  0  0  0  0  0
   36.6270   24.4290   30.0280 H   0  0  0  0  0  0  0  0  0  0  0  0
   35.1460   25.1810   31.0400 O   0  0  0  0  0  0  0  0  0  0  0  0
  1  6  1  6  0  0  0
  1  5  1  0  0  0  0
  1  2  1  0  0  0  0
  2  7  1  1  0  0  0
  2  3  1  0  0  0  0
  3  8  1  0  0  0  0
  3  9  1  0  0  0  0
  4  3  1  0  0  0  0
  5  4  1  0  0  0  0
 10  5  1  0  0  0  0
 11  5  1  0  0  0  0
 12 13  2  0  0  0  0
 12 17  1  0  0  0  0
 13 14  1  0  0  0  0
 14  2  1  0  0  0  0
 14 15  2  0  0  0  0
 16 20  1  0  0  0  0
 16 15  1  0  0  0  0
 17 16  2  0  0  0  0
 18 12  1  0  0  0  0
 19 13  1  0  0  0  0
 21  1  1  0  0  0  0
 23 22  1  0  0  0  0
 23 24  1  0  0  0  0
 24 25  2  0  0  0  0
 24 21  1  0  0  0  0
 25 29  1  0  0  0  0
 26 25  1  0  0  0  0
 27 26  2  0  0  0  0
 28 27  1  0  0  0  0
 28 23  2  0  0  0  0
 30 26  1  0  0  0  0
 31 27  1  0  0  0  0
 32 34  2  0  0  0  0
 32 28  1  0  0  0  0
 33 32  1  0  0  0  0
M  END
>  <minimizedAffinity>
-4.82911253

$$$$

 OpenBabel03272501093D

 34 36  0  0  1  0  0  0  0  0999 V2000
   38.9890   24.2960   36.3220 C   0  0  2  0  0  0  0  0  0  0  0  0
   39.4170   22.9620   36.9890 C   0  0  2  0  0  0  0  0  0  0  0  0
   38.9820   23.1750   38.3630 C   0  0  0  0  0  0  0  0  0  0  0  0
   37.8010   23.9080   38.3230 O   0  0  0  0  0  0  0  0  0  0  0  0
   37.6350   24.4040   37.0710 C   0  0  0  0  0  0  0  0  0  0  0  0
   39.6500   25.1000   36.6430 H   0  0  0  0  0  0  0  0  0  0  0  0
   38.7880   22.1750   36.4750 H   0  0  0  0  0  0  0  0  0  0  0  0
   39.7020   23.6200   39.0520 H   0  0  0  0  0  0  0  0  0  0  0  0
   38.7290   22.1710   38.8120 H   0  0  0  0  0  0  0  0  0  0  0  0
   37.4680   25.4990   37.1510 H   0  0  0  0  0  0  0  0  0  0  0  0
   36.8240   23.9690   36.4860 H   0  0  0  0  0  0  0  0  0  0  0  0
   42.7390   21.1860   36.9120 C   0  0  0  0  0  0  0  0  0  0  0  0
   41.3600   21.4150   37.1740 C   0  0  0  0  0  0  0  0  0  0  0  0
   40.8120   22.6550   36.7500 C   0  0  0  0  0  0  0  0  0  0  0  0
   41.6240   23.5710   36.1110 N   0  0  0  0  0  0  0  0  0  0  0  0
   42.9140   23.3040   35.8890 C   0  0  0  0  0  0  0  0  0  0  0  0
   43.4820   22.1330   36.2780 N   0  0  0  0  0  0  0  0  0  0  0  0
   43.1110   20.2350   37.2520 H   0  0  0  0  0  0  0  0  0  0  0  0
   40.7860   20.6670   37.6740 H   0  0  0  0  0  0  0  0  0  0  0  0
   43.5890   23.9880   35.3950 H   0  0  0  0  0  0  0  0  0  0  0  0
   38.7490   24.1550   34.9950 O   0  0  0  0  0  0  0  0  0  0  0  0
   37.0080   22.8400   32.8140 Cl  0  0  0  0  0  0  0  0  0  0  0  0
   37.3780   24.5490   32.9300 C   0  0  0  0  0  0  0  0  0  0  0  0
   38.1850   24.8790   34.0100 C   0  0  0  0  0  0  0  0  0  0  0  0
   38.4820   26.2300   34.1080 C   0  0  0  0  0  0  0  0  0  0  0  0
   38.0180   27.1680   33.2140 C   0  0  0  0  0  0  0  0  0  0  0  0
   37.2200   26.7700   32.1640 C   0  0  0  0  0  0  0  0  0  0  0  0
   36.8980   25.4520   32.0230 C   0  0  0  0  0  0  0  0  0  0  0  0
   39.0950   26.6730   34.8810 H   0  0  0  0  0  0  0  0  0  0  0  0
   38.2330   28.2240   33.2660 H   0  0  0  0  0  0  0  0  0  0  0  0
   36.8120   27.4390   31.4170 H   0  0  0  0  0  0  0  0  0  0  0  0
   36.0570   24.9820   30.9310 C   0  0  0  0  0  0  0  0  0  0  0  0
   36.4870   24.5800   30.0250 H   0  0  0  0  0  0  0  0  0  0  0  0
   34.8160   24.9950   30.9290 O   0  0  0  0  0  0  0  0  0  0  0  0
  1  6  1  1  0  0  0
  1  2  1  0  0  0  0
  1  5  1  0  0  0  0
  2  7  1  6  0  0  0
  2  3  1  0  0  0  0
  3  9  1  0  0  0  0
  3  8  1  0  0  0  0
  4  3  1  0  0  0  0
  5 10  1  0  0  0  0
  5  4  1  0  0  0  0
 11  5  1  0  0  0  0
 12 13  1  0  0  0  0
 12 18  1  0  0  0  0
 13 19  1  0  0  0  0
 14  2  1  0  0  0  0
 14 13  2  0  0  0  0
 15 14  1  0  0  0  0
 16 15  2  0  0  0  0
 16 17  1  0  0  0  0
 17 12  2  0  0  0  0
 20 16  1  0  0  0  0
 21  1  1  0  0  0  0
 22 23  1  0  0  0  0
 23 24  1  0  0  0  0
 24 25  2  0  0  0  0
 24 21  1  0  0  0  0
 25 29  1  0  0  0  0
 26 30  1  0  0  0  0
 26 25  1  0  0  0  0
 27 26  2  0  0  0  0
 28 27  1  0  0  0  0
 28 23  2  0  0  0  0
 31 27  1  0  0  0  0
 32 28  1  0  0  0  0
 33 32  1  0  0  0  0
 34 32  2  0  0  0  0
M  END
>  <minimizedAffinity>
-4.8265152

$$$$
