
 OpenBabel03272506493D

 36 38  0  0  1  0  0  0  0  0999 V2000
   37.9630   24.8700   32.1630 C   0  0  2  0  0  0  0  0  0  0  0  0
   37.4420   24.0600   31.0130 C   0  0  1  0  0  0  0  0  0  0  0  0
   38.2100   22.9400   30.9050 O   0  0  0  0  0  0  0  0  0  0  0  0
   39.0010   22.8140   32.0410 C   0  0  0  0  0  0  0  0  0  0  0  0
   38.4060   23.7060   33.1030 C   0  0  1  0  0  0  0  0  0  0  0  0
   38.8490   25.4650   31.9660 H   0  0  0  0  0  0  0  0  0  0  0  0
   37.4380   24.6020   30.0470 H   0  0  0  0  0  0  0  0  0  0  0  0
   40.0160   23.0320   31.7420 H   0  0  0  0  0  0  0  0  0  0  0  0
   39.0010   21.7490   32.3890 H   0  0  0  0  0  0  0  0  0  0  0  0
   37.4980   23.2990   33.5540 H   0  0  0  0  0  0  0  0  0  0  0  0
   36.9170   25.5840   32.7840 O   0  0  0  0  0  0  0  0  0  0  0  0
   36.9210   26.4630   32.3390 H   0  0  0  0  0  0  0  0  0  0  0  0
   35.7320   23.5270   31.4430 S   0  0  0  0  0  0  0  0  0  0  0  0
   35.6090   20.0350   33.3180 C   0  0  0  0  0  0  0  0  0  0  0  0
   35.7870   19.0830   32.3110 C   0  0  0  0  0  0  0  0  0  0  0  0
   35.9510   19.5410   30.9940 C   0  0  0  0  0  0  0  0  0  0  0  0
   35.9280   20.8750   30.7740 N   0  0  0  0  0  0  0  0  0  0  0  0
   35.7540   21.7690   31.7710 C   0  0  0  0  0  0  0  0  0  0  0  0
   35.5930   21.3600   33.0570 N   0  0  0  0  0  0  0  0  0  0  0  0
   35.4860   19.6450   34.3210 H   0  0  0  0  0  0  0  0  0  0  0  0
   35.8010   18.0190   32.5200 H   0  0  0  0  0  0  0  0  0  0  0  0
   36.0910   18.8340   30.1890 H   0  0  0  0  0  0  0  0  0  0  0  0
   39.4020   24.1150   33.9570 O   0  0  0  0  0  0  0  0  0  0  0  0
   37.7400   24.8940   36.2570 Cl  0  0  0  0  0  0  0  0  0  0  0  0
   39.0950   23.7920   36.2160 C   0  0  0  0  0  0  0  0  0  0  0  0
   39.7900   23.4950   35.0670 C   0  0  0  0  0  0  0  0  0  0  0  0
   40.8360   22.5740   35.1540 C   0  0  0  0  0  0  0  0  0  0  0  0
   41.1550   21.9850   36.3590 C   0  0  0  0  0  0  0  0  0  0  0  0
   40.4610   22.2770   37.5210 C   0  0  0  0  0  0  0  0  0  0  0  0
   39.4220   23.1940   37.4260 C   0  0  0  0  0  0  0  0  0  0  0  0
   41.4340   22.2730   34.3120 H   0  0  0  0  0  0  0  0  0  0  0  0
   41.9490   21.2660   36.5030 H   0  0  0  0  0  0  0  0  0  0  0  0
   40.6810   21.8400   38.4710 H   0  0  0  0  0  0  0  0  0  0  0  0
   38.6770   23.5180   38.6410 C   0  0  0  0  0  0  0  0  0  0  0  0
   39.0590   24.2400   39.3490 H   0  0  0  0  0  0  0  0  0  0  0  0
   37.5760   22.9630   38.8870 O   0  0  0  0  0  0  0  0  0  0  0  0
  1  6  1  6  0  0  0
  1 11  1  0  0  0  0
  1  5  1  0  0  0  0
  2  7  1  6  0  0  0
  2 13  1  0  0  0  0
  2  1  1  0  0  0  0
  3  2  1  0  0  0  0
  3  4  1  0  0  0  0
  4  9  1  0  0  0  0
  4  5  1  0  0  0  0
  5 10  1  1  0  0  0
  5 23  1  0  0  0  0
  8  4  1  0  0  0  0
 12 11  1  0  0  0  0
 13 18  1  0  0  0  0
 14 20  1  0  0  0  0
 15 21  1  0  0  0  0
 15 14  2  0  0  0  0
 16 15  1  0  0  0  0
 17 16  2  0  0  0  0
 17 18  1  0  0  0  0
 18 19  2  0  0  0  0
 19 14  1  0  0  0  0
 22 16  1  0  0  0  0
 23 26  1  0  0  0  0
 25 24  1  0  0  0  0
 25 30  1  0  0  0  0
 26 27  1  0  0  0  0
 26 25  2  0  0  0  0
 27 28  2  0  0  0  0
 28 32  1  0  0  0  0
 28 29  1  0  0  0  0
 29 33  1  0  0  0  0
 30 29  2  0  0  0  0
 30 34  1  0  0  0  0
 31 27  1  0  0  0  0
 34 36  2  0  0  0  0
 34 35  1  0  0  0  0
M  END
>  <minimizedAffinity>
-5.16894054

$$$$

 OpenBabel03272506493D

 36 38  0  0  1  0  0  0  0  0999 V2000
   36.6870   28.6550   31.6950 C   0  0  2  0  0  0  0  0  0  0  0  0
   37.0380   27.2160   31.9290 C   0  0  1  0  0  0  0  0  0  0  0  0
   37.0590   27.0010   33.2740 O   0  0  0  0  0  0  0  0  0  0  0  0
   36.4890   28.0910   33.9220 C   0  0  0  0  0  0  0  0  0  0  0  0
   35.7080   28.8670   32.8910 C   0  0  1  0  0  0  0  0  0  0  0  0
   37.4930   29.3710   31.8220 H   0  0  0  0  0  0  0  0  0  0  0  0
   38.0080   26.9120   31.4890 H   0  0  0  0  0  0  0  0  0  0  0  0
   37.2930   28.6180   34.4150 H   0  0  0  0  0  0  0  0  0  0  0  0
   35.8050   27.7350   34.7350 H   0  0  0  0  0  0  0  0  0  0  0  0
   34.7620   28.3950   32.6150 H   0  0  0  0  0  0  0  0  0  0  0  0
   35.9710   28.8040   30.4880 O   0  0  0  0  0  0  0  0  0  0  0  0
   36.6620   29.0040   29.8150 H   0  0  0  0  0  0  0  0  0  0  0  0
   35.6780   26.1940   31.2210 S   0  0  0  0  0  0  0  0  0  0  0  0
   37.9200   22.9740   30.6520 C   0  0  0  0  0  0  0  0  0  0  0  0
   37.1030   21.9020   31.0180 C   0  0  0  0  0  0  0  0  0  0  0  0
   35.8010   22.1860   31.4600 C   0  0  0  0  0  0  0  0  0  0  0  0
   35.4120   23.4810   31.5080 N   0  0  0  0  0  0  0  0  0  0  0  0
   36.2280   24.4940   31.1470 C   0  0  0  0  0  0  0  0  0  0  0  0
   37.4930   24.2540   30.7140 N   0  0  0  0  0  0  0  0  0  0  0  0
   38.9170   22.7160   30.3160 H   0  0  0  0  0  0  0  0  0  0  0  0
   37.4440   20.8730   30.9670 H   0  0  0  0  0  0  0  0  0  0  0  0
   35.1410   21.3830   31.7510 H   0  0  0  0  0  0  0  0  0  0  0  0
   35.6630   30.1900   33.2620 O   0  0  0  0  0  0  0  0  0  0  0  0
   32.7550   29.7650   33.4140 Cl  0  0  0  0  0  0  0  0  0  0  0  0
   33.8040   30.5460   34.5730 C   0  0  0  0  0  0  0  0  0  0  0  0
   35.1620   30.6740   34.3940 C   0  0  0  0  0  0  0  0  0  0  0  0
   35.9010   31.2910   35.4060 C   0  0  0  0  0  0  0  0  0  0  0  0
   35.2800   31.7550   36.5460 C   0  0  0  0  0  0  0  0  0  0  0  0
   33.9140   31.6320   36.7350 C   0  0  0  0  0  0  0  0  0  0  0  0
   33.1860   31.0170   35.7240 C   0  0  0  0  0  0  0  0  0  0  0  0
   36.9660   31.4320   35.3620 H   0  0  0  0  0  0  0  0  0  0  0  0
   35.7840   32.2420   37.3680 H   0  0  0  0  0  0  0  0  0  0  0  0
   33.3990   31.9800   37.6050 H   0  0  0  0  0  0  0  0  0  0  0  0
   31.7420   30.8770   35.9020 C   0  0  0  0  0  0  0  0  0  0  0  0
   31.0500   31.3880   35.2460 H   0  0  0  0  0  0  0  0  0  0  0  0
   31.2750   30.1590   36.8220 O   0  0  0  0  0  0  0  0  0  0  0  0
  1  6  1  1  0  0  0
  1  2  1  0  0  0  0
  1  5  1  0  0  0  0
  2  7  1  6  0  0  0
  2  3  1  0  0  0  0
  3  4  1  0  0  0  0
  4  8  1  0  0  0  0
  4  9  1  0  0  0  0
  5 10  1  6  0  0  0
  5 23  1  0  0  0  0
  5  4  1  0  0  0  0
 11  1  1  0  0  0  0
 12 11  1  0  0  0  0
 13  2  1  0  0  0  0
 14 19  2  0  0  0  0
 14 15  1  0  0  0  0
 15 16  2  0  0  0  0
 16 17  1  0  0  0  0
 16 22  1  0  0  0  0
 18 13  1  0  0  0  0
 18 17  2  0  0  0  0
 19 18  1  0  0  0  0
 20 14  1  0  0  0  0
 21 15  1  0  0  0  0
 23 26  1  0  0  0  0
 24 25  1  0  0  0  0
 25 30  1  0  0  0  0
 26 25  2  0  0  0  0
 26 27  1  0  0  0  0
 27 28  2  0  0  0  0
 28 29  1  0  0  0  0
 28 32  1  0  0  0  0
 29 33  1  0  0  0  0
 30 34  1  0  0  0  0
 30 29  2  0  0  0  0
 31 27  1  0  0  0  0
 34 36  2  0  0  0  0
 35 34  1  0  0  0  0
M  END
>  <minimizedAffinity>
-5.14557123

$$$$

 OpenBabel03272506493D

 36 38  0  0  1  0  0  0  0  0999 V2000
   36.6220   28.8670   32.0790 C   0  0  2  0  0  0  0  0  0  0  0  0
   37.1070   27.4500   31.9840 C   0  0  1  0  0  0  0  0  0  0  0  0
   37.2560   26.9710   33.2510 O   0  0  0  0  0  0  0  0  0  0  0  0
   36.6530   27.8460   34.1470 C   0  0  0  0  0  0  0  0  0  0  0  0
   35.7300   28.7360   33.3530 C   0  0  1  0  0  0  0  0  0  0  0  0
   37.3750   29.6160   32.3020 H   0  0  0  0  0  0  0  0  0  0  0  0
   38.0590   27.3380   31.4300 H   0  0  0  0  0  0  0  0  0  0  0  0
   37.4490   28.3380   34.6870 H   0  0  0  0  0  0  0  0  0  0  0  0
   36.0700   27.2690   34.9090 H   0  0  0  0  0  0  0  0  0  0  0  0
   34.8060   28.2410   33.0440 H   0  0  0  0  0  0  0  0  0  0  0  0
   35.8000   29.1870   30.9780 O   0  0  0  0  0  0  0  0  0  0  0  0
   36.4150   29.5850   30.3190 H   0  0  0  0  0  0  0  0  0  0  0  0
   35.7810   26.4670   31.1660 S   0  0  0  0  0  0  0  0  0  0  0  0
   35.7630   22.5160   31.5010 C   0  0  0  0  0  0  0  0  0  0  0  0
   37.0370   22.1170   31.0900 C   0  0  0  0  0  0  0  0  0  0  0  0
   37.9420   23.1140   30.6910 C   0  0  0  0  0  0  0  0  0  0  0  0
   37.5310   24.4020   30.7260 N   0  0  0  0  0  0  0  0  0  0  0  0
   36.2910   24.7530   31.1300 C   0  0  0  0  0  0  0  0  0  0  0  0
   35.3900   23.8140   31.5220 N   0  0  0  0  0  0  0  0  0  0  0  0
   35.0930   21.7200   31.8010 H   0  0  0  0  0  0  0  0  0  0  0  0
   37.3380   21.0760   31.0730 H   0  0  0  0  0  0  0  0  0  0  0  0
   38.9360   22.8440   30.3670 H   0  0  0  0  0  0  0  0  0  0  0  0
   35.6080   29.9460   33.9940 O   0  0  0  0  0  0  0  0  0  0  0  0
   36.4100   32.2480   35.6420 Cl  0  0  0  0  0  0  0  0  0  0  0  0
   34.9090   31.3540   35.6760 C   0  0  0  0  0  0  0  0  0  0  0  0
   34.6440   30.2950   34.8400 C   0  0  0  0  0  0  0  0  0  0  0  0
   33.3950   29.6780   34.9400 C   0  0  0  0  0  0  0  0  0  0  0  0
   32.4630   30.1240   35.8520 C   0  0  0  0  0  0  0  0  0  0  0  0
   32.7210   31.1880   36.6990 C   0  0  0  0  0  0  0  0  0  0  0  0
   33.9650   31.7970   36.5930 C   0  0  0  0  0  0  0  0  0  0  0  0
   33.0920   28.8480   34.3270 H   0  0  0  0  0  0  0  0  0  0  0  0
   31.4790   29.6970   35.9870 H   0  0  0  0  0  0  0  0  0  0  0  0
   32.0220   31.5590   37.4180 H   0  0  0  0  0  0  0  0  0  0  0  0
   34.2580   32.9220   37.4780 C   0  0  0  0  0  0  0  0  0  0  0  0
   35.1840   32.9610   38.0360 H   0  0  0  0  0  0  0  0  0  0  0  0
   33.4410   33.8670   37.6080 O   0  0  0  0  0  0  0  0  0  0  0  0
  1  6  1  1  0  0  0
  1  5  1  0  0  0  0
  2  7  1  6  0  0  0
  2  1  1  0  0  0  0
  2  3  1  0  0  0  0
  3  4  1  0  0  0  0
  4  8  1  0  0  0  0
  4  9  1  0  0  0  0
  5 10  1  6  0  0  0
  5 23  1  0  0  0  0
  5  4  1  0  0  0  0
 11  1  1  0  0  0  0
 12 11  1  0  0  0  0
 13  2  1  0  0  0  0
 14 19  1  0  0  0  0
 14 20  1  0  0  0  0
 15 14  2  0  0  0  0
 16 17  2  0  0  0  0
 16 15  1  0  0  0  0
 17 18  1  0  0  0  0
 18 13  1  0  0  0  0
 18 19  2  0  0  0  0
 21 15  1  0  0  0  0
 22 16  1  0  0  0  0
 23 26  1  0  0  0  0
 24 25  1  0  0  0  0
 25 30  1  0  0  0  0
 26 27  1  0  0  0  0
 26 25  2  0  0  0  0
 27 28  2  0  0  0  0
 28 32  1  0  0  0  0
 28 29  1  0  0  0  0
 29 33  1  0  0  0  0
 30 29  2  0  0  0  0
 30 34  1  0  0  0  0
 31 27  1  0  0  0  0
 34 36  2  0  0  0  0
 34 35  1  0  0  0  0
M  END
>  <minimizedAffinity>
-5.13701534

$$$$

 OpenBabel03272506493D

 36 38  0  0  1  0  0  0  0  0999 V2000
   38.0840   27.3030   34.3380 C   0  0  2  0  0  0  0  0  0  0  0  0
   37.1650   28.0340   33.4050 C   0  0  1  0  0  0  0  0  0  0  0  0
   36.7090   27.1440   32.4810 O   0  0  0  0  0  0  0  0  0  0  0  0
   37.0260   25.8540   32.8900 C   0  0  0  0  0  0  0  0  0  0  0  0
   37.3640   25.9190   34.3590 C   0  0  1  0  0  0  0  0  0  0  0  0
   39.0910   27.1240   33.9760 H   0  0  0  0  0  0  0  0  0  0  0  0
   37.6370   28.8940   32.8910 H   0  0  0  0  0  0  0  0  0  0  0  0
   37.8070   25.5000   32.2320 H   0  0  0  0  0  0  0  0  0  0  0  0
   36.1500   25.1750   32.7260 H   0  0  0  0  0  0  0  0  0  0  0  0
   36.4870   26.0260   35.0030 H   0  0  0  0  0  0  0  0  0  0  0  0
   38.0300   27.8640   35.6320 O   0  0  0  0  0  0  0  0  0  0  0  0
   38.7610   28.5240   35.6450 H   0  0  0  0  0  0  0  0  0  0  0  0
   35.7180   28.6070   34.3910 S   0  0  0  0  0  0  0  0  0  0  0  0
   35.6610   32.4640   33.4710 C   0  0  0  0  0  0  0  0  0  0  0  0
   35.9040   33.1220   34.6790 C   0  0  0  0  0  0  0  0  0  0  0  0
   36.0930   32.3390   35.8290 C   0  0  0  0  0  0  0  0  0  0  0  0
   36.0300   30.9940   35.7040 N   0  0  0  0  0  0  0  0  0  0  0  0
   35.7930   30.3900   34.5200 C   0  0  0  0  0  0  0  0  0  0  0  0
   35.6060   31.1160   33.3880 N   0  0  0  0  0  0  0  0  0  0  0  0
   35.5200   33.1000   32.6060 H   0  0  0  0  0  0  0  0  0  0  0  0
   35.9500   34.2030   34.7470 H   0  0  0  0  0  0  0  0  0  0  0  0
   36.2830   32.8130   36.7810 H   0  0  0  0  0  0  0  0  0  0  0  0
   38.2450   24.9100   34.6640 O   0  0  0  0  0  0  0  0  0  0  0  0
   40.8250   23.4990   34.7910 Cl  0  0  0  0  0  0  0  0  0  0  0  0
   39.6180   23.6780   36.0420 C   0  0  0  0  0  0  0  0  0  0  0  0
   38.4480   24.3780   35.8650 C   0  0  0  0  0  0  0  0  0  0  0  0
   37.5740   24.4780   36.9500 C   0  0  0  0  0  0  0  0  0  0  0  0
   37.8840   23.8890   38.1580 C   0  0  0  0  0  0  0  0  0  0  0  0
   39.0590   23.1830   38.3450 C   0  0  0  0  0  0  0  0  0  0  0  0
   39.9230   23.0880   37.2620 C   0  0  0  0  0  0  0  0  0  0  0  0
   36.6390   25.0080   36.9130 H   0  0  0  0  0  0  0  0  0  0  0  0
   37.2590   23.9230   39.0380 H   0  0  0  0  0  0  0  0  0  0  0  0
   39.3310   22.7140   39.2670 H   0  0  0  0  0  0  0  0  0  0  0  0
   41.1700   22.3460   37.4380 C   0  0  0  0  0  0  0  0  0  0  0  0
   42.0260   22.8060   37.9120 H   0  0  0  0  0  0  0  0  0  0  0  0
   41.2720   21.1580   37.0430 O   0  0  0  0  0  0  0  0  0  0  0  0
  1  6  1  6  0  0  0
  1  5  1  0  0  0  0
  1 11  1  0  0  0  0
  2  7  1  6  0  0  0
  2  1  1  0  0  0  0
  2 13  1  0  0  0  0
  3  4  1  0  0  0  0
  3  2  1  0  0  0  0
  4  5  1  0  0  0  0
  5 23  1  0  0  0  0
  5 10  1  1  0  0  0
  8  4  1  0  0  0  0
  9  4  1  0  0  0  0
 11 12  1  0  0  0  0
 13 18  1  0  0  0  0
 14 15  1  0  0  0  0
 15 21  1  0  0  0  0
 15 16  2  0  0  0  0
 16 22  1  0  0  0  0
 17 16  1  0  0  0  0
 18 17  2  0  0  0  0
 19 14  2  0  0  0  0
 19 18  1  0  0  0  0
 20 14  1  0  0  0  0
 23 26  1  0  0  0  0
 24 25  1  0  0  0  0
 25 30  1  0  0  0  0
 26 25  2  0  0  0  0
 26 27  1  0  0  0  0
 27 28  2  0  0  0  0
 28 29  1  0  0  0  0
 28 32  1  0  0  0  0
 29 33  1  0  0  0  0
 30 34  1  0  0  0  0
 30 29  2  0  0  0  0
 31 27  1  0  0  0  0
 34 35  1  0  0  0  0
 36 34  2  0  0  0  0
M  END
>  <minimizedAffinity>
-5.13180208

$$$$

 OpenBabel03272506493D

 36 38  0  0  1  0  0  0  0  0999 V2000
   37.6600   24.9360   32.1900 C   0  0  2  0  0  0  0  0  0  0  0  0
   37.4090   23.9660   31.0740 C   0  0  1  0  0  0  0  0  0  0  0  0
   38.2190   22.8870   31.2640 O   0  0  0  0  0  0  0  0  0  0  0  0
   38.7660   22.9440   32.5410 C   0  0  0  0  0  0  0  0  0  0  0  0
   37.9400   23.9200   33.3410 C   0  0  1  0  0  0  0  0  0  0  0  0
   38.5470   25.5540   32.0970 H   0  0  0  0  0  0  0  0  0  0  0  0
   37.5840   24.3880   30.0640 H   0  0  0  0  0  0  0  0  0  0  0  0
   39.8130   23.1830   32.4230 H   0  0  0  0  0  0  0  0  0  0  0  0
   38.7300   21.9300   33.0160 H   0  0  0  0  0  0  0  0  0  0  0  0
   36.9720   23.5190   33.6530 H   0  0  0  0  0  0  0  0  0  0  0  0
   36.4860   25.6580   32.4950 O   0  0  0  0  0  0  0  0  0  0  0  0
   36.5520   26.4770   31.9500 H   0  0  0  0  0  0  0  0  0  0  0  0
   35.6660   23.3900   31.2230 S   0  0  0  0  0  0  0  0  0  0  0  0
   35.9130   19.4350   31.0940 C   0  0  0  0  0  0  0  0  0  0  0  0
   35.7020   19.0210   32.4110 C   0  0  0  0  0  0  0  0  0  0  0  0
   35.4750   20.0090   33.3830 C   0  0  0  0  0  0  0  0  0  0  0  0
   35.4720   21.3030   32.9900 N   0  0  0  0  0  0  0  0  0  0  0  0
   35.6790   21.6680   31.7070 C   0  0  0  0  0  0  0  0  0  0  0  0
   35.9020   20.7390   30.7410 N   0  0  0  0  0  0  0  0  0  0  0  0
   36.0840   18.6460   30.3720 H   0  0  0  0  0  0  0  0  0  0  0  0
   35.7100   17.9750   32.6950 H   0  0  0  0  0  0  0  0  0  0  0  0
   35.3090   19.7270   34.4120 H   0  0  0  0  0  0  0  0  0  0  0  0
   38.7270   24.4860   34.3150 O   0  0  0  0  0  0  0  0  0  0  0  0
   41.3330   23.2100   34.8080 Cl  0  0  0  0  0  0  0  0  0  0  0  0
   40.0090   23.4490   35.9220 C   0  0  0  0  0  0  0  0  0  0  0  0
   38.8350   24.0760   35.5750 C   0  0  0  0  0  0  0  0  0  0  0  0
   37.8610   24.2370   36.5630 C   0  0  0  0  0  0  0  0  0  0  0  0
   38.0780   23.7770   37.8440 C   0  0  0  0  0  0  0  0  0  0  0  0
   39.2550   23.1440   38.2030 C   0  0  0  0  0  0  0  0  0  0  0  0
   40.2190   22.9880   37.2150 C   0  0  0  0  0  0  0  0  0  0  0  0
   36.9150   24.7180   36.3910 H   0  0  0  0  0  0  0  0  0  0  0  0
   37.3720   23.8640   38.6580 H   0  0  0  0  0  0  0  0  0  0  0  0
   39.4570   22.7740   39.1860 H   0  0  0  0  0  0  0  0  0  0  0  0
   41.4700   22.3220   37.5730 C   0  0  0  0  0  0  0  0  0  0  0  0
   42.3400   22.8960   37.8650 H   0  0  0  0  0  0  0  0  0  0  0  0
   41.5610   21.0690   37.5480 O   0  0  0  0  0  0  0  0  0  0  0  0
  1  6  1  6  0  0  0
  1 11  1  0  0  0  0
  1  5  1  0  0  0  0
  2  7  1  6  0  0  0
  2 13  1  0  0  0  0
  2  3  1  0  0  0  0
  2  1  1  0  0  0  0
  3  4  1  0  0  0  0
  4  9  1  0  0  0  0
  4  5  1  0  0  0  0
  5 10  1  1  0  0  0
  5 23  1  0  0  0  0
  8  4  1  0  0  0  0
 12 11  1  0  0  0  0
 13 18  1  0  0  0  0
 14 15  1  0  0  0  0
 15 21  1  0  0  0  0
 15 16  2  0  0  0  0
 16 22  1  0  0  0  0
 17 16  1  0  0  0  0
 18 17  2  0  0  0  0
 19 14  2  0  0  0  0
 19 18  1  0  0  0  0
 20 14  1  0  0  0  0
 23 26  1  0  0  0  0
 24 25  1  0  0  0  0
 25 30  1  0  0  0  0
 26 25  2  0  0  0  0
 26 27  1  0  0  0  0
 27 28  2  0  0  0  0
 28 29  1  0  0  0  0
 28 32  1  0  0  0  0
 29 33  1  0  0  0  0
 30 34  1  0  0  0  0
 30 29  2  0  0  0  0
 31 27  1  0  0  0  0
 34 35  1  0  0  0  0
 36 34  2  0  0  0  0
M  END
>  <minimizedAffinity>
-5.0857811

$$$$

 OpenBabel03272506493D

 36 38  0  0  1  0  0  0  0  0999 V2000
   36.9390   28.0290   32.8000 C   0  0  2  0  0  0  0  0  0  0  0  0
   36.2290   29.2560   32.3100 C   0  0  1  0  0  0  0  0  0  0  0  0
   36.0720   29.1410   30.9620 O   0  0  0  0  0  0  0  0  0  0  0  0
   36.3640   27.8380   30.5760 C   0  0  0  0  0  0  0  0  0  0  0  0
   36.3280   26.9830   31.8170 C   0  0  1  0  0  0  0  0  0  0  0  0
   38.0140   28.0060   32.6510 H   0  0  0  0  0  0  0  0  0  0  0  0
   36.7560   30.2030   32.5430 H   0  0  0  0  0  0  0  0  0  0  0  0
   37.3030   27.8730   30.0420 H   0  0  0  0  0  0  0  0  0  0  0  0
   35.6010   27.4790   29.8380 H   0  0  0  0  0  0  0  0  0  0  0  0
   35.3150   26.7690   32.1700 H   0  0  0  0  0  0  0  0  0  0  0  0
   36.5340   27.7110   34.1140 O   0  0  0  0  0  0  0  0  0  0  0  0
   37.1960   28.1590   34.6910 H   0  0  0  0  0  0  0  0  0  0  0  0
   34.5520   29.2650   33.0710 S   0  0  0  0  0  0  0  0  0  0  0  0
   35.8510   31.5510   36.0390 C   0  0  0  0  0  0  0  0  0  0  0  0
   34.6990   31.9090   36.7430 C   0  0  0  0  0  0  0  0  0  0  0  0
   33.4660   31.4240   36.2800 C   0  0  0  0  0  0  0  0  0  0  0  0
   33.4620   30.6370   35.1790 N   0  0  0  0  0  0  0  0  0  0  0  0
   34.5950   30.3100   34.5220 C   0  0  0  0  0  0  0  0  0  0  0  0
   35.8050   30.7620   34.9430 N   0  0  0  0  0  0  0  0  0  0  0  0
   36.7830   31.9440   36.4250 H   0  0  0  0  0  0  0  0  0  0  0  0
   34.7350   32.5420   37.6230 H   0  0  0  0  0  0  0  0  0  0  0  0
   32.5540   31.6800   36.7980 H   0  0  0  0  0  0  0  0  0  0  0  0
   37.1730   25.9110   31.6520 O   0  0  0  0  0  0  0  0  0  0  0  0
   38.8110   24.7830   33.8200 Cl  0  0  0  0  0  0  0  0  0  0  0  0
   37.5900   23.9920   32.8530 C   0  0  0  0  0  0  0  0  0  0  0  0
   36.8760   24.6340   31.8680 C   0  0  0  0  0  0  0  0  0  0  0  0
   35.9030   23.9030   31.1830 C   0  0  0  0  0  0  0  0  0  0  0  0
   35.6720   22.5800   31.4910 C   0  0  0  0  0  0  0  0  0  0  0  0
   36.3860   21.9250   32.4800 C   0  0  0  0  0  0  0  0  0  0  0  0
   37.3520   22.6580   33.1570 C   0  0  0  0  0  0  0  0  0  0  0  0
   35.2900   24.3170   30.4020 H   0  0  0  0  0  0  0  0  0  0  0  0
   34.9390   21.9530   31.0040 H   0  0  0  0  0  0  0  0  0  0  0  0
   36.2340   20.9000   32.7440 H   0  0  0  0  0  0  0  0  0  0  0  0
   38.1170   21.9860   34.2050 C   0  0  0  0  0  0  0  0  0  0  0  0
   39.1050   21.5930   34.0040 H   0  0  0  0  0  0  0  0  0  0  0  0
   37.6440   21.8510   35.3610 O   0  0  0  0  0  0  0  0  0  0  0  0
  1  6  1  6  0  0  0
  1 11  1  0  0  0  0
  2  7  1  1  0  0  0
  2  1  1  0  0  0  0
  2 13  1  0  0  0  0
  3  2  1  0  0  0  0
  4  3  1  0  0  0  0
  4  5  1  0  0  0  0
  5 10  1  1  0  0  0
  5  1  1  0  0  0  0
  8  4  1  0  0  0  0
  9  4  1  0  0  0  0
 11 12  1  0  0  0  0
 13 18  1  0  0  0  0
 14 20  1  0  0  0  0
 14 15  1  0  0  0  0
 15 21  1  0  0  0  0
 16 15  2  0  0  0  0
 16 22  1  0  0  0  0
 17 16  1  0  0  0  0
 18 19  1  0  0  0  0
 18 17  2  0  0  0  0
 19 14  2  0  0  0  0
 23  5  1  0  0  0  0
 23 26  1  0  0  0  0
 25 30  1  0  0  0  0
 25 24  1  0  0  0  0
 26 25  2  0  0  0  0
 27 28  2  0  0  0  0
 27 26  1  0  0  0  0
 28 29  1  0  0  0  0
 29 33  1  0  0  0  0
 29 30  2  0  0  0  0
 30 34  1  0  0  0  0
 31 27  1  0  0  0  0
 32 28  1  0  0  0  0
 34 36  2  0  0  0  0
 35 34  1  0  0  0  0
M  END
>  <minimizedAffinity>
-5.01790094

$$$$

 OpenBabel03272506493D

 36 38  0  0  1  0  0  0  0  0999 V2000
   37.8670   27.3520   33.0870 C   0  0  2  0  0  0  0  0  0  0  0  0
   38.7270   26.5070   33.9790 C   0  0  1  0  0  0  0  0  0  0  0  0
   38.7600   27.0930   35.2090 O   0  0  0  0  0  0  0  0  0  0  0  0
   37.7840   28.0810   35.2730 C   0  0  0  0  0  0  0  0  0  0  0  0
   36.8200   27.8340   34.1400 C   0  0  1  0  0  0  0  0  0  0  0  0
   38.3310   28.2440   32.6780 H   0  0  0  0  0  0  0  0  0  0  0  0
   39.7610   26.3690   33.6060 H   0  0  0  0  0  0  0  0  0  0  0  0
   38.3000   29.0300   35.2690 H   0  0  0  0  0  0  0  0  0  0  0  0
   37.2480   28.0230   36.2540 H   0  0  0  0  0  0  0  0  0  0  0  0
   36.1420   26.9960   34.3200 H   0  0  0  0  0  0  0  0  0  0  0  0
   37.2110   26.5530   32.1260 O   0  0  0  0  0  0  0  0  0  0  0  0
   37.8070   26.5720   31.3420 H   0  0  0  0  0  0  0  0  0  0  0  0
   37.8990   24.8720   34.1590 S   0  0  0  0  0  0  0  0  0  0  0  0
   37.8630   23.8730   37.9960 C   0  0  0  0  0  0  0  0  0  0  0  0
   39.0320   23.1320   38.1830 C   0  0  0  0  0  0  0  0  0  0  0  0
   39.8680   22.9310   37.0730 C   0  0  0  0  0  0  0  0  0  0  0  0
   39.4960   23.4650   35.8870 N   0  0  0  0  0  0  0  0  0  0  0  0
   38.3580   24.1780   35.7420 C   0  0  0  0  0  0  0  0  0  0  0  0
   37.5270   24.3910   36.7950 N   0  0  0  0  0  0  0  0  0  0  0  0
   37.2430   24.0080   38.8740 H   0  0  0  0  0  0  0  0  0  0  0  0
   39.3040   22.7160   39.1470 H   0  0  0  0  0  0  0  0  0  0  0  0
   40.7800   22.3620   37.1790 H   0  0  0  0  0  0  0  0  0  0  0  0
   36.2550   29.0280   33.7600 O   0  0  0  0  0  0  0  0  0  0  0  0
   36.1270   31.0970   35.8490 Cl  0  0  0  0  0  0  0  0  0  0  0  0
   34.8150   30.3690   34.9550 C   0  0  0  0  0  0  0  0  0  0  0  0
   35.0030   29.4120   33.9840 C   0  0  0  0  0  0  0  0  0  0  0  0
   33.8770   28.9280   33.3150 C   0  0  0  0  0  0  0  0  0  0  0  0
   32.6190   29.3990   33.6240 C   0  0  0  0  0  0  0  0  0  0  0  0
   32.4190   30.3610   34.5990 C   0  0  0  0  0  0  0  0  0  0  0  0
   33.5440   30.8390   35.2600 C   0  0  0  0  0  0  0  0  0  0  0  0
   33.9220   28.1850   32.5390 H   0  0  0  0  0  0  0  0  0  0  0  0
   31.7050   29.0710   33.1510 H   0  0  0  0  0  0  0  0  0  0  0  0
   31.4590   30.7490   34.8650 H   0  0  0  0  0  0  0  0  0  0  0  0
   33.3550   31.8550   36.2940 C   0  0  0  0  0  0  0  0  0  0  0  0
   33.6760   32.8750   36.1320 H   0  0  0  0  0  0  0  0  0  0  0  0
   32.8160   31.5640   37.3900 O   0  0  0  0  0  0  0  0  0  0  0  0
  1  6  1  6  0  0  0
  1  2  1  0  0  0  0
  1  5  1  0  0  0  0
  2  7  1  6  0  0  0
  2 13  1  0  0  0  0
  2  3  1  0  0  0  0
  3  4  1  0  0  0  0
  4  9  1  0  0  0  0
  5 10  1  1  0  0  0
  5  4  1  0  0  0  0
  8  4  1  0  0  0  0
 11  1  1  0  0  0  0
 12 11  1  0  0  0  0
 13 18  1  0  0  0  0
 14 15  1  0  0  0  0
 14 20  1  0  0  0  0
 15 21  1  0  0  0  0
 16 22  1  0  0  0  0
 16 15  2  0  0  0  0
 17 16  1  0  0  0  0
 18 17  2  0  0  0  0
 18 19  1  0  0  0  0
 19 14  2  0  0  0  0
 23 26  1  0  0  0  0
 23  5  1  0  0  0  0
 25 30  1  0  0  0  0
 25 24  1  0  0  0  0
 26 25  2  0  0  0  0
 27 28  2  0  0  0  0
 27 26  1  0  0  0  0
 28 29  1  0  0  0  0
 29 33  1  0  0  0  0
 29 30  2  0  0  0  0
 30 34  1  0  0  0  0
 31 27  1  0  0  0  0
 32 28  1  0  0  0  0
 34 36  2  0  0  0  0
 35 34  1  0  0  0  0
M  END
>  <minimizedAffinity>
-4.89010763

$$$$

 OpenBabel03272506493D

 36 38  0  0  1  0  0  0  0  0999 V2000
   36.9530   25.2620   30.8830 C   0  0  2  0  0  0  0  0  0  0  0  0
   37.1340   23.7860   31.0820 C   0  0  1  0  0  0  0  0  0  0  0  0
   38.0130   23.6040   32.1060 O   0  0  0  0  0  0  0  0  0  0  0  0
   38.2050   24.8130   32.7660 C   0  0  0  0  0  0  0  0  0  0  0  0
   37.0740   25.7270   32.3670 C   0  0  1  0  0  0  0  0  0  0  0  0
   37.7390   25.7710   30.3330 H   0  0  0  0  0  0  0  0  0  0  0  0
   37.4970   23.2520   30.1820 H   0  0  0  0  0  0  0  0  0  0  0  0
   39.2040   25.1470   32.5230 H   0  0  0  0  0  0  0  0  0  0  0  0
   38.1950   24.6480   33.8740 H   0  0  0  0  0  0  0  0  0  0  0  0
   36.1260   25.4850   32.8540 H   0  0  0  0  0  0  0  0  0  0  0  0
   35.6510   25.5470   30.4200 O   0  0  0  0  0  0  0  0  0  0  0  0
   35.7360   25.5620   29.4390 H   0  0  0  0  0  0  0  0  0  0  0  0
   35.5090   23.0980   31.6100 S   0  0  0  0  0  0  0  0  0  0  0  0
   36.2730   19.2890   30.8130 C   0  0  0  0  0  0  0  0  0  0  0  0
   35.9330   18.6050   31.9830 C   0  0  0  0  0  0  0  0  0  0  0  0
   35.4480   19.3540   33.0660 C   0  0  0  0  0  0  0  0  0  0  0  0
   35.3360   20.6940   32.9180 N   0  0  0  0  0  0  0  0  0  0  0  0
   35.6730   21.3240   31.7720 C   0  0  0  0  0  0  0  0  0  0  0  0
   36.1460   20.6300   30.7040 N   0  0  0  0  0  0  0  0  0  0  0  0
   36.6430   18.6790   29.9990 H   0  0  0  0  0  0  0  0  0  0  0  0
   36.0340   17.5290   32.0710 H   0  0  0  0  0  0  0  0  0  0  0  0
   35.1760   18.8600   33.9870 H   0  0  0  0  0  0  0  0  0  0  0  0
   37.5010   27.0310   32.4410 O   0  0  0  0  0  0  0  0  0  0  0  0
   36.8200   28.7720   30.1680 Cl  0  0  0  0  0  0  0  0  0  0  0  0
   36.4090   28.9720   31.8540 C   0  0  0  0  0  0  0  0  0  0  0  0
   36.7770   28.0760   32.8310 C   0  0  0  0  0  0  0  0  0  0  0  0
   36.3620   28.3280   34.1400 C   0  0  0  0  0  0  0  0  0  0  0  0
   35.6080   29.4430   34.4360 C   0  0  0  0  0  0  0  0  0  0  0  0
   35.2340   30.3510   33.4600 C   0  0  0  0  0  0  0  0  0  0  0  0
   35.6490   30.0930   32.1600 C   0  0  0  0  0  0  0  0  0  0  0  0
   36.5940   27.6850   34.9710 H   0  0  0  0  0  0  0  0  0  0  0  0
   35.2530   29.7030   35.4230 H   0  0  0  0  0  0  0  0  0  0  0  0
   34.6500   31.2250   33.6540 H   0  0  0  0  0  0  0  0  0  0  0  0
   35.2650   31.0390   31.1150 C   0  0  0  0  0  0  0  0  0  0  0  0
   34.4310   30.8300   30.4580 H   0  0  0  0  0  0  0  0  0  0  0  0
   35.8960   32.1140   30.9570 O   0  0  0  0  0  0  0  0  0  0  0  0
  1  6  1  6  0  0  0
  1  2  1  0  0  0  0
  1  5  1  0  0  0  0
  2  7  1  6  0  0  0
  2 13  1  0  0  0  0
  2  3  1  0  0  0  0
  3  4  1  0  0  0  0
  4  9  1  0  0  0  0
  5 23  1  0  0  0  0
  5  4  1  0  0  0  0
  5 10  1  1  0  0  0
  8  4  1  0  0  0  0
 11  1  1  0  0  0  0
 12 11  1  0  0  0  0
 13 18  1  0  0  0  0
 14 15  1  0  0  0  0
 15 21  1  0  0  0  0
 15 16  2  0  0  0  0
 16 22  1  0  0  0  0
 17 16  1  0  0  0  0
 18 17  2  0  0  0  0
 19 14  2  0  0  0  0
 19 18  1  0  0  0  0
 20 14  1  0  0  0  0
 23 26  1  0  0  0  0
 24 25  1  0  0  0  0
 25 30  2  0  0  0  0
 25 26  1  0  0  0  0
 26 27  2  0  0  0  0
 27 28  1  0  0  0  0
 27 31  1  0  0  0  0
 28 32  1  0  0  0  0
 29 33  1  0  0  0  0
 29 28  2  0  0  0  0
 30 29  1  0  0  0  0
 34 30  1  0  0  0  0
 35 34  1  0  0  0  0
 36 34  2  0  0  0  0
M  END
>  <minimizedAffinity>
-4.88362265

$$$$

 OpenBabel03272506493D

 36 38  0  0  1  0  0  0  0  0999 V2000
   38.6990   24.1290   32.2900 C   0  0  2  0  0  0  0  0  0  0  0  0
   39.3220   22.9720   33.0140 C   0  0  1  0  0  0  0  0  0  0  0  0
   40.3430   23.4540   33.7770 O   0  0  0  0  0  0  0  0  0  0  0  0
   40.2610   24.8410   33.8290 C   0  0  0  0  0  0  0  0  0  0  0  0
   38.8710   25.2260   33.3860 C   0  0  1  0  0  0  0  0  0  0  0  0
   39.2250   24.4830   31.4090 H   0  0  0  0  0  0  0  0  0  0  0  0
   39.7040   22.1770   32.3440 H   0  0  0  0  0  0  0  0  0  0  0  0
   41.0790   25.2260   33.2380 H   0  0  0  0  0  0  0  0  0  0  0  0
   40.4420   25.1940   34.8770 H   0  0  0  0  0  0  0  0  0  0  0  0
   38.1060   25.0410   34.1440 H   0  0  0  0  0  0  0  0  0  0  0  0
   37.3210   23.9030   32.0850 O   0  0  0  0  0  0  0  0  0  0  0  0
   37.2690   23.4910   31.1910 H   0  0  0  0  0  0  0  0  0  0  0  0
   38.0500   22.2810   34.1510 S   0  0  0  0  0  0  0  0  0  0  0  0
   39.9960   22.4290   37.6030 C   0  0  0  0  0  0  0  0  0  0  0  0
   39.2430   23.2950   38.4000 C   0  0  0  0  0  0  0  0  0  0  0  0
   38.0820   23.8580   37.8460 C   0  0  0  0  0  0  0  0  0  0  0  0
   37.7590   23.5320   36.5730 N   0  0  0  0  0  0  0  0  0  0  0  0
   38.5100   22.6910   35.8300 C   0  0  0  0  0  0  0  0  0  0  0  0
   39.6390   22.1280   36.3350 N   0  0  0  0  0  0  0  0  0  0  0  0
   40.8840   22.0140   38.0630 H   0  0  0  0  0  0  0  0  0  0  0  0
   39.5290   23.5360   39.4180 H   0  0  0  0  0  0  0  0  0  0  0  0
   37.4750   24.5310   38.4320 H   0  0  0  0  0  0  0  0  0  0  0  0
   38.9080   26.4800   32.8250 O   0  0  0  0  0  0  0  0  0  0  0  0
   37.6420   27.6660   35.2020 Cl  0  0  0  0  0  0  0  0  0  0  0  0
   37.1740   27.8220   33.5260 C   0  0  0  0  0  0  0  0  0  0  0  0
   37.8590   27.2250   32.4930 C   0  0  0  0  0  0  0  0  0  0  0  0
   37.4060   27.4490   31.1920 C   0  0  0  0  0  0  0  0  0  0  0  0
   36.3050   28.2450   30.9580 C   0  0  0  0  0  0  0  0  0  0  0  0
   35.6090   28.8490   31.9900 C   0  0  0  0  0  0  0  0  0  0  0  0
   36.0650   28.6220   33.2820 C   0  0  0  0  0  0  0  0  0  0  0  0
   37.8770   27.0320   30.3190 H   0  0  0  0  0  0  0  0  0  0  0  0
   35.8980   28.4620   29.9810 H   0  0  0  0  0  0  0  0  0  0  0  0
   34.7520   29.4720   31.8450 H   0  0  0  0  0  0  0  0  0  0  0  0
   35.3440   29.2510   34.3870 C   0  0  0  0  0  0  0  0  0  0  0  0
   34.5660   28.7160   34.9160 H   0  0  0  0  0  0  0  0  0  0  0  0
   35.6130   30.4240   34.7460 O   0  0  0  0  0  0  0  0  0  0  0  0
  1  6  1  6  0  0  0
  1  2  1  0  0  0  0
  1  5  1  0  0  0  0
  2  7  1  6  0  0  0
  2  3  1  0  0  0  0
  2 13  1  0  0  0  0
  3  4  1  0  0  0  0
  4  9  1  0  0  0  0
  5  4  1  0  0  0  0
  5 10  1  1  0  0  0
  8  4  1  0  0  0  0
 11  1  1  0  0  0  0
 12 11  1  0  0  0  0
 13 18  1  0  0  0  0
 14 20  1  0  0  0  0
 14 15  1  0  0  0  0
 15 21  1  0  0  0  0
 16 15  2  0  0  0  0
 16 22  1  0  0  0  0
 17 16  1  0  0  0  0
 18 19  1  0  0  0  0
 18 17  2  0  0  0  0
 19 14  2  0  0  0  0
 23  5  1  0  0  0  0
 25 24  1  0  0  0  0
 26 23  1  0  0  0  0
 26 25  2  0  0  0  0
 27 26  1  0  0  0  0
 28 27  2  0  0  0  0
 28 29  1  0  0  0  0
 29 30  2  0  0  0  0
 30 25  1  0  0  0  0
 30 34  1  0  0  0  0
 31 27  1  0  0  0  0
 32 28  1  0  0  0  0
 33 29  1  0  0  0  0
 34 36  2  0  0  0  0
 34 35  1  0  0  0  0
M  END
>  <minimizedAffinity>
-4.86314487

$$$$
