
 OpenBabel03262520093D

 22 23  0  0  0  0  0  0  0  0999 V2000
   37.9770   23.5170   33.3200 Br  0  0  0  0  0  0  0  0  0  0  0  0
   37.8860   25.2380   34.1460 C   0  0  0  0  0  0  0  0  0  0  0  0
   38.4890   25.4960   35.3670 C   0  0  0  0  0  0  0  0  0  0  0  0
   38.3770   26.7550   35.8920 C   0  0  0  0  0  0  0  0  0  0  0  0
   37.6930   27.7850   35.2670 C   0  0  0  0  0  0  0  0  0  0  0  0
   37.1060   27.5050   34.0610 C   0  0  0  0  0  0  0  0  0  0  0  0
   37.2030   26.2450   33.5100 C   0  0  0  0  0  0  0  0  0  0  0  0
   38.8480   26.9720   36.8550 H   0  0  0  0  0  0  0  0  0  0  0  0
   37.6490   28.7570   35.7460 H   0  0  0  0  0  0  0  0  0  0  0  0
   36.5550   28.3020   33.5400 H   0  0  0  0  0  0  0  0  0  0  0  0
   39.3090   22.8860   37.7890 C   0  0  0  0  0  0  0  0  0  0  0  0
   40.5730   22.4230   37.3720 C   0  0  0  0  0  0  0  0  0  0  0  0
   41.1340   23.0190   36.2530 C   0  0  0  0  0  0  0  0  0  0  0  0
   40.4460   24.0150   35.6120 N   0  0  0  0  0  0  0  0  0  0  0  0
   39.2190   24.4320   36.0550 C   0  0  0  0  0  0  0  0  0  0  0  0
   38.6650   23.8630   37.1370 N   0  0  0  0  0  0  0  0  0  0  0  0
   38.9330   22.3820   38.6600 H   0  0  0  0  0  0  0  0  0  0  0  0
   41.1630   21.6620   37.8130 H   0  0  0  0  0  0  0  0  0  0  0  0
   42.0790   22.8130   35.7790 H   0  0  0  0  0  0  0  0  0  0  0  0
   36.5690   25.9680   32.2240 C   0  0  0  0  0  0  0  0  0  0  0  0
   36.7700   25.0580   31.6760 H   0  0  0  0  0  0  0  0  0  0  0  0
   35.7640   26.8020   31.7270 O   0  0  0  0  0  0  0  0  0  0  0  0
  1  2  1  0  0  0  0
  2  3  1  0  0  0  0
  3  4  2  0  0  0  0
  3 15  1  0  0  0  0
  4  8  1  0  0  0  0
  5  9  1  0  0  0  0
  5  4  1  0  0  0  0
  6  5  2  0  0  0  0
  7  6  1  0  0  0  0
  7  2  2  0  0  0  0
 10  6  1  0  0  0  0
 11 17  1  0  0  0  0
 12 11  1  0  0  0  0
 12 18  1  0  0  0  0
 13 12  2  0  0  0  0
 14 15  2  0  0  0  0
 14 13  1  0  0  0  0
 15 16  1  0  0  0  0
 16 11  2  0  0  0  0
 19 13  1  0  0  0  0
 20  7  1  0  0  0  0
 21 20  1  0  0  0  0
 22 20  2  0  0  0  0
M  END
>  <minimizedAffinity>
-4.3701973

$$$$

 OpenBabel03262520093D

 22 23  0  0  0  0  0  0  0  0999 V2000
   38.5140   24.1700   33.2750 Br  0  0  0  0  0  0  0  0  0  0  0  0
   37.3300   22.6820   33.4640 C   0  0  0  0  0  0  0  0  0  0  0  0
   37.2520   21.9550   34.6410 C   0  0  0  0  0  0  0  0  0  0  0  0
   36.3790   20.9020   34.6970 C   0  0  0  0  0  0  0  0  0  0  0  0
   35.5690   20.5260   33.6370 C   0  0  0  0  0  0  0  0  0  0  0  0
   35.6640   21.2600   32.4850 C   0  0  0  0  0  0  0  0  0  0  0  0
   36.5360   22.3250   32.4030 C   0  0  0  0  0  0  0  0  0  0  0  0
   36.3070   20.3200   35.6200 H   0  0  0  0  0  0  0  0  0  0  0  0
   34.9010   19.6790   33.7580 H   0  0  0  0  0  0  0  0  0  0  0  0
   35.0340   20.9860   31.6260 H   0  0  0  0  0  0  0  0  0  0  0  0
   38.2920   23.3900   37.8360 C   0  0  0  0  0  0  0  0  0  0  0  0
   39.6520   23.0370   37.9380 C   0  0  0  0  0  0  0  0  0  0  0  0
   40.2020   22.3030   36.8990 C   0  0  0  0  0  0  0  0  0  0  0  0
   39.4110   21.9580   35.8350 N   0  0  0  0  0  0  0  0  0  0  0  0
   38.0930   22.3250   35.7790 C   0  0  0  0  0  0  0  0  0  0  0  0
   37.5490   23.0360   36.7800 N   0  0  0  0  0  0  0  0  0  0  0  0
   37.9320   23.9580   38.6750 H   0  0  0  0  0  0  0  0  0  0  0  0
   40.3250   23.2650   38.7250 H   0  0  0  0  0  0  0  0  0  0  0  0
   41.2090   21.9390   36.7860 H   0  0  0  0  0  0  0  0  0  0  0  0
   36.6220   23.0940   31.1640 C   0  0  0  0  0  0  0  0  0  0  0  0
   37.4170   22.9330   30.4500 H   0  0  0  0  0  0  0  0  0  0  0  0
   35.7540   23.9720   30.9070 O   0  0  0  0  0  0  0  0  0  0  0  0
  1  2  1  0  0  0  0
  2  3  1  0  0  0  0
  3  4  2  0  0  0  0
  3 15  1  0  0  0  0
  4  8  1  0  0  0  0
  5  9  1  0  0  0  0
  5  4  1  0  0  0  0
  6  5  2  0  0  0  0
  7  6  1  0  0  0  0
  7  2  2  0  0  0  0
 10  6  1  0  0  0  0
 11 12  1  0  0  0  0
 11 17  1  0  0  0  0
 12 18  1  0  0  0  0
 13 12  2  0  0  0  0
 14 13  1  0  0  0  0
 15 14  2  0  0  0  0
 15 16  1  0  0  0  0
 16 11  2  0  0  0  0
 19 13  1  0  0  0  0
 20  7  1  0  0  0  0
 21 20  1  0  0  0  0
 22 20  2  0  0  0  0
M  END
>  <minimizedAffinity>
-4.27215958

$$$$

 OpenBabel03262520093D

 22 23  0  0  0  0  0  0  0  0999 V2000
   32.3960   29.4440   34.3210 Br  0  0  0  0  0  0  0  0  0  0  0  0
   33.4710   30.6050   35.3930 C   0  0  0  0  0  0  0  0  0  0  0  0
   34.8280   30.7670   35.1610 C   0  0  0  0  0  0  0  0  0  0  0  0
   35.5280   31.6170   35.9740 C   0  0  0  0  0  0  0  0  0  0  0  0
   34.9510   32.3240   37.0170 C   0  0  0  0  0  0  0  0  0  0  0  0
   33.6080   32.1470   37.2260 C   0  0  0  0  0  0  0  0  0  0  0  0
   32.8800   31.2970   36.4210 C   0  0  0  0  0  0  0  0  0  0  0  0
   36.5990   31.7540   35.8020 H   0  0  0  0  0  0  0  0  0  0  0  0
   35.5720   32.9800   37.6170 H   0  0  0  0  0  0  0  0  0  0  0  0
   33.1210   32.6950   38.0460 H   0  0  0  0  0  0  0  0  0  0  0  0
   36.5320   28.1060   33.3280 C   0  0  0  0  0  0  0  0  0  0  0  0
   36.6840   28.6330   32.0300 C   0  0  0  0  0  0  0  0  0  0  0  0
   36.1950   29.9090   31.7980 C   0  0  0  0  0  0  0  0  0  0  0  0
   35.5940   30.5900   32.8230 N   0  0  0  0  0  0  0  0  0  0  0  0
   35.4700   30.0360   34.0690 C   0  0  0  0  0  0  0  0  0  0  0  0
   35.9400   28.8010   34.3070 N   0  0  0  0  0  0  0  0  0  0  0  0
   36.9340   27.1150   33.4380 H   0  0  0  0  0  0  0  0  0  0  0  0
   37.1340   28.1700   31.1900 H   0  0  0  0  0  0  0  0  0  0  0  0
   36.2110   30.4840   30.8870 H   0  0  0  0  0  0  0  0  0  0  0  0
   31.4500   31.1230   36.6620 C   0  0  0  0  0  0  0  0  0  0  0  0
   31.0260   30.1540   36.8860 H   0  0  0  0  0  0  0  0  0  0  0  0
   30.6780   32.1180   36.6110 O   0  0  0  0  0  0  0  0  0  0  0  0
  1  2  1  0  0  0  0
  2  7  1  0  0  0  0
  3  2  2  0  0  0  0
  3  4  1  0  0  0  0
  4  5  2  0  0  0  0
  5  6  1  0  0  0  0
  5  9  1  0  0  0  0
  6 10  1  0  0  0  0
  7 20  1  0  0  0  0
  7  6  2  0  0  0  0
  8  4  1  0  0  0  0
 11 17  1  0  0  0  0
 11 16  1  0  0  0  0
 12 11  2  0  0  0  0
 13 12  1  0  0  0  0
 13 14  2  0  0  0  0
 14 15  1  0  0  0  0
 15 16  2  0  0  0  0
 15  3  1  0  0  0  0
 18 12  1  0  0  0  0
 19 13  1  0  0  0  0
 20 21  1  0  0  0  0
 22 20  2  0  0  0  0
M  END
>  <minimizedAffinity>
-4.22773838

$$$$

 OpenBabel03262520093D

 22 23  0  0  0  0  0  0  0  0999 V2000
   38.5420   27.0300   35.5860 Br  0  0  0  0  0  0  0  0  0  0  0  0
   38.1510   25.6490   34.3240 C   0  0  0  0  0  0  0  0  0  0  0  0
   38.1500   24.3100   34.6830 C   0  0  0  0  0  0  0  0  0  0  0  0
   37.8600   23.3810   33.7200 C   0  0  0  0  0  0  0  0  0  0  0  0
   37.5680   23.7100   32.4060 C   0  0  0  0  0  0  0  0  0  0  0  0
   37.5750   25.0400   32.0770 C   0  0  0  0  0  0  0  0  0  0  0  0
   37.8640   25.9950   33.0270 C   0  0  0  0  0  0  0  0  0  0  0  0
   37.8560   22.3210   33.9890 H   0  0  0  0  0  0  0  0  0  0  0  0
   37.3470   22.9160   31.7000 H   0  0  0  0  0  0  0  0  0  0  0  0
   37.3470   25.3320   31.0410 H   0  0  0  0  0  0  0  0  0  0  0  0
   37.7740   23.7960   38.2800 C   0  0  0  0  0  0  0  0  0  0  0  0
   38.9990   23.2180   38.6680 C   0  0  0  0  0  0  0  0  0  0  0  0
   39.9490   23.0100   37.6810 C   0  0  0  0  0  0  0  0  0  0  0  0
   39.6600   23.3690   36.3910 N   0  0  0  0  0  0  0  0  0  0  0  0
   38.4540   23.9280   36.0610 C   0  0  0  0  0  0  0  0  0  0  0  0
   37.5260   24.1350   37.0090 N   0  0  0  0  0  0  0  0  0  0  0  0
   37.0840   23.9290   39.0940 H   0  0  0  0  0  0  0  0  0  0  0  0
   39.2940   22.9150   39.6400 H   0  0  0  0  0  0  0  0  0  0  0  0
   40.9350   22.5860   37.7700 H   0  0  0  0  0  0  0  0  0  0  0  0
   37.8670   27.4080   32.6540 C   0  0  0  0  0  0  0  0  0  0  0  0
   38.7870   27.9650   32.5490 H   0  0  0  0  0  0  0  0  0  0  0  0
   36.7760   28.0050   32.4460 O   0  0  0  0  0  0  0  0  0  0  0  0
  2  3  1  0  0  0  0
  2  1  1  0  0  0  0
  3 15  1  0  0  0  0
  4  8  1  0  0  0  0
  4  3  2  0  0  0  0
  5  4  1  0  0  0  0
  6  5  2  0  0  0  0
  6  7  1  0  0  0  0
  7  2  2  0  0  0  0
  9  5  1  0  0  0  0
 10  6  1  0  0  0  0
 11 12  1  0  0  0  0
 11 17  1  0  0  0  0
 12 18  1  0  0  0  0
 13 19  1  0  0  0  0
 13 12  2  0  0  0  0
 14 13  1  0  0  0  0
 15 14  2  0  0  0  0
 15 16  1  0  0  0  0
 16 11  2  0  0  0  0
 20  7  1  0  0  0  0
 21 20  1  0  0  0  0
 22 20  2  0  0  0  0
M  END
>  <minimizedAffinity>
-4.19898605

$$$$

 OpenBabel03262520093D

 22 23  0  0  0  0  0  0  0  0999 V2000
   40.8840   24.0270   34.4630 Br  0  0  0  0  0  0  0  0  0  0  0  0
   39.6510   23.9000   35.9180 C   0  0  0  0  0  0  0  0  0  0  0  0
   38.4010   24.4960   35.8710 C   0  0  0  0  0  0  0  0  0  0  0  0
   37.5760   24.3590   36.9540 C   0  0  0  0  0  0  0  0  0  0  0  0
   37.9260   23.6570   38.0960 C   0  0  0  0  0  0  0  0  0  0  0  0
   39.1670   23.0780   38.1190 C   0  0  0  0  0  0  0  0  0  0  0  0
   40.0170   23.2000   37.0400 C   0  0  0  0  0  0  0  0  0  0  0  0
   36.5860   24.8250   36.9300 H   0  0  0  0  0  0  0  0  0  0  0  0
   37.2170   23.5930   38.9150 H   0  0  0  0  0  0  0  0  0  0  0  0
   39.4740   22.5130   39.0120 H   0  0  0  0  0  0  0  0  0  0  0  0
   37.6760   27.3010   33.6450 C   0  0  0  0  0  0  0  0  0  0  0  0
   37.2470   26.6840   32.4530 C   0  0  0  0  0  0  0  0  0  0  0  0
   37.2100   25.2990   32.4270 C   0  0  0  0  0  0  0  0  0  0  0  0
   37.5880   24.6010   33.5440 N   0  0  0  0  0  0  0  0  0  0  0  0
   37.9990   25.2450   34.6810 C   0  0  0  0  0  0  0  0  0  0  0  0
   38.0380   26.5860   34.7170 N   0  0  0  0  0  0  0  0  0  0  0  0
   37.6800   28.3750   33.5950 H   0  0  0  0  0  0  0  0  0  0  0  0
   36.9410   27.1530   31.5530 H   0  0  0  0  0  0  0  0  0  0  0  0
   36.9160   24.6440   31.6240 H   0  0  0  0  0  0  0  0  0  0  0  0
   41.3360   22.5740   37.0860 C   0  0  0  0  0  0  0  0  0  0  0  0
   42.2440   23.1600   37.0550 H   0  0  0  0  0  0  0  0  0  0  0  0
   41.4350   21.3200   37.1640 O   0  0  0  0  0  0  0  0  0  0  0  0
  1  2  1  0  0  0  0
  2  7  1  0  0  0  0
  3  2  2  0  0  0  0
  3  4  1  0  0  0  0
  4  5  2  0  0  0  0
  5  6  1  0  0  0  0
  5  9  1  0  0  0  0
  6 10  1  0  0  0  0
  7 20  1  0  0  0  0
  7  6  2  0  0  0  0
  8  4  1  0  0  0  0
 11 16  1  0  0  0  0
 12 11  2  0  0  0  0
 13 12  1  0  0  0  0
 13 14  2  0  0  0  0
 14 15  1  0  0  0  0
 15 16  2  0  0  0  0
 15  3  1  0  0  0  0
 17 11  1  0  0  0  0
 18 12  1  0  0  0  0
 19 13  1  0  0  0  0
 20 22  2  0  0  0  0
 21 20  1  0  0  0  0
M  END
>  <minimizedAffinity>
-4.13033676

$$$$

 OpenBabel03262520093D

 22 23  0  0  0  0  0  0  0  0999 V2000
   37.4540   24.3300   32.4790 Br  0  0  0  0  0  0  0  0  0  0  0  0
   37.8150   25.3980   34.0230 C   0  0  0  0  0  0  0  0  0  0  0  0
   37.7850   26.7830   33.9770 C   0  0  0  0  0  0  0  0  0  0  0  0
   38.0550   27.4750   35.1260 C   0  0  0  0  0  0  0  0  0  0  0  0
   38.3570   26.8650   36.3330 C   0  0  0  0  0  0  0  0  0  0  0  0
   38.3810   25.4950   36.3520 C   0  0  0  0  0  0  0  0  0  0  0  0
   38.1120   24.7730   35.2080 C   0  0  0  0  0  0  0  0  0  0  0  0
   38.0350   28.5690   35.1040 H   0  0  0  0  0  0  0  0  0  0  0  0
   38.5600   27.4820   37.2010 H   0  0  0  0  0  0  0  0  0  0  0  0
   38.6180   24.9800   37.2950 H   0  0  0  0  0  0  0  0  0  0  0  0
   35.8880   28.4950   31.3660 C   0  0  0  0  0  0  0  0  0  0  0  0
   36.8440   28.7410   30.3600 C   0  0  0  0  0  0  0  0  0  0  0  0
   38.1410   28.3120   30.5920 C   0  0  0  0  0  0  0  0  0  0  0  0
   38.4320   27.6770   31.7710 N   0  0  0  0  0  0  0  0  0  0  0  0
   37.4690   27.4600   32.7200 C   0  0  0  0  0  0  0  0  0  0  0  0
   36.2090   27.8710   32.5060 N   0  0  0  0  0  0  0  0  0  0  0  0
   34.9050   28.8530   31.1200 H   0  0  0  0  0  0  0  0  0  0  0  0
   36.6960   29.2230   29.4280 H   0  0  0  0  0  0  0  0  0  0  0  0
   39.0080   28.4020   29.9590 H   0  0  0  0  0  0  0  0  0  0  0  0
   38.1430   23.3130   35.2520 C   0  0  0  0  0  0  0  0  0  0  0  0
   38.5880   22.7310   34.4570 H   0  0  0  0  0  0  0  0  0  0  0  0
   37.6420   22.7030   36.2340 O   0  0  0  0  0  0  0  0  0  0  0  0
  1  2  1  0  0  0  0
  2  7  1  0  0  0  0
  3  2  2  0  0  0  0
  3  4  1  0  0  0  0
  4  5  2  0  0  0  0
  5  6  1  0  0  0  0
  5  9  1  0  0  0  0
  6 10  1  0  0  0  0
  7 20  1  0  0  0  0
  7  6  2  0  0  0  0
  8  4  1  0  0  0  0
 11 16  1  0  0  0  0
 12 13  1  0  0  0  0
 12 11  2  0  0  0  0
 13 14  2  0  0  0  0
 14 15  1  0  0  0  0
 15  3  1  0  0  0  0
 16 15  2  0  0  0  0
 17 11  1  0  0  0  0
 18 12  1  0  0  0  0
 19 13  1  0  0  0  0
 20 22  2  0  0  0  0
 21 20  1  0  0  0  0
M  END
>  <minimizedAffinity>
-4.05947924

$$$$

 OpenBabel03262520093D

 22 23  0  0  0  0  0  0  0  0999 V2000
   36.1460   32.3530   35.3190 Br  0  0  0  0  0  0  0  0  0  0  0  0
   34.4940   31.5180   35.7950 C   0  0  0  0  0  0  0  0  0  0  0  0
   34.0140   30.4070   35.1190 C   0  0  0  0  0  0  0  0  0  0  0  0
   32.8230   29.8670   35.5210 C   0  0  0  0  0  0  0  0  0  0  0  0
   32.0700   30.3740   36.5680 C   0  0  0  0  0  0  0  0  0  0  0  0
   32.5650   31.4720   37.2210 C   0  0  0  0  0  0  0  0  0  0  0  0
   33.7640   32.0350   36.8360 C   0  0  0  0  0  0  0  0  0  0  0  0
   32.4320   28.9910   34.9960 H   0  0  0  0  0  0  0  0  0  0  0  0
   31.1340   29.8910   36.8290 H   0  0  0  0  0  0  0  0  0  0  0  0
   31.9910   31.8980   38.0570 H   0  0  0  0  0  0  0  0  0  0  0  0
   36.3870   28.3350   33.2680 C   0  0  0  0  0  0  0  0  0  0  0  0
   36.2460   28.7700   31.9340 C   0  0  0  0  0  0  0  0  0  0  0  0
   35.3300   29.7790   31.6840 C   0  0  0  0  0  0  0  0  0  0  0  0
   34.6120   30.3010   32.7280 N   0  0  0  0  0  0  0  0  0  0  0  0
   34.7830   29.8460   34.0080 C   0  0  0  0  0  0  0  0  0  0  0  0
   35.6680   28.8690   34.2630 N   0  0  0  0  0  0  0  0  0  0  0  0
   37.1130   27.5520   33.3900 H   0  0  0  0  0  0  0  0  0  0  0  0
   36.7620   28.4160   31.0790 H   0  0  0  0  0  0  0  0  0  0  0  0
   35.0760   30.2460   30.7470 H   0  0  0  0  0  0  0  0  0  0  0  0
   34.2730   33.2060   37.5450 C   0  0  0  0  0  0  0  0  0  0  0  0
   35.3260   33.3320   37.7490 H   0  0  0  0  0  0  0  0  0  0  0  0
   33.4750   34.1010   37.9360 O   0  0  0  0  0  0  0  0  0  0  0  0
  1  2  1  0  0  0  0
  2  7  1  0  0  0  0
  3  4  1  0  0  0  0
  3  2  2  0  0  0  0
  4  5  2  0  0  0  0
  5  9  1  0  0  0  0
  5  6  1  0  0  0  0
  6 10  1  0  0  0  0
  7  6  2  0  0  0  0
  7 20  1  0  0  0  0
  8  4  1  0  0  0  0
 11 17  1  0  0  0  0
 11 16  1  0  0  0  0
 12 11  2  0  0  0  0
 13 12  1  0  0  0  0
 13 14  2  0  0  0  0
 14 15  1  0  0  0  0
 15 16  2  0  0  0  0
 15  3  1  0  0  0  0
 18 12  1  0  0  0  0
 19 13  1  0  0  0  0
 20 21  1  0  0  0  0
 20 22  2  0  0  0  0
M  END
>  <minimizedAffinity>
-4.01092386

$$$$

 OpenBabel03262520093D

 22 23  0  0  0  0  0  0  0  0999 V2000
   40.1680   24.9910   31.8870 Br  0  0  0  0  0  0  0  0  0  0  0  0
   39.3110   25.7640   33.4100 C   0  0  0  0  0  0  0  0  0  0  0  0
   37.9770   25.5210   33.7000 C   0  0  0  0  0  0  0  0  0  0  0  0
   37.4370   26.1130   34.8100 C   0  0  0  0  0  0  0  0  0  0  0  0
   38.1530   26.9430   35.6580 C   0  0  0  0  0  0  0  0  0  0  0  0
   39.4690   27.1670   35.3490 C   0  0  0  0  0  0  0  0  0  0  0  0
   40.0380   26.5830   34.2370 C   0  0  0  0  0  0  0  0  0  0  0  0
   36.3860   25.9300   35.0510 H   0  0  0  0  0  0  0  0  0  0  0  0
   37.6550   27.3750   36.5190 H   0  0  0  0  0  0  0  0  0  0  0  0
   40.0640   27.8220   36.0030 H   0  0  0  0  0  0  0  0  0  0  0  0
   35.6080   24.4410   31.1380 C   0  0  0  0  0  0  0  0  0  0  0  0
   35.6970   23.0340   31.1670 C   0  0  0  0  0  0  0  0  0  0  0  0
   36.5770   22.4680   32.0750 C   0  0  0  0  0  0  0  0  0  0  0  0
   37.3120   23.2880   32.8920 N   0  0  0  0  0  0  0  0  0  0  0  0
   37.1910   24.6500   32.8270 C   0  0  0  0  0  0  0  0  0  0  0  0
   36.3420   25.2100   31.9520 N   0  0  0  0  0  0  0  0  0  0  0  0
   34.9070   24.8110   30.4120 H   0  0  0  0  0  0  0  0  0  0  0  0
   35.1650   22.3380   30.5710 H   0  0  0  0  0  0  0  0  0  0  0  0
   36.7900   21.4280   32.2530 H   0  0  0  0  0  0  0  0  0  0  0  0
   41.4420   26.8370   33.9270 C   0  0  0  0  0  0  0  0  0  0  0  0
   42.2290   26.1880   34.2860 H   0  0  0  0  0  0  0  0  0  0  0  0
   41.7610   27.8340   33.2240 O   0  0  0  0  0  0  0  0  0  0  0  0
  1  2  1  0  0  0  0
  2  3  2  0  0  0  0
  2  7  1  0  0  0  0
  3  4  1  0  0  0  0
  4  8  1  0  0  0  0
  4  5  2  0  0  0  0
  5  9  1  0  0  0  0
  6  5  1  0  0  0  0
  6 10  1  0  0  0  0
  7  6  2  0  0  0  0
 11 12  2  0  0  0  0
 11 16  1  0  0  0  0
 12 13  1  0  0  0  0
 13 19  1  0  0  0  0
 13 14  2  0  0  0  0
 15 14  1  0  0  0  0
 15  3  1  0  0  0  0
 16 15  2  0  0  0  0
 17 11  1  0  0  0  0
 18 12  1  0  0  0  0
 20  7  1  0  0  0  0
 20 21  1  0  0  0  0
 22 20  2  0  0  0  0
M  END
>  <minimizedAffinity>
-3.96850038

$$$$

 OpenBabel03262520093D

 22 23  0  0  0  0  0  0  0  0999 V2000
   38.1020   22.6680   34.8270 Br  0  0  0  0  0  0  0  0  0  0  0  0
   38.2080   24.5620   35.0580 C   0  0  0  0  0  0  0  0  0  0  0  0
   38.3520   25.4230   33.9820 C   0  0  0  0  0  0  0  0  0  0  0  0
   38.4210   26.7670   34.2310 C   0  0  0  0  0  0  0  0  0  0  0  0
   38.3540   27.3120   35.5030 C   0  0  0  0  0  0  0  0  0  0  0  0
   38.2120   26.4400   36.5500 C   0  0  0  0  0  0  0  0  0  0  0  0
   38.1400   25.0820   36.3270 C   0  0  0  0  0  0  0  0  0  0  0  0
   38.5350   27.4580   33.3900 H   0  0  0  0  0  0  0  0  0  0  0  0
   38.4160   28.3890   35.6200 H   0  0  0  0  0  0  0  0  0  0  0  0
   38.1560   26.8430   37.5730 H   0  0  0  0  0  0  0  0  0  0  0  0
   37.3170   24.1080   30.7340 C   0  0  0  0  0  0  0  0  0  0  0  0
   38.5340   23.8610   30.0670 C   0  0  0  0  0  0  0  0  0  0  0  0
   39.7060   24.1510   30.7460 C   0  0  0  0  0  0  0  0  0  0  0  0
   39.6320   24.6580   32.0160 N   0  0  0  0  0  0  0  0  0  0  0  0
   38.4260   24.8820   32.6250 C   0  0  0  0  0  0  0  0  0  0  0  0
   37.2840   24.6040   31.9770 N   0  0  0  0  0  0  0  0  0  0  0  0
   36.4490   23.8600   30.1500 H   0  0  0  0  0  0  0  0  0  0  0  0
   38.6710   23.4730   29.0900 H   0  0  0  0  0  0  0  0  0  0  0  0
   40.7250   24.0360   30.4170 H   0  0  0  0  0  0  0  0  0  0  0  0
   37.9880   24.1710   37.4590 C   0  0  0  0  0  0  0  0  0  0  0  0
   37.7480   23.1270   37.3180 H   0  0  0  0  0  0  0  0  0  0  0  0
   38.1380   24.5990   38.6350 O   0  0  0  0  0  0  0  0  0  0  0  0
  1  2  1  0  0  0  0
  2  7  1  0  0  0  0
  3  4  1  0  0  0  0
  3  2  2  0  0  0  0
  4  5  2  0  0  0  0
  5  9  1  0  0  0  0
  5  6  1  0  0  0  0
  6 10  1  0  0  0  0
  7  6  2  0  0  0  0
  7 20  1  0  0  0  0
  8  4  1  0  0  0  0
 11 16  1  0  0  0  0
 12 11  2  0  0  0  0
 12 13  1  0  0  0  0
 13 14  2  0  0  0  0
 14 15  1  0  0  0  0
 15  3  1  0  0  0  0
 16 15  2  0  0  0  0
 17 11  1  0  0  0  0
 18 12  1  0  0  0  0
 19 13  1  0  0  0  0
 20 22  2  0  0  0  0
 21 20  1  0  0  0  0
M  END
>  <minimizedAffinity>
-3.96187425

$$$$
