
 OpenBabel03272501073D

 34 36  0  0  1  0  0  0  0  0999 V2000
   38.9760   32.4910   47.7560 C   0  0  2  0  0  0  0  0  0  0  0  0
   37.9720   32.6620   48.9270 C   0  0  2  0  0  0  0  0  0  0  0  0
   38.7880   33.3700   49.9050 C   0  0  0  0  0  0  0  0  0  0  0  0
   39.6280   34.2330   49.2090 O   0  0  0  0  0  0  0  0  0  0  0  0
   39.5990   33.9060   47.8930 C   0  0  0  0  0  0  0  0  0  0  0  0
   39.7200   31.7380   48.0130 H   0  0  0  0  0  0  0  0  0  0  0  0
   37.1610   33.3290   48.5080 H   0  0  0  0  0  0  0  0  0  0  0  0
   39.3470   32.7650   50.6220 H   0  0  0  0  0  0  0  0  0  0  0  0
   38.1060   34.0130   50.5340 H   0  0  0  0  0  0  0  0  0  0  0  0
   40.6450   33.7650   47.5470 H   0  0  0  0  0  0  0  0  0  0  0  0
   39.1060   34.6200   47.2310 H   0  0  0  0  0  0  0  0  0  0  0  0
   37.3130   29.3830   50.6600 C   0  0  0  0  0  0  0  0  0  0  0  0
   37.9570   30.6090   50.3350 C   0  0  0  0  0  0  0  0  0  0  0  0
   37.3690   31.4050   49.3170 C   0  0  0  0  0  0  0  0  0  0  0  0
   36.2170   30.9660   48.6940 N   0  0  0  0  0  0  0  0  0  0  0  0
   35.6530   29.8050   49.0380 C   0  0  0  0  0  0  0  0  0  0  0  0
   36.1800   29.0100   50.0060 N   0  0  0  0  0  0  0  0  0  0  0  0
   37.7930   28.8120   51.4360 H   0  0  0  0  0  0  0  0  0  0  0  0
   38.8460   30.8910   50.8540 H   0  0  0  0  0  0  0  0  0  0  0  0
   34.7540   29.4190   48.5800 H   0  0  0  0  0  0  0  0  0  0  0  0
   38.3560   32.3960   46.5550 O   0  0  0  0  0  0  0  0  0  0  0  0
   40.8840   32.4380   44.7870 Cl  0  0  0  0  0  0  0  0  0  0  0  0
   39.4540   31.4680   44.4970 C   0  0  0  0  0  0  0  0  0  0  0  0
   38.4560   31.6360   45.4470 C   0  0  0  0  0  0  0  0  0  0  0  0
   37.3210   30.8720   45.2250 C   0  0  0  0  0  0  0  0  0  0  0  0
   37.1890   30.0170   44.1550 C   0  0  0  0  0  0  0  0  0  0  0  0
   38.2190   29.8980   43.2480 C   0  0  0  0  0  0  0  0  0  0  0  0
   39.3590   30.6290   43.4220 C   0  0  0  0  0  0  0  0  0  0  0  0
   36.4430   30.8710   45.8570 H   0  0  0  0  0  0  0  0  0  0  0  0
   36.3180   29.4110   43.9570 H   0  0  0  0  0  0  0  0  0  0  0  0
   38.2010   29.2520   42.3810 H   0  0  0  0  0  0  0  0  0  0  0  0
   40.4760   30.5380   42.4920 C   0  0  0  0  0  0  0  0  0  0  0  0
   40.6380   31.2920   41.7360 H   0  0  0  0  0  0  0  0  0  0  0  0
   41.3180   29.6260   42.4750 O   0  0  0  0  0  0  0  0  0  0  0  0
  1  5  1  0  0  0  0
  1  6  1  1  0  0  0
  1  2  1  0  0  0  0
  2  7  1  6  0  0  0
  2 14  1  0  0  0  0
  2  3  1  0  0  0  0
  3  9  1  0  0  0  0
  3  8  1  0  0  0  0
  4  3  1  0  0  0  0
  5  4  1  0  0  0  0
 10  5  1  0  0  0  0
 11  5  1  0  0  0  0
 12 18  1  0  0  0  0
 13 12  1  0  0  0  0
 13 19  1  0  0  0  0
 14 13  2  0  0  0  0
 15 16  2  0  0  0  0
 15 14  1  0  0  0  0
 16 17  1  0  0  0  0
 17 12  2  0  0  0  0
 20 16  1  0  0  0  0
 21  1  1  0  0  0  0
 23 22  1  0  0  0  0
 23 24  1  0  0  0  0
 24 21  1  0  0  0  0
 25 24  2  0  0  0  0
 25 29  1  0  0  0  0
 26 25  1  0  0  0  0
 27 28  1  0  0  0  0
 27 26  2  0  0  0  0
 28 23  2  0  0  0  0
 30 26  1  0  0  0  0
 31 27  1  0  0  0  0
 32 28  1  0  0  0  0
 33 32  1  0  0  0  0
 34 32  2  0  0  0  0
M  END
>  <minimizedAffinity>
-5.65283585

>  <minimizedRMSD>
0.742494047

$$$$
