
 OpenBabel03272506463D

 36 38  0  0  1  0  0  0  0  0999 V2000
   32.1740   28.5680   47.4280 C   0  0  2  0  0  0  0  0  0  0  0  0
   33.4250   28.3500   48.2270 C   0  0  1  0  0  0  0  0  0  0  0  0
   33.7820   27.0410   48.1000 O   0  0  0  0  0  0  0  0  0  0  0  0
   33.0400   26.4600   47.0780 C   0  0  0  0  0  0  0  0  0  0  0  0
   32.4570   27.5800   46.2540 C   0  0  1  0  0  0  0  0  0  0  0  0
   31.2480   28.2440   47.8920 H   0  0  0  0  0  0  0  0  0  0  0  0
   33.3240   28.6050   49.3000 H   0  0  0  0  0  0  0  0  0  0  0  0
   32.3350   25.7890   47.5460 H   0  0  0  0  0  0  0  0  0  0  0  0
   33.7040   25.8200   46.4430 H   0  0  0  0  0  0  0  0  0  0  0  0
   33.1860   28.0650   45.6000 H   0  0  0  0  0  0  0  0  0  0  0  0
   32.1330   29.8840   46.9180 O   0  0  0  0  0  0  0  0  0  0  0  0
   31.6290   30.3940   47.5930 H   0  0  0  0  0  0  0  0  0  0  0  0
   34.7550   29.3690   47.4610 S   0  0  0  0  0  0  0  0  0  0  0  0
   37.1270   29.3050   50.6380 C   0  0  0  0  0  0  0  0  0  0  0  0
   37.6350   30.6030   50.7290 C   0  0  0  0  0  0  0  0  0  0  0  0
   37.2270   31.5390   49.7660 C   0  0  0  0  0  0  0  0  0  0  0  0
   36.3660   31.1330   48.8050 N   0  0  0  0  0  0  0  0  0  0  0  0
   35.8940   29.8700   48.7450 C   0  0  0  0  0  0  0  0  0  0  0  0
   36.2680   28.9390   49.6610 N   0  0  0  0  0  0  0  0  0  0  0  0
   37.4630   28.6100   51.3970 H   0  0  0  0  0  0  0  0  0  0  0  0
   38.3240   30.8980   51.5130 H   0  0  0  0  0  0  0  0  0  0  0  0
   37.5990   32.5520   49.8050 H   0  0  0  0  0  0  0  0  0  0  0  0
   31.2840   27.1530   45.6780 O   0  0  0  0  0  0  0  0  0  0  0  0
   29.7990   29.3670   44.4320 Cl  0  0  0  0  0  0  0  0  0  0  0  0
   29.2790   28.2840   45.7000 C   0  0  0  0  0  0  0  0  0  0  0  0
   30.0650   27.2700   46.1950 C   0  0  0  0  0  0  0  0  0  0  0  0
   29.5270   26.4480   47.1880 C   0  0  0  0  0  0  0  0  0  0  0  0
   28.2450   26.6550   47.6520 C   0  0  0  0  0  0  0  0  0  0  0  0
   27.4460   27.6730   47.1610 C   0  0  0  0  0  0  0  0  0  0  0  0
   27.9890   28.4860   46.1730 C   0  0  0  0  0  0  0  0  0  0  0  0
   30.0600   25.6270   47.6330 H   0  0  0  0  0  0  0  0  0  0  0  0
   27.7640   26.0620   48.4160 H   0  0  0  0  0  0  0  0  0  0  0  0
   26.4490   27.8620   47.4970 H   0  0  0  0  0  0  0  0  0  0  0  0
   27.1620   29.5670   45.6410 C   0  0  0  0  0  0  0  0  0  0  0  0
   26.6530   29.4600   44.6930 H   0  0  0  0  0  0  0  0  0  0  0  0
   27.0260   30.6440   46.2750 O   0  0  0  0  0  0  0  0  0  0  0  0
  1  6  1  1  0  0  0
  1  2  1  0  0  0  0
  2  7  1  1  0  0  0
  3  2  1  0  0  0  0
  4  8  1  0  0  0  0
  4  3  1  0  0  0  0
  5 10  1  6  0  0  0
  5  4  1  0  0  0  0
  5  1  1  0  0  0  0
  9  4  1  0  0  0  0
 11  1  1  0  0  0  0
 11 12  1  0  0  0  0
 13  2  1  0  0  0  0
 13 18  1  0  0  0  0
 14 15  1  0  0  0  0
 14 20  1  0  0  0  0
 15 21  1  0  0  0  0
 16 22  1  0  0  0  0
 16 15  2  0  0  0  0
 17 16  1  0  0  0  0
 18 17  2  0  0  0  0
 18 19  1  0  0  0  0
 19 14  2  0  0  0  0
 23 26  1  0  0  0  0
 23  5  1  0  0  0  0
 24 25  1  0  0  0  0
 25 30  2  0  0  0  0
 25 26  1  0  0  0  0
 26 27  2  0  0  0  0
 27 31  1  0  0  0  0
 27 28  1  0  0  0  0
 28 32  1  0  0  0  0
 29 33  1  0  0  0  0
 29 28  2  0  0  0  0
 30 29  1  0  0  0  0
 34 30  1  0  0  0  0
 34 36  2  0  0  0  0
 35 34  1  0  0  0  0
M  END
>  <minimizedAffinity>
-4.63974237

>  <minimizedRMSD>
0.266952753

$$$$
