
 OpenBabel03272510113D

 22 23  0  0  0  0  0  0  0  0999 V2000
   37.2670   27.2020   33.9590 C   0  0  0  0  0  0  0  0  0  0  0  0
   37.7250   27.6090   35.1940 C   0  0  0  0  0  0  0  0  0  0  0  0
   38.2690   26.7530   36.1290 C   0  0  0  0  0  0  0  0  0  0  0  0
   38.3690   25.4050   35.8340 C   0  0  0  0  0  0  0  0  0  0  0  0
   37.9040   25.0220   34.5950 C   0  0  0  0  0  0  0  0  0  0  0  0
   37.3810   25.8890   33.7120 N   0  0  0  0  0  0  0  0  0  0  0  0
   37.6670   28.6550   35.4680 H   0  0  0  0  0  0  0  0  0  0  0  0
   38.6330   27.0570   37.1010 H   0  0  0  0  0  0  0  0  0  0  0  0
   37.9110   24.0080   34.2140 H   0  0  0  0  0  0  0  0  0  0  0  0
   35.8240   29.1680   33.2940 C   0  0  0  0  0  0  0  0  0  0  0  0
   36.7020   28.1290   32.9950 C   0  0  0  0  0  0  0  0  0  0  0  0
   37.0750   27.9560   31.6610 C   0  0  0  0  0  0  0  0  0  0  0  0
   36.5420   28.8330   30.7410 N   0  0  0  0  0  0  0  0  0  0  0  0
   35.7030   29.8160   31.0790 C   0  0  0  0  0  0  0  0  0  0  0  0
   35.3380   29.9910   32.3550 N   0  0  0  0  0  0  0  0  0  0  0  0
   35.5990   29.2120   34.3710 H   0  0  0  0  0  0  0  0  0  0  0  0
   37.7470   27.1930   31.2850 H   0  0  0  0  0  0  0  0  0  0  0  0
   35.3220   30.4710   30.2970 H   0  0  0  0  0  0  0  0  0  0  0  0
   38.8900   24.4170   36.6670 O   0  0  0  0  0  0  0  0  0  0  0  0
   38.0790   23.9310   37.7000 C   0  0  0  0  0  0  0  0  0  0  0  0
   37.5160   23.0240   37.5420 H   0  0  0  0  0  0  0  0  0  0  0  0
   37.9740   24.5150   38.8240 O   0  0  0  0  0  0  0  0  0  0  0  0
  1  2  1  0  0  0  0
  2  7  1  0  0  0  0
  2  3  2  0  0  0  0
  3  8  1  0  0  0  0
  4  3  1  0  0  0  0
  4 19  1  0  0  0  0
  5  4  2  0  0  0  0
  6  1  2  0  0  0  0
  6  5  1  0  0  0  0
  9  5  1  0  0  0  0
 10 16  1  0  0  0  0
 11 10  1  0  0  0  0
 11  1  1  0  0  0  0
 12 11  2  0  0  0  0
 13 14  2  0  0  0  0
 13 12  1  0  0  0  0
 14 15  1  0  0  0  0
 15 10  2  0  0  0  0
 17 12  1  0  0  0  0
 18 14  1  0  0  0  0
 19 20  1  0  0  0  0
 20 22  2  0  0  0  0
 21 20  1  0  0  0  0
M  END
>  <minimizedAffinity>
-4.08215094

$$$$

 OpenBabel03272510113D

 22 23  0  0  0  0  0  0  0  0999 V2000
   37.2620   27.2120   33.9010 C   0  0  0  0  0  0  0  0  0  0  0  0
   37.7060   27.6240   35.1400 C   0  0  0  0  0  0  0  0  0  0  0  0
   38.2320   26.7720   36.0870 C   0  0  0  0  0  0  0  0  0  0  0  0
   38.3290   25.4220   35.8040 C   0  0  0  0  0  0  0  0  0  0  0  0
   37.8780   25.0330   34.5610 C   0  0  0  0  0  0  0  0  0  0  0  0
   37.3720   25.8960   33.6650 N   0  0  0  0  0  0  0  0  0  0  0  0
   37.6510   28.6730   35.4050 H   0  0  0  0  0  0  0  0  0  0  0  0
   38.5850   27.0810   37.0620 H   0  0  0  0  0  0  0  0  0  0  0  0
   37.8850   24.0150   34.1870 H   0  0  0  0  0  0  0  0  0  0  0  0
   37.0000   28.1270   31.5610 C   0  0  0  0  0  0  0  0  0  0  0  0
   36.7150   28.1350   32.9240 C   0  0  0  0  0  0  0  0  0  0  0  0
   35.8320   29.1060   33.3980 C   0  0  0  0  0  0  0  0  0  0  0  0
   35.3080   29.9850   32.4740 N   0  0  0  0  0  0  0  0  0  0  0  0
   35.6130   29.9360   31.1750 C   0  0  0  0  0  0  0  0  0  0  0  0
   36.4590   29.0090   30.7090 N   0  0  0  0  0  0  0  0  0  0  0  0
   37.7050   27.3240   31.2970 H   0  0  0  0  0  0  0  0  0  0  0  0
   35.5200   29.2300   34.4300 H   0  0  0  0  0  0  0  0  0  0  0  0
   35.1610   30.6640   30.5030 H   0  0  0  0  0  0  0  0  0  0  0  0
   38.8330   24.4360   36.6500 O   0  0  0  0  0  0  0  0  0  0  0  0
   38.0280   24.0060   37.7120 C   0  0  0  0  0  0  0  0  0  0  0  0
   37.3650   23.1680   37.5610 H   0  0  0  0  0  0  0  0  0  0  0  0
   38.0430   24.5620   38.8550 O   0  0  0  0  0  0  0  0  0  0  0  0
  1  2  1  0  0  0  0
  2  7  1  0  0  0  0
  2  3  2  0  0  0  0
  3  8  1  0  0  0  0
  4  3  1  0  0  0  0
  4 19  1  0  0  0  0
  5  4  2  0  0  0  0
  6  1  2  0  0  0  0
  6  5  1  0  0  0  0
  9  5  1  0  0  0  0
 10 11  1  0  0  0  0
 11 12  2  0  0  0  0
 11  1  1  0  0  0  0
 12 17  1  0  0  0  0
 13 12  1  0  0  0  0
 14 13  2  0  0  0  0
 15 14  1  0  0  0  0
 15 10  2  0  0  0  0
 16 10  1  0  0  0  0
 18 14  1  0  0  0  0
 19 20  1  0  0  0  0
 20 22  2  0  0  0  0
 21 20  1  0  0  0  0
M  END
>  <minimizedAffinity>
-4.08035517

$$$$

 OpenBabel03272510113D

 22 23  0  0  0  0  0  0  0  0999 V2000
   38.3600   25.3500   35.2740 C   0  0  0  0  0  0  0  0  0  0  0  0
   38.1160   26.6200   35.7520 C   0  0  0  0  0  0  0  0  0  0  0  0
   37.4430   27.5900   35.0400 C   0  0  0  0  0  0  0  0  0  0  0  0
   36.9760   27.2970   33.7720 C   0  0  0  0  0  0  0  0  0  0  0  0
   37.2320   26.0220   33.3150 C   0  0  0  0  0  0  0  0  0  0  0  0
   37.8930   25.1050   34.0410 N   0  0  0  0  0  0  0  0  0  0  0  0
   38.4620   26.8940   36.7410 H   0  0  0  0  0  0  0  0  0  0  0  0
   37.2440   28.5900   35.4020 H   0  0  0  0  0  0  0  0  0  0  0  0
   36.9350   25.6370   32.3460 H   0  0  0  0  0  0  0  0  0  0  0  0
   40.2450   23.7120   35.6600 C   0  0  0  0  0  0  0  0  0  0  0  0
   39.0700   24.3500   36.0500 C   0  0  0  0  0  0  0  0  0  0  0  0
   38.5230   24.0050   37.2870 C   0  0  0  0  0  0  0  0  0  0  0  0
   39.1940   23.0560   38.0280 N   0  0  0  0  0  0  0  0  0  0  0  0
   40.3190   22.4730   37.6100 C   0  0  0  0  0  0  0  0  0  0  0  0
   40.8530   22.7950   36.4250 N   0  0  0  0  0  0  0  0  0  0  0  0
   40.5860   24.0580   34.6720 H   0  0  0  0  0  0  0  0  0  0  0  0
   37.6170   24.4190   37.7170 H   0  0  0  0  0  0  0  0  0  0  0  0
   40.7950   21.7310   38.2500 H   0  0  0  0  0  0  0  0  0  0  0  0
   36.2830   28.1620   32.9280 O   0  0  0  0  0  0  0  0  0  0  0  0
   35.8330   27.6630   31.7000 C   0  0  0  0  0  0  0  0  0  0  0  0
   35.0900   26.8810   31.6910 H   0  0  0  0  0  0  0  0  0  0  0  0
   36.2640   28.0940   30.5840 O   0  0  0  0  0  0  0  0  0  0  0  0
  1  2  1  0  0  0  0
  1 11  1  0  0  0  0
  2  7  1  0  0  0  0
  3  8  1  0  0  0  0
  3  2  2  0  0  0  0
  4  3  1  0  0  0  0
  5  4  2  0  0  0  0
  5  6  1  0  0  0  0
  6  1  2  0  0  0  0
  9  5  1  0  0  0  0
 10 11  2  0  0  0  0
 10 15  1  0  0  0  0
 11 12  1  0  0  0  0
 12 17  1  0  0  0  0
 12 13  2  0  0  0  0
 14 13  1  0  0  0  0
 14 18  1  0  0  0  0
 15 14  2  0  0  0  0
 16 10  1  0  0  0  0
 19  4  1  0  0  0  0
 20 19  1  0  0  0  0
 21 20  1  0  0  0  0
 22 20  2  0  0  0  0
M  END
>  <minimizedAffinity>
-4.07030582

$$$$

 OpenBabel03272510113D

 22 23  0  0  0  0  0  0  0  0999 V2000
   38.2850   25.0230   35.3150 C   0  0  0  0  0  0  0  0  0  0  0  0
   37.8220   24.7220   36.5780 C   0  0  0  0  0  0  0  0  0  0  0  0
   38.4280   23.8120   37.4180 C   0  0  0  0  0  0  0  0  0  0  0  0
   39.5640   23.1490   36.9910 C   0  0  0  0  0  0  0  0  0  0  0  0
   40.0070   23.4660   35.7250 C   0  0  0  0  0  0  0  0  0  0  0  0
   39.3880   24.3600   34.9380 N   0  0  0  0  0  0  0  0  0  0  0  0
   36.9350   25.2170   36.9550 H   0  0  0  0  0  0  0  0  0  0  0  0
   38.0770   23.5650   38.4110 H   0  0  0  0  0  0  0  0  0  0  0  0
   40.8800   23.0370   35.2470 H   0  0  0  0  0  0  0  0  0  0  0  0
   37.3500   25.8080   33.1020 C   0  0  0  0  0  0  0  0  0  0  0  0
   37.6260   25.9890   34.4550 C   0  0  0  0  0  0  0  0  0  0  0  0
   37.2410   27.1960   35.0410 C   0  0  0  0  0  0  0  0  0  0  0  0
   36.6140   28.1170   34.2290 N   0  0  0  0  0  0  0  0  0  0  0  0
   36.3710   27.8960   32.9350 C   0  0  0  0  0  0  0  0  0  0  0  0
   36.7370   26.7420   32.3620 N   0  0  0  0  0  0  0  0  0  0  0  0
   37.6960   24.8260   32.7450 H   0  0  0  0  0  0  0  0  0  0  0  0
   37.3900   27.4730   36.0790 H   0  0  0  0  0  0  0  0  0  0  0  0
   35.8710   28.6700   32.3550 H   0  0  0  0  0  0  0  0  0  0  0  0
   40.2890   22.2050   37.7160 O   0  0  0  0  0  0  0  0  0  0  0  0
   41.3740   21.5830   37.0870 C   0  0  0  0  0  0  0  0  0  0  0  0
   41.5010   21.7030   36.0220 H   0  0  0  0  0  0  0  0  0  0  0  0
   42.2230   20.8780   37.7180 O   0  0  0  0  0  0  0  0  0  0  0  0
  1  2  1  0  0  0  0
  2  7  1  0  0  0  0
  2  3  2  0  0  0  0
  3  8  1  0  0  0  0
  4  3  1  0  0  0  0
  4 19  1  0  0  0  0
  5  4  2  0  0  0  0
  6  1  2  0  0  0  0
  6  5  1  0  0  0  0
  9  5  1  0  0  0  0
 10 11  1  0  0  0  0
 11 12  2  0  0  0  0
 11  1  1  0  0  0  0
 12 17  1  0  0  0  0
 13 12  1  0  0  0  0
 14 13  2  0  0  0  0
 15 14  1  0  0  0  0
 15 10  2  0  0  0  0
 16 10  1  0  0  0  0
 18 14  1  0  0  0  0
 20 19  1  0  0  0  0
 20 22  2  0  0  0  0
 21 20  1  0  0  0  0
M  END
>  <minimizedAffinity>
-4.05476427

$$$$

 OpenBabel03272510113D

 22 23  0  0  0  0  0  0  0  0999 V2000
   38.3070   25.3920   35.3530 C   0  0  0  0  0  0  0  0  0  0  0  0
   38.0850   26.6730   35.8120 C   0  0  0  0  0  0  0  0  0  0  0  0
   37.4510   27.6510   35.0750 C   0  0  0  0  0  0  0  0  0  0  0  0
   37.0060   27.3550   33.8000 C   0  0  0  0  0  0  0  0  0  0  0  0
   37.2400   26.0700   33.3620 C   0  0  0  0  0  0  0  0  0  0  0  0
   37.8610   25.1440   34.1120 N   0  0  0  0  0  0  0  0  0  0  0  0
   38.4160   26.9490   36.8060 H   0  0  0  0  0  0  0  0  0  0  0  0
   37.2690   28.6590   35.4220 H   0  0  0  0  0  0  0  0  0  0  0  0
   36.9540   25.6820   32.3910 H   0  0  0  0  0  0  0  0  0  0  0  0
   38.5570   23.9400   37.4060 C   0  0  0  0  0  0  0  0  0  0  0  0
   38.9760   24.3830   36.1540 C   0  0  0  0  0  0  0  0  0  0  0  0
   40.1320   23.8140   35.6160 C   0  0  0  0  0  0  0  0  0  0  0  0
   40.7700   22.8550   36.3720 N   0  0  0  0  0  0  0  0  0  0  0  0
   40.3290   22.4640   37.5700 C   0  0  0  0  0  0  0  0  0  0  0  0
   39.2210   23.0020   38.0960 N   0  0  0  0  0  0  0  0  0  0  0  0
   37.6400   24.4530   37.7330 H   0  0  0  0  0  0  0  0  0  0  0  0
   40.5720   24.0610   34.6560 H   0  0  0  0  0  0  0  0  0  0  0  0
   40.8860   21.7000   38.1100 H   0  0  0  0  0  0  0  0  0  0  0  0
   36.3520   28.2280   32.9330 O   0  0  0  0  0  0  0  0  0  0  0  0
   36.9010   28.4250   31.6600 C   0  0  0  0  0  0  0  0  0  0  0  0
   37.8830   28.8630   31.5740 H   0  0  0  0  0  0  0  0  0  0  0  0
   36.2900   28.1080   30.5910 O   0  0  0  0  0  0  0  0  0  0  0  0
  1  2  1  0  0  0  0
  1 11  1  0  0  0  0
  2  7  1  0  0  0  0
  3  8  1  0  0  0  0
  3  2  2  0  0  0  0
  4  3  1  0  0  0  0
  5  4  2  0  0  0  0
  5  6  1  0  0  0  0
  6  1  2  0  0  0  0
  9  5  1  0  0  0  0
 10 16  1  0  0  0  0
 10 15  1  0  0  0  0
 11 10  2  0  0  0  0
 12 11  1  0  0  0  0
 12 13  2  0  0  0  0
 13 14  1  0  0  0  0
 14 15  2  0  0  0  0
 14 18  1  0  0  0  0
 17 12  1  0  0  0  0
 19  4  1  0  0  0  0
 20 19  1  0  0  0  0
 21 20  1  0  0  0  0
 22 20  2  0  0  0  0
M  END
>  <minimizedAffinity>
-4.03060865

$$$$

 OpenBabel03272510113D

 22 23  0  0  0  0  0  0  0  0999 V2000
   35.5040   29.3780   34.0650 C   0  0  0  0  0  0  0  0  0  0  0  0
   36.3860   28.3740   34.4020 C   0  0  0  0  0  0  0  0  0  0  0  0
   36.8080   27.3990   33.5240 C   0  0  0  0  0  0  0  0  0  0  0  0
   36.3340   27.4070   32.2250 C   0  0  0  0  0  0  0  0  0  0  0  0
   35.4530   28.4190   31.9100 C   0  0  0  0  0  0  0  0  0  0  0  0
   35.0660   29.3520   32.7970 N   0  0  0  0  0  0  0  0  0  0  0  0
   36.7840   28.3280   35.4090 H   0  0  0  0  0  0  0  0  0  0  0  0
   37.5000   26.6050   33.7740 H   0  0  0  0  0  0  0  0  0  0  0  0
   34.9930   28.5650   30.9400 H   0  0  0  0  0  0  0  0  0  0  0  0
   35.9260   31.2550   35.7030 C   0  0  0  0  0  0  0  0  0  0  0  0
   35.0790   30.3920   35.0130 C   0  0  0  0  0  0  0  0  0  0  0  0
   33.7070   30.5040   35.2450 C   0  0  0  0  0  0  0  0  0  0  0  0
   33.2980   31.4660   36.1430 N   0  0  0  0  0  0  0  0  0  0  0  0
   34.1510   32.2710   36.7810 C   0  0  0  0  0  0  0  0  0  0  0  0
   35.4690   32.1730   36.5670 N   0  0  0  0  0  0  0  0  0  0  0  0
   36.9820   31.0800   35.4460 H   0  0  0  0  0  0  0  0  0  0  0  0
   32.9340   29.9010   34.7790 H   0  0  0  0  0  0  0  0  0  0  0  0
   33.7550   33.0080   37.4780 H   0  0  0  0  0  0  0  0  0  0  0  0
   36.6610   26.4970   31.2220 O   0  0  0  0  0  0  0  0  0  0  0  0
   35.9220   25.3100   31.1430 C   0  0  0  0  0  0  0  0  0  0  0  0
   36.3380   24.4050   31.5560 H   0  0  0  0  0  0  0  0  0  0  0  0
   34.7730   25.2510   30.6010 O   0  0  0  0  0  0  0  0  0  0  0  0
  1  2  1  0  0  0  0
  1 11  1  0  0  0  0
  2  7  1  0  0  0  0
  3  8  1  0  0  0  0
  3  2  2  0  0  0  0
  4  3  1  0  0  0  0
  5  4  2  0  0  0  0
  5  6  1  0  0  0  0
  6  1  2  0  0  0  0
  9  5  1  0  0  0  0
 10 15  1  0  0  0  0
 11 12  1  0  0  0  0
 11 10  2  0  0  0  0
 12 13  2  0  0  0  0
 13 14  1  0  0  0  0
 14 18  1  0  0  0  0
 15 14  2  0  0  0  0
 16 10  1  0  0  0  0
 17 12  1  0  0  0  0
 19  4  1  0  0  0  0
 20 19  1  0  0  0  0
 20 21  1  0  0  0  0
 22 20  2  0  0  0  0
M  END
>  <minimizedAffinity>
-3.92962456

$$$$

 OpenBabel03272510113D

 22 23  0  0  0  0  0  0  0  0999 V2000
   37.5520   25.9770   34.0890 C   0  0  0  0  0  0  0  0  0  0  0  0
   37.7420   26.4060   35.3850 C   0  0  0  0  0  0  0  0  0  0  0  0
   38.2610   25.6130   36.3860 C   0  0  0  0  0  0  0  0  0  0  0  0
   38.6170   24.3080   36.0990 C   0  0  0  0  0  0  0  0  0  0  0  0
   38.4180   23.9000   34.7970 C   0  0  0  0  0  0  0  0  0  0  0  0
   37.9090   24.7060   33.8500 N   0  0  0  0  0  0  0  0  0  0  0  0
   37.4780   27.4210   35.6560 H   0  0  0  0  0  0  0  0  0  0  0  0
   38.4160   25.9360   37.4070 H   0  0  0  0  0  0  0  0  0  0  0  0
   38.6450   22.9130   34.4130 H   0  0  0  0  0  0  0  0  0  0  0  0
   36.8440   26.4880   31.7180 C   0  0  0  0  0  0  0  0  0  0  0  0
   37.0050   26.8370   33.0560 C   0  0  0  0  0  0  0  0  0  0  0  0
   36.6120   28.1190   33.4460 C   0  0  0  0  0  0  0  0  0  0  0  0
   36.0910   28.9410   32.4700 N   0  0  0  0  0  0  0  0  0  0  0  0
   35.9560   28.5590   31.1980 C   0  0  0  0  0  0  0  0  0  0  0  0
   36.3300   27.3320   30.8120 N   0  0  0  0  0  0  0  0  0  0  0  0
   37.1850   25.4610   31.5220 H   0  0  0  0  0  0  0  0  0  0  0  0
   36.6790   28.5250   34.4500 H   0  0  0  0  0  0  0  0  0  0  0  0
   35.5360   29.2630   30.4800 H   0  0  0  0  0  0  0  0  0  0  0  0
   39.1510   23.3830   36.9940 O   0  0  0  0  0  0  0  0  0  0  0  0
   38.6780   23.3940   38.3120 C   0  0  0  0  0  0  0  0  0  0  0  0
   39.3300   23.7380   39.1000 H   0  0  0  0  0  0  0  0  0  0  0  0
   37.5060   23.0140   38.6250 O   0  0  0  0  0  0  0  0  0  0  0  0
  1  2  1  0  0  0  0
  2  7  1  0  0  0  0
  2  3  2  0  0  0  0
  3  8  1  0  0  0  0
  4  3  1  0  0  0  0
  4 19  1  0  0  0  0
  5  4  2  0  0  0  0
  6  1  2  0  0  0  0
  6  5  1  0  0  0  0
  9  5  1  0  0  0  0
 10 11  1  0  0  0  0
 11 12  2  0  0  0  0
 11  1  1  0  0  0  0
 12 17  1  0  0  0  0
 13 12  1  0  0  0  0
 14 13  2  0  0  0  0
 15 14  1  0  0  0  0
 15 10  2  0  0  0  0
 16 10  1  0  0  0  0
 18 14  1  0  0  0  0
 19 20  1  0  0  0  0
 20 22  2  0  0  0  0
 20 21  1  0  0  0  0
M  END
>  <minimizedAffinity>
-3.88454604

$$$$

 OpenBabel03272510113D

 22 23  0  0  0  0  0  0  0  0999 V2000
   36.2150   22.8470   31.9850 C   0  0  0  0  0  0  0  0  0  0  0  0
   35.4250   23.7040   31.2480 C   0  0  0  0  0  0  0  0  0  0  0  0
   35.5820   25.0740   31.2410 C   0  0  0  0  0  0  0  0  0  0  0  0
   36.5800   25.6450   32.0100 C   0  0  0  0  0  0  0  0  0  0  0  0
   37.3550   24.7700   32.7390 C   0  0  0  0  0  0  0  0  0  0  0  0
   37.1710   23.4390   32.7180 N   0  0  0  0  0  0  0  0  0  0  0  0
   34.6320   23.3010   30.6310 H   0  0  0  0  0  0  0  0  0  0  0  0
   34.9710   25.7580   30.6680 H   0  0  0  0  0  0  0  0  0  0  0  0
   38.1740   25.0570   33.3880 H   0  0  0  0  0  0  0  0  0  0  0  0
   36.1800   20.5870   30.8560 C   0  0  0  0  0  0  0  0  0  0  0  0
   36.0270   21.4080   31.9700 C   0  0  0  0  0  0  0  0  0  0  0  0
   35.6620   20.8070   33.1760 C   0  0  0  0  0  0  0  0  0  0  0  0
   35.4820   19.4400   33.1680 N   0  0  0  0  0  0  0  0  0  0  0  0
   35.6420   18.6950   32.0720 C   0  0  0  0  0  0  0  0  0  0  0  0
   35.9910   19.2610   30.9090 N   0  0  0  0  0  0  0  0  0  0  0  0
   36.4670   21.1630   29.9630 H   0  0  0  0  0  0  0  0  0  0  0  0
   35.5080   21.3210   34.1190 H   0  0  0  0  0  0  0  0  0  0  0  0
   35.4830   17.6200   32.1410 H   0  0  0  0  0  0  0  0  0  0  0  0
   36.8650   27.0050   32.1120 O   0  0  0  0  0  0  0  0  0  0  0  0
   37.3130   27.4930   33.3450 C   0  0  0  0  0  0  0  0  0  0  0  0
   38.3680   27.4730   33.5650 H   0  0  0  0  0  0  0  0  0  0  0  0
   36.5250   27.9630   34.2260 O   0  0  0  0  0  0  0  0  0  0  0  0
  1  6  1  0  0  0  0
  2  1  2  0  0  0  0
  3  2  1  0  0  0  0
  3  4  2  0  0  0  0
  4 19  1  0  0  0  0
  4  5  1  0  0  0  0
  5  9  1  0  0  0  0
  6  5  2  0  0  0  0
  7  2  1  0  0  0  0
  8  3  1  0  0  0  0
 10 15  2  0  0  0  0
 10 11  1  0  0  0  0
 11  1  1  0  0  0  0
 11 12  2  0  0  0  0
 12 17  1  0  0  0  0
 13 12  1  0  0  0  0
 14 18  1  0  0  0  0
 14 13  2  0  0  0  0
 15 14  1  0  0  0  0
 16 10  1  0  0  0  0
 19 20  1  0  0  0  0
 20 21  1  0  0  0  0
 20 22  2  0  0  0  0
M  END
>  <minimizedAffinity>
-3.868119

$$$$

 OpenBabel03272510113D

 22 23  0  0  0  0  0  0  0  0999 V2000
   38.1010   24.3790   34.8800 C   0  0  0  0  0  0  0  0  0  0  0  0
   38.0980   23.5170   33.8040 C   0  0  0  0  0  0  0  0  0  0  0  0
   37.7250   23.8870   32.5290 C   0  0  0  0  0  0  0  0  0  0  0  0
   37.3260   25.1890   32.2910 C   0  0  0  0  0  0  0  0  0  0  0  0
   37.3360   26.0320   33.3820 C   0  0  0  0  0  0  0  0  0  0  0  0
   37.7070   25.6330   34.6090 N   0  0  0  0  0  0  0  0  0  0  0  0
   38.4040   22.4880   33.9430 H   0  0  0  0  0  0  0  0  0  0  0  0
   37.7180   23.2220   31.6750 H   0  0  0  0  0  0  0  0  0  0  0  0
   37.0530   27.0780   33.3620 H   0  0  0  0  0  0  0  0  0  0  0  0
   39.5750   23.1230   36.5040 C   0  0  0  0  0  0  0  0  0  0  0  0
   38.5020   23.9610   36.2110 C   0  0  0  0  0  0  0  0  0  0  0  0
   37.7430   24.4430   37.2790 C   0  0  0  0  0  0  0  0  0  0  0  0
   38.1190   24.0500   38.5450 N   0  0  0  0  0  0  0  0  0  0  0  0
   39.1580   23.2440   38.7750 C   0  0  0  0  0  0  0  0  0  0  0  0
   39.8930   22.7740   37.7580 N   0  0  0  0  0  0  0  0  0  0  0  0
   40.1010   22.8030   35.5920 H   0  0  0  0  0  0  0  0  0  0  0  0
   36.8840   25.1000   37.2000 H   0  0  0  0  0  0  0  0  0  0  0  0
   39.3970   22.9750   39.8030 H   0  0  0  0  0  0  0  0  0  0  0  0
   36.9210   25.7160   31.0670 O   0  0  0  0  0  0  0  0  0  0  0  0
   35.5710   26.0540   30.9100 C   0  0  0  0  0  0  0  0  0  0  0  0
   35.3090   27.0760   30.6840 H   0  0  0  0  0  0  0  0  0  0  0  0
   34.6320   25.2040   31.0230 O   0  0  0  0  0  0  0  0  0  0  0  0
  1 11  1  0  0  0  0
  2  7  1  0  0  0  0
  2  1  2  0  0  0  0
  3  2  1  0  0  0  0
  4  3  2  0  0  0  0
  4  5  1  0  0  0  0
  5  6  2  0  0  0  0
  6  1  1  0  0  0  0
  8  3  1  0  0  0  0
  9  5  1  0  0  0  0
 10 15  1  0  0  0  0
 11 10  2  0  0  0  0
 11 12  1  0  0  0  0
 12 13  2  0  0  0  0
 13 14  1  0  0  0  0
 14 18  1  0  0  0  0
 15 14  2  0  0  0  0
 16 10  1  0  0  0  0
 17 12  1  0  0  0  0
 19  4  1  0  0  0  0
 20 22  2  0  0  0  0
 20 19  1  0  0  0  0
 21 20  1  0  0  0  0
M  END
>  <minimizedAffinity>
-3.84742403

$$$$
