
 OpenBabel03272510103D

 22 23  0  0  0  0  0  0  0  0999 V2000
   37.8360   31.1870   47.5700 C   0  0  0  0  0  0  0  0  0  0  0  0
   38.8820   32.0560   47.3420 C   0  0  0  0  0  0  0  0  0  0  0  0
   39.1700   32.6000   46.1080 C   0  0  0  0  0  0  0  0  0  0  0  0
   38.3790   32.2710   45.0220 C   0  0  0  0  0  0  0  0  0  0  0  0
   37.3400   31.4010   45.2740 C   0  0  0  0  0  0  0  0  0  0  0  0
   37.0930   30.8930   46.4920 N   0  0  0  0  0  0  0  0  0  0  0  0
   39.5270   32.3420   48.1630 H   0  0  0  0  0  0  0  0  0  0  0  0
   39.9860   33.2830   45.9140 H   0  0  0  0  0  0  0  0  0  0  0  0
   36.6330   31.0470   44.5330 H   0  0  0  0  0  0  0  0  0  0  0  0
   38.1570   31.0340   50.0710 C   0  0  0  0  0  0  0  0  0  0  0  0
   37.5570   30.6320   48.8810 C   0  0  0  0  0  0  0  0  0  0  0  0
   36.6070   29.6110   48.9450 C   0  0  0  0  0  0  0  0  0  0  0  0
   36.3370   29.0800   50.1880 N   0  0  0  0  0  0  0  0  0  0  0  0
   36.9400   29.5010   51.3020 C   0  0  0  0  0  0  0  0  0  0  0  0
   37.8540   30.4800   51.2530 N   0  0  0  0  0  0  0  0  0  0  0  0
   38.8870   31.8410   49.9060 H   0  0  0  0  0  0  0  0  0  0  0  0
   36.0610   29.1990   48.1020 H   0  0  0  0  0  0  0  0  0  0  0  0
   36.6760   29.0350   52.2500 H   0  0  0  0  0  0  0  0  0  0  0  0
   38.5380   32.7340   43.7170 O   0  0  0  0  0  0  0  0  0  0  0  0
   39.7110   32.3890   43.0350 C   0  0  0  0  0  0  0  0  0  0  0  0
   40.6110   32.2050   43.6000 H   0  0  0  0  0  0  0  0  0  0  0  0
   39.7640   32.2840   41.7690 O   0  0  0  0  0  0  0  0  0  0  0  0
  1 11  1  0  0  0  0
  2  1  1  0  0  0  0
  2  7  1  0  0  0  0
  3  2  2  0  0  0  0
  4  5  2  0  0  0  0
  4  3  1  0  0  0  0
  5  6  1  0  0  0  0
  6  1  2  0  0  0  0
  8  3  1  0  0  0  0
  9  5  1  0  0  0  0
 10 15  1  0  0  0  0
 11 12  1  0  0  0  0
 11 10  2  0  0  0  0
 12 13  2  0  0  0  0
 13 14  1  0  0  0  0
 14 18  1  0  0  0  0
 15 14  2  0  0  0  0
 16 10  1  0  0  0  0
 17 12  1  0  0  0  0
 19  4  1  0  0  0  0
 20 21  1  0  0  0  0
 20 19  1  0  0  0  0
 22 20  2  0  0  0  0
M  END
>  <minimizedAffinity>
-4.57651806

>  <minimizedRMSD>
2.70315099

$$$$
