
     RDKit          3D

 25 26  0  0  0  0  0  0  0  0999 V2000
   36.8099   32.1791   50.1388 Cl  0  0  0  0  0  0  0  0  0  0  0  0
   37.5465   31.9156   48.5794 C   0  0  0  0  0  0  0  0  0  0  0  0
   36.9693   30.9090   47.8756 C   0  0  0  0  0  0  0  0  0  0  0  0
   37.4882   30.6158   46.6038 C   0  0  0  0  0  0  0  0  0  0  0  0
   38.5350   31.3098   46.0814 C   0  0  0  0  0  0  0  0  0  0  0  0
   39.0956   32.3230   46.8213 C   0  0  0  0  0  0  0  0  0  0  0  0
   40.4361   33.2453   46.1937 Cl  0  0  0  0  0  0  0  0  0  0  0  0
   38.6033   32.6176   48.0545 C   0  0  0  0  0  0  0  0  0  0  0  0
   36.0198   29.1003   49.2568 C   0  0  0  0  0  0  0  0  0  0  0  0
   35.8414   30.0316   48.2322 C   0  0  0  0  0  0  0  0  0  0  0  0
   34.6004   30.0732   47.6058 C   0  0  0  0  0  0  0  0  0  0  0  0
   33.6437   29.2032   48.0340 N   0  0  0  0  0  0  0  0  0  0  0  0
   33.8544   28.3282   49.0170 C   0  0  0  0  0  0  0  0  0  0  0  0
   35.0600   28.2762   49.6371 N   0  0  0  0  0  0  0  0  0  0  0  0
   39.1454   33.6865   48.9150 C   0  0  0  0  0  0  0  0  0  0  0  0
   39.2559   34.9010   48.6380 O   0  0  0  0  0  0  0  0  0  0  0  0
   39.6393   33.5175   50.2163 O   0  0  0  0  0  0  0  0  0  0  0  0
   37.1015   29.8390   45.9696 H   0  0  0  0  0  0  0  0  0  0  0  0
   38.9651   31.1106   45.0968 H   0  0  0  0  0  0  0  0  0  0  0  0
   37.0011   29.0724   49.7470 H   0  0  0  0  0  0  0  0  0  0  0  0
   34.4656   30.7787   46.8299 H   0  0  0  0  0  0  0  0  0  0  0  0
   33.1110   27.6315   49.3707 H   0  0  0  0  0  0  0  0  0  0  0  0
   40.1452   34.4658   51.0408 C   0  0  0  0  0  0  0  0  0  0  0  0
   40.1985   35.5129   50.6984 H   0  0  0  0  0  0  0  0  0  0  0  0
   40.5333   34.0872   52.1741 O   0  0  0  0  0  0  0  0  0  0  0  0
  2  1  1  0
  3 10  1  0
  3  2  2  0
  4  3  1  0
  5  4  2  0
  5  6  1  0
  6  8  2  0
  7  6  1  0
  8  2  1  0
  8 15  1  0
  9 14  2  0
 10  9  1  0
 11 12  1  0
 11 10  2  0
 12 13  2  0
 13 14  1  0
 15 17  1  0
 16 15  2  0
  4 18  1  0
  5 19  1  0
  9 20  1  0
 11 21  1  0
 13 22  1  0
 23 24  1  0
 23 25  2  0
 17 23  1  0
M  ISO  6  18  14  19  14  20  14  21  14  22  14  24   6
M  END
>  <DihAtoms>  (1) 
14,16,22,23

>  <DihDeg>  (1) 
-179.99501716985367

$$$$
