REMARK  Name = 
REMARK  3 active torsions:
REMARK  status: ('A' for Active; 'I' for Inactive)
REMARK    1  A    between atoms: C_1  and  C_8
REMARK    2  A    between atoms: C_4  and  O_13
REMARK    3  A    between atoms: O_13  and  C_20
REMARK                            x       y       z     vdW  Elec       q    Type
REMARK                         _______ _______ _______ _____ _____    ______ ____
ROOT
ATOM      1  C   UNL     1      37.571  31.647  48.927  0.00  0.00    +0.000 A 
ATOM      2  C   UNL     1      38.205  32.722  49.513  0.00  0.00    +0.000 A 
ATOM      3  C   UNL     1      39.072  33.558  48.842  0.00  0.00    +0.000 A 
ATOM      4  C   UNL     1      39.338  33.325  47.505  0.00  0.00    +0.000 A 
ATOM      5  C   UNL     1      38.694  32.245  46.941  0.00  0.00    +0.000 A 
ATOM      6  N   UNL     1      37.855  31.454  47.630  0.00  0.00    +0.000 NA
ATOM      7  H   UNL     1      38.026  32.943  50.558  0.00  0.00    +0.000 HD
ATOM      8  H   UNL     1      39.576  34.405  49.288  0.00  0.00    +0.000 HD
ATOM      9  H   UNL     1      38.795  31.930  45.909  0.00  0.00    +0.000 HD
ENDROOT
BRANCH   1  11
ATOM     10  C   UNL     1      36.939  30.169  50.877  0.00  0.00    +0.000 A 
ATOM     11  C   UNL     1      36.661  30.786  49.660  0.00  0.00    +0.000 A 
ATOM     12  C   UNL     1      35.406  30.564  49.090  0.00  0.00    +0.000 A 
ATOM     13  N   UNL     1      34.537  29.748  49.782  0.00  0.00    +0.000 NA
ATOM     14  C   UNL     1      34.851  29.179  50.948  0.00  0.00    +0.000 A 
ATOM     15  N   UNL     1      36.052  29.384  51.504  0.00  0.00    +0.000 NA
ATOM     16  H   UNL     1      37.952  30.411  51.233  0.00  0.00    +0.000 HD
ATOM     17  H   UNL     1      35.054  30.978  48.151  0.00  0.00    +0.000 HD
ATOM     18  H   UNL     1      34.113  28.545  51.438  0.00  0.00    +0.000 HD
ENDBRANCH   1  11
BRANCH   4  19
ATOM     19  O   UNL     1      40.186  34.073  46.691  0.00  0.00    +0.000 OA
BRANCH  19  20
ATOM     20  C   UNL     1      41.533  33.697  46.622  0.00  0.00    +0.000 C 
ATOM     21  H   UNL     1      42.270  34.288  47.142  0.00  0.00    +0.000 HD
ATOM     22  O   UNL     1      41.930  32.681  45.968  0.00  0.00    +0.000 OA
ENDBRANCH  19  20
ENDBRANCH   4  19
TORSDOF 3
