REMARK  Name = 
REMARK  2 active torsions:
REMARK  status: ('A' for Active; 'I' for Inactive)
REMARK    1  A    between atoms: C_5  and  O_7
REMARK    2  A    between atoms: O_7  and  C_11
REMARK                            x       y       z     vdW  Elec       q    Type
REMARK                         _______ _______ _______ _____ _____    ______ ____
ROOT
ATOM      1  C   UNL     1      37.322  30.229  51.429  0.00  0.00    +0.000 A 
ATOM      2  C   UNL     1      38.073  30.733  50.342  0.00  0.00    +0.000 A 
ATOM      3  C   UNL     1      37.702  30.376  49.040  0.00  0.00    +0.000 A 
ATOM      4  N   UNL     1      36.617  29.548  48.892  0.00  0.00    +0.000 NA
ATOM      5  C   UNL     1      35.922  29.086  49.968  0.00  0.00    +0.000 A 
ATOM      6  N   UNL     1      36.282  29.431  51.216  0.00  0.00    +0.000 NA
ATOM      7  H   UNL     1      37.645  30.531  52.417  0.00  0.00    +0.000 HD
ATOM      8  H   UNL     1      38.932  31.387  50.428  0.00  0.00    +0.000 HD
ATOM      9  H   UNL     1      38.252  30.742  48.210  0.00  0.00    +0.000 HD
ENDROOT
BRANCH   5  10
ATOM     10  O   UNL     1      34.873  28.272  49.601  0.00  0.00    +0.000 OA
BRANCH  10  11
ATOM     11  C   UNL     1      33.622  28.814  49.360  0.00  0.00    +0.000 C 
ATOM     12  H   UNL     1      33.009  28.848  50.265  0.00  0.00    +0.000 HD
ATOM     13  O   UNL     1      33.965  28.957  48.139  0.00  0.00    +0.000 OA
ENDBRANCH  10  11
ENDBRANCH   5  10
TORSDOF 2
