
 OpenBabel03272508223D

 36 38  0  0  0  0  0  0  0  0999 V2000
   38.2210   27.0810   35.6070 C   0  0  0  0  0  0  0  0  0  0  0  0
   38.0150   27.2500   36.6830 H   0  0  0  0  0  0  0  0  0  0  0  0
   38.6830   28.0650   35.2810 H   0  0  0  0  0  0  0  0  0  0  0  0
   39.0880   24.8140   35.9670 C   0  0  0  0  0  0  0  0  0  0  0  0
   39.2110   26.0670   35.4330 C   0  0  0  0  0  0  0  0  0  0  0  0
   40.3850   26.2650   34.7890 C   0  0  0  0  0  0  0  0  0  0  0  0
   41.3400   25.3380   34.6800 N   0  0  0  0  0  0  0  0  0  0  0  0
   41.2200   24.1260   35.2020 C   0  0  0  0  0  0  0  0  0  0  0  0
   40.0920   23.8490   35.8520 N   0  0  0  0  0  0  0  0  0  0  0  0
   40.6330   27.2230   34.3030 H   0  0  0  0  0  0  0  0  0  0  0  0
   41.9630   23.3740   35.1310 H   0  0  0  0  0  0  0  0  0  0  0  0
   37.7690   24.3470   36.5850 C   0  0  0  0  0  0  0  0  0  0  0  0
   37.6360   23.1630   37.2920 C   0  0  0  0  0  0  0  0  0  0  0  0
   38.0050   24.3600   38.1590 C   0  0  0  0  0  0  0  0  0  0  0  0
   36.8890   24.8890   36.3570 H   0  0  0  0  0  0  0  0  0  0  0  0
   38.4510   22.3820   37.2060 H   0  0  0  0  0  0  0  0  0  0  0  0
   36.6930   22.7020   37.5680 H   0  0  0  0  0  0  0  0  0  0  0  0
   37.2230   24.9070   38.6740 H   0  0  0  0  0  0  0  0  0  0  0  0
   39.0190   24.3930   38.5250 H   0  0  0  0  0  0  0  0  0  0  0  0
   36.9510   26.9430   34.8660 C   0  0  0  0  0  0  0  0  0  0  0  0
   36.1210   26.9870   35.6340 H   0  0  0  0  0  0  0  0  0  0  0  0
   36.8280   25.9210   34.4350 H   0  0  0  0  0  0  0  0  0  0  0  0
   38.0290   26.5430   32.3420 F   0  0  0  0  0  0  0  0  0  0  0  0
   37.2470   27.6220   32.6140 C   0  0  0  0  0  0  0  0  0  0  0  0
   36.6660   27.9060   33.8560 C   0  0  0  0  0  0  0  0  0  0  0  0
   35.9410   29.0440   33.9210 C   0  0  0  0  0  0  0  0  0  0  0  0
   35.7510   29.8900   32.8790 C   0  0  0  0  0  0  0  0  0  0  0  0
   36.3330   29.6010   31.6410 C   0  0  0  0  0  0  0  0  0  0  0  0
   37.0910   28.4470   31.5300 C   0  0  0  0  0  0  0  0  0  0  0  0
   35.5030   29.4540   34.7790 H   0  0  0  0  0  0  0  0  0  0  0  0
   35.1700   30.8260   32.8650 H   0  0  0  0  0  0  0  0  0  0  0  0
   36.2020   30.2630   30.7670 H   0  0  0  0  0  0  0  0  0  0  0  0
   37.6570   28.2280   30.2680 O   0  0  0  0  0  0  0  0  0  0  0  0
   37.4120   29.0410   29.1810 C   0  0  0  0  0  0  0  0  0  0  0  0
   36.5040   29.6170   29.3180 H   0  0  0  0  0  0  0  0  0  0  0  0
   37.9620   29.3000   28.0640 O   0  0  0  0  0  0  0  0  0  0  0  0
  1  2  1  0  0  0  0
  3  1  1  0  0  0  0
  4 12  1  0  0  0  0
  5  1  1  0  0  0  0
  5  4  2  0  0  0  0
  6  5  1  0  0  0  0
  7  6  2  0  0  0  0
  7  8  1  0  0  0  0
  8  9  2  0  0  0  0
  9  4  1  0  0  0  0
 10  6  1  0  0  0  0
 11  8  1  0  0  0  0
 12 13  1  0  0  0  0
 12 14  1  0  0  0  0
 13 17  1  0  0  0  0
 13 14  1  0  0  0  0
 14 19  1  0  0  0  0
 14 18  1  0  0  0  0
 15 12  1  0  0  0  0
 16 13  1  0  0  0  0
 20  1  1  0  0  0  0
 20 21  1  0  0  0  0
 22 20  1  0  0  0  0
 23 24  1  0  0  0  0
 24 25  1  0  0  0  0
 25 26  2  0  0  0  0
 25 20  1  0  0  0  0
 26 30  1  0  0  0  0
 27 26  1  0  0  0  0
 28 27  2  0  0  0  0
 29 28  1  0  0  0  0
 29 24  2  0  0  0  0
 31 27  1  0  0  0  0
 32 28  1  0  0  0  0
 33 29  1  0  0  0  0
 34 35  1  0  0  0  0
 34 33  1  0  0  0  0
 36 34  2  0  0  0  0
M  END
>  <minimizedAffinity>
-5.01072502

$$$$

 OpenBabel03272508223D

 36 38  0  0  0  0  0  0  0  0999 V2000
   36.2260   28.9350   33.2470 C   0  0  0  0  0  0  0  0  0  0  0  0
   36.9890   29.3000   33.9640 H   0  0  0  0  0  0  0  0  0  0  0  0
   36.4580   29.5290   32.3090 H   0  0  0  0  0  0  0  0  0  0  0  0
   37.1240   26.7120   33.7700 C   0  0  0  0  0  0  0  0  0  0  0  0
   36.4350   27.5560   32.9420 C   0  0  0  0  0  0  0  0  0  0  0  0
   36.0370   26.9720   31.7870 C   0  0  0  0  0  0  0  0  0  0  0  0
   36.2870   25.6990   31.4720 N   0  0  0  0  0  0  0  0  0  0  0  0
   36.9580   24.8850   32.2740 C   0  0  0  0  0  0  0  0  0  0  0  0
   37.3840   25.3810   33.4330 N   0  0  0  0  0  0  0  0  0  0  0  0
   35.4700   27.5220   31.0190 H   0  0  0  0  0  0  0  0  0  0  0  0
   37.1700   23.8710   32.0460 H   0  0  0  0  0  0  0  0  0  0  0  0
   37.5080   27.1390   35.1870 C   0  0  0  0  0  0  0  0  0  0  0  0
   38.2280   26.3340   36.0560 C   0  0  0  0  0  0  0  0  0  0  0  0
   39.0960   27.2390   35.1880 C   0  0  0  0  0  0  0  0  0  0  0  0
   37.0990   28.0370   35.5690 H   0  0  0  0  0  0  0  0  0  0  0  0
   38.3280   25.2310   35.8220 H   0  0  0  0  0  0  0  0  0  0  0  0
   38.3460   26.5120   37.1190 H   0  0  0  0  0  0  0  0  0  0  0  0
   39.4350   28.1900   35.5830 H   0  0  0  0  0  0  0  0  0  0  0  0
   39.6410   26.7590   34.3900 H   0  0  0  0  0  0  0  0  0  0  0  0
   34.8790   29.3510   33.6890 C   0  0  0  0  0  0  0  0  0  0  0  0
   34.3280   28.4050   33.9780 H   0  0  0  0  0  0  0  0  0  0  0  0
   34.2650   29.7410   32.8430 H   0  0  0  0  0  0  0  0  0  0  0  0
   32.4170   29.6760   34.9230 F   0  0  0  0  0  0  0  0  0  0  0  0
   33.5140   30.3590   35.3440 C   0  0  0  0  0  0  0  0  0  0  0  0
   34.7920   30.2620   34.7810 C   0  0  0  0  0  0  0  0  0  0  0  0
   35.7420   31.0450   35.3350 C   0  0  0  0  0  0  0  0  0  0  0  0
   35.5280   31.8860   36.3770 C   0  0  0  0  0  0  0  0  0  0  0  0
   34.2500   31.9780   36.9360 C   0  0  0  0  0  0  0  0  0  0  0  0
   33.2420   31.1970   36.3940 C   0  0  0  0  0  0  0  0  0  0  0  0
   36.7270   31.1620   34.9980 H   0  0  0  0  0  0  0  0  0  0  0  0
   36.2570   32.5440   36.8760 H   0  0  0  0  0  0  0  0  0  0  0  0
   34.0330   32.6500   37.7860 H   0  0  0  0  0  0  0  0  0  0  0  0
   31.9850   31.3520   36.9920 O   0  0  0  0  0  0  0  0  0  0  0  0
   31.0370   32.2410   36.5300 C   0  0  0  0  0  0  0  0  0  0  0  0
   30.4620   32.6630   37.3480 H   0  0  0  0  0  0  0  0  0  0  0  0
   30.6540   32.7020   35.4080 O   0  0  0  0  0  0  0  0  0  0  0  0
  1 20  1  0  0  0  0
  1  2  1  0  0  0  0
  3  1  1  0  0  0  0
  4 12  1  0  0  0  0
  5  1  1  0  0  0  0
  5  4  2  0  0  0  0
  6  5  1  0  0  0  0
  7  6  2  0  0  0  0
  7  8  1  0  0  0  0
  8  9  2  0  0  0  0
  9  4  1  0  0  0  0
 10  6  1  0  0  0  0
 11  8  1  0  0  0  0
 12 14  1  0  0  0  0
 12 15  1  0  0  0  0
 12 13  1  0  0  0  0
 13 17  1  0  0  0  0
 14 18  1  0  0  0  0
 14 13  1  0  0  0  0
 16 13  1  0  0  0  0
 19 14  1  0  0  0  0
 20 21  1  0  0  0  0
 20 25  1  0  0  0  0
 22 20  1  0  0  0  0
 23 24  1  0  0  0  0
 24 29  1  0  0  0  0
 25 26  1  0  0  0  0
 25 24  2  0  0  0  0
 26 27  2  0  0  0  0
 27 31  1  0  0  0  0
 27 28  1  0  0  0  0
 28 32  1  0  0  0  0
 29 28  2  0  0  0  0
 29 33  1  0  0  0  0
 30 26  1  0  0  0  0
 34 33  1  0  0  0  0
 34 35  1  0  0  0  0
 36 34  2  0  0  0  0
M  END
>  <minimizedAffinity>
-5.00889111

$$$$

 OpenBabel03272508223D

 36 38  0  0  0  0  0  0  0  0999 V2000
   36.7640   27.4550   34.7270 C   0  0  0  0  0  0  0  0  0  0  0  0
   35.9000   27.6520   35.3930 H   0  0  0  0  0  0  0  0  0  0  0  0
   36.6730   26.3430   34.5200 H   0  0  0  0  0  0  0  0  0  0  0  0
   35.8500   29.2640   33.3450 C   0  0  0  0  0  0  0  0  0  0  0  0
   36.6110   28.1350   33.4820 C   0  0  0  0  0  0  0  0  0  0  0  0
   37.1410   27.6980   32.3150 C   0  0  0  0  0  0  0  0  0  0  0  0
   36.9470   28.2970   31.1380 N   0  0  0  0  0  0  0  0  0  0  0  0
   36.2060   29.3880   31.0080 C   0  0  0  0  0  0  0  0  0  0  0  0
   35.6480   29.8850   32.1100 N   0  0  0  0  0  0  0  0  0  0  0  0
   37.7800   26.8010   32.2620 H   0  0  0  0  0  0  0  0  0  0  0  0
   36.0350   29.8820   30.0850 H   0  0  0  0  0  0  0  0  0  0  0  0
   35.3080   30.0020   34.5700 C   0  0  0  0  0  0  0  0  0  0  0  0
   34.3880   31.0350   34.4910 C   0  0  0  0  0  0  0  0  0  0  0  0
   33.7560   29.6540   34.6270 C   0  0  0  0  0  0  0  0  0  0  0  0
   35.7480   29.8020   35.5110 H   0  0  0  0  0  0  0  0  0  0  0  0
   34.2100   31.5310   33.4900 H   0  0  0  0  0  0  0  0  0  0  0  0
   34.1340   31.7090   35.3020 H   0  0  0  0  0  0  0  0  0  0  0  0
   33.4640   29.2960   35.6070 H   0  0  0  0  0  0  0  0  0  0  0  0
   33.2880   29.2520   33.7420 H   0  0  0  0  0  0  0  0  0  0  0  0
   38.0270   27.6440   35.4700 C   0  0  0  0  0  0  0  0  0  0  0  0
   37.7710   27.5650   36.5700 H   0  0  0  0  0  0  0  0  0  0  0  0
   38.4080   28.6900   35.3840 H   0  0  0  0  0  0  0  0  0  0  0  0
   37.7910   25.0390   36.3890 F   0  0  0  0  0  0  0  0  0  0  0  0
   38.8890   25.4480   35.6990 C   0  0  0  0  0  0  0  0  0  0  0  0
   39.0950   26.7400   35.2020 C   0  0  0  0  0  0  0  0  0  0  0  0
   40.2660   26.9460   34.5610 C   0  0  0  0  0  0  0  0  0  0  0  0
   41.2140   25.9950   34.3780 C   0  0  0  0  0  0  0  0  0  0  0  0
   41.0030   24.7050   34.8750 C   0  0  0  0  0  0  0  0  0  0  0  0
   39.8170   24.4510   35.5450 C   0  0  0  0  0  0  0  0  0  0  0  0
   40.6230   27.8610   34.1970 H   0  0  0  0  0  0  0  0  0  0  0  0
   42.1830   26.0960   33.8630 H   0  0  0  0  0  0  0  0  0  0  0  0
   41.7490   23.9020   34.7460 H   0  0  0  0  0  0  0  0  0  0  0  0
   39.6790   23.1450   36.0310 O   0  0  0  0  0  0  0  0  0  0  0  0
   39.8750   22.8090   37.3550 C   0  0  0  0  0  0  0  0  0  0  0  0
   40.7650   22.2020   37.4790 H   0  0  0  0  0  0  0  0  0  0  0  0
   39.2970   23.0170   38.4680 O   0  0  0  0  0  0  0  0  0  0  0  0
  1  2  1  0  0  0  0
  1 20  1  0  0  0  0
  3  1  1  0  0  0  0
  4  5  1  0  0  0  0
  4 12  1  0  0  0  0
  5  1  1  0  0  0  0
  6  5  2  0  0  0  0
  7  6  1  0  0  0  0
  8  7  2  0  0  0  0
  8  9  1  0  0  0  0
  9  4  2  0  0  0  0
 10  6  1  0  0  0  0
 11  8  1  0  0  0  0
 12 14  1  0  0  0  0
 12 15  1  0  0  0  0
 13 12  1  0  0  0  0
 13 14  1  0  0  0  0
 13 17  1  0  0  0  0
 14 18  1  0  0  0  0
 16 13  1  0  0  0  0
 19 14  1  0  0  0  0
 20 21  1  0  0  0  0
 22 20  1  0  0  0  0
 24 23  1  0  0  0  0
 25 20  1  0  0  0  0
 25 24  2  0  0  0  0
 26 25  1  0  0  0  0
 27 26  2  0  0  0  0
 27 28  1  0  0  0  0
 28 29  2  0  0  0  0
 29 24  1  0  0  0  0
 29 33  1  0  0  0  0
 30 26  1  0  0  0  0
 31 27  1  0  0  0  0
 32 28  1  0  0  0  0
 33 34  1  0  0  0  0
 34 35  1  0  0  0  0
 34 36  2  0  0  0  0
M  END
>  <minimizedAffinity>
-5.0035038

$$$$

 OpenBabel03272508223D

 36 38  0  0  0  0  0  0  0  0999 V2000
   38.1320   27.2590   35.6600 C   0  0  0  0  0  0  0  0  0  0  0  0
   37.9150   27.3510   36.7430 H   0  0  0  0  0  0  0  0  0  0  0  0
   38.6020   28.2610   35.4110 H   0  0  0  0  0  0  0  0  0  0  0  0
   39.0190   24.9870   35.9300 C   0  0  0  0  0  0  0  0  0  0  0  0
   39.1180   26.2540   35.4240 C   0  0  0  0  0  0  0  0  0  0  0  0
   40.2670   26.4740   34.7420 C   0  0  0  0  0  0  0  0  0  0  0  0
   41.2210   25.5540   34.5740 N   0  0  0  0  0  0  0  0  0  0  0  0
   41.1240   24.3280   35.0690 C   0  0  0  0  0  0  0  0  0  0  0  0
   40.0220   24.0290   35.7530 N   0  0  0  0  0  0  0  0  0  0  0  0
   40.4930   27.4450   34.2730 H   0  0  0  0  0  0  0  0  0  0  0  0
   41.8670   23.5820   34.9510 H   0  0  0  0  0  0  0  0  0  0  0  0
   37.7250   24.4990   36.5830 C   0  0  0  0  0  0  0  0  0  0  0  0
   37.6110   23.2770   37.2260 C   0  0  0  0  0  0  0  0  0  0  0  0
   38.0370   24.4180   38.1410 C   0  0  0  0  0  0  0  0  0  0  0  0
   36.8430   25.0610   36.4290 H   0  0  0  0  0  0  0  0  0  0  0  0
   38.4110   22.4940   37.0560 H   0  0  0  0  0  0  0  0  0  0  0  0
   36.6770   22.8110   37.5200 H   0  0  0  0  0  0  0  0  0  0  0  0
   37.2880   24.9420   38.7250 H   0  0  0  0  0  0  0  0  0  0  0  0
   39.0680   24.4190   38.4590 H   0  0  0  0  0  0  0  0  0  0  0  0
   36.8690   27.1820   34.8970 C   0  0  0  0  0  0  0  0  0  0  0  0
   36.0550   27.5750   35.5790 H   0  0  0  0  0  0  0  0  0  0  0  0
   36.5500   26.1270   34.7230 H   0  0  0  0  0  0  0  0  0  0  0  0
   35.0660   29.2810   34.7150 F   0  0  0  0  0  0  0  0  0  0  0  0
   35.8610   28.9400   33.6670 C   0  0  0  0  0  0  0  0  0  0  0  0
   36.7940   27.8960   33.6670 C   0  0  0  0  0  0  0  0  0  0  0  0
   37.4690   27.7090   32.5120 C   0  0  0  0  0  0  0  0  0  0  0  0
   37.2990   28.4590   31.3960 C   0  0  0  0  0  0  0  0  0  0  0  0
   36.3660   29.5010   31.4020 C   0  0  0  0  0  0  0  0  0  0  0  0
   35.6460   29.7250   32.5640 C   0  0  0  0  0  0  0  0  0  0  0  0
   38.1420   26.9340   32.3040 H   0  0  0  0  0  0  0  0  0  0  0  0
   37.8180   28.3620   30.4290 H   0  0  0  0  0  0  0  0  0  0  0  0
   36.1970   30.1360   30.5150 H   0  0  0  0  0  0  0  0  0  0  0  0
   34.7180   30.7720   32.4940 O   0  0  0  0  0  0  0  0  0  0  0  0
   33.3810   30.5770   32.2180 C   0  0  0  0  0  0  0  0  0  0  0  0
   32.9860   31.3750   31.5990 H   0  0  0  0  0  0  0  0  0  0  0  0
   32.4860   29.7160   32.4910 O   0  0  0  0  0  0  0  0  0  0  0  0
  1  2  1  0  0  0  0
  3  1  1  0  0  0  0
  4 12  1  0  0  0  0
  5  1  1  0  0  0  0
  5  4  2  0  0  0  0
  6  5  1  0  0  0  0
  7  6  2  0  0  0  0
  7  8  1  0  0  0  0
  8  9  2  0  0  0  0
  9  4  1  0  0  0  0
 10  6  1  0  0  0  0
 11  8  1  0  0  0  0
 12 13  1  0  0  0  0
 12 14  1  0  0  0  0
 13 17  1  0  0  0  0
 13 14  1  0  0  0  0
 14 19  1  0  0  0  0
 14 18  1  0  0  0  0
 15 12  1  0  0  0  0
 16 13  1  0  0  0  0
 20 21  1  0  0  0  0
 20  1  1  0  0  0  0
 22 20  1  0  0  0  0
 24 23  1  0  0  0  0
 25 24  1  0  0  0  0
 25 20  1  0  0  0  0
 26 25  2  0  0  0  0
 27 28  2  0  0  0  0
 27 26  1  0  0  0  0
 28 29  1  0  0  0  0
 29 24  2  0  0  0  0
 30 26  1  0  0  0  0
 31 27  1  0  0  0  0
 32 28  1  0  0  0  0
 33 29  1  0  0  0  0
 34 36  2  0  0  0  0
 34 33  1  0  0  0  0
 35 34  1  0  0  0  0
M  END
>  <minimizedAffinity>
-4.97621584

$$$$

 OpenBabel03272508223D

 36 38  0  0  0  0  0  0  0  0999 V2000
   39.0920   25.4280   31.4480 C   0  0  0  0  0  0  0  0  0  0  0  0
   39.6680   25.0410   30.5840 H   0  0  0  0  0  0  0  0  0  0  0  0
   39.3120   26.5410   31.4190 H   0  0  0  0  0  0  0  0  0  0  0  0
   36.8240   26.3220   31.1700 C   0  0  0  0  0  0  0  0  0  0  0  0
   37.6900   25.2650   31.2370 C   0  0  0  0  0  0  0  0  0  0  0  0
   37.0770   24.0600   31.1530 C   0  0  0  0  0  0  0  0  0  0  0  0
   35.7580   23.9040   31.0200 N   0  0  0  0  0  0  0  0  0  0  0  0
   34.9210   24.9300   30.9590 C   0  0  0  0  0  0  0  0  0  0  0  0
   35.4440   26.1520   31.0330 N   0  0  0  0  0  0  0  0  0  0  0  0
   37.6400   23.1140   31.1900 H   0  0  0  0  0  0  0  0  0  0  0  0
   33.8710   24.8330   30.8550 H   0  0  0  0  0  0  0  0  0  0  0  0
   37.3410   27.7590   31.0790 C   0  0  0  0  0  0  0  0  0  0  0  0
   36.5090   28.8610   30.9620 C   0  0  0  0  0  0  0  0  0  0  0  0
   36.8320   28.4810   32.4020 C   0  0  0  0  0  0  0  0  0  0  0  0
   38.3820   27.9110   30.9730 H   0  0  0  0  0  0  0  0  0  0  0  0
   35.4280   28.7000   30.6690 H   0  0  0  0  0  0  0  0  0  0  0  0
   36.8330   29.8610   30.6950 H   0  0  0  0  0  0  0  0  0  0  0  0
   37.6420   28.9850   32.9170 H   0  0  0  0  0  0  0  0  0  0  0  0
   36.0360   28.0190   32.9650 H   0  0  0  0  0  0  0  0  0  0  0  0
   39.6680   24.9160   32.7090 C   0  0  0  0  0  0  0  0  0  0  0  0
   40.7910   25.0320   32.6230 H   0  0  0  0  0  0  0  0  0  0  0  0
   39.5460   23.8100   32.8030 H   0  0  0  0  0  0  0  0  0  0  0  0
   38.2990   23.3650   34.5550 F   0  0  0  0  0  0  0  0  0  0  0  0
   38.5730   24.6740   34.7970 C   0  0  0  0  0  0  0  0  0  0  0  0
   39.2540   25.5320   33.9240 C   0  0  0  0  0  0  0  0  0  0  0  0
   39.4040   26.8050   34.3480 C   0  0  0  0  0  0  0  0  0  0  0  0
   38.9510   27.2750   35.5350 C   0  0  0  0  0  0  0  0  0  0  0  0
   38.2730   26.4130   36.4040 C   0  0  0  0  0  0  0  0  0  0  0  0
   38.0900   25.0990   36.0080 C   0  0  0  0  0  0  0  0  0  0  0  0
   39.8130   27.5980   33.7990 H   0  0  0  0  0  0  0  0  0  0  0  0
   39.0450   28.2960   35.9410 H   0  0  0  0  0  0  0  0  0  0  0  0
   37.8890   26.7560   37.3810 H   0  0  0  0  0  0  0  0  0  0  0  0
   37.3900   24.2970   36.9180 O   0  0  0  0  0  0  0  0  0  0  0  0
   37.9640   23.7720   38.0570 C   0  0  0  0  0  0  0  0  0  0  0  0
   37.2830   23.8210   38.8990 H   0  0  0  0  0  0  0  0  0  0  0  0
   39.0740   23.2460   38.3870 O   0  0  0  0  0  0  0  0  0  0  0  0
  1 20  1  0  0  0  0
  2  1  1  0  0  0  0
  3  1  1  0  0  0  0
  4  5  1  0  0  0  0
  5  1  1  0  0  0  0
  6 10  1  0  0  0  0
  6  5  2  0  0  0  0
  7  6  1  0  0  0  0
  8  7  2  0  0  0  0
  8  9  1  0  0  0  0
  9  4  2  0  0  0  0
 11  8  1  0  0  0  0
 12  4  1  0  0  0  0
 12 14  1  0  0  0  0
 13 12  1  0  0  0  0
 13 14  1  0  0  0  0
 14 18  1  0  0  0  0
 14 19  1  0  0  0  0
 15 12  1  0  0  0  0
 16 13  1  0  0  0  0
 17 13  1  0  0  0  0
 20 22  1  0  0  0  0
 20 25  1  0  0  0  0
 21 20  1  0  0  0  0
 23 24  1  0  0  0  0
 24 29  1  0  0  0  0
 25 26  1  0  0  0  0
 25 24  2  0  0  0  0
 26 27  2  0  0  0  0
 27 31  1  0  0  0  0
 27 28  1  0  0  0  0
 28 32  1  0  0  0  0
 29 28  2  0  0  0  0
 29 33  1  0  0  0  0
 30 26  1  0  0  0  0
 33 34  1  0  0  0  0
 34 36  2  0  0  0  0
 34 35  1  0  0  0  0
M  END
>  <minimizedAffinity>
-4.9231596

$$$$

 OpenBabel03272508223D

 36 38  0  0  0  0  0  0  0  0999 V2000
   39.4990   23.5800   34.3900 C   0  0  0  0  0  0  0  0  0  0  0  0
   39.2320   24.4410   33.7450 H   0  0  0  0  0  0  0  0  0  0  0  0
   40.6300   23.6520   34.4510 H   0  0  0  0  0  0  0  0  0  0  0  0
   38.4320   24.9320   36.1370 C   0  0  0  0  0  0  0  0  0  0  0  0
   38.9890   23.7580   35.7110 C   0  0  0  0  0  0  0  0  0  0  0  0
   39.0680   22.8160   36.6810 C   0  0  0  0  0  0  0  0  0  0  0  0
   38.6490   23.0020   37.9350 N   0  0  0  0  0  0  0  0  0  0  0  0
   38.1130   24.1430   38.3460 C   0  0  0  0  0  0  0  0  0  0  0  0
   37.9980   25.1220   37.4520 N   0  0  0  0  0  0  0  0  0  0  0  0
   39.4910   21.8160   36.4930 H   0  0  0  0  0  0  0  0  0  0  0  0
   37.7750   24.3160   39.3350 H   0  0  0  0  0  0  0  0  0  0  0  0
   38.1050   26.0530   35.1480 C   0  0  0  0  0  0  0  0  0  0  0  0
   37.8580   27.3600   35.5340 C   0  0  0  0  0  0  0  0  0  0  0  0
   39.3250   27.0710   35.2380 C   0  0  0  0  0  0  0  0  0  0  0  0
   37.9360   25.7950   34.1370 H   0  0  0  0  0  0  0  0  0  0  0  0
   37.6370   27.5750   36.6230 H   0  0  0  0  0  0  0  0  0  0  0  0
   37.4310   28.1290   34.8990 H   0  0  0  0  0  0  0  0  0  0  0  0
   39.7250   27.2990   34.2560 H   0  0  0  0  0  0  0  0  0  0  0  0
   39.9830   27.0090   36.0900 H   0  0  0  0  0  0  0  0  0  0  0  0
   39.1920   22.3140   33.6930 C   0  0  0  0  0  0  0  0  0  0  0  0
   39.4970   21.4770   34.3920 H   0  0  0  0  0  0  0  0  0  0  0  0
   39.8590   22.1500   32.8130 H   0  0  0  0  0  0  0  0  0  0  0  0
   38.1350   23.9100   31.6870 F   0  0  0  0  0  0  0  0  0  0  0  0
   37.3950   22.9340   32.2780 C   0  0  0  0  0  0  0  0  0  0  0  0
   37.8430   22.0860   33.2980 C   0  0  0  0  0  0  0  0  0  0  0  0
   36.9400   21.1970   33.7640 C   0  0  0  0  0  0  0  0  0  0  0  0
   35.6690   21.0850   33.3060 C   0  0  0  0  0  0  0  0  0  0  0  0
   35.2270   21.9340   32.2860 C   0  0  0  0  0  0  0  0  0  0  0  0
   36.1190   22.8670   31.7820 C   0  0  0  0  0  0  0  0  0  0  0  0
   37.0710   20.5430   34.5720 H   0  0  0  0  0  0  0  0  0  0  0  0
   34.8890   20.3810   33.6380 H   0  0  0  0  0  0  0  0  0  0  0  0
   34.2010   21.8750   31.8830 H   0  0  0  0  0  0  0  0  0  0  0  0
   35.6050   23.6940   30.7750 O   0  0  0  0  0  0  0  0  0  0  0  0
   35.1160   24.9610   31.0190 C   0  0  0  0  0  0  0  0  0  0  0  0
   34.0700   25.0390   30.7420 H   0  0  0  0  0  0  0  0  0  0  0  0
   35.5570   26.0610   31.4800 O   0  0  0  0  0  0  0  0  0  0  0  0
  1  3  1  0  0  0  0
  1  5  1  0  0  0  0
  2  1  1  0  0  0  0
  4  9  1  0  0  0  0
  5  4  2  0  0  0  0
  5  6  1  0  0  0  0
  6  7  2  0  0  0  0
  7  8  1  0  0  0  0
  8 11  1  0  0  0  0
  9  8  2  0  0  0  0
 10  6  1  0  0  0  0
 12 14  1  0  0  0  0
 12 13  1  0  0  0  0
 12  4  1  0  0  0  0
 13 16  1  0  0  0  0
 14 13  1  0  0  0  0
 14 19  1  0  0  0  0
 15 12  1  0  0  0  0
 17 13  1  0  0  0  0
 18 14  1  0  0  0  0
 20  1  1  0  0  0  0
 20 21  1  0  0  0  0
 22 20  1  0  0  0  0
 23 24  1  0  0  0  0
 24 25  1  0  0  0  0
 25 20  1  0  0  0  0
 25 26  2  0  0  0  0
 26 30  1  0  0  0  0
 27 31  1  0  0  0  0
 27 26  1  0  0  0  0
 28 27  2  0  0  0  0
 29 24  2  0  0  0  0
 29 28  1  0  0  0  0
 32 28  1  0  0  0  0
 33 34  1  0  0  0  0
 33 29  1  0  0  0  0
 34 36  2  0  0  0  0
 35 34  1  0  0  0  0
M  END
>  <minimizedAffinity>
-4.85811234

$$$$

 OpenBabel03272508223D

 36 38  0  0  0  0  0  0  0  0999 V2000
   40.5910   24.8520   35.2220 C   0  0  0  0  0  0  0  0  0  0  0  0
   40.6680   24.9800   36.3210 H   0  0  0  0  0  0  0  0  0  0  0  0
   41.6020   24.4170   34.9480 H   0  0  0  0  0  0  0  0  0  0  0  0
   38.6790   23.4260   35.7960 C   0  0  0  0  0  0  0  0  0  0  0  0
   39.6030   23.8760   34.8930 C   0  0  0  0  0  0  0  0  0  0  0  0
   39.5270   23.2580   33.6910 C   0  0  0  0  0  0  0  0  0  0  0  0
   38.6440   22.2990   33.4010 N   0  0  0  0  0  0  0  0  0  0  0  0
   37.7530   21.8620   34.2790 C   0  0  0  0  0  0  0  0  0  0  0  0
   37.7600   22.4190   35.4880 N   0  0  0  0  0  0  0  0  0  0  0  0
   40.2030   23.5130   32.8580 H   0  0  0  0  0  0  0  0  0  0  0  0
   37.0440   21.1010   34.0740 H   0  0  0  0  0  0  0  0  0  0  0  0
   38.4980   24.1160   37.1490 C   0  0  0  0  0  0  0  0  0  0  0  0
   37.7490   23.5790   38.1830 C   0  0  0  0  0  0  0  0  0  0  0  0
   39.2180   23.1740   38.2100 C   0  0  0  0  0  0  0  0  0  0  0  0
   38.8550   25.1060   37.2580 H   0  0  0  0  0  0  0  0  0  0  0  0
   37.0360   22.7300   37.9570 H   0  0  0  0  0  0  0  0  0  0  0  0
   37.4320   24.1180   39.0700 H   0  0  0  0  0  0  0  0  0  0  0  0
   39.9130   23.7300   38.8290 H   0  0  0  0  0  0  0  0  0  0  0  0
   39.4390   22.1570   37.9260 H   0  0  0  0  0  0  0  0  0  0  0  0
   40.5060   26.1730   34.5650 C   0  0  0  0  0  0  0  0  0  0  0  0
   40.8470   26.0250   33.4960 H   0  0  0  0  0  0  0  0  0  0  0  0
   41.2660   26.8870   34.9650 H   0  0  0  0  0  0  0  0  0  0  0  0
   39.2270   26.4250   32.1180 F   0  0  0  0  0  0  0  0  0  0  0  0
   38.6640   26.8970   33.2620 C   0  0  0  0  0  0  0  0  0  0  0  0
   39.2370   26.8180   34.5370 C   0  0  0  0  0  0  0  0  0  0  0  0
   38.5200   27.3700   35.5400 C   0  0  0  0  0  0  0  0  0  0  0  0
   37.3150   27.9680   35.3800 C   0  0  0  0  0  0  0  0  0  0  0  0
   36.7470   28.0440   34.1040 C   0  0  0  0  0  0  0  0  0  0  0  0
   37.4500   27.4970   33.0440 C   0  0  0  0  0  0  0  0  0  0  0  0
   38.8250   27.4730   36.5370 H   0  0  0  0  0  0  0  0  0  0  0  0
   36.6810   28.4310   36.1540 H   0  0  0  0  0  0  0  0  0  0  0  0
   35.7670   28.5230   33.9310 H   0  0  0  0  0  0  0  0  0  0  0  0
   36.8310   27.6230   31.7940 O   0  0  0  0  0  0  0  0  0  0  0  0
   35.8740   26.7420   31.3350 C   0  0  0  0  0  0  0  0  0  0  0  0
   35.0510   27.2660   30.8620 H   0  0  0  0  0  0  0  0  0  0  0  0
   35.6940   25.4830   31.3160 O   0  0  0  0  0  0  0  0  0  0  0  0
  1  2  1  0  0  0  0
  3  1  1  0  0  0  0
  4 12  1  0  0  0  0
  5  1  1  0  0  0  0
  5  4  2  0  0  0  0
  6  5  1  0  0  0  0
  7  6  2  0  0  0  0
  7  8  1  0  0  0  0
  8  9  2  0  0  0  0
  9  4  1  0  0  0  0
 10  6  1  0  0  0  0
 11  8  1  0  0  0  0
 12 15  1  0  0  0  0
 12 13  1  0  0  0  0
 12 14  1  0  0  0  0
 13 14  1  0  0  0  0
 13 17  1  0  0  0  0
 14 18  1  0  0  0  0
 16 13  1  0  0  0  0
 19 14  1  0  0  0  0
 20 22  1  0  0  0  0
 20  1  1  0  0  0  0
 21 20  1  0  0  0  0
 23 24  1  0  0  0  0
 24 25  1  0  0  0  0
 25 20  1  0  0  0  0
 25 26  2  0  0  0  0
 26 30  1  0  0  0  0
 27 26  1  0  0  0  0
 27 31  1  0  0  0  0
 28 27  2  0  0  0  0
 29 24  2  0  0  0  0
 29 28  1  0  0  0  0
 32 28  1  0  0  0  0
 33 29  1  0  0  0  0
 34 33  1  0  0  0  0
 35 34  1  0  0  0  0
 36 34  2  0  0  0  0
M  END
>  <minimizedAffinity>
-4.83696175

$$$$

 OpenBabel03272508223D

 36 38  0  0  0  0  0  0  0  0999 V2000
   38.4060   23.8960   33.1170 C   0  0  0  0  0  0  0  0  0  0  0  0
   39.0380   24.7790   32.8950 H   0  0  0  0  0  0  0  0  0  0  0  0
   39.0780   23.0280   32.8300 H   0  0  0  0  0  0  0  0  0  0  0  0
   38.1410   24.8790   35.3490 C   0  0  0  0  0  0  0  0  0  0  0  0
   38.1500   23.7930   34.5170 C   0  0  0  0  0  0  0  0  0  0  0  0
   37.9610   22.6180   35.1630 C   0  0  0  0  0  0  0  0  0  0  0  0
   37.7850   22.5140   36.4820 N   0  0  0  0  0  0  0  0  0  0  0  0
   37.7810   23.5670   37.2870 C   0  0  0  0  0  0  0  0  0  0  0  0
   37.9600   24.7630   36.7300 N   0  0  0  0  0  0  0  0  0  0  0  0
   37.9400   21.6540   34.6300 H   0  0  0  0  0  0  0  0  0  0  0  0
   37.6450   23.5100   38.3360 H   0  0  0  0  0  0  0  0  0  0  0  0
   38.1710   26.3010   34.7880 C   0  0  0  0  0  0  0  0  0  0  0  0
   38.3640   27.4260   35.5740 C   0  0  0  0  0  0  0  0  0  0  0  0
   39.6540   26.8250   35.0280 C   0  0  0  0  0  0  0  0  0  0  0  0
   37.9070   26.4450   33.7740 H   0  0  0  0  0  0  0  0  0  0  0  0
   38.2470   27.3340   36.6960 H   0  0  0  0  0  0  0  0  0  0  0  0
   38.1930   28.4480   35.2540 H   0  0  0  0  0  0  0  0  0  0  0  0
   40.0870   27.2270   34.1190 H   0  0  0  0  0  0  0  0  0  0  0  0
   40.2750   26.3000   35.7370 H   0  0  0  0  0  0  0  0  0  0  0  0
   37.2510   23.8590   32.1970 C   0  0  0  0  0  0  0  0  0  0  0  0
   37.6040   24.3000   31.2150 H   0  0  0  0  0  0  0  0  0  0  0  0
   36.4480   24.5700   32.5070 H   0  0  0  0  0  0  0  0  0  0  0  0
   38.5430   22.1830   30.4050 F   0  0  0  0  0  0  0  0  0  0  0  0
   37.3850   21.8110   31.0100 C   0  0  0  0  0  0  0  0  0  0  0  0
   36.6630   22.5910   31.9220 C   0  0  0  0  0  0  0  0  0  0  0  0
   35.5220   22.0430   32.3930 C   0  0  0  0  0  0  0  0  0  0  0  0
   35.0610   20.8170   32.0430 C   0  0  0  0  0  0  0  0  0  0  0  0
   35.7870   20.0420   31.1330 C   0  0  0  0  0  0  0  0  0  0  0  0
   36.9610   20.5670   30.6190 C   0  0  0  0  0  0  0  0  0  0  0  0
   34.8200   22.5080   33.0150 H   0  0  0  0  0  0  0  0  0  0  0  0
   34.1460   20.3120   32.3930 H   0  0  0  0  0  0  0  0  0  0  0  0
   35.4470   19.0380   30.8220 H   0  0  0  0  0  0  0  0  0  0  0  0
   37.6270   19.7450   29.7010 O   0  0  0  0  0  0  0  0  0  0  0  0
   36.9800   18.8140   28.9160 C   0  0  0  0  0  0  0  0  0  0  0  0
   37.0440   17.8220   29.3480 H   0  0  0  0  0  0  0  0  0  0  0  0
   36.3280   18.8040   27.8240 O   0  0  0  0  0  0  0  0  0  0  0  0
  1  5  1  0  0  0  0
  2  1  1  0  0  0  0
  3  1  1  0  0  0  0
  4  9  1  0  0  0  0
  5  6  1  0  0  0  0
  5  4  2  0  0  0  0
  6  7  2  0  0  0  0
  7  8  1  0  0  0  0
  8 11  1  0  0  0  0
  9  8  2  0  0  0  0
 10  6  1  0  0  0  0
 12 14  1  0  0  0  0
 12  4  1  0  0  0  0
 12 13  1  0  0  0  0
 13 16  1  0  0  0  0
 14 13  1  0  0  0  0
 14 19  1  0  0  0  0
 15 12  1  0  0  0  0
 17 13  1  0  0  0  0
 18 14  1  0  0  0  0
 20 22  1  0  0  0  0
 20  1  1  0  0  0  0
 21 20  1  0  0  0  0
 23 24  1  0  0  0  0
 24 25  1  0  0  0  0
 25 20  1  0  0  0  0
 25 26  2  0  0  0  0
 26 30  1  0  0  0  0
 27 26  1  0  0  0  0
 27 31  1  0  0  0  0
 28 27  2  0  0  0  0
 29 24  2  0  0  0  0
 29 28  1  0  0  0  0
 32 28  1  0  0  0  0
 33 29  1  0  0  0  0
 34 35  1  0  0  0  0
 34 33  1  0  0  0  0
 36 34  2  0  0  0  0
M  END
>  <minimizedAffinity>
-4.79241228

$$$$

 OpenBabel03272508223D

 36 38  0  0  0  0  0  0  0  0999 V2000
   36.6940   28.7670   31.9760 C   0  0  0  0  0  0  0  0  0  0  0  0
   37.5280   29.0320   32.6560 H   0  0  0  0  0  0  0  0  0  0  0  0
   37.0940   29.0680   30.9580 H   0  0  0  0  0  0  0  0  0  0  0  0
   37.1710   26.4940   32.7650 C   0  0  0  0  0  0  0  0  0  0  0  0
   36.4870   27.3550   31.9520 C   0  0  0  0  0  0  0  0  0  0  0  0
   35.6530   26.7310   31.0860 C   0  0  0  0  0  0  0  0  0  0  0  0
   35.5050   25.4060   31.0190 N   0  0  0  0  0  0  0  0  0  0  0  0
   36.1720   24.5730   31.8050 C   0  0  0  0  0  0  0  0  0  0  0  0
   37.0140   25.1070   32.6880 N   0  0  0  0  0  0  0  0  0  0  0  0
   35.0310   27.2890   30.3670 H   0  0  0  0  0  0  0  0  0  0  0  0
   36.0740   23.5190   31.7700 H   0  0  0  0  0  0  0  0  0  0  0  0
   38.0300   27.0140   33.9180 C   0  0  0  0  0  0  0  0  0  0  0  0
   37.5030   27.6150   35.0500 C   0  0  0  0  0  0  0  0  0  0  0  0
   37.6630   26.1040   35.1710 C   0  0  0  0  0  0  0  0  0  0  0  0
   39.0800   27.0320   33.7920 H   0  0  0  0  0  0  0  0  0  0  0  0
   36.4280   27.9690   35.0290 H   0  0  0  0  0  0  0  0  0  0  0  0
   38.0740   28.1710   35.7850 H   0  0  0  0  0  0  0  0  0  0  0  0
   38.5510   25.6980   35.6420 H   0  0  0  0  0  0  0  0  0  0  0  0
   36.7560   25.5220   35.1330 H   0  0  0  0  0  0  0  0  0  0  0  0
   35.5280   29.6340   32.2460 C   0  0  0  0  0  0  0  0  0  0  0  0
   34.7730   28.9980   32.7990 H   0  0  0  0  0  0  0  0  0  0  0  0
   34.9820   29.9010   31.3100 H   0  0  0  0  0  0  0  0  0  0  0  0
   34.9620   29.5620   34.9590 F   0  0  0  0  0  0  0  0  0  0  0  0
   35.4370   30.6890   34.3670 C   0  0  0  0  0  0  0  0  0  0  0  0
   35.7460   30.8180   33.0070 C   0  0  0  0  0  0  0  0  0  0  0  0
   36.1860   32.0340   32.6150 C   0  0  0  0  0  0  0  0  0  0  0  0
   36.3430   33.0940   33.4440 C   0  0  0  0  0  0  0  0  0  0  0  0
   36.0340   32.9590   34.8020 C   0  0  0  0  0  0  0  0  0  0  0  0
   35.5730   31.7310   35.2470 C   0  0  0  0  0  0  0  0  0  0  0  0
   36.3870   32.3350   31.6320 H   0  0  0  0  0  0  0  0  0  0  0  0
   36.7000   34.1050   33.1910 H   0  0  0  0  0  0  0  0  0  0  0  0
   36.1490   33.7980   35.5110 H   0  0  0  0  0  0  0  0  0  0  0  0
   35.2680   31.6720   36.6130 O   0  0  0  0  0  0  0  0  0  0  0  0
   34.0200   31.9720   37.1190 C   0  0  0  0  0  0  0  0  0  0  0  0
   33.8710   33.0440   37.1870 H   0  0  0  0  0  0  0  0  0  0  0  0
   32.9980   31.3350   37.5260 O   0  0  0  0  0  0  0  0  0  0  0  0
  1 20  1  0  0  0  0
  1  2  1  0  0  0  0
  3  1  1  0  0  0  0
  4 12  1  0  0  0  0
  5  1  1  0  0  0  0
  5  4  2  0  0  0  0
  6  5  1  0  0  0  0
  7  6  2  0  0  0  0
  7  8  1  0  0  0  0
  8  9  2  0  0  0  0
  9  4  1  0  0  0  0
 10  6  1  0  0  0  0
 11  8  1  0  0  0  0
 12 13  1  0  0  0  0
 12 14  1  0  0  0  0
 13 14  1  0  0  0  0
 13 17  1  0  0  0  0
 14 18  1  0  0  0  0
 15 12  1  0  0  0  0
 16 13  1  0  0  0  0
 19 14  1  0  0  0  0
 20 21  1  0  0  0  0
 20 25  1  0  0  0  0
 22 20  1  0  0  0  0
 24 23  1  0  0  0  0
 24 29  1  0  0  0  0
 25 24  2  0  0  0  0
 26 25  1  0  0  0  0
 26 27  2  0  0  0  0
 27 28  1  0  0  0  0
 28 29  2  0  0  0  0
 28 32  1  0  0  0  0
 29 33  1  0  0  0  0
 30 26  1  0  0  0  0
 31 27  1  0  0  0  0
 33 34  1  0  0  0  0
 34 35  1  0  0  0  0
 34 36  2  0  0  0  0
M  END
>  <minimizedAffinity>
-4.78256845

$$$$
