
 OpenBabel03272510233D

 26 28  0  0  0  0  0  0  0  0999 V2000
   35.9420   30.0980   46.9260 C   0  0  0  0  0  0  0  0  0  0  0  0
   36.9130   30.6200   47.7860 C   0  0  0  0  0  0  0  0  0  0  0  0
   37.9180   31.4260   47.3020 C   0  0  0  0  0  0  0  0  0  0  0  0
   37.9180   31.6910   45.9290 C   0  0  0  0  0  0  0  0  0  0  0  0
   38.8040   32.4540   45.2280 N   0  0  0  0  0  0  0  0  0  0  0  0
   38.3960   32.4130   43.9450 C   0  0  0  0  0  0  0  0  0  0  0  0
   37.3010   31.6630   43.8120 N   0  0  0  0  0  0  0  0  0  0  0  0
   36.9770   31.1960   45.0380 C   0  0  0  0  0  0  0  0  0  0  0  0
   35.9740   30.3850   45.5580 C   0  0  0  0  0  0  0  0  0  0  0  0
   35.1260   29.4590   47.2400 H   0  0  0  0  0  0  0  0  0  0  0  0
   38.6650   31.8290   47.9540 H   0  0  0  0  0  0  0  0  0  0  0  0
   39.6320   32.9620   45.6380 H   0  0  0  0  0  0  0  0  0  0  0  0
   35.2350   29.9940   44.8710 H   0  0  0  0  0  0  0  0  0  0  0  0
   37.5490   30.1710   51.4600 C   0  0  0  0  0  0  0  0  0  0  0  0
   37.7710   30.5590   50.1410 C   0  0  0  0  0  0  0  0  0  0  0  0
   36.8000   30.2690   49.1910 C   0  0  0  0  0  0  0  0  0  0  0  0
   35.6640   29.6110   49.5910 N   0  0  0  0  0  0  0  0  0  0  0  0
   35.4810   29.2460   50.8880 C   0  0  0  0  0  0  0  0  0  0  0  0
   36.4150   29.5260   51.8040 N   0  0  0  0  0  0  0  0  0  0  0  0
   38.3680   30.4520   52.0990 H   0  0  0  0  0  0  0  0  0  0  0  0
   38.6470   31.0780   49.7810 H   0  0  0  0  0  0  0  0  0  0  0  0
   34.5950   28.7310   51.2130 H   0  0  0  0  0  0  0  0  0  0  0  0
   39.1210   33.1160   42.9630 O   0  0  0  0  0  0  0  0  0  0  0  0
   39.3960   32.5020   41.7270 C   0  0  0  0  0  0  0  0  0  0  0  0
   38.8760   33.0260   40.9290 H   0  0  0  0  0  0  0  0  0  0  0  0
   40.1560   31.4830   41.6410 O   0  0  0  0  0  0  0  0  0  0  0  0
  1 10  1  0  0  0  0
  1  2  1  0  0  0  0
  2 16  1  0  0  0  0
  3  2  2  0  0  0  0
  3 11  1  0  0  0  0
  4  3  1  0  0  0  0
  5 12  1  0  0  0  0
  5  4  1  0  0  0  0
  6  5  1  0  0  0  0
  7  6  2  0  0  0  0
  7  8  1  0  0  0  0
  8  9  1  0  0  0  0
  8  4  2  0  0  0  0
  9  1  2  0  0  0  0
 13  9  1  0  0  0  0
 14 19  1  0  0  0  0
 14 20  1  0  0  0  0
 15 14  2  0  0  0  0
 16 17  2  0  0  0  0
 16 15  1  0  0  0  0
 17 18  1  0  0  0  0
 18 22  1  0  0  0  0
 18 19  2  0  0  0  0
 21 15  1  0  0  0  0
 23  6  1  0  0  0  0
 24 23  1  0  0  0  0
 25 24  1  0  0  0  0
 26 24  2  0  0  0  0
M  END
>  <minimizedAffinity>
-4.87968206

>  <minimizedRMSD>
1.7742753

$$$$
