
 OpenBabel03272508213D

 36 38  0  0  0  0  0  0  0  0999 V2000
   34.2740   28.0840   48.7080 C   0  0  0  0  0  0  0  0  0  0  0  0
   34.9280   27.3620   49.2360 H   0  0  0  0  0  0  0  0  0  0  0  0
   34.7860   28.1990   47.7030 H   0  0  0  0  0  0  0  0  0  0  0  0
   32.7750   26.5110   47.5700 C   0  0  0  0  0  0  0  0  0  0  0  0
   32.9850   27.5200   48.4680 C   0  0  0  0  0  0  0  0  0  0  0  0
   31.8470   27.9700   49.0490 C   0  0  0  0  0  0  0  0  0  0  0  0
   30.6320   27.4860   48.7790 N   0  0  0  0  0  0  0  0  0  0  0  0
   30.4310   26.5110   47.9050 C   0  0  0  0  0  0  0  0  0  0  0  0
   31.5000   26.0110   47.2890 N   0  0  0  0  0  0  0  0  0  0  0  0
   31.8520   28.7790   49.7980 H   0  0  0  0  0  0  0  0  0  0  0  0
   29.4780   26.1110   47.6710 H   0  0  0  0  0  0  0  0  0  0  0  0
   33.9500   25.7620   46.9380 C   0  0  0  0  0  0  0  0  0  0  0  0
   33.8010   24.8340   45.9190 C   0  0  0  0  0  0  0  0  0  0  0  0
   34.0140   26.2620   45.4290 C   0  0  0  0  0  0  0  0  0  0  0  0
   34.9040   25.8610   47.3830 H   0  0  0  0  0  0  0  0  0  0  0  0
   32.7710   24.4180   45.7060 H   0  0  0  0  0  0  0  0  0  0  0  0
   34.5690   24.1440   45.5870 H   0  0  0  0  0  0  0  0  0  0  0  0
   35.0120   26.5900   45.1610 H   0  0  0  0  0  0  0  0  0  0  0  0
   33.1510   26.7600   45.0160 H   0  0  0  0  0  0  0  0  0  0  0  0
   34.3410   29.4030   49.3710 C   0  0  0  0  0  0  0  0  0  0  0  0
   33.5610   29.3930   50.1910 H   0  0  0  0  0  0  0  0  0  0  0  0
   33.9820   30.2230   48.7050 H   0  0  0  0  0  0  0  0  0  0  0  0
   36.0150   31.0440   47.8900 F   0  0  0  0  0  0  0  0  0  0  0  0
   36.3610   30.6210   49.1350 C   0  0  0  0  0  0  0  0  0  0  0  0
   35.5830   29.7900   49.9510 C   0  0  0  0  0  0  0  0  0  0  0  0
   36.1210   29.4680   51.1470 C   0  0  0  0  0  0  0  0  0  0  0  0
   37.3300   29.8990   51.5830 C   0  0  0  0  0  0  0  0  0  0  0  0
   38.1020   30.7290   50.7640 C   0  0  0  0  0  0  0  0  0  0  0  0
   37.5920   31.0800   49.5250 C   0  0  0  0  0  0  0  0  0  0  0  0
   35.7220   28.8000   51.8480 H   0  0  0  0  0  0  0  0  0  0  0  0
   37.8210   29.6780   52.5440 H   0  0  0  0  0  0  0  0  0  0  0  0
   39.0910   31.1030   51.0820 H   0  0  0  0  0  0  0  0  0  0  0  0
   38.4250   31.8990   48.7510 O   0  0  0  0  0  0  0  0  0  0  0  0
   38.5730   33.2520   48.9790 C   0  0  0  0  0  0  0  0  0  0  0  0
   37.7480   33.8140   48.5580 H   0  0  0  0  0  0  0  0  0  0  0  0
   39.4140   34.0170   49.5490 O   0  0  0  0  0  0  0  0  0  0  0  0
  1  2  1  0  0  0  0
  1 20  1  0  0  0  0
  3  1  1  0  0  0  0
  4  5  1  0  0  0  0
  5  1  1  0  0  0  0
  5  6  2  0  0  0  0
  6 10  1  0  0  0  0
  7  6  1  0  0  0  0
  8  7  2  0  0  0  0
  9  4  2  0  0  0  0
  9  8  1  0  0  0  0
 11  8  1  0  0  0  0
 12 15  1  0  0  0  0
 12  4  1  0  0  0  0
 13 12  1  0  0  0  0
 14 13  1  0  0  0  0
 14 12  1  0  0  0  0
 16 13  1  0  0  0  0
 17 13  1  0  0  0  0
 18 14  1  0  0  0  0
 19 14  1  0  0  0  0
 20 25  1  0  0  0  0
 20 21  1  0  0  0  0
 22 20  1  0  0  0  0
 23 24  1  0  0  0  0
 24 29  2  0  0  0  0
 24 25  1  0  0  0  0
 25 26  2  0  0  0  0
 26 27  1  0  0  0  0
 26 30  1  0  0  0  0
 27 31  1  0  0  0  0
 28 32  1  0  0  0  0
 28 27  2  0  0  0  0
 29 28  1  0  0  0  0
 33 34  1  0  0  0  0
 33 29  1  0  0  0  0
 34 36  2  0  0  0  0
 35 34  1  0  0  0  0
M  END
>  <minimizedAffinity>
-5.71183872

>  <minimizedRMSD>
4.43372679

$$$$
