
 OpenBabel03272505023D

 23 24  0  0  0  0  0  0  0  0999 V2000
   38.0400   30.6190   46.7840 Cl  0  0  0  0  0  0  0  0  0  0  0  0
   38.6240   32.0270   47.6600 C   0  0  0  0  0  0  0  0  0  0  0  0
   38.3090   32.1670   48.9840 C   0  0  0  0  0  0  0  0  0  0  0  0
   38.8000   33.2950   49.6080 C   0  0  0  0  0  0  0  0  0  0  0  0
   39.5670   34.2110   48.8960 C   0  0  0  0  0  0  0  0  0  0  0  0
   39.8570   34.0300   47.5760 C   0  0  0  0  0  0  0  0  0  0  0  0
   39.3750   32.9160   46.9460 C   0  0  0  0  0  0  0  0  0  0  0  0
   38.5910   33.4730   50.6590 H   0  0  0  0  0  0  0  0  0  0  0  0
   39.9200   35.0720   49.4490 H   0  0  0  0  0  0  0  0  0  0  0  0
   40.4600   34.7790   47.0740 H   0  0  0  0  0  0  0  0  0  0  0  0
   38.0350   30.4470   50.7800 C   0  0  0  0  0  0  0  0  0  0  0  0
   37.5000   31.2020   49.7360 C   0  0  0  0  0  0  0  0  0  0  0  0
   36.1570   31.0130   49.4230 C   0  0  0  0  0  0  0  0  0  0  0  0
   35.4610   30.1030   50.1600 N   0  0  0  0  0  0  0  0  0  0  0  0
   35.9980   29.3950   51.1500 C   0  0  0  0  0  0  0  0  0  0  0  0
   37.2850   29.5640   51.4640 N   0  0  0  0  0  0  0  0  0  0  0  0
   39.0990   30.6090   51.0150 H   0  0  0  0  0  0  0  0  0  0  0  0
   35.7620   31.6020   48.6190 H   0  0  0  0  0  0  0  0  0  0  0  0
   35.3950   28.6910   51.6940 H   0  0  0  0  0  0  0  0  0  0  0  0
   39.6760   32.7360   45.5920 O   0  0  0  0  0  0  0  0  0  0  0  0
   40.9900   32.3190   45.3460 C   0  0  0  0  0  0  0  0  0  0  0  0
   41.7410   32.9890   44.9810 H   0  0  0  0  0  0  0  0  0  0  0  0
   41.3300   31.1250   45.5500 O   0  0  0  0  0  0  0  0  0  0  0  0
  1  2  1  0  0  0  0
  2  3  1  0  0  0  0
  3  4  2  0  0  0  0
  3 12  1  0  0  0  0
  4  8  1  0  0  0  0
  5  9  1  0  0  0  0
  5  4  1  0  0  0  0
  6  5  2  0  0  0  0
  7  6  1  0  0  0  0
  7  2  2  0  0  0  0
 10  6  1  0  0  0  0
 11 17  1  0  0  0  0
 11 16  1  0  0  0  0
 12 11  2  0  0  0  0
 13 12  1  0  0  0  0
 13 14  2  0  0  0  0
 14 15  1  0  0  0  0
 15 16  2  0  0  0  0
 15 19  1  0  0  0  0
 18 13  1  0  0  0  0
 20  7  1  0  0  0  0
 21 23  2  0  0  0  0
 21 20  1  0  0  0  0
 22 21  1  0  0  0  0
M  END
>  <minimizedAffinity>
-5.49352789

>  <minimizedRMSD>
0.424882174

$$$$
