
 OpenBabel03272501013D

 28 29  0  0  0  0  0  0  0  0999 V2000
   37.8900   30.0860   48.0010 F   0  0  0  0  0  0  0  0  0  0  0  0
   36.9630   30.1380   47.0080 C   0  0  0  0  0  0  0  0  0  0  0  0
   37.1870   30.7480   45.7810 C   0  0  0  0  0  0  0  0  0  0  0  0
   36.1950   30.7470   44.8500 C   0  0  0  0  0  0  0  0  0  0  0  0
   34.9610   30.1650   45.0590 C   0  0  0  0  0  0  0  0  0  0  0  0
   34.7390   29.5570   46.2840 C   0  0  0  0  0  0  0  0  0  0  0  0
   35.7320   29.5400   47.2580 C   0  0  0  0  0  0  0  0  0  0  0  0
   36.3770   31.2280   43.8860 H   0  0  0  0  0  0  0  0  0  0  0  0
   34.2200   30.1940   44.2930 H   0  0  0  0  0  0  0  0  0  0  0  0
   33.7710   29.0900   46.4740 H   0  0  0  0  0  0  0  0  0  0  0  0
   39.6630   33.3160   44.9510 C   0  0  0  0  0  0  0  0  0  0  0  0
   40.8860   32.6500   45.0780 C   0  0  0  0  0  0  0  0  0  0  0  0
   40.8590   31.2980   45.4540 C   0  0  0  0  0  0  0  0  0  0  0  0
   39.6610   30.6980   45.6770 N   0  0  0  0  0  0  0  0  0  0  0  0
   38.4900   31.3670   45.5480 C   0  0  0  0  0  0  0  0  0  0  0  0
   38.4990   32.6730   45.1850 N   0  0  0  0  0  0  0  0  0  0  0  0
   39.6720   34.3690   44.6590 H   0  0  0  0  0  0  0  0  0  0  0  0
   41.8340   33.1310   44.8990 H   0  0  0  0  0  0  0  0  0  0  0  0
   41.7640   30.7090   45.5730 H   0  0  0  0  0  0  0  0  0  0  0  0
   35.4960   28.9380   48.4550 O   0  0  0  0  0  0  0  0  0  0  0  0
   33.3570   28.6670   49.8780 O   0  0  0  0  0  0  0  0  0  0  0  0
   34.6360   29.5130   49.7750 P   0  0  2  0  0  0  0  0  0  0  0  0
   34.1520   31.1020   49.6760 O   0  0  0  0  0  0  0  0  0  0  0  0
   34.8410   31.7020   50.0820 H   0  0  0  0  0  0  0  0  0  0  0  0
   35.4810   29.2320   51.2260 O   0  0  0  0  0  0  0  0  0  0  0  0
   36.7570   29.7230   51.4810 C   0  0  0  0  0  0  0  0  0  0  0  0
   37.2750   29.0530   52.1710 H   0  0  0  0  0  0  0  0  0  0  0  0
   37.1380   30.7980   50.9320 O   0  0  0  0  0  0  0  0  0  0  0  0
  2  7  1  0  0  0  0
  2  1  1  0  0  0  0
  3  2  2  0  0  0  0
  4  5  2  0  0  0  0
  4  3  1  0  0  0  0
  5  6  1  0  0  0  0
  6 10  1  0  0  0  0
  6  7  2  0  0  0  0
  7 20  1  0  0  0  0
  8  4  1  0  0  0  0
  9  5  1  0  0  0  0
 11 12  2  0  0  0  0
 11 16  1  0  0  0  0
 12 13  1  0  0  0  0
 13 19  1  0  0  0  0
 13 14  2  0  0  0  0
 15 14  1  0  0  0  0
 15  3  1  0  0  0  0
 16 15  2  0  0  0  0
 17 11  1  0  0  0  0
 18 12  1  0  0  0  0
 20 22  1  0  0  0  0
 22 21  2  1  0  0  0
 22 25  1  0  0  0  0
 23 22  1  0  0  0  0
 23 24  1  0  0  0  0
 25 26  1  0  0  0  0
 26 27  1  0  0  0  0
 28 26  2  0  0  0  0
M  END
>  <minimizedAffinity>
-4.70006418

>  <minimizedRMSD>
1.55832767

$$$$
