
 OpenBabel03272506363D

 28 29  0  0  1  0  0  0  0  0999 V2000
   37.3280   30.1440   48.3280 O   0  0  0  0  0  0  0  0  0  0  0  0
   35.4820   28.6500   50.0230 O   0  0  0  0  0  0  0  0  0  0  0  0
   35.2440   29.0530   48.8670 C   0  0  0  0  0  0  0  0  0  0  0  0
   35.9100   30.2260   48.2870 C   0  0  2  0  0  0  0  0  0  0  0  0
   35.4500   30.1570   46.8230 C   0  0  0  0  0  0  0  0  0  0  0  0
   34.1310   29.4510   46.9160 C   0  0  0  0  0  0  0  0  0  0  0  0
   34.3110   28.4480   47.9600 N   0  0  0  0  0  0  0  0  0  0  0  0
   35.5540   31.1750   48.7340 H   0  0  0  0  0  0  0  0  0  0  0  0
   36.1580   29.6280   46.1830 H   0  0  0  0  0  0  0  0  0  0  0  0
   35.2760   31.2110   46.4950 H   0  0  0  0  0  0  0  0  0  0  0  0
   33.8450   28.9600   45.9550 H   0  0  0  0  0  0  0  0  0  0  0  0
   33.3370   30.1430   47.2810 H   0  0  0  0  0  0  0  0  0  0  0  0
   33.7520   27.1340   48.1530 C   0  0  0  0  0  0  0  0  0  0  0  0
   34.5010   26.3450   48.1900 H   0  0  0  0  0  0  0  0  0  0  0  0
   32.5110   26.9640   48.2640 O   0  0  0  0  0  0  0  0  0  0  0  0
   38.0580   31.3080   48.1890 C   0  0  0  0  0  0  0  0  0  0  0  0
   38.2110   32.0160   49.3870 C   0  0  0  0  0  0  0  0  0  0  0  0
   38.9330   33.2100   49.3660 C   0  0  0  0  0  0  0  0  0  0  0  0
   39.4510   33.6240   48.1750 N   0  0  0  0  0  0  0  0  0  0  0  0
   39.2900   32.9240   47.0300 C   0  0  0  0  0  0  0  0  0  0  0  0
   38.6040   31.7930   47.0640 N   0  0  0  0  0  0  0  0  0  0  0  0
   40.7840   32.4650   45.2470 C   0  0  0  0  0  0  0  0  0  0  0  0
   41.1380   31.3310   45.6900 O   0  0  0  0  0  0  0  0  0  0  0  0
   39.8510   33.4000   45.8120 N   0  0  0  0  0  0  0  0  0  0  0  0
   37.8190   31.7280   50.3540 H   0  0  0  0  0  0  0  0  0  0  0  0
   39.0670   33.7770   50.2800 H   0  0  0  0  0  0  0  0  0  0  0  0
   41.3390   32.6000   44.3280 H   0  0  0  0  0  0  0  0  0  0  0  0
   39.6990   34.2790   45.2910 H   0  0  0  0  0  0  0  0  0  0  0  0
  3  2  2  0  0  0  0
  4  1  1  0  0  0  0
  4  8  1  1  0  0  0
  4  3  1  0  0  0  0
  5  6  1  0  0  0  0
  5  4  1  0  0  0  0
  6 12  1  0  0  0  0
  6  7  1  0  0  0  0
  7 13  1  0  0  0  0
  7  3  1  0  0  0  0
  9  5  1  0  0  0  0
 10  5  1  0  0  0  0
 11  6  1  0  0  0  0
 13 14  1  0  0  0  0
 13 15  2  0  0  0  0
 16  1  1  0  0  0  0
 16 17  1  0  0  0  0
 17 25  1  0  0  0  0
 18 17  2  0  0  0  0
 18 26  1  0  0  0  0
 19 18  1  0  0  0  0
 20 21  1  0  0  0  0
 20 19  2  0  0  0  0
 21 16  2  0  0  0  0
 22 23  2  0  0  0  0
 22 24  1  0  0  0  0
 24 20  1  0  0  0  0
 27 22  1  0  0  0  0
 28 24  1  0  0  0  0
M  END
>  <minimizedAffinity>
-5.57597828

>  <minimizedRMSD>
1.20070612

$$$$
