
     RDKit          3D

 13 13  0  0  0  0  0  0  0  0999 V2000
   37.3219   30.2289   51.4286 C   0  0  0  0  0  0  0  0  0  0  0  0
   38.0731   30.7325   50.3423 C   0  0  0  0  0  0  0  0  0  0  0  0
   37.7019   30.3757   49.0404 C   0  0  0  0  0  0  0  0  0  0  0  0
   36.6173   29.5479   48.8917 N   0  0  0  0  0  0  0  0  0  0  0  0
   35.9224   29.0863   49.9684 C   0  0  0  0  0  0  0  0  0  0  0  0
   36.2823   29.4313   51.2161 N   0  0  0  0  0  0  0  0  0  0  0  0
   34.8732   28.2724   49.6014 O   0  0  0  0  0  0  0  0  0  0  0  0
   37.6453   30.5311   52.4168 H   0  0  0  0  0  0  0  0  0  0  0  0
   38.9324   31.3865   50.4282 H   0  0  0  0  0  0  0  0  0  0  0  0
   38.2515   30.7420   48.2097 H   0  0  0  0  0  0  0  0  0  0  0  0
   33.6224   28.8139   49.3597 C   0  0  0  0  0  0  0  0  0  0  0  0
   33.0622   28.2362   48.6182 H   0  0  0  0  0  0  0  0  0  0  0  0
   33.8978   29.7251   50.2086 O   0  0  0  0  0  0  0  0  0  0  0  0
  2  1  2  0
  3  2  1  0
  4  3  2  0
  4  5  1  0
  5  6  2  0
  6  1  1  0
  7  5  1  0
  1  8  1  0
  2  9  1  0
  3 10  1  0
 11 12  1  0
 11 13  2  0
  7 11  1  0
M  ISO  4   8  14   9  14  10  14  12   6
M  END
>  <DihAtoms>  (1) 
4,6,10,11

>  <DihDeg>  (1) 
179.99918049613257

$$$$
