
 OpenBabel03272507323D

 30 32  0  0  1  0  0  0  0  0999 V2000
   35.8260   29.1390   49.8060 C   0  0  0  0  0  0  0  0  0  0  0  0
   34.8080   29.6450   50.5740 C   0  0  0  0  0  0  0  0  0  0  0  0
   33.6070   29.1030   50.0880 C   0  0  0  0  0  0  0  0  0  0  0  0
   33.9890   28.2890   49.0380 C   0  0  0  0  0  0  0  0  0  0  0  0
   35.2930   28.3410   48.9100 O   0  0  0  0  0  0  0  0  0  0  0  0
   34.8570   30.3370   51.4120 H   0  0  0  0  0  0  0  0  0  0  0  0
   32.6040   29.2800   50.4500 H   0  0  0  0  0  0  0  0  0  0  0  0
   37.2200   29.4910   50.0340 C   0  0  0  0  0  0  0  0  0  0  0  0
   37.8660   28.8830   50.9080 O   0  0  0  0  0  0  0  0  0  0  0  0
   37.7680   30.5370   49.2170 C   0  0  0  0  0  0  0  0  0  0  0  0
   38.1080   31.7220   49.8520 C   0  0  0  0  0  0  0  0  0  0  0  0
   38.6430   32.7580   49.0840 C   0  0  0  0  0  0  0  0  0  0  0  0
   38.8040   32.5470   47.7320 N   0  0  0  0  0  0  0  0  0  0  0  0
   38.4640   31.3940   47.1560 C   0  0  0  0  0  0  0  0  0  0  0  0
   37.9470   30.3850   47.8860 N   0  0  0  0  0  0  0  0  0  0  0  0
   37.9800   31.8790   50.9140 H   0  0  0  0  0  0  0  0  0  0  0  0
   38.9190   33.6940   49.5530 H   0  0  0  0  0  0  0  0  0  0  0  0
   38.5950   31.2380   46.0890 H   0  0  0  0  0  0  0  0  0  0  0  0
   33.0790   27.4970   48.2110 C   0  0  0  0  0  0  0  0  0  0  0  0
   31.8540   27.4160   48.5520 O   0  0  0  0  0  0  0  0  0  0  0  0
   33.5900   26.7920   46.9890 C   0  0  1  0  0  0  0  0  0  0  0  0
   33.8160   25.2640   47.3070 C   0  0  0  0  0  0  0  0  0  0  0  0
   32.8030   25.7490   46.3340 C   0  0  2  0  0  0  0  0  0  0  0  0
   34.5780   27.1890   46.6250 H   0  0  0  0  0  0  0  0  0  0  0  0
   34.7110   24.7950   46.9020 H   0  0  0  0  0  0  0  0  0  0  0  0
   33.3790   24.8870   48.2500 H   0  0  0  0  0  0  0  0  0  0  0  0
   31.7070   25.7650   46.5770 H   0  0  0  0  0  0  0  0  0  0  0  0
   33.0620   25.4340   44.9020 C   0  0  0  0  0  0  0  0  0  0  0  0
   34.0630   25.4150   44.4350 H   0  0  0  0  0  0  0  0  0  0  0  0
   32.1410   25.1680   44.1160 O   0  0  0  0  0  0  0  0  0  0  0  0
  1  8  1  0  0  0  0
  1  2  2  0  0  0  0
  2  6  1  0  0  0  0
  3  7  1  0  0  0  0
  3  2  1  0  0  0  0
  4  3  2  0  0  0  0
  5  4  1  0  0  0  0
  5  1  1  0  0  0  0
  8  9  2  0  0  0  0
 10 11  1  0  0  0  0
 10  8  1  0  0  0  0
 11 16  1  0  0  0  0
 12 17  1  0  0  0  0
 12 11  2  0  0  0  0
 13 12  1  0  0  0  0
 14 13  2  0  0  0  0
 14 15  1  0  0  0  0
 15 10  2  0  0  0  0
 18 14  1  0  0  0  0
 19 20  2  0  0  0  0
 19  4  1  0  0  0  0
 21 24  1  6  0  0  0
 21 22  1  0  0  0  0
 21 19  1  0  0  0  0
 22 26  1  0  0  0  0
 23 27  1  1  0  0  0
 23 21  1  0  0  0  0
 23 22  1  0  0  0  0
 25 22  1  0  0  0  0
 28 23  1  0  0  0  0
 29 28  1  0  0  0  0
 30 28  2  0  0  0  0
M  END
>  <minimizedAffinity>
-4.75087309

>  <minimizedRMSD>
0.0298946425

$$$$
