
 OpenBabel03272507323D

 30 32  0  0  1  0  0  0  0  0999 V2000
   35.8240   29.1350   49.8050 C   0  0  0  0  0  0  0  0  0  0  0  0
   34.8030   29.6410   50.5690 C   0  0  0  0  0  0  0  0  0  0  0  0
   33.6040   29.0980   50.0810 C   0  0  0  0  0  0  0  0  0  0  0  0
   33.9890   28.2820   49.0340 C   0  0  0  0  0  0  0  0  0  0  0  0
   35.2940   28.3350   48.9090 O   0  0  0  0  0  0  0  0  0  0  0  0
   34.8490   30.3350   51.4060 H   0  0  0  0  0  0  0  0  0  0  0  0
   32.6000   29.2750   50.4400 H   0  0  0  0  0  0  0  0  0  0  0  0
   37.2170   29.4880   50.0360 C   0  0  0  0  0  0  0  0  0  0  0  0
   37.8610   28.8810   50.9120 O   0  0  0  0  0  0  0  0  0  0  0  0
   37.7650   30.5340   49.2190 C   0  0  0  0  0  0  0  0  0  0  0  0
   38.1070   31.7180   49.8560 C   0  0  0  0  0  0  0  0  0  0  0  0
   38.6420   32.7540   49.0890 C   0  0  0  0  0  0  0  0  0  0  0  0
   38.8030   32.5440   47.7360 N   0  0  0  0  0  0  0  0  0  0  0  0
   38.4630   31.3920   47.1600 C   0  0  0  0  0  0  0  0  0  0  0  0
   37.9440   30.3830   47.8890 N   0  0  0  0  0  0  0  0  0  0  0  0
   37.9780   31.8750   50.9180 H   0  0  0  0  0  0  0  0  0  0  0  0
   38.9190   33.6900   49.5580 H   0  0  0  0  0  0  0  0  0  0  0  0
   38.5940   31.2370   46.0920 H   0  0  0  0  0  0  0  0  0  0  0  0
   33.0820   27.4880   48.2060 C   0  0  0  0  0  0  0  0  0  0  0  0
   31.8550   27.4100   48.5430 O   0  0  0  0  0  0  0  0  0  0  0  0
   33.5970   26.7780   46.9880 C   0  0  1  0  0  0  0  0  0  0  0  0
   33.8150   25.2500   47.3120 C   0  0  0  0  0  0  0  0  0  0  0  0
   32.8100   25.7360   46.3320 C   0  0  2  0  0  0  0  0  0  0  0  0
   34.5880   27.1710   46.6290 H   0  0  0  0  0  0  0  0  0  0  0  0
   34.7110   24.7760   46.9130 H   0  0  0  0  0  0  0  0  0  0  0  0
   33.3720   24.8770   48.2530 H   0  0  0  0  0  0  0  0  0  0  0  0
   31.7120   25.7560   46.5690 H   0  0  0  0  0  0  0  0  0  0  0  0
   33.0760   25.4170   44.9020 C   0  0  0  0  0  0  0  0  0  0  0  0
   32.9250   26.1210   44.0650 H   0  0  0  0  0  0  0  0  0  0  0  0
   33.4960   24.3060   44.5500 O   0  0  0  0  0  0  0  0  0  0  0  0
  1  8  1  0  0  0  0
  1  2  2  0  0  0  0
  2  6  1  0  0  0  0
  3  7  1  0  0  0  0
  3  2  1  0  0  0  0
  4  3  2  0  0  0  0
  5  4  1  0  0  0  0
  5  1  1  0  0  0  0
  8  9  2  0  0  0  0
 10 11  1  0  0  0  0
 10  8  1  0  0  0  0
 11 16  1  0  0  0  0
 12 17  1  0  0  0  0
 12 11  2  0  0  0  0
 13 12  1  0  0  0  0
 14 13  2  0  0  0  0
 14 15  1  0  0  0  0
 15 10  2  0  0  0  0
 18 14  1  0  0  0  0
 19 20  2  0  0  0  0
 19  4  1  0  0  0  0
 21 24  1  6  0  0  0
 21 22  1  0  0  0  0
 21 19  1  0  0  0  0
 22 26  1  0  0  0  0
 23 27  1  1  0  0  0
 23 21  1  0  0  0  0
 23 22  1  0  0  0  0
 25 22  1  0  0  0  0
 28 23  1  0  0  0  0
 29 28  1  0  0  0  0
 30 28  2  0  0  0  0
M  END
>  <minimizedAffinity>
-4.75054646

>  <minimizedRMSD>
0.0322100483

$$$$
