
 OpenBabel03272507323D

 30 32  0  0  1  0  0  0  0  0999 V2000
   35.8250   29.1370   49.8050 C   0  0  0  0  0  0  0  0  0  0  0  0
   34.8070   29.6430   50.5730 C   0  0  0  0  0  0  0  0  0  0  0  0
   33.6060   29.1010   50.0860 C   0  0  0  0  0  0  0  0  0  0  0  0
   33.9880   28.2860   49.0370 C   0  0  0  0  0  0  0  0  0  0  0  0
   35.2920   28.3390   48.9090 O   0  0  0  0  0  0  0  0  0  0  0  0
   34.8550   30.3350   51.4100 H   0  0  0  0  0  0  0  0  0  0  0  0
   32.6030   29.2780   50.4480 H   0  0  0  0  0  0  0  0  0  0  0  0
   37.2190   29.4880   50.0330 C   0  0  0  0  0  0  0  0  0  0  0  0
   37.8640   28.8800   50.9070 O   0  0  0  0  0  0  0  0  0  0  0  0
   37.7660   30.5350   49.2170 C   0  0  0  0  0  0  0  0  0  0  0  0
   38.1070   31.7200   49.8530 C   0  0  0  0  0  0  0  0  0  0  0  0
   38.6410   32.7560   49.0860 C   0  0  0  0  0  0  0  0  0  0  0  0
   38.8020   32.5460   47.7330 N   0  0  0  0  0  0  0  0  0  0  0  0
   38.4630   31.3930   47.1570 C   0  0  0  0  0  0  0  0  0  0  0  0
   37.9450   30.3840   47.8860 N   0  0  0  0  0  0  0  0  0  0  0  0
   37.9780   31.8760   50.9150 H   0  0  0  0  0  0  0  0  0  0  0  0
   38.9170   33.6920   49.5550 H   0  0  0  0  0  0  0  0  0  0  0  0
   38.5940   31.2380   46.0900 H   0  0  0  0  0  0  0  0  0  0  0  0
   33.0780   27.4940   48.2100 C   0  0  0  0  0  0  0  0  0  0  0  0
   31.8530   27.4130   48.5520 O   0  0  0  0  0  0  0  0  0  0  0  0
   33.5890   26.7900   46.9880 C   0  0  1  0  0  0  0  0  0  0  0  0
   33.8170   25.2620   47.3070 C   0  0  0  0  0  0  0  0  0  0  0  0
   32.8030   25.7440   46.3350 C   0  0  2  0  0  0  0  0  0  0  0  0
   34.5750   27.1880   46.6230 H   0  0  0  0  0  0  0  0  0  0  0  0
   34.7130   24.7930   46.9010 H   0  0  0  0  0  0  0  0  0  0  0  0
   33.3820   24.8850   48.2500 H   0  0  0  0  0  0  0  0  0  0  0  0
   31.7070   25.7590   46.5790 H   0  0  0  0  0  0  0  0  0  0  0  0
   33.0610   25.4300   44.9020 C   0  0  0  0  0  0  0  0  0  0  0  0
   33.9640   24.9150   44.5260 H   0  0  0  0  0  0  0  0  0  0  0  0
   32.2550   25.7350   44.0120 O   0  0  0  0  0  0  0  0  0  0  0  0
  1  8  1  0  0  0  0
  1  2  2  0  0  0  0
  2  6  1  0  0  0  0
  3  7  1  0  0  0  0
  3  2  1  0  0  0  0
  4  3  2  0  0  0  0
  5  4  1  0  0  0  0
  5  1  1  0  0  0  0
  8  9  2  0  0  0  0
 10 11  1  0  0  0  0
 10  8  1  0  0  0  0
 11 16  1  0  0  0  0
 12 17  1  0  0  0  0
 12 11  2  0  0  0  0
 13 12  1  0  0  0  0
 14 13  2  0  0  0  0
 14 15  1  0  0  0  0
 15 10  2  0  0  0  0
 18 14  1  0  0  0  0
 19 20  2  0  0  0  0
 19  4  1  0  0  0  0
 21 24  1  6  0  0  0
 21 22  1  0  0  0  0
 21 19  1  0  0  0  0
 22 26  1  0  0  0  0
 23 27  1  1  0  0  0
 23 21  1  0  0  0  0
 23 22  1  0  0  0  0
 25 22  1  0  0  0  0
 28 23  1  0  0  0  0
 29 28  1  0  0  0  0
 30 28  2  0  0  0  0
M  END
>  <minimizedAffinity>
-4.75031328

>  <minimizedRMSD>
0.0243092626

$$$$
