
 OpenBabel03272507323D

 30 32  0  0  1  0  0  0  0  0999 V2000
   35.8250   29.1350   49.8050 C   0  0  0  0  0  0  0  0  0  0  0  0
   34.8050   29.6410   50.5700 C   0  0  0  0  0  0  0  0  0  0  0  0
   33.6050   29.0980   50.0820 C   0  0  0  0  0  0  0  0  0  0  0  0
   33.9900   28.2820   49.0340 C   0  0  0  0  0  0  0  0  0  0  0  0
   35.2940   28.3360   48.9090 O   0  0  0  0  0  0  0  0  0  0  0  0
   34.8510   30.3340   51.4070 H   0  0  0  0  0  0  0  0  0  0  0  0
   32.6010   29.2740   50.4410 H   0  0  0  0  0  0  0  0  0  0  0  0
   37.2180   29.4880   50.0350 C   0  0  0  0  0  0  0  0  0  0  0  0
   37.8620   28.8810   50.9110 O   0  0  0  0  0  0  0  0  0  0  0  0
   37.7660   30.5350   49.2190 C   0  0  0  0  0  0  0  0  0  0  0  0
   38.1070   31.7190   49.8550 C   0  0  0  0  0  0  0  0  0  0  0  0
   38.6420   32.7550   49.0880 C   0  0  0  0  0  0  0  0  0  0  0  0
   38.8030   32.5450   47.7360 N   0  0  0  0  0  0  0  0  0  0  0  0
   38.4630   31.3930   47.1590 C   0  0  0  0  0  0  0  0  0  0  0  0
   37.9450   30.3840   47.8880 N   0  0  0  0  0  0  0  0  0  0  0  0
   37.9790   31.8750   50.9180 H   0  0  0  0  0  0  0  0  0  0  0  0
   38.9190   33.6900   49.5580 H   0  0  0  0  0  0  0  0  0  0  0  0
   38.5940   31.2380   46.0920 H   0  0  0  0  0  0  0  0  0  0  0  0
   33.0820   27.4890   48.2060 C   0  0  0  0  0  0  0  0  0  0  0  0
   31.8560   27.4090   48.5440 O   0  0  0  0  0  0  0  0  0  0  0  0
   33.5970   26.7810   46.9870 C   0  0  1  0  0  0  0  0  0  0  0  0
   33.8160   25.2520   47.3080 C   0  0  0  0  0  0  0  0  0  0  0  0
   32.8100   25.7390   46.3300 C   0  0  2  0  0  0  0  0  0  0  0  0
   34.5870   27.1750   46.6270 H   0  0  0  0  0  0  0  0  0  0  0  0
   34.7120   24.7790   46.9070 H   0  0  0  0  0  0  0  0  0  0  0  0
   33.3740   24.8780   48.2490 H   0  0  0  0  0  0  0  0  0  0  0  0
   31.7120   25.7590   46.5680 H   0  0  0  0  0  0  0  0  0  0  0  0
   33.0740   25.4230   44.8990 C   0  0  0  0  0  0  0  0  0  0  0  0
   33.1580   26.1760   44.0950 H   0  0  0  0  0  0  0  0  0  0  0  0
   33.2230   24.2570   44.5060 O   0  0  0  0  0  0  0  0  0  0  0  0
  1  8  1  0  0  0  0
  1  2  2  0  0  0  0
  2  6  1  0  0  0  0
  3  7  1  0  0  0  0
  3  2  1  0  0  0  0
  4  3  2  0  0  0  0
  5  4  1  0  0  0  0
  5  1  1  0  0  0  0
  8  9  2  0  0  0  0
 10 11  1  0  0  0  0
 10  8  1  0  0  0  0
 11 16  1  0  0  0  0
 12 17  1  0  0  0  0
 12 11  2  0  0  0  0
 13 12  1  0  0  0  0
 14 13  2  0  0  0  0
 14 15  1  0  0  0  0
 15 10  2  0  0  0  0
 18 14  1  0  0  0  0
 19 20  2  0  0  0  0
 19  4  1  0  0  0  0
 21 24  1  6  0  0  0
 21 22  1  0  0  0  0
 21 19  1  0  0  0  0
 22 26  1  0  0  0  0
 23 27  1  1  0  0  0
 23 21  1  0  0  0  0
 23 22  1  0  0  0  0
 25 22  1  0  0  0  0
 28 23  1  0  0  0  0
 29 28  1  0  0  0  0
 30 28  2  0  0  0  0
M  END
>  <minimizedAffinity>
-4.74888229

>  <minimizedRMSD>
0.030582102

$$$$
