
 OpenBabel03272507323D

 30 32  0  0  1  0  0  0  0  0999 V2000
   35.8240   29.1390   49.8060 C   0  0  0  0  0  0  0  0  0  0  0  0
   34.8080   29.6460   50.5750 C   0  0  0  0  0  0  0  0  0  0  0  0
   33.6050   29.1050   50.0900 C   0  0  0  0  0  0  0  0  0  0  0  0
   33.9850   28.2900   49.0400 C   0  0  0  0  0  0  0  0  0  0  0  0
   35.2890   28.3410   48.9110 O   0  0  0  0  0  0  0  0  0  0  0  0
   34.8580   30.3380   51.4130 H   0  0  0  0  0  0  0  0  0  0  0  0
   32.6030   29.2840   50.4530 H   0  0  0  0  0  0  0  0  0  0  0  0
   37.2190   29.4880   50.0320 C   0  0  0  0  0  0  0  0  0  0  0  0
   37.8650   28.8780   50.9050 O   0  0  0  0  0  0  0  0  0  0  0  0
   37.7660   30.5350   49.2160 C   0  0  0  0  0  0  0  0  0  0  0  0
   38.1080   31.7190   49.8520 C   0  0  0  0  0  0  0  0  0  0  0  0
   38.6420   32.7550   49.0850 C   0  0  0  0  0  0  0  0  0  0  0  0
   38.8030   32.5450   47.7320 N   0  0  0  0  0  0  0  0  0  0  0  0
   38.4630   31.3930   47.1560 C   0  0  0  0  0  0  0  0  0  0  0  0
   37.9450   30.3840   47.8850 N   0  0  0  0  0  0  0  0  0  0  0  0
   37.9790   31.8750   50.9150 H   0  0  0  0  0  0  0  0  0  0  0  0
   38.9190   33.6910   49.5540 H   0  0  0  0  0  0  0  0  0  0  0  0
   38.5930   31.2380   46.0890 H   0  0  0  0  0  0  0  0  0  0  0  0
   33.0730   27.5000   48.2150 C   0  0  0  0  0  0  0  0  0  0  0  0
   31.8490   27.4180   48.5590 O   0  0  0  0  0  0  0  0  0  0  0  0
   33.5810   26.7970   46.9900 C   0  0  1  0  0  0  0  0  0  0  0  0
   33.8140   25.2700   47.3070 C   0  0  0  0  0  0  0  0  0  0  0  0
   32.7950   25.7500   46.3390 C   0  0  2  0  0  0  0  0  0  0  0  0
   34.5660   27.1980   46.6210 H   0  0  0  0  0  0  0  0  0  0  0  0
   34.7090   24.8030   46.8980 H   0  0  0  0  0  0  0  0  0  0  0  0
   33.3830   24.8910   48.2520 H   0  0  0  0  0  0  0  0  0  0  0  0
   31.7000   25.7620   46.5870 H   0  0  0  0  0  0  0  0  0  0  0  0
   33.0480   25.4370   44.9050 C   0  0  0  0  0  0  0  0  0  0  0  0
   34.0300   25.1440   44.4920 H   0  0  0  0  0  0  0  0  0  0  0  0
   32.1450   25.4880   44.0580 O   0  0  0  0  0  0  0  0  0  0  0  0
  1  8  1  0  0  0  0
  1  2  2  0  0  0  0
  2  6  1  0  0  0  0
  3  7  1  0  0  0  0
  3  2  1  0  0  0  0
  4  3  2  0  0  0  0
  5  4  1  0  0  0  0
  5  1  1  0  0  0  0
  8  9  2  0  0  0  0
 10 11  1  0  0  0  0
 10  8  1  0  0  0  0
 11 16  1  0  0  0  0
 12 17  1  0  0  0  0
 12 11  2  0  0  0  0
 13 12  1  0  0  0  0
 14 13  2  0  0  0  0
 14 15  1  0  0  0  0
 15 10  2  0  0  0  0
 18 14  1  0  0  0  0
 19 20  2  0  0  0  0
 19  4  1  0  0  0  0
 21 24  1  6  0  0  0
 21 22  1  0  0  0  0
 21 19  1  0  0  0  0
 22 26  1  0  0  0  0
 23 27  1  1  0  0  0
 23 21  1  0  0  0  0
 23 22  1  0  0  0  0
 25 22  1  0  0  0  0
 28 23  1  0  0  0  0
 29 28  1  0  0  0  0
 30 28  2  0  0  0  0
M  END
>  <minimizedAffinity>
-4.75293446

>  <minimizedRMSD>
0.018060768

$$$$
