
 OpenBabel03272507323D

 30 32  0  0  1  0  0  0  0  0999 V2000
   35.8430   29.1440   49.8100 C   0  0  0  0  0  0  0  0  0  0  0  0
   34.8130   29.6360   50.5700 C   0  0  0  0  0  0  0  0  0  0  0  0
   33.6220   29.0800   50.0730 C   0  0  0  0  0  0  0  0  0  0  0  0
   34.0230   28.2720   49.0260 C   0  0  0  0  0  0  0  0  0  0  0  0
   35.3270   28.3400   48.9080 O   0  0  0  0  0  0  0  0  0  0  0  0
   34.8460   30.3270   51.4090 H   0  0  0  0  0  0  0  0  0  0  0  0
   32.6150   29.2440   50.4280 H   0  0  0  0  0  0  0  0  0  0  0  0
   37.2310   29.5120   50.0490 C   0  0  0  0  0  0  0  0  0  0  0  0
   37.8720   28.9210   50.9380 O   0  0  0  0  0  0  0  0  0  0  0  0
   37.7770   30.5540   49.2260 C   0  0  0  0  0  0  0  0  0  0  0  0
   38.1140   31.7440   49.8540 C   0  0  0  0  0  0  0  0  0  0  0  0
   38.6480   32.7750   49.0790 C   0  0  0  0  0  0  0  0  0  0  0  0
   38.8120   32.5550   47.7290 N   0  0  0  0  0  0  0  0  0  0  0  0
   38.4760   31.3980   47.1610 C   0  0  0  0  0  0  0  0  0  0  0  0
   37.9590   30.3930   47.8970 N   0  0  0  0  0  0  0  0  0  0  0  0
   37.9830   31.9080   50.9150 H   0  0  0  0  0  0  0  0  0  0  0  0
   38.9210   33.7150   49.5420 H   0  0  0  0  0  0  0  0  0  0  0  0
   38.6090   31.2350   46.0950 H   0  0  0  0  0  0  0  0  0  0  0  0
   33.1290   27.4700   48.1910 C   0  0  0  0  0  0  0  0  0  0  0  0
   31.8930   27.4160   48.4930 O   0  0  0  0  0  0  0  0  0  0  0  0
   33.6700   26.7250   47.0060 C   0  0  1  0  0  0  0  0  0  0  0  0
   33.7900   25.1900   47.3480 C   0  0  0  0  0  0  0  0  0  0  0  0
   32.8650   25.7200   46.3140 C   0  0  2  0  0  0  0  0  0  0  0  0
   34.6980   27.0620   46.6980 H   0  0  0  0  0  0  0  0  0  0  0  0
   34.6800   24.6670   47.0000 H   0  0  0  0  0  0  0  0  0  0  0  0
   33.2790   24.8480   48.2660 H   0  0  0  0  0  0  0  0  0  0  0  0
   31.7590   25.7990   46.4920 H   0  0  0  0  0  0  0  0  0  0  0  0
   33.1890   25.3760   44.9010 C   0  0  0  0  0  0  0  0  0  0  0  0
   32.4380   25.2200   44.1070 H   0  0  0  0  0  0  0  0  0  0  0  0
   34.3590   25.2420   44.5150 O   0  0  0  0  0  0  0  0  0  0  0  0
  1  8  1  0  0  0  0
  1  2  2  0  0  0  0
  2  6  1  0  0  0  0
  3  7  1  0  0  0  0
  3  2  1  0  0  0  0
  4  3  2  0  0  0  0
  5  4  1  0  0  0  0
  5  1  1  0  0  0  0
  8  9  2  0  0  0  0
 10 11  1  0  0  0  0
 10  8  1  0  0  0  0
 11 16  1  0  0  0  0
 12 17  1  0  0  0  0
 12 11  2  0  0  0  0
 13 12  1  0  0  0  0
 14 13  2  0  0  0  0
 14 15  1  0  0  0  0
 15 10  2  0  0  0  0
 18 14  1  0  0  0  0
 19 20  2  0  0  0  0
 19  4  1  0  0  0  0
 21 24  1  6  0  0  0
 21 22  1  0  0  0  0
 21 19  1  0  0  0  0
 22 26  1  0  0  0  0
 23 27  1  1  0  0  0
 23 21  1  0  0  0  0
 23 22  1  0  0  0  0
 25 22  1  0  0  0  0
 28 23  1  0  0  0  0
 29 28  1  0  0  0  0
 30 28  2  0  0  0  0
M  END
>  <minimizedAffinity>
-4.77866125

>  <minimizedRMSD>
0.0911196321

$$$$
