REMARK  Name = 
REMARK  2 active torsions:
REMARK  status: ('A' for Active; 'I' for Inactive)
REMARK    1  A    between atoms: C_3  and  C_13
REMARK    2  A    between atoms: C_8  and  C_20
REMARK                            x       y       z     vdW  Elec       q    Type
REMARK                         _______ _______ _______ _____ _____    ______ ____
ROOT
ATOM      1 CL   UNL     1      37.224  29.097  50.563  0.00  0.00    +0.000 Cl
ATOM      2  C   UNL     1      35.957  29.183  49.390  0.00  0.00    +0.000 A 
ATOM      3  C   UNL     1      35.940  30.221  48.478  0.00  0.00    +0.000 A 
ATOM      4  C   UNL     1      34.956  30.329  47.532  0.00  0.00    +0.000 A 
ATOM      5  C   UNL     1      33.936  29.395  47.455  0.00  0.00    +0.000 A 
ATOM      6  C   UNL     1      33.922  28.338  48.358  0.00  0.00    +0.000 A 
ATOM      7 CL   UNL     1      32.701  27.082  48.386  0.00  0.00    +0.000 Cl
ATOM      8  C   UNL     1      34.944  28.269  49.303  0.00  0.00    +0.000 A 
ATOM      9  H   UNL     1      34.978  31.148  46.842  0.00  0.00    +0.000 HD
ATOM     10  H   UNL     1      33.135  29.436  46.726  0.00  0.00    +0.000 HD
ENDROOT
BRANCH   3  15
ATOM     11  C   UNL     1      37.970  33.097  49.508  0.00  0.00    +0.000 A 
ATOM     12  C   UNL     1      39.010  33.113  48.556  0.00  0.00    +0.000 A 
ATOM     13  C   UNL     1      38.978  32.114  47.571  0.00  0.00    +0.000 A 
ATOM     14  N   UNL     1      37.970  31.210  47.591  0.00  0.00    +0.000 NA
ATOM     15  C   UNL     1      36.992  31.227  48.520  0.00  0.00    +0.000 A 
ATOM     16  N   UNL     1      37.004  32.175  49.472  0.00  0.00    +0.000 NA
ATOM     17  H   UNL     1      37.934  33.840  50.296  0.00  0.00    +0.000 HD
ATOM     18  H   UNL     1      39.784  33.856  48.590  0.00  0.00    +0.000 HD
ATOM     19  H   UNL     1      39.750  32.077  46.814  0.00  0.00    +0.000 HD
ENDBRANCH   3  15
BRANCH   8  20
ATOM     20  C   UNL     1      35.000  27.181  50.293  0.00  0.00    +0.000 C 
ATOM     21  H   UNL     1      34.208  26.607  50.752  0.00  0.00    +0.000 HD
ATOM     22  O   UNL     1      36.263  27.094  50.469  0.00  0.00    +0.000 OA
ENDBRANCH   8  20
TORSDOF 2
