
 OpenBabel03272507593D

 26 27  0  0  0  0  0  0  0  0999 V2000
   38.8510   26.4120   32.5340 C   0  0  0  0  0  0  0  0  0  0  0  0
   39.1280   25.9070   33.8330 C   0  0  0  0  0  0  0  0  0  0  0  0
   38.4710   24.7510   34.2510 C   0  0  0  0  0  0  0  0  0  0  0  0
   37.5960   24.1720   33.3810 N   0  0  0  0  0  0  0  0  0  0  0  0
   37.3520   24.6800   32.1440 C   0  0  0  0  0  0  0  0  0  0  0  0
   37.9700   25.7890   31.7190 N   0  0  0  0  0  0  0  0  0  0  0  0
   36.3990   23.8880   31.4350 N   0  0  0  0  0  0  0  0  0  0  0  0
   39.3410   27.2910   32.1960 H   0  0  0  0  0  0  0  0  0  0  0  0
   35.4240   23.7920   31.8220 H   0  0  0  0  0  0  0  0  0  0  0  0
   36.7550   23.4410   30.5400 H   0  0  0  0  0  0  0  0  0  0  0  0
   38.7320   24.2050   35.5770 C   0  0  0  0  0  0  0  0  0  0  0  0
   37.8550   24.7020   36.5330 C   0  0  0  0  0  0  0  0  0  0  0  0
   37.9840   24.2660   37.8470 C   0  0  0  0  0  0  0  0  0  0  0  0
   38.9670   23.3560   38.1900 C   0  0  0  0  0  0  0  0  0  0  0  0
   39.8100   22.8960   37.2070 C   0  0  0  0  0  0  0  0  0  0  0  0
   39.6750   23.3220   35.9460 N   0  0  0  0  0  0  0  0  0  0  0  0
   37.0430   25.4100   36.4190 H   0  0  0  0  0  0  0  0  0  0  0  0
   37.3520   24.5950   38.6560 H   0  0  0  0  0  0  0  0  0  0  0  0
   39.1030   22.9920   39.2010 H   0  0  0  0  0  0  0  0  0  0  0  0
   40.8580   21.9380   37.5300 C   0  0  0  0  0  0  0  0  0  0  0  0
   41.0500   21.6450   38.5500 H   0  0  0  0  0  0  0  0  0  0  0  0
   41.5760   21.4160   36.6490 O   0  0  0  0  0  0  0  0  0  0  0  0
   40.1090   26.6340   34.6900 C   0  0  0  0  0  0  0  0  0  0  0  0
   41.1090   25.7860   35.1370 F   0  0  0  0  0  0  0  0  0  0  0  0
   40.6860   27.6300   33.9390 F   0  0  0  0  0  0  0  0  0  0  0  0
   39.5260   27.2120   35.8000 F   0  0  0  0  0  0  0  0  0  0  0  0
  1  2  1  0  0  0  0
  2  3  2  0  0  0  0
  2 23  1  0  0  0  0
  3 11  1  0  0  0  0
  4  3  1  0  0  0  0
  5  4  2  0  0  0  0
  6  5  1  0  0  0  0
  6  1  2  0  0  0  0
  7  9  1  0  0  0  0
  7  5  1  0  0  0  0
  8  1  1  0  0  0  0
 10  7  1  0  0  0  0
 11 16  2  0  0  0  0
 11 12  1  0  0  0  0
 12 13  2  0  0  0  0
 13 14  1  0  0  0  0
 13 18  1  0  0  0  0
 14 19  1  0  0  0  0
 15 20  1  0  0  0  0
 15 14  2  0  0  0  0
 16 15  1  0  0  0  0
 17 12  1  0  0  0  0
 20 21  1  0  0  0  0
 22 20  2  0  0  0  0
 23 24  1  0  0  0  0
 23 26  1  0  0  0  0
 25 23  1  0  0  0  0
M  END
>  <minimizedAffinity>
-5.14997816

$$$$

 OpenBabel03272507593D

 26 27  0  0  0  0  0  0  0  0999 V2000
   40.9840   23.0660   36.4410 C   0  0  0  0  0  0  0  0  0  0  0  0
   40.3190   24.0280   35.6350 C   0  0  0  0  0  0  0  0  0  0  0  0
   39.0520   24.4590   36.0260 C   0  0  0  0  0  0  0  0  0  0  0  0
   38.5260   23.9260   37.1650 N   0  0  0  0  0  0  0  0  0  0  0  0
   39.1890   23.0070   37.9150 C   0  0  0  0  0  0  0  0  0  0  0  0
   40.4060   22.5750   37.5610 N   0  0  0  0  0  0  0  0  0  0  0  0
   38.4220   22.6110   39.0520 N   0  0  0  0  0  0  0  0  0  0  0  0
   41.9510   22.7230   36.1620 H   0  0  0  0  0  0  0  0  0  0  0  0
   37.4940   22.1370   38.9040 H   0  0  0  0  0  0  0  0  0  0  0  0
   38.8600   22.8320   39.9940 H   0  0  0  0  0  0  0  0  0  0  0  0
   38.3400   25.4460   35.2240 C   0  0  0  0  0  0  0  0  0  0  0  0
   38.3030   26.6930   35.8340 C   0  0  0  0  0  0  0  0  0  0  0  0
   37.6550   27.7360   35.1810 C   0  0  0  0  0  0  0  0  0  0  0  0
   37.0620   27.5310   33.9490 C   0  0  0  0  0  0  0  0  0  0  0  0
   37.1250   26.2770   33.3890 C   0  0  0  0  0  0  0  0  0  0  0  0
   37.7520   25.2820   34.0270 N   0  0  0  0  0  0  0  0  0  0  0  0
   38.7180   27.0060   36.7850 H   0  0  0  0  0  0  0  0  0  0  0  0
   37.5750   28.7360   35.5740 H   0  0  0  0  0  0  0  0  0  0  0  0
   36.5470   28.3150   33.4080 H   0  0  0  0  0  0  0  0  0  0  0  0
   36.5120   26.0220   32.0930 C   0  0  0  0  0  0  0  0  0  0  0  0
   36.5510   26.7560   31.3040 H   0  0  0  0  0  0  0  0  0  0  0  0
   35.9170   24.9520   31.8380 O   0  0  0  0  0  0  0  0  0  0  0  0
   41.0030   24.5340   34.4100 C   0  0  0  0  0  0  0  0  0  0  0  0
   41.0460   25.9180   34.3960 F   0  0  0  0  0  0  0  0  0  0  0  0
   42.2920   24.0570   34.4070 F   0  0  0  0  0  0  0  0  0  0  0  0
   40.3880   24.1240   33.2450 F   0  0  0  0  0  0  0  0  0  0  0  0
  1  6  1  0  0  0  0
  2  3  1  0  0  0  0
  2  1  2  0  0  0  0
  3  4  2  0  0  0  0
  4  5  1  0  0  0  0
  5  7  1  0  0  0  0
  6  5  2  0  0  0  0
  7 10  1  0  0  0  0
  8  1  1  0  0  0  0
  9  7  1  0  0  0  0
 11 12  1  0  0  0  0
 11  3  1  0  0  0  0
 12 17  1  0  0  0  0
 13 18  1  0  0  0  0
 13 12  2  0  0  0  0
 14 13  1  0  0  0  0
 15 14  2  0  0  0  0
 15 16  1  0  0  0  0
 16 11  2  0  0  0  0
 19 14  1  0  0  0  0
 20 15  1  0  0  0  0
 21 20  1  0  0  0  0
 22 20  2  0  0  0  0
 23  2  1  0  0  0  0
 24 23  1  0  0  0  0
 25 23  1  0  0  0  0
 26 23  1  0  0  0  0
M  END
>  <minimizedAffinity>
-5.07276249

$$$$

 OpenBabel03272507593D

 26 27  0  0  0  0  0  0  0  0999 V2000
   37.1140   26.8990   33.6100 C   0  0  0  0  0  0  0  0  0  0  0  0
   37.9920   26.2380   34.5100 C   0  0  0  0  0  0  0  0  0  0  0  0
   38.3040   24.9000   34.2710 C   0  0  0  0  0  0  0  0  0  0  0  0
   37.7400   24.3050   33.1820 N   0  0  0  0  0  0  0  0  0  0  0  0
   36.9030   24.9660   32.3400 C   0  0  0  0  0  0  0  0  0  0  0  0
   36.5880   26.2500   32.5460 N   0  0  0  0  0  0  0  0  0  0  0  0
   36.4530   24.1180   31.2820 N   0  0  0  0  0  0  0  0  0  0  0  0
   36.8640   27.9190   33.7730 H   0  0  0  0  0  0  0  0  0  0  0  0
   35.8870   23.2620   31.5170 H   0  0  0  0  0  0  0  0  0  0  0  0
   36.7310   24.4250   30.3040 H   0  0  0  0  0  0  0  0  0  0  0  0
   39.2020   24.1890   35.1730 C   0  0  0  0  0  0  0  0  0  0  0  0
   38.5160   23.5120   36.1730 C   0  0  0  0  0  0  0  0  0  0  0  0
   39.2470   22.7870   37.1090 C   0  0  0  0  0  0  0  0  0  0  0  0
   40.6270   22.7440   37.0400 C   0  0  0  0  0  0  0  0  0  0  0  0
   41.2570   23.4330   36.0300 C   0  0  0  0  0  0  0  0  0  0  0  0
   40.5430   24.1260   35.1360 N   0  0  0  0  0  0  0  0  0  0  0  0
   37.4500   23.4500   36.3560 H   0  0  0  0  0  0  0  0  0  0  0  0
   38.8050   22.2310   37.9190 H   0  0  0  0  0  0  0  0  0  0  0  0
   41.2330   22.1930   37.7470 H   0  0  0  0  0  0  0  0  0  0  0  0
   42.7090   23.4120   35.9250 C   0  0  0  0  0  0  0  0  0  0  0  0
   43.2010   22.9120   35.1050 H   0  0  0  0  0  0  0  0  0  0  0  0
   43.4460   23.9650   36.7710 O   0  0  0  0  0  0  0  0  0  0  0  0
   38.5430   27.0020   35.6660 C   0  0  0  0  0  0  0  0  0  0  0  0
   39.9180   27.1440   35.5640 F   0  0  0  0  0  0  0  0  0  0  0  0
   37.9740   28.2530   35.6680 F   0  0  0  0  0  0  0  0  0  0  0  0
   38.2760   26.4030   36.8800 F   0  0  0  0  0  0  0  0  0  0  0  0
  1  8  1  0  0  0  0
  1  2  1  0  0  0  0
  2 23  1  0  0  0  0
  3  2  2  0  0  0  0
  3 11  1  0  0  0  0
  4  3  1  0  0  0  0
  5  6  1  0  0  0  0
  5  4  2  0  0  0  0
  6  1  2  0  0  0  0
  7  9  1  0  0  0  0
  7  5  1  0  0  0  0
 10  7  1  0  0  0  0
 11 12  1  0  0  0  0
 12 17  1  0  0  0  0
 12 13  2  0  0  0  0
 13 18  1  0  0  0  0
 14 13  1  0  0  0  0
 14 19  1  0  0  0  0
 15 14  2  0  0  0  0
 16 11  2  0  0  0  0
 16 15  1  0  0  0  0
 20 15  1  0  0  0  0
 20 22  2  0  0  0  0
 21 20  1  0  0  0  0
 23 25  1  0  0  0  0
 23 26  1  0  0  0  0
 24 23  1  0  0  0  0
M  END
>  <minimizedAffinity>
-5.0216465

$$$$

 OpenBabel03272507593D

 26 27  0  0  0  0  0  0  0  0999 V2000
   36.8310   27.2790   33.4830 C   0  0  0  0  0  0  0  0  0  0  0  0
   37.8470   26.6140   34.2200 C   0  0  0  0  0  0  0  0  0  0  0  0
   38.3680   25.4260   33.7100 C   0  0  0  0  0  0  0  0  0  0  0  0
   37.8660   24.9730   32.5260 N   0  0  0  0  0  0  0  0  0  0  0  0
   36.8930   25.6330   31.8450 C   0  0  0  0  0  0  0  0  0  0  0  0
   36.3760   26.7750   32.3130 N   0  0  0  0  0  0  0  0  0  0  0  0
   36.5470   24.9500   30.6400 N   0  0  0  0  0  0  0  0  0  0  0  0
   36.4200   28.1860   33.8540 H   0  0  0  0  0  0  0  0  0  0  0  0
   36.1450   23.9790   30.6990 H   0  0  0  0  0  0  0  0  0  0  0  0
   36.7270   25.4910   29.7430 H   0  0  0  0  0  0  0  0  0  0  0  0
   39.4120   24.7160   34.4390 C   0  0  0  0  0  0  0  0  0  0  0  0
   40.6630   24.8770   33.8570 C   0  0  0  0  0  0  0  0  0  0  0  0
   41.7580   24.2550   34.4470 C   0  0  0  0  0  0  0  0  0  0  0  0
   41.5990   23.4950   35.5910 C   0  0  0  0  0  0  0  0  0  0  0  0
   40.3400   23.3670   36.1270 C   0  0  0  0  0  0  0  0  0  0  0  0
   39.2950   23.9700   35.5490 N   0  0  0  0  0  0  0  0  0  0  0  0
   40.9430   25.4360   32.9720 H   0  0  0  0  0  0  0  0  0  0  0  0
   42.7650   24.3220   34.0700 H   0  0  0  0  0  0  0  0  0  0  0  0
   42.4240   22.9940   36.0820 H   0  0  0  0  0  0  0  0  0  0  0  0
   40.1330   22.5730   37.3300 C   0  0  0  0  0  0  0  0  0  0  0  0
   40.6130   21.6160   37.4560 H   0  0  0  0  0  0  0  0  0  0  0  0
   39.3960   22.9610   38.2640 O   0  0  0  0  0  0  0  0  0  0  0  0
   38.3110   27.2150   35.5040 C   0  0  0  0  0  0  0  0  0  0  0  0
   39.6750   27.4560   35.4800 F   0  0  0  0  0  0  0  0  0  0  0  0
   37.6580   28.4110   35.6830 F   0  0  0  0  0  0  0  0  0  0  0  0
   38.0500   26.4120   36.5960 F   0  0  0  0  0  0  0  0  0  0  0  0
  1  8  1  0  0  0  0
  1  2  1  0  0  0  0
  2 23  1  0  0  0  0
  3  2  2  0  0  0  0
  3 11  1  0  0  0  0
  4  3  1  0  0  0  0
  5  6  1  0  0  0  0
  5  4  2  0  0  0  0
  6  1  2  0  0  0  0
  7  9  1  0  0  0  0
  7  5  1  0  0  0  0
 10  7  1  0  0  0  0
 11 16  1  0  0  0  0
 12 11  2  0  0  0  0
 12 13  1  0  0  0  0
 13 14  2  0  0  0  0
 14 19  1  0  0  0  0
 14 15  1  0  0  0  0
 15 20  1  0  0  0  0
 16 15  2  0  0  0  0
 17 12  1  0  0  0  0
 18 13  1  0  0  0  0
 20 21  1  0  0  0  0
 20 22  2  0  0  0  0
 23 25  1  0  0  0  0
 23 26  1  0  0  0  0
 24 23  1  0  0  0  0
M  END
>  <minimizedAffinity>
-4.92184687

$$$$

 OpenBabel03272507593D

 26 27  0  0  0  0  0  0  0  0999 V2000
   38.7260   27.4230   32.0530 C   0  0  0  0  0  0  0  0  0  0  0  0
   38.9350   26.5360   33.1420 C   0  0  0  0  0  0  0  0  0  0  0  0
   38.0450   25.4780   33.3190 C   0  0  0  0  0  0  0  0  0  0  0  0
   37.0200   25.3600   32.4280 N   0  0  0  0  0  0  0  0  0  0  0  0
   36.8470   26.2260   31.3950 C   0  0  0  0  0  0  0  0  0  0  0  0
   37.6870   27.2500   31.2040 N   0  0  0  0  0  0  0  0  0  0  0  0
   35.7030   25.8810   30.6130 N   0  0  0  0  0  0  0  0  0  0  0  0
   39.3920   28.2360   31.9000 H   0  0  0  0  0  0  0  0  0  0  0  0
   34.7520   25.8930   31.0630 H   0  0  0  0  0  0  0  0  0  0  0  0
   35.9040   25.6300   29.6000 H   0  0  0  0  0  0  0  0  0  0  0  0
   38.2300   24.5480   34.4250 C   0  0  0  0  0  0  0  0  0  0  0  0
   38.7210   23.3190   34.0030 C   0  0  0  0  0  0  0  0  0  0  0  0
   38.9480   22.3300   34.9540 C   0  0  0  0  0  0  0  0  0  0  0  0
   38.6900   22.5700   36.2910 C   0  0  0  0  0  0  0  0  0  0  0  0
   38.2030   23.8030   36.6560 C   0  0  0  0  0  0  0  0  0  0  0  0
   37.9890   24.7460   35.7320 N   0  0  0  0  0  0  0  0  0  0  0  0
   38.9710   22.9840   33.0040 H   0  0  0  0  0  0  0  0  0  0  0  0
   39.3270   21.3480   34.7240 H   0  0  0  0  0  0  0  0  0  0  0  0
   38.8520   21.8280   37.0630 H   0  0  0  0  0  0  0  0  0  0  0  0
   37.9180   24.0930   38.0540 C   0  0  0  0  0  0  0  0  0  0  0  0
   37.0200   24.6150   38.3430 H   0  0  0  0  0  0  0  0  0  0  0  0
   38.6940   23.7550   38.9750 O   0  0  0  0  0  0  0  0  0  0  0  0
   40.0970   26.7750   34.0480 C   0  0  0  0  0  0  0  0  0  0  0  0
   40.8590   25.6270   34.1980 F   0  0  0  0  0  0  0  0  0  0  0  0
   40.8860   27.7520   33.4900 F   0  0  0  0  0  0  0  0  0  0  0  0
   39.7180   27.1900   35.3070 F   0  0  0  0  0  0  0  0  0  0  0  0
  1  2  1  0  0  0  0
  2  3  2  0  0  0  0
  2 23  1  0  0  0  0
  3 11  1  0  0  0  0
  4  3  1  0  0  0  0
  5  4  2  0  0  0  0
  6  5  1  0  0  0  0
  6  1  2  0  0  0  0
  7  9  1  0  0  0  0
  7  5  1  0  0  0  0
  8  1  1  0  0  0  0
 10  7  1  0  0  0  0
 11 16  1  0  0  0  0
 12 11  2  0  0  0  0
 12 13  1  0  0  0  0
 13 14  2  0  0  0  0
 14 15  1  0  0  0  0
 14 19  1  0  0  0  0
 15 20  1  0  0  0  0
 16 15  2  0  0  0  0
 17 12  1  0  0  0  0
 18 13  1  0  0  0  0
 20 21  1  0  0  0  0
 20 22  2  0  0  0  0
 23 24  1  0  0  0  0
 23 26  1  0  0  0  0
 25 23  1  0  0  0  0
M  END
>  <minimizedAffinity>
-4.89406681

$$$$

 OpenBabel03272507593D

 26 27  0  0  0  0  0  0  0  0999 V2000
   39.8420   22.6720   37.8470 C   0  0  0  0  0  0  0  0  0  0  0  0
   39.3140   23.6640   36.9770 C   0  0  0  0  0  0  0  0  0  0  0  0
   39.9320   23.8630   35.7430 C   0  0  0  0  0  0  0  0  0  0  0  0
   41.0130   23.0870   35.4460 N   0  0  0  0  0  0  0  0  0  0  0  0
   41.4940   22.1460   36.3010 C   0  0  0  0  0  0  0  0  0  0  0  0
   40.9200   21.9360   37.4910 N   0  0  0  0  0  0  0  0  0  0  0  0
   42.6290   21.4770   35.7520 N   0  0  0  0  0  0  0  0  0  0  0  0
   39.3860   22.5040   38.7920 H   0  0  0  0  0  0  0  0  0  0  0  0
   43.4970   22.0320   35.5350 H   0  0  0  0  0  0  0  0  0  0  0  0
   42.5100   20.4320   35.5980 H   0  0  0  0  0  0  0  0  0  0  0  0
   39.4170   24.8710   34.8250 C   0  0  0  0  0  0  0  0  0  0  0  0
   40.1960   26.0210   34.8160 C   0  0  0  0  0  0  0  0  0  0  0  0
   39.8240   27.0710   33.9830 C   0  0  0  0  0  0  0  0  0  0  0  0
   38.7020   26.9670   33.1830 C   0  0  0  0  0  0  0  0  0  0  0  0
   37.9650   25.8080   33.2310 C   0  0  0  0  0  0  0  0  0  0  0  0
   38.3330   24.8050   34.0350 N   0  0  0  0  0  0  0  0  0  0  0  0
   41.0940   26.2480   35.3780 H   0  0  0  0  0  0  0  0  0  0  0  0
   40.3650   28.0000   33.9070 H   0  0  0  0  0  0  0  0  0  0  0  0
   38.3770   27.7600   32.5210 H   0  0  0  0  0  0  0  0  0  0  0  0
   36.7760   25.6610   32.4030 C   0  0  0  0  0  0  0  0  0  0  0  0
   36.2510   26.5240   32.0220 H   0  0  0  0  0  0  0  0  0  0  0  0
   36.3120   24.5400   32.0980 O   0  0  0  0  0  0  0  0  0  0  0  0
   38.1240   24.4460   37.4210 C   0  0  0  0  0  0  0  0  0  0  0  0
   36.9760   24.0250   36.7690 F   0  0  0  0  0  0  0  0  0  0  0  0
   37.9560   24.2510   38.7710 F   0  0  0  0  0  0  0  0  0  0  0  0
   38.2580   25.8000   37.1930 F   0  0  0  0  0  0  0  0  0  0  0  0
  1  8  1  0  0  0  0
  2 23  1  0  0  0  0
  2  1  2  0  0  0  0
  3  2  1  0  0  0  0
  4  3  2  0  0  0  0
  4  5  1  0  0  0  0
  5  6  2  0  0  0  0
  6  1  1  0  0  0  0
  7  5  1  0  0  0  0
  9  7  1  0  0  0  0
 10  7  1  0  0  0  0
 11  3  1  0  0  0  0
 12 11  1  0  0  0  0
 12 17  1  0  0  0  0
 13 12  2  0  0  0  0
 14 15  2  0  0  0  0
 14 13  1  0  0  0  0
 15 16  1  0  0  0  0
 16 11  2  0  0  0  0
 18 13  1  0  0  0  0
 19 14  1  0  0  0  0
 20 15  1  0  0  0  0
 21 20  1  0  0  0  0
 22 20  2  0  0  0  0
 23 25  1  0  0  0  0
 24 23  1  0  0  0  0
 26 23  1  0  0  0  0
M  END
>  <minimizedAffinity>
-4.86722612

$$$$

 OpenBabel03272507593D

 26 27  0  0  0  0  0  0  0  0999 V2000
   35.2530   26.1760   30.8770 C   0  0  0  0  0  0  0  0  0  0  0  0
   36.2150   26.6370   31.8140 C   0  0  0  0  0  0  0  0  0  0  0  0
   36.9250   25.6950   32.5570 C   0  0  0  0  0  0  0  0  0  0  0  0
   36.6480   24.3780   32.3360 N   0  0  0  0  0  0  0  0  0  0  0  0
   35.7200   23.9690   31.4310 C   0  0  0  0  0  0  0  0  0  0  0  0
   35.0250   24.8540   30.7060 N   0  0  0  0  0  0  0  0  0  0  0  0
   35.6230   22.5450   31.3940 N   0  0  0  0  0  0  0  0  0  0  0  0
   34.7010   26.8780   30.3000 H   0  0  0  0  0  0  0  0  0  0  0  0
   35.3190   22.0290   32.2590 H   0  0  0  0  0  0  0  0  0  0  0  0
   35.8720   22.0970   30.4630 H   0  0  0  0  0  0  0  0  0  0  0  0
   37.9200   26.1320   33.5270 C   0  0  0  0  0  0  0  0  0  0  0  0
   37.3830   26.2860   34.7990 C   0  0  0  0  0  0  0  0  0  0  0  0
   38.2200   26.6990   35.8300 C   0  0  0  0  0  0  0  0  0  0  0  0
   39.5580   26.9490   35.5890 C   0  0  0  0  0  0  0  0  0  0  0  0
   40.0390   26.7820   34.3130 C   0  0  0  0  0  0  0  0  0  0  0  0
   39.2240   26.3840   33.3290 N   0  0  0  0  0  0  0  0  0  0  0  0
   36.3670   26.1290   35.1400 H   0  0  0  0  0  0  0  0  0  0  0  0
   37.8960   26.8460   36.8470 H   0  0  0  0  0  0  0  0  0  0  0  0
   40.2440   27.2730   36.3620 H   0  0  0  0  0  0  0  0  0  0  0  0
   41.4430   27.0360   34.0200 C   0  0  0  0  0  0  0  0  0  0  0  0
   42.2260   26.5840   34.6080 H   0  0  0  0  0  0  0  0  0  0  0  0
   41.8020   27.7830   33.0830 O   0  0  0  0  0  0  0  0  0  0  0  0
   36.4250   28.1070   31.9620 C   0  0  0  0  0  0  0  0  0  0  0  0
   37.7360   28.4560   31.6820 F   0  0  0  0  0  0  0  0  0  0  0  0
   35.6020   28.7530   31.0710 F   0  0  0  0  0  0  0  0  0  0  0  0
   36.1340   28.5650   33.2300 F   0  0  0  0  0  0  0  0  0  0  0  0
  1  2  1  0  0  0  0
  2 23  1  0  0  0  0
  2  3  2  0  0  0  0
  3 11  1  0  0  0  0
  4  3  1  0  0  0  0
  5  4  2  0  0  0  0
  6  1  2  0  0  0  0
  6  5  1  0  0  0  0
  7  5  1  0  0  0  0
  7  9  1  0  0  0  0
  8  1  1  0  0  0  0
 10  7  1  0  0  0  0
 11 12  1  0  0  0  0
 12 17  1  0  0  0  0
 12 13  2  0  0  0  0
 13 18  1  0  0  0  0
 14 13  1  0  0  0  0
 14 19  1  0  0  0  0
 15 14  2  0  0  0  0
 16 11  2  0  0  0  0
 16 15  1  0  0  0  0
 20 15  1  0  0  0  0
 20 21  1  0  0  0  0
 22 20  2  0  0  0  0
 23 26  1  0  0  0  0
 24 23  1  0  0  0  0
 25 23  1  0  0  0  0
M  END
>  <minimizedAffinity>
-4.70233202

$$$$

 OpenBabel03272507593D

 26 27  0  0  0  0  0  0  0  0999 V2000
   41.0790   23.4010   35.8720 C   0  0  0  0  0  0  0  0  0  0  0  0
   39.9150   24.1250   35.5020 C   0  0  0  0  0  0  0  0  0  0  0  0
   40.0670   25.4110   34.9860 C   0  0  0  0  0  0  0  0  0  0  0  0
   41.3350   25.8990   34.8700 N   0  0  0  0  0  0  0  0  0  0  0  0
   42.4300   25.1800   35.2330 C   0  0  0  0  0  0  0  0  0  0  0  0
   42.3110   23.9440   35.7310 N   0  0  0  0  0  0  0  0  0  0  0  0
   43.6320   25.9170   35.0110 N   0  0  0  0  0  0  0  0  0  0  0  0
   40.9860   22.4190   36.2670 H   0  0  0  0  0  0  0  0  0  0  0  0
   43.7850   26.8190   35.5330 H   0  0  0  0  0  0  0  0  0  0  0  0
   44.3070   25.4860   34.3120 H   0  0  0  0  0  0  0  0  0  0  0  0
   38.8940   26.1820   34.5950 C   0  0  0  0  0  0  0  0  0  0  0  0
   38.5520   27.1370   35.5440 C   0  0  0  0  0  0  0  0  0  0  0  0
   37.4490   27.9510   35.3040 C   0  0  0  0  0  0  0  0  0  0  0  0
   36.7130   27.8080   34.1420 C   0  0  0  0  0  0  0  0  0  0  0  0
   37.0930   26.8470   33.2360 C   0  0  0  0  0  0  0  0  0  0  0  0
   38.1560   26.0710   33.4790 N   0  0  0  0  0  0  0  0  0  0  0  0
   39.0260   27.3670   36.4910 H   0  0  0  0  0  0  0  0  0  0  0  0
   37.1080   28.7180   35.9790 H   0  0  0  0  0  0  0  0  0  0  0  0
   35.8490   28.4200   33.9170 H   0  0  0  0  0  0  0  0  0  0  0  0
   36.3430   26.6670   32.0010 C   0  0  0  0  0  0  0  0  0  0  0  0
   36.1690   25.6840   31.5930 H   0  0  0  0  0  0  0  0  0  0  0  0
   35.8700   27.6330   31.3630 O   0  0  0  0  0  0  0  0  0  0  0  0
   38.5820   23.4770   35.6790 C   0  0  0  0  0  0  0  0  0  0  0  0
   37.9690   23.2500   34.4570 F   0  0  0  0  0  0  0  0  0  0  0  0
   38.7680   22.2690   36.3060 F   0  0  0  0  0  0  0  0  0  0  0  0
   37.7170   24.2330   36.4440 F   0  0  0  0  0  0  0  0  0  0  0  0
  1  8  1  0  0  0  0
  2 23  1  0  0  0  0
  2  1  2  0  0  0  0
  3  2  1  0  0  0  0
  4  3  2  0  0  0  0
  4  5  1  0  0  0  0
  5  6  2  0  0  0  0
  6  1  1  0  0  0  0
  7  5  1  0  0  0  0
  7  9  1  0  0  0  0
 10  7  1  0  0  0  0
 11  3  1  0  0  0  0
 11 12  1  0  0  0  0
 12 17  1  0  0  0  0
 13 12  2  0  0  0  0
 13 18  1  0  0  0  0
 14 13  1  0  0  0  0
 15 16  1  0  0  0  0
 15 14  2  0  0  0  0
 16 11  2  0  0  0  0
 19 14  1  0  0  0  0
 20 15  1  0  0  0  0
 21 20  1  0  0  0  0
 22 20  2  0  0  0  0
 23 25  1  0  0  0  0
 23 26  1  0  0  0  0
 24 23  1  0  0  0  0
M  END
>  <minimizedAffinity>
-4.58435774

$$$$

 OpenBabel03272507593D

 26 27  0  0  0  0  0  0  0  0999 V2000
   38.1000   24.9320   37.0250 C   0  0  0  0  0  0  0  0  0  0  0  0
   38.1920   25.5930   35.7710 C   0  0  0  0  0  0  0  0  0  0  0  0
   38.0900   24.8300   34.6090 C   0  0  0  0  0  0  0  0  0  0  0  0
   37.9070   23.4860   34.7490 N   0  0  0  0  0  0  0  0  0  0  0  0
   37.8230   22.8830   35.9640 C   0  0  0  0  0  0  0  0  0  0  0  0
   37.9190   23.5930   37.0950 N   0  0  0  0  0  0  0  0  0  0  0  0
   37.6320   21.4750   35.8340 N   0  0  0  0  0  0  0  0  0  0  0  0
   38.1750   25.4940   37.9240 H   0  0  0  0  0  0  0  0  0  0  0  0
   38.3750   20.8980   35.3600 H   0  0  0  0  0  0  0  0  0  0  0  0
   36.7240   21.1000   36.2380 H   0  0  0  0  0  0  0  0  0  0  0  0
   38.1790   25.4750   33.3050 C   0  0  0  0  0  0  0  0  0  0  0  0
   39.4510   25.3800   32.7560 C   0  0  0  0  0  0  0  0  0  0  0  0
   39.6850   25.9510   31.5100 C   0  0  0  0  0  0  0  0  0  0  0  0
   38.6670   26.5980   30.8340 C   0  0  0  0  0  0  0  0  0  0  0  0
   37.4260   26.6660   31.4220 C   0  0  0  0  0  0  0  0  0  0  0  0
   37.2150   26.1120   32.6210 N   0  0  0  0  0  0  0  0  0  0  0  0
   40.3400   24.9080   33.1590 H   0  0  0  0  0  0  0  0  0  0  0  0
   40.6360   25.9280   31.0050 H   0  0  0  0  0  0  0  0  0  0  0  0
   38.8060   27.0570   29.8630 H   0  0  0  0  0  0  0  0  0  0  0  0
   36.3290   27.3400   30.7410 C   0  0  0  0  0  0  0  0  0  0  0  0
   35.4560   26.7970   30.4180 H   0  0  0  0  0  0  0  0  0  0  0  0
   36.3500   28.5680   30.5010 O   0  0  0  0  0  0  0  0  0  0  0  0
   38.3930   27.0710   35.7530 C   0  0  0  0  0  0  0  0  0  0  0  0
   37.3420   27.7110   35.1160 F   0  0  0  0  0  0  0  0  0  0  0  0
   38.4510   27.5150   37.0520 F   0  0  0  0  0  0  0  0  0  0  0  0
   39.5570   27.4460   35.1150 F   0  0  0  0  0  0  0  0  0  0  0  0
  1  6  1  0  0  0  0
  1  8  1  0  0  0  0
  2  1  2  0  0  0  0
  3  4  2  0  0  0  0
  3  2  1  0  0  0  0
  4  5  1  0  0  0  0
  5  6  2  0  0  0  0
  7  5  1  0  0  0  0
  7 10  1  0  0  0  0
  9  7  1  0  0  0  0
 11  3  1  0  0  0  0
 12 17  1  0  0  0  0
 12 11  1  0  0  0  0
 13 12  2  0  0  0  0
 14 15  2  0  0  0  0
 14 13  1  0  0  0  0
 15 16  1  0  0  0  0
 16 11  2  0  0  0  0
 18 13  1  0  0  0  0
 19 14  1  0  0  0  0
 20 15  1  0  0  0  0
 21 20  1  0  0  0  0
 22 20  2  0  0  0  0
 23  2  1  0  0  0  0
 23 25  1  0  0  0  0
 24 23  1  0  0  0  0
 26 23  1  0  0  0  0
M  END
>  <minimizedAffinity>
-4.57594156

$$$$
