
 OpenBabel03262520223D

 26 27  0  0  0  0  0  0  0  0999 V2000
   34.6670   29.9800   47.3650 C   0  0  0  0  0  0  0  0  0  0  0  0
   35.9570   30.3850   46.9050 C   0  0  0  0  0  0  0  0  0  0  0  0
   36.1560   30.4040   45.5510 C   0  0  0  0  0  0  0  0  0  0  0  0
   35.1000   30.0330   44.7570 N   0  0  0  0  0  0  0  0  0  0  0  0
   33.9010   29.6580   45.2020 C   0  0  0  0  0  0  0  0  0  0  0  0
   33.7010   29.6370   46.5240 N   0  0  0  0  0  0  0  0  0  0  0  0
   32.9420   29.3460   44.2350 N   0  0  0  0  0  0  0  0  0  0  0  0
   34.3730   29.9180   48.4020 H   0  0  0  0  0  0  0  0  0  0  0  0
   33.1590   29.0360   43.2890 H   0  0  0  0  0  0  0  0  0  0  0  0
   31.9410   29.4450   44.5270 H   0  0  0  0  0  0  0  0  0  0  0  0
   36.8100   30.7350   48.0330 C   0  0  0  0  0  0  0  0  0  0  0  0
   37.0430   29.7920   49.0520 C   0  0  0  0  0  0  0  0  0  0  0  0
   37.7860   29.9940   50.1670 C   0  0  0  0  0  0  0  0  0  0  0  0
   38.3830   31.1820   50.3830 C   0  0  0  0  0  0  0  0  0  0  0  0
   38.1620   32.0880   49.4080 C   0  0  0  0  0  0  0  0  0  0  0  0
   37.4330   31.8450   48.3430 N   0  0  0  0  0  0  0  0  0  0  0  0
   36.5650   28.7650   48.9270 H   0  0  0  0  0  0  0  0  0  0  0  0
   37.8770   29.1300   50.8930 H   0  0  0  0  0  0  0  0  0  0  0  0
   38.9680   31.3470   51.2570 H   0  0  0  0  0  0  0  0  0  0  0  0
   38.7790   33.4550   49.5360 C   0  0  0  0  0  0  0  0  0  0  0  0
   38.6010   34.0620   50.4130 H   0  0  0  0  0  0  0  0  0  0  0  0
   39.5190   33.8980   48.5940 O   0  0  0  0  0  0  0  0  0  0  0  0
   37.4570   30.8120   45.0180 C   0  0  0  0  0  0  0  0  0  0  0  0
   38.4070   30.1580   45.6570 F   0  0  0  0  0  0  0  0  0  0  0  0
   37.5870   30.6220   43.6550 F   0  0  0  0  0  0  0  0  0  0  0  0
   37.6700   32.2050   45.2210 F   0  0  0  0  0  0  0  0  0  0  0  0
  1  8  1  0  0  0  0
  2  1  1  0  0  0  0
  2 11  1  0  0  0  0
  3  2  2  0  0  0  0
  4  5  2  0  0  0  0
  4  3  1  0  0  0  0
  5  6  1  0  0  0  0
  6  1  2  0  0  0  0
  7 10  1  0  0  0  0
  7  5  1  0  0  0  0
  9  7  1  0  0  0  0
 11 16  2  0  0  0  0
 11 12  1  0  0  0  0
 12 13  2  0  0  0  0
 13 14  1  0  0  0  0
 13 18  1  0  0  0  0
 14 19  1  0  0  0  0
 15 20  1  0  0  0  0
 15 14  2  0  0  0  0
 16 15  1  0  0  0  0
 17 12  1  0  0  0  0
 20 21  1  0  0  0  0
 22 20  2  0  0  0  0
 23 26  1  0  0  0  0
 23  3  1  0  0  0  0
 23 24  1  0  0  0  0
 25 23  1  0  0  0  0
M  END
>  <minimizedAffinity>
-5.24663925

>  <minimizedRMSD>
1.39647591

$$$$
