
 OpenBabel03272504553D

 21 22  0  0  1  0  0  0  0  0999 V2000
   36.8780   31.2280   49.0450 C   0  0  0  0  0  0  0  0  0  0  0  0
   37.0430   32.4400   49.7270 C   0  0  0  0  0  0  0  0  0  0  0  0
   38.1340   33.2060   49.3220 C   0  0  0  0  0  0  0  0  0  0  0  0
   38.9390   32.7550   48.3300 N   0  0  0  0  0  0  0  0  0  0  0  0
   38.7440   31.5870   47.7010 C   0  0  0  0  0  0  0  0  0  0  0  0
   37.6860   30.7970   48.0650 N   0  0  0  0  0  0  0  0  0  0  0  0
   39.5710   31.1220   46.6560 N   0  0  0  0  0  0  0  0  0  0  0  0
   36.3540   32.7050   50.4930 H   0  0  0  0  0  0  0  0  0  0  0  0
   38.2990   34.1500   49.8240 H   0  0  0  0  0  0  0  0  0  0  0  0
   39.5820   31.8780   45.9090 H   0  0  0  0  0  0  0  0  0  0  0  0
   40.1150   30.2370   46.5240 H   0  0  0  0  0  0  0  0  0  0  0  0
   35.6870   30.3910   49.4380 C   0  0  1  0  0  0  0  0  0  0  0  0
   35.6650   28.9650   49.2340 C   0  0  0  0  0  0  0  0  0  0  0  0
   35.9740   29.4710   50.6250 C   0  0  1  0  0  0  0  0  0  0  0  0
   34.7740   31.0140   49.5150 H   0  0  0  0  0  0  0  0  0  0  0  0
   36.5290   28.5080   48.6730 H   0  0  0  0  0  0  0  0  0  0  0  0
   34.7110   28.4380   49.0790 H   0  0  0  0  0  0  0  0  0  0  0  0
   35.1660   29.4210   51.3820 H   0  0  0  0  0  0  0  0  0  0  0  0
   37.3650   29.3980   51.1430 C   0  0  0  0  0  0  0  0  0  0  0  0
   38.1530   28.9420   50.5900 H   0  0  0  0  0  0  0  0  0  0  0  0
   37.4660   29.9210   52.2630 O   0  0  0  0  0  0  0  0  0  0  0  0
  1 12  1  0  0  0  0
  1  2  1  0  0  0  0
  2  8  1  0  0  0  0
  3  2  2  0  0  0  0
  3  9  1  0  0  0  0
  4  3  1  0  0  0  0
  5  6  1  0  0  0  0
  5  4  2  0  0  0  0
  6  1  2  0  0  0  0
  7  5  1  0  0  0  0
 10  7  1  0  0  0  0
 11  7  1  0  0  0  0
 12 15  1  1  0  0  0
 12 14  1  0  0  0  0
 13 12  1  0  0  0  0
 13 14  1  0  0  0  0
 14 19  1  0  0  0  0
 14 18  1  1  0  0  0
 16 13  1  0  0  0  0
 17 13  1  0  0  0  0
 19 21  2  0  0  0  0
 20 19  1  0  0  0  0
M  END
>  <minimizedAffinity>
-5.03638792

>  <minimizedRMSD>
0.715425491

$$$$
