
 OpenBabel03272504263D

 36 38  0  0  0  0  0  0  0  0999 V2000
   35.5800   29.6600   48.4310 C   0  0  0  0  0  0  0  0  0  0  0  0
   35.3790   28.7510   49.4090 C   0  0  0  0  0  0  0  0  0  0  0  0
   34.5450   27.7170   49.2340 C   0  0  0  0  0  0  0  0  0  0  0  0
   33.8930   27.5870   48.0470 N   0  0  0  0  0  0  0  0  0  0  0  0
   34.1010   28.4880   47.0940 C   0  0  0  0  0  0  0  0  0  0  0  0
   34.9330   29.5260   47.2610 N   0  0  0  0  0  0  0  0  0  0  0  0
   35.9230   28.9010   50.3360 H   0  0  0  0  0  0  0  0  0  0  0  0
   34.3980   27.0010   50.0270 H   0  0  0  0  0  0  0  0  0  0  0  0
   32.0110   27.9730   45.9110 C   0  0  0  0  0  0  0  0  0  0  0  0
   33.3770   28.2420   45.8650 C   0  0  0  0  0  0  0  0  0  0  0  0
   34.1230   28.2660   44.7020 C   0  0  0  0  0  0  0  0  0  0  0  0
   33.4960   28.0100   43.5030 C   0  0  0  0  0  0  0  0  0  0  0  0
   32.1510   27.7330   43.4500 C   0  0  0  0  0  0  0  0  0  0  0  0
   31.5010   27.7320   44.6410 C   0  0  0  0  0  0  0  0  0  0  0  0
   35.1820   28.4790   44.7090 H   0  0  0  0  0  0  0  0  0  0  0  0
   34.0970   28.0320   42.5940 H   0  0  0  0  0  0  0  0  0  0  0  0
   31.6530   27.5330   42.5310 H   0  0  0  0  0  0  0  0  0  0  0  0
   30.4240   27.5100   44.5930 H   0  0  0  0  0  0  0  0  0  0  0  0
   31.0740   27.9640   47.2870 S   0  0  0  0  0  0  0  0  0  0  0  0
   30.2900   26.6480   46.9720 O   0  0  0  0  0  0  0  0  0  0  0  0
   30.1170   29.1270   47.1850 O   0  0  0  0  0  0  0  0  0  0  0  0
   30.8400   27.6640   48.8390 C   0  0  0  0  0  0  0  0  0  0  0  0
   30.3630   26.4430   49.3630 F   0  0  0  0  0  0  0  0  0  0  0  0
   29.6050   28.3280   49.2940 F   0  0  0  0  0  0  0  0  0  0  0  0
   31.5070   28.4100   49.8530 F   0  0  0  0  0  0  0  0  0  0  0  0
   37.3490   32.5720   49.7920 C   0  0  0  0  0  0  0  0  0  0  0  0
   38.2560   32.8870   48.7600 C   0  0  0  0  0  0  0  0  0  0  0  0
   38.2330   32.0890   47.6220 C   0  0  0  0  0  0  0  0  0  0  0  0
   37.3430   31.0590   47.5760 N   0  0  0  0  0  0  0  0  0  0  0  0
   36.4810   30.7850   48.5920 C   0  0  0  0  0  0  0  0  0  0  0  0
   36.4920   31.5450   49.6920 N   0  0  0  0  0  0  0  0  0  0  0  0
   37.3910   33.2150   50.6690 H   0  0  0  0  0  0  0  0  0  0  0  0
   38.9400   33.7210   48.8590 H   0  0  0  0  0  0  0  0  0  0  0  0
   39.1330   32.3470   46.5210 C   0  0  0  0  0  0  0  0  0  0  0  0
   39.0890   31.7090   45.6490 H   0  0  0  0  0  0  0  0  0  0  0  0
   39.9550   33.2960   46.5710 O   0  0  0  0  0  0  0  0  0  0  0  0
  1 30  1  0  0  0  0
  1  2  1  0  0  0  0
  2  7  1  0  0  0  0
  3  2  2  0  0  0  0
  3  8  1  0  0  0  0
  4  3  1  0  0  0  0
  5  6  1  0  0  0  0
  5  4  2  0  0  0  0
  6  1  2  0  0  0  0
  9 19  1  0  0  0  0
 10  9  1  0  0  0  0
 10  5  1  0  0  0  0
 11 15  1  0  0  0  0
 11 10  2  0  0  0  0
 12 11  1  0  0  0  0
 13 12  2  0  0  0  0
 13 14  1  0  0  0  0
 14  9  2  0  0  0  0
 16 12  1  0  0  0  0
 17 13  1  0  0  0  0
 18 14  1  0  0  0  0
 19 22  1  0  0  0  0
 20 19  2  0  0  0  0
 21 19  2  0  0  0  0
 22 24  1  0  0  0  0
 22 23  1  0  0  0  0
 22 25  1  0  0  0  0
 26 32  1  0  0  0  0
 27 33  1  0  0  0  0
 27 26  2  0  0  0  0
 28 27  1  0  0  0  0
 29 28  2  0  0  0  0
 29 30  1  0  0  0  0
 30 31  2  0  0  0  0
 31 26  1  0  0  0  0
 34 36  2  0  0  0  0
 34 28  1  0  0  0  0
 35 34  1  0  0  0  0
M  END
>  <minimizedAffinity>
-5.53544283

>  <minimizedRMSD>
0.289410353

$$$$
