
 OpenBabel03272506243D

 25 26  0  0  0  0  0  0  0  0999 V2000
   39.3680   23.9840   35.4910 C   0  0  0  0  0  0  0  0  0  0  0  0
   40.7020   23.9850   35.2230 C   0  0  0  0  0  0  0  0  0  0  0  0
   41.6780   23.3910   36.0010 C   0  0  0  0  0  0  0  0  0  0  0  0
   41.2600   22.7200   37.1830 C   0  0  0  0  0  0  0  0  0  0  0  0
   39.9030   22.7140   37.4630 C   0  0  0  0  0  0  0  0  0  0  0  0
   38.9860   23.3190   36.6550 C   0  0  0  0  0  0  0  0  0  0  0  0
   41.0920   24.4790   34.3380 H   0  0  0  0  0  0  0  0  0  0  0  0
   42.7310   23.4220   35.7400 H   0  0  0  0  0  0  0  0  0  0  0  0
   41.9830   22.2490   37.8110 H   0  0  0  0  0  0  0  0  0  0  0  0
   39.5710   22.2010   38.3680 H   0  0  0  0  0  0  0  0  0  0  0  0
   38.0070   23.8940   33.4730 C   0  0  0  0  0  0  0  0  0  0  0  0
   38.4960   24.6550   34.5760 C   0  0  0  0  0  0  0  0  0  0  0  0
   38.0780   25.9860   34.6660 C   0  0  0  0  0  0  0  0  0  0  0  0
   37.2430   26.4750   33.7140 N   0  0  0  0  0  0  0  0  0  0  0  0
   36.7940   25.7200   32.6730 C   0  0  0  0  0  0  0  0  0  0  0  0
   37.1830   24.4270   32.5610 N   0  0  0  0  0  0  0  0  0  0  0  0
   38.3200   22.8570   33.3830 H   0  0  0  0  0  0  0  0  0  0  0  0
   36.1340   26.2340   31.9870 H   0  0  0  0  0  0  0  0  0  0  0  0
   38.5080   26.8910   35.7590 C   0  0  0  0  0  0  0  0  0  0  0  0
   37.8990   28.1540   35.5770 F   0  0  0  0  0  0  0  0  0  0  0  0
   38.2790   26.4720   37.0250 F   0  0  0  0  0  0  0  0  0  0  0  0
   39.8700   27.1830   35.6210 F   0  0  0  0  0  0  0  0  0  0  0  0
   37.5740   23.2850   36.9990 C   0  0  0  0  0  0  0  0  0  0  0  0
   37.0520   24.1080   37.4260 H   0  0  0  0  0  0  0  0  0  0  0  0
   36.7510   22.3670   36.8760 O   0  0  0  0  0  0  0  0  0  0  0  0
  1  6  1  0  0  0  0
  2  1  2  0  0  0  0
  2  3  1  0  0  0  0
  3  4  2  0  0  0  0
  4  5  1  0  0  0  0
  4  9  1  0  0  0  0
  5 10  1  0  0  0  0
  6 23  1  0  0  0  0
  6  5  2  0  0  0  0
  7  2  1  0  0  0  0
  8  3  1  0  0  0  0
 11 12  1  0  0  0  0
 12 13  2  0  0  0  0
 12  1  1  0  0  0  0
 13 19  1  0  0  0  0
 14 13  1  0  0  0  0
 15 14  2  0  0  0  0
 16 15  1  0  0  0  0
 16 11  2  0  0  0  0
 17 11  1  0  0  0  0
 18 15  1  0  0  0  0
 19 21  1  0  0  0  0
 20 19  1  0  0  0  0
 22 19  1  0  0  0  0
 23 24  1  0  0  0  0
 25 23  2  0  0  0  0
M  END
>  <minimizedAffinity>
-5.1558547

$$$$

 OpenBabel03272506243D

 25 26  0  0  0  0  0  0  0  0999 V2000
   38.8120   25.2110   35.3840 C   0  0  0  0  0  0  0  0  0  0  0  0
   38.8550   26.4730   35.8890 C   0  0  0  0  0  0  0  0  0  0  0  0
   38.1520   27.5580   35.3990 C   0  0  0  0  0  0  0  0  0  0  0  0
   37.3110   27.3440   34.2720 C   0  0  0  0  0  0  0  0  0  0  0  0
   37.2610   26.0610   33.7530 C   0  0  0  0  0  0  0  0  0  0  0  0
   37.9800   25.0290   34.2810 C   0  0  0  0  0  0  0  0  0  0  0  0
   39.4760   26.7090   36.7470 H   0  0  0  0  0  0  0  0  0  0  0  0
   38.2240   28.5470   35.8410 H   0  0  0  0  0  0  0  0  0  0  0  0
   36.7520   28.1560   33.8640 H   0  0  0  0  0  0  0  0  0  0  0  0
   36.6180   25.8850   32.8880 H   0  0  0  0  0  0  0  0  0  0  0  0
   40.8810   23.9260   35.4260 C   0  0  0  0  0  0  0  0  0  0  0  0
   39.6120   24.2040   36.0150 C   0  0  0  0  0  0  0  0  0  0  0  0
   39.2630   23.4740   37.1540 C   0  0  0  0  0  0  0  0  0  0  0  0
   40.1380   22.5520   37.6310 N   0  0  0  0  0  0  0  0  0  0  0  0
   41.3440   22.3110   37.0460 C   0  0  0  0  0  0  0  0  0  0  0  0
   41.7070   23.0050   35.9400 N   0  0  0  0  0  0  0  0  0  0  0  0
   41.1720   24.4820   34.5390 H   0  0  0  0  0  0  0  0  0  0  0  0
   41.9430   21.5510   37.5300 H   0  0  0  0  0  0  0  0  0  0  0  0
   37.9760   23.6600   37.8660 C   0  0  0  0  0  0  0  0  0  0  0  0
   38.0130   24.8880   38.5670 F   0  0  0  0  0  0  0  0  0  0  0  0
   36.8510   23.6170   37.1160 F   0  0  0  0  0  0  0  0  0  0  0  0
   37.8670   22.7200   38.8960 F   0  0  0  0  0  0  0  0  0  0  0  0
   37.8920   23.7010   33.6930 C   0  0  0  0  0  0  0  0  0  0  0  0
   38.4070   22.8530   34.0760 H   0  0  0  0  0  0  0  0  0  0  0  0
   37.2530   23.3140   32.7060 O   0  0  0  0  0  0  0  0  0  0  0  0
  1  2  1  0  0  0  0
  1 12  1  0  0  0  0
  2  7  1  0  0  0  0
  3  8  1  0  0  0  0
  3  2  2  0  0  0  0
  4  3  1  0  0  0  0
  5  4  2  0  0  0  0
  5  6  1  0  0  0  0
  6  1  2  0  0  0  0
  9  4  1  0  0  0  0
 10  5  1  0  0  0  0
 11 16  2  0  0  0  0
 11 12  1  0  0  0  0
 12 13  2  0  0  0  0
 13 14  1  0  0  0  0
 13 19  1  0  0  0  0
 15 18  1  0  0  0  0
 15 14  2  0  0  0  0
 16 15  1  0  0  0  0
 17 11  1  0  0  0  0
 19 20  1  0  0  0  0
 19 22  1  0  0  0  0
 21 19  1  0  0  0  0
 23 24  1  0  0  0  0
 23  6  1  0  0  0  0
 25 23  2  0  0  0  0
M  END
>  <minimizedAffinity>
-5.07881832

$$$$

 OpenBabel03272506243D

 25 26  0  0  0  0  0  0  0  0999 V2000
   38.8750   24.1120   35.8860 C   0  0  0  0  0  0  0  0  0  0  0  0
   37.9860   24.6090   36.7870 C   0  0  0  0  0  0  0  0  0  0  0  0
   37.9490   24.3000   38.1340 C   0  0  0  0  0  0  0  0  0  0  0  0
   38.9200   23.3840   38.6260 C   0  0  0  0  0  0  0  0  0  0  0  0
   39.8300   22.8740   37.7140 C   0  0  0  0  0  0  0  0  0  0  0  0
   39.8150   23.2180   36.3950 C   0  0  0  0  0  0  0  0  0  0  0  0
   37.2160   25.3120   36.4810 H   0  0  0  0  0  0  0  0  0  0  0  0
   37.2150   24.7260   38.8110 H   0  0  0  0  0  0  0  0  0  0  0  0
   38.9250   23.1200   39.6590 H   0  0  0  0  0  0  0  0  0  0  0  0
   40.5800   22.1710   38.0820 H   0  0  0  0  0  0  0  0  0  0  0  0
   37.9140   23.7700   33.6730 C   0  0  0  0  0  0  0  0  0  0  0  0
   38.7650   24.5380   34.5230 C   0  0  0  0  0  0  0  0  0  0  0  0
   39.4120   25.6380   33.9530 C   0  0  0  0  0  0  0  0  0  0  0  0
   39.1990   25.9110   32.6400 N   0  0  0  0  0  0  0  0  0  0  0  0
   38.3790   25.1580   31.8560 C   0  0  0  0  0  0  0  0  0  0  0  0
   37.7400   24.0860   32.3830 N   0  0  0  0  0  0  0  0  0  0  0  0
   37.4020   22.9110   34.0970 H   0  0  0  0  0  0  0  0  0  0  0  0
   38.2990   25.4880   30.8280 H   0  0  0  0  0  0  0  0  0  0  0  0
   40.3230   26.5210   34.7190 C   0  0  0  0  0  0  0  0  0  0  0  0
   39.5760   27.2100   35.7030 F   0  0  0  0  0  0  0  0  0  0  0  0
   41.3900   25.9340   35.3100 F   0  0  0  0  0  0  0  0  0  0  0  0
   40.7780   27.5570   33.8960 F   0  0  0  0  0  0  0  0  0  0  0  0
   40.7930   22.6490   35.4800 C   0  0  0  0  0  0  0  0  0  0  0  0
   40.5470   21.9500   34.7180 H   0  0  0  0  0  0  0  0  0  0  0  0
   42.0140   22.8440   35.4050 O   0  0  0  0  0  0  0  0  0  0  0  0
  1  6  2  0  0  0  0
  1  2  1  0  0  0  0
  2  3  2  0  0  0  0
  3  4  1  0  0  0  0
  3  8  1  0  0  0  0
  4  9  1  0  0  0  0
  5 10  1  0  0  0  0
  5  4  2  0  0  0  0
  6  5  1  0  0  0  0
  7  2  1  0  0  0  0
 11 17  1  0  0  0  0
 11 12  1  0  0  0  0
 12  1  1  0  0  0  0
 13 12  2  0  0  0  0
 13 19  1  0  0  0  0
 14 13  1  0  0  0  0
 15 16  1  0  0  0  0
 15 14  2  0  0  0  0
 16 11  2  0  0  0  0
 18 15  1  0  0  0  0
 19 21  1  0  0  0  0
 19 20  1  0  0  0  0
 22 19  1  0  0  0  0
 23  6  1  0  0  0  0
 24 23  1  0  0  0  0
 25 23  2  0  0  0  0
M  END
>  <minimizedAffinity>
-4.87385368

$$$$

 OpenBabel03272506243D

 25 26  0  0  0  0  0  0  0  0999 V2000
   39.2510   24.5640   34.9650 C   0  0  0  0  0  0  0  0  0  0  0  0
   40.5870   24.3070   34.9570 C   0  0  0  0  0  0  0  0  0  0  0  0
   41.5860   25.2530   34.8240 C   0  0  0  0  0  0  0  0  0  0  0  0
   41.1920   26.6120   34.6830 C   0  0  0  0  0  0  0  0  0  0  0  0
   39.8330   26.8830   34.6910 C   0  0  0  0  0  0  0  0  0  0  0  0
   38.8930   25.9030   34.8260 C   0  0  0  0  0  0  0  0  0  0  0  0
   40.9600   23.2920   35.0590 H   0  0  0  0  0  0  0  0  0  0  0  0
   42.6400   24.9920   34.8240 H   0  0  0  0  0  0  0  0  0  0  0  0
   41.9330   27.3720   34.5780 H   0  0  0  0  0  0  0  0  0  0  0  0
   39.5200   27.9230   34.5840 H   0  0  0  0  0  0  0  0  0  0  0  0
   37.9070   22.8300   33.9070 C   0  0  0  0  0  0  0  0  0  0  0  0
   38.3520   23.4590   35.1080 C   0  0  0  0  0  0  0  0  0  0  0  0
   37.8750   22.9400   36.3150 C   0  0  0  0  0  0  0  0  0  0  0  0
   37.0250   21.8810   36.2790 N   0  0  0  0  0  0  0  0  0  0  0  0
   36.6200   21.3030   35.1150 C   0  0  0  0  0  0  0  0  0  0  0  0
   37.0670   21.7870   33.9300 N   0  0  0  0  0  0  0  0  0  0  0  0
   38.2650   23.2180   32.9580 H   0  0  0  0  0  0  0  0  0  0  0  0
   35.9430   20.4670   35.2310 H   0  0  0  0  0  0  0  0  0  0  0  0
   38.2550   23.4960   37.6350 C   0  0  0  0  0  0  0  0  0  0  0  0
   37.4420   22.9090   38.6320 F   0  0  0  0  0  0  0  0  0  0  0  0
   39.5530   23.3730   37.9990 F   0  0  0  0  0  0  0  0  0  0  0  0
   37.8960   24.8470   37.6990 F   0  0  0  0  0  0  0  0  0  0  0  0
   37.4790   26.2440   34.8230 C   0  0  0  0  0  0  0  0  0  0  0  0
   36.7530   25.7460   35.4200 H   0  0  0  0  0  0  0  0  0  0  0  0
   36.8750   27.1140   34.1810 O   0  0  0  0  0  0  0  0  0  0  0  0
  1 12  1  0  0  0  0
  2  1  1  0  0  0  0
  2  7  1  0  0  0  0
  3  8  1  0  0  0  0
  3  2  2  0  0  0  0
  4  5  2  0  0  0  0
  4  3  1  0  0  0  0
  5  6  1  0  0  0  0
  6  1  2  0  0  0  0
  9  4  1  0  0  0  0
 10  5  1  0  0  0  0
 11 16  2  0  0  0  0
 11 12  1  0  0  0  0
 12 13  2  0  0  0  0
 13 19  1  0  0  0  0
 14 13  1  0  0  0  0
 15 18  1  0  0  0  0
 15 14  2  0  0  0  0
 16 15  1  0  0  0  0
 17 11  1  0  0  0  0
 19 22  1  0  0  0  0
 19 21  1  0  0  0  0
 19 20  1  0  0  0  0
 23  6  1  0  0  0  0
 23 24  1  0  0  0  0
 25 23  2  0  0  0  0
M  END
>  <minimizedAffinity>
-4.6773572

$$$$

 OpenBabel03272506243D

 25 26  0  0  0  0  0  0  0  0999 V2000
   41.0020   23.2970   35.5710 C   0  0  0  0  0  0  0  0  0  0  0  0
   41.3030   24.5290   35.0790 C   0  0  0  0  0  0  0  0  0  0  0  0
   42.4990   25.1970   35.2610 C   0  0  0  0  0  0  0  0  0  0  0  0
   43.5060   24.5470   36.0270 C   0  0  0  0  0  0  0  0  0  0  0  0
   43.2080   23.2920   36.5320 C   0  0  0  0  0  0  0  0  0  0  0  0
   42.0060   22.6840   36.3170 C   0  0  0  0  0  0  0  0  0  0  0  0
   40.5810   25.0840   34.4860 H   0  0  0  0  0  0  0  0  0  0  0  0
   42.6870   26.1820   34.8450 H   0  0  0  0  0  0  0  0  0  0  0  0
   44.4440   25.0300   36.1910 H   0  0  0  0  0  0  0  0  0  0  0  0
   43.9750   22.7840   37.1200 H   0  0  0  0  0  0  0  0  0  0  0  0
   39.5560   22.0560   34.0540 C   0  0  0  0  0  0  0  0  0  0  0  0
   39.7080   22.7550   35.2890 C   0  0  0  0  0  0  0  0  0  0  0  0
   38.5820   22.8470   36.1120 C   0  0  0  0  0  0  0  0  0  0  0  0
   37.4220   22.2750   35.6990 N   0  0  0  0  0  0  0  0  0  0  0  0
   37.3110   21.6130   34.5140 C   0  0  0  0  0  0  0  0  0  0  0  0
   38.3860   21.5090   33.6960 N   0  0  0  0  0  0  0  0  0  0  0  0
   40.4180   21.9730   33.3990 H   0  0  0  0  0  0  0  0  0  0  0  0
   36.3300   21.2050   34.3090 H   0  0  0  0  0  0  0  0  0  0  0  0
   38.5980   23.5450   37.4200 C   0  0  0  0  0  0  0  0  0  0  0  0
   37.3510   23.3510   38.0590 F   0  0  0  0  0  0  0  0  0  0  0  0
   39.5880   23.2090   38.2790 F   0  0  0  0  0  0  0  0  0  0  0  0
   38.6280   24.9290   37.2160 F   0  0  0  0  0  0  0  0  0  0  0  0
   41.7460   21.3650   36.8740 C   0  0  0  0  0  0  0  0  0  0  0  0
   40.8330   20.8380   36.7340 H   0  0  0  0  0  0  0  0  0  0  0  0
   42.4730   20.6410   37.5680 O   0  0  0  0  0  0  0  0  0  0  0  0
  1  6  1  0  0  0  0
  2  3  1  0  0  0  0
  2  1  2  0  0  0  0
  3  4  2  0  0  0  0
  4  9  1  0  0  0  0
  4  5  1  0  0  0  0
  5 10  1  0  0  0  0
  6  5  2  0  0  0  0
  6 23  1  0  0  0  0
  7  2  1  0  0  0  0
  8  3  1  0  0  0  0
 11 12  1  0  0  0  0
 12  1  1  0  0  0  0
 12 13  2  0  0  0  0
 13 19  1  0  0  0  0
 14 13  1  0  0  0  0
 15 14  2  0  0  0  0
 16 11  2  0  0  0  0
 16 15  1  0  0  0  0
 17 11  1  0  0  0  0
 18 15  1  0  0  0  0
 19 20  1  0  0  0  0
 19 21  1  0  0  0  0
 22 19  1  0  0  0  0
 23 25  2  0  0  0  0
 24 23  1  0  0  0  0
M  END
>  <minimizedAffinity>
-4.5970974

$$$$

 OpenBabel03272506243D

 25 26  0  0  0  0  0  0  0  0999 V2000
   38.6260   26.3540   33.0090 C   0  0  0  0  0  0  0  0  0  0  0  0
   39.7040   26.6640   32.2390 C   0  0  0  0  0  0  0  0  0  0  0  0
   40.9440   27.0530   32.7110 C   0  0  0  0  0  0  0  0  0  0  0  0
   41.1130   27.1410   34.1210 C   0  0  0  0  0  0  0  0  0  0  0  0
   40.0200   26.8270   34.9120 C   0  0  0  0  0  0  0  0  0  0  0  0
   38.8200   26.4480   34.3850 C   0  0  0  0  0  0  0  0  0  0  0  0
   39.6470   26.6200   31.1550 H   0  0  0  0  0  0  0  0  0  0  0  0
   41.7720   27.2900   32.0510 H   0  0  0  0  0  0  0  0  0  0  0  0
   42.0540   27.4380   34.5250 H   0  0  0  0  0  0  0  0  0  0  0  0
   40.1400   26.8900   35.9950 H   0  0  0  0  0  0  0  0  0  0  0  0
   37.1990   24.5770   32.1490 C   0  0  0  0  0  0  0  0  0  0  0  0
   37.4140   25.9730   32.3490 C   0  0  0  0  0  0  0  0  0  0  0  0
   36.4220   26.8440   31.8870 C   0  0  0  0  0  0  0  0  0  0  0  0
   35.3250   26.3210   31.2820 N   0  0  0  0  0  0  0  0  0  0  0  0
   35.1510   24.9820   31.1070 C   0  0  0  0  0  0  0  0  0  0  0  0
   36.0960   24.1150   31.5440 N   0  0  0  0  0  0  0  0  0  0  0  0
   37.9580   23.8830   32.5000 H   0  0  0  0  0  0  0  0  0  0  0  0
   34.2310   24.7020   30.6100 H   0  0  0  0  0  0  0  0  0  0  0  0
   36.5160   28.3160   32.0290 C   0  0  0  0  0  0  0  0  0  0  0  0
   36.5480   28.6440   33.4040 F   0  0  0  0  0  0  0  0  0  0  0  0
   37.5530   28.9250   31.4090 F   0  0  0  0  0  0  0  0  0  0  0  0
   35.3240   28.9080   31.5990 F   0  0  0  0  0  0  0  0  0  0  0  0
   37.7040   26.1320   35.2630 C   0  0  0  0  0  0  0  0  0  0  0  0
   36.8340   26.7370   35.3480 H   0  0  0  0  0  0  0  0  0  0  0  0
   37.5470   25.1720   36.0290 O   0  0  0  0  0  0  0  0  0  0  0  0
  1  6  1  0  0  0  0
  2  3  1  0  0  0  0
  2  1  2  0  0  0  0
  3  4  2  0  0  0  0
  4  9  1  0  0  0  0
  4  5  1  0  0  0  0
  5 10  1  0  0  0  0
  6  5  2  0  0  0  0
  6 23  1  0  0  0  0
  7  2  1  0  0  0  0
  8  3  1  0  0  0  0
 11 12  1  0  0  0  0
 11 17  1  0  0  0  0
 12  1  1  0  0  0  0
 13 19  1  0  0  0  0
 13 12  2  0  0  0  0
 14 13  1  0  0  0  0
 15 14  2  0  0  0  0
 15 16  1  0  0  0  0
 16 11  2  0  0  0  0
 18 15  1  0  0  0  0
 19 20  1  0  0  0  0
 21 19  1  0  0  0  0
 22 19  1  0  0  0  0
 23 24  1  0  0  0  0
 23 25  2  0  0  0  0
M  END
>  <minimizedAffinity>
-4.53362513

$$$$

 OpenBabel03272506243D

 25 26  0  0  0  0  0  0  0  0999 V2000
   38.7810   24.2160   34.5230 C   0  0  0  0  0  0  0  0  0  0  0  0
   38.1050   23.4230   33.6480 C   0  0  0  0  0  0  0  0  0  0  0  0
   37.2750   23.8690   32.6360 C   0  0  0  0  0  0  0  0  0  0  0  0
   37.1070   25.2740   32.4930 C   0  0  0  0  0  0  0  0  0  0  0  0
   37.7920   26.0890   33.3800 C   0  0  0  0  0  0  0  0  0  0  0  0
   38.5990   25.5880   34.3600 C   0  0  0  0  0  0  0  0  0  0  0  0
   38.1860   22.3420   33.6990 H   0  0  0  0  0  0  0  0  0  0  0  0
   36.7580   23.1910   31.9640 H   0  0  0  0  0  0  0  0  0  0  0  0
   36.4750   25.6580   31.7250 H   0  0  0  0  0  0  0  0  0  0  0  0
   37.6710   27.1690   33.2790 H   0  0  0  0  0  0  0  0  0  0  0  0
   40.9570   23.3310   35.1680 C   0  0  0  0  0  0  0  0  0  0  0  0
   39.5960   23.5830   35.5160 C   0  0  0  0  0  0  0  0  0  0  0  0
   39.1810   23.1940   36.7920 C   0  0  0  0  0  0  0  0  0  0  0  0
   40.0820   22.6040   37.6200 N   0  0  0  0  0  0  0  0  0  0  0  0
   41.3740   22.3790   37.2570 C   0  0  0  0  0  0  0  0  0  0  0  0
   41.8040   22.7460   36.0250 N   0  0  0  0  0  0  0  0  0  0  0  0
   41.3000   23.6250   34.1800 H   0  0  0  0  0  0  0  0  0  0  0  0
   41.9850   21.9020   38.0130 H   0  0  0  0  0  0  0  0  0  0  0  0
   37.7970   23.3950   37.2830 C   0  0  0  0  0  0  0  0  0  0  0  0
   37.7280   22.9970   38.6390 F   0  0  0  0  0  0  0  0  0  0  0  0
   37.2810   24.6410   37.1650 F   0  0  0  0  0  0  0  0  0  0  0  0
   36.9360   22.4890   36.6530 F   0  0  0  0  0  0  0  0  0  0  0  0
   39.2910   26.4890   35.2670 C   0  0  0  0  0  0  0  0  0  0  0  0
   40.3500   26.5270   35.3640 H   0  0  0  0  0  0  0  0  0  0  0  0
   38.8320   27.3330   36.0490 O   0  0  0  0  0  0  0  0  0  0  0  0
  1 12  1  0  0  0  0
  2  7  1  0  0  0  0
  2  1  2  0  0  0  0
  3  2  1  0  0  0  0
  4  3  2  0  0  0  0
  4  5  1  0  0  0  0
  5  6  2  0  0  0  0
  6  1  1  0  0  0  0
  6 23  1  0  0  0  0
  8  3  1  0  0  0  0
  9  4  1  0  0  0  0
 10  5  1  0  0  0  0
 11 12  2  0  0  0  0
 11 16  1  0  0  0  0
 12 13  1  0  0  0  0
 13 19  1  0  0  0  0
 13 14  2  0  0  0  0
 15 14  1  0  0  0  0
 15 18  1  0  0  0  0
 16 15  2  0  0  0  0
 17 11  1  0  0  0  0
 19 20  1  0  0  0  0
 21 19  1  0  0  0  0
 22 19  1  0  0  0  0
 23 24  1  0  0  0  0
 23 25  2  0  0  0  0
M  END
>  <minimizedAffinity>
-4.5078907

$$$$

 OpenBabel03272506243D

 25 26  0  0  0  0  0  0  0  0999 V2000
   39.3040   24.4730   34.9870 C   0  0  0  0  0  0  0  0  0  0  0  0
   38.8130   25.7240   34.7750 C   0  0  0  0  0  0  0  0  0  0  0  0
   39.5720   26.8670   34.6050 C   0  0  0  0  0  0  0  0  0  0  0  0
   40.9870   26.7310   34.6560 C   0  0  0  0  0  0  0  0  0  0  0  0
   41.4950   25.4600   34.8720 C   0  0  0  0  0  0  0  0  0  0  0  0
   40.6920   24.3690   35.0320 C   0  0  0  0  0  0  0  0  0  0  0  0
   37.7430   25.9020   34.7250 H   0  0  0  0  0  0  0  0  0  0  0  0
   39.1280   27.8430   34.4390 H   0  0  0  0  0  0  0  0  0  0  0  0
   41.6080   27.5890   34.5300 H   0  0  0  0  0  0  0  0  0  0  0  0
   42.5800   25.3440   34.9120 H   0  0  0  0  0  0  0  0  0  0  0  0
   37.9130   22.7590   33.9570 C   0  0  0  0  0  0  0  0  0  0  0  0
   38.3690   23.4000   35.1470 C   0  0  0  0  0  0  0  0  0  0  0  0
   37.8660   22.9240   36.3610 C   0  0  0  0  0  0  0  0  0  0  0  0
   36.9840   21.8920   36.3420 N   0  0  0  0  0  0  0  0  0  0  0  0
   36.5700   21.3010   35.1880 C   0  0  0  0  0  0  0  0  0  0  0  0
   37.0410   21.7430   33.9960 N   0  0  0  0  0  0  0  0  0  0  0  0
   38.2910   23.1140   33.0020 H   0  0  0  0  0  0  0  0  0  0  0  0
   35.8650   20.4890   35.3170 H   0  0  0  0  0  0  0  0  0  0  0  0
   38.2540   23.4970   37.6720 C   0  0  0  0  0  0  0  0  0  0  0  0
   37.4090   22.9650   38.6740 F   0  0  0  0  0  0  0  0  0  0  0  0
   39.5430   23.3350   38.0530 F   0  0  0  0  0  0  0  0  0  0  0  0
   37.9440   24.8620   37.7000 F   0  0  0  0  0  0  0  0  0  0  0  0
   41.2790   23.0580   35.2590 C   0  0  0  0  0  0  0  0  0  0  0  0
   41.1110   22.2200   34.6260 H   0  0  0  0  0  0  0  0  0  0  0  0
   42.0360   22.6750   36.1620 O   0  0  0  0  0  0  0  0  0  0  0  0
  1  6  1  0  0  0  0
  1 12  1  0  0  0  0
  2  1  2  0  0  0  0
  3  4  2  0  0  0  0
  3  2  1  0  0  0  0
  4  5  1  0  0  0  0
  5 10  1  0  0  0  0
  5  6  2  0  0  0  0
  6 23  1  0  0  0  0
  7  2  1  0  0  0  0
  8  3  1  0  0  0  0
  9  4  1  0  0  0  0
 11 16  2  0  0  0  0
 11 12  1  0  0  0  0
 12 13  2  0  0  0  0
 13 19  1  0  0  0  0
 14 13  1  0  0  0  0
 15 18  1  0  0  0  0
 15 14  2  0  0  0  0
 16 15  1  0  0  0  0
 17 11  1  0  0  0  0
 19 22  1  0  0  0  0
 19 21  1  0  0  0  0
 19 20  1  0  0  0  0
 23 25  2  0  0  0  0
 24 23  1  0  0  0  0
M  END
>  <minimizedAffinity>
-4.4944644

$$$$

 OpenBabel03272506243D

 25 26  0  0  0  0  0  0  0  0999 V2000
   39.5730   24.3660   35.7760 C   0  0  0  0  0  0  0  0  0  0  0  0
   40.8490   24.3200   35.3080 C   0  0  0  0  0  0  0  0  0  0  0  0
   41.8260   23.4360   35.7250 C   0  0  0  0  0  0  0  0  0  0  0  0
   41.4750   22.4920   36.7290 C   0  0  0  0  0  0  0  0  0  0  0  0
   40.1760   22.5310   37.2110 C   0  0  0  0  0  0  0  0  0  0  0  0
   39.2550   23.4290   36.7580 C   0  0  0  0  0  0  0  0  0  0  0  0
   41.1870   25.0120   34.5420 H   0  0  0  0  0  0  0  0  0  0  0  0
   42.8330   23.4440   35.3180 H   0  0  0  0  0  0  0  0  0  0  0  0
   42.2010   21.7920   37.0790 H   0  0  0  0  0  0  0  0  0  0  0  0
   39.8960   21.8100   37.9810 H   0  0  0  0  0  0  0  0  0  0  0  0
   38.6380   26.6120   35.9040 C   0  0  0  0  0  0  0  0  0  0  0  0
   38.6900   25.3540   35.2330 C   0  0  0  0  0  0  0  0  0  0  0  0
   37.8780   25.1980   34.1060 C   0  0  0  0  0  0  0  0  0  0  0  0
   37.0960   26.2380   33.7170 N   0  0  0  0  0  0  0  0  0  0  0  0
   37.0710   27.4270   34.3800 C   0  0  0  0  0  0  0  0  0  0  0  0
   37.8470   27.6050   35.4760 N   0  0  0  0  0  0  0  0  0  0  0  0
   39.2610   26.7540   36.7830 H   0  0  0  0  0  0  0  0  0  0  0  0
   36.4030   28.1690   33.9620 H   0  0  0  0  0  0  0  0  0  0  0  0
   37.8330   23.9460   33.3150 C   0  0  0  0  0  0  0  0  0  0  0  0
   39.0540   23.7980   32.6180 F   0  0  0  0  0  0  0  0  0  0  0  0
   37.5740   22.8030   33.9930 F   0  0  0  0  0  0  0  0  0  0  0  0
   36.9000   24.0760   32.2800 F   0  0  0  0  0  0  0  0  0  0  0  0
   37.9060   23.4290   37.3020 C   0  0  0  0  0  0  0  0  0  0  0  0
   37.5630   24.1280   38.0250 H   0  0  0  0  0  0  0  0  0  0  0  0
   36.9540   22.6760   37.0550 O   0  0  0  0  0  0  0  0  0  0  0  0
  1  6  1  0  0  0  0
  2  3  1  0  0  0  0
  2  1  2  0  0  0  0
  3  4  2  0  0  0  0
  4  9  1  0  0  0  0
  4  5  1  0  0  0  0
  5 10  1  0  0  0  0
  6  5  2  0  0  0  0
  6 23  1  0  0  0  0
  7  2  1  0  0  0  0
  8  3  1  0  0  0  0
 11 17  1  0  0  0  0
 12  1  1  0  0  0  0
 12 11  2  0  0  0  0
 13 12  1  0  0  0  0
 14 13  2  0  0  0  0
 14 15  1  0  0  0  0
 15 16  2  0  0  0  0
 16 11  1  0  0  0  0
 18 15  1  0  0  0  0
 19 21  1  0  0  0  0
 19 13  1  0  0  0  0
 20 19  1  0  0  0  0
 22 19  1  0  0  0  0
 23 24  1  0  0  0  0
 25 23  2  0  0  0  0
M  END
>  <minimizedAffinity>
-4.49024677

$$$$
