
 OpenBabel03272509003D

 22 23  0  0  0  0  0  0  0  0999 V2000
   37.9360   23.5740   33.5440 Cl  0  0  0  0  0  0  0  0  0  0  0  0
   37.8260   25.1890   34.1500 C   0  0  0  0  0  0  0  0  0  0  0  0
   38.3900   25.5000   35.3730 C   0  0  0  0  0  0  0  0  0  0  0  0
   38.3260   26.7650   35.8910 C   0  0  0  0  0  0  0  0  0  0  0  0
   37.6900   27.7860   35.2040 C   0  0  0  0  0  0  0  0  0  0  0  0
   37.1110   27.5080   33.9710 C   0  0  0  0  0  0  0  0  0  0  0  0
   36.2740   28.6910   32.9870 Cl  0  0  0  0  0  0  0  0  0  0  0  0
   37.2010   26.2060   33.4830 C   0  0  0  0  0  0  0  0  0  0  0  0
   38.7770   26.9670   36.8420 H   0  0  0  0  0  0  0  0  0  0  0  0
   37.6130   28.8030   35.5710 H   0  0  0  0  0  0  0  0  0  0  0  0
   39.1580   23.0090   37.9540 C   0  0  0  0  0  0  0  0  0  0  0  0
   40.3990   22.4860   37.5350 C   0  0  0  0  0  0  0  0  0  0  0  0
   40.9410   23.0180   36.3550 C   0  0  0  0  0  0  0  0  0  0  0  0
   40.2560   23.9840   35.6990 N   0  0  0  0  0  0  0  0  0  0  0  0
   39.0690   24.4590   36.1320 C   0  0  0  0  0  0  0  0  0  0  0  0
   38.5320   23.9640   37.2590 N   0  0  0  0  0  0  0  0  0  0  0  0
   38.6830   22.6440   38.8560 H   0  0  0  0  0  0  0  0  0  0  0  0
   40.8970   21.7190   38.0970 H   0  0  0  0  0  0  0  0  0  0  0  0
   41.8910   22.6540   35.9860 H   0  0  0  0  0  0  0  0  0  0  0  0
   36.6130   25.8320   32.1860 C   0  0  0  0  0  0  0  0  0  0  0  0
   35.6340   25.4460   31.9430 H   0  0  0  0  0  0  0  0  0  0  0  0
   37.5920   26.0880   31.4060 O   0  0  0  0  0  0  0  0  0  0  0  0
  1  2  1  0  0  0  0
  2  3  1  0  0  0  0
  3  4  2  0  0  0  0
  3 15  1  0  0  0  0
  4  9  1  0  0  0  0
  5 10  1  0  0  0  0
  5  4  1  0  0  0  0
  6  5  2  0  0  0  0
  7  6  1  0  0  0  0
  8  6  1  0  0  0  0
  8  2  2  0  0  0  0
 11 17  1  0  0  0  0
 12 11  1  0  0  0  0
 12 18  1  0  0  0  0
 13 12  2  0  0  0  0
 14 15  2  0  0  0  0
 14 13  1  0  0  0  0
 15 16  1  0  0  0  0
 16 11  2  0  0  0  0
 19 13  1  0  0  0  0
 20  8  1  0  0  0  0
 21 20  1  0  0  0  0
 22 20  2  0  0  0  0
M  END
>  <minimizedAffinity>
-4.55604124

$$$$

 OpenBabel03272509003D

 22 23  0  0  0  0  0  0  0  0999 V2000
   38.7270   23.6380   33.5410 Cl  0  0  0  0  0  0  0  0  0  0  0  0
   37.5090   22.4320   33.7630 C   0  0  0  0  0  0  0  0  0  0  0  0
   37.2780   21.9190   35.0250 C   0  0  0  0  0  0  0  0  0  0  0  0
   36.3240   20.9620   35.2470 C   0  0  0  0  0  0  0  0  0  0  0  0
   35.5500   20.4730   34.2080 C   0  0  0  0  0  0  0  0  0  0  0  0
   35.7570   20.9670   32.9250 C   0  0  0  0  0  0  0  0  0  0  0  0
   34.8600   20.4470   31.5120 Cl  0  0  0  0  0  0  0  0  0  0  0  0
   36.7390   21.9390   32.7460 C   0  0  0  0  0  0  0  0  0  0  0  0
   36.1740   20.5900   36.2400 H   0  0  0  0  0  0  0  0  0  0  0  0
   34.7840   19.7170   34.3310 H   0  0  0  0  0  0  0  0  0  0  0  0
   40.0840   22.5210   37.3090 C   0  0  0  0  0  0  0  0  0  0  0  0
   39.5190   23.3490   38.3010 C   0  0  0  0  0  0  0  0  0  0  0  0
   38.1630   23.6790   38.1480 C   0  0  0  0  0  0  0  0  0  0  0  0
   37.4900   23.1930   37.0790 N   0  0  0  0  0  0  0  0  0  0  0  0
   38.0670   22.4030   36.1490 C   0  0  0  0  0  0  0  0  0  0  0  0
   39.3630   22.0760   36.2760 N   0  0  0  0  0  0  0  0  0  0  0  0
   41.1260   22.2280   37.3650 H   0  0  0  0  0  0  0  0  0  0  0  0
   40.1030   23.7040   39.1280 H   0  0  0  0  0  0  0  0  0  0  0  0
   37.6760   24.3100   38.8790 H   0  0  0  0  0  0  0  0  0  0  0  0
   37.0180   22.5130   31.4200 C   0  0  0  0  0  0  0  0  0  0  0  0
   37.7310   22.2190   30.6630 H   0  0  0  0  0  0  0  0  0  0  0  0
   36.1730   23.4720   31.3990 O   0  0  0  0  0  0  0  0  0  0  0  0
  1  2  1  0  0  0  0
  2  3  1  0  0  0  0
  3  4  2  0  0  0  0
  3 15  1  0  0  0  0
  4  9  1  0  0  0  0
  5 10  1  0  0  0  0
  5  4  1  0  0  0  0
  6  5  2  0  0  0  0
  7  6  1  0  0  0  0
  8  6  1  0  0  0  0
  8  2  2  0  0  0  0
 11 17  1  0  0  0  0
 11 12  1  0  0  0  0
 12 18  1  0  0  0  0
 13 12  2  0  0  0  0
 13 19  1  0  0  0  0
 14 13  1  0  0  0  0
 15 16  1  0  0  0  0
 15 14  2  0  0  0  0
 16 11  2  0  0  0  0
 20  8  1  0  0  0  0
 21 20  1  0  0  0  0
 22 20  2  0  0  0  0
M  END
>  <minimizedAffinity>
-4.49628925

$$$$

 OpenBabel03272509003D

 22 23  0  0  0  0  0  0  0  0999 V2000
   38.0330   23.1790   33.5650 Cl  0  0  0  0  0  0  0  0  0  0  0  0
   37.0570   24.2510   32.6230 C   0  0  0  0  0  0  0  0  0  0  0  0
   36.1320   23.7320   31.7370 C   0  0  0  0  0  0  0  0  0  0  0  0
   35.3380   24.5430   30.9710 C   0  0  0  0  0  0  0  0  0  0  0  0
   35.4340   25.9220   31.0590 C   0  0  0  0  0  0  0  0  0  0  0  0
   36.3550   26.4780   31.9400 C   0  0  0  0  0  0  0  0  0  0  0  0
   36.5920   28.1990   32.1610 Cl  0  0  0  0  0  0  0  0  0  0  0  0
   37.1410   25.6130   32.6990 C   0  0  0  0  0  0  0  0  0  0  0  0
   34.6330   24.1020   30.2960 H   0  0  0  0  0  0  0  0  0  0  0  0
   34.8300   26.6070   30.4750 H   0  0  0  0  0  0  0  0  0  0  0  0
   36.6800   20.2590   30.6900 C   0  0  0  0  0  0  0  0  0  0  0  0
   35.6950   19.5490   31.4060 C   0  0  0  0  0  0  0  0  0  0  0  0
   34.8570   20.3030   32.2420 C   0  0  0  0  0  0  0  0  0  0  0  0
   35.0400   21.6430   32.3110 N   0  0  0  0  0  0  0  0  0  0  0  0
   35.9950   22.2870   31.6110 C   0  0  0  0  0  0  0  0  0  0  0  0
   36.8080   21.5840   30.8040 N   0  0  0  0  0  0  0  0  0  0  0  0
   37.3600   19.7390   30.0260 H   0  0  0  0  0  0  0  0  0  0  0  0
   35.5970   18.4840   31.3100 H   0  0  0  0  0  0  0  0  0  0  0  0
   34.0820   19.8120   32.8150 H   0  0  0  0  0  0  0  0  0  0  0  0
   38.1380   26.1230   33.6550 C   0  0  0  0  0  0  0  0  0  0  0  0
   39.1860   26.3490   33.5230 H   0  0  0  0  0  0  0  0  0  0  0  0
   37.4180   26.2300   34.7060 O   0  0  0  0  0  0  0  0  0  0  0  0
  2  8  1  0  0  0  0
  2  1  1  0  0  0  0
  3  2  2  0  0  0  0
  4  5  2  0  0  0  0
  4  3  1  0  0  0  0
  5  6  1  0  0  0  0
  6  7  1  0  0  0  0
  6  8  2  0  0  0  0
  8 20  1  0  0  0  0
  9  4  1  0  0  0  0
 10  5  1  0  0  0  0
 11 16  2  0  0  0  0
 11 12  1  0  0  0  0
 12 13  2  0  0  0  0
 13 14  1  0  0  0  0
 13 19  1  0  0  0  0
 15  3  1  0  0  0  0
 15 14  2  0  0  0  0
 16 15  1  0  0  0  0
 17 11  1  0  0  0  0
 18 12  1  0  0  0  0
 20 22  2  0  0  0  0
 21 20  1  0  0  0  0
M  END
>  <minimizedAffinity>
-4.25407314

$$$$

 OpenBabel03272509003D

 22 23  0  0  0  0  0  0  0  0999 V2000
   32.8710   29.3420   34.2880 Cl  0  0  0  0  0  0  0  0  0  0  0  0
   33.8750   30.4900   35.1020 C   0  0  0  0  0  0  0  0  0  0  0  0
   35.2390   30.4840   34.8790 C   0  0  0  0  0  0  0  0  0  0  0  0
   36.0720   31.3740   35.5010 C   0  0  0  0  0  0  0  0  0  0  0  0
   35.5740   32.3200   36.3820 C   0  0  0  0  0  0  0  0  0  0  0  0
   34.2060   32.3540   36.6300 C   0  0  0  0  0  0  0  0  0  0  0  0
   33.4300   33.4890   37.7160 Cl  0  0  0  0  0  0  0  0  0  0  0  0
   33.3970   31.4280   35.9740 C   0  0  0  0  0  0  0  0  0  0  0  0
   37.1240   31.3380   35.3020 H   0  0  0  0  0  0  0  0  0  0  0  0
   36.1910   33.0460   36.9000 H   0  0  0  0  0  0  0  0  0  0  0  0
   36.3630   28.8420   31.7970 C   0  0  0  0  0  0  0  0  0  0  0  0
   36.9010   27.6240   32.2610 C   0  0  0  0  0  0  0  0  0  0  0  0
   36.8580   27.4020   33.6460 C   0  0  0  0  0  0  0  0  0  0  0  0
   36.3140   28.3530   34.4420 N   0  0  0  0  0  0  0  0  0  0  0  0
   35.8090   29.5070   33.9610 C   0  0  0  0  0  0  0  0  0  0  0  0
   35.8400   29.7390   32.6380 N   0  0  0  0  0  0  0  0  0  0  0  0
   36.3630   29.0770   30.7400 H   0  0  0  0  0  0  0  0  0  0  0  0
   37.3200   26.9060   31.5810 H   0  0  0  0  0  0  0  0  0  0  0  0
   37.2560   26.4850   34.0590 H   0  0  0  0  0  0  0  0  0  0  0  0
   31.9410   31.4000   36.1820 C   0  0  0  0  0  0  0  0  0  0  0  0
   31.1450   31.9040   35.6540 H   0  0  0  0  0  0  0  0  0  0  0  0
   31.8640   30.6030   37.1790 O   0  0  0  0  0  0  0  0  0  0  0  0
  1  2  1  0  0  0  0
  2  8  1  0  0  0  0
  3  2  2  0  0  0  0
  3  4  1  0  0  0  0
  4  5  2  0  0  0  0
  5  6  1  0  0  0  0
  5 10  1  0  0  0  0
  6  7  1  0  0  0  0
  8 20  1  0  0  0  0
  8  6  2  0  0  0  0
  9  4  1  0  0  0  0
 11 12  2  0  0  0  0
 11 16  1  0  0  0  0
 12 13  1  0  0  0  0
 13 19  1  0  0  0  0
 13 14  2  0  0  0  0
 15 14  1  0  0  0  0
 15  3  1  0  0  0  0
 16 15  2  0  0  0  0
 17 11  1  0  0  0  0
 18 12  1  0  0  0  0
 20 22  2  0  0  0  0
 21 20  1  0  0  0  0
M  END
>  <minimizedAffinity>
-4.21968079

$$$$

 OpenBabel03272509003D

 22 23  0  0  0  0  0  0  0  0999 V2000
   41.2850   25.1850   34.0440 Cl  0  0  0  0  0  0  0  0  0  0  0  0
   40.7050   24.1800   35.3250 C   0  0  0  0  0  0  0  0  0  0  0  0
   39.4420   24.3940   35.8430 C   0  0  0  0  0  0  0  0  0  0  0  0
   38.9430   23.6220   36.8580 C   0  0  0  0  0  0  0  0  0  0  0  0
   39.6910   22.5930   37.4050 C   0  0  0  0  0  0  0  0  0  0  0  0
   40.9670   22.3510   36.9090 C   0  0  0  0  0  0  0  0  0  0  0  0
   42.0300   21.0890   37.4970 Cl  0  0  0  0  0  0  0  0  0  0  0  0
   41.4330   23.1620   35.8750 C   0  0  0  0  0  0  0  0  0  0  0  0
   37.9580   23.8190   37.2320 H   0  0  0  0  0  0  0  0  0  0  0  0
   39.3410   21.9550   38.2090 H   0  0  0  0  0  0  0  0  0  0  0  0
   37.1390   26.2640   33.6860 C   0  0  0  0  0  0  0  0  0  0  0  0
   37.0710   27.5270   34.3080 C   0  0  0  0  0  0  0  0  0  0  0  0
   37.8360   27.6980   35.4730 C   0  0  0  0  0  0  0  0  0  0  0  0
   38.5800   26.6600   35.9230 N   0  0  0  0  0  0  0  0  0  0  0  0
   38.6180   25.4640   35.2990 C   0  0  0  0  0  0  0  0  0  0  0  0
   37.8940   25.2800   34.1830 N   0  0  0  0  0  0  0  0  0  0  0  0
   36.5740   26.0640   32.7830 H   0  0  0  0  0  0  0  0  0  0  0  0
   36.4630   28.3140   33.9050 H   0  0  0  0  0  0  0  0  0  0  0  0
   37.8230   28.6470   35.9930 H   0  0  0  0  0  0  0  0  0  0  0  0
   42.7720   22.9690   35.2950 C   0  0  0  0  0  0  0  0  0  0  0  0
   43.0920   22.3850   34.4440 H   0  0  0  0  0  0  0  0  0  0  0  0
   43.4730   23.6910   36.0840 O   0  0  0  0  0  0  0  0  0  0  0  0
  1  2  1  0  0  0  0
  2  3  2  0  0  0  0
  2  8  1  0  0  0  0
  3  4  1  0  0  0  0
  4  9  1  0  0  0  0
  4  5  2  0  0  0  0
  5 10  1  0  0  0  0
  6  5  1  0  0  0  0
  6  7  1  0  0  0  0
  8  6  2  0  0  0  0
 11 16  2  0  0  0  0
 11 12  1  0  0  0  0
 12 13  2  0  0  0  0
 13 14  1  0  0  0  0
 13 19  1  0  0  0  0
 15  3  1  0  0  0  0
 15 14  2  0  0  0  0
 16 15  1  0  0  0  0
 17 11  1  0  0  0  0
 18 12  1  0  0  0  0
 20  8  1  0  0  0  0
 20 22  2  0  0  0  0
 21 20  1  0  0  0  0
M  END
>  <minimizedAffinity>
-4.14815855

$$$$

 OpenBabel03272509003D

 22 23  0  0  0  0  0  0  0  0999 V2000
   35.1180   31.0790   32.0430 Cl  0  0  0  0  0  0  0  0  0  0  0  0
   35.8950   29.6300   32.5760 C   0  0  0  0  0  0  0  0  0  0  0  0
   35.8690   29.2950   33.9160 C   0  0  0  0  0  0  0  0  0  0  0  0
   36.4720   28.1570   34.3830 C   0  0  0  0  0  0  0  0  0  0  0  0
   37.1330   27.2970   33.5220 C   0  0  0  0  0  0  0  0  0  0  0  0
   37.1790   27.6040   32.1670 C   0  0  0  0  0  0  0  0  0  0  0  0
   37.9760   26.6170   30.9590 Cl  0  0  0  0  0  0  0  0  0  0  0  0
   36.5520   28.7730   31.7380 C   0  0  0  0  0  0  0  0  0  0  0  0
   36.4290   27.9310   35.4290 H   0  0  0  0  0  0  0  0  0  0  0  0
   37.6250   26.3850   33.8410 H   0  0  0  0  0  0  0  0  0  0  0  0
   33.2320   30.8920   35.9020 C   0  0  0  0  0  0  0  0  0  0  0  0
   33.9360   31.8500   36.6600 C   0  0  0  0  0  0  0  0  0  0  0  0
   35.3230   31.9160   36.4590 C   0  0  0  0  0  0  0  0  0  0  0  0
   35.8940   31.0730   35.5660 N   0  0  0  0  0  0  0  0  0  0  0  0
   35.1860   30.1690   34.8590 C   0  0  0  0  0  0  0  0  0  0  0  0
   33.8560   30.0890   35.0360 N   0  0  0  0  0  0  0  0  0  0  0  0
   32.1580   30.7880   36.0080 H   0  0  0  0  0  0  0  0  0  0  0  0
   33.4290   32.4920   37.3540 H   0  0  0  0  0  0  0  0  0  0  0  0
   35.9160   32.6320   37.0130 H   0  0  0  0  0  0  0  0  0  0  0  0
   36.5560   29.1680   30.3200 C   0  0  0  0  0  0  0  0  0  0  0  0
   35.8520   28.9550   29.5290 H   0  0  0  0  0  0  0  0  0  0  0  0
   37.6390   29.8450   30.2710 O   0  0  0  0  0  0  0  0  0  0  0  0
  1  2  1  0  0  0  0
  2  3  1  0  0  0  0
  3  4  2  0  0  0  0
  3 15  1  0  0  0  0
  4  9  1  0  0  0  0
  5 10  1  0  0  0  0
  5  4  1  0  0  0  0
  6  5  2  0  0  0  0
  7  6  1  0  0  0  0
  8  6  1  0  0  0  0
  8  2  2  0  0  0  0
 11 17  1  0  0  0  0
 11 12  1  0  0  0  0
 12 18  1  0  0  0  0
 13 12  2  0  0  0  0
 13 19  1  0  0  0  0
 14 13  1  0  0  0  0
 15 16  1  0  0  0  0
 15 14  2  0  0  0  0
 16 11  2  0  0  0  0
 20  8  1  0  0  0  0
 21 20  1  0  0  0  0
 22 20  2  0  0  0  0
M  END
>  <minimizedAffinity>
-4.14014292

$$$$

 OpenBabel03272509003D

 22 23  0  0  0  0  0  0  0  0999 V2000
   38.4380   26.9620   35.9010 Cl  0  0  0  0  0  0  0  0  0  0  0  0
   37.9070   26.0510   34.5310 C   0  0  0  0  0  0  0  0  0  0  0  0
   38.1070   24.6840   34.5000 C   0  0  0  0  0  0  0  0  0  0  0  0
   37.7030   23.9240   33.4350 C   0  0  0  0  0  0  0  0  0  0  0  0
   37.0760   24.5020   32.3440 C   0  0  0  0  0  0  0  0  0  0  0  0
   36.8600   25.8750   32.3420 C   0  0  0  0  0  0  0  0  0  0  0  0
   36.0820   26.7480   31.0370 Cl  0  0  0  0  0  0  0  0  0  0  0  0
   37.2880   26.6080   33.4470 C   0  0  0  0  0  0  0  0  0  0  0  0
   37.8760   22.8670   33.4490 H   0  0  0  0  0  0  0  0  0  0  0  0
   36.7380   23.9440   31.4780 H   0  0  0  0  0  0  0  0  0  0  0  0
   38.7210   23.2490   37.8190 C   0  0  0  0  0  0  0  0  0  0  0  0
   40.0500   22.7890   37.7290 C   0  0  0  0  0  0  0  0  0  0  0  0
   40.7060   22.9920   36.5050 C   0  0  0  0  0  0  0  0  0  0  0  0
   40.0360   23.6060   35.5000 N   0  0  0  0  0  0  0  0  0  0  0  0
   38.7630   24.0320   35.6250 C   0  0  0  0  0  0  0  0  0  0  0  0
   38.1170   23.8470   36.7890 N   0  0  0  0  0  0  0  0  0  0  0  0
   38.1570   23.1250   38.7360 H   0  0  0  0  0  0  0  0  0  0  0  0
   40.5310   22.3080   38.5600 H   0  0  0  0  0  0  0  0  0  0  0  0
   41.7270   22.6600   36.3770 H   0  0  0  0  0  0  0  0  0  0  0  0
   37.0950   28.0660   33.5210 C   0  0  0  0  0  0  0  0  0  0  0  0
   37.7340   28.8760   33.2010 H   0  0  0  0  0  0  0  0  0  0  0  0
   35.9460   28.1210   34.0770 O   0  0  0  0  0  0  0  0  0  0  0  0
  2  1  1  0  0  0  0
  3  2  1  0  0  0  0
  3 15  1  0  0  0  0
  4  9  1  0  0  0  0
  4  3  2  0  0  0  0
  5  4  1  0  0  0  0
  6  5  2  0  0  0  0
  6  8  1  0  0  0  0
  7  6  1  0  0  0  0
  8 20  1  0  0  0  0
  8  2  2  0  0  0  0
 10  5  1  0  0  0  0
 11 17  1  0  0  0  0
 12 11  1  0  0  0  0
 12 18  1  0  0  0  0
 13 12  2  0  0  0  0
 14 15  2  0  0  0  0
 14 13  1  0  0  0  0
 15 16  1  0  0  0  0
 16 11  2  0  0  0  0
 19 13  1  0  0  0  0
 20 22  2  0  0  0  0
 21 20  1  0  0  0  0
M  END
>  <minimizedAffinity>
-4.1382761

$$$$

 OpenBabel03272509003D

 22 23  0  0  0  0  0  0  0  0999 V2000
   37.7930   23.5380   33.5230 Cl  0  0  0  0  0  0  0  0  0  0  0  0
   38.8030   24.9400   33.5080 C   0  0  0  0  0  0  0  0  0  0  0  0
   39.3970   25.3670   34.6810 C   0  0  0  0  0  0  0  0  0  0  0  0
   40.2040   26.4720   34.7160 C   0  0  0  0  0  0  0  0  0  0  0  0
   40.4560   27.2070   33.5690 C   0  0  0  0  0  0  0  0  0  0  0  0
   39.8740   26.8070   32.3720 C   0  0  0  0  0  0  0  0  0  0  0  0
   40.0980   27.6320   30.8430 Cl  0  0  0  0  0  0  0  0  0  0  0  0
   39.0600   25.6750   32.3840 C   0  0  0  0  0  0  0  0  0  0  0  0
   40.6470   26.7700   35.6450 H   0  0  0  0  0  0  0  0  0  0  0  0
   41.0870   28.0880   33.5450 H   0  0  0  0  0  0  0  0  0  0  0  0
   37.9460   24.2830   37.8710 C   0  0  0  0  0  0  0  0  0  0  0  0
   38.7560   23.1880   38.2360 C   0  0  0  0  0  0  0  0  0  0  0  0
   39.7950   22.8510   37.3550 C   0  0  0  0  0  0  0  0  0  0  0  0
   39.9570   23.5830   36.2270 N   0  0  0  0  0  0  0  0  0  0  0  0
   39.1610   24.6260   35.9120 C   0  0  0  0  0  0  0  0  0  0  0  0
   38.1600   24.9650   36.7420 N   0  0  0  0  0  0  0  0  0  0  0  0
   37.1260   24.5970   38.5060 H   0  0  0  0  0  0  0  0  0  0  0  0
   38.5790   22.6440   39.1440 H   0  0  0  0  0  0  0  0  0  0  0  0
   40.4480   22.0200   37.5830 H   0  0  0  0  0  0  0  0  0  0  0  0
   38.4080   25.1870   31.1580 C   0  0  0  0  0  0  0  0  0  0  0  0
   38.7410   24.4680   30.4240 H   0  0  0  0  0  0  0  0  0  0  0  0
   37.3190   25.8560   31.1930 O   0  0  0  0  0  0  0  0  0  0  0  0
  2  1  1  0  0  0  0
  2  3  1  0  0  0  0
  3  4  2  0  0  0  0
  3 15  1  0  0  0  0
  4  9  1  0  0  0  0
  5  4  1  0  0  0  0
  6  8  1  0  0  0  0
  6  5  2  0  0  0  0
  7  6  1  0  0  0  0
  8  2  2  0  0  0  0
 10  5  1  0  0  0  0
 11 12  1  0  0  0  0
 11 17  1  0  0  0  0
 12 18  1  0  0  0  0
 13 19  1  0  0  0  0
 13 12  2  0  0  0  0
 14 13  1  0  0  0  0
 15 14  2  0  0  0  0
 15 16  1  0  0  0  0
 16 11  2  0  0  0  0
 20 22  2  0  0  0  0
 20  8  1  0  0  0  0
 21 20  1  0  0  0  0
M  END
>  <minimizedAffinity>
-4.13183784

$$$$

 OpenBabel03272509003D

 22 23  0  0  0  0  0  0  0  0999 V2000
   38.0790   23.6010   36.0540 Cl  0  0  0  0  0  0  0  0  0  0  0  0
   39.7160   24.0360   35.7090 C   0  0  0  0  0  0  0  0  0  0  0  0
   39.9840   25.2270   35.0600 C   0  0  0  0  0  0  0  0  0  0  0  0
   41.2650   25.6120   34.7660 C   0  0  0  0  0  0  0  0  0  0  0  0
   42.3450   24.8160   35.1120 C   0  0  0  0  0  0  0  0  0  0  0  0
   42.1110   23.6120   35.7660 C   0  0  0  0  0  0  0  0  0  0  0  0
   43.3710   22.5010   36.2650 Cl  0  0  0  0  0  0  0  0  0  0  0  0
   40.7910   23.2610   36.0440 C   0  0  0  0  0  0  0  0  0  0  0  0
   41.4310   26.5420   34.2630 H   0  0  0  0  0  0  0  0  0  0  0  0
   43.3760   25.0760   34.9020 H   0  0  0  0  0  0  0  0  0  0  0  0
   37.2410   26.7370   33.1500 C   0  0  0  0  0  0  0  0  0  0  0  0
   36.7920   27.7720   33.9970 C   0  0  0  0  0  0  0  0  0  0  0  0
   37.4620   27.9190   35.2210 C   0  0  0  0  0  0  0  0  0  0  0  0
   38.4800   27.0760   35.5140 N   0  0  0  0  0  0  0  0  0  0  0  0
   38.8800   26.0960   34.6770 C   0  0  0  0  0  0  0  0  0  0  0  0
   38.2520   25.9380   33.5000 N   0  0  0  0  0  0  0  0  0  0  0  0
   36.7680   26.5680   32.1900 H   0  0  0  0  0  0  0  0  0  0  0  0
   35.9780   28.4110   33.7110 H   0  0  0  0  0  0  0  0  0  0  0  0
   37.1610   28.6960   35.9110 H   0  0  0  0  0  0  0  0  0  0  0  0
   40.4620   22.0030   36.7330 C   0  0  0  0  0  0  0  0  0  0  0  0
   40.2310   21.0240   36.3370 H   0  0  0  0  0  0  0  0  0  0  0  0
   40.5210   22.3830   37.9520 O   0  0  0  0  0  0  0  0  0  0  0  0
  2  8  1  0  0  0  0
  2  1  1  0  0  0  0
  3  2  2  0  0  0  0
  4  3  1  0  0  0  0
  4  5  2  0  0  0  0
  5  6  1  0  0  0  0
  6  8  2  0  0  0  0
  6  7  1  0  0  0  0
  8 20  1  0  0  0  0
  9  4  1  0  0  0  0
 10  5  1  0  0  0  0
 11 16  2  0  0  0  0
 11 12  1  0  0  0  0
 12 13  2  0  0  0  0
 13 14  1  0  0  0  0
 13 19  1  0  0  0  0
 15  3  1  0  0  0  0
 15 14  2  0  0  0  0
 16 15  1  0  0  0  0
 17 11  1  0  0  0  0
 18 12  1  0  0  0  0
 20 22  2  0  0  0  0
 21 20  1  0  0  0  0
M  END
>  <minimizedAffinity>
-4.12975359

$$$$
