
 OpenBabel03272504293D

 36 38  0  0  0  0  0  0  0  0999 V2000
   38.0510   25.8890   33.6870 C   0  0  0  0  0  0  0  0  0  0  0  0
   38.0000   27.0040   34.4480 C   0  0  0  0  0  0  0  0  0  0  0  0
   38.9540   27.2710   35.3500 C   0  0  0  0  0  0  0  0  0  0  0  0
   39.9880   26.4010   35.4970 N   0  0  0  0  0  0  0  0  0  0  0  0
   40.0260   25.3090   34.7420 C   0  0  0  0  0  0  0  0  0  0  0  0
   39.0750   25.0330   33.8370 N   0  0  0  0  0  0  0  0  0  0  0  0
   37.1540   27.6650   34.2910 H   0  0  0  0  0  0  0  0  0  0  0  0
   38.8960   28.1680   35.9480 H   0  0  0  0  0  0  0  0  0  0  0  0
   41.1200   23.4470   35.9120 C   0  0  0  0  0  0  0  0  0  0  0  0
   41.1810   24.4640   34.9620 C   0  0  0  0  0  0  0  0  0  0  0  0
   42.3020   24.7560   34.2090 C   0  0  0  0  0  0  0  0  0  0  0  0
   43.4420   24.0050   34.3950 C   0  0  0  0  0  0  0  0  0  0  0  0
   43.4770   22.9810   35.3100 C   0  0  0  0  0  0  0  0  0  0  0  0
   42.3290   22.7690   36.0030 C   0  0  0  0  0  0  0  0  0  0  0  0
   42.3080   25.5540   33.4820 H   0  0  0  0  0  0  0  0  0  0  0  0
   44.3190   24.2460   33.7940 H   0  0  0  0  0  0  0  0  0  0  0  0
   44.3510   22.3940   35.4650 H   0  0  0  0  0  0  0  0  0  0  0  0
   42.3620   21.9470   36.7350 H   0  0  0  0  0  0  0  0  0  0  0  0
   39.7790   23.0480   36.8160 S   0  0  0  0  0  0  0  0  0  0  0  0
   40.5270   22.1950   37.8920 O   0  0  0  0  0  0  0  0  0  0  0  0
   38.9330   22.1230   35.9760 O   0  0  0  0  0  0  0  0  0  0  0  0
   38.6710   23.3670   37.9200 C   0  0  0  0  0  0  0  0  0  0  0  0
   37.3380   22.9040   37.8850 F   0  0  0  0  0  0  0  0  0  0  0  0
   38.1830   24.7470   37.7530 F   0  0  0  0  0  0  0  0  0  0  0  0
   39.0260   23.7500   39.2460 F   0  0  0  0  0  0  0  0  0  0  0  0
   35.4180   26.1820   31.1490 C   0  0  0  0  0  0  0  0  0  0  0  0
   35.1400   24.8350   30.8420 C   0  0  0  0  0  0  0  0  0  0  0  0
   35.8650   23.8610   31.5190 C   0  0  0  0  0  0  0  0  0  0  0  0
   36.7930   24.2670   32.4290 N   0  0  0  0  0  0  0  0  0  0  0  0
   37.0360   25.5780   32.7000 C   0  0  0  0  0  0  0  0  0  0  0  0
   36.3450   26.5240   32.0560 N   0  0  0  0  0  0  0  0  0  0  0  0
   34.8350   26.9210   30.6020 H   0  0  0  0  0  0  0  0  0  0  0  0
   34.3880   24.5780   30.1060 H   0  0  0  0  0  0  0  0  0  0  0  0
   35.6370   22.4570   31.2600 C   0  0  0  0  0  0  0  0  0  0  0  0
   35.7570   22.0860   30.2520 H   0  0  0  0  0  0  0  0  0  0  0  0
   35.3050   21.6780   32.1880 O   0  0  0  0  0  0  0  0  0  0  0  0
  1  6  2  0  0  0  0
  1  2  1  0  0  0  0
  2  3  2  0  0  0  0
  3  4  1  0  0  0  0
  3  8  1  0  0  0  0
  5 10  1  0  0  0  0
  5  4  2  0  0  0  0
  6  5  1  0  0  0  0
  7  2  1  0  0  0  0
  9 14  1  0  0  0  0
  9 19  1  0  0  0  0
 10  9  2  0  0  0  0
 11 12  2  0  0  0  0
 11 10  1  0  0  0  0
 12 13  1  0  0  0  0
 13 17  1  0  0  0  0
 13 14  2  0  0  0  0
 14 18  1  0  0  0  0
 15 11  1  0  0  0  0
 16 12  1  0  0  0  0
 19 20  2  0  0  0  0
 19 22  1  0  0  0  0
 21 19  2  0  0  0  0
 22 25  1  0  0  0  0
 23 22  1  0  0  0  0
 24 22  1  0  0  0  0
 26 31  1  0  0  0  0
 27 26  2  0  0  0  0
 27 28  1  0  0  0  0
 28 29  2  0  0  0  0
 29 30  1  0  0  0  0
 30  1  1  0  0  0  0
 31 30  2  0  0  0  0
 32 26  1  0  0  0  0
 33 27  1  0  0  0  0
 34 28  1  0  0  0  0
 34 36  2  0  0  0  0
 35 34  1  0  0  0  0
M  END
>  <minimizedAffinity>
-6.36813116

$$$$

 OpenBabel03272504293D

 36 38  0  0  0  0  0  0  0  0999 V2000
   36.2080   28.2750   33.3470 C   0  0  0  0  0  0  0  0  0  0  0  0
   36.0710   28.8240   32.1210 C   0  0  0  0  0  0  0  0  0  0  0  0
   35.4540   30.0010   31.9530 C   0  0  0  0  0  0  0  0  0  0  0  0
   34.9580   30.6480   33.0410 N   0  0  0  0  0  0  0  0  0  0  0  0
   35.0990   30.0980   34.2410 C   0  0  0  0  0  0  0  0  0  0  0  0
   35.7160   28.9190   34.4180 N   0  0  0  0  0  0  0  0  0  0  0  0
   36.4850   28.2660   31.2870 H   0  0  0  0  0  0  0  0  0  0  0  0
   35.3550   30.4230   30.9650 H   0  0  0  0  0  0  0  0  0  0  0  0
   33.2300   30.7030   35.7150 C   0  0  0  0  0  0  0  0  0  0  0  0
   34.5580   30.8810   35.3310 C   0  0  0  0  0  0  0  0  0  0  0  0
   35.4160   31.7950   35.9110 C   0  0  0  0  0  0  0  0  0  0  0  0
   34.9490   32.5900   36.9340 C   0  0  0  0  0  0  0  0  0  0  0  0
   33.6540   32.4870   37.3800 C   0  0  0  0  0  0  0  0  0  0  0  0
   32.8850   31.5620   36.7510 C   0  0  0  0  0  0  0  0  0  0  0  0
   36.4400   31.9020   35.5850 H   0  0  0  0  0  0  0  0  0  0  0  0
   35.6370   33.3070   37.3830 H   0  0  0  0  0  0  0  0  0  0  0  0
   33.2790   33.0950   38.1680 H   0  0  0  0  0  0  0  0  0  0  0  0
   31.8480   31.4830   37.1120 H   0  0  0  0  0  0  0  0  0  0  0  0
   32.1760   29.5930   35.0600 S   0  0  0  0  0  0  0  0  0  0  0  0
   30.8670   30.4160   35.2950 O   0  0  0  0  0  0  0  0  0  0  0  0
   32.1590   28.3960   35.9790 O   0  0  0  0  0  0  0  0  0  0  0  0
   31.4450   28.8920   33.8240 C   0  0  0  0  0  0  0  0  0  0  0  0
   31.0200   27.5460   33.7930 F   0  0  0  0  0  0  0  0  0  0  0  0
   32.4280   28.5930   32.7680 F   0  0  0  0  0  0  0  0  0  0  0  0
   30.7520   29.6510   32.8380 F   0  0  0  0  0  0  0  0  0  0  0  0
   37.8280   25.0290   32.8000 C   0  0  0  0  0  0  0  0  0  0  0  0
   38.1530   24.6260   34.1110 C   0  0  0  0  0  0  0  0  0  0  0  0
   37.8030   25.4820   35.1490 C   0  0  0  0  0  0  0  0  0  0  0  0
   37.1740   26.6490   34.8360 N   0  0  0  0  0  0  0  0  0  0  0  0
   36.8770   27.0050   33.5580 C   0  0  0  0  0  0  0  0  0  0  0  0
   37.2070   26.1910   32.5500 N   0  0  0  0  0  0  0  0  0  0  0  0
   38.1140   24.3380   32.0100 H   0  0  0  0  0  0  0  0  0  0  0  0
   38.6540   23.6830   34.2930 H   0  0  0  0  0  0  0  0  0  0  0  0
   38.1020   25.1400   36.5210 C   0  0  0  0  0  0  0  0  0  0  0  0
   38.7710   25.7750   37.0840 H   0  0  0  0  0  0  0  0  0  0  0  0
   37.5950   24.1210   37.0540 O   0  0  0  0  0  0  0  0  0  0  0  0
  1 30  1  0  0  0  0
  1  6  1  0  0  0  0
  2  1  2  0  0  0  0
  3  2  1  0  0  0  0
  3  4  2  0  0  0  0
  4  5  1  0  0  0  0
  5  6  2  0  0  0  0
  5 10  1  0  0  0  0
  7  2  1  0  0  0  0
  8  3  1  0  0  0  0
  9 14  1  0  0  0  0
 10  9  2  0  0  0  0
 10 11  1  0  0  0  0
 11 12  2  0  0  0  0
 12 13  1  0  0  0  0
 12 16  1  0  0  0  0
 13 17  1  0  0  0  0
 14 18  1  0  0  0  0
 14 13  2  0  0  0  0
 15 11  1  0  0  0  0
 19 20  2  0  0  0  0
 19  9  1  0  0  0  0
 19 21  2  0  0  0  0
 22 19  1  0  0  0  0
 23 22  1  0  0  0  0
 24 22  1  0  0  0  0
 25 22  1  0  0  0  0
 26 27  1  0  0  0  0
 27 33  1  0  0  0  0
 27 28  2  0  0  0  0
 28 34  1  0  0  0  0
 29 28  1  0  0  0  0
 30 29  2  0  0  0  0
 31 26  2  0  0  0  0
 31 30  1  0  0  0  0
 32 26  1  0  0  0  0
 34 36  2  0  0  0  0
 34 35  1  0  0  0  0
M  END
>  <minimizedAffinity>
-6.10590649

$$$$

 OpenBabel03272504293D

 36 38  0  0  0  0  0  0  0  0999 V2000
   35.9870   28.3490   32.9580 C   0  0  0  0  0  0  0  0  0  0  0  0
   35.8140   28.9880   31.7810 C   0  0  0  0  0  0  0  0  0  0  0  0
   35.2310   30.1940   31.7260 C   0  0  0  0  0  0  0  0  0  0  0  0
   34.8090   30.7770   32.8790 N   0  0  0  0  0  0  0  0  0  0  0  0
   34.9860   30.1370   34.0290 C   0  0  0  0  0  0  0  0  0  0  0  0
   35.5680   28.9300   34.0930 N   0  0  0  0  0  0  0  0  0  0  0  0
   36.1690   28.4790   30.8900 H   0  0  0  0  0  0  0  0  0  0  0  0
   35.1020   30.6890   30.7760 H   0  0  0  0  0  0  0  0  0  0  0  0
   33.2320   30.6380   35.6750 C   0  0  0  0  0  0  0  0  0  0  0  0
   34.5230   30.8570   35.1970 C   0  0  0  0  0  0  0  0  0  0  0  0
   35.4130   31.7560   35.7520 C   0  0  0  0  0  0  0  0  0  0  0  0
   35.0180   32.4920   36.8470 C   0  0  0  0  0  0  0  0  0  0  0  0
   33.7640   32.3460   37.3880 C   0  0  0  0  0  0  0  0  0  0  0  0
   32.9590   31.4400   36.7760 C   0  0  0  0  0  0  0  0  0  0  0  0
   36.4060   31.8960   35.3520 H   0  0  0  0  0  0  0  0  0  0  0  0
   35.7310   33.1970   37.2760 H   0  0  0  0  0  0  0  0  0  0  0  0
   33.4450   32.9080   38.2330 H   0  0  0  0  0  0  0  0  0  0  0  0
   31.9560   31.3260   37.2130 H   0  0  0  0  0  0  0  0  0  0  0  0
   32.1430   29.5440   35.0500 S   0  0  0  0  0  0  0  0  0  0  0  0
   30.8590   30.4070   35.2770 O   0  0  0  0  0  0  0  0  0  0  0  0
   32.1020   28.3670   35.9930 O   0  0  0  0  0  0  0  0  0  0  0  0
   31.3840   28.8390   33.8340 C   0  0  0  0  0  0  0  0  0  0  0  0
   30.9700   27.4890   33.8130 F   0  0  0  0  0  0  0  0  0  0  0  0
   32.3400   28.5490   32.7510 F   0  0  0  0  0  0  0  0  0  0  0  0
   30.6580   29.5930   32.8680 F   0  0  0  0  0  0  0  0  0  0  0  0
   38.0030   25.4950   34.0790 C   0  0  0  0  0  0  0  0  0  0  0  0
   37.7430   24.5300   33.0860 C   0  0  0  0  0  0  0  0  0  0  0  0
   36.8820   24.8890   32.0550 C   0  0  0  0  0  0  0  0  0  0  0  0
   36.3470   26.1400   32.0690 N   0  0  0  0  0  0  0  0  0  0  0  0
   36.6200   27.0470   33.0460 C   0  0  0  0  0  0  0  0  0  0  0  0
   37.4470   26.7150   34.0430 N   0  0  0  0  0  0  0  0  0  0  0  0
   38.6800   25.1850   34.8730 H   0  0  0  0  0  0  0  0  0  0  0  0
   38.2020   23.5500   33.1320 H   0  0  0  0  0  0  0  0  0  0  0  0
   36.5660   23.9540   30.9980 C   0  0  0  0  0  0  0  0  0  0  0  0
   35.6800   24.1200   30.4020 H   0  0  0  0  0  0  0  0  0  0  0  0
   37.3070   22.9640   30.7730 O   0  0  0  0  0  0  0  0  0  0  0  0
  1 30  1  0  0  0  0
  1  6  1  0  0  0  0
  2  1  2  0  0  0  0
  3  2  1  0  0  0  0
  3  4  2  0  0  0  0
  4  5  1  0  0  0  0
  5  6  2  0  0  0  0
  5 10  1  0  0  0  0
  7  2  1  0  0  0  0
  8  3  1  0  0  0  0
  9 14  1  0  0  0  0
 10  9  2  0  0  0  0
 10 11  1  0  0  0  0
 11 12  2  0  0  0  0
 12 16  1  0  0  0  0
 12 13  1  0  0  0  0
 13 17  1  0  0  0  0
 14 18  1  0  0  0  0
 14 13  2  0  0  0  0
 15 11  1  0  0  0  0
 19 20  2  0  0  0  0
 19  9  1  0  0  0  0
 19 21  2  0  0  0  0
 22 19  1  0  0  0  0
 23 22  1  0  0  0  0
 24 22  1  0  0  0  0
 25 22  1  0  0  0  0
 26 32  1  0  0  0  0
 27 33  1  0  0  0  0
 27 26  2  0  0  0  0
 28 29  2  0  0  0  0
 28 27  1  0  0  0  0
 29 30  1  0  0  0  0
 30 31  2  0  0  0  0
 31 26  1  0  0  0  0
 34 28  1  0  0  0  0
 35 34  1  0  0  0  0
 36 34  2  0  0  0  0
M  END
>  <minimizedAffinity>
-5.88398504

$$$$

 OpenBabel03272504293D

 36 38  0  0  0  0  0  0  0  0999 V2000
   35.1430   29.2780   32.1940 C   0  0  0  0  0  0  0  0  0  0  0  0
   35.9080   29.5490   31.1140 C   0  0  0  0  0  0  0  0  0  0  0  0
   37.1380   29.0310   30.9890 C   0  0  0  0  0  0  0  0  0  0  0  0
   37.6170   28.2210   31.9700 N   0  0  0  0  0  0  0  0  0  0  0  0
   36.8550   27.9630   33.0250 C   0  0  0  0  0  0  0  0  0  0  0  0
   35.6230   28.4780   33.1590 N   0  0  0  0  0  0  0  0  0  0  0  0
   35.4780   30.2000   30.3600 H   0  0  0  0  0  0  0  0  0  0  0  0
   37.7330   29.2590   30.1180 H   0  0  0  0  0  0  0  0  0  0  0  0
   37.5570   25.7120   33.7110 C   0  0  0  0  0  0  0  0  0  0  0  0
   37.4510   27.0710   33.9970 C   0  0  0  0  0  0  0  0  0  0  0  0
   37.8600   27.6480   35.1840 C   0  0  0  0  0  0  0  0  0  0  0  0
   38.4080   26.8450   36.1600 C   0  0  0  0  0  0  0  0  0  0  0  0
   38.5520   25.4920   35.9690 C   0  0  0  0  0  0  0  0  0  0  0  0
   38.1230   25.0160   34.7720 C   0  0  0  0  0  0  0  0  0  0  0  0
   37.7600   28.7070   35.3670 H   0  0  0  0  0  0  0  0  0  0  0  0
   38.7260   27.3130   37.0920 H   0  0  0  0  0  0  0  0  0  0  0  0
   38.9730   24.8590   36.7140 H   0  0  0  0  0  0  0  0  0  0  0  0
   38.2410   23.9310   34.6240 H   0  0  0  0  0  0  0  0  0  0  0  0
   37.1040   24.9870   32.2820 S   0  0  0  0  0  0  0  0  0  0  0  0
   37.0430   23.5220   32.8270 O   0  0  0  0  0  0  0  0  0  0  0  0
   38.2730   25.0970   31.3340 O   0  0  0  0  0  0  0  0  0  0  0  0
   36.0160   24.5660   31.1910 C   0  0  0  0  0  0  0  0  0  0  0  0
   35.2950   25.4670   30.3780 F   0  0  0  0  0  0  0  0  0  0  0  0
   34.7590   24.1860   31.8620 F   0  0  0  0  0  0  0  0  0  0  0  0
   35.9980   23.2610   30.6180 F   0  0  0  0  0  0  0  0  0  0  0  0
   32.0820   31.2520   31.7520 C   0  0  0  0  0  0  0  0  0  0  0  0
   31.2440   30.7460   32.7670 C   0  0  0  0  0  0  0  0  0  0  0  0
   31.7570   29.7390   33.5770 C   0  0  0  0  0  0  0  0  0  0  0  0
   33.0270   29.3080   33.3410 N   0  0  0  0  0  0  0  0  0  0  0  0
   33.8070   29.8200   32.3520 C   0  0  0  0  0  0  0  0  0  0  0  0
   33.3260   30.7890   31.5650 N   0  0  0  0  0  0  0  0  0  0  0  0
   31.6520   32.0380   31.1350 H   0  0  0  0  0  0  0  0  0  0  0  0
   30.2420   31.1330   32.9020 H   0  0  0  0  0  0  0  0  0  0  0  0
   30.9600   29.1690   34.6400 C   0  0  0  0  0  0  0  0  0  0  0  0
   30.6140   29.8120   35.4360 H   0  0  0  0  0  0  0  0  0  0  0  0
   30.6720   27.9460   34.6410 O   0  0  0  0  0  0  0  0  0  0  0  0
  1 30  1  0  0  0  0
  1  6  1  0  0  0  0
  2  1  2  0  0  0  0
  3  2  1  0  0  0  0
  3  4  2  0  0  0  0
  4  5  1  0  0  0  0
  5  6  2  0  0  0  0
  5 10  1  0  0  0  0
  7  2  1  0  0  0  0
  8  3  1  0  0  0  0
  9 10  2  0  0  0  0
  9 14  1  0  0  0  0
 10 11  1  0  0  0  0
 11 15  1  0  0  0  0
 11 12  2  0  0  0  0
 12 16  1  0  0  0  0
 13 12  1  0  0  0  0
 13 17  1  0  0  0  0
 14 13  2  0  0  0  0
 18 14  1  0  0  0  0
 19 20  2  0  0  0  0
 19  9  1  0  0  0  0
 21 19  2  0  0  0  0
 22 24  1  0  0  0  0
 22 19  1  0  0  0  0
 23 22  1  0  0  0  0
 25 22  1  0  0  0  0
 26 27  1  0  0  0  0
 27 33  1  0  0  0  0
 27 28  2  0  0  0  0
 28 34  1  0  0  0  0
 29 28  1  0  0  0  0
 30 29  2  0  0  0  0
 31 26  2  0  0  0  0
 31 30  1  0  0  0  0
 32 26  1  0  0  0  0
 34 36  2  0  0  0  0
 34 35  1  0  0  0  0
M  END
>  <minimizedAffinity>
-5.83057451

$$$$

 OpenBabel03272504293D

 36 38  0  0  0  0  0  0  0  0999 V2000
   36.6210   29.2480   31.0740 C   0  0  0  0  0  0  0  0  0  0  0  0
   35.4260   29.7440   31.4610 C   0  0  0  0  0  0  0  0  0  0  0  0
   34.8800   29.3990   32.6350 C   0  0  0  0  0  0  0  0  0  0  0  0
   35.5450   28.5330   33.4450 N   0  0  0  0  0  0  0  0  0  0  0  0
   36.7190   28.0530   33.0520 C   0  0  0  0  0  0  0  0  0  0  0  0
   37.2740   28.3930   31.8790 N   0  0  0  0  0  0  0  0  0  0  0  0
   34.9370   30.4310   30.7770 H   0  0  0  0  0  0  0  0  0  0  0  0
   33.9240   29.8060   32.9260 H   0  0  0  0  0  0  0  0  0  0  0  0
   37.5010   25.8120   33.6820 C   0  0  0  0  0  0  0  0  0  0  0  0
   37.3530   27.1600   33.9990 C   0  0  0  0  0  0  0  0  0  0  0  0
   37.7520   27.7240   35.1960 C   0  0  0  0  0  0  0  0  0  0  0  0
   38.3340   26.9180   36.1490 C   0  0  0  0  0  0  0  0  0  0  0  0
   38.5210   25.5750   35.9270 C   0  0  0  0  0  0  0  0  0  0  0  0
   38.0980   25.1110   34.7240 C   0  0  0  0  0  0  0  0  0  0  0  0
   37.6200   28.7750   35.4030 H   0  0  0  0  0  0  0  0  0  0  0  0
   38.6450   27.3760   37.0890 H   0  0  0  0  0  0  0  0  0  0  0  0
   38.9690   24.9400   36.6540 H   0  0  0  0  0  0  0  0  0  0  0  0
   38.2500   24.0350   34.5500 H   0  0  0  0  0  0  0  0  0  0  0  0
   37.0600   25.1040   32.2410 S   0  0  0  0  0  0  0  0  0  0  0  0
   37.0490   23.6260   32.7540 O   0  0  0  0  0  0  0  0  0  0  0  0
   38.2180   25.2710   31.2880 O   0  0  0  0  0  0  0  0  0  0  0  0
   35.9770   24.6720   31.1490 C   0  0  0  0  0  0  0  0  0  0  0  0
   35.2380   25.5670   30.3460 F   0  0  0  0  0  0  0  0  0  0  0  0
   34.7300   24.2630   31.8190 F   0  0  0  0  0  0  0  0  0  0  0  0
   35.9820   23.3730   30.5640 F   0  0  0  0  0  0  0  0  0  0  0  0
   37.6230   31.0730   28.0530 C   0  0  0  0  0  0  0  0  0  0  0  0
   38.4860   30.1580   27.4170 C   0  0  0  0  0  0  0  0  0  0  0  0
   38.6980   28.9360   28.0440 C   0  0  0  0  0  0  0  0  0  0  0  0
   38.0650   28.7010   29.2270 N   0  0  0  0  0  0  0  0  0  0  0  0
   37.2380   29.6090   29.8120 C   0  0  0  0  0  0  0  0  0  0  0  0
   37.0250   30.7880   29.2190 N   0  0  0  0  0  0  0  0  0  0  0  0
   37.4770   32.0200   27.5380 H   0  0  0  0  0  0  0  0  0  0  0  0
   38.9600   30.4060   26.4750 H   0  0  0  0  0  0  0  0  0  0  0  0
   39.5700   27.9450   27.4540 C   0  0  0  0  0  0  0  0  0  0  0  0
   39.1870   27.3190   26.6600 H   0  0  0  0  0  0  0  0  0  0  0  0
   40.7530   27.8090   27.8550 O   0  0  0  0  0  0  0  0  0  0  0  0
  1  2  2  0  0  0  0
  1  6  1  0  0  0  0
  2  3  1  0  0  0  0
  3  8  1  0  0  0  0
  3  4  2  0  0  0  0
  5  4  1  0  0  0  0
  5 10  1  0  0  0  0
  6  5  2  0  0  0  0
  7  2  1  0  0  0  0
  9 10  2  0  0  0  0
  9 14  1  0  0  0  0
 10 11  1  0  0  0  0
 11 15  1  0  0  0  0
 11 12  2  0  0  0  0
 12 16  1  0  0  0  0
 13 12  1  0  0  0  0
 13 17  1  0  0  0  0
 14 13  2  0  0  0  0
 18 14  1  0  0  0  0
 19 20  2  0  0  0  0
 19  9  1  0  0  0  0
 21 19  2  0  0  0  0
 22 24  1  0  0  0  0
 22 19  1  0  0  0  0
 23 22  1  0  0  0  0
 25 22  1  0  0  0  0
 26 31  1  0  0  0  0
 27 28  1  0  0  0  0
 27 26  2  0  0  0  0
 28 29  2  0  0  0  0
 29 30  1  0  0  0  0
 30  1  1  0  0  0  0
 31 30  2  0  0  0  0
 32 26  1  0  0  0  0
 33 27  1  0  0  0  0
 34 36  2  0  0  0  0
 34 28  1  0  0  0  0
 35 34  1  0  0  0  0
M  END
>  <minimizedAffinity>
-5.69606829

$$$$

 OpenBabel03272504293D

 36 38  0  0  0  0  0  0  0  0999 V2000
   37.0590   27.5770   32.9760 C   0  0  0  0  0  0  0  0  0  0  0  0
   37.9380   27.7420   31.9640 C   0  0  0  0  0  0  0  0  0  0  0  0
   38.9360   26.8710   31.7640 C   0  0  0  0  0  0  0  0  0  0  0  0
   39.0610   25.8060   32.5990 N   0  0  0  0  0  0  0  0  0  0  0  0
   38.1910   25.6550   33.5900 C   0  0  0  0  0  0  0  0  0  0  0  0
   37.1880   26.5230   33.7980 N   0  0  0  0  0  0  0  0  0  0  0  0
   37.7930   28.6090   31.3270 H   0  0  0  0  0  0  0  0  0  0  0  0
   39.6280   27.0200   30.9490 H   0  0  0  0  0  0  0  0  0  0  0  0
   37.9690   23.2340   33.9400 C   0  0  0  0  0  0  0  0  0  0  0  0
   38.4000   24.4760   34.4030 C   0  0  0  0  0  0  0  0  0  0  0  0
   39.0060   24.6790   35.6270 C   0  0  0  0  0  0  0  0  0  0  0  0
   39.2050   23.5990   36.4580 C   0  0  0  0  0  0  0  0  0  0  0  0
   38.8120   22.3360   36.0890 C   0  0  0  0  0  0  0  0  0  0  0  0
   38.2260   22.2330   34.8690 C   0  0  0  0  0  0  0  0  0  0  0  0
   39.3270   25.6590   35.9490 H   0  0  0  0  0  0  0  0  0  0  0  0
   39.6860   23.7730   37.4220 H   0  0  0  0  0  0  0  0  0  0  0  0
   38.9590   21.4920   36.7200 H   0  0  0  0  0  0  0  0  0  0  0  0
   37.9130   21.2190   34.5770 H   0  0  0  0  0  0  0  0  0  0  0  0
   37.2610   22.9470   32.4600 S   0  0  0  0  0  0  0  0  0  0  0  0
   36.2450   21.8620   32.9460 O   0  0  0  0  0  0  0  0  0  0  0  0
   38.2980   22.2770   31.5920 O   0  0  0  0  0  0  0  0  0  0  0  0
   36.2350   23.3020   31.2890 C   0  0  0  0  0  0  0  0  0  0  0  0
   36.3450   24.4140   30.4270 F   0  0  0  0  0  0  0  0  0  0  0  0
   35.0070   23.8830   31.8610 F   0  0  0  0  0  0  0  0  0  0  0  0
   35.3880   22.3120   30.7120 F   0  0  0  0  0  0  0  0  0  0  0  0
   33.9010   29.4220   32.6920 C   0  0  0  0  0  0  0  0  0  0  0  0
   33.9640   30.3060   33.7880 C   0  0  0  0  0  0  0  0  0  0  0  0
   35.0950   30.2440   34.5950 C   0  0  0  0  0  0  0  0  0  0  0  0
   36.0620   29.3390   34.2790 N   0  0  0  0  0  0  0  0  0  0  0  0
   35.9670   28.5010   33.2120 C   0  0  0  0  0  0  0  0  0  0  0  0
   34.8850   28.5510   32.4270 N   0  0  0  0  0  0  0  0  0  0  0  0
   33.0040   29.4950   32.0790 H   0  0  0  0  0  0  0  0  0  0  0  0
   33.1590   31.0030   33.9860 H   0  0  0  0  0  0  0  0  0  0  0  0
   35.2340   31.1170   35.7390 C   0  0  0  0  0  0  0  0  0  0  0  0
   34.3960   31.2350   36.4110 H   0  0  0  0  0  0  0  0  0  0  0  0
   36.3100   31.7310   35.9510 O   0  0  0  0  0  0  0  0  0  0  0  0
  1 30  1  0  0  0  0
  1  6  1  0  0  0  0
  2  1  2  0  0  0  0
  3  2  1  0  0  0  0
  3  4  2  0  0  0  0
  4  5  1  0  0  0  0
  5  6  2  0  0  0  0
  5 10  1  0  0  0  0
  7  2  1  0  0  0  0
  8  3  1  0  0  0  0
  9 10  2  0  0  0  0
  9 14  1  0  0  0  0
 10 11  1  0  0  0  0
 11 15  1  0  0  0  0
 11 12  2  0  0  0  0
 12 16  1  0  0  0  0
 13 12  1  0  0  0  0
 13 17  1  0  0  0  0
 14 13  2  0  0  0  0
 18 14  1  0  0  0  0
 19 20  2  0  0  0  0
 19  9  1  0  0  0  0
 21 19  2  0  0  0  0
 22 24  1  0  0  0  0
 22 19  1  0  0  0  0
 23 22  1  0  0  0  0
 25 22  1  0  0  0  0
 26 27  1  0  0  0  0
 27 33  1  0  0  0  0
 27 28  2  0  0  0  0
 28 34  1  0  0  0  0
 29 28  1  0  0  0  0
 30 29  2  0  0  0  0
 31 26  2  0  0  0  0
 31 30  1  0  0  0  0
 32 26  1  0  0  0  0
 34 36  2  0  0  0  0
 34 35  1  0  0  0  0
M  END
>  <minimizedAffinity>
-5.68457222

$$$$

 OpenBabel03272504293D

 36 38  0  0  0  0  0  0  0  0999 V2000
   38.1820   25.4460   33.1110 C   0  0  0  0  0  0  0  0  0  0  0  0
   37.8580   24.4950   32.2070 C   0  0  0  0  0  0  0  0  0  0  0  0
   38.5620   23.3590   32.1140 C   0  0  0  0  0  0  0  0  0  0  0  0
   39.6200   23.1670   32.9470 N   0  0  0  0  0  0  0  0  0  0  0  0
   39.9270   24.1090   33.8300 C   0  0  0  0  0  0  0  0  0  0  0  0
   39.2280   25.2500   33.9300 N   0  0  0  0  0  0  0  0  0  0  0  0
   37.0050   24.6990   31.5670 H   0  0  0  0  0  0  0  0  0  0  0  0
   38.2880   22.6120   31.3860 H   0  0  0  0  0  0  0  0  0  0  0  0
   40.8310   23.3700   35.9910 C   0  0  0  0  0  0  0  0  0  0  0  0
   41.0540   23.7930   34.6830 C   0  0  0  0  0  0  0  0  0  0  0  0
   42.3070   23.9650   34.1260 C   0  0  0  0  0  0  0  0  0  0  0  0
   43.4180   23.7080   34.8980 C   0  0  0  0  0  0  0  0  0  0  0  0
   43.2970   23.2880   36.2000 C   0  0  0  0  0  0  0  0  0  0  0  0
   42.0280   23.1470   36.6600 C   0  0  0  0  0  0  0  0  0  0  0  0
   42.4370   24.2940   33.1060 H   0  0  0  0  0  0  0  0  0  0  0  0
   44.4000   23.8480   34.4460 H   0  0  0  0  0  0  0  0  0  0  0  0
   44.1470   23.0870   36.8090 H   0  0  0  0  0  0  0  0  0  0  0  0
   41.9370   22.8100   37.7040 H   0  0  0  0  0  0  0  0  0  0  0  0
   39.3380   23.1230   36.6860 S   0  0  0  0  0  0  0  0  0  0  0  0
   39.8540   22.7660   38.1180 O   0  0  0  0  0  0  0  0  0  0  0  0
   38.7550   21.8790   36.0630 O   0  0  0  0  0  0  0  0  0  0  0  0
   37.9890   23.6440   37.3650 C   0  0  0  0  0  0  0  0  0  0  0  0
   37.0670   24.5260   36.7600 F   0  0  0  0  0  0  0  0  0  0  0  0
   38.3020   24.6790   38.3670 F   0  0  0  0  0  0  0  0  0  0  0  0
   37.3640   22.9310   38.4290 F   0  0  0  0  0  0  0  0  0  0  0  0
   36.3440   28.3120   34.4780 C   0  0  0  0  0  0  0  0  0  0  0  0
   36.0250   29.0500   33.3200 C   0  0  0  0  0  0  0  0  0  0  0  0
   36.4500   28.5390   32.0990 C   0  0  0  0  0  0  0  0  0  0  0  0
   37.1440   27.3670   32.0980 N   0  0  0  0  0  0  0  0  0  0  0  0
   37.4340   26.6820   33.2360 C   0  0  0  0  0  0  0  0  0  0  0  0
   37.0310   27.1620   34.4180 N   0  0  0  0  0  0  0  0  0  0  0  0
   35.9980   28.7370   35.4180 H   0  0  0  0  0  0  0  0  0  0  0  0
   35.4700   29.9770   33.3890 H   0  0  0  0  0  0  0  0  0  0  0  0
   36.1630   29.2380   30.8660 C   0  0  0  0  0  0  0  0  0  0  0  0
   36.6130   28.8860   29.9490 H   0  0  0  0  0  0  0  0  0  0  0  0
   35.4020   30.2380   30.8570 O   0  0  0  0  0  0  0  0  0  0  0  0
  1 30  1  0  0  0  0
  1  6  1  0  0  0  0
  2  1  2  0  0  0  0
  3  2  1  0  0  0  0
  3  4  2  0  0  0  0
  4  5  1  0  0  0  0
  5  6  2  0  0  0  0
  5 10  1  0  0  0  0
  7  2  1  0  0  0  0
  8  3  1  0  0  0  0
  9 14  1  0  0  0  0
  9 19  1  0  0  0  0
 10  9  2  0  0  0  0
 11 10  1  0  0  0  0
 11 12  2  0  0  0  0
 12 13  1  0  0  0  0
 13 14  2  0  0  0  0
 13 17  1  0  0  0  0
 14 18  1  0  0  0  0
 15 11  1  0  0  0  0
 16 12  1  0  0  0  0
 19 22  1  0  0  0  0
 19 20  2  0  0  0  0
 21 19  2  0  0  0  0
 22 24  1  0  0  0  0
 22 25  1  0  0  0  0
 23 22  1  0  0  0  0
 26 32  1  0  0  0  0
 27 33  1  0  0  0  0
 27 26  2  0  0  0  0
 28 27  1  0  0  0  0
 29 28  2  0  0  0  0
 29 30  1  0  0  0  0
 30 31  2  0  0  0  0
 31 26  1  0  0  0  0
 34 28  1  0  0  0  0
 35 34  1  0  0  0  0
 36 34  2  0  0  0  0
M  END
>  <minimizedAffinity>
-5.66341114

$$$$

 OpenBabel03272504293D

 36 38  0  0  0  0  0  0  0  0999 V2000
   36.0960   28.6040   32.3940 C   0  0  0  0  0  0  0  0  0  0  0  0
   36.9190   29.0580   31.4240 C   0  0  0  0  0  0  0  0  0  0  0  0
   37.6990   28.2190   30.7290 C   0  0  0  0  0  0  0  0  0  0  0  0
   37.6570   26.8900   31.0110 N   0  0  0  0  0  0  0  0  0  0  0  0
   36.8430   26.4570   31.9660 C   0  0  0  0  0  0  0  0  0  0  0  0
   36.0590   27.2900   32.6680 N   0  0  0  0  0  0  0  0  0  0  0  0
   36.9140   30.1270   31.2390 H   0  0  0  0  0  0  0  0  0  0  0  0
   38.3500   28.6010   29.9580 H   0  0  0  0  0  0  0  0  0  0  0  0
   37.6980   24.4720   33.1320 C   0  0  0  0  0  0  0  0  0  0  0  0
   36.8580   25.0240   32.1670 C   0  0  0  0  0  0  0  0  0  0  0  0
   36.0320   24.2830   31.3440 C   0  0  0  0  0  0  0  0  0  0  0  0
   36.0250   22.9120   31.4680 C   0  0  0  0  0  0  0  0  0  0  0  0
   36.8210   22.2770   32.3910 C   0  0  0  0  0  0  0  0  0  0  0  0
   37.5980   23.0860   33.1550 C   0  0  0  0  0  0  0  0  0  0  0  0
   35.3940   24.7500   30.6080 H   0  0  0  0  0  0  0  0  0  0  0  0
   35.3680   22.3400   30.8130 H   0  0  0  0  0  0  0  0  0  0  0  0
   36.8260   21.2190   32.4980 H   0  0  0  0  0  0  0  0  0  0  0  0
   38.2340   22.5730   33.8930 H   0  0  0  0  0  0  0  0  0  0  0  0
   38.6850   25.3330   34.1610 S   0  0  0  0  0  0  0  0  0  0  0  0
   39.9930   25.2090   33.3130 O   0  0  0  0  0  0  0  0  0  0  0  0
   38.8480   24.5110   35.4160 O   0  0  0  0  0  0  0  0  0  0  0  0
   39.2650   26.6980   34.7530 C   0  0  0  0  0  0  0  0  0  0  0  0
   38.4820   27.7540   35.2680 F   0  0  0  0  0  0  0  0  0  0  0  0
   39.7000   27.5740   33.6500 F   0  0  0  0  0  0  0  0  0  0  0  0
   40.6030   26.7950   35.2350 F   0  0  0  0  0  0  0  0  0  0  0  0
   33.2090   30.5390   33.5690 C   0  0  0  0  0  0  0  0  0  0  0  0
   33.7220   31.1900   34.7090 C   0  0  0  0  0  0  0  0  0  0  0  0
   35.0500   30.9460   35.0420 C   0  0  0  0  0  0  0  0  0  0  0  0
   35.7660   30.0990   34.2520 N   0  0  0  0  0  0  0  0  0  0  0  0
   35.2360   29.4880   33.1580 C   0  0  0  0  0  0  0  0  0  0  0  0
   33.9610   29.7140   32.8260 N   0  0  0  0  0  0  0  0  0  0  0  0
   32.1670   30.7500   33.3350 H   0  0  0  0  0  0  0  0  0  0  0  0
   33.0990   31.8530   35.2960 H   0  0  0  0  0  0  0  0  0  0  0  0
   35.6490   31.5760   36.1970 C   0  0  0  0  0  0  0  0  0  0  0  0
   36.6820   31.3620   36.4310 H   0  0  0  0  0  0  0  0  0  0  0  0
   34.9830   32.3590   36.9190 O   0  0  0  0  0  0  0  0  0  0  0  0
  1  6  1  0  0  0  0
  1 30  1  0  0  0  0
  2  1  2  0  0  0  0
  3  4  2  0  0  0  0
  3  2  1  0  0  0  0
  4  5  1  0  0  0  0
  5 10  1  0  0  0  0
  5  6  2  0  0  0  0
  7  2  1  0  0  0  0
  8  3  1  0  0  0  0
  9 14  1  0  0  0  0
  9 19  1  0  0  0  0
 10  9  2  0  0  0  0
 11 12  2  0  0  0  0
 11 10  1  0  0  0  0
 12 13  1  0  0  0  0
 13 17  1  0  0  0  0
 13 14  2  0  0  0  0
 14 18  1  0  0  0  0
 15 11  1  0  0  0  0
 16 12  1  0  0  0  0
 19 22  1  0  0  0  0
 19 21  2  0  0  0  0
 20 19  2  0  0  0  0
 22 25  1  0  0  0  0
 22 23  1  0  0  0  0
 24 22  1  0  0  0  0
 26 27  1  0  0  0  0
 27 28  2  0  0  0  0
 27 33  1  0  0  0  0
 28 34  1  0  0  0  0
 29 28  1  0  0  0  0
 30 29  2  0  0  0  0
 31 30  1  0  0  0  0
 31 26  2  0  0  0  0
 32 26  1  0  0  0  0
 34 35  1  0  0  0  0
 34 36  2  0  0  0  0
M  END
>  <minimizedAffinity>
-5.59565353

$$$$

 OpenBabel03272504293D

 36 38  0  0  0  0  0  0  0  0999 V2000
   37.3900   25.6660   31.1680 C   0  0  0  0  0  0  0  0  0  0  0  0
   38.4740   25.3930   30.4080 C   0  0  0  0  0  0  0  0  0  0  0  0
   38.8950   24.1340   30.2280 C   0  0  0  0  0  0  0  0  0  0  0  0
   38.2150   23.1180   30.8230 N   0  0  0  0  0  0  0  0  0  0  0  0
   37.1520   23.4000   31.5660 C   0  0  0  0  0  0  0  0  0  0  0  0
   36.7240   24.6580   31.7530 N   0  0  0  0  0  0  0  0  0  0  0  0
   38.9790   26.2410   29.9560 H   0  0  0  0  0  0  0  0  0  0  0  0
   39.7620   23.9370   29.6170 H   0  0  0  0  0  0  0  0  0  0  0  0
   36.8580   21.7890   33.3970 C   0  0  0  0  0  0  0  0  0  0  0  0
   36.4890   22.2440   32.1330 C   0  0  0  0  0  0  0  0  0  0  0  0
   35.5280   21.6440   31.3420 C   0  0  0  0  0  0  0  0  0  0  0  0
   34.8840   20.5220   31.8150 C   0  0  0  0  0  0  0  0  0  0  0  0
   35.1810   19.9990   33.0500 C   0  0  0  0  0  0  0  0  0  0  0  0
   36.1370   20.6560   33.7550 C   0  0  0  0  0  0  0  0  0  0  0  0
   35.2710   22.0290   30.3670 H   0  0  0  0  0  0  0  0  0  0  0  0
   34.1270   20.0580   31.1810 H   0  0  0  0  0  0  0  0  0  0  0  0
   34.6920   19.1330   33.4280 H   0  0  0  0  0  0  0  0  0  0  0  0
   36.3720   20.2330   34.7430 H   0  0  0  0  0  0  0  0  0  0  0  0
   37.9880   22.5020   34.3890 S   0  0  0  0  0  0  0  0  0  0  0  0
   39.2250   21.6970   33.8730 O   0  0  0  0  0  0  0  0  0  0  0  0
   37.6850   22.0630   35.8010 O   0  0  0  0  0  0  0  0  0  0  0  0
   38.9910   23.6860   34.7710 C   0  0  0  0  0  0  0  0  0  0  0  0
   40.0930   23.5620   35.6450 F   0  0  0  0  0  0  0  0  0  0  0  0
   38.3450   24.5940   35.7360 F   0  0  0  0  0  0  0  0  0  0  0  0
   39.1480   24.8300   33.9370 F   0  0  0  0  0  0  0  0  0  0  0  0
   36.3060   29.1280   30.6190 C   0  0  0  0  0  0  0  0  0  0  0  0
   35.9790   29.5550   31.9210 C   0  0  0  0  0  0  0  0  0  0  0  0
   36.1420   28.6390   32.9550 C   0  0  0  0  0  0  0  0  0  0  0  0
   36.6040   27.3950   32.6460 N   0  0  0  0  0  0  0  0  0  0  0  0
   36.9100   27.0180   31.3750 C   0  0  0  0  0  0  0  0  0  0  0  0
   36.7580   27.8890   30.3720 N   0  0  0  0  0  0  0  0  0  0  0  0
   36.1680   29.8670   29.8320 H   0  0  0  0  0  0  0  0  0  0  0  0
   35.6160   30.5590   32.1000 H   0  0  0  0  0  0  0  0  0  0  0  0
   35.8280   29.0010   34.3180 C   0  0  0  0  0  0  0  0  0  0  0  0
   35.8540   28.2360   35.0810 H   0  0  0  0  0  0  0  0  0  0  0  0
   35.5280   30.1840   34.6160 O   0  0  0  0  0  0  0  0  0  0  0  0
  1 30  1  0  0  0  0
  1  6  1  0  0  0  0
  2  1  2  0  0  0  0
  3  2  1  0  0  0  0
  3  4  2  0  0  0  0
  4  5  1  0  0  0  0
  5  6  2  0  0  0  0
  5 10  1  0  0  0  0
  7  2  1  0  0  0  0
  8  3  1  0  0  0  0
  9 14  1  0  0  0  0
  9 19  1  0  0  0  0
 10  9  2  0  0  0  0
 11 12  2  0  0  0  0
 11 10  1  0  0  0  0
 12 13  1  0  0  0  0
 13 17  1  0  0  0  0
 13 14  2  0  0  0  0
 14 18  1  0  0  0  0
 15 11  1  0  0  0  0
 16 12  1  0  0  0  0
 19 22  1  0  0  0  0
 19 21  2  0  0  0  0
 20 19  2  0  0  0  0
 22 23  1  0  0  0  0
 22 24  1  0  0  0  0
 25 22  1  0  0  0  0
 26 27  1  0  0  0  0
 27 33  1  0  0  0  0
 27 28  2  0  0  0  0
 28 34  1  0  0  0  0
 29 28  1  0  0  0  0
 30 29  2  0  0  0  0
 31 26  2  0  0  0  0
 31 30  1  0  0  0  0
 32 26  1  0  0  0  0
 34 36  2  0  0  0  0
 34 35  1  0  0  0  0
M  END
>  <minimizedAffinity>
-5.57972288

$$$$
