
 OpenBabel03272500063D

 33 35  0  0  0  0  0  0  0  0999 V2000
   35.4400   28.8680   49.1450 C   0  0  0  0  0  0  0  0  0  0  0  0
   35.3660   30.0540   48.3940 C   0  0  0  0  0  0  0  0  0  0  0  0
   34.2770   30.2110   47.5270 C   0  0  0  0  0  0  0  0  0  0  0  0
   33.3480   29.2290   47.4480 N   0  0  0  0  0  0  0  0  0  0  0  0
   33.4440   28.1110   48.1760 C   0  0  0  0  0  0  0  0  0  0  0  0
   34.4880   27.9110   49.0360 N   0  0  0  0  0  0  0  0  0  0  0  0
   36.2630   28.6960   49.8320 H   0  0  0  0  0  0  0  0  0  0  0  0
   34.2300   31.1290   46.9520 H   0  0  0  0  0  0  0  0  0  0  0  0
   36.4010   31.0160   48.5610 N   0  0  0  0  0  0  0  0  0  0  0  0
   36.5560   31.7010   49.6980 C   0  0  0  0  0  0  0  0  0  0  0  0
   37.5850   32.6290   49.8060 C   0  0  0  0  0  0  0  0  0  0  0  0
   38.3660   32.7590   48.7020 C   0  0  0  0  0  0  0  0  0  0  0  0
   39.3190   33.5940   48.7520 O   0  0  0  0  0  0  0  0  0  0  0  0
   38.2420   32.0960   47.5540 N   0  0  0  0  0  0  0  0  0  0  0  0
   37.2290   31.1950   47.4750 C   0  0  0  0  0  0  0  0  0  0  0  0
   37.0830   30.5510   46.4040 O   0  0  0  0  0  0  0  0  0  0  0  0
   35.8630   31.4980   50.4980 H   0  0  0  0  0  0  0  0  0  0  0  0
   37.7070   33.1810   50.7290 H   0  0  0  0  0  0  0  0  0  0  0  0
   38.8800   32.2400   46.7320 H   0  0  0  0  0  0  0  0  0  0  0  0
   32.4950   27.0860   48.1070 O   0  0  0  0  0  0  0  0  0  0  0  0
   31.1660   27.4890   48.2530 C   0  0  0  0  0  0  0  0  0  0  0  0
   30.8170   27.7600   49.5630 C   0  0  0  0  0  0  0  0  0  0  0  0
   29.5410   28.1710   49.8870 C   0  0  0  0  0  0  0  0  0  0  0  0
   28.6120   28.3060   48.8480 C   0  0  0  0  0  0  0  0  0  0  0  0
   28.9800   28.0290   47.5370 C   0  0  0  0  0  0  0  0  0  0  0  0
   30.2440   27.6250   47.2390 C   0  0  0  0  0  0  0  0  0  0  0  0
   31.5040   27.6700   50.4020 H   0  0  0  0  0  0  0  0  0  0  0  0
   29.2590   28.3860   50.9090 H   0  0  0  0  0  0  0  0  0  0  0  0
   27.6220   28.6300   49.1330 H   0  0  0  0  0  0  0  0  0  0  0  0
   28.2330   28.1470   46.7770 H   0  0  0  0  0  0  0  0  0  0  0  0
   30.6770   27.3280   45.9090 C   0  0  0  0  0  0  0  0  0  0  0  0
   31.0530   28.0330   45.2170 H   0  0  0  0  0  0  0  0  0  0  0  0
   30.6120   26.1270   45.5070 O   0  0  0  0  0  0  0  0  0  0  0  0
  1  7  1  0  0  0  0
  2  9  1  0  0  0  0
  2  1  2  0  0  0  0
  3  2  1  0  0  0  0
  4  3  2  0  0  0  0
  4  5  1  0  0  0  0
  5  6  2  0  0  0  0
  6  1  1  0  0  0  0
  8  3  1  0  0  0  0
  9 10  1  0  0  0  0
 10 11  2  0  0  0  0
 10 17  1  0  0  0  0
 11 18  1  0  0  0  0
 12 13  2  0  0  0  0
 12 11  1  0  0  0  0
 14 12  1  0  0  0  0
 15 14  1  0  0  0  0
 15  9  1  0  0  0  0
 16 15  2  0  0  0  0
 19 14  1  0  0  0  0
 20  5  1  0  0  0  0
 20 21  1  0  0  0  0
 21 22  1  0  0  0  0
 22 23  2  0  0  0  0
 22 27  1  0  0  0  0
 23 28  1  0  0  0  0
 24 29  1  0  0  0  0
 24 23  1  0  0  0  0
 25 24  2  0  0  0  0
 26 25  1  0  0  0  0
 26 21  2  0  0  0  0
 30 25  1  0  0  0  0
 31 26  1  0  0  0  0
 32 31  1  0  0  0  0
 33 31  2  0  0  0  0
M  END
>  <minimizedAffinity>
-5.57086182

>  <minimizedRMSD>
0.166021183

$$$$
