
 OpenBabel03272510263D

 39 42  0  0  1  0  0  0  0  0999 V2000
   35.9710   30.0710   46.9590 C   0  0  0  0  0  0  0  0  0  0  0  0
   36.8940   30.6310   47.8110 C   0  0  0  0  0  0  0  0  0  0  0  0
   37.8730   31.5220   47.3390 C   0  0  0  0  0  0  0  0  0  0  0  0
   37.8430   31.7910   45.9750 C   0  0  0  0  0  0  0  0  0  0  0  0
   38.6870   32.6250   45.2790 N   0  0  0  0  0  0  0  0  0  0  0  0
   38.2800   32.5740   43.9970 C   0  0  0  0  0  0  0  0  0  0  0  0
   37.2470   31.7630   43.8880 N   0  0  0  0  0  0  0  0  0  0  0  0
   36.9450   31.2550   45.0960 C   0  0  0  0  0  0  0  0  0  0  0  0
   35.9830   30.3710   45.6040 C   0  0  0  0  0  0  0  0  0  0  0  0
   35.2050   29.3790   47.2990 H   0  0  0  0  0  0  0  0  0  0  0  0
   38.6110   31.9760   47.9970 H   0  0  0  0  0  0  0  0  0  0  0  0
   39.4870   33.1840   45.6800 H   0  0  0  0  0  0  0  0  0  0  0  0
   35.2690   29.9410   44.9180 H   0  0  0  0  0  0  0  0  0  0  0  0
   37.5820   30.1890   51.4840 C   0  0  0  0  0  0  0  0  0  0  0  0
   37.8100   30.5890   50.1680 C   0  0  0  0  0  0  0  0  0  0  0  0
   36.8560   30.3020   49.2280 C   0  0  0  0  0  0  0  0  0  0  0  0
   35.7270   29.6320   49.6520 N   0  0  0  0  0  0  0  0  0  0  0  0
   35.5170   29.2490   50.9240 C   0  0  0  0  0  0  0  0  0  0  0  0
   36.4430   29.5290   51.8250 N   0  0  0  0  0  0  0  0  0  0  0  0
   38.3470   30.4240   52.2170 H   0  0  0  0  0  0  0  0  0  0  0  0
   38.6780   31.1130   49.8150 H   0  0  0  0  0  0  0  0  0  0  0  0
   34.5870   28.7310   51.1110 H   0  0  0  0  0  0  0  0  0  0  0  0
   38.9060   33.3030   42.9850 O   0  0  0  0  0  0  0  0  0  0  0  0
   39.8550   31.2330   42.6240 N   0  0  0  0  0  0  0  0  0  0  0  0
   39.6220   32.5390   42.0240 C   0  0  1  0  0  0  0  0  0  0  0  0
   38.8530   32.4030   40.7960 C   0  0  0  0  0  0  0  0  0  0  0  0
   39.6060   31.6590   39.8720 O   0  0  0  0  0  0  0  0  0  0  0  0
   40.0470   30.4470   40.3150 C   0  0  0  0  0  0  0  0  0  0  0  0
   40.7060   30.5490   41.6790 C   0  0  2  0  0  0  0  0  0  0  0  0
   39.0610   30.6250   42.7520 H   0  0  0  0  0  0  0  0  0  0  0  0
   40.6250   32.9560   41.8110 H   0  0  0  0  0  0  0  0  0  0  0  0
   38.8020   33.4280   40.3150 H   0  0  0  0  0  0  0  0  0  0  0  0
   37.8860   31.9870   40.7180 H   0  0  0  0  0  0  0  0  0  0  0  0
   39.1660   29.7840   40.4380 H   0  0  0  0  0  0  0  0  0  0  0  0
   40.7850   30.0690   39.6100 H   0  0  0  0  0  0  0  0  0  0  0  0
   41.6450   31.1250   41.5480 H   0  0  0  0  0  0  0  0  0  0  0  0
   40.9670   29.1860   42.2090 C   0  0  0  0  0  0  0  0  0  0  0  0
   41.1710   29.0460   43.2810 H   0  0  0  0  0  0  0  0  0  0  0  0
   40.9450   28.2340   41.4200 O   0  0  0  0  0  0  0  0  0  0  0  0
  1 10  1  0  0  0  0
  1  2  1  0  0  0  0
  2 16  1  0  0  0  0
  3  2  2  0  0  0  0
  3 11  1  0  0  0  0
  4  3  1  0  0  0  0
  5 12  1  0  0  0  0
  5  4  1  0  0  0  0
  6  5  1  0  0  0  0
  7  6  2  0  0  0  0
  7  8  1  0  0  0  0
  8  9  1  0  0  0  0
  8  4  2  0  0  0  0
  9  1  2  0  0  0  0
 13  9  1  0  0  0  0
 14 19  1  0  0  0  0
 14 20  1  0  0  0  0
 15 14  2  0  0  0  0
 16 17  2  0  0  0  0
 16 15  1  0  0  0  0
 17 18  1  0  0  0  0
 18 22  1  0  0  0  0
 18 19  2  0  0  0  0
 21 15  1  0  0  0  0
 23  6  1  0  0  0  0
 24 30  1  0  0  0  0
 25 31  1  6  0  0  0
 25 24  1  0  0  0  0
 25 23  1  0  0  0  0
 26 25  1  0  0  0  0
 27 28  1  0  0  0  0
 27 26  1  0  0  0  0
 28 34  1  0  0  0  0
 28 29  1  0  0  0  0
 29 36  1  6  0  0  0
 29 37  1  0  0  0  0
 29 24  1  0  0  0  0
 32 26  1  0  0  0  0
 33 26  1  0  0  0  0
 35 28  1  0  0  0  0
 37 38  1  0  0  0  0
 39 37  2  0  0  0  0
M  END
>  <minimizedAffinity>
-5.54708815

>  <minimizedRMSD>
1.29769588

$$$$
