
 OpenBabel03262520293D

 32 34  0  0  1  0  0  0  0  0999 V2000
   33.9930   30.2270   47.0910 C   0  0  1  0  0  0  0  0  0  0  0  0
   33.8560   30.2870   45.8470 N   0  0  0  0  0  0  0  0  0  0  0  0
   32.9570   30.5830   45.0210 C   0  0  0  0  0  0  0  0  0  0  0  0
   32.7520   29.3080   44.6910 N   0  0  0  0  0  0  0  0  0  0  0  0
   33.1190   28.3860   45.6270 C   0  0  0  0  0  0  0  0  0  0  0  0
   32.8100   27.0410   45.2780 C   0  0  0  0  0  0  0  0  0  0  0  0
   33.1670   26.0740   46.1570 C   0  0  0  0  0  0  0  0  0  0  0  0
   33.7970   26.2960   47.3440 C   0  0  0  0  0  0  0  0  0  0  0  0
   34.0470   27.6380   47.5760 C   0  0  0  0  0  0  0  0  0  0  0  0
   33.7720   28.8000   46.8260 C   0  0  0  0  0  0  0  0  0  0  0  0
   32.9510   30.5640   47.4890 H   0  0  0  0  0  0  0  0  0  0  0  0
   34.8100   30.3070   45.3660 H   0  0  0  0  0  0  0  0  0  0  0  0
   32.0310   31.0840   45.3950 H   0  0  0  0  0  0  0  0  0  0  0  0
   33.2460   31.2080   44.1300 H   0  0  0  0  0  0  0  0  0  0  0  0
   32.3240   29.0850   43.7390 H   0  0  0  0  0  0  0  0  0  0  0  0
   32.3190   26.7340   44.3780 H   0  0  0  0  0  0  0  0  0  0  0  0
   32.9480   25.0320   45.9280 H   0  0  0  0  0  0  0  0  0  0  0  0
   34.0970   25.5890   48.0620 H   0  0  0  0  0  0  0  0  0  0  0  0
   34.5640   27.8570   48.5110 H   0  0  0  0  0  0  0  0  0  0  0  0
   35.4360   29.9300   50.5160 C   0  0  0  0  0  0  0  0  0  0  0  0
   36.7430   30.1890   50.1450 C   0  0  0  0  0  0  0  0  0  0  0  0
   36.9360   30.4070   48.8030 C   0  0  0  0  0  0  0  0  0  0  0  0
   35.8630   30.3520   47.9810 N   0  0  0  0  0  0  0  0  0  0  0  0
   34.6100   30.1000   48.3730 C   0  0  0  0  0  0  0  0  0  0  0  0
   34.4740   29.9000   49.6430 N   0  0  0  0  0  0  0  0  0  0  0  0
   38.2820   30.6720   48.3760 N   0  0  0  0  0  0  0  0  0  0  0  0
   35.1680   29.7440   51.5490 H   0  0  0  0  0  0  0  0  0  0  0  0
   38.4580   31.6660   48.1460 H   0  0  0  0  0  0  0  0  0  0  0  0
   38.9950   29.9060   48.3140 H   0  0  0  0  0  0  0  0  0  0  0  0
   37.8250   30.2230   51.1230 C   0  0  0  0  0  0  0  0  0  0  0  0
   38.8060   30.5180   50.7820 H   0  0  0  0  0  0  0  0  0  0  0  0
   37.5290   29.9020   52.2980 O   0  0  0  0  0  0  0  0  0  0  0  0
  1 11  1  1  0  0  0
  1 24  1  0  0  0  0
  2  1  1  0  0  0  0
  3 13  1  0  0  0  0
  3  2  1  0  0  0  0
  4  3  1  0  0  0  0
  4  5  1  0  0  0  0
  5 10  1  0  0  0  0
  6  5  2  0  0  0  0
  6  7  1  0  0  0  0
  7  8  2  0  0  0  0
  8  9  1  0  0  0  0
  8 18  1  0  0  0  0
  9 19  1  0  0  0  0
 10  1  1  0  0  0  0
 10  9  2  0  0  0  0
 12  2  1  0  0  0  0
 14  3  1  0  0  0  0
 15  4  1  0  0  0  0
 16  6  1  0  0  0  0
 17  7  1  0  0  0  0
 20 27  1  0  0  0  0
 21 20  1  0  0  0  0
 21 30  1  0  0  0  0
 22 21  2  0  0  0  0
 23 24  2  0  0  0  0
 23 22  1  0  0  0  0
 24 25  1  0  0  0  0
 25 20  2  0  0  0  0
 26 22  1  0  0  0  0
 28 26  1  0  0  0  0
 29 26  1  0  0  0  0
 30 32  2  0  0  0  0
 31 30  1  0  0  0  0
M  END
>  <minimizedAffinity>
-5.03236437

>  <minimizedRMSD>
0.912154675

$$$$
