
 OpenBabel03272506493D

 28 29  0  0  1  0  0  0  0  0999 V2000
   34.7460   30.5350   48.6820 C   0  0  1  0  0  0  0  0  0  0  0  0
   33.8250   30.3060   47.5720 C   0  0  0  0  0  0  0  0  0  0  0  0
   33.6220   28.8830   47.1300 C   0  0  0  0  0  0  0  0  0  0  0  0
   33.6200   27.8650   48.2060 C   0  0  2  0  0  0  0  0  0  0  0  0
   34.5260   28.0910   49.3680 C   0  0  0  0  0  0  0  0  0  0  0  0
   34.5820   29.5250   49.7800 C   0  0  0  0  0  0  0  0  0  0  0  0
   34.4570   31.5140   49.1830 H   0  0  0  0  0  0  0  0  0  0  0  0
   33.9280   30.9010   46.6710 H   0  0  0  0  0  0  0  0  0  0  0  0
   32.7940   30.5990   47.9580 H   0  0  0  0  0  0  0  0  0  0  0  0
   32.6660   28.8270   46.5710 H   0  0  0  0  0  0  0  0  0  0  0  0
   34.4300   28.6300   46.3950 H   0  0  0  0  0  0  0  0  0  0  0  0
   32.5760   27.7430   48.5640 H   0  0  0  0  0  0  0  0  0  0  0  0
   35.5270   27.6440   49.1730 H   0  0  0  0  0  0  0  0  0  0  0  0
   34.0850   27.5470   50.2500 H   0  0  0  0  0  0  0  0  0  0  0  0
   35.2150   29.6250   50.6460 H   0  0  0  0  0  0  0  0  0  0  0  0
   33.5370   29.7360   50.1790 H   0  0  0  0  0  0  0  0  0  0  0  0
   36.6480   30.6060   47.0190 C   0  0  0  0  0  0  0  0  0  0  0  0
   36.1670   30.7870   48.3240 C   0  0  0  0  0  0  0  0  0  0  0  0
   37.0700   31.2070   49.2810 C   0  0  0  0  0  0  0  0  0  0  0  0
   38.3650   31.4250   48.9300 N   0  0  0  0  0  0  0  0  0  0  0  0
   38.7900   31.2380   47.6540 C   0  0  0  0  0  0  0  0  0  0  0  0
   37.9200   30.8240   46.6940 N   0  0  0  0  0  0  0  0  0  0  0  0
   36.0110   30.2800   46.2110 H   0  0  0  0  0  0  0  0  0  0  0  0
   36.8520   31.3870   50.3020 H   0  0  0  0  0  0  0  0  0  0  0  0
   39.8140   31.4030   47.3460 H   0  0  0  0  0  0  0  0  0  0  0  0
   34.0340   26.5490   47.6170 C   0  0  0  0  0  0  0  0  0  0  0  0
   35.0070   26.3120   47.2180 H   0  0  0  0  0  0  0  0  0  0  0  0
   33.2930   25.5620   47.5160 O   0  0  0  0  0  0  0  0  0  0  0  0
  1  7  1  1  0  0  0
  1  6  1  0  0  0  0
  2  9  1  0  0  0  0
  2  1  1  0  0  0  0
  3  2  1  0  0  0  0
  3  4  1  0  0  0  0
  4 12  1  1  0  0  0
  4  5  1  0  0  0  0
  5  6  1  0  0  0  0
  5 14  1  0  0  0  0
  6 16  1  0  0  0  0
  6 15  1  0  0  0  0
  8  2  1  0  0  0  0
 10  3  1  0  0  0  0
 11  3  1  0  0  0  0
 13  5  1  0  0  0  0
 17 18  1  0  0  0  0
 18  1  1  0  0  0  0
 18 19  2  0  0  0  0
 19 24  1  0  0  0  0
 20 19  1  0  0  0  0
 21 20  2  0  0  0  0
 22 17  2  0  0  0  0
 22 21  1  0  0  0  0
 23 17  1  0  0  0  0
 25 21  1  0  0  0  0
 26  4  1  0  0  0  0
 27 26  1  0  0  0  0
 28 26  2  0  0  0  0
M  END
>  <minimizedAffinity>
-4.12283373

>  <minimizedRMSD>
1.62349272

$$$$
