
 OpenBabel03272505543D

 28 29  0  0  1  0  0  0  0  0999 V2000
   35.5670   30.1450   49.6350 C   0  0  2  0  0  0  0  0  0  0  0  0
   36.4110   31.1610   48.8950 C   0  0  0  0  0  0  0  0  0  0  0  0
   37.8850   30.9300   49.0720 C   0  0  2  0  0  0  0  0  0  0  0  0
   38.2590   30.9520   50.5320 C   0  0  0  0  0  0  0  0  0  0  0  0
   37.3950   30.0620   51.3610 C   0  0  0  0  0  0  0  0  0  0  0  0
   36.3550   29.2970   50.5720 C   0  0  0  0  0  0  0  0  0  0  0  0
   34.7540   30.6710   50.1850 H   0  0  0  0  0  0  0  0  0  0  0  0
   36.1310   31.2290   47.8470 H   0  0  0  0  0  0  0  0  0  0  0  0
   36.2200   32.1680   49.3630 H   0  0  0  0  0  0  0  0  0  0  0  0
   38.1190   29.9000   48.6720 H   0  0  0  0  0  0  0  0  0  0  0  0
   39.3430   30.7490   50.6430 H   0  0  0  0  0  0  0  0  0  0  0  0
   38.0790   32.0170   50.8590 H   0  0  0  0  0  0  0  0  0  0  0  0
   36.8910   30.6080   52.2040 H   0  0  0  0  0  0  0  0  0  0  0  0
   38.0370   29.3120   51.8690 H   0  0  0  0  0  0  0  0  0  0  0  0
   36.8280   28.4690   50.0100 H   0  0  0  0  0  0  0  0  0  0  0  0
   35.6940   28.8290   51.3310 H   0  0  0  0  0  0  0  0  0  0  0  0
   34.9010   29.2370   48.6530 C   0  0  0  0  0  0  0  0  0  0  0  0
   34.7290   29.7420   47.3530 C   0  0  0  0  0  0  0  0  0  0  0  0
   34.1030   28.9120   46.4240 C   0  0  0  0  0  0  0  0  0  0  0  0
   33.6860   27.6560   46.8100 N   0  0  0  0  0  0  0  0  0  0  0  0
   33.8750   27.2070   48.0890 C   0  0  0  0  0  0  0  0  0  0  0  0
   34.4750   27.9960   48.9860 N   0  0  0  0  0  0  0  0  0  0  0  0
   35.0090   30.6870   46.9680 H   0  0  0  0  0  0  0  0  0  0  0  0
   33.9190   29.2010   45.3920 H   0  0  0  0  0  0  0  0  0  0  0  0
   33.5380   26.2180   48.3640 H   0  0  0  0  0  0  0  0  0  0  0  0
   38.6240   31.9760   48.3480 C   0  0  0  0  0  0  0  0  0  0  0  0
   39.0000   31.7590   47.3370 H   0  0  0  0  0  0  0  0  0  0  0  0
   38.8210   33.0740   48.8550 O   0  0  0  0  0  0  0  0  0  0  0  0
  1  7  1  1  0  0  0
  1  6  1  0  0  0  0
  2  3  1  0  0  0  0
  2  9  1  0  0  0  0
  2  1  1  0  0  0  0
  3 10  1  6  0  0  0
  3  4  1  0  0  0  0
  4 11  1  0  0  0  0
  4 12  1  0  0  0  0
  4  5  1  0  0  0  0
  5 14  1  0  0  0  0
  5 13  1  0  0  0  0
  6 16  1  0  0  0  0
  6  5  1  0  0  0  0
  8  2  1  0  0  0  0
 15  6  1  0  0  0  0
 17 22  1  0  0  0  0
 17  1  1  0  0  0  0
 18 17  2  0  0  0  0
 19 20  2  0  0  0  0
 19 18  1  0  0  0  0
 20 21  1  0  0  0  0
 21 25  1  0  0  0  0
 21 22  2  0  0  0  0
 23 18  1  0  0  0  0
 24 19  1  0  0  0  0
 26 28  2  0  0  0  0
 26  3  1  0  0  0  0
 27 26  1  0  0  0  0
M  END
>  <minimizedAffinity>
-5.27444029

>  <minimizedRMSD>
0.454090625

$$$$
