
 OpenBabel03272510263D

 39 42  0  0  1  0  0  0  0  0999 V2000
   36.2060   30.2090   46.9350 C   0  0  0  0  0  0  0  0  0  0  0  0
   37.0530   30.7320   47.8850 C   0  0  0  0  0  0  0  0  0  0  0  0
   38.0690   31.6390   47.5340 C   0  0  0  0  0  0  0  0  0  0  0  0
   38.1530   31.9640   46.1850 C   0  0  0  0  0  0  0  0  0  0  0  0
   39.0520   32.8230   45.5970 N   0  0  0  0  0  0  0  0  0  0  0  0
   38.7550   32.8270   44.2850 C   0  0  0  0  0  0  0  0  0  0  0  0
   37.7350   32.0230   44.0550 N   0  0  0  0  0  0  0  0  0  0  0  0
   37.3320   31.4670   45.2110 C   0  0  0  0  0  0  0  0  0  0  0  0
   36.3320   30.5650   45.6000 C   0  0  0  0  0  0  0  0  0  0  0  0
   35.4150   29.5060   47.1810 H   0  0  0  0  0  0  0  0  0  0  0  0
   38.7480   32.0630   48.2700 H   0  0  0  0  0  0  0  0  0  0  0  0
   39.8150   33.3630   46.0870 H   0  0  0  0  0  0  0  0  0  0  0  0
   35.6790   30.1660   44.8390 H   0  0  0  0  0  0  0  0  0  0  0  0
   37.4370   30.1240   51.5780 C   0  0  0  0  0  0  0  0  0  0  0  0
   37.7760   30.5740   50.3030 C   0  0  0  0  0  0  0  0  0  0  0  0
   36.8960   30.3450   49.2790 C   0  0  0  0  0  0  0  0  0  0  0  0
   35.7260   29.6790   49.5820 N   0  0  0  0  0  0  0  0  0  0  0  0
   35.4090   29.2480   50.8150 C   0  0  0  0  0  0  0  0  0  0  0  0
   36.2640   29.4720   51.7980 N   0  0  0  0  0  0  0  0  0  0  0  0
   38.1450   30.3120   52.3790 H   0  0  0  0  0  0  0  0  0  0  0  0
   38.6790   31.0940   50.0430 H   0  0  0  0  0  0  0  0  0  0  0  0
   34.4590   28.7400   50.9060 H   0  0  0  0  0  0  0  0  0  0  0  0
   39.4630   33.5950   43.3600 O   0  0  0  0  0  0  0  0  0  0  0  0
   39.6970   31.7540   41.9910 N   0  0  0  0  0  0  0  0  0  0  0  0
   39.3720   33.1730   42.0060 C   0  0  1  0  0  0  0  0  0  0  0  0
   38.0310   33.3920   41.4860 C   0  0  0  0  0  0  0  0  0  0  0  0
   37.9940   32.9800   40.1430 O   0  0  0  0  0  0  0  0  0  0  0  0
   38.4120   31.7020   39.9100 C   0  0  0  0  0  0  0  0  0  0  0  0
   39.7370   31.4080   40.5900 C   0  0  2  0  0  0  0  0  0  0  0  0
   39.0330   31.1150   42.4020 H   0  0  0  0  0  0  0  0  0  0  0  0
   40.1250   33.6610   41.3570 H   0  0  0  0  0  0  0  0  0  0  0  0
   37.8770   34.5130   41.4110 H   0  0  0  0  0  0  0  0  0  0  0  0
   37.1410   32.9940   41.8910 H   0  0  0  0  0  0  0  0  0  0  0  0
   37.6670   31.0100   40.3540 H   0  0  0  0  0  0  0  0  0  0  0  0
   38.5450   31.5730   38.8380 H   0  0  0  0  0  0  0  0  0  0  0  0
   40.5090   32.0200   40.0830 H   0  0  0  0  0  0  0  0  0  0  0  0
   40.0340   29.9560   40.4920 C   0  0  0  0  0  0  0  0  0  0  0  0
   40.7550   29.5950   39.7410 H   0  0  0  0  0  0  0  0  0  0  0  0
   39.4560   29.1830   41.2640 O   0  0  0  0  0  0  0  0  0  0  0  0
  1 10  1  0  0  0  0
  1  2  1  0  0  0  0
  2 16  1  0  0  0  0
  3  2  2  0  0  0  0
  3 11  1  0  0  0  0
  4  3  1  0  0  0  0
  5 12  1  0  0  0  0
  5  4  1  0  0  0  0
  6  5  1  0  0  0  0
  7  6  2  0  0  0  0
  7  8  1  0  0  0  0
  8  9  1  0  0  0  0
  8  4  2  0  0  0  0
  9  1  2  0  0  0  0
 13  9  1  0  0  0  0
 14 19  1  0  0  0  0
 14 20  1  0  0  0  0
 15 14  2  0  0  0  0
 16 17  2  0  0  0  0
 16 15  1  0  0  0  0
 17 18  1  0  0  0  0
 18 22  1  0  0  0  0
 18 19  2  0  0  0  0
 21 15  1  0  0  0  0
 23  6  1  0  0  0  0
 24 25  1  0  0  0  0
 24 30  1  0  0  0  0
 25 31  1  6  0  0  0
 25 23  1  0  0  0  0
 26 33  1  0  0  0  0
 26 25  1  0  0  0  0
 27 26  1  0  0  0  0
 28 27  1  0  0  0  0
 28 34  1  0  0  0  0
 28 29  1  0  0  0  0
 29 36  1  6  0  0  0
 29 24  1  0  0  0  0
 32 26  1  0  0  0  0
 35 28  1  0  0  0  0
 37 29  1  0  0  0  0
 37 39  2  0  0  0  0
 38 37  1  0  0  0  0
M  END
>  <minimizedAffinity>
-5.48770046

>  <minimizedRMSD>
0.240080252

$$$$
