
 OpenBabel03262523103D

 14 14  0  0  0  0  0  0  0  0999 V2000
   39.6310   22.7410   37.5840 C   0  0  0  0  0  0  0  0  0  0  0  0
   38.8860   23.3510   38.6210 C   0  0  0  0  0  0  0  0  0  0  0  0
   37.9250   24.2860   38.2490 C   0  0  0  0  0  0  0  0  0  0  0  0
   37.7640   24.5510   36.9170 N   0  0  0  0  0  0  0  0  0  0  0  0
   38.4860   23.9560   35.9620 C   0  0  0  0  0  0  0  0  0  0  0  0
   39.4250   23.0460   36.2970 N   0  0  0  0  0  0  0  0  0  0  0  0
   39.1060   23.0580   39.6420 H   0  0  0  0  0  0  0  0  0  0  0  0
   37.3590   24.7510   39.0190 H   0  0  0  0  0  0  0  0  0  0  0  0
   40.6460   21.7640   37.8540 N   0  0  0  0  0  0  0  0  0  0  0  0
   40.7180   20.8820   37.3250 H   0  0  0  0  0  0  0  0  0  0  0  0
   41.3830   21.8440   38.5790 H   0  0  0  0  0  0  0  0  0  0  0  0
   38.2670   24.2820   34.5570 C   0  0  0  0  0  0  0  0  0  0  0  0
   38.5520   23.5890   33.7800 H   0  0  0  0  0  0  0  0  0  0  0  0
   37.7290   25.4210   34.3630 O   0  0  0  0  0  0  0  0  0  0  0  0
  1  9  1  0  0  0  0
  1  2  1  0  0  0  0
  2  7  1  0  0  0  0
  3  2  2  0  0  0  0
  3  8  1  0  0  0  0
  4  3  1  0  0  0  0
  5  6  1  0  0  0  0
  5  4  2  0  0  0  0
  6  1  2  0  0  0  0
  9 11  1  0  0  0  0
 10  9  1  0  0  0  0
 12  5  1  0  0  0  0
 13 12  1  0  0  0  0
 14 12  2  0  0  0  0
M  END
>  <minimizedAffinity>
-3.56391835

$$$$

 OpenBabel03262523103D

 14 14  0  0  0  0  0  0  0  0999 V2000
   35.7220   21.0860   36.2070 C   0  0  0  0  0  0  0  0  0  0  0  0
   35.5690   20.6790   34.8590 C   0  0  0  0  0  0  0  0  0  0  0  0
   36.5350   21.1070   33.9530 C   0  0  0  0  0  0  0  0  0  0  0  0
   37.5590   21.8840   34.4190 N   0  0  0  0  0  0  0  0  0  0  0  0
   37.6730   22.2500   35.7000 C   0  0  0  0  0  0  0  0  0  0  0  0
   36.7500   21.8480   36.5990 N   0  0  0  0  0  0  0  0  0  0  0  0
   34.7130   20.0630   34.6100 H   0  0  0  0  0  0  0  0  0  0  0  0
   36.4300   20.8100   32.9380 H   0  0  0  0  0  0  0  0  0  0  0  0
   34.7870   20.7020   37.2230 N   0  0  0  0  0  0  0  0  0  0  0  0
   35.0860   20.3450   38.1440 H   0  0  0  0  0  0  0  0  0  0  0  0
   33.7540   20.7450   37.1410 H   0  0  0  0  0  0  0  0  0  0  0  0
   38.7900   23.0810   36.1360 C   0  0  0  0  0  0  0  0  0  0  0  0
   39.5530   23.3900   35.4380 H   0  0  0  0  0  0  0  0  0  0  0  0
   38.7630   23.3830   37.3740 O   0  0  0  0  0  0  0  0  0  0  0  0
  1  6  1  0  0  0  0
  1  9  1  0  0  0  0
  2  1  2  0  0  0  0
  3  4  2  0  0  0  0
  3  2  1  0  0  0  0
  4  5  1  0  0  0  0
  5 12  1  0  0  0  0
  5  6  2  0  0  0  0
  7  2  1  0  0  0  0
  8  3  1  0  0  0  0
  9 10  1  0  0  0  0
 11  9  1  0  0  0  0
 12 14  2  0  0  0  0
 13 12  1  0  0  0  0
M  END
>  <minimizedAffinity>
-3.35668778

$$$$

 OpenBabel03262523103D

 14 14  0  0  0  0  0  0  0  0999 V2000
   38.9110   23.2710   37.6880 C   0  0  0  0  0  0  0  0  0  0  0  0
   40.0310   22.7590   36.9880 C   0  0  0  0  0  0  0  0  0  0  0  0
   40.3970   23.4080   35.8130 C   0  0  0  0  0  0  0  0  0  0  0  0
   39.6590   24.4890   35.4150 N   0  0  0  0  0  0  0  0  0  0  0  0
   38.6060   24.9450   36.1000 C   0  0  0  0  0  0  0  0  0  0  0  0
   38.2300   24.3340   37.2430 N   0  0  0  0  0  0  0  0  0  0  0  0
   40.5350   21.8950   37.4040 H   0  0  0  0  0  0  0  0  0  0  0  0
   41.2350   23.0330   35.2780 H   0  0  0  0  0  0  0  0  0  0  0  0
   38.4470   22.6790   38.9090 N   0  0  0  0  0  0  0  0  0  0  0  0
   38.2030   23.2430   39.7380 H   0  0  0  0  0  0  0  0  0  0  0  0
   38.3130   21.6640   39.0750 H   0  0  0  0  0  0  0  0  0  0  0  0
   37.8580   26.1040   35.6240 C   0  0  0  0  0  0  0  0  0  0  0  0
   37.0130   25.9810   34.9640 H   0  0  0  0  0  0  0  0  0  0  0  0
   38.2960   27.2210   36.0540 O   0  0  0  0  0  0  0  0  0  0  0  0
  1  9  1  0  0  0  0
  2  7  1  0  0  0  0
  2  1  2  0  0  0  0
  3  2  1  0  0  0  0
  4  3  2  0  0  0  0
  4  5  1  0  0  0  0
  5  6  2  0  0  0  0
  6  1  1  0  0  0  0
  8  3  1  0  0  0  0
  9 11  1  0  0  0  0
  9 10  1  0  0  0  0
 12 14  2  0  0  0  0
 12  5  1  0  0  0  0
 13 12  1  0  0  0  0
M  END
>  <minimizedAffinity>
-3.26494336

$$$$

 OpenBabel03262523103D

 14 14  0  0  0  0  0  0  0  0999 V2000
   40.7330   22.0680   37.1540 C   0  0  0  0  0  0  0  0  0  0  0  0
   41.0750   22.3940   35.8190 C   0  0  0  0  0  0  0  0  0  0  0  0
   40.2700   23.3220   35.1660 C   0  0  0  0  0  0  0  0  0  0  0  0
   39.2110   23.8540   35.8490 N   0  0  0  0  0  0  0  0  0  0  0  0
   38.9170   23.5230   37.1110 C   0  0  0  0  0  0  0  0  0  0  0  0
   39.6820   22.6250   37.7670 N   0  0  0  0  0  0  0  0  0  0  0  0
   41.9380   21.9040   35.3830 H   0  0  0  0  0  0  0  0  0  0  0  0
   40.5150   23.5740   34.1630 H   0  0  0  0  0  0  0  0  0  0  0  0
   41.4940   21.1240   37.9210 N   0  0  0  0  0  0  0  0  0  0  0  0
   41.7820   21.3080   38.8940 H   0  0  0  0  0  0  0  0  0  0  0  0
   41.8180   20.1970   37.5880 H   0  0  0  0  0  0  0  0  0  0  0  0
   37.7740   24.1260   37.7870 C   0  0  0  0  0  0  0  0  0  0  0  0
   36.7830   24.0570   37.3640 H   0  0  0  0  0  0  0  0  0  0  0  0
   38.0640   24.7140   38.8790 O   0  0  0  0  0  0  0  0  0  0  0  0
  1  6  1  0  0  0  0
  1  9  1  0  0  0  0
  2  1  2  0  0  0  0
  3  2  1  0  0  0  0
  3  4  2  0  0  0  0
  4  5  1  0  0  0  0
  5  6  2  0  0  0  0
  5 12  1  0  0  0  0
  7  2  1  0  0  0  0
  8  3  1  0  0  0  0
  9 10  1  0  0  0  0
 11  9  1  0  0  0  0
 12 14  2  0  0  0  0
 13 12  1  0  0  0  0
M  END
>  <minimizedAffinity>
-3.22499394

$$$$

 OpenBabel03262523103D

 14 14  0  0  0  0  0  0  0  0999 V2000
   38.4370   26.3490   35.8740 C   0  0  0  0  0  0  0  0  0  0  0  0
   38.5430   25.8530   34.5520 C   0  0  0  0  0  0  0  0  0  0  0  0
   38.3690   24.4840   34.3710 C   0  0  0  0  0  0  0  0  0  0  0  0
   38.1090   23.7150   35.4720 N   0  0  0  0  0  0  0  0  0  0  0  0
   38.0160   24.2170   36.7070 C   0  0  0  0  0  0  0  0  0  0  0  0
   38.1800   25.5410   36.9100 N   0  0  0  0  0  0  0  0  0  0  0  0
   38.7540   26.5620   33.7600 H   0  0  0  0  0  0  0  0  0  0  0  0
   38.4480   24.0990   33.3830 H   0  0  0  0  0  0  0  0  0  0  0  0
   38.5970   27.7420   36.1740 N   0  0  0  0  0  0  0  0  0  0  0  0
   37.9490   28.2520   36.7940 H   0  0  0  0  0  0  0  0  0  0  0  0
   39.3530   28.3540   35.8140 H   0  0  0  0  0  0  0  0  0  0  0  0
   37.7350   23.3440   37.8420 C   0  0  0  0  0  0  0  0  0  0  0  0
   36.7830   22.8440   37.9310 H   0  0  0  0  0  0  0  0  0  0  0  0
   38.6950   23.2460   38.6740 O   0  0  0  0  0  0  0  0  0  0  0  0
  1  9  1  0  0  0  0
  1  6  1  0  0  0  0
  2  1  2  0  0  0  0
  3  2  1  0  0  0  0
  3  4  2  0  0  0  0
  4  5  1  0  0  0  0
  5  6  2  0  0  0  0
  5 12  1  0  0  0  0
  7  2  1  0  0  0  0
  8  3  1  0  0  0  0
  9 10  1  0  0  0  0
 11  9  1  0  0  0  0
 12 13  1  0  0  0  0
 12 14  2  0  0  0  0
M  END
>  <minimizedAffinity>
-3.20839596

$$$$

 OpenBabel03262523103D

 14 14  0  0  0  0  0  0  0  0999 V2000
   38.3110   23.3360   37.4550 C   0  0  0  0  0  0  0  0  0  0  0  0
   38.0650   24.7210   37.2930 C   0  0  0  0  0  0  0  0  0  0  0  0
   37.9290   25.1950   35.9920 C   0  0  0  0  0  0  0  0  0  0  0  0
   38.0380   24.2990   34.9640 N   0  0  0  0  0  0  0  0  0  0  0  0
   38.2710   22.9960   35.1530 C   0  0  0  0  0  0  0  0  0  0  0  0
   38.4080   22.5120   36.4050 N   0  0  0  0  0  0  0  0  0  0  0  0
   38.0000   25.3320   38.1860 H   0  0  0  0  0  0  0  0  0  0  0  0
   37.7450   26.2330   35.8570 H   0  0  0  0  0  0  0  0  0  0  0  0
   38.4680   22.7420   38.7510 N   0  0  0  0  0  0  0  0  0  0  0  0
   37.9940   21.8660   39.0180 H   0  0  0  0  0  0  0  0  0  0  0  0
   39.0530   23.1180   39.5210 H   0  0  0  0  0  0  0  0  0  0  0  0
   38.3770   22.0900   34.0140 C   0  0  0  0  0  0  0  0  0  0  0  0
   39.3000   22.0070   33.4610 H   0  0  0  0  0  0  0  0  0  0  0  0
   37.3100   21.4420   33.7620 O   0  0  0  0  0  0  0  0  0  0  0  0
  1  9  1  0  0  0  0
  2  1  1  0  0  0  0
  2  7  1  0  0  0  0
  3  2  2  0  0  0  0
  4  5  2  0  0  0  0
  4  3  1  0  0  0  0
  5  6  1  0  0  0  0
  6  1  2  0  0  0  0
  8  3  1  0  0  0  0
  9 10  1  0  0  0  0
  9 11  1  0  0  0  0
 12  5  1  0  0  0  0
 13 12  1  0  0  0  0
 14 12  2  0  0  0  0
M  END
>  <minimizedAffinity>
-3.09964657

$$$$

 OpenBabel03262523103D

 14 14  0  0  0  0  0  0  0  0999 V2000
   35.5960   20.4440   33.7170 C   0  0  0  0  0  0  0  0  0  0  0  0
   35.4830   19.2490   32.9670 C   0  0  0  0  0  0  0  0  0  0  0  0
   35.5950   19.3530   31.5840 C   0  0  0  0  0  0  0  0  0  0  0  0
   35.8060   20.5920   31.0440 N   0  0  0  0  0  0  0  0  0  0  0  0
   35.9070   21.7010   31.7830 C   0  0  0  0  0  0  0  0  0  0  0  0
   35.8030   21.6280   33.1260 N   0  0  0  0  0  0  0  0  0  0  0  0
   35.3150   18.3250   33.5090 H   0  0  0  0  0  0  0  0  0  0  0  0
   35.5100   18.4620   31.0100 H   0  0  0  0  0  0  0  0  0  0  0  0
   35.4970   20.4530   35.1470 N   0  0  0  0  0  0  0  0  0  0  0  0
   36.1610   20.9700   35.7440 H   0  0  0  0  0  0  0  0  0  0  0  0
   34.7750   19.9600   35.7050 H   0  0  0  0  0  0  0  0  0  0  0  0
   36.1330   22.9950   31.1470 C   0  0  0  0  0  0  0  0  0  0  0  0
   36.9130   23.1200   30.4130 H   0  0  0  0  0  0  0  0  0  0  0  0
   35.3420   23.9140   31.5400 O   0  0  0  0  0  0  0  0  0  0  0  0
  1  9  1  0  0  0  0
  2  7  1  0  0  0  0
  2  1  2  0  0  0  0
  3  2  1  0  0  0  0
  4  3  2  0  0  0  0
  4  5  1  0  0  0  0
  5  6  2  0  0  0  0
  6  1  1  0  0  0  0
  8  3  1  0  0  0  0
  9 11  1  0  0  0  0
  9 10  1  0  0  0  0
 12 14  2  0  0  0  0
 12  5  1  0  0  0  0
 13 12  1  0  0  0  0
M  END
>  <minimizedAffinity>
-3.07355857

$$$$

 OpenBabel03262523103D

 14 14  0  0  0  0  0  0  0  0999 V2000
   38.6510   23.3710   37.8360 C   0  0  0  0  0  0  0  0  0  0  0  0
   37.7880   24.4170   37.4260 C   0  0  0  0  0  0  0  0  0  0  0  0
   38.0990   25.0670   36.2350 C   0  0  0  0  0  0  0  0  0  0  0  0
   39.2070   24.6570   35.5450 N   0  0  0  0  0  0  0  0  0  0  0  0
   40.0000   23.6650   35.9620 C   0  0  0  0  0  0  0  0  0  0  0  0
   39.7210   23.0180   37.1130 N   0  0  0  0  0  0  0  0  0  0  0  0
   36.9410   24.6510   38.0590 H   0  0  0  0  0  0  0  0  0  0  0  0
   37.4600   25.8540   35.9170 H   0  0  0  0  0  0  0  0  0  0  0  0
   38.4250   22.6340   39.0450 N   0  0  0  0  0  0  0  0  0  0  0  0
   38.4820   21.6050   39.0840 H   0  0  0  0  0  0  0  0  0  0  0  0
   38.1920   23.0460   39.9680 H   0  0  0  0  0  0  0  0  0  0  0  0
   41.1680   23.2730   35.1800 C   0  0  0  0  0  0  0  0  0  0  0  0
   41.0930   22.5100   34.4210 H   0  0  0  0  0  0  0  0  0  0  0  0
   42.2340   23.9030   35.4830 O   0  0  0  0  0  0  0  0  0  0  0  0
  1  9  1  0  0  0  0
  2  1  1  0  0  0  0
  2  7  1  0  0  0  0
  3  2  2  0  0  0  0
  4  5  2  0  0  0  0
  4  3  1  0  0  0  0
  5  6  1  0  0  0  0
  6  1  2  0  0  0  0
  8  3  1  0  0  0  0
  9 10  1  0  0  0  0
  9 11  1  0  0  0  0
 12 14  2  0  0  0  0
 12  5  1  0  0  0  0
 13 12  1  0  0  0  0
M  END
>  <minimizedAffinity>
-3.02739

$$$$

 OpenBabel03262523103D

 14 14  0  0  0  0  0  0  0  0999 V2000
   39.5350   22.6620   37.5690 C   0  0  0  0  0  0  0  0  0  0  0  0
   40.8880   22.2840   37.3940 C   0  0  0  0  0  0  0  0  0  0  0  0
   41.3060   21.9960   36.0990 C   0  0  0  0  0  0  0  0  0  0  0  0
   40.3910   22.0980   35.0870 N   0  0  0  0  0  0  0  0  0  0  0  0
   39.1200   22.4580   35.2880 C   0  0  0  0  0  0  0  0  0  0  0  0
   38.6890   22.7420   36.5350 N   0  0  0  0  0  0  0  0  0  0  0  0
   41.5180   22.2390   38.2750 H   0  0  0  0  0  0  0  0  0  0  0  0
   42.3200   21.7100   35.9550 H   0  0  0  0  0  0  0  0  0  0  0  0
   38.9980   22.9800   38.8600 N   0  0  0  0  0  0  0  0  0  0  0  0
   38.4080   23.8100   39.0230 H   0  0  0  0  0  0  0  0  0  0  0  0
   39.1420   22.4290   39.7260 H   0  0  0  0  0  0  0  0  0  0  0  0
   38.1900   22.5480   34.1660 C   0  0  0  0  0  0  0  0  0  0  0  0
   38.3020   23.3180   33.4180 H   0  0  0  0  0  0  0  0  0  0  0  0
   37.2780   21.6590   34.1720 O   0  0  0  0  0  0  0  0  0  0  0  0
  1  9  1  0  0  0  0
  2  1  1  0  0  0  0
  2  7  1  0  0  0  0
  3  2  2  0  0  0  0
  4  5  2  0  0  0  0
  4  3  1  0  0  0  0
  5  6  1  0  0  0  0
  6  1  2  0  0  0  0
  8  3  1  0  0  0  0
  9 10  1  0  0  0  0
  9 11  1  0  0  0  0
 12 14  2  0  0  0  0
 12  5  1  0  0  0  0
 13 12  1  0  0  0  0
M  END
>  <minimizedAffinity>
-3.01600122

$$$$
