
 OpenBabel03262523183D

 24 25  0  0  1  0  0  0  0  0999 V2000
   38.2560   32.7280   49.4290 C   0  0  0  0  0  0  0  0  0  0  0  0
   38.8920   32.8970   48.1940 C   0  0  0  0  0  0  0  0  0  0  0  0
   38.4350   32.1230   47.1250 C   0  0  0  0  0  0  0  0  0  0  0  0
   37.4050   31.2410   47.3040 N   0  0  0  0  0  0  0  0  0  0  0  0
   36.8260   31.1190   48.5240 C   0  0  0  0  0  0  0  0  0  0  0  0
   37.2420   31.8460   49.5670 N   0  0  0  0  0  0  0  0  0  0  0  0
   35.7470   30.1750   48.6540 N   0  0  0  0  0  0  0  0  0  0  0  0
   34.5090   30.2470   47.9140 C   0  0  0  0  0  0  0  0  0  0  0  0
   33.8450   28.9320   48.1690 C   0  0  0  0  0  0  0  0  0  0  0  0
   34.8330   28.0810   48.9310 C   0  0  0  0  0  0  0  0  0  0  0  0
   35.7770   29.0280   49.5510 C   0  0  2  0  0  0  0  0  0  0  0  0
   38.5840   33.3060   50.2650 H   0  0  0  0  0  0  0  0  0  0  0  0
   39.7050   33.6080   48.0990 H   0  0  0  0  0  0  0  0  0  0  0  0
   38.9100   32.2360   46.1630 H   0  0  0  0  0  0  0  0  0  0  0  0
   34.7560   30.3540   46.8360 H   0  0  0  0  0  0  0  0  0  0  0  0
   33.8930   31.1250   48.2310 H   0  0  0  0  0  0  0  0  0  0  0  0
   33.6330   28.4100   47.2240 H   0  0  0  0  0  0  0  0  0  0  0  0
   32.8730   29.0210   48.6870 H   0  0  0  0  0  0  0  0  0  0  0  0
   34.2530   27.5950   49.7580 H   0  0  0  0  0  0  0  0  0  0  0  0
   35.2980   27.2820   48.3360 H   0  0  0  0  0  0  0  0  0  0  0  0
   36.8030   28.6000   49.4410 H   0  0  0  0  0  0  0  0  0  0  0  0
   35.4810   29.3960   50.9500 C   0  0  0  0  0  0  0  0  0  0  0  0
   34.4240   29.5620   51.1520 H   0  0  0  0  0  0  0  0  0  0  0  0
   36.4670   29.4600   51.6870 O   0  0  0  0  0  0  0  0  0  0  0  0
  1  6  1  0  0  0  0
  1 12  1  0  0  0  0
  2  1  2  0  0  0  0
  3  4  2  0  0  0  0
  3  2  1  0  0  0  0
  4  5  1  0  0  0  0
  5  7  1  0  0  0  0
  5  6  2  0  0  0  0
  7 11  1  0  0  0  0
  8  9  1  0  0  0  0
  8 16  1  0  0  0  0
  8  7  1  0  0  0  0
  9 18  1  0  0  0  0
  9 10  1  0  0  0  0
 10 11  1  0  0  0  0
 10 19  1  0  0  0  0
 11 21  1  6  0  0  0
 11 22  1  0  0  0  0
 13  2  1  0  0  0  0
 14  3  1  0  0  0  0
 15  8  1  0  0  0  0
 17  9  1  0  0  0  0
 20 10  1  0  0  0  0
 22 23  1  0  0  0  0
 22 24  2  0  0  0  0
M  END
>  <minimizedAffinity>
-4.78974628

>  <minimizedRMSD>
0.562584996

$$$$
