REMARK  Name = 
REMARK  4 active torsions:
REMARK  status: ('A' for Active; 'I' for Inactive)
REMARK    1  A    between atoms: C_2  and  C_12
REMARK    2  A    between atoms: C_6  and  O_16
REMARK    3  A    between atoms: O_16  and  C_18
REMARK    4  A    between atoms: C_22  and  C_37
REMARK                            x       y       z     vdW  Elec       q    Type
REMARK                         _______ _______ _______ _____ _____    ______ ____
ROOT
ATOM      1  C   UNK A   0      36.237  30.179  46.858  0.00  0.00    +0.000 A 
ATOM      2  C   UNK A   0      37.076  30.730  47.799  0.00  0.00    +0.000 A 
ATOM      3  C   UNK A   0      38.073  31.652  47.435  0.00  0.00    +0.000 A 
ATOM      4  C   UNK A   0      38.149  31.961  46.081  0.00  0.00    +0.000 A 
ATOM      5  N   UNK A   0      39.030  32.830  45.481  0.00  0.00    +0.000 N 
ATOM      6  C   UNK A   0      38.730  32.811  44.169  0.00  0.00    +0.000 A 
ATOM      7  N   UNK A   0      37.726  31.985  43.952  0.00  0.00    +0.000 NA
ATOM      8  C   UNK A   0      37.336  31.436  45.116  0.00  0.00    +0.000 A 
ATOM      9  C   UNK A   0      36.354  30.520  45.518  0.00  0.00    +0.000 A 
ATOM     10  H   UNK A   0      35.460  29.464  47.114  0.00  0.00    +0.000 HD
ATOM     11  H   UNK A   0      38.745  32.098  48.164  0.00  0.00    +0.000 HD
ATOM     12  H   UNK A   0      39.783  33.391  45.962  0.00  0.00    +0.000 HD
ATOM     13  H   UNK A   0      35.707  30.099  44.764  0.00  0.00    +0.000 HD
ENDROOT
BRANCH   2  16
ATOM     14  C   UNK A   0      37.495  30.144  51.492  0.00  0.00    +0.000 A 
ATOM     15  C   UNK A   0      37.827  30.576  50.209  0.00  0.00    +0.000 A 
ATOM     16  C   UNK A   0      36.929  30.358  49.198  0.00  0.00    +0.000 A 
ATOM     17  N   UNK A   0      35.749  29.720  49.522  0.00  0.00    +0.000 NA
ATOM     18  C   UNK A   0      35.439  29.306  50.763  0.00  0.00    +0.000 A 
ATOM     19  N   UNK A   0      36.311  29.520  51.733  0.00  0.00    +0.000 NA
ATOM     20  H   UNK A   0      38.217  30.324  52.282  0.00  0.00    +0.000 HD
ATOM     21  H   UNK A   0      38.737  31.075  49.933  0.00  0.00    +0.000 HD
ATOM     22  H   UNK A   0      34.479  28.820  50.870  0.00  0.00    +0.000 HD
ENDBRANCH   2  16
BRANCH   6  23
ATOM     23  O   UNK A   0      39.422  33.581  43.233  0.00  0.00    +0.000 OA
BRANCH  23  25
ATOM     24  N   UNK A   1      39.568  31.845  41.722  0.00  0.00    +0.000 NA
ATOM     25  C   UNK A   0      39.199  33.246  41.870  0.00  0.00    +0.000 C 
ATOM     26  C   UNK A   1      37.803  33.443  41.511  0.00  0.00    +0.000 C 
ATOM     27  O   UNK A   1      37.635  33.119  40.154  0.00  0.00    +0.000 OA
ATOM     28  C   UNK A   1      38.068  31.878  39.790  0.00  0.00    +0.000 C 
ATOM     29  C   UNK A   1      39.468  31.594  40.304  0.00  0.00    +0.000 C 
ATOM     30  H   UNK A   1      38.975  31.154  42.155  0.00  0.00    +0.000 HD
ATOM     31  H   UNK A   0      39.861  33.806  41.181  0.00  0.00    +0.000 HD
ATOM     32  H   UNK A   1      37.604  34.559  41.532  0.00  0.00    +0.000 HD
ATOM     33  H   UNK A   1      36.976  32.983  41.979  0.00  0.00    +0.000 HD
ATOM     34  H   UNK A   1      37.399  31.128  40.261  0.00  0.00    +0.000 HD
ATOM     35  H   UNK A   1      38.089  31.825  38.703  0.00  0.00    +0.000 HD
ATOM     36  H   UNK A   1      40.160  32.270  39.762  0.00  0.00    +0.000 HD
BRANCH  29  37
ATOM     37  C   UNK A   1      39.802  30.165  40.073  0.00  0.00    +0.000 C 
ATOM     38  H   UNK A   1      39.344  29.627  39.228  0.00  0.00    +0.000 HD
ATOM     39  O   UNK A   1      40.594  29.613  40.845  0.00  0.00    +0.000 OA
ENDBRANCH  29  37
ENDBRANCH  23  25
ENDBRANCH   6  23
TORSDOF 4
