
 OpenBabel03262521493D

 26 27  0  0  1  0  0  0  0  0999 V2000
   37.2310   29.2560   50.5070 C   0  0  0  0  0  0  0  0  0  0  0  0
   37.3620   30.6290   50.8060 C   0  0  0  0  0  0  0  0  0  0  0  0
   36.5950   31.5280   50.0630 C   0  0  0  0  0  0  0  0  0  0  0  0
   35.7740   31.0200   49.1030 N   0  0  0  0  0  0  0  0  0  0  0  0
   35.6770   29.6930   48.8470 C   0  0  0  0  0  0  0  0  0  0  0  0
   36.4030   28.8100   49.5450 N   0  0  0  0  0  0  0  0  0  0  0  0
   34.8030   29.2460   47.8350 N   0  0  0  0  0  0  0  0  0  0  0  0
   34.1770   27.9320   47.9040 C   0  0  0  0  0  0  0  0  0  0  0  0
   32.7110   28.0640   47.7600 C   0  0  0  0  0  0  0  0  0  0  0  0
   32.2150   29.2850   47.2680 N   0  0  0  0  0  0  0  0  0  0  0  0
   33.0430   30.1090   46.4720 C   0  0  0  0  0  0  0  0  0  0  0  0
   34.4980   30.0900   46.6850 C   0  0  2  0  0  0  0  0  0  0  0  0
   37.8260   28.5760   51.0860 H   0  0  0  0  0  0  0  0  0  0  0  0
   38.0250   30.9930   51.5770 H   0  0  0  0  0  0  0  0  0  0  0  0
   36.6380   32.5940   50.2290 H   0  0  0  0  0  0  0  0  0  0  0  0
   34.4840   27.4500   48.8760 H   0  0  0  0  0  0  0  0  0  0  0  0
   34.6430   27.2750   47.1160 H   0  0  0  0  0  0  0  0  0  0  0  0
   32.2440   27.8490   48.7520 H   0  0  0  0  0  0  0  0  0  0  0  0
   32.3670   27.2340   47.0890 H   0  0  0  0  0  0  0  0  0  0  0  0
   31.2890   29.1910   46.8410 H   0  0  0  0  0  0  0  0  0  0  0  0
   32.6480   31.1600   46.5350 H   0  0  0  0  0  0  0  0  0  0  0  0
   32.8580   29.8400   45.3920 H   0  0  0  0  0  0  0  0  0  0  0  0
   34.8790   31.1110   46.8930 H   0  0  0  0  0  0  0  0  0  0  0  0
   35.2550   29.6120   45.4730 C   0  0  0  0  0  0  0  0  0  0  0  0
   34.8240   28.7510   44.9700 H   0  0  0  0  0  0  0  0  0  0  0  0
   36.2640   30.2290   45.1790 O   0  0  0  0  0  0  0  0  0  0  0  0
  1  2  1  0  0  0  0
  1 13  1  0  0  0  0
  2 14  1  0  0  0  0
  3 15  1  0  0  0  0
  3  2  2  0  0  0  0
  4  3  1  0  0  0  0
  5  4  2  0  0  0  0
  5  6  1  0  0  0  0
  6  1  2  0  0  0  0
  7  8  1  0  0  0  0
  7  5  1  0  0  0  0
  8 16  1  0  0  0  0
  9  8  1  0  0  0  0
  9 18  1  0  0  0  0
 10  9  1  0  0  0  0
 11 21  1  0  0  0  0
 11 12  1  0  0  0  0
 11 10  1  0  0  0  0
 12 23  1  1  0  0  0
 12  7  1  0  0  0  0
 17  8  1  0  0  0  0
 19  9  1  0  0  0  0
 20 10  1  0  0  0  0
 22 11  1  0  0  0  0
 24 12  1  0  0  0  0
 25 24  1  0  0  0  0
 26 24  2  0  0  0  0
M  END
>  <minimizedAffinity>
-4.11313534

>  <minimizedRMSD>
0.753439069

$$$$
