
 OpenBabel03272500093D

 33 35  0  0  0  0  0  0  0  0999 V2000
   37.8100   24.4280   31.8780 C   0  0  0  0  0  0  0  0  0  0  0  0
   37.8930   25.7920   32.2080 C   0  0  0  0  0  0  0  0  0  0  0  0
   37.9350   26.1320   33.5670 C   0  0  0  0  0  0  0  0  0  0  0  0
   37.8950   25.1490   34.4970 N   0  0  0  0  0  0  0  0  0  0  0  0
   37.8160   23.8590   34.1520 C   0  0  0  0  0  0  0  0  0  0  0  0
   37.7730   23.4760   32.8400 N   0  0  0  0  0  0  0  0  0  0  0  0
   37.7750   24.1090   30.8400 H   0  0  0  0  0  0  0  0  0  0  0  0
   37.9990   27.1870   33.8110 H   0  0  0  0  0  0  0  0  0  0  0  0
   37.9280   26.7360   31.1460 N   0  0  0  0  0  0  0  0  0  0  0  0
   39.0780   27.1730   30.6220 C   0  0  0  0  0  0  0  0  0  0  0  0
   39.0530   28.0960   29.5840 C   0  0  0  0  0  0  0  0  0  0  0  0
   37.8150   28.4850   29.1830 C   0  0  0  0  0  0  0  0  0  0  0  0
   37.7410   29.3260   28.2380 O   0  0  0  0  0  0  0  0  0  0  0  0
   36.6500   28.0730   29.6790 N   0  0  0  0  0  0  0  0  0  0  0  0
   36.7020   27.1700   30.6920 C   0  0  0  0  0  0  0  0  0  0  0  0
   35.6200   26.7600   31.1840 O   0  0  0  0  0  0  0  0  0  0  0  0
   39.9930   26.7810   31.0370 H   0  0  0  0  0  0  0  0  0  0  0  0
   39.9870   28.4470   29.1630 H   0  0  0  0  0  0  0  0  0  0  0  0
   35.7210   28.4100   29.3260 H   0  0  0  0  0  0  0  0  0  0  0  0
   37.7740   22.8300   35.0980 O   0  0  0  0  0  0  0  0  0  0  0  0
   38.9030   22.7170   35.9110 C   0  0  0  0  0  0  0  0  0  0  0  0
   40.0200   22.2600   35.2360 C   0  0  0  0  0  0  0  0  0  0  0  0
   41.2230   22.0900   35.8880 C   0  0  0  0  0  0  0  0  0  0  0  0
   41.2780   22.3950   37.2530 C   0  0  0  0  0  0  0  0  0  0  0  0
   40.1460   22.8530   37.9160 C   0  0  0  0  0  0  0  0  0  0  0  0
   38.9680   23.0140   37.2540 C   0  0  0  0  0  0  0  0  0  0  0  0
   40.0260   22.0110   34.1770 H   0  0  0  0  0  0  0  0  0  0  0  0
   42.1020   21.7340   35.3680 H   0  0  0  0  0  0  0  0  0  0  0  0
   42.2340   22.2520   37.7360 H   0  0  0  0  0  0  0  0  0  0  0  0
   40.2380   23.0730   38.9620 H   0  0  0  0  0  0  0  0  0  0  0  0
   37.7740   23.4820   37.8860 C   0  0  0  0  0  0  0  0  0  0  0  0
   36.8100   23.0680   37.7530 H   0  0  0  0  0  0  0  0  0  0  0  0
   37.8550   24.4730   38.6730 O   0  0  0  0  0  0  0  0  0  0  0  0
  1  2  2  0  0  0  0
  1  6  1  0  0  0  0
  2  3  1  0  0  0  0
  3  8  1  0  0  0  0
  3  4  2  0  0  0  0
  5  4  1  0  0  0  0
  5 20  1  0  0  0  0
  6  5  2  0  0  0  0
  7  1  1  0  0  0  0
  9  2  1  0  0  0  0
 10 17  1  0  0  0  0
 10  9  1  0  0  0  0
 11 10  2  0  0  0  0
 12 11  1  0  0  0  0
 12 14  1  0  0  0  0
 13 12  2  0  0  0  0
 14 15  1  0  0  0  0
 15  9  1  0  0  0  0
 15 16  2  0  0  0  0
 18 11  1  0  0  0  0
 19 14  1  0  0  0  0
 20 21  1  0  0  0  0
 21 26  1  0  0  0  0
 22 23  1  0  0  0  0
 22 21  2  0  0  0  0
 23 24  2  0  0  0  0
 24 29  1  0  0  0  0
 24 25  1  0  0  0  0
 25 30  1  0  0  0  0
 26 31  1  0  0  0  0
 26 25  2  0  0  0  0
 27 22  1  0  0  0  0
 28 23  1  0  0  0  0
 31 33  2  0  0  0  0
 32 31  1  0  0  0  0
M  END
>  <minimizedAffinity>
-5.38009214

$$$$

 OpenBabel03272500093D

 33 35  0  0  0  0  0  0  0  0999 V2000
   37.9890   23.8270   33.2360 C   0  0  0  0  0  0  0  0  0  0  0  0
   38.4350   24.4160   34.4320 C   0  0  0  0  0  0  0  0  0  0  0  0
   38.0060   25.7190   34.7160 C   0  0  0  0  0  0  0  0  0  0  0  0
   37.1890   26.3530   33.8410 N   0  0  0  0  0  0  0  0  0  0  0  0
   36.7810   25.7660   32.7110 C   0  0  0  0  0  0  0  0  0  0  0  0
   37.1710   24.4960   32.3890 N   0  0  0  0  0  0  0  0  0  0  0  0
   38.2910   22.8190   32.9670 H   0  0  0  0  0  0  0  0  0  0  0  0
   38.3560   26.1650   35.6410 H   0  0  0  0  0  0  0  0  0  0  0  0
   39.2910   23.6540   35.2730 N   0  0  0  0  0  0  0  0  0  0  0  0
   40.6230   23.7040   35.1630 C   0  0  0  0  0  0  0  0  0  0  0  0
   41.4110   22.9370   36.0120 C   0  0  0  0  0  0  0  0  0  0  0  0
   40.7290   22.1780   36.9080 C   0  0  0  0  0  0  0  0  0  0  0  0
   41.4050   21.4600   37.7050 O   0  0  0  0  0  0  0  0  0  0  0  0
   39.4070   22.1020   37.0470 N   0  0  0  0  0  0  0  0  0  0  0  0
   38.6600   22.8620   36.2060 C   0  0  0  0  0  0  0  0  0  0  0  0
   37.4070   22.8140   36.3090 O   0  0  0  0  0  0  0  0  0  0  0  0
   41.0340   24.3510   34.4050 H   0  0  0  0  0  0  0  0  0  0  0  0
   42.4890   22.9810   35.9200 H   0  0  0  0  0  0  0  0  0  0  0  0
   38.9350   21.4950   37.7620 H   0  0  0  0  0  0  0  0  0  0  0  0
   35.9370   26.4040   31.7960 O   0  0  0  0  0  0  0  0  0  0  0  0
   36.4010   27.6260   31.3040 C   0  0  0  0  0  0  0  0  0  0  0  0
   37.4760   27.4960   30.4440 C   0  0  0  0  0  0  0  0  0  0  0  0
   38.0600   28.6040   29.8650 C   0  0  0  0  0  0  0  0  0  0  0  0
   37.5300   29.8610   30.1760 C   0  0  0  0  0  0  0  0  0  0  0  0
   36.4490   29.9740   31.0420 C   0  0  0  0  0  0  0  0  0  0  0  0
   35.8880   28.8680   31.6020 C   0  0  0  0  0  0  0  0  0  0  0  0
   37.9220   26.5410   30.1730 H   0  0  0  0  0  0  0  0  0  0  0  0
   38.9010   28.5120   29.1910 H   0  0  0  0  0  0  0  0  0  0  0  0
   38.0070   30.7090   29.7070 H   0  0  0  0  0  0  0  0  0  0  0  0
   36.0790   30.9580   31.2480 H   0  0  0  0  0  0  0  0  0  0  0  0
   34.7750   28.9250   32.4990 C   0  0  0  0  0  0  0  0  0  0  0  0
   33.7580   28.8580   32.2160 H   0  0  0  0  0  0  0  0  0  0  0  0
   35.0040   29.0670   33.7370 O   0  0  0  0  0  0  0  0  0  0  0  0
  1  2  1  0  0  0  0
  2  3  2  0  0  0  0
  2  9  1  0  0  0  0
  3  8  1  0  0  0  0
  4  3  1  0  0  0  0
  5  4  2  0  0  0  0
  6  5  1  0  0  0  0
  6  1  2  0  0  0  0
  7  1  1  0  0  0  0
  9 15  1  0  0  0  0
 10  9  1  0  0  0  0
 10 11  2  0  0  0  0
 11 12  1  0  0  0  0
 12 14  1  0  0  0  0
 12 13  2  0  0  0  0
 14 19  1  0  0  0  0
 15 16  2  0  0  0  0
 15 14  1  0  0  0  0
 17 10  1  0  0  0  0
 18 11  1  0  0  0  0
 20  5  1  0  0  0  0
 21 26  1  0  0  0  0
 21 20  1  0  0  0  0
 22 21  2  0  0  0  0
 23 24  2  0  0  0  0
 23 22  1  0  0  0  0
 24 25  1  0  0  0  0
 25 30  1  0  0  0  0
 25 26  2  0  0  0  0
 26 31  1  0  0  0  0
 27 22  1  0  0  0  0
 28 23  1  0  0  0  0
 29 24  1  0  0  0  0
 31 33  2  0  0  0  0
 32 31  1  0  0  0  0
M  END
>  <minimizedAffinity>
-5.17913008

$$$$

 OpenBabel03272500093D

 33 35  0  0  0  0  0  0  0  0999 V2000
   36.3870   28.3570   34.5230 C   0  0  0  0  0  0  0  0  0  0  0  0
   35.7780   29.5290   34.0390 C   0  0  0  0  0  0  0  0  0  0  0  0
   35.8080   29.7560   32.6570 C   0  0  0  0  0  0  0  0  0  0  0  0
   36.4130   28.8520   31.8510 N   0  0  0  0  0  0  0  0  0  0  0  0
   36.9840   27.7460   32.3400 C   0  0  0  0  0  0  0  0  0  0  0  0
   36.9810   27.4790   33.6810 N   0  0  0  0  0  0  0  0  0  0  0  0
   36.3920   28.1330   35.5860 H   0  0  0  0  0  0  0  0  0  0  0  0
   35.3360   30.6620   32.2940 H   0  0  0  0  0  0  0  0  0  0  0  0
   35.1740   30.4060   34.9810 N   0  0  0  0  0  0  0  0  0  0  0  0
   35.8850   31.2950   35.6810 C   0  0  0  0  0  0  0  0  0  0  0  0
   35.2410   32.1270   36.5900 C   0  0  0  0  0  0  0  0  0  0  0  0
   33.8980   31.9510   36.6850 C   0  0  0  0  0  0  0  0  0  0  0  0
   33.2660   32.6880   37.5010 O   0  0  0  0  0  0  0  0  0  0  0  0
   33.1570   31.0780   36.0070 N   0  0  0  0  0  0  0  0  0  0  0  0
   33.8100   30.2770   35.1250 C   0  0  0  0  0  0  0  0  0  0  0  0
   33.1400   29.4410   34.4670 O   0  0  0  0  0  0  0  0  0  0  0  0
   36.9480   31.3280   35.5070 H   0  0  0  0  0  0  0  0  0  0  0  0
   35.8210   32.8460   37.1550 H   0  0  0  0  0  0  0  0  0  0  0  0
   32.1170   30.9890   36.1230 H   0  0  0  0  0  0  0  0  0  0  0  0
   37.6120   26.8000   31.5230 O   0  0  0  0  0  0  0  0  0  0  0  0
   37.0800   25.5110   31.5800 C   0  0  0  0  0  0  0  0  0  0  0  0
   35.7890   25.4310   31.0910 C   0  0  0  0  0  0  0  0  0  0  0  0
   35.1110   24.2300   31.0710 C   0  0  0  0  0  0  0  0  0  0  0  0
   35.7700   23.0970   31.5620 C   0  0  0  0  0  0  0  0  0  0  0  0
   37.0670   23.1950   32.0500 C   0  0  0  0  0  0  0  0  0  0  0  0
   37.7190   24.3900   32.0600 C   0  0  0  0  0  0  0  0  0  0  0  0
   35.2370   26.2820   30.6990 H   0  0  0  0  0  0  0  0  0  0  0  0
   34.1010   24.1570   30.6900 H   0  0  0  0  0  0  0  0  0  0  0  0
   35.2140   22.1710   31.5330 H   0  0  0  0  0  0  0  0  0  0  0  0
   37.5300   22.3000   32.4150 H   0  0  0  0  0  0  0  0  0  0  0  0
   39.0530   24.5490   32.5500 C   0  0  0  0  0  0  0  0  0  0  0  0
   39.9310   24.4800   31.9650 H   0  0  0  0  0  0  0  0  0  0  0  0
   39.2190   24.7930   33.7830 O   0  0  0  0  0  0  0  0  0  0  0  0
  1  7  1  0  0  0  0
  2  1  1  0  0  0  0
  2  9  1  0  0  0  0
  3  2  2  0  0  0  0
  4  5  2  0  0  0  0
  4  3  1  0  0  0  0
  5  6  1  0  0  0  0
  6  1  2  0  0  0  0
  8  3  1  0  0  0  0
  9 15  1  0  0  0  0
  9 10  1  0  0  0  0
 10 11  2  0  0  0  0
 11 12  1  0  0  0  0
 11 18  1  0  0  0  0
 12 13  2  0  0  0  0
 14 19  1  0  0  0  0
 14 12  1  0  0  0  0
 15 14  1  0  0  0  0
 16 15  2  0  0  0  0
 17 10  1  0  0  0  0
 20 21  1  0  0  0  0
 20  5  1  0  0  0  0
 21 26  1  0  0  0  0
 22 21  2  0  0  0  0
 23 22  1  0  0  0  0
 23 24  2  0  0  0  0
 24 25  1  0  0  0  0
 25 26  2  0  0  0  0
 25 30  1  0  0  0  0
 26 31  1  0  0  0  0
 27 22  1  0  0  0  0
 28 23  1  0  0  0  0
 29 24  1  0  0  0  0
 31 33  2  0  0  0  0
 32 31  1  0  0  0  0
M  END
>  <minimizedAffinity>
-5.13239479

$$$$

 OpenBabel03272500093D

 33 35  0  0  0  0  0  0  0  0999 V2000
   38.2500   23.9010   33.0880 C   0  0  0  0  0  0  0  0  0  0  0  0
   38.4890   24.4120   34.3760 C   0  0  0  0  0  0  0  0  0  0  0  0
   37.8710   25.6210   34.7220 C   0  0  0  0  0  0  0  0  0  0  0  0
   37.0790   26.2420   33.8170 N   0  0  0  0  0  0  0  0  0  0  0  0
   36.8710   25.7320   32.5990 C   0  0  0  0  0  0  0  0  0  0  0  0
   37.4500   24.5550   32.2130 N   0  0  0  0  0  0  0  0  0  0  0  0
   38.7040   22.9670   32.7680 H   0  0  0  0  0  0  0  0  0  0  0  0
   38.0620   26.0070   35.7180 H   0  0  0  0  0  0  0  0  0  0  0  0
   39.3400   23.6710   35.2420 N   0  0  0  0  0  0  0  0  0  0  0  0
   40.6510   23.9170   35.3300 C   0  0  0  0  0  0  0  0  0  0  0  0
   41.4350   23.1610   36.1920 C   0  0  0  0  0  0  0  0  0  0  0  0
   40.7700   22.2050   36.8920 C   0  0  0  0  0  0  0  0  0  0  0  0
   41.4440   21.4890   37.6930 O   0  0  0  0  0  0  0  0  0  0  0  0
   39.4690   21.9310   36.8310 N   0  0  0  0  0  0  0  0  0  0  0  0
   38.7250   22.6840   35.9810 C   0  0  0  0  0  0  0  0  0  0  0  0
   37.4920   22.4520   35.8980 O   0  0  0  0  0  0  0  0  0  0  0  0
   41.0500   24.7080   34.7150 H   0  0  0  0  0  0  0  0  0  0  0  0
   42.4960   23.3640   36.2610 H   0  0  0  0  0  0  0  0  0  0  0  0
   39.0100   21.1770   37.3990 H   0  0  0  0  0  0  0  0  0  0  0  0
   36.0560   26.3590   31.6510 O   0  0  0  0  0  0  0  0  0  0  0  0
   36.1910   27.7460   31.5680 C   0  0  0  0  0  0  0  0  0  0  0  0
   35.2330   28.4330   32.2900 C   0  0  0  0  0  0  0  0  0  0  0  0
   35.2190   29.8120   32.3190 C   0  0  0  0  0  0  0  0  0  0  0  0
   36.2040   30.4920   31.5940 C   0  0  0  0  0  0  0  0  0  0  0  0
   37.1600   29.7860   30.8730 C   0  0  0  0  0  0  0  0  0  0  0  0
   37.1550   28.4260   30.8590 C   0  0  0  0  0  0  0  0  0  0  0  0
   34.4490   27.9490   32.8680 H   0  0  0  0  0  0  0  0  0  0  0  0
   34.4740   30.3580   32.8820 H   0  0  0  0  0  0  0  0  0  0  0  0
   36.1680   31.5720   31.6360 H   0  0  0  0  0  0  0  0  0  0  0  0
   37.8930   30.3520   30.3340 H   0  0  0  0  0  0  0  0  0  0  0  0
   38.1140   27.6490   30.1350 C   0  0  0  0  0  0  0  0  0  0  0  0
   37.9550   27.2140   29.1840 H   0  0  0  0  0  0  0  0  0  0  0  0
   39.2520   27.4530   30.6590 O   0  0  0  0  0  0  0  0  0  0  0  0
  1  2  1  0  0  0  0
  2  3  2  0  0  0  0
  2  9  1  0  0  0  0
  3  8  1  0  0  0  0
  4  3  1  0  0  0  0
  5  4  2  0  0  0  0
  6  5  1  0  0  0  0
  6  1  2  0  0  0  0
  7  1  1  0  0  0  0
  9 10  1  0  0  0  0
  9 15  1  0  0  0  0
 10 11  2  0  0  0  0
 11 18  1  0  0  0  0
 11 12  1  0  0  0  0
 12 13  2  0  0  0  0
 14 12  1  0  0  0  0
 14 19  1  0  0  0  0
 15 14  1  0  0  0  0
 16 15  2  0  0  0  0
 17 10  1  0  0  0  0
 20  5  1  0  0  0  0
 21 20  1  0  0  0  0
 21 22  1  0  0  0  0
 22 23  2  0  0  0  0
 22 27  1  0  0  0  0
 23 28  1  0  0  0  0
 24 29  1  0  0  0  0
 24 23  1  0  0  0  0
 25 24  2  0  0  0  0
 26 25  1  0  0  0  0
 26 21  2  0  0  0  0
 30 25  1  0  0  0  0
 31 33  2  0  0  0  0
 31 26  1  0  0  0  0
 32 31  1  0  0  0  0
M  END
>  <minimizedAffinity>
-5.08818436

$$$$

 OpenBabel03272500093D

 33 35  0  0  0  0  0  0  0  0999 V2000
   35.7470   29.3790   32.7210 C   0  0  0  0  0  0  0  0  0  0  0  0
   35.8090   29.1830   34.1120 C   0  0  0  0  0  0  0  0  0  0  0  0
   36.4220   28.0130   34.5780 C   0  0  0  0  0  0  0  0  0  0  0  0
   36.9250   27.1280   33.6850 N   0  0  0  0  0  0  0  0  0  0  0  0
   36.8520   27.3420   32.3670 C   0  0  0  0  0  0  0  0  0  0  0  0
   36.2640   28.4680   31.8620 N   0  0  0  0  0  0  0  0  0  0  0  0
   35.2840   30.2690   32.3050 H   0  0  0  0  0  0  0  0  0  0  0  0
   36.4640   27.8710   35.6530 H   0  0  0  0  0  0  0  0  0  0  0  0
   35.2460   30.1820   34.9530 N   0  0  0  0  0  0  0  0  0  0  0  0
   35.9990   31.1030   35.5620 C   0  0  0  0  0  0  0  0  0  0  0  0
   35.3960   32.0560   36.3730 C   0  0  0  0  0  0  0  0  0  0  0  0
   34.0450   31.9580   36.4760 C   0  0  0  0  0  0  0  0  0  0  0  0
   33.4480   32.8060   37.2060 O   0  0  0  0  0  0  0  0  0  0  0  0
   33.2630   31.0560   35.8870 N   0  0  0  0  0  0  0  0  0  0  0  0
   33.8780   30.1360   35.0990 C   0  0  0  0  0  0  0  0  0  0  0  0
   33.1680   29.2690   34.5270 O   0  0  0  0  0  0  0  0  0  0  0  0
   37.0630   31.0660   35.3920 H   0  0  0  0  0  0  0  0  0  0  0  0
   36.0090   32.8010   36.8640 H   0  0  0  0  0  0  0  0  0  0  0  0
   32.2200   31.0300   36.0040 H   0  0  0  0  0  0  0  0  0  0  0  0
   37.3660   26.4400   31.4300 O   0  0  0  0  0  0  0  0  0  0  0  0
   37.0380   25.1000   31.6450 C   0  0  0  0  0  0  0  0  0  0  0  0
   38.0350   24.3890   32.2880 C   0  0  0  0  0  0  0  0  0  0  0  0
   37.8770   23.0500   32.5790 C   0  0  0  0  0  0  0  0  0  0  0  0
   36.6770   22.4350   32.2040 C   0  0  0  0  0  0  0  0  0  0  0  0
   35.6850   23.1640   31.5590 C   0  0  0  0  0  0  0  0  0  0  0  0
   35.8620   24.4850   31.2810 C   0  0  0  0  0  0  0  0  0  0  0  0
   38.9830   24.8240   32.5980 H   0  0  0  0  0  0  0  0  0  0  0  0
   38.6510   22.4860   33.0820 H   0  0  0  0  0  0  0  0  0  0  0  0
   36.5820   21.3870   32.4470 H   0  0  0  0  0  0  0  0  0  0  0  0
   34.7840   22.6490   31.2920 H   0  0  0  0  0  0  0  0  0  0  0  0
   34.8760   25.2830   30.6200 C   0  0  0  0  0  0  0  0  0  0  0  0
   34.9230   25.6030   29.6130 H   0  0  0  0  0  0  0  0  0  0  0  0
   33.8540   25.6460   31.2770 O   0  0  0  0  0  0  0  0  0  0  0  0
  1  2  1  0  0  0  0
  2  3  2  0  0  0  0
  2  9  1  0  0  0  0
  3  8  1  0  0  0  0
  4  3  1  0  0  0  0
  5  4  2  0  0  0  0
  6  5  1  0  0  0  0
  6  1  2  0  0  0  0
  7  1  1  0  0  0  0
  9 15  1  0  0  0  0
  9 10  1  0  0  0  0
 10 11  2  0  0  0  0
 11 12  1  0  0  0  0
 11 18  1  0  0  0  0
 12 13  2  0  0  0  0
 14 19  1  0  0  0  0
 14 12  1  0  0  0  0
 15 14  1  0  0  0  0
 16 15  2  0  0  0  0
 17 10  1  0  0  0  0
 20 21  1  0  0  0  0
 20  5  1  0  0  0  0
 21 22  1  0  0  0  0
 22 23  2  0  0  0  0
 22 27  1  0  0  0  0
 23 28  1  0  0  0  0
 24 29  1  0  0  0  0
 24 23  1  0  0  0  0
 25 24  2  0  0  0  0
 26 25  1  0  0  0  0
 26 21  2  0  0  0  0
 30 25  1  0  0  0  0
 31 33  2  0  0  0  0
 31 26  1  0  0  0  0
 32 31  1  0  0  0  0
M  END
>  <minimizedAffinity>
-5.05901051

$$$$

 OpenBabel03272500093D

 33 35  0  0  0  0  0  0  0  0999 V2000
   36.4820   27.9720   33.1970 C   0  0  0  0  0  0  0  0  0  0  0  0
   36.5790   27.8010   31.8050 C   0  0  0  0  0  0  0  0  0  0  0  0
   36.0800   28.8230   30.9870 C   0  0  0  0  0  0  0  0  0  0  0  0
   35.5310   29.9200   31.5590 N   0  0  0  0  0  0  0  0  0  0  0  0
   35.4530   30.0550   32.8870 C   0  0  0  0  0  0  0  0  0  0  0  0
   35.9260   29.0860   33.7280 N   0  0  0  0  0  0  0  0  0  0  0  0
   36.8530   27.2110   33.8770 H   0  0  0  0  0  0  0  0  0  0  0  0
   36.1590   28.6810   29.9140 H   0  0  0  0  0  0  0  0  0  0  0  0
   37.1750   26.6060   31.3190 N   0  0  0  0  0  0  0  0  0  0  0  0
   38.4960   26.4920   31.1410 C   0  0  0  0  0  0  0  0  0  0  0  0
   39.0240   25.3000   30.6620 C   0  0  0  0  0  0  0  0  0  0  0  0
   38.1150   24.3230   30.4100 C   0  0  0  0  0  0  0  0  0  0  0  0
   38.5500   23.2150   29.9720 O   0  0  0  0  0  0  0  0  0  0  0  0
   36.7960   24.3980   30.5750 N   0  0  0  0  0  0  0  0  0  0  0  0
   36.3050   25.5740   31.0440 C   0  0  0  0  0  0  0  0  0  0  0  0
   35.0630   25.6800   31.2110 O   0  0  0  0  0  0  0  0  0  0  0  0
   39.1040   27.3490   31.3810 H   0  0  0  0  0  0  0  0  0  0  0  0
   40.0940   25.2130   30.5190 H   0  0  0  0  0  0  0  0  0  0  0  0
   36.1410   23.6050   30.3620 H   0  0  0  0  0  0  0  0  0  0  0  0
   34.8900   31.1820   33.4960 O   0  0  0  0  0  0  0  0  0  0  0  0
   35.7970   32.1700   33.8820 C   0  0  0  0  0  0  0  0  0  0  0  0
   36.3180   32.8810   32.8170 C   0  0  0  0  0  0  0  0  0  0  0  0
   37.2310   33.8950   33.0190 C   0  0  0  0  0  0  0  0  0  0  0  0
   37.6110   34.1820   34.3360 C   0  0  0  0  0  0  0  0  0  0  0  0
   37.0780   33.4580   35.3950 C   0  0  0  0  0  0  0  0  0  0  0  0
   36.1790   32.4600   35.1730 C   0  0  0  0  0  0  0  0  0  0  0  0
   36.0530   32.6950   31.7790 H   0  0  0  0  0  0  0  0  0  0  0  0
   37.6430   34.4580   32.1920 H   0  0  0  0  0  0  0  0  0  0  0  0
   38.3260   34.9820   34.4620 H   0  0  0  0  0  0  0  0  0  0  0  0
   37.4000   33.7140   36.3840 H   0  0  0  0  0  0  0  0  0  0  0  0
   35.5980   31.6840   36.2240 C   0  0  0  0  0  0  0  0  0  0  0  0
   35.8750   30.6950   36.4780 H   0  0  0  0  0  0  0  0  0  0  0  0
   34.6740   32.2040   36.9200 O   0  0  0  0  0  0  0  0  0  0  0  0
  1  6  1  0  0  0  0
  1  7  1  0  0  0  0
  2  1  2  0  0  0  0
  3  4  2  0  0  0  0
  3  2  1  0  0  0  0
  4  5  1  0  0  0  0
  5 20  1  0  0  0  0
  5  6  2  0  0  0  0
  8  3  1  0  0  0  0
  9  2  1  0  0  0  0
 10  9  1  0  0  0  0
 10 17  1  0  0  0  0
 11 10  2  0  0  0  0
 12 14  1  0  0  0  0
 12 11  1  0  0  0  0
 13 12  2  0  0  0  0
 14 15  1  0  0  0  0
 15 16  2  0  0  0  0
 15  9  1  0  0  0  0
 18 11  1  0  0  0  0
 19 14  1  0  0  0  0
 20 21  1  0  0  0  0
 21 26  1  0  0  0  0
 22 23  1  0  0  0  0
 22 21  2  0  0  0  0
 23 24  2  0  0  0  0
 24 29  1  0  0  0  0
 24 25  1  0  0  0  0
 25 30  1  0  0  0  0
 26 25  2  0  0  0  0
 26 31  1  0  0  0  0
 27 22  1  0  0  0  0
 28 23  1  0  0  0  0
 31 32  1  0  0  0  0
 31 33  2  0  0  0  0
M  END
>  <minimizedAffinity>
-5.0470643

$$$$

 OpenBabel03272500093D

 33 35  0  0  0  0  0  0  0  0999 V2000
   35.6230   25.7150   31.2320 C   0  0  0  0  0  0  0  0  0  0  0  0
   36.4360   26.7610   31.7020 C   0  0  0  0  0  0  0  0  0  0  0  0
   37.6740   26.4220   32.2630 C   0  0  0  0  0  0  0  0  0  0  0  0
   38.0350   25.1190   32.3310 N   0  0  0  0  0  0  0  0  0  0  0  0
   37.2400   24.1450   31.8760 C   0  0  0  0  0  0  0  0  0  0  0  0
   36.0230   24.4250   31.3190 N   0  0  0  0  0  0  0  0  0  0  0  0
   34.6530   25.9220   30.7880 H   0  0  0  0  0  0  0  0  0  0  0  0
   38.2940   27.2360   32.6230 H   0  0  0  0  0  0  0  0  0  0  0  0
   35.9510   28.0920   31.5780 N   0  0  0  0  0  0  0  0  0  0  0  0
   35.1600   28.6480   32.5010 C   0  0  0  0  0  0  0  0  0  0  0  0
   34.7150   29.9520   32.3280 C   0  0  0  0  0  0  0  0  0  0  0  0
   35.1410   30.5650   31.1920 C   0  0  0  0  0  0  0  0  0  0  0  0
   34.7610   31.7580   30.9900 O   0  0  0  0  0  0  0  0  0  0  0  0
   35.9280   30.0450   30.2530 N   0  0  0  0  0  0  0  0  0  0  0  0
   36.3490   28.7690   30.4460 C   0  0  0  0  0  0  0  0  0  0  0  0
   37.0940   28.2460   29.5770 O   0  0  0  0  0  0  0  0  0  0  0  0
   34.8970   28.0470   33.3560 H   0  0  0  0  0  0  0  0  0  0  0  0
   34.0740   30.3990   33.0780 H   0  0  0  0  0  0  0  0  0  0  0  0
   36.2260   30.5690   29.3940 H   0  0  0  0  0  0  0  0  0  0  0  0
   37.5970   22.7940   31.9360 O   0  0  0  0  0  0  0  0  0  0  0  0
   37.0110   22.0660   32.9730 C   0  0  0  0  0  0  0  0  0  0  0  0
   37.5610   22.3390   34.2120 C   0  0  0  0  0  0  0  0  0  0  0  0
   37.1000   21.7070   35.3480 C   0  0  0  0  0  0  0  0  0  0  0  0
   36.0600   20.7810   35.2070 C   0  0  0  0  0  0  0  0  0  0  0  0
   35.5190   20.5180   33.9550 C   0  0  0  0  0  0  0  0  0  0  0  0
   35.9880   21.1530   32.8460 C   0  0  0  0  0  0  0  0  0  0  0  0
   38.3690   23.0500   34.3710 H   0  0  0  0  0  0  0  0  0  0  0  0
   37.5230   21.9150   36.3220 H   0  0  0  0  0  0  0  0  0  0  0  0
   35.7200   20.3030   36.1150 H   0  0  0  0  0  0  0  0  0  0  0  0
   34.7240   19.8010   33.8980 H   0  0  0  0  0  0  0  0  0  0  0  0
   35.4690   20.9210   31.5340 C   0  0  0  0  0  0  0  0  0  0  0  0
   34.7690   21.5380   31.0360 H   0  0  0  0  0  0  0  0  0  0  0  0
   35.8670   19.8990   30.8990 O   0  0  0  0  0  0  0  0  0  0  0  0
  1  6  2  0  0  0  0
  1  2  1  0  0  0  0
  2  3  2  0  0  0  0
  3  4  1  0  0  0  0
  3  8  1  0  0  0  0
  5 20  1  0  0  0  0
  5  4  2  0  0  0  0
  6  5  1  0  0  0  0
  7  1  1  0  0  0  0
  9  2  1  0  0  0  0
  9 10  1  0  0  0  0
 10 17  1  0  0  0  0
 11 10  2  0  0  0  0
 11 18  1  0  0  0  0
 12 11  1  0  0  0  0
 13 12  2  0  0  0  0
 14 15  1  0  0  0  0
 14 12  1  0  0  0  0
 15  9  1  0  0  0  0
 16 15  2  0  0  0  0
 19 14  1  0  0  0  0
 20 21  1  0  0  0  0
 21 22  1  0  0  0  0
 22 27  1  0  0  0  0
 22 23  2  0  0  0  0
 23 28  1  0  0  0  0
 24 23  1  0  0  0  0
 24 29  1  0  0  0  0
 25 24  2  0  0  0  0
 26 21  2  0  0  0  0
 26 25  1  0  0  0  0
 30 25  1  0  0  0  0
 31 26  1  0  0  0  0
 32 31  1  0  0  0  0
 33 31  2  0  0  0  0
M  END
>  <minimizedAffinity>
-5.03713465

$$$$

 OpenBabel03272500093D

 33 35  0  0  0  0  0  0  0  0999 V2000
   35.7010   28.5290   31.7730 C   0  0  0  0  0  0  0  0  0  0  0  0
   36.3930   27.5660   32.5290 C   0  0  0  0  0  0  0  0  0  0  0  0
   36.5710   27.8160   33.8960 C   0  0  0  0  0  0  0  0  0  0  0  0
   36.0780   28.9580   34.4300 N   0  0  0  0  0  0  0  0  0  0  0  0
   35.4230   29.8560   33.6850 C   0  0  0  0  0  0  0  0  0  0  0  0
   35.2220   29.6580   32.3470 N   0  0  0  0  0  0  0  0  0  0  0  0
   35.5340   28.3850   30.7090 H   0  0  0  0  0  0  0  0  0  0  0  0
   37.1070   27.0680   34.4700 H   0  0  0  0  0  0  0  0  0  0  0  0
   36.8660   26.4050   31.8590 N   0  0  0  0  0  0  0  0  0  0  0  0
   36.1090   25.3140   31.7080 C   0  0  0  0  0  0  0  0  0  0  0  0
   36.6230   24.2070   31.0450 C   0  0  0  0  0  0  0  0  0  0  0  0
   37.8980   24.3410   30.5950 C   0  0  0  0  0  0  0  0  0  0  0  0
   38.4110   23.3570   29.9830 O   0  0  0  0  0  0  0  0  0  0  0  0
   38.6820   25.4090   30.7260 N   0  0  0  0  0  0  0  0  0  0  0  0
   38.1550   26.4780   31.3780 C   0  0  0  0  0  0  0  0  0  0  0  0
   38.8690   27.5040   31.5200 O   0  0  0  0  0  0  0  0  0  0  0  0
   35.1110   25.3420   32.1160 H   0  0  0  0  0  0  0  0  0  0  0  0
   36.0060   23.3250   30.9250 H   0  0  0  0  0  0  0  0  0  0  0  0
   39.6630   25.4550   30.3550 H   0  0  0  0  0  0  0  0  0  0  0  0
   34.9050   31.0400   34.2190 O   0  0  0  0  0  0  0  0  0  0  0  0
   33.9190   30.8780   35.1940 C   0  0  0  0  0  0  0  0  0  0  0  0
   32.8840   30.0530   34.7940 C   0  0  0  0  0  0  0  0  0  0  0  0
   31.8250   29.7830   35.6350 C   0  0  0  0  0  0  0  0  0  0  0  0
   31.8320   30.3700   36.9060 C   0  0  0  0  0  0  0  0  0  0  0  0
   32.8800   31.1970   37.2930 C   0  0  0  0  0  0  0  0  0  0  0  0
   33.9150   31.4490   36.4470 C   0  0  0  0  0  0  0  0  0  0  0  0
   32.8360   29.5740   33.8180 H   0  0  0  0  0  0  0  0  0  0  0  0
   31.0120   29.1380   35.3310 H   0  0  0  0  0  0  0  0  0  0  0  0
   30.9900   30.1400   37.5420 H   0  0  0  0  0  0  0  0  0  0  0  0
   32.8390   31.6230   38.2750 H   0  0  0  0  0  0  0  0  0  0  0  0
   35.0190   32.2910   36.7920 C   0  0  0  0  0  0  0  0  0  0  0  0
   36.0270   31.9790   36.8630 H   0  0  0  0  0  0  0  0  0  0  0  0
   34.7920   33.5150   37.0360 O   0  0  0  0  0  0  0  0  0  0  0  0
  1  6  2  0  0  0  0
  1  2  1  0  0  0  0
  2  3  2  0  0  0  0
  3  4  1  0  0  0  0
  3  8  1  0  0  0  0
  5 20  1  0  0  0  0
  5  4  2  0  0  0  0
  6  5  1  0  0  0  0
  7  1  1  0  0  0  0
  9  2  1  0  0  0  0
 10  9  1  0  0  0  0
 10 17  1  0  0  0  0
 11 10  2  0  0  0  0
 12 14  1  0  0  0  0
 12 11  1  0  0  0  0
 13 12  2  0  0  0  0
 14 15  1  0  0  0  0
 15 16  2  0  0  0  0
 15  9  1  0  0  0  0
 18 11  1  0  0  0  0
 19 14  1  0  0  0  0
 20 21  1  0  0  0  0
 21 26  1  0  0  0  0
 22 21  2  0  0  0  0
 22 23  1  0  0  0  0
 23 24  2  0  0  0  0
 24 25  1  0  0  0  0
 24 29  1  0  0  0  0
 25 30  1  0  0  0  0
 26 31  1  0  0  0  0
 26 25  2  0  0  0  0
 27 22  1  0  0  0  0
 28 23  1  0  0  0  0
 31 32  1  0  0  0  0
 31 33  2  0  0  0  0
M  END
>  <minimizedAffinity>
-5.01376104

$$$$

 OpenBabel03272500093D

 33 35  0  0  0  0  0  0  0  0999 V2000
   37.3510   26.7800   32.3920 C   0  0  0  0  0  0  0  0  0  0  0  0
   36.2050   27.0570   31.6250 C   0  0  0  0  0  0  0  0  0  0  0  0
   35.6010   25.9900   30.9470 C   0  0  0  0  0  0  0  0  0  0  0  0
   36.1370   24.7510   31.0530 N   0  0  0  0  0  0  0  0  0  0  0  0
   37.2280   24.5180   31.7900 C   0  0  0  0  0  0  0  0  0  0  0  0
   37.8530   25.5260   32.4710 N   0  0  0  0  0  0  0  0  0  0  0  0
   37.8570   27.5710   32.9380 H   0  0  0  0  0  0  0  0  0  0  0  0
   34.7180   26.2130   30.3580 H   0  0  0  0  0  0  0  0  0  0  0  0
   35.7330   28.3970   31.5880 N   0  0  0  0  0  0  0  0  0  0  0  0
   34.8890   28.8790   32.5060 C   0  0  0  0  0  0  0  0  0  0  0  0
   34.4600   30.1980   32.4200 C   0  0  0  0  0  0  0  0  0  0  0  0
   34.9590   30.9020   31.3710 C   0  0  0  0  0  0  0  0  0  0  0  0
   34.5970   32.1110   31.2510 O   0  0  0  0  0  0  0  0  0  0  0  0
   35.7990   30.4580   30.4390 N   0  0  0  0  0  0  0  0  0  0  0  0
   36.2030   29.1660   30.5460 C   0  0  0  0  0  0  0  0  0  0  0  0
   36.9970   28.7140   29.6820 O   0  0  0  0  0  0  0  0  0  0  0  0
   34.5710   28.2080   33.2880 H   0  0  0  0  0  0  0  0  0  0  0  0
   33.7760   30.5840   33.1660 H   0  0  0  0  0  0  0  0  0  0  0  0
   36.1520   31.0530   29.6490 H   0  0  0  0  0  0  0  0  0  0  0  0
   37.7950   23.2450   31.9120 O   0  0  0  0  0  0  0  0  0  0  0  0
   37.0920   22.3510   32.7220 C   0  0  0  0  0  0  0  0  0  0  0  0
   36.0160   21.7640   32.0820 C   0  0  0  0  0  0  0  0  0  0  0  0
   35.2110   20.8540   32.7360 C   0  0  0  0  0  0  0  0  0  0  0  0
   35.5190   20.5460   34.0670 C   0  0  0  0  0  0  0  0  0  0  0  0
   36.6030   21.1450   34.6950 C   0  0  0  0  0  0  0  0  0  0  0  0
   37.3840   22.0400   34.0310 C   0  0  0  0  0  0  0  0  0  0  0  0
   35.7390   21.9720   31.0510 H   0  0  0  0  0  0  0  0  0  0  0  0
   34.3680   20.3890   32.2440 H   0  0  0  0  0  0  0  0  0  0  0  0
   34.8710   19.8290   34.5520 H   0  0  0  0  0  0  0  0  0  0  0  0
   36.7980   20.8760   35.7140 H   0  0  0  0  0  0  0  0  0  0  0  0
   38.5120   22.6870   34.6270 C   0  0  0  0  0  0  0  0  0  0  0  0
   39.5160   22.3670   34.5410 H   0  0  0  0  0  0  0  0  0  0  0  0
   38.3130   23.7300   35.3200 O   0  0  0  0  0  0  0  0  0  0  0  0
  1  6  1  0  0  0  0
  1  7  1  0  0  0  0
  2  1  2  0  0  0  0
  3  4  2  0  0  0  0
  3  2  1  0  0  0  0
  4  5  1  0  0  0  0
  5 20  1  0  0  0  0
  5  6  2  0  0  0  0
  8  3  1  0  0  0  0
  9  2  1  0  0  0  0
  9 10  1  0  0  0  0
 10 17  1  0  0  0  0
 11 10  2  0  0  0  0
 11 18  1  0  0  0  0
 12 11  1  0  0  0  0
 13 12  2  0  0  0  0
 14 15  1  0  0  0  0
 14 12  1  0  0  0  0
 15  9  1  0  0  0  0
 16 15  2  0  0  0  0
 19 14  1  0  0  0  0
 20 21  1  0  0  0  0
 21 26  1  0  0  0  0
 22 21  2  0  0  0  0
 22 23  1  0  0  0  0
 23 24  2  0  0  0  0
 24 29  1  0  0  0  0
 24 25  1  0  0  0  0
 25 30  1  0  0  0  0
 26 31  1  0  0  0  0
 26 25  2  0  0  0  0
 27 22  1  0  0  0  0
 28 23  1  0  0  0  0
 31 33  2  0  0  0  0
 32 31  1  0  0  0  0
M  END
>  <minimizedAffinity>
-5.00069189

$$$$
