
 OpenBabel03272510223D

 25 27  0  0  0  0  0  0  0  0999 V2000
   36.0080   30.1950   46.8200 C   0  0  0  0  0  0  0  0  0  0  0  0
   37.0550   30.5250   47.6550 C   0  0  0  0  0  0  0  0  0  0  0  0
   38.1870   31.1130   47.1450 C   0  0  0  0  0  0  0  0  0  0  0  0
   38.2340   31.3580   45.7790 C   0  0  0  0  0  0  0  0  0  0  0  0
   39.2450   31.9250   45.0590 N   0  0  0  0  0  0  0  0  0  0  0  0
   38.8310   31.9510   43.7800 C   0  0  0  0  0  0  0  0  0  0  0  0
   37.6070   31.4230   43.6670 N   0  0  0  0  0  0  0  0  0  0  0  0
   37.2030   31.0430   44.8950 C   0  0  0  0  0  0  0  0  0  0  0  0
   36.0710   30.4490   45.4450 C   0  0  0  0  0  0  0  0  0  0  0  0
   35.0800   29.7310   47.1310 H   0  0  0  0  0  0  0  0  0  0  0  0
   39.0100   31.3740   47.7870 H   0  0  0  0  0  0  0  0  0  0  0  0
   40.1570   32.2700   45.4340 H   0  0  0  0  0  0  0  0  0  0  0  0
   35.2630   30.1970   44.7820 H   0  0  0  0  0  0  0  0  0  0  0  0
   37.5780   30.1940   51.3670 C   0  0  0  0  0  0  0  0  0  0  0  0
   37.8280   30.5290   50.0370 C   0  0  0  0  0  0  0  0  0  0  0  0
   36.8950   30.2220   49.0690 C   0  0  0  0  0  0  0  0  0  0  0  0
   35.7500   29.5970   49.4560 N   0  0  0  0  0  0  0  0  0  0  0  0
   35.5130   29.2740   50.7580 C   0  0  0  0  0  0  0  0  0  0  0  0
   36.4210   29.5710   51.7020 N   0  0  0  0  0  0  0  0  0  0  0  0
   38.3090   30.4360   52.1130 H   0  0  0  0  0  0  0  0  0  0  0  0
   38.7290   31.0170   49.7520 H   0  0  0  0  0  0  0  0  0  0  0  0
   34.5990   28.7770   51.0490 H   0  0  0  0  0  0  0  0  0  0  0  0
   39.5590   32.4630   42.6260 C   0  0  0  0  0  0  0  0  0  0  0  0
   39.7830   33.4980   42.4420 H   0  0  0  0  0  0  0  0  0  0  0  0
   40.0180   31.7360   41.6930 O   0  0  0  0  0  0  0  0  0  0  0  0
  1 10  1  0  0  0  0
  1  2  1  0  0  0  0
  2 16  1  0  0  0  0
  3  2  2  0  0  0  0
  3 11  1  0  0  0  0
  4  3  1  0  0  0  0
  5 12  1  0  0  0  0
  5  4  1  0  0  0  0
  6  5  1  0  0  0  0
  7  6  2  0  0  0  0
  7  8  1  0  0  0  0
  8  9  1  0  0  0  0
  8  4  2  0  0  0  0
  9  1  2  0  0  0  0
 13  9  1  0  0  0  0
 14 19  1  0  0  0  0
 14 20  1  0  0  0  0
 15 14  2  0  0  0  0
 16 17  2  0  0  0  0
 16 15  1  0  0  0  0
 17 18  1  0  0  0  0
 18 22  1  0  0  0  0
 18 19  2  0  0  0  0
 21 15  1  0  0  0  0
 23  6  1  0  0  0  0
 24 23  1  0  0  0  0
 25 23  2  0  0  0  0
M  END
>  <minimizedAffinity>
-4.88522053

>  <minimizedRMSD>
1.70839274

$$$$
