REMARK  Name = 
REMARK  2 active torsions:
REMARK  status: ('A' for Active; 'I' for Inactive)
REMARK    1  A    between atoms: CA_3  and  C_13
REMARK    2  A    between atoms: C_5  and  C_7
REMARK                            x       y       z     vdW  Elec       q    Type
REMARK                         _______ _______ _______ _____ _____    ______ ____
ROOT
ATOM      1  C   UNL     1      38.304  31.245  50.111  0.00  0.00    +0.000 A 
ATOM      2  C   UNL     1      38.293  31.617  48.764  0.00  0.00    +0.000 A 
ATOM      3  CA  UNL     1      37.203  31.221  48.002  0.00  0.00    +0.000 A 
ATOM      4  N   UNL     1      36.219  30.500  48.606  0.00  0.00    +0.000 NA
ATOM      5  C   UNL     1      36.271  30.166  49.903  0.00  0.00    +0.000 A 
ATOM      6  N   UNL     1      37.306  30.534  50.656  0.00  0.00    +0.000 NA
ATOM      7  H   UNL     1      39.141  31.537  50.742  0.00  0.00    +0.000 HD
ATOM      8  H   UNL     1      39.103  32.194  48.320  0.00  0.00    +0.000 HD
ENDROOT
BRANCH   5   9
ATOM      9  C   UNL     1      35.126  29.375  50.439  0.00  0.00    +0.000 C 
ATOM     10  F   UNL     1      35.261  29.124  51.798  0.00  0.00    +0.000 F 
ATOM     11  F   UNL     1      33.926  30.061  50.299  0.00  0.00    +0.000 F 
ATOM     12  F   UNL     1      34.940  28.171  49.826  0.00  0.00    +0.000 F 
ENDBRANCH   5   9
BRANCH   3  13
ATOM     13  C   UNL     1      37.119  31.567  46.595  0.00  0.00    +0.000 C 
ATOM     14  H   UNL     1      37.307  30.799  45.857  0.00  0.00    +0.000 HD
ATOM     15  O   UNL     1      36.832  32.736  46.247  0.00  0.00    +0.000 OA
ENDBRANCH   3  13
TORSDOF 2
