
 OpenBabel03272510223D

 25 27  0  0  0  0  0  0  0  0999 V2000
   36.2640   30.2120   46.8610 C   0  0  0  0  0  0  0  0  0  0  0  0
   37.0900   30.7590   47.8210 C   0  0  0  0  0  0  0  0  0  0  0  0
   38.0750   31.6450   47.4610 C   0  0  0  0  0  0  0  0  0  0  0  0
   38.2040   31.9640   46.1160 C   0  0  0  0  0  0  0  0  0  0  0  0
   39.1020   32.8110   45.5330 N   0  0  0  0  0  0  0  0  0  0  0  0
   38.8380   32.7940   44.2150 C   0  0  0  0  0  0  0  0  0  0  0  0
   37.8160   31.9740   43.9460 N   0  0  0  0  0  0  0  0  0  0  0  0
   37.3950   31.4390   45.1090 C   0  0  0  0  0  0  0  0  0  0  0  0
   36.4070   30.5440   45.5080 C   0  0  0  0  0  0  0  0  0  0  0  0
   35.4630   29.5070   47.0490 H   0  0  0  0  0  0  0  0  0  0  0  0
   38.7250   32.0770   48.2010 H   0  0  0  0  0  0  0  0  0  0  0  0
   39.8450   33.3610   46.0210 H   0  0  0  0  0  0  0  0  0  0  0  0
   35.7710   30.1260   44.7490 H   0  0  0  0  0  0  0  0  0  0  0  0
   37.4330   30.1540   51.5190 C   0  0  0  0  0  0  0  0  0  0  0  0
   37.7460   30.5850   50.2320 C   0  0  0  0  0  0  0  0  0  0  0  0
   36.8630   30.3520   49.1990 C   0  0  0  0  0  0  0  0  0  0  0  0
   35.7020   29.7000   49.4820 N   0  0  0  0  0  0  0  0  0  0  0  0
   35.4040   29.2810   50.7440 C   0  0  0  0  0  0  0  0  0  0  0  0
   36.2630   29.5080   51.7500 N   0  0  0  0  0  0  0  0  0  0  0  0
   38.1260   30.3400   52.3160 H   0  0  0  0  0  0  0  0  0  0  0  0
   38.6590   31.0940   50.0280 H   0  0  0  0  0  0  0  0  0  0  0  0
   34.4780   28.7640   50.9530 H   0  0  0  0  0  0  0  0  0  0  0  0
   39.5260   33.5370   43.1670 C   0  0  0  0  0  0  0  0  0  0  0  0
   40.4460   34.0800   43.2890 H   0  0  0  0  0  0  0  0  0  0  0  0
   39.1110   33.6300   41.9710 O   0  0  0  0  0  0  0  0  0  0  0  0
  1 10  1  0  0  0  0
  1  2  1  0  0  0  0
  2 16  1  0  0  0  0
  3  2  2  0  0  0  0
  3 11  1  0  0  0  0
  4  3  1  0  0  0  0
  5 12  1  0  0  0  0
  5  4  1  0  0  0  0
  6  5  1  0  0  0  0
  7  6  2  0  0  0  0
  7  8  1  0  0  0  0
  8  9  1  0  0  0  0
  8  4  2  0  0  0  0
  9  1  2  0  0  0  0
 13  9  1  0  0  0  0
 14 19  1  0  0  0  0
 14 20  1  0  0  0  0
 15 14  2  0  0  0  0
 16 17  2  0  0  0  0
 16 15  1  0  0  0  0
 17 18  1  0  0  0  0
 18 22  1  0  0  0  0
 18 19  2  0  0  0  0
 21 15  1  0  0  0  0
 23 24  1  0  0  0  0
 23  6  1  0  0  0  0
 25 23  2  0  0  0  0
M  END
>  <minimizedAffinity>
-5.1728816

>  <minimizedRMSD>
1.12928045

$$$$
