
 OpenBabel03272509173D

 24 25  0  0  0  0  0  0  0  0999 V2000
   38.7040   23.6260   36.7530 C   0  0  0  0  0  0  0  0  0  0  0  0
   39.2050   23.9250   35.5110 C   0  0  0  0  0  0  0  0  0  0  0  0
   40.5280   23.4990   35.3110 C   0  0  0  0  0  0  0  0  0  0  0  0
   41.2420   22.8340   36.3100 C   0  0  0  0  0  0  0  0  0  0  0  0
   40.6420   22.5830   37.5300 C   0  0  0  0  0  0  0  0  0  0  0  0
   39.3370   22.9880   37.7650 C   0  0  0  0  0  0  0  0  0  0  0  0
   40.9630   23.7170   34.3360 H   0  0  0  0  0  0  0  0  0  0  0  0
   42.2560   22.5340   36.0900 H   0  0  0  0  0  0  0  0  0  0  0  0
   41.1900   22.0660   38.3130 H   0  0  0  0  0  0  0  0  0  0  0  0
   37.8730   23.8760   33.4580 C   0  0  0  0  0  0  0  0  0  0  0  0
   38.4830   24.6010   34.4880 C   0  0  0  0  0  0  0  0  0  0  0  0
   38.3420   25.9830   34.4470 C   0  0  0  0  0  0  0  0  0  0  0  0
   37.6360   26.5540   33.4330 N   0  0  0  0  0  0  0  0  0  0  0  0
   37.0630   25.7990   32.4570 C   0  0  0  0  0  0  0  0  0  0  0  0
   37.1830   24.4510   32.4710 N   0  0  0  0  0  0  0  0  0  0  0  0
   37.9800   22.7990   33.4860 H   0  0  0  0  0  0  0  0  0  0  0  0
   36.5260   26.3700   31.7020 H   0  0  0  0  0  0  0  0  0  0  0  0
   38.9490   26.8100   35.4840 C   0  0  0  0  0  0  0  0  0  0  0  0
   39.9260   27.2140   35.3360 H   0  0  0  0  0  0  0  0  0  0  0  0
   38.3680   27.0800   36.5730 O   0  0  0  0  0  0  0  0  0  0  0  0
   37.3830   24.0140   37.0460 O   0  0  0  0  0  0  0  0  0  0  0  0
   37.1400   24.8930   37.4520 H   0  0  0  0  0  0  0  0  0  0  0  0
   38.7760   22.7170   38.9950 O   0  0  0  0  0  0  0  0  0  0  0  0
   39.0430   23.3280   39.7650 H   0  0  0  0  0  0  0  0  0  0  0  0
  1 21  1  0  0  0  0
  1  6  1  0  0  0  0
  2  1  2  0  0  0  0
  3  2  1  0  0  0  0
  3  4  2  0  0  0  0
  4  5  1  0  0  0  0
  5  6  2  0  0  0  0
  5  9  1  0  0  0  0
  6 23  1  0  0  0  0
  7  3  1  0  0  0  0
  8  4  1  0  0  0  0
 10 16  1  0  0  0  0
 10 11  1  0  0  0  0
 11  2  1  0  0  0  0
 12 11  2  0  0  0  0
 12 18  1  0  0  0  0
 13 12  1  0  0  0  0
 14 15  1  0  0  0  0
 14 13  2  0  0  0  0
 15 10  2  0  0  0  0
 17 14  1  0  0  0  0
 18 20  2  0  0  0  0
 19 18  1  0  0  0  0
 21 22  1  0  0  0  0
 23 24  1  0  0  0  0
M  END
>  <minimizedAffinity>
-4.89149904

$$$$

 OpenBabel03272509173D

 24 25  0  0  0  0  0  0  0  0999 V2000
   39.5770   23.0670   36.3390 C   0  0  0  0  0  0  0  0  0  0  0  0
   38.6820   23.9830   35.8470 C   0  0  0  0  0  0  0  0  0  0  0  0
   37.8470   24.5480   36.8250 C   0  0  0  0  0  0  0  0  0  0  0  0
   37.9450   24.1850   38.1690 C   0  0  0  0  0  0  0  0  0  0  0  0
   38.8850   23.2480   38.5600 C   0  0  0  0  0  0  0  0  0  0  0  0
   39.7270   22.6690   37.6230 C   0  0  0  0  0  0  0  0  0  0  0  0
   37.1210   25.2810   36.4750 H   0  0  0  0  0  0  0  0  0  0  0  0
   37.2720   24.6570   38.8700 H   0  0  0  0  0  0  0  0  0  0  0  0
   38.9690   22.9600   39.6040 H   0  0  0  0  0  0  0  0  0  0  0  0
   37.8490   23.5650   33.5840 C   0  0  0  0  0  0  0  0  0  0  0  0
   38.5760   24.3580   34.4790 C   0  0  0  0  0  0  0  0  0  0  0  0
   39.1700   25.5020   33.9580 C   0  0  0  0  0  0  0  0  0  0  0  0
   39.0220   25.7910   32.6350 N   0  0  0  0  0  0  0  0  0  0  0  0
   38.3020   24.9820   31.8110 C   0  0  0  0  0  0  0  0  0  0  0  0
   37.7130   23.8620   32.2890 N   0  0  0  0  0  0  0  0  0  0  0  0
   37.3850   22.6730   33.9850 H   0  0  0  0  0  0  0  0  0  0  0  0
   38.2570   25.3190   30.7770 H   0  0  0  0  0  0  0  0  0  0  0  0
   39.9450   26.3820   34.8250 C   0  0  0  0  0  0  0  0  0  0  0  0
   40.9960   26.2250   34.9380 H   0  0  0  0  0  0  0  0  0  0  0  0
   39.4300   27.3410   35.4670 O   0  0  0  0  0  0  0  0  0  0  0  0
   40.4570   22.4480   35.4310 O   0  0  0  0  0  0  0  0  0  0  0  0
   40.2530   21.5960   34.9540 H   0  0  0  0  0  0  0  0  0  0  0  0
   40.6500   21.7400   38.0550 O   0  0  0  0  0  0  0  0  0  0  0  0
   40.3030   20.8000   38.2390 H   0  0  0  0  0  0  0  0  0  0  0  0
  1  6  1  0  0  0  0
  2  1  2  0  0  0  0
  2  3  1  0  0  0  0
  3  4  2  0  0  0  0
  4  5  1  0  0  0  0
  4  8  1  0  0  0  0
  5  9  1  0  0  0  0
  6 23  1  0  0  0  0
  6  5  2  0  0  0  0
  7  3  1  0  0  0  0
 10 16  1  0  0  0  0
 10 11  1  0  0  0  0
 11  2  1  0  0  0  0
 12 11  2  0  0  0  0
 12 18  1  0  0  0  0
 13 12  1  0  0  0  0
 14 15  1  0  0  0  0
 14 13  2  0  0  0  0
 15 10  2  0  0  0  0
 17 14  1  0  0  0  0
 18 19  1  0  0  0  0
 18 20  2  0  0  0  0
 21  1  1  0  0  0  0
 22 21  1  0  0  0  0
 23 24  1  0  0  0  0
M  END
>  <minimizedAffinity>
-4.83622313

$$$$

 OpenBabel03272509173D

 24 25  0  0  0  0  0  0  0  0999 V2000
   39.8360   23.4980   36.4110 C   0  0  0  0  0  0  0  0  0  0  0  0
   39.0850   24.5720   36.0060 C   0  0  0  0  0  0  0  0  0  0  0  0
   38.1000   24.9610   36.9290 C   0  0  0  0  0  0  0  0  0  0  0  0
   37.9280   24.2890   38.1410 C   0  0  0  0  0  0  0  0  0  0  0  0
   38.7410   23.2160   38.4520 C   0  0  0  0  0  0  0  0  0  0  0  0
   39.7240   22.8030   37.5660 C   0  0  0  0  0  0  0  0  0  0  0  0
   37.4810   25.8110   36.6450 H   0  0  0  0  0  0  0  0  0  0  0  0
   37.1510   24.6400   38.8060 H   0  0  0  0  0  0  0  0  0  0  0  0
   38.6140   22.6870   39.3930 H   0  0  0  0  0  0  0  0  0  0  0  0
   39.9660   26.4660   34.7300 C   0  0  0  0  0  0  0  0  0  0  0  0
   39.2550   25.2610   34.7730 C   0  0  0  0  0  0  0  0  0  0  0  0
   38.7410   24.7970   33.5670 C   0  0  0  0  0  0  0  0  0  0  0  0
   38.9470   25.5160   32.4300 N   0  0  0  0  0  0  0  0  0  0  0  0
   39.6470   26.6830   32.4480 C   0  0  0  0  0  0  0  0  0  0  0  0
   40.1590   27.1600   33.6060 N   0  0  0  0  0  0  0  0  0  0  0  0
   40.3670   26.8320   35.6660 H   0  0  0  0  0  0  0  0  0  0  0  0
   39.7440   27.1650   31.4770 H   0  0  0  0  0  0  0  0  0  0  0  0
   37.9880   23.5490   33.5280 C   0  0  0  0  0  0  0  0  0  0  0  0
   36.9250   23.5660   33.6400 H   0  0  0  0  0  0  0  0  0  0  0  0
   38.5350   22.4220   33.3650 O   0  0  0  0  0  0  0  0  0  0  0  0
   40.8490   23.0370   35.5500 O   0  0  0  0  0  0  0  0  0  0  0  0
   40.7090   22.3370   34.8520 H   0  0  0  0  0  0  0  0  0  0  0  0
   40.5140   21.7270   37.9150 O   0  0  0  0  0  0  0  0  0  0  0  0
   40.1040   20.8020   37.8010 H   0  0  0  0  0  0  0  0  0  0  0  0
  1  6  1  0  0  0  0
  2  1  2  0  0  0  0
  2  3  1  0  0  0  0
  3  4  2  0  0  0  0
  4  5  1  0  0  0  0
  4  8  1  0  0  0  0
  5  9  1  0  0  0  0
  6 23  1  0  0  0  0
  6  5  2  0  0  0  0
  7  3  1  0  0  0  0
 10 11  1  0  0  0  0
 10 16  1  0  0  0  0
 11  2  1  0  0  0  0
 12 11  2  0  0  0  0
 13 14  2  0  0  0  0
 13 12  1  0  0  0  0
 14 15  1  0  0  0  0
 15 10  2  0  0  0  0
 17 14  1  0  0  0  0
 18 12  1  0  0  0  0
 18 19  1  0  0  0  0
 20 18  2  0  0  0  0
 21  1  1  0  0  0  0
 22 21  1  0  0  0  0
 24 23  1  0  0  0  0
M  END
>  <minimizedAffinity>
-4.70682001

$$$$

 OpenBabel03272509173D

 24 25  0  0  0  0  0  0  0  0999 V2000
   38.7440   23.7580   36.8590 C   0  0  0  0  0  0  0  0  0  0  0  0
   39.3130   24.1870   35.6870 C   0  0  0  0  0  0  0  0  0  0  0  0
   40.6350   23.7510   35.5010 C   0  0  0  0  0  0  0  0  0  0  0  0
   41.2820   22.9530   36.4460 C   0  0  0  0  0  0  0  0  0  0  0  0
   40.6150   22.5760   37.5970 C   0  0  0  0  0  0  0  0  0  0  0  0
   39.3090   22.9870   37.8160 C   0  0  0  0  0  0  0  0  0  0  0  0
   41.1240   24.0700   34.5810 H   0  0  0  0  0  0  0  0  0  0  0  0
   42.2990   22.6520   36.2410 H   0  0  0  0  0  0  0  0  0  0  0  0
   41.1110   21.9540   38.3390 H   0  0  0  0  0  0  0  0  0  0  0  0
   38.7370   26.3960   34.8030 C   0  0  0  0  0  0  0  0  0  0  0  0
   38.6600   25.0000   34.7190 C   0  0  0  0  0  0  0  0  0  0  0  0
   37.9260   24.4780   33.6610 C   0  0  0  0  0  0  0  0  0  0  0  0
   37.3300   25.3240   32.7760 N   0  0  0  0  0  0  0  0  0  0  0  0
   37.4390   26.6740   32.9070 C   0  0  0  0  0  0  0  0  0  0  0  0
   38.1460   27.2120   33.9270 N   0  0  0  0  0  0  0  0  0  0  0  0
   39.3070   26.8070   35.6250 H   0  0  0  0  0  0  0  0  0  0  0  0
   36.9180   27.2440   32.1390 H   0  0  0  0  0  0  0  0  0  0  0  0
   37.7980   23.0330   33.5040 C   0  0  0  0  0  0  0  0  0  0  0  0
   38.4450   22.3810   34.0490 H   0  0  0  0  0  0  0  0  0  0  0  0
   36.9440   22.4990   32.7420 O   0  0  0  0  0  0  0  0  0  0  0  0
   37.4180   24.1460   37.1330 O   0  0  0  0  0  0  0  0  0  0  0  0
   37.1750   24.9770   37.6280 H   0  0  0  0  0  0  0  0  0  0  0  0
   38.6810   22.5890   38.9770 O   0  0  0  0  0  0  0  0  0  0  0  0
   38.9220   23.0960   39.8270 H   0  0  0  0  0  0  0  0  0  0  0  0
  1 21  1  0  0  0  0
  1  6  1  0  0  0  0
  2  1  2  0  0  0  0
  3  2  1  0  0  0  0
  3  4  2  0  0  0  0
  4  5  1  0  0  0  0
  5  6  2  0  0  0  0
  5  9  1  0  0  0  0
  6 23  1  0  0  0  0
  7  3  1  0  0  0  0
  8  4  1  0  0  0  0
 10 16  1  0  0  0  0
 11 10  1  0  0  0  0
 11  2  1  0  0  0  0
 12 11  2  0  0  0  0
 13 14  2  0  0  0  0
 13 12  1  0  0  0  0
 14 15  1  0  0  0  0
 15 10  2  0  0  0  0
 17 14  1  0  0  0  0
 18 12  1  0  0  0  0
 18 19  1  0  0  0  0
 20 18  2  0  0  0  0
 21 22  1  0  0  0  0
 23 24  1  0  0  0  0
M  END
>  <minimizedAffinity>
-4.68433046

$$$$

 OpenBabel03272509173D

 24 25  0  0  0  0  0  0  0  0999 V2000
   38.0140   25.1550   34.1920 C   0  0  0  0  0  0  0  0  0  0  0  0
   38.7840   25.2850   35.3200 C   0  0  0  0  0  0  0  0  0  0  0  0
   38.7100   26.5530   35.9190 C   0  0  0  0  0  0  0  0  0  0  0  0
   37.9150   27.5690   35.3860 C   0  0  0  0  0  0  0  0  0  0  0  0
   37.1780   27.3330   34.2410 C   0  0  0  0  0  0  0  0  0  0  0  0
   37.2250   26.0930   33.6210 C   0  0  0  0  0  0  0  0  0  0  0  0
   39.3070   26.6970   36.8200 H   0  0  0  0  0  0  0  0  0  0  0  0
   37.9040   28.5210   35.8960 H   0  0  0  0  0  0  0  0  0  0  0  0
   36.5560   28.1180   33.8180 H   0  0  0  0  0  0  0  0  0  0  0  0
   40.8810   24.0230   35.3660 C   0  0  0  0  0  0  0  0  0  0  0  0
   39.5960   24.2540   35.8700 C   0  0  0  0  0  0  0  0  0  0  0  0
   39.1780   23.4340   36.9120 C   0  0  0  0  0  0  0  0  0  0  0  0
   40.0160   22.4680   37.3820 N   0  0  0  0  0  0  0  0  0  0  0  0
   41.2560   22.2900   36.8530 C   0  0  0  0  0  0  0  0  0  0  0  0
   41.6900   23.0720   35.8380 N   0  0  0  0  0  0  0  0  0  0  0  0
   41.2100   24.6590   34.5540 H   0  0  0  0  0  0  0  0  0  0  0  0
   41.8300   21.4880   37.3120 H   0  0  0  0  0  0  0  0  0  0  0  0
   37.8520   23.6100   37.4930 C   0  0  0  0  0  0  0  0  0  0  0  0
   36.9990   23.1920   37.0050 H   0  0  0  0  0  0  0  0  0  0  0  0
   37.6520   24.2450   38.5670 O   0  0  0  0  0  0  0  0  0  0  0  0
   38.0240   23.9170   33.5220 O   0  0  0  0  0  0  0  0  0  0  0  0
   38.6640   23.6860   32.7920 H   0  0  0  0  0  0  0  0  0  0  0  0
   36.4730   25.8990   32.4810 O   0  0  0  0  0  0  0  0  0  0  0  0
   36.8470   26.2820   31.6140 H   0  0  0  0  0  0  0  0  0  0  0  0
  1  2  1  0  0  0  0
  2 11  1  0  0  0  0
  2  3  2  0  0  0  0
  3  7  1  0  0  0  0
  4  8  1  0  0  0  0
  4  3  1  0  0  0  0
  5  4  2  0  0  0  0
  6  1  2  0  0  0  0
  6  5  1  0  0  0  0
  9  5  1  0  0  0  0
 10 15  2  0  0  0  0
 10 11  1  0  0  0  0
 11 12  2  0  0  0  0
 12 13  1  0  0  0  0
 12 18  1  0  0  0  0
 14 17  1  0  0  0  0
 14 13  2  0  0  0  0
 15 14  1  0  0  0  0
 16 10  1  0  0  0  0
 18 20  2  0  0  0  0
 19 18  1  0  0  0  0
 21  1  1  0  0  0  0
 22 21  1  0  0  0  0
 23  6  1  0  0  0  0
 24 23  1  0  0  0  0
M  END
>  <minimizedAffinity>
-4.64690733

$$$$

 OpenBabel03272509173D

 24 25  0  0  0  0  0  0  0  0999 V2000
   37.8870   25.3140   34.2000 C   0  0  0  0  0  0  0  0  0  0  0  0
   38.5960   25.4400   35.3680 C   0  0  0  0  0  0  0  0  0  0  0  0
   38.5230   26.7180   35.9450 C   0  0  0  0  0  0  0  0  0  0  0  0
   37.7860   27.7460   35.3550 C   0  0  0  0  0  0  0  0  0  0  0  0
   37.1060   27.5130   34.1750 C   0  0  0  0  0  0  0  0  0  0  0  0
   37.1540   26.2630   33.5750 C   0  0  0  0  0  0  0  0  0  0  0  0
   39.0730   26.8600   36.8750 H   0  0  0  0  0  0  0  0  0  0  0  0
   37.7720   28.7060   35.8520 H   0  0  0  0  0  0  0  0  0  0  0  0
   36.5290   28.3070   33.7080 H   0  0  0  0  0  0  0  0  0  0  0  0
   38.7890   23.6280   37.0020 C   0  0  0  0  0  0  0  0  0  0  0  0
   39.3490   24.3960   35.9750 C   0  0  0  0  0  0  0  0  0  0  0  0
   40.6500   24.0820   35.5990 C   0  0  0  0  0  0  0  0  0  0  0  0
   41.3040   23.0680   36.2300 N   0  0  0  0  0  0  0  0  0  0  0  0
   40.7080   22.3540   37.2240 C   0  0  0  0  0  0  0  0  0  0  0  0
   39.4430   22.6370   37.6110 N   0  0  0  0  0  0  0  0  0  0  0  0
   37.7770   23.8690   37.2990 H   0  0  0  0  0  0  0  0  0  0  0  0
   41.3320   21.5710   37.6500 H   0  0  0  0  0  0  0  0  0  0  0  0
   41.3050   24.8360   34.5360 C   0  0  0  0  0  0  0  0  0  0  0  0
   41.1490   24.5610   33.5160 H   0  0  0  0  0  0  0  0  0  0  0  0
   42.0640   25.8210   34.7620 O   0  0  0  0  0  0  0  0  0  0  0  0
   37.9010   24.0660   33.5480 O   0  0  0  0  0  0  0  0  0  0  0  0
   38.5730   23.8090   32.8570 H   0  0  0  0  0  0  0  0  0  0  0  0
   36.4620   26.0730   32.3970 O   0  0  0  0  0  0  0  0  0  0  0  0
   36.8930   26.4340   31.5480 H   0  0  0  0  0  0  0  0  0  0  0  0
  1  2  1  0  0  0  0
  2  3  2  0  0  0  0
  2 11  1  0  0  0  0
  3  7  1  0  0  0  0
  4  8  1  0  0  0  0
  4  3  1  0  0  0  0
  5  4  2  0  0  0  0
  6  5  1  0  0  0  0
  6  1  2  0  0  0  0
  9  5  1  0  0  0  0
 10 16  1  0  0  0  0
 10 15  1  0  0  0  0
 11 10  2  0  0  0  0
 12 11  1  0  0  0  0
 12 13  2  0  0  0  0
 13 14  1  0  0  0  0
 14 15  2  0  0  0  0
 14 17  1  0  0  0  0
 18 20  2  0  0  0  0
 18 12  1  0  0  0  0
 19 18  1  0  0  0  0
 21  1  1  0  0  0  0
 22 21  1  0  0  0  0
 23  6  1  0  0  0  0
 24 23  1  0  0  0  0
M  END
>  <minimizedAffinity>
-4.35299301

$$$$

 OpenBabel03272509173D

 24 25  0  0  0  0  0  0  0  0999 V2000
   39.6180   22.7790   36.9460 C   0  0  0  0  0  0  0  0  0  0  0  0
   39.8630   23.3300   35.7140 C   0  0  0  0  0  0  0  0  0  0  0  0
   39.1290   24.4980   35.4540 C   0  0  0  0  0  0  0  0  0  0  0  0
   38.2360   25.0250   36.3890 C   0  0  0  0  0  0  0  0  0  0  0  0
   38.0630   24.3890   37.6050 C   0  0  0  0  0  0  0  0  0  0  0  0
   38.7700   23.2330   37.8970 C   0  0  0  0  0  0  0  0  0  0  0  0
   39.2960   24.9680   34.4850 H   0  0  0  0  0  0  0  0  0  0  0  0
   37.7040   25.9270   36.1260 H   0  0  0  0  0  0  0  0  0  0  0  0
   37.3700   24.7920   38.3390 H   0  0  0  0  0  0  0  0  0  0  0  0
   40.3300   21.8760   33.8000 C   0  0  0  0  0  0  0  0  0  0  0  0
   40.7720   22.7990   34.7560 C   0  0  0  0  0  0  0  0  0  0  0  0
   42.1150   23.1520   34.7080 C   0  0  0  0  0  0  0  0  0  0  0  0
   42.9200   22.5980   33.7600 N   0  0  0  0  0  0  0  0  0  0  0  0
   42.4360   21.7050   32.8550 C   0  0  0  0  0  0  0  0  0  0  0  0
   41.1330   21.3430   32.8760 N   0  0  0  0  0  0  0  0  0  0  0  0
   39.2850   21.5980   33.8340 H   0  0  0  0  0  0  0  0  0  0  0  0
   43.1750   21.3340   32.1490 H   0  0  0  0  0  0  0  0  0  0  0  0
   42.6530   24.1070   35.6700 C   0  0  0  0  0  0  0  0  0  0  0  0
   42.8970   23.7860   36.6590 H   0  0  0  0  0  0  0  0  0  0  0  0
   42.8520   25.3240   35.3910 O   0  0  0  0  0  0  0  0  0  0  0  0
   40.3090   21.6040   37.2960 O   0  0  0  0  0  0  0  0  0  0  0  0
   39.9680   20.6840   37.1120 H   0  0  0  0  0  0  0  0  0  0  0  0
   38.5670   22.6310   39.1210 O   0  0  0  0  0  0  0  0  0  0  0  0
   37.7220   22.0710   39.2220 H   0  0  0  0  0  0  0  0  0  0  0  0
  1 21  1  0  0  0  0
  1  6  1  0  0  0  0
  2  1  2  0  0  0  0
  3  2  1  0  0  0  0
  3  4  2  0  0  0  0
  4  5  1  0  0  0  0
  5  6  2  0  0  0  0
  5  9  1  0  0  0  0
  6 23  1  0  0  0  0
  7  3  1  0  0  0  0
  8  4  1  0  0  0  0
 10 16  1  0  0  0  0
 10 11  1  0  0  0  0
 11  2  1  0  0  0  0
 12 11  2  0  0  0  0
 12 18  1  0  0  0  0
 13 12  1  0  0  0  0
 14 15  1  0  0  0  0
 14 13  2  0  0  0  0
 15 10  2  0  0  0  0
 17 14  1  0  0  0  0
 18 19  1  0  0  0  0
 20 18  2  0  0  0  0
 22 21  1  0  0  0  0
 23 24  1  0  0  0  0
M  END
>  <minimizedAffinity>
-4.34967613

$$$$

 OpenBabel03272509173D

 24 25  0  0  0  0  0  0  0  0999 V2000
   38.1700   26.3350   34.4000 C   0  0  0  0  0  0  0  0  0  0  0  0
   38.3420   25.7260   33.1820 C   0  0  0  0  0  0  0  0  0  0  0  0
   39.6230   25.8980   32.6330 C   0  0  0  0  0  0  0  0  0  0  0  0
   40.6110   26.6300   33.2950 C   0  0  0  0  0  0  0  0  0  0  0  0
   40.3320   27.2050   34.5210 C   0  0  0  0  0  0  0  0  0  0  0  0
   39.0780   27.0580   35.0950 C   0  0  0  0  0  0  0  0  0  0  0  0
   39.8010   25.4290   31.6660 H   0  0  0  0  0  0  0  0  0  0  0  0
   41.5750   26.7230   32.8170 H   0  0  0  0  0  0  0  0  0  0  0  0
   41.0940   27.7770   35.0430 H   0  0  0  0  0  0  0  0  0  0  0  0
   37.3140   23.5810   32.6030 C   0  0  0  0  0  0  0  0  0  0  0  0
   37.3410   24.9780   32.5030 C   0  0  0  0  0  0  0  0  0  0  0  0
   36.3550   25.5660   31.7190 C   0  0  0  0  0  0  0  0  0  0  0  0
   35.4330   24.7790   31.1000 N   0  0  0  0  0  0  0  0  0  0  0  0
   35.4550   23.4250   31.2340 C   0  0  0  0  0  0  0  0  0  0  0  0
   36.4020   22.8240   31.9900 N   0  0  0  0  0  0  0  0  0  0  0  0
   38.0800   23.1190   33.2120 H   0  0  0  0  0  0  0  0  0  0  0  0
   34.6670   22.9060   30.6910 H   0  0  0  0  0  0  0  0  0  0  0  0
   36.3150   27.0150   31.5640 C   0  0  0  0  0  0  0  0  0  0  0  0
   36.1090   27.6350   32.4090 H   0  0  0  0  0  0  0  0  0  0  0  0
   36.5140   27.5920   30.4570 O   0  0  0  0  0  0  0  0  0  0  0  0
   36.9160   26.2180   35.0280 O   0  0  0  0  0  0  0  0  0  0  0  0
   36.1670   26.8640   34.8970 H   0  0  0  0  0  0  0  0  0  0  0  0
   38.8430   27.6470   36.3190 O   0  0  0  0  0  0  0  0  0  0  0  0
   38.6610   28.6500   36.3180 H   0  0  0  0  0  0  0  0  0  0  0  0
  1 21  1  0  0  0  0
  1  6  1  0  0  0  0
  2  1  2  0  0  0  0
  3  2  1  0  0  0  0
  3  4  2  0  0  0  0
  4  5  1  0  0  0  0
  5  9  1  0  0  0  0
  5  6  2  0  0  0  0
  6 23  1  0  0  0  0
  7  3  1  0  0  0  0
  8  4  1  0  0  0  0
 10 16  1  0  0  0  0
 11 10  1  0  0  0  0
 11  2  1  0  0  0  0
 12 11  2  0  0  0  0
 13 14  2  0  0  0  0
 13 12  1  0  0  0  0
 14 15  1  0  0  0  0
 15 10  2  0  0  0  0
 17 14  1  0  0  0  0
 18 12  1  0  0  0  0
 18 19  1  0  0  0  0
 20 18  2  0  0  0  0
 22 21  1  0  0  0  0
 24 23  1  0  0  0  0
M  END
>  <minimizedAffinity>
-4.33600855

$$$$

 OpenBabel03272509173D

 24 25  0  0  0  0  0  0  0  0999 V2000
   39.5840   22.8610   37.0300 C   0  0  0  0  0  0  0  0  0  0  0  0
   39.8860   23.5050   35.8560 C   0  0  0  0  0  0  0  0  0  0  0  0
   39.1470   24.6800   35.6430 C   0  0  0  0  0  0  0  0  0  0  0  0
   38.1960   25.1240   36.5640 C   0  0  0  0  0  0  0  0  0  0  0  0
   37.9690   24.3980   37.7180 C   0  0  0  0  0  0  0  0  0  0  0  0
   38.6790   23.2330   37.9640 C   0  0  0  0  0  0  0  0  0  0  0  0
   39.3570   25.2220   34.7220 H   0  0  0  0  0  0  0  0  0  0  0  0
   37.6630   26.0360   36.3390 H   0  0  0  0  0  0  0  0  0  0  0  0
   37.2310   24.7360   38.4420 H   0  0  0  0  0  0  0  0  0  0  0  0
   42.1870   23.4720   35.0220 C   0  0  0  0  0  0  0  0  0  0  0  0
   40.8530   23.0590   34.9130 C   0  0  0  0  0  0  0  0  0  0  0  0
   40.5470   22.2110   33.8560 C   0  0  0  0  0  0  0  0  0  0  0  0
   41.5310   21.8300   32.9950 N   0  0  0  0  0  0  0  0  0  0  0  0
   42.8110   22.2630   33.1500 C   0  0  0  0  0  0  0  0  0  0  0  0
   43.1400   23.0890   34.1690 N   0  0  0  0  0  0  0  0  0  0  0  0
   42.4300   24.1320   35.8430 H   0  0  0  0  0  0  0  0  0  0  0  0
   43.5060   21.8910   32.3990 H   0  0  0  0  0  0  0  0  0  0  0  0
   39.1790   21.7360   33.6730 C   0  0  0  0  0  0  0  0  0  0  0  0
   38.5450   21.6060   34.5220 H   0  0  0  0  0  0  0  0  0  0  0  0
   38.6930   21.4640   32.5390 O   0  0  0  0  0  0  0  0  0  0  0  0
   40.2750   21.6730   37.3300 O   0  0  0  0  0  0  0  0  0  0  0  0
   39.9610   20.7640   37.0600 H   0  0  0  0  0  0  0  0  0  0  0  0
   38.4210   22.5390   39.1270 O   0  0  0  0  0  0  0  0  0  0  0  0
   37.5820   21.9620   39.1410 H   0  0  0  0  0  0  0  0  0  0  0  0
  1 21  1  0  0  0  0
  1  6  1  0  0  0  0
  2  1  2  0  0  0  0
  3  2  1  0  0  0  0
  3  4  2  0  0  0  0
  4  5  1  0  0  0  0
  5  6  2  0  0  0  0
  5  9  1  0  0  0  0
  6 23  1  0  0  0  0
  7  3  1  0  0  0  0
  8  4  1  0  0  0  0
 10 16  1  0  0  0  0
 11 10  1  0  0  0  0
 11  2  1  0  0  0  0
 12 11  2  0  0  0  0
 13 14  2  0  0  0  0
 13 12  1  0  0  0  0
 14 15  1  0  0  0  0
 15 10  2  0  0  0  0
 17 14  1  0  0  0  0
 18 12  1  0  0  0  0
 18 19  1  0  0  0  0
 20 18  2  0  0  0  0
 22 21  1  0  0  0  0
 23 24  1  0  0  0  0
M  END
>  <minimizedAffinity>
-4.32317591

$$$$
