
 OpenBabel03272509273D

 35 36  0  0  1  0  0  0  0  0999 V2000
   39.5000   31.9900   46.9470 C   0  0  2  0  0  0  0  0  0  0  0  0
   40.1670   33.1220   46.2250 C   0  0  0  0  0  0  0  0  0  0  0  0
   40.7650   32.5800   45.0080 C   0  0  0  0  0  0  0  0  0  0  0  0
   40.3430   31.3550   44.4280 C   0  0  0  0  0  0  0  0  0  0  0  0
   39.4670   30.4040   45.1440 C   0  0  0  0  0  0  0  0  0  0  0  0
   38.5840   31.3390   45.9620 C   0  0  2  0  0  0  0  0  0  0  0  0
   40.2230   31.2270   47.3090 H   0  0  0  0  0  0  0  0  0  0  0  0
   40.8370   33.7200   46.8750 H   0  0  0  0  0  0  0  0  0  0  0  0
   39.3310   33.8340   45.9530 H   0  0  0  0  0  0  0  0  0  0  0  0
   40.7560   33.4220   44.2540 H   0  0  0  0  0  0  0  0  0  0  0  0
   41.8680   32.5430   45.2460 H   0  0  0  0  0  0  0  0  0  0  0  0
   39.8260   31.5380   43.4380 H   0  0  0  0  0  0  0  0  0  0  0  0
   41.2220   30.7260   44.0810 H   0  0  0  0  0  0  0  0  0  0  0  0
   38.7690   29.8320   44.5000 H   0  0  0  0  0  0  0  0  0  0  0  0
   39.9600   29.7110   45.8320 H   0  0  0  0  0  0  0  0  0  0  0  0
   37.9170   30.6520   46.5210 H   0  0  0  0  0  0  0  0  0  0  0  0
   37.8740   32.2850   45.0660 C   0  0  0  0  0  0  0  0  0  0  0  0
   37.9980   33.3480   45.1530 H   0  0  0  0  0  0  0  0  0  0  0  0
   37.0910   32.2720   44.1350 O   0  0  0  0  0  0  0  0  0  0  0  0
   38.5320   32.6610   48.3100 S   0  0  0  0  0  0  0  0  0  0  0  0
   38.2070   31.4930   49.6460 C   0  0  0  0  0  0  0  0  0  0  0  0
   38.9170   31.4930   50.4560 H   0  0  0  0  0  0  0  0  0  0  0  0
   38.3390   30.4710   49.1590 H   0  0  0  0  0  0  0  0  0  0  0  0
   36.7460   31.5470   49.9990 C   0  0  0  0  0  0  0  0  0  0  0  0
   36.2460   32.5050   49.7440 H   0  0  0  0  0  0  0  0  0  0  0  0
   36.6160   31.4390   51.1180 H   0  0  0  0  0  0  0  0  0  0  0  0
   34.8270   28.3770   49.4850 C   0  0  0  0  0  0  0  0  0  0  0  0
   35.5820   29.3830   50.0880 C   0  0  0  0  0  0  0  0  0  0  0  0
   35.9640   30.4900   49.3900 C   0  0  0  0  0  0  0  0  0  0  0  0
   35.5700   30.5640   48.0710 N   0  0  0  0  0  0  0  0  0  0  0  0
   34.8530   29.5980   47.5160 C   0  0  0  0  0  0  0  0  0  0  0  0
   34.4670   28.4980   48.1910 N   0  0  0  0  0  0  0  0  0  0  0  0
   34.4890   27.4790   49.9640 H   0  0  0  0  0  0  0  0  0  0  0  0
   35.7810   29.1470   51.1200 H   0  0  0  0  0  0  0  0  0  0  0  0
   34.5570   29.6830   46.4780 H   0  0  0  0  0  0  0  0  0  0  0  0
  1  7  1  1  0  0  0
  1 20  1  0  0  0  0
  2  8  1  0  0  0  0
  2  1  1  0  0  0  0
  3 11  1  0  0  0  0
  3  2  1  0  0  0  0
  4  3  1  0  0  0  0
  4  5  1  0  0  0  0
  5 15  1  0  0  0  0
  5  6  1  0  0  0  0
  6 16  1  1  0  0  0
  6  1  1  0  0  0  0
  9  2  1  0  0  0  0
 10  3  1  0  0  0  0
 12  4  1  0  0  0  0
 13  4  1  0  0  0  0
 14  5  1  0  0  0  0
 17 18  1  0  0  0  0
 17  6  1  0  0  0  0
 19 17  2  0  0  0  0
 20 21  1  0  0  0  0
 21 24  1  0  0  0  0
 21 22  1  0  0  0  0
 23 21  1  0  0  0  0
 24 26  1  0  0  0  0
 25 24  1  0  0  0  0
 27 33  1  0  0  0  0
 27 28  1  0  0  0  0
 28 34  1  0  0  0  0
 29 24  1  0  0  0  0
 29 28  2  0  0  0  0
 30 29  1  0  0  0  0
 31 30  2  0  0  0  0
 31 32  1  0  0  0  0
 32 27  2  0  0  0  0
 35 31  1  0  0  0  0
M  END
>  <minimizedAffinity>
-5.26886797

>  <minimizedRMSD>
2.86853242

$$$$
