
 OpenBabel03272509063D

 27 28  0  0  0  0  0  0  0  0999 V2000
   36.3410   28.0910   33.2940 C   0  0  0  0  0  0  0  0  0  0  0  0
   36.4790   28.6350   32.3380 H   0  0  0  0  0  0  0  0  0  0  0  0
   35.6770   27.2240   33.0750 H   0  0  0  0  0  0  0  0  0  0  0  0
   37.6610   27.5820   33.7760 C   0  0  0  0  0  0  0  0  0  0  0  0
   38.7180   27.1730   32.9920 C   0  0  0  0  0  0  0  0  0  0  0  0
   39.8860   26.7270   33.5750 C   0  0  0  0  0  0  0  0  0  0  0  0
   40.0490   26.6680   34.9510 C   0  0  0  0  0  0  0  0  0  0  0  0
   38.9930   27.0770   35.7490 C   0  0  0  0  0  0  0  0  0  0  0  0
   37.8310   27.5220   35.1660 C   0  0  0  0  0  0  0  0  0  0  0  0
   38.5450   27.2360   31.9270 H   0  0  0  0  0  0  0  0  0  0  0  0
   40.6760   26.4200   32.9300 H   0  0  0  0  0  0  0  0  0  0  0  0
   40.9590   26.3200   35.3930 H   0  0  0  0  0  0  0  0  0  0  0  0
   39.0710   27.0520   36.8250 H   0  0  0  0  0  0  0  0  0  0  0  0
   37.0220   27.8360   35.8190 H   0  0  0  0  0  0  0  0  0  0  0  0
   35.5290   30.2430   34.2450 C   0  0  0  0  0  3  0  0  0  0  0  0
   35.6730   28.9640   34.2720 C   0  0  0  0  0  3  0  0  0  0  0  0
   34.6820   32.3580   37.1070 C   0  0  0  0  0  0  0  0  0  0  0  0
   33.3130   32.0600   37.2770 C   0  0  0  0  0  0  0  0  0  0  0  0
   32.7180   31.1300   36.3990 C   0  0  0  0  0  0  0  0  0  0  0  0
   33.5060   30.5660   35.4250 N   0  0  0  0  0  0  0  0  0  0  0  0
   34.8100   30.8970   35.3200 C   0  0  0  0  0  0  0  0  0  0  0  0
   35.4050   31.7820   36.1470 N   0  0  0  0  0  0  0  0  0  0  0  0
   35.1350   33.0710   37.7830 H   0  0  0  0  0  0  0  0  0  0  0  0
   32.7370   32.5330   38.0600 H   0  0  0  0  0  0  0  0  0  0  0  0
   31.3070   30.7860   36.5300 C   0  0  0  0  0  0  0  0  0  0  0  0
   30.5880   31.5520   36.2830 H   0  0  0  0  0  0  0  0  0  0  0  0
   31.0110   29.6270   36.9180 O   0  0  0  0  0  0  0  0  0  0  0  0
  1  4  1  0  0  0  0
  1 16  1  0  0  0  0
  2  1  1  0  0  0  0
  3  1  1  0  0  0  0
  4  9  1  0  0  0  0
  5  6  1  0  0  0  0
  5  4  2  0  0  0  0
  6  7  2  0  0  0  0
  7 12  1  0  0  0  0
  7  8  1  0  0  0  0
  8 13  1  0  0  0  0
  9  8  2  0  0  0  0
  9 14  1  0  0  0  0
 10  5  1  0  0  0  0
 11  6  1  0  0  0  0
 15 16  2  0  0  0  0
 15 21  1  0  0  0  0
 17 18  1  0  0  0  0
 17 23  1  0  0  0  0
 18 24  1  0  0  0  0
 19 25  1  0  0  0  0
 19 18  2  0  0  0  0
 20 19  1  0  0  0  0
 21 20  2  0  0  0  0
 21 22  1  0  0  0  0
 22 17  2  0  0  0  0
 25 27  2  0  0  0  0
 26 25  1  0  0  0  0
M  END
>  <minimizedAffinity>
-4.79743528

$$$$

 OpenBabel03272509063D

 27 28  0  0  0  0  0  0  0  0999 V2000
   35.2070   29.8260   33.9540 C   0  0  0  0  0  0  0  0  0  0  0  0
   34.3390   29.3230   33.4820 H   0  0  0  0  0  0  0  0  0  0  0  0
   35.6400   30.5050   33.1840 H   0  0  0  0  0  0  0  0  0  0  0  0
   34.7430   30.6420   35.1160 C   0  0  0  0  0  0  0  0  0  0  0  0
   35.5110   31.4970   35.8770 C   0  0  0  0  0  0  0  0  0  0  0  0
   34.9460   32.1930   36.9250 C   0  0  0  0  0  0  0  0  0  0  0  0
   33.6050   32.0690   37.2570 C   0  0  0  0  0  0  0  0  0  0  0  0
   32.8240   31.2130   36.5000 C   0  0  0  0  0  0  0  0  0  0  0  0
   33.3890   30.5200   35.4560 C   0  0  0  0  0  0  0  0  0  0  0  0
   36.5480   31.5610   35.5810 H   0  0  0  0  0  0  0  0  0  0  0  0
   35.5780   32.8430   37.4860 H   0  0  0  0  0  0  0  0  0  0  0  0
   33.1780   32.6140   38.0730 H   0  0  0  0  0  0  0  0  0  0  0  0
   31.7750   31.0830   36.7180 H   0  0  0  0  0  0  0  0  0  0  0  0
   32.7490   29.8570   34.8810 H   0  0  0  0  0  0  0  0  0  0  0  0
   36.6960   27.8600   33.6170 C   0  0  0  0  0  3  0  0  0  0  0  0
   36.2200   28.8250   34.3240 C   0  0  0  0  0  3  0  0  0  0  0  0
   39.8880   26.2410   34.3710 C   0  0  0  0  0  0  0  0  0  0  0  0
   39.5070   25.3300   35.3790 C   0  0  0  0  0  0  0  0  0  0  0  0
   38.1530   25.2950   35.7700 C   0  0  0  0  0  0  0  0  0  0  0  0
   37.2790   26.1530   35.1460 N   0  0  0  0  0  0  0  0  0  0  0  0
   37.7120   26.9990   34.1890 C   0  0  0  0  0  0  0  0  0  0  0  0
   39.0020   27.0520   33.7950 N   0  0  0  0  0  0  0  0  0  0  0  0
   40.9290   26.2640   34.0740 H   0  0  0  0  0  0  0  0  0  0  0  0
   40.2350   24.6760   35.8380 H   0  0  0  0  0  0  0  0  0  0  0  0
   37.7030   24.3730   36.8060 C   0  0  0  0  0  0  0  0  0  0  0  0
   37.1100   23.5280   36.4900 H   0  0  0  0  0  0  0  0  0  0  0  0
   38.0290   24.6110   37.9970 O   0  0  0  0  0  0  0  0  0  0  0  0
  1 16  1  0  0  0  0
  1  4  1  0  0  0  0
  2  1  1  0  0  0  0
  3  1  1  0  0  0  0
  4  9  2  0  0  0  0
  4  5  1  0  0  0  0
  5  6  2  0  0  0  0
  6  7  1  0  0  0  0
  6 11  1  0  0  0  0
  7 12  1  0  0  0  0
  8 13  1  0  0  0  0
  8  7  2  0  0  0  0
  9  8  1  0  0  0  0
 10  5  1  0  0  0  0
 14  9  1  0  0  0  0
 15 21  1  0  0  0  0
 15 16  2  0  0  0  0
 17 18  1  0  0  0  0
 18 19  2  0  0  0  0
 18 24  1  0  0  0  0
 19 25  1  0  0  0  0
 20 19  1  0  0  0  0
 21 20  2  0  0  0  0
 22 21  1  0  0  0  0
 22 17  2  0  0  0  0
 23 17  1  0  0  0  0
 25 27  2  0  0  0  0
 26 25  1  0  0  0  0
M  END
>  <minimizedAffinity>
-4.75854969

$$$$

 OpenBabel03272509063D

 27 28  0  0  0  0  0  0  0  0999 V2000
   36.2570   28.1490   33.1870 C   0  0  0  0  0  0  0  0  0  0  0  0
   36.4580   28.7960   32.3090 H   0  0  0  0  0  0  0  0  0  0  0  0
   35.6610   27.2840   32.8160 H   0  0  0  0  0  0  0  0  0  0  0  0
   37.5490   27.6440   33.7440 C   0  0  0  0  0  0  0  0  0  0  0  0
   38.6380   27.2070   33.0220 C   0  0  0  0  0  0  0  0  0  0  0  0
   39.7730   26.7680   33.6710 C   0  0  0  0  0  0  0  0  0  0  0  0
   39.8710   26.7470   35.0550 C   0  0  0  0  0  0  0  0  0  0  0  0
   38.7820   27.1840   35.7900 C   0  0  0  0  0  0  0  0  0  0  0  0
   37.6520   27.6210   35.1410 C   0  0  0  0  0  0  0  0  0  0  0  0
   38.5150   27.2410   31.9490 H   0  0  0  0  0  0  0  0  0  0  0  0
   40.5910   26.4390   33.0730 H   0  0  0  0  0  0  0  0  0  0  0  0
   40.7560   26.4050   35.5480 H   0  0  0  0  0  0  0  0  0  0  0  0
   38.8100   27.1890   36.8700 H   0  0  0  0  0  0  0  0  0  0  0  0
   36.8160   27.9580   35.7470 H   0  0  0  0  0  0  0  0  0  0  0  0
   34.2880   29.4100   34.0380 C   0  0  0  0  0  3  0  0  0  0  0  0
   35.4560   28.8860   34.1760 C   0  0  0  0  0  3  0  0  0  0  0  0
   32.0100   30.3180   36.7520 C   0  0  0  0  0  0  0  0  0  0  0  0
   32.6680   31.4370   37.3040 C   0  0  0  0  0  0  0  0  0  0  0  0
   33.8820   31.8540   36.7210 C   0  0  0  0  0  0  0  0  0  0  0  0
   34.3570   31.1440   35.6440 N   0  0  0  0  0  0  0  0  0  0  0  0
   33.6760   30.0820   35.1670 C   0  0  0  0  0  0  0  0  0  0  0  0
   32.5110   29.6630   35.7060 N   0  0  0  0  0  0  0  0  0  0  0  0
   31.0780   30.0020   37.2030 H   0  0  0  0  0  0  0  0  0  0  0  0
   32.2500   31.9620   38.1530 H   0  0  0  0  0  0  0  0  0  0  0  0
   34.6040   33.0040   37.2510 C   0  0  0  0  0  0  0  0  0  0  0  0
   35.6830   32.9670   37.2190 H   0  0  0  0  0  0  0  0  0  0  0  0
   33.9370   33.9650   37.7110 O   0  0  0  0  0  0  0  0  0  0  0  0
  1  4  1  0  0  0  0
  1 16  1  0  0  0  0
  2  1  1  0  0  0  0
  3  1  1  0  0  0  0
  4  9  1  0  0  0  0
  5  6  1  0  0  0  0
  5  4  2  0  0  0  0
  6  7  2  0  0  0  0
  7 12  1  0  0  0  0
  7  8  1  0  0  0  0
  8 13  1  0  0  0  0
  9 14  1  0  0  0  0
  9  8  2  0  0  0  0
 10  5  1  0  0  0  0
 11  6  1  0  0  0  0
 15 16  2  0  0  0  0
 15 21  1  0  0  0  0
 17 23  1  0  0  0  0
 17 18  1  0  0  0  0
 18 24  1  0  0  0  0
 19 25  1  0  0  0  0
 19 18  2  0  0  0  0
 20 19  1  0  0  0  0
 21 20  2  0  0  0  0
 21 22  1  0  0  0  0
 22 17  2  0  0  0  0
 25 27  2  0  0  0  0
 26 25  1  0  0  0  0
M  END
>  <minimizedAffinity>
-4.69535112

$$$$

 OpenBabel03272509063D

 27 28  0  0  0  0  0  0  0  0999 V2000
   38.5870   26.8010   33.3440 C   0  0  0  0  0  0  0  0  0  0  0  0
   38.5470   26.1070   32.4800 H   0  0  0  0  0  0  0  0  0  0  0  0
   39.5080   27.4150   33.2180 H   0  0  0  0  0  0  0  0  0  0  0  0
   37.3950   27.7020   33.3180 C   0  0  0  0  0  0  0  0  0  0  0  0
   36.6810   28.1490   34.4080 C   0  0  0  0  0  0  0  0  0  0  0  0
   35.5970   28.9850   34.2350 C   0  0  0  0  0  0  0  0  0  0  0  0
   35.1810   29.4050   32.9800 C   0  0  0  0  0  0  0  0  0  0  0  0
   35.8900   28.9610   31.8780 C   0  0  0  0  0  0  0  0  0  0  0  0
   36.9700   28.1290   32.0520 C   0  0  0  0  0  0  0  0  0  0  0  0
   37.0420   27.7960   35.3630 H   0  0  0  0  0  0  0  0  0  0  0  0
   35.0750   29.3060   35.1070 H   0  0  0  0  0  0  0  0  0  0  0  0
   34.3380   30.0530   32.8580 H   0  0  0  0  0  0  0  0  0  0  0  0
   35.6070   29.2610   30.8800 H   0  0  0  0  0  0  0  0  0  0  0  0
   37.5060   27.7990   31.1670 H   0  0  0  0  0  0  0  0  0  0  0  0
   38.2740   24.8450   34.8510 C   0  0  0  0  0  3  0  0  0  0  0  0
   38.6980   26.0330   34.5940 C   0  0  0  0  0  3  0  0  0  0  0  0
   37.9960   23.9880   38.3960 C   0  0  0  0  0  0  0  0  0  0  0  0
   39.0850   23.1050   38.5550 C   0  0  0  0  0  0  0  0  0  0  0  0
   39.8930   22.8320   37.4320 C   0  0  0  0  0  0  0  0  0  0  0  0
   39.5720   23.4420   36.2430 N   0  0  0  0  0  0  0  0  0  0  0  0
   38.5150   24.2760   36.1620 C   0  0  0  0  0  0  0  0  0  0  0  0
   37.7260   24.5560   37.2210 N   0  0  0  0  0  0  0  0  0  0  0  0
   37.3780   24.1950   39.2600 H   0  0  0  0  0  0  0  0  0  0  0  0
   39.2940   22.6520   39.5140 H   0  0  0  0  0  0  0  0  0  0  0  0
   41.0320   21.9280   37.5400 C   0  0  0  0  0  0  0  0  0  0  0  0
   41.5040   21.8440   38.5070 H   0  0  0  0  0  0  0  0  0  0  0  0
   41.3960   21.3040   36.5120 O   0  0  0  0  0  0  0  0  0  0  0  0
  1 16  1  0  0  0  0
  2  1  1  0  0  0  0
  3  1  1  0  0  0  0
  4  1  1  0  0  0  0
  4  5  1  0  0  0  0
  5 10  1  0  0  0  0
  6  5  2  0  0  0  0
  6 11  1  0  0  0  0
  7  6  1  0  0  0  0
  8  9  1  0  0  0  0
  8  7  2  0  0  0  0
  9  4  2  0  0  0  0
 12  7  1  0  0  0  0
 13  8  1  0  0  0  0
 14  9  1  0  0  0  0
 15 21  1  0  0  0  0
 16 15  2  0  0  0  0
 17 18  1  0  0  0  0
 17 23  1  0  0  0  0
 18 24  1  0  0  0  0
 19 25  1  0  0  0  0
 19 18  2  0  0  0  0
 20 19  1  0  0  0  0
 21 20  2  0  0  0  0
 21 22  1  0  0  0  0
 22 17  2  0  0  0  0
 25 26  1  0  0  0  0
 27 25  2  0  0  0  0
M  END
>  <minimizedAffinity>
-4.64190674

$$$$

 OpenBabel03272509063D

 27 28  0  0  0  0  0  0  0  0999 V2000
   35.4910   30.1760   33.8210 C   0  0  0  0  0  0  0  0  0  0  0  0
   34.8580   30.1940   32.9120 H   0  0  0  0  0  0  0  0  0  0  0  0
   36.3280   30.8890   33.6420 H   0  0  0  0  0  0  0  0  0  0  0  0
   34.6950   30.6480   34.9950 C   0  0  0  0  0  0  0  0  0  0  0  0
   33.3980   30.2990   35.3000 C   0  0  0  0  0  0  0  0  0  0  0  0
   32.7850   30.8120   36.4240 C   0  0  0  0  0  0  0  0  0  0  0  0
   33.4310   31.6880   37.2830 C   0  0  0  0  0  0  0  0  0  0  0  0
   34.7350   32.0460   36.9860 C   0  0  0  0  0  0  0  0  0  0  0  0
   35.3440   31.5330   35.8660 C   0  0  0  0  0  0  0  0  0  0  0  0
   32.9350   29.6150   34.6030 H   0  0  0  0  0  0  0  0  0  0  0  0
   31.7810   30.5140   36.6210 H   0  0  0  0  0  0  0  0  0  0  0  0
   32.9460   32.0800   38.1530 H   0  0  0  0  0  0  0  0  0  0  0  0
   35.2820   32.7240   37.6250 H   0  0  0  0  0  0  0  0  0  0  0  0
   36.3680   31.8340   35.6610 H   0  0  0  0  0  0  0  0  0  0  0  0
   36.5190   28.0180   33.1290 C   0  0  0  0  0  3  0  0  0  0  0  0
   36.0490   28.8290   34.0120 C   0  0  0  0  0  3  0  0  0  0  0  0
   37.7220   24.5640   33.1430 C   0  0  0  0  0  0  0  0  0  0  0  0
   38.0490   24.3880   34.5040 C   0  0  0  0  0  0  0  0  0  0  0  0
   37.8400   25.4690   35.3850 C   0  0  0  0  0  0  0  0  0  0  0  0
   37.3290   26.6350   34.8670 N   0  0  0  0  0  0  0  0  0  0  0  0
   37.0390   26.7330   33.5540 C   0  0  0  0  0  0  0  0  0  0  0  0
   37.2280   25.7150   32.6880 N   0  0  0  0  0  0  0  0  0  0  0  0
   37.8840   23.7320   32.4690 H   0  0  0  0  0  0  0  0  0  0  0  0
   38.4490   23.4490   34.8600 H   0  0  0  0  0  0  0  0  0  0  0  0
   38.1600   25.3430   36.8030 C   0  0  0  0  0  0  0  0  0  0  0  0
   38.6740   26.1710   37.2670 H   0  0  0  0  0  0  0  0  0  0  0  0
   37.8240   24.2880   37.3970 O   0  0  0  0  0  0  0  0  0  0  0  0
  1 16  1  0  0  0  0
  1  4  1  0  0  0  0
  2  1  1  0  0  0  0
  3  1  1  0  0  0  0
  4  5  2  0  0  0  0
  4  9  1  0  0  0  0
  5  6  1  0  0  0  0
  6 11  1  0  0  0  0
  6  7  2  0  0  0  0
  7 12  1  0  0  0  0
  8  7  1  0  0  0  0
  8 13  1  0  0  0  0
  9  8  2  0  0  0  0
 10  5  1  0  0  0  0
 14  9  1  0  0  0  0
 15 21  1  0  0  0  0
 15 16  2  0  0  0  0
 17 18  1  0  0  0  0
 18 24  1  0  0  0  0
 18 19  2  0  0  0  0
 19 25  1  0  0  0  0
 20 19  1  0  0  0  0
 21 20  2  0  0  0  0
 22 17  2  0  0  0  0
 22 21  1  0  0  0  0
 23 17  1  0  0  0  0
 25 26  1  0  0  0  0
 25 27  2  0  0  0  0
M  END
>  <minimizedAffinity>
-4.59392023

$$$$

 OpenBabel03272509063D

 27 28  0  0  0  0  0  0  0  0999 V2000
   38.6990   24.3180   34.4580 C   0  0  0  0  0  0  0  0  0  0  0  0
   39.7070   24.4180   34.0090 H   0  0  0  0  0  0  0  0  0  0  0  0
   38.1880   23.4890   33.9160 H   0  0  0  0  0  0  0  0  0  0  0  0
   38.8270   23.9490   35.9000 C   0  0  0  0  0  0  0  0  0  0  0  0
   39.7570   23.0920   36.4480 C   0  0  0  0  0  0  0  0  0  0  0  0
   39.7600   22.8440   37.8050 C   0  0  0  0  0  0  0  0  0  0  0  0
   38.8460   23.4330   38.6660 C   0  0  0  0  0  0  0  0  0  0  0  0
   37.9070   24.2950   38.1260 C   0  0  0  0  0  0  0  0  0  0  0  0
   37.9050   24.5420   36.7740 C   0  0  0  0  0  0  0  0  0  0  0  0
   40.4470   22.6580   35.7390 H   0  0  0  0  0  0  0  0  0  0  0  0
   40.4970   22.1750   38.1840 H   0  0  0  0  0  0  0  0  0  0  0  0
   38.8580   23.2330   39.7170 H   0  0  0  0  0  0  0  0  0  0  0  0
   37.1750   24.7790   38.7550 H   0  0  0  0  0  0  0  0  0  0  0  0
   37.1560   25.2230   36.3820 H   0  0  0  0  0  0  0  0  0  0  0  0
   38.0820   26.4500   33.3320 C   0  0  0  0  0  3  0  0  0  0  0  0
   37.9360   25.5590   34.2490 C   0  0  0  0  0  3  0  0  0  0  0  0
   35.7790   29.1090   34.3350 C   0  0  0  0  0  0  0  0  0  0  0  0
   35.5750   29.7770   33.1090 C   0  0  0  0  0  0  0  0  0  0  0  0
   36.2360   29.2880   31.9640 C   0  0  0  0  0  0  0  0  0  0  0  0
   37.0440   28.1850   32.1070 N   0  0  0  0  0  0  0  0  0  0  0  0
   37.1940   27.5960   33.3110 C   0  0  0  0  0  0  0  0  0  0  0  0
   36.5720   28.0420   34.4220 N   0  0  0  0  0  0  0  0  0  0  0  0
   35.2700   29.4880   35.2120 H   0  0  0  0  0  0  0  0  0  0  0  0
   34.9280   30.6420   33.0510 H   0  0  0  0  0  0  0  0  0  0  0  0
   36.0600   29.9400   30.6710 C   0  0  0  0  0  0  0  0  0  0  0  0
   35.0540   30.2120   30.3890 H   0  0  0  0  0  0  0  0  0  0  0  0
   37.0800   30.1460   29.9650 O   0  0  0  0  0  0  0  0  0  0  0  0
  1  4  1  0  0  0  0
  2  1  1  0  0  0  0
  3  1  1  0  0  0  0
  4  5  2  0  0  0  0
  4  9  1  0  0  0  0
  5  6  1  0  0  0  0
  6 11  1  0  0  0  0
  6  7  2  0  0  0  0
  7 12  1  0  0  0  0
  8  7  1  0  0  0  0
  8 13  1  0  0  0  0
  9  8  2  0  0  0  0
 10  5  1  0  0  0  0
 14  9  1  0  0  0  0
 15 16  2  0  0  0  0
 16  1  1  0  0  0  0
 17 22  1  0  0  0  0
 17 23  1  0  0  0  0
 18 17  2  0  0  0  0
 19 20  2  0  0  0  0
 19 18  1  0  0  0  0
 20 21  1  0  0  0  0
 21 15  1  0  0  0  0
 21 22  2  0  0  0  0
 24 18  1  0  0  0  0
 25 19  1  0  0  0  0
 26 25  1  0  0  0  0
 27 25  2  0  0  0  0
M  END
>  <minimizedAffinity>
-4.57159233

$$$$

 OpenBabel03272509063D

 27 28  0  0  0  0  0  0  0  0999 V2000
   35.9450   28.7930   34.3280 C   0  0  0  0  0  0  0  0  0  0  0  0
   36.1390   29.5900   35.0730 H   0  0  0  0  0  0  0  0  0  0  0  0
   34.8900   28.4660   34.4780 H   0  0  0  0  0  0  0  0  0  0  0  0
   36.0880   29.3510   32.9490 C   0  0  0  0  0  0  0  0  0  0  0  0
   35.6180   30.5670   32.5030 C   0  0  0  0  0  0  0  0  0  0  0  0
   35.8260   30.9570   31.1960 C   0  0  0  0  0  0  0  0  0  0  0  0
   36.5050   30.1600   30.2870 C   0  0  0  0  0  0  0  0  0  0  0  0
   36.9820   28.9360   30.7230 C   0  0  0  0  0  0  0  0  0  0  0  0
   36.7730   28.5490   32.0260 C   0  0  0  0  0  0  0  0  0  0  0  0
   35.0960   31.1520   33.2460 H   0  0  0  0  0  0  0  0  0  0  0  0
   35.4450   31.9060   30.8960 H   0  0  0  0  0  0  0  0  0  0  0  0
   36.6600   30.4730   29.2750 H   0  0  0  0  0  0  0  0  0  0  0  0
   37.5170   28.2800   30.0540 H   0  0  0  0  0  0  0  0  0  0  0  0
   37.1610   27.5830   32.3370 H   0  0  0  0  0  0  0  0  0  0  0  0
   37.8550   27.5780   35.3610 C   0  0  0  0  0  3  0  0  0  0  0  0
   36.8350   27.6490   34.5780 C   0  0  0  0  0  3  0  0  0  0  0  0
   40.3710   24.9520   34.9680 C   0  0  0  0  0  0  0  0  0  0  0  0
   39.8370   23.9310   35.7820 C   0  0  0  0  0  0  0  0  0  0  0  0
   38.6160   24.1750   36.4440 C   0  0  0  0  0  0  0  0  0  0  0  0
   38.0140   25.3960   36.2580 N   0  0  0  0  0  0  0  0  0  0  0  0
   38.5810   26.3280   35.4640 C   0  0  0  0  0  0  0  0  0  0  0  0
   39.7480   26.1200   34.8190 N   0  0  0  0  0  0  0  0  0  0  0  0
   41.3080   24.7610   34.4610 H   0  0  0  0  0  0  0  0  0  0  0  0
   40.3520   22.9870   35.8940 H   0  0  0  0  0  0  0  0  0  0  0  0
   38.0180   23.1540   37.2970 C   0  0  0  0  0  0  0  0  0  0  0  0
   37.9030   22.1660   36.8770 H   0  0  0  0  0  0  0  0  0  0  0  0
   37.6750   23.4790   38.4620 O   0  0  0  0  0  0  0  0  0  0  0  0
  1  3  1  0  0  0  0
  1 16  1  0  0  0  0
  1  2  1  0  0  0  0
  4  1  1  0  0  0  0
  5  4  1  0  0  0  0
  5 10  1  0  0  0  0
  6  5  2  0  0  0  0
  7  8  2  0  0  0  0
  7  6  1  0  0  0  0
  8  9  1  0  0  0  0
  9 14  1  0  0  0  0
  9  4  2  0  0  0  0
 11  6  1  0  0  0  0
 12  7  1  0  0  0  0
 13  8  1  0  0  0  0
 15 21  1  0  0  0  0
 16 15  2  0  0  0  0
 17 18  1  0  0  0  0
 18 24  1  0  0  0  0
 18 19  2  0  0  0  0
 19 25  1  0  0  0  0
 20 19  1  0  0  0  0
 21 20  2  0  0  0  0
 22 17  2  0  0  0  0
 22 21  1  0  0  0  0
 23 17  1  0  0  0  0
 25 27  2  0  0  0  0
 26 25  1  0  0  0  0
M  END
>  <minimizedAffinity>
-4.53283834

$$$$

 OpenBabel03272509063D

 27 28  0  0  0  0  0  0  0  0999 V2000
   35.5310   22.9640   31.1890 C   0  0  0  0  0  0  0  0  0  0  0  0
   35.5700   22.9550   30.0820 H   0  0  0  0  0  0  0  0  0  0  0  0
   34.5370   23.3830   31.4710 H   0  0  0  0  0  0  0  0  0  0  0  0
   35.6340   21.5660   31.7060 C   0  0  0  0  0  0  0  0  0  0  0  0
   35.3430   21.1410   32.9840 C   0  0  0  0  0  0  0  0  0  0  0  0
   35.4810   19.8110   33.3230 C   0  0  0  0  0  0  0  0  0  0  0  0
   35.9120   18.8570   32.4130 C   0  0  0  0  0  0  0  0  0  0  0  0
   36.2070   19.2730   31.1260 C   0  0  0  0  0  0  0  0  0  0  0  0
   36.0690   20.5990   30.7900 C   0  0  0  0  0  0  0  0  0  0  0  0
   35.0120   21.9180   33.6570 H   0  0  0  0  0  0  0  0  0  0  0  0
   35.2450   19.5270   34.3230 H   0  0  0  0  0  0  0  0  0  0  0  0
   36.0160   17.8280   32.6870 H   0  0  0  0  0  0  0  0  0  0  0  0
   36.5450   18.5690   30.3800 H   0  0  0  0  0  0  0  0  0  0  0  0
   36.3080   20.8930   29.7720 H   0  0  0  0  0  0  0  0  0  0  0  0
   36.5610   25.1270   31.8650 C   0  0  0  0  0  3  0  0  0  0  0  0
   36.5820   23.8490   31.7160 C   0  0  0  0  0  3  0  0  0  0  0  0
   39.8480   26.6780   32.2740 C   0  0  0  0  0  0  0  0  0  0  0  0
   39.8000   27.0790   33.6260 C   0  0  0  0  0  0  0  0  0  0  0  0
   38.6320   26.7990   34.3650 C   0  0  0  0  0  0  0  0  0  0  0  0
   37.6040   26.1490   33.7240 N   0  0  0  0  0  0  0  0  0  0  0  0
   37.7180   25.7940   32.4280 C   0  0  0  0  0  0  0  0  0  0  0  0
   38.8240   26.0490   31.6980 N   0  0  0  0  0  0  0  0  0  0  0  0
   40.7470   26.8950   31.7110 H   0  0  0  0  0  0  0  0  0  0  0  0
   40.6380   27.5880   34.0820 H   0  0  0  0  0  0  0  0  0  0  0  0
   38.5280   27.1910   35.7660 C   0  0  0  0  0  0  0  0  0  0  0  0
   38.6920   28.2330   35.9990 H   0  0  0  0  0  0  0  0  0  0  0  0
   38.2570   26.3040   36.6130 O   0  0  0  0  0  0  0  0  0  0  0  0
  1  3  1  0  0  0  0
  1  4  1  0  0  0  0
  1 16  1  0  0  0  0
  2  1  1  0  0  0  0
  4  5  1  0  0  0  0
  5  6  2  0  0  0  0
  5 10  1  0  0  0  0
  6 11  1  0  0  0  0
  7 12  1  0  0  0  0
  7  6  1  0  0  0  0
  8  7  2  0  0  0  0
  9  8  1  0  0  0  0
  9  4  2  0  0  0  0
 13  8  1  0  0  0  0
 14  9  1  0  0  0  0
 15 21  1  0  0  0  0
 16 15  2  0  0  0  0
 17 18  1  0  0  0  0
 18 24  1  0  0  0  0
 18 19  2  0  0  0  0
 19 25  1  0  0  0  0
 20 19  1  0  0  0  0
 21 20  2  0  0  0  0
 22 17  2  0  0  0  0
 22 21  1  0  0  0  0
 23 17  1  0  0  0  0
 25 26  1  0  0  0  0
 25 27  2  0  0  0  0
M  END
>  <minimizedAffinity>
-4.4982481

$$$$

 OpenBabel03272509063D

 27 28  0  0  0  0  0  0  0  0999 V2000
   35.2240   29.6860   33.8310 C   0  0  0  0  0  0  0  0  0  0  0  0
   34.4060   29.2240   33.2430 H   0  0  0  0  0  0  0  0  0  0  0  0
   35.7610   30.3790   33.1430 H   0  0  0  0  0  0  0  0  0  0  0  0
   34.6450   30.4750   34.9600 C   0  0  0  0  0  0  0  0  0  0  0  0
   33.3300   30.4760   35.3710 C   0  0  0  0  0  0  0  0  0  0  0  0
   32.9340   31.2570   36.4370 C   0  0  0  0  0  0  0  0  0  0  0  0
   33.8220   32.0630   37.1320 C   0  0  0  0  0  0  0  0  0  0  0  0
   35.1460   32.0710   36.7280 C   0  0  0  0  0  0  0  0  0  0  0  0
   35.5390   31.2920   35.6660 C   0  0  0  0  0  0  0  0  0  0  0  0
   32.6750   29.8330   34.8000 H   0  0  0  0  0  0  0  0  0  0  0  0
   31.9070   31.2250   36.7200 H   0  0  0  0  0  0  0  0  0  0  0  0
   33.5040   32.6650   37.9580 H   0  0  0  0  0  0  0  0  0  0  0  0
   35.8770   32.6810   37.2380 H   0  0  0  0  0  0  0  0  0  0  0  0
   36.5850   31.3200   35.3740 H   0  0  0  0  0  0  0  0  0  0  0  0
   36.9200   27.8840   33.5730 C   0  0  0  0  0  3  0  0  0  0  0  0
   36.1620   28.6460   34.2810 C   0  0  0  0  0  3  0  0  0  0  0  0
   38.1530   25.0930   35.5910 C   0  0  0  0  0  0  0  0  0  0  0  0
   39.5470   25.2070   35.4030 C   0  0  0  0  0  0  0  0  0  0  0  0
   40.0260   26.2520   34.5850 C   0  0  0  0  0  0  0  0  0  0  0  0
   39.1070   27.1000   34.0160 N   0  0  0  0  0  0  0  0  0  0  0  0
   37.7870   26.9320   34.2400 C   0  0  0  0  0  0  0  0  0  0  0  0
   37.3010   25.9420   35.0180 N   0  0  0  0  0  0  0  0  0  0  0  0
   37.7890   24.2900   36.2200 H   0  0  0  0  0  0  0  0  0  0  0  0
   40.2280   24.5130   35.8740 H   0  0  0  0  0  0  0  0  0  0  0  0
   41.4570   26.4170   34.3560 C   0  0  0  0  0  0  0  0  0  0  0  0
   42.1090   25.6460   34.7380 H   0  0  0  0  0  0  0  0  0  0  0  0
   41.8460   27.4370   33.7340 O   0  0  0  0  0  0  0  0  0  0  0  0
  1 16  1  0  0  0  0
  1  4  1  0  0  0  0
  2  1  1  0  0  0  0
  3  1  1  0  0  0  0
  4  5  2  0  0  0  0
  4  9  1  0  0  0  0
  5  6  1  0  0  0  0
  6 11  1  0  0  0  0
  6  7  2  0  0  0  0
  7 12  1  0  0  0  0
  8  7  1  0  0  0  0
  8 13  1  0  0  0  0
  9  8  2  0  0  0  0
 10  5  1  0  0  0  0
 14  9  1  0  0  0  0
 15 21  1  0  0  0  0
 15 16  2  0  0  0  0
 17 23  1  0  0  0  0
 18 17  1  0  0  0  0
 18 24  1  0  0  0  0
 19 18  2  0  0  0  0
 20 21  2  0  0  0  0
 20 19  1  0  0  0  0
 21 22  1  0  0  0  0
 22 17  2  0  0  0  0
 25 19  1  0  0  0  0
 25 26  1  0  0  0  0
 27 25  2  0  0  0  0
M  END
>  <minimizedAffinity>
-4.47742367

$$$$
