
 OpenBabel03272507403D

 28 29  0  0  0  0  0  0  0  0999 V2000
   38.4350   23.9570   35.0340 O   0  0  0  0  0  0  0  0  0  0  0  0
   37.4260   25.6320   33.5320 C   0  0  0  0  0  0  0  0  0  0  0  0
   38.0090   25.2320   34.7080 C   0  0  0  0  0  0  0  0  0  0  0  0
   38.2280   26.1460   35.7280 C   0  0  0  0  0  0  0  0  0  0  0  0
   37.8480   27.4760   35.5410 C   0  0  0  0  0  0  0  0  0  0  0  0
   37.2620   27.8670   34.3540 C   0  0  0  0  0  0  0  0  0  0  0  0
   37.0630   26.9290   33.3690 C   0  0  0  0  0  0  0  0  0  0  0  0
   38.6730   25.9220   36.6700 H   0  0  0  0  0  0  0  0  0  0  0  0
   38.0010   28.2210   36.3120 H   0  0  0  0  0  0  0  0  0  0  0  0
   36.9620   28.8950   34.1950 H   0  0  0  0  0  0  0  0  0  0  0  0
   36.4350   27.3500   32.0960 C   0  0  0  0  0  0  0  0  0  0  0  0
   36.8690   27.0510   31.1500 H   0  0  0  0  0  0  0  0  0  0  0  0
   35.3810   28.0670   32.1970 O   0  0  0  0  0  0  0  0  0  0  0  0
   37.0640   23.7950   31.7560 N   0  0  0  0  0  0  0  0  0  0  0  0
   37.2320   24.6130   32.5370 C   0  0  0  0  0  0  0  0  0  0  0  0
   39.6680   23.6570   35.5310 C   0  0  0  0  0  0  0  0  0  0  0  0
   39.5870   22.9650   36.7370 C   0  0  0  0  0  0  0  0  0  0  0  0
   40.7280   22.5710   37.4020 C   0  0  0  0  0  0  0  0  0  0  0  0
   41.9350   22.8900   36.8220 N   0  0  0  0  0  0  0  0  0  0  0  0
   41.9940   23.5640   35.6480 C   0  0  0  0  0  0  0  0  0  0  0  0
   40.8840   23.9310   35.0290 N   0  0  0  0  0  0  0  0  0  0  0  0
   40.7600   22.0340   38.3400 H   0  0  0  0  0  0  0  0  0  0  0  0
   42.8860   23.8520   35.1240 H   0  0  0  0  0  0  0  0  0  0  0  0
   37.7930   23.4430   38.3290 C   0  0  0  0  0  0  0  0  0  0  0  0
   38.1280   24.5640   38.8820 O   0  0  0  0  0  0  0  0  0  0  0  0
   38.4170   22.5670   37.3900 N   0  0  0  0  0  0  0  0  0  0  0  0
   37.0240   23.7940   39.0050 H   0  0  0  0  0  0  0  0  0  0  0  0
   37.7140   21.8350   37.5290 H   0  0  0  0  0  0  0  0  0  0  0  0
  1 16  1  0  0  0  0
  2  3  1  0  0  0  0
  3  1  1  0  0  0  0
  3  4  2  0  0  0  0
  4  8  1  0  0  0  0
  5  4  1  0  0  0  0
  5  9  1  0  0  0  0
  6  5  2  0  0  0  0
  7  2  2  0  0  0  0
  7  6  1  0  0  0  0
 10  6  1  0  0  0  0
 11 13  2  0  0  0  0
 11  7  1  0  0  0  0
 12 11  1  0  0  0  0
 14 15  3  0  0  0  0
 15  2  1  0  0  0  0
 16 17  1  0  0  0  0
 17 26  1  0  0  0  0
 17 18  2  0  0  0  0
 18 22  1  0  0  0  0
 19 18  1  0  0  0  0
 20 19  2  0  0  0  0
 21 16  2  0  0  0  0
 21 20  1  0  0  0  0
 23 20  1  0  0  0  0
 24 25  2  0  0  0  0
 24 27  1  0  0  0  0
 26 28  1  0  0  0  0
 26 24  1  0  0  0  0
M  END
>  <minimizedAffinity>
-4.98139811

$$$$

 OpenBabel03272507403D

 28 29  0  0  0  0  0  0  0  0999 V2000
   38.5280   21.8640   34.5680 O   0  0  0  0  0  0  0  0  0  0  0  0
   37.3880   23.0980   32.7640 C   0  0  0  0  0  0  0  0  0  0  0  0
   37.5110   22.0590   33.6510 C   0  0  0  0  0  0  0  0  0  0  0  0
   36.5520   21.0580   33.6950 C   0  0  0  0  0  0  0  0  0  0  0  0
   35.4630   21.1210   32.8260 C   0  0  0  0  0  0  0  0  0  0  0  0
   35.3500   22.1720   31.9370 C   0  0  0  0  0  0  0  0  0  0  0  0
   36.3210   23.1430   31.9250 C   0  0  0  0  0  0  0  0  0  0  0  0
   36.5690   20.2180   34.3510 H   0  0  0  0  0  0  0  0  0  0  0  0
   34.6930   20.3600   32.8270 H   0  0  0  0  0  0  0  0  0  0  0  0
   34.5100   22.2340   31.2560 H   0  0  0  0  0  0  0  0  0  0  0  0
   36.1990   24.2690   30.9720 C   0  0  0  0  0  0  0  0  0  0  0  0
   36.9830   24.4600   30.2510 H   0  0  0  0  0  0  0  0  0  0  0  0
   35.1350   24.9730   31.0650 O   0  0  0  0  0  0  0  0  0  0  0  0
   39.2530   24.8810   32.7960 N   0  0  0  0  0  0  0  0  0  0  0  0
   38.4330   24.0840   32.7870 C   0  0  0  0  0  0  0  0  0  0  0  0
   38.5320   22.3600   35.8380 C   0  0  0  0  0  0  0  0  0  0  0  0
   39.8020   22.3190   36.4060 C   0  0  0  0  0  0  0  0  0  0  0  0
   40.0150   22.7750   37.6900 C   0  0  0  0  0  0  0  0  0  0  0  0
   38.9250   23.2690   38.3700 N   0  0  0  0  0  0  0  0  0  0  0  0
   37.6960   23.3010   37.7990 C   0  0  0  0  0  0  0  0  0  0  0  0
   37.5170   22.8570   36.5670 N   0  0  0  0  0  0  0  0  0  0  0  0
   40.9630   22.7800   38.2100 H   0  0  0  0  0  0  0  0  0  0  0  0
   36.7940   23.6670   38.2510 H   0  0  0  0  0  0  0  0  0  0  0  0
   41.8770   22.8070   35.2070 C   0  0  0  0  0  0  0  0  0  0  0  0
   41.8300   24.0760   34.9610 O   0  0  0  0  0  0  0  0  0  0  0  0
   40.9740   21.8690   35.7920 N   0  0  0  0  0  0  0  0  0  0  0  0
   42.7910   23.1520   34.7410 H   0  0  0  0  0  0  0  0  0  0  0  0
   41.5540   21.0680   35.5260 H   0  0  0  0  0  0  0  0  0  0  0  0
  1 16  1  0  0  0  0
  2 15  1  0  0  0  0
  2  3  1  0  0  0  0
  3  4  2  0  0  0  0
  3  1  1  0  0  0  0
  4  8  1  0  0  0  0
  5  9  1  0  0  0  0
  5  4  1  0  0  0  0
  6  5  2  0  0  0  0
  7  6  1  0  0  0  0
  7  2  2  0  0  0  0
 10  6  1  0  0  0  0
 11 13  2  0  0  0  0
 11  7  1  0  0  0  0
 12 11  1  0  0  0  0
 15 14  3  0  0  0  0
 16 17  2  0  0  0  0
 16 21  1  0  0  0  0
 17 18  1  0  0  0  0
 18 22  1  0  0  0  0
 18 19  2  0  0  0  0
 20 23  1  0  0  0  0
 20 19  1  0  0  0  0
 21 20  2  0  0  0  0
 24 26  1  0  0  0  0
 25 24  2  0  0  0  0
 26 17  1  0  0  0  0
 27 24  1  0  0  0  0
 28 26  1  0  0  0  0
M  END
>  <minimizedAffinity>
-4.63247442

$$$$

 OpenBabel03272507403D

 28 29  0  0  0  0  0  0  0  0999 V2000
   38.8790   24.2310   34.2810 O   0  0  0  0  0  0  0  0  0  0  0  0
   37.1790   24.9820   32.6610 C   0  0  0  0  0  0  0  0  0  0  0  0
   37.8650   24.0240   33.3630 C   0  0  0  0  0  0  0  0  0  0  0  0
   37.5660   22.6810   33.1900 C   0  0  0  0  0  0  0  0  0  0  0  0
   36.5610   22.3180   32.2940 C   0  0  0  0  0  0  0  0  0  0  0  0
   35.8780   23.2910   31.5920 C   0  0  0  0  0  0  0  0  0  0  0  0
   36.2050   24.6110   31.7930 C   0  0  0  0  0  0  0  0  0  0  0  0
   38.0470   21.8740   33.6940 H   0  0  0  0  0  0  0  0  0  0  0  0
   36.2970   21.2810   32.1300 H   0  0  0  0  0  0  0  0  0  0  0  0
   35.0950   23.0250   30.8930 H   0  0  0  0  0  0  0  0  0  0  0  0
   35.4710   25.6540   31.0400 C   0  0  0  0  0  0  0  0  0  0  0  0
   35.8220   26.6780   31.0460 H   0  0  0  0  0  0  0  0  0  0  0  0
   34.4290   25.2640   30.4090 O   0  0  0  0  0  0  0  0  0  0  0  0
   37.8880   27.4260   33.0950 N   0  0  0  0  0  0  0  0  0  0  0  0
   37.5640   26.3460   32.9000 C   0  0  0  0  0  0  0  0  0  0  0  0
   38.7730   23.9940   35.6190 C   0  0  0  0  0  0  0  0  0  0  0  0
   39.7870   23.1570   36.0800 C   0  0  0  0  0  0  0  0  0  0  0  0
   39.8530   22.7960   37.4080 C   0  0  0  0  0  0  0  0  0  0  0  0
   38.8830   23.2990   38.2450 N   0  0  0  0  0  0  0  0  0  0  0  0
   37.9050   24.1120   37.7790 C   0  0  0  0  0  0  0  0  0  0  0  0
   37.8620   24.4440   36.4990 N   0  0  0  0  0  0  0  0  0  0  0  0
   40.6000   22.1530   37.8520 H   0  0  0  0  0  0  0  0  0  0  0  0
   37.1110   24.5500   38.3550 H   0  0  0  0  0  0  0  0  0  0  0  0
   42.0780   23.3140   35.2380 C   0  0  0  0  0  0  0  0  0  0  0  0
   42.4920   24.4800   35.6120 O   0  0  0  0  0  0  0  0  0  0  0  0
   40.8310   22.6220   35.3210 N   0  0  0  0  0  0  0  0  0  0  0  0
   43.1190   23.4620   34.9830 H   0  0  0  0  0  0  0  0  0  0  0  0
   41.1520   21.8660   34.7100 H   0  0  0  0  0  0  0  0  0  0  0  0
  1 16  1  0  0  0  0
  2 15  1  0  0  0  0
  2  3  1  0  0  0  0
  3  1  1  0  0  0  0
  4  3  2  0  0  0  0
  4  8  1  0  0  0  0
  5  4  1  0  0  0  0
  6  7  1  0  0  0  0
  6  5  2  0  0  0  0
  7  2  2  0  0  0  0
  9  5  1  0  0  0  0
 10  6  1  0  0  0  0
 11 12  1  0  0  0  0
 11  7  1  0  0  0  0
 13 11  2  0  0  0  0
 15 14  3  0  0  0  0
 16 17  2  0  0  0  0
 16 21  1  0  0  0  0
 17 18  1  0  0  0  0
 18 22  1  0  0  0  0
 18 19  2  0  0  0  0
 20 19  1  0  0  0  0
 20 23  1  0  0  0  0
 21 20  2  0  0  0  0
 24 26  1  0  0  0  0
 24 25  2  0  0  0  0
 26 17  1  0  0  0  0
 27 24  1  0  0  0  0
 28 26  1  0  0  0  0
M  END
>  <minimizedAffinity>
-4.56985188

$$$$

 OpenBabel03272507403D

 28 29  0  0  0  0  0  0  0  0999 V2000
   38.2300   23.7130   35.1310 O   0  0  0  0  0  0  0  0  0  0  0  0
   37.7730   25.7880   33.8810 C   0  0  0  0  0  0  0  0  0  0  0  0
   37.9080   24.4270   33.9910 C   0  0  0  0  0  0  0  0  0  0  0  0
   37.7180   23.6130   32.8850 C   0  0  0  0  0  0  0  0  0  0  0  0
   37.3870   24.1950   31.6610 C   0  0  0  0  0  0  0  0  0  0  0  0
   37.2540   25.5650   31.5620 C   0  0  0  0  0  0  0  0  0  0  0  0
   37.4510   26.3370   32.6820 C   0  0  0  0  0  0  0  0  0  0  0  0
   37.8020   22.5500   32.8820 H   0  0  0  0  0  0  0  0  0  0  0  0
   37.2300   23.5940   30.7740 H   0  0  0  0  0  0  0  0  0  0  0  0
   36.9980   26.0310   30.6180 H   0  0  0  0  0  0  0  0  0  0  0  0
   37.3080   27.8060   32.5750 C   0  0  0  0  0  0  0  0  0  0  0  0
   38.1550   28.4520   32.7660 H   0  0  0  0  0  0  0  0  0  0  0  0
   36.1470   28.2360   32.2520 O   0  0  0  0  0  0  0  0  0  0  0  0
   38.1920   27.1480   36.0340 N   0  0  0  0  0  0  0  0  0  0  0  0
   37.9970   26.5510   35.0780 C   0  0  0  0  0  0  0  0  0  0  0  0
   39.5000   23.4760   35.5640 C   0  0  0  0  0  0  0  0  0  0  0  0
   39.5180   22.9050   36.8340 C   0  0  0  0  0  0  0  0  0  0  0  0
   40.7110   22.5920   37.4500 C   0  0  0  0  0  0  0  0  0  0  0  0
   41.8670   22.8650   36.7550 N   0  0  0  0  0  0  0  0  0  0  0  0
   41.8300   23.4200   35.5190 C   0  0  0  0  0  0  0  0  0  0  0  0
   40.6730   23.7130   34.9490 N   0  0  0  0  0  0  0  0  0  0  0  0
   40.8190   22.1500   38.4300 H   0  0  0  0  0  0  0  0  0  0  0  0
   42.6760   23.6660   34.9060 H   0  0  0  0  0  0  0  0  0  0  0  0
   37.7800   23.5450   38.4310 C   0  0  0  0  0  0  0  0  0  0  0  0
   38.0780   24.7540   38.7830 O   0  0  0  0  0  0  0  0  0  0  0  0
   38.4050   22.5620   37.6060 N   0  0  0  0  0  0  0  0  0  0  0  0
   37.0260   23.9620   39.0860 H   0  0  0  0  0  0  0  0  0  0  0  0
   37.7510   21.8290   37.8970 H   0  0  0  0  0  0  0  0  0  0  0  0
  1 16  1  0  0  0  0
  2  3  1  0  0  0  0
  2 15  1  0  0  0  0
  3  1  1  0  0  0  0
  4  3  2  0  0  0  0
  5  4  1  0  0  0  0
  6  5  2  0  0  0  0
  6  7  1  0  0  0  0
  7  2  2  0  0  0  0
  8  4  1  0  0  0  0
  9  5  1  0  0  0  0
 10  6  1  0  0  0  0
 11  7  1  0  0  0  0
 11 12  1  0  0  0  0
 13 11  2  0  0  0  0
 15 14  3  0  0  0  0
 16 17  1  0  0  0  0
 17 18  2  0  0  0  0
 17 26  1  0  0  0  0
 18 22  1  0  0  0  0
 19 18  1  0  0  0  0
 20 19  2  0  0  0  0
 21 20  1  0  0  0  0
 21 16  2  0  0  0  0
 23 20  1  0  0  0  0
 24 25  2  0  0  0  0
 24 27  1  0  0  0  0
 26 28  1  0  0  0  0
 26 24  1  0  0  0  0
M  END
>  <minimizedAffinity>
-4.5145545

$$$$

 OpenBabel03272507403D

 28 29  0  0  0  0  0  0  0  0999 V2000
   38.0400   24.1510   34.3700 O   0  0  0  0  0  0  0  0  0  0  0  0
   36.9870   25.7450   32.8120 C   0  0  0  0  0  0  0  0  0  0  0  0
   37.5710   25.4000   34.0040 C   0  0  0  0  0  0  0  0  0  0  0  0
   37.7440   26.3490   35.0000 C   0  0  0  0  0  0  0  0  0  0  0  0
   37.3180   27.6580   34.7730 C   0  0  0  0  0  0  0  0  0  0  0  0
   36.7310   27.9940   33.5690 C   0  0  0  0  0  0  0  0  0  0  0  0
   36.5780   27.0230   32.6090 C   0  0  0  0  0  0  0  0  0  0  0  0
   38.1870   26.1680   35.9530 H   0  0  0  0  0  0  0  0  0  0  0  0
   37.4340   28.4290   35.5240 H   0  0  0  0  0  0  0  0  0  0  0  0
   36.3960   29.0060   33.3790 H   0  0  0  0  0  0  0  0  0  0  0  0
   35.9500   27.3850   31.3180 C   0  0  0  0  0  0  0  0  0  0  0  0
   34.9200   27.1150   31.1190 H   0  0  0  0  0  0  0  0  0  0  0  0
   36.6910   28.0150   30.4880 O   0  0  0  0  0  0  0  0  0  0  0  0
   36.7400   23.8650   31.0620 N   0  0  0  0  0  0  0  0  0  0  0  0
   36.8420   24.6930   31.8440 C   0  0  0  0  0  0  0  0  0  0  0  0
   38.3670   23.7900   35.6440 C   0  0  0  0  0  0  0  0  0  0  0  0
   39.7120   23.4490   35.7570 C   0  0  0  0  0  0  0  0  0  0  0  0
   40.2390   23.0510   36.9670 C   0  0  0  0  0  0  0  0  0  0  0  0
   39.3820   23.0130   38.0430 N   0  0  0  0  0  0  0  0  0  0  0  0
   38.0750   23.3490   37.9140 C   0  0  0  0  0  0  0  0  0  0  0  0
   37.5930   23.7260   36.7410 N   0  0  0  0  0  0  0  0  0  0  0  0
   41.2670   22.7680   37.1470 H   0  0  0  0  0  0  0  0  0  0  0  0
   37.3370   23.3490   38.6940 H   0  0  0  0  0  0  0  0  0  0  0  0
   41.4130   24.6800   34.5020 C   0  0  0  0  0  0  0  0  0  0  0  0
   41.3400   25.8930   34.9440 O   0  0  0  0  0  0  0  0  0  0  0  0
   40.6670   23.4850   34.7380 N   0  0  0  0  0  0  0  0  0  0  0  0
   42.1820   25.3040   34.0670 H   0  0  0  0  0  0  0  0  0  0  0  0
   41.1330   22.9840   33.9750 H   0  0  0  0  0  0  0  0  0  0  0  0
  1 16  1  0  0  0  0
  2  3  1  0  0  0  0
  3  1  1  0  0  0  0
  3  4  2  0  0  0  0
  4  8  1  0  0  0  0
  5  4  1  0  0  0  0
  5  9  1  0  0  0  0
  6  5  2  0  0  0  0
  7  2  2  0  0  0  0
  7  6  1  0  0  0  0
 10  6  1  0  0  0  0
 11  7  1  0  0  0  0
 12 11  1  0  0  0  0
 13 11  2  0  0  0  0
 14 15  3  0  0  0  0
 15  2  1  0  0  0  0
 16 17  2  0  0  0  0
 16 21  1  0  0  0  0
 17 18  1  0  0  0  0
 18 22  1  0  0  0  0
 18 19  2  0  0  0  0
 20 19  1  0  0  0  0
 20 23  1  0  0  0  0
 21 20  2  0  0  0  0
 24 26  1  0  0  0  0
 24 25  2  0  0  0  0
 26 17  1  0  0  0  0
 27 24  1  0  0  0  0
 28 26  1  0  0  0  0
M  END
>  <minimizedAffinity>
-4.47784758

$$$$

 OpenBabel03272507403D

 28 29  0  0  0  0  0  0  0  0999 V2000
   38.4050   25.1190   34.2120 O   0  0  0  0  0  0  0  0  0  0  0  0
   39.9350   23.7540   35.5810 C   0  0  0  0  0  0  0  0  0  0  0  0
   38.7680   24.4420   35.3620 C   0  0  0  0  0  0  0  0  0  0  0  0
   37.8000   24.5120   36.3520 C   0  0  0  0  0  0  0  0  0  0  0  0
   38.0280   23.8730   37.5720 C   0  0  0  0  0  0  0  0  0  0  0  0
   39.2050   23.1840   37.7800 C   0  0  0  0  0  0  0  0  0  0  0  0
   40.1390   23.1390   36.7730 C   0  0  0  0  0  0  0  0  0  0  0  0
   36.8680   25.0220   36.2670 H   0  0  0  0  0  0  0  0  0  0  0  0
   37.2970   23.9030   38.3710 H   0  0  0  0  0  0  0  0  0  0  0  0
   39.3960   22.6830   38.7220 H   0  0  0  0  0  0  0  0  0  0  0  0
   41.4020   22.3990   36.9980 C   0  0  0  0  0  0  0  0  0  0  0  0
   42.3240   22.7470   36.5510 H   0  0  0  0  0  0  0  0  0  0  0  0
   41.3190   21.3550   37.7320 O   0  0  0  0  0  0  0  0  0  0  0  0
   41.6330   23.7540   33.6370 N   0  0  0  0  0  0  0  0  0  0  0  0
   40.8820   23.7430   34.4990 C   0  0  0  0  0  0  0  0  0  0  0  0
   37.6290   24.5990   33.2190 C   0  0  0  0  0  0  0  0  0  0  0  0
   36.8510   25.5750   32.6030 C   0  0  0  0  0  0  0  0  0  0  0  0
   35.9950   25.2480   31.5730 C   0  0  0  0  0  0  0  0  0  0  0  0
   35.9500   23.9280   31.1890 N   0  0  0  0  0  0  0  0  0  0  0  0
   36.7160   22.9910   31.8000 C   0  0  0  0  0  0  0  0  0  0  0  0
   37.5290   23.3300   32.7870 N   0  0  0  0  0  0  0  0  0  0  0  0
   35.3550   25.9380   31.0400 H   0  0  0  0  0  0  0  0  0  0  0  0
   36.7470   21.9440   31.5670 H   0  0  0  0  0  0  0  0  0  0  0  0
   37.6530   27.8370   32.1320 C   0  0  0  0  0  0  0  0  0  0  0  0
   38.5730   27.6850   31.2340 O   0  0  0  0  0  0  0  0  0  0  0  0
   36.8460   26.9420   32.8960 N   0  0  0  0  0  0  0  0  0  0  0  0
   38.0290   28.7920   31.7880 H   0  0  0  0  0  0  0  0  0  0  0  0
   36.4890   27.6930   33.4940 H   0  0  0  0  0  0  0  0  0  0  0  0
  1  3  1  0  0  0  0
  2  7  1  0  0  0  0
  3  2  2  0  0  0  0
  3  4  1  0  0  0  0
  4  5  2  0  0  0  0
  5  6  1  0  0  0  0
  5  9  1  0  0  0  0
  6 10  1  0  0  0  0
  7 11  1  0  0  0  0
  7  6  2  0  0  0  0
  8  4  1  0  0  0  0
 11 13  2  0  0  0  0
 12 11  1  0  0  0  0
 14 15  3  0  0  0  0
 15  2  1  0  0  0  0
 16  1  1  0  0  0  0
 17 26  1  0  0  0  0
 17 16  2  0  0  0  0
 18 17  1  0  0  0  0
 19 18  2  0  0  0  0
 19 20  1  0  0  0  0
 20 21  2  0  0  0  0
 21 16  1  0  0  0  0
 22 18  1  0  0  0  0
 23 20  1  0  0  0  0
 24 26  1  0  0  0  0
 25 24  2  0  0  0  0
 26 28  1  0  0  0  0
 27 24  1  0  0  0  0
M  END
>  <minimizedAffinity>
-4.3886714

$$$$

 OpenBabel03272507403D

 28 29  0  0  0  0  0  0  0  0999 V2000
   35.0020   29.0340   33.7260 O   0  0  0  0  0  0  0  0  0  0  0  0
   33.4740   30.2280   35.2480 C   0  0  0  0  0  0  0  0  0  0  0  0
   34.7060   29.9630   34.7080 C   0  0  0  0  0  0  0  0  0  0  0  0
   35.8250   30.6580   35.1410 C   0  0  0  0  0  0  0  0  0  0  0  0
   35.6810   31.6300   36.1310 C   0  0  0  0  0  0  0  0  0  0  0  0
   34.4350   31.8890   36.6680 C   0  0  0  0  0  0  0  0  0  0  0  0
   33.3520   31.1770   36.2110 C   0  0  0  0  0  0  0  0  0  0  0  0
   36.8170   30.5160   34.7760 H   0  0  0  0  0  0  0  0  0  0  0  0
   36.5290   32.1950   36.4970 H   0  0  0  0  0  0  0  0  0  0  0  0
   34.3070   32.6400   37.4370 H   0  0  0  0  0  0  0  0  0  0  0  0
   32.0160   31.4560   36.7870 C   0  0  0  0  0  0  0  0  0  0  0  0
   31.3400   30.6410   37.0130 H   0  0  0  0  0  0  0  0  0  0  0  0
   31.7350   32.6870   36.9860 O   0  0  0  0  0  0  0  0  0  0  0  0
   31.5130   28.8220   34.3330 N   0  0  0  0  0  0  0  0  0  0  0  0
   32.3740   29.4520   34.7420 C   0  0  0  0  0  0  0  0  0  0  0  0
   35.6020   29.3290   32.5380 C   0  0  0  0  0  0  0  0  0  0  0  0
   36.6950   28.5020   32.2900 C   0  0  0  0  0  0  0  0  0  0  0  0
   37.4390   28.6430   31.1380 C   0  0  0  0  0  0  0  0  0  0  0  0
   37.0510   29.6260   30.2560 N   0  0  0  0  0  0  0  0  0  0  0  0
   35.9830   30.4200   30.5140 C   0  0  0  0  0  0  0  0  0  0  0  0
   35.2860   30.2660   31.6280 N   0  0  0  0  0  0  0  0  0  0  0  0
   38.3000   28.0500   30.8650 H   0  0  0  0  0  0  0  0  0  0  0  0
   35.6090   31.2070   29.8870 H   0  0  0  0  0  0  0  0  0  0  0  0
   36.8430   26.1080   32.7650 C   0  0  0  0  0  0  0  0  0  0  0  0
   36.0730   25.5460   31.8900 O   0  0  0  0  0  0  0  0  0  0  0  0
   37.1500   27.4600   33.1030 N   0  0  0  0  0  0  0  0  0  0  0  0
   36.8920   25.0280   32.8320 H   0  0  0  0  0  0  0  0  0  0  0  0
   37.6630   27.1860   33.9460 H   0  0  0  0  0  0  0  0  0  0  0  0
  1  3  1  0  0  0  0
  2  7  1  0  0  0  0
  3  4  1  0  0  0  0
  3  2  2  0  0  0  0
  4  5  2  0  0  0  0
  5  9  1  0  0  0  0
  5  6  1  0  0  0  0
  6 10  1  0  0  0  0
  7  6  2  0  0  0  0
  7 11  1  0  0  0  0
  8  4  1  0  0  0  0
 11 13  2  0  0  0  0
 11 12  1  0  0  0  0
 14 15  3  0  0  0  0
 15  2  1  0  0  0  0
 16  1  1  0  0  0  0
 17 16  1  0  0  0  0
 17 26  1  0  0  0  0
 18 17  2  0  0  0  0
 19 20  2  0  0  0  0
 19 18  1  0  0  0  0
 20 21  1  0  0  0  0
 21 16  2  0  0  0  0
 22 18  1  0  0  0  0
 23 20  1  0  0  0  0
 24 27  1  0  0  0  0
 24 26  1  0  0  0  0
 25 24  2  0  0  0  0
 26 28  1  0  0  0  0
M  END
>  <minimizedAffinity>
-4.37697935

$$$$

 OpenBabel03272507403D

 28 29  0  0  0  0  0  0  0  0999 V2000
   39.1770   25.2550   34.7110 O   0  0  0  0  0  0  0  0  0  0  0  0
   37.4980   24.9480   32.9330 C   0  0  0  0  0  0  0  0  0  0  0  0
   38.2050   25.7020   33.8340 C   0  0  0  0  0  0  0  0  0  0  0  0
   37.9800   27.0660   33.9370 C   0  0  0  0  0  0  0  0  0  0  0  0
   37.0240   27.6610   33.1110 C   0  0  0  0  0  0  0  0  0  0  0  0
   36.3180   26.8920   32.2080 C   0  0  0  0  0  0  0  0  0  0  0  0
   36.5720   25.5430   32.1380 C   0  0  0  0  0  0  0  0  0  0  0  0
   38.4830   27.7250   34.6070 H   0  0  0  0  0  0  0  0  0  0  0  0
   36.8180   28.7230   33.1600 H   0  0  0  0  0  0  0  0  0  0  0  0
   35.5740   27.3400   31.5610 H   0  0  0  0  0  0  0  0  0  0  0  0
   35.8150   24.7200   31.1690 C   0  0  0  0  0  0  0  0  0  0  0  0
   36.1900   23.7510   30.8670 H   0  0  0  0  0  0  0  0  0  0  0  0
   34.7240   25.2260   30.7320 O   0  0  0  0  0  0  0  0  0  0  0  0
   38.0460   22.4270   32.8940 N   0  0  0  0  0  0  0  0  0  0  0  0
   37.7950   23.5420   32.9040 C   0  0  0  0  0  0  0  0  0  0  0  0
   38.9230   24.6790   35.9200 C   0  0  0  0  0  0  0  0  0  0  0  0
   39.6370   23.4960   36.0910 C   0  0  0  0  0  0  0  0  0  0  0  0
   39.5140   22.7600   37.2500 C   0  0  0  0  0  0  0  0  0  0  0  0
   38.6660   23.2480   38.2180 N   0  0  0  0  0  0  0  0  0  0  0  0
   37.9800   24.4020   38.0340 C   0  0  0  0  0  0  0  0  0  0  0  0
   38.1140   25.0900   36.9120 N   0  0  0  0  0  0  0  0  0  0  0  0
   40.0260   21.8330   37.4680 H   0  0  0  0  0  0  0  0  0  0  0  0
   37.3010   24.8570   38.7300 H   0  0  0  0  0  0  0  0  0  0  0  0
   41.9420   23.1660   35.3450 C   0  0  0  0  0  0  0  0  0  0  0  0
   42.6520   23.9380   36.1020 O   0  0  0  0  0  0  0  0  0  0  0  0
   40.5420   22.9340   35.1880 N   0  0  0  0  0  0  0  0  0  0  0  0
   43.0000   23.0420   35.1520 H   0  0  0  0  0  0  0  0  0  0  0  0
   40.6800   22.3640   34.3480 H   0  0  0  0  0  0  0  0  0  0  0  0
  1 16  1  0  0  0  0
  2  3  1  0  0  0  0
  3  4  2  0  0  0  0
  3  1  1  0  0  0  0
  4  8  1  0  0  0  0
  5  9  1  0  0  0  0
  5  4  1  0  0  0  0
  6  5  2  0  0  0  0
  7  6  1  0  0  0  0
  7  2  2  0  0  0  0
 10  6  1  0  0  0  0
 11  7  1  0  0  0  0
 12 11  1  0  0  0  0
 13 11  2  0  0  0  0
 14 15  3  0  0  0  0
 15  2  1  0  0  0  0
 16 17  2  0  0  0  0
 16 21  1  0  0  0  0
 17 18  1  0  0  0  0
 18 22  1  0  0  0  0
 18 19  2  0  0  0  0
 20 19  1  0  0  0  0
 20 23  1  0  0  0  0
 21 20  2  0  0  0  0
 24 25  2  0  0  0  0
 26 24  1  0  0  0  0
 26 17  1  0  0  0  0
 27 24  1  0  0  0  0
 28 26  1  0  0  0  0
M  END
>  <minimizedAffinity>
-4.34943295

$$$$

 OpenBabel03272507403D

 28 29  0  0  0  0  0  0  0  0999 V2000
   35.8140   28.5130   34.4520 O   0  0  0  0  0  0  0  0  0  0  0  0
   37.6400   27.5970   33.0720 C   0  0  0  0  0  0  0  0  0  0  0  0
   37.0560   27.9330   34.2670 C   0  0  0  0  0  0  0  0  0  0  0  0
   37.7190   27.6970   35.4620 C   0  0  0  0  0  0  0  0  0  0  0  0
   38.9860   27.1130   35.4320 C   0  0  0  0  0  0  0  0  0  0  0  0
   39.5640   26.7790   34.2240 C   0  0  0  0  0  0  0  0  0  0  0  0
   38.8730   27.0300   33.0630 C   0  0  0  0  0  0  0  0  0  0  0  0
   37.3400   27.9250   36.4320 H   0  0  0  0  0  0  0  0  0  0  0  0
   39.5370   26.9120   36.3420 H   0  0  0  0  0  0  0  0  0  0  0  0
   40.5460   26.3250   34.1850 H   0  0  0  0  0  0  0  0  0  0  0  0
   39.4940   26.6710   31.7670 C   0  0  0  0  0  0  0  0  0  0  0  0
   39.2030   25.7610   31.2580 H   0  0  0  0  0  0  0  0  0  0  0  0
   40.3680   27.4880   31.3160 O   0  0  0  0  0  0  0  0  0  0  0  0
   36.2600   28.1110   30.9530 N   0  0  0  0  0  0  0  0  0  0  0  0
   36.8800   27.8860   31.8870 C   0  0  0  0  0  0  0  0  0  0  0  0
   35.6030   29.8460   34.6440 C   0  0  0  0  0  0  0  0  0  0  0  0
   34.6950   30.3650   33.7240 C   0  0  0  0  0  0  0  0  0  0  0  0
   34.3500   31.7000   33.7510 C   0  0  0  0  0  0  0  0  0  0  0  0
   34.9370   32.4810   34.7190 N   0  0  0  0  0  0  0  0  0  0  0  0
   35.8190   31.9580   35.6060 C   0  0  0  0  0  0  0  0  0  0  0  0
   36.1350   30.6750   35.5600 N   0  0  0  0  0  0  0  0  0  0  0  0
   33.6580   32.1870   33.0780 H   0  0  0  0  0  0  0  0  0  0  0  0
   36.3220   32.4890   36.3920 H   0  0  0  0  0  0  0  0  0  0  0  0
   32.6950   29.1840   32.9590 C   0  0  0  0  0  0  0  0  0  0  0  0
   31.9220   29.1310   33.9950 O   0  0  0  0  0  0  0  0  0  0  0  0
   34.0230   29.6530   32.7270 N   0  0  0  0  0  0  0  0  0  0  0  0
   31.7360   28.7450   32.7140 H   0  0  0  0  0  0  0  0  0  0  0  0
   34.0540   29.2520   31.7850 H   0  0  0  0  0  0  0  0  0  0  0  0
  1 16  1  0  0  0  0
  2  3  1  0  0  0  0
  3  1  1  0  0  0  0
  3  4  2  0  0  0  0
  4  8  1  0  0  0  0
  5  4  1  0  0  0  0
  5  9  1  0  0  0  0
  6  5  2  0  0  0  0
  7  2  2  0  0  0  0
  7  6  1  0  0  0  0
 10  6  1  0  0  0  0
 11  7  1  0  0  0  0
 12 11  1  0  0  0  0
 13 11  2  0  0  0  0
 14 15  3  0  0  0  0
 15  2  1  0  0  0  0
 16 21  1  0  0  0  0
 17 18  1  0  0  0  0
 17 16  2  0  0  0  0
 18 19  2  0  0  0  0
 19 20  1  0  0  0  0
 20 23  1  0  0  0  0
 21 20  2  0  0  0  0
 22 18  1  0  0  0  0
 24 25  2  0  0  0  0
 26 24  1  0  0  0  0
 26 17  1  0  0  0  0
 27 24  1  0  0  0  0
 28 26  1  0  0  0  0
M  END
>  <minimizedAffinity>
-4.33817291

$$$$
