
 OpenBabel03272509073D

 34 36  0  0  0  0  0  0  0  0999 V2000
   34.9880   28.3890   49.4670 C   0  0  0  0  0  0  0  0  0  0  0  0
   34.2740   28.7690   48.4550 C   0  0  0  0  0  0  0  0  0  0  0  0
   37.3950   30.1560   51.5760 C   0  0  0  0  0  0  0  0  0  0  0  0
   38.0990   30.9250   50.6320 C   0  0  0  0  0  0  0  0  0  0  0  0
   37.7260   30.8180   49.2700 C   0  0  0  0  0  0  0  0  0  0  0  0
   36.6910   29.9640   48.9460 N   0  0  0  0  0  0  0  0  0  0  0  0
   36.0650   29.2600   49.9140 C   0  0  0  0  0  0  0  0  0  0  0  0
   36.4130   29.3550   51.2100 N   0  0  0  0  0  0  0  0  0  0  0  0
   37.7260   30.2800   52.6050 H   0  0  0  0  0  0  0  0  0  0  0  0
   38.9190   31.6100   50.8390 H   0  0  0  0  0  0  0  0  0  0  0  0
   38.3750   31.5590   48.2040 C   0  0  0  0  0  0  0  0  0  0  0  0
   38.5950   31.0370   46.9550 C   0  0  0  0  0  0  0  0  0  0  0  0
   39.2350   32.0130   46.1850 C   0  0  0  0  0  0  0  0  0  0  0  0
   39.3780   33.0880   46.9980 N   0  0  0  0  0  0  0  0  0  0  0  0
   38.8670   32.8030   48.1820 N   0  0  0  0  0  0  0  0  0  0  0  0
   38.3310   30.0400   46.5870 H   0  0  0  0  0  0  0  0  0  0  0  0
   39.5500   31.9170   45.1440 H   0  0  0  0  0  0  0  0  0  0  0  0
   39.8390   33.9560   46.6320 H   0  0  0  0  0  0  0  0  0  0  0  0
   33.1470   28.0460   47.8470 C   0  0  0  0  0  0  0  0  0  0  0  0
   32.4450   28.6890   47.3170 H   0  0  0  0  0  0  0  0  0  0  0  0
   32.5620   27.5910   48.6960 H   0  0  0  0  0  0  0  0  0  0  0  0
   33.5660   26.8950   47.0110 C   0  0  0  0  0  0  0  0  0  0  0  0
   33.7410   25.6170   47.4770 C   0  0  0  0  0  0  0  0  0  0  0  0
   34.1330   24.6010   46.6330 C   0  0  0  0  0  0  0  0  0  0  0  0
   34.3650   24.8340   45.2850 C   0  0  0  0  0  0  0  0  0  0  0  0
   34.1960   26.1060   44.8080 C   0  0  0  0  0  0  0  0  0  0  0  0
   33.8070   27.0920   45.6670 C   0  0  0  0  0  0  0  0  0  0  0  0
   33.5600   25.4330   48.5230 H   0  0  0  0  0  0  0  0  0  0  0  0
   34.2640   23.6000   47.0220 H   0  0  0  0  0  0  0  0  0  0  0  0
   34.6730   24.0470   44.6150 H   0  0  0  0  0  0  0  0  0  0  0  0
   34.3780   26.2900   43.7550 H   0  0  0  0  0  0  0  0  0  0  0  0
   33.6470   28.4210   45.0880 C   0  0  0  0  0  0  0  0  0  0  0  0
   32.7320   28.9430   44.8410 H   0  0  0  0  0  0  0  0  0  0  0  0
   34.6200   29.1880   44.7780 O   0  0  0  0  0  0  0  0  0  0  0  0
  1  7  1  0  0  0  0
  2  1  2  0  0  0  0
  3  9  1  0  0  0  0
  4 10  1  0  0  0  0
  4  3  2  0  0  0  0
  5  4  1  0  0  0  0
  6  5  2  0  0  0  0
  6  7  1  0  0  0  0
  7  8  2  0  0  0  0
  8  3  1  0  0  0  0
 11  5  1  0  0  0  0
 12 11  1  0  0  0  0
 13 12  2  0  0  0  0
 13 14  1  0  0  0  0
 14 15  1  0  0  0  0
 15 11  2  0  0  0  0
 16 12  1  0  0  0  0
 17 13  1  0  0  0  0
 18 14  1  0  0  0  0
 19  2  1  0  0  0  0
 19 21  1  0  0  0  0
 20 19  1  0  0  0  0
 22 23  1  0  0  0  0
 22 19  1  0  0  0  0
 23 28  1  0  0  0  0
 24 29  1  0  0  0  0
 24 23  2  0  0  0  0
 25 24  1  0  0  0  0
 26 25  2  0  0  0  0
 26 27  1  0  0  0  0
 27 22  2  0  0  0  0
 30 25  1  0  0  0  0
 31 26  1  0  0  0  0
 32 27  1  0  0  0  0
 33 32  1  0  0  0  0
 34 32  2  0  0  0  0
M  END
>  <minimizedAffinity>
-5.93634558

>  <minimizedRMSD>
0.254358053

$$$$
