
     RDKit          3D

 43 45  0  0  0  0  0  0  0  0999 V2000
   37.0789   30.9486   49.0283 C   0  0  0  0  0  0  0  0  0  0  0  0
   36.8094   31.8790   50.0338 C   0  0  0  0  0  0  0  0  0  0  0  0
   37.4251   33.1225   50.0623 C   0  0  0  0  0  0  0  0  0  0  0  0
   38.3393   33.4590   49.0613 C   0  0  0  0  0  0  0  0  0  0  0  0
   38.5945   32.5399   48.0831 C   0  0  0  0  0  0  0  0  0  0  0  0
   37.9599   31.3057   48.0877 C   0  0  0  0  0  0  0  0  0  0  0  0
   36.4651   29.6388   49.0171 C   0  0  1  0  0  0  0  0  0  0  0  0
   36.8613   28.9005   49.9940 O   0  0  0  0  0  0  0  0  0  0  0  0
   33.6160   30.1452   46.8199 C   0  0  0  0  0  0  0  0  0  0  0  0
   32.9552   28.9321   46.8428 C   0  0  0  0  0  0  0  0  0  0  0  0
   33.4476   27.9391   47.6684 C   0  0  0  0  0  0  0  0  0  0  0  0
   34.5680   28.1864   48.4313 N   0  0  0  0  0  0  0  0  0  0  0  0
   35.1549   29.3650   48.3625 C   0  0  0  0  0  0  0  0  0  0  0  0
   34.6860   30.3498   47.5627 N   0  0  0  0  0  0  0  0  0  0  0  0
   38.3428   30.4194   47.0131 C   0  0  0  0  0  0  0  0  0  0  0  0
   38.8246   30.8363   45.8375 C   0  0  0  0  0  0  0  0  0  0  0  0
   39.2851   30.0241   44.6883 C   0  0  0  0  0  0  0  0  0  0  0  0
   39.1792   30.9946   43.1799 S   0  0  0  0  0  0  0  0  0  0  0  0
   36.0944   31.6036   50.8073 H   0  0  0  0  0  0  0  0  0  0  0  0
   37.1584   33.7676   50.8679 H   0  0  0  0  0  0  0  0  0  0  0  0
   38.7658   34.4391   49.1624 H   0  0  0  0  0  0  0  0  0  0  0  0
   39.3235   32.9423   47.3819 H   0  0  0  0  0  0  0  0  0  0  0  0
   37.0066   29.0559   48.1759 H   0  0  0  0  0  0  0  0  0  0  0  0
   36.3530   28.1383   50.3236 H   0  0  0  0  0  0  0  0  0  0  0  0
   33.1941   30.8920   46.1604 H   0  0  0  0  0  0  0  0  0  0  0  0
   32.0811   28.6404   46.2897 H   0  0  0  0  0  0  0  0  0  0  0  0
   33.0378   26.9471   47.7907 H   0  0  0  0  0  0  0  0  0  0  0  0
   38.3549   29.3274   46.8930 H   0  0  0  0  0  0  0  0  0  0  0  0
   38.9277   31.9319   45.6929 H   0  0  0  0  0  0  0  0  0  0  0  0
   40.3470   29.7622   44.8732 H   0  0  0  0  0  0  0  0  0  0  0  0
   38.7074   29.0700   44.5976 H   0  0  0  0  0  0  0  0  0  0  0  0
   37.4288   31.3181   42.8501 C   0  0  1  0  0  0  0  0  0  0  0  0
   36.8341   32.3602   43.7535 C   0  0  2  0  0  0  0  0  0  0  0  0
   37.5922   32.9987   44.2648 H   0  0  0  0  0  0  0  0  0  0  0  0
   35.9325   33.1134   42.8320 C   0  0  1  0  0  0  0  0  0  0  0  0
   34.8783   32.7797   42.9368 H   0  0  0  0  0  0  0  0  0  0  0  0
   36.3080   32.9028   41.5333 O   0  0  0  0  0  0  0  0  0  0  0  0
   37.3185   31.9792   41.4966 C   0  0  1  0  0  0  0  0  0  0  0  0
   38.3026   32.4588   41.2211 H   0  0  0  0  0  0  0  0  0  0  0  0
   36.8435   30.3701   42.9052 H   0  0  0  0  0  0  0  0  0  0  0  0
   36.2112   31.8270   44.5111 H   0  0  0  0  0  0  0  0  0  0  0  0
   35.9175   34.2090   43.0277 H   0  0  0  0  0  0  0  0  0  0  0  0
   37.1413   31.1887   40.7432 H   0  0  0  0  0  0  0  0  0  0  0  0
  1  7  1  0
  1  2  2  0
  2  3  1  0
  4  3  2  0
  5  6  2  0
  5  4  1  0
  6  1  1  0
  7  8  1  0
  9 10  2  0
  9 14  1  0
 10 11  1  0
 11 12  2  0
 13 12  1  0
 13  7  1  0
 14 13  2  0
 15  6  1  0
 16 15  2  0
 17 16  1  0
 18 17  1  0
  2 19  1  0
  3 20  1  0
  4 21  1  0
  5 22  1  0
  7 23  1  6
  8 24  1  0
  9 25  1  0
 10 26  1  0
 11 27  1  0
 15 28  1  0
 16 29  1  0
 17 30  1  0
 17 31  1  0
 32 33  1  0
 33 34  1  1
 33 35  1  0
 35 36  1  6
 35 37  1  0
 37 38  1  0
 38 39  1  6
 38 32  1  0
 32 40  1  6
 33 41  1  0
 35 42  1  0
 38 43  1  0
 18 32  1  0
M  ISO  8  19  14  20  14  21  14  22  14  23   8  24   3  25  14  26  14
M  ISO  6  27  14  30   8  31   8  34  15  36  15  39  15
M  END
>  <DihAtoms>  (1) 
16,17,31,32

>  <DihDeg>  (1) 
179.82985329929616

$$$$
