
     RDKit          3D

 22 23  0  0  0  0  0  0  0  0999 V2000
   37.2624   30.1769   51.4287 C   0  0  0  0  0  0  0  0  0  0  0  0
   38.1157   30.7571   50.4682 C   0  0  0  0  0  0  0  0  0  0  0  0
   37.8433   30.5464   49.1116 C   0  0  0  0  0  0  0  0  0  0  0  0
   36.7638   29.7893   48.7894 N   0  0  0  0  0  0  0  0  0  0  0  0
   35.9588   29.2423   49.7191 C   0  0  0  0  0  0  0  0  0  0  0  0
   36.2138   29.4401   51.0242 N   0  0  0  0  0  0  0  0  0  0  0  0
   34.5442   28.2469   49.2928 S   0  0  0  0  0  0  0  0  0  0  0  0
   37.5082   30.3618   52.4569 H   0  0  0  0  0  0  0  0  0  0  0  0
   38.9854   31.3651   50.7023 H   0  0  0  0  0  0  0  0  0  0  0  0
   38.4513   30.9583   48.3241 H   0  0  0  0  0  0  0  0  0  0  0  0
   34.4308   28.1396   47.5142 C   0  0  2  0  0  0  0  0  0  0  0  0
   33.6094   26.9339   47.0394 C   0  0  2  0  0  0  0  0  0  0  0  0
   32.5276   27.1215   47.0583 H   0  0  0  0  0  0  0  0  0  0  0  0
   34.1541   26.9241   45.6023 C   0  0  2  0  0  0  0  0  0  0  0  0
   34.0043   27.9535   45.2322 H   0  0  0  0  0  0  0  0  0  0  0  0
   35.5195   26.8173   45.9063 O   0  0  0  0  0  0  0  0  0  0  0  0
   35.7606   27.7787   46.8697 C   0  0  1  0  0  0  0  0  0  0  0  0
   36.2166   28.6452   46.3457 H   0  0  0  0  0  0  0  0  0  0  0  0
   34.0282   29.0358   47.0176 H   0  0  0  0  0  0  0  0  0  0  0  0
   33.9339   26.0296   47.5972 H   0  0  0  0  0  0  0  0  0  0  0  0
   33.7647   26.1176   45.0037 H   0  0  0  0  0  0  0  0  0  0  0  0
   36.4160   27.3759   47.6713 H   0  0  0  0  0  0  0  0  0  0  0  0
  2  1  2  0
  3  2  1  0
  4  3  2  0
  4  5  1  0
  5  6  2  0
  6  1  1  0
  7  5  1  0
  1  8  1  0
  2  9  1  0
  3 10  1  0
 11 12  1  0
 12 13  1  6
 12 14  1  0
 14 15  1  6
 14 16  1  0
 16 17  1  0
 17 18  1  6
 17 11  1  0
 11 19  1  6
 12 20  1  0
 14 21  1  0
 17 22  1  0
  7 11  1  0
M  ISO  6   8  14   9  14  10  14  13  15  15  15  18  15
M  END
>  <DihAtoms>  (1) 
4,6,10,11

>  <DihDeg>  (1) 
-66.22157974784318

$$$$
