
 OpenBabel03272509433D

 37 39  0  0  1  0  0  0  0  0999 V2000
   37.0290   30.9200   49.0370 C   0  0  0  0  0  0  0  0  0  0  0  0
   36.7380   31.8110   50.0720 C   0  0  0  0  0  0  0  0  0  0  0  0
   37.3300   33.0640   50.1440 C   0  0  0  0  0  0  0  0  0  0  0  0
   38.2410   33.4510   49.1580 C   0  0  0  0  0  0  0  0  0  0  0  0
   38.5160   32.5700   48.1510 C   0  0  0  0  0  0  0  0  0  0  0  0
   37.9060   31.3250   48.1130 C   0  0  0  0  0  0  0  0  0  0  0  0
   36.0260   31.4960   50.8330 H   0  0  0  0  0  0  0  0  0  0  0  0
   37.0480   33.6770   50.9700 H   0  0  0  0  0  0  0  0  0  0  0  0
   38.6490   34.4350   49.2940 H   0  0  0  0  0  0  0  0  0  0  0  0
   39.2410   33.0090   47.4670 H   0  0  0  0  0  0  0  0  0  0  0  0
   36.4400   29.6000   48.9800 C   0  0  2  0  0  0  0  0  0  0  0  0
   36.9620   29.0720   48.0910 H   0  0  0  0  0  0  0  0  0  0  0  0
   33.5770   30.0730   46.7940 C   0  0  0  0  0  0  0  0  0  0  0  0
   32.8770   28.8860   46.8960 C   0  0  0  0  0  0  0  0  0  0  0  0
   33.3500   27.9260   47.7710 C   0  0  0  0  0  0  0  0  0  0  0  0
   34.4880   28.1790   48.5040 N   0  0  0  0  0  0  0  0  0  0  0  0
   35.1120   29.3320   48.3590 C   0  0  0  0  0  0  0  0  0  0  0  0
   34.6640   30.2840   47.5100 N   0  0  0  0  0  0  0  0  0  0  0  0
   33.1700   30.7940   46.0970 H   0  0  0  0  0  0  0  0  0  0  0  0
   31.9860   28.5920   46.3720 H   0  0  0  0  0  0  0  0  0  0  0  0
   32.9090   26.9570   47.9570 H   0  0  0  0  0  0  0  0  0  0  0  0
   36.8850   28.8210   49.9030 O   0  0  0  0  0  0  0  0  0  0  0  0
   36.4040   28.0320   50.2110 H   0  0  0  0  0  0  0  0  0  0  0  0
   38.3090   30.4810   47.0100 C   0  0  0  0  0  3  0  0  0  0  0  0
   38.9830   30.9210   45.9420 C   0  0  0  0  0  3  0  0  0  0  0  0
   39.4800   30.1470   44.7820 C   0  0  0  0  0  0  0  0  0  0  0  0
   40.5520   29.9290   44.9660 H   0  0  0  0  0  0  0  0  0  0  0  0
   38.9450   29.1710   44.6760 H   0  0  0  0  0  0  0  0  0  0  0  0
   39.3350   31.1360   43.2880 S   0  0  0  0  0  0  0  0  0  0  0  0
   37.5790   31.4800   43.0190 C   0  0  1  0  0  3  0  0  0  0  0  0
   37.2870   32.0770   41.6720 C   0  0  0  0  0  3  0  0  0  0  0  0
   38.1070   31.9340   40.9300 H   0  0  0  0  0  0  0  0  0  0  0  0
   36.0050   31.4130   41.2920 C   0  0  0  0  0  3  0  0  0  0  0  0
   35.1340   32.0710   41.4960 H   0  0  0  0  0  0  0  0  0  0  0  0
   35.8370   30.2670   42.0210 O   0  0  0  0  0  0  0  0  0  0  0  0
   36.8460   30.1620   42.9410 C   0  0  0  0  0  3  0  0  0  0  0  0
   37.5660   29.3370   42.6680 H   0  0  0  0  0  0  0  0  0  0  0  0
  1  2  1  0  0  0  0
  2  3  2  0  0  0  0
  2  7  1  0  0  0  0
  3  8  1  0  0  0  0
  4  9  1  0  0  0  0
  4  3  1  0  0  0  0
  5  4  2  0  0  0  0
  6  5  1  0  0  0  0
  6  1  2  0  0  0  0
 10  5  1  0  0  0  0
 11 12  1  6  0  0  0
 11  1  1  0  0  0  0
 11 22  1  0  0  0  0
 13 14  2  0  0  0  0
 13 18  1  0  0  0  0
 14 15  1  0  0  0  0
 15 21  1  0  0  0  0
 15 16  2  0  0  0  0
 17 16  1  0  0  0  0
 17 11  1  0  0  0  0
 18 17  2  0  0  0  0
 19 13  1  0  0  0  0
 20 14  1  0  0  0  0
 22 23  1  0  0  0  0
 24  6  1  0  0  0  0
 25 24  2  0  0  0  0
 26 27  1  0  0  0  0
 26 25  1  0  0  0  0
 28 26  1  0  0  0  0
 29 26  1  0  0  0  0
 30 29  1  6  0  0  0
 31 30  1  0  0  0  0
 32 31  1  0  0  0  0
 33 34  1  0  0  0  0
 33 31  1  0  0  0  0
 33 35  1  0  0  0  0
 35 36  1  0  0  0  0
 36 30  1  0  0  0  0
 37 36  1  0  0  0  0
M  END
>  <minimizedAffinity>
-5.27249289

>  <minimizedRMSD>
0.186961502

$$$$
