
     RDKit          3D

 44 47  0  0  0  0  0  0  0  0999 V2000
   38.2675   32.2890   47.3901 C   0  0  0  0  0  0  0  0  0  0  0  0
   37.9083   32.7286   48.6494 C   0  0  0  0  0  0  0  0  0  0  0  0
   38.6741   33.6848   49.3057 C   0  0  0  0  0  0  0  0  0  0  0  0
   39.8051   34.1954   48.6840 C   0  0  0  0  0  0  0  0  0  0  0  0
   40.1586   33.7506   47.4230 C   0  0  0  0  0  0  0  0  0  0  0  0
   39.3741   32.8032   46.8074 C   0  0  0  0  0  0  0  0  0  0  0  0
   39.7651   32.3365   45.4574 C   0  0  0  0  0  0  0  0  0  0  0  0
   40.6218   31.3260   45.0941 C   0  0  0  0  0  0  0  0  0  0  0  0
   40.6408   31.2971   43.7017 C   0  0  0  0  0  0  0  0  0  0  0  0
   39.7885   32.2987   43.3018 C   0  0  0  0  0  0  0  0  0  0  0  0
   39.2806   32.9017   44.3625 O   0  0  0  0  0  0  0  0  0  0  0  0
   36.7559   30.5166   46.2962 N   0  0  0  0  0  0  0  0  0  0  0  0
   37.4259   31.3091   46.7939 C   0  0  0  0  0  0  0  0  0  0  0  0
   36.8078   32.3147   49.4006 O   0  0  0  0  0  0  0  0  0  0  0  0
   36.7819   31.2042   50.1718 C   0  0  0  0  0  0  0  0  0  0  0  0
   35.6436   30.4366   49.9452 C   0  0  0  0  0  0  0  0  0  0  0  0
   35.4329   29.2539   50.6425 C   0  0  0  0  0  0  0  0  0  0  0  0
   36.3858   28.8842   51.5511 N   0  0  0  0  0  0  0  0  0  0  0  0
   37.4887   29.6514   51.7539 C   0  0  0  0  0  0  0  0  0  0  0  0
   37.6697   30.7813   51.0741 N   0  0  0  0  0  0  0  0  0  0  0  0
   34.1610   29.7203   48.1387 C   0  0  0  0  0  0  0  0  0  0  0  0
   34.5517   28.5160   47.8888 O   0  0  0  0  0  0  0  0  0  0  0  0
   34.6136   30.7141   49.0479 N   0  0  0  0  0  0  0  0  0  0  0  0
   38.4688   34.0767   50.2738 H   0  0  0  0  0  0  0  0  0  0  0  0
   40.4285   34.9429   49.1637 H   0  0  0  0  0  0  0  0  0  0  0  0
   41.0234   34.1176   46.9063 H   0  0  0  0  0  0  0  0  0  0  0  0
   41.1546   30.7021   45.8099 H   0  0  0  0  0  0  0  0  0  0  0  0
   41.2323   30.5979   43.1212 H   0  0  0  0  0  0  0  0  0  0  0  0
   39.5784   32.5412   42.2621 H   0  0  0  0  0  0  0  0  0  0  0  0
   34.6008   28.6032   50.5406 H   0  0  0  0  0  0  0  0  0  0  0  0
   38.2453   29.3664   52.4693 H   0  0  0  0  0  0  0  0  0  0  0  0
   34.1253   31.6337   48.9860 H   0  0  0  0  0  0  0  0  0  0  0  0
   32.9933   30.0151   47.2273 C   0  0  1  0  0  0  0  0  0  0  0  0
   32.4487   31.3894   47.4225 C   0  0  2  0  0  0  0  0  0  0  0  0
   33.3264   32.0809   47.5451 H   0  0  0  0  0  0  0  0  0  0  0  0
   31.8002   31.6270   46.0781 C   0  0  1  0  0  0  0  0  0  0  0  0
   30.7743   31.1608   46.1423 H   0  0  0  0  0  0  0  0  0  0  0  0
   32.5351   30.9212   45.1395 O   0  0  0  0  0  0  0  0  0  0  0  0
   33.4164   30.0809   45.7831 C   0  0  2  0  0  0  0  0  0  0  0  0
   33.4047   29.0789   45.2907 H   0  0  0  0  0  0  0  0  0  0  0  0
   32.1838   29.2953   47.3439 H   0  0  0  0  0  0  0  0  0  0  0  0
   31.7518   31.4867   48.2603 H   0  0  0  0  0  0  0  0  0  0  0  0
   31.6542   32.6868   45.8428 H   0  0  0  0  0  0  0  0  0  0  0  0
   34.4454   30.5282   45.6681 H   0  0  0  0  0  0  0  0  0  0  0  0
  1  2  2  0
  2  3  1  0
  2 14  1  0
  4  3  2  0
  5  4  1  0
  6  1  1  0
  6  5  2  0
  7  6  1  0
  8  7  2  0
  9  8  1  0
 10  9  2  0
 10 11  1  0
 11  7  1  0
 12 13  3  0
 13  1  1  0
 14 15  1  0
 15 20  2  0
 16 15  1  0
 16 17  2  0
 17 18  1  0
 18 19  2  0
 20 19  1  0
 21 23  1  0
 22 21  2  0
 23 16  1  0
  3 24  1  0
  4 25  1  0
  5 26  1  0
  8 27  1  0
  9 28  1  0
 10 29  1  0
 17 30  1  0
 19 31  1  0
 23 32  1  0
 33 34  1  0
 34 35  1  1
 34 36  1  0
 36 37  1  1
 36 38  1  0
 38 39  1  0
 39 40  1  6
 39 33  1  0
 33 41  1  6
 34 42  1  0
 36 43  1  0
 39 44  1  0
 21 33  1  0
M  ISO  8  24  14  25  14  26  14  27  14  28  14  29  14  30  14  31  14
M  ISO  3  35  15  37  15  40  15
M  END
>  <DihAtoms>  (1) 
22,20,32,33

>  <DihDeg>  (1) 
-179.99267852475748

$$$$
