
 OpenBabel03272506413D

 18 19  0  0  1  0  0  0  0  0999 V2000
   37.2370   30.1450   51.4920 C   0  0  0  0  0  0  0  0  0  0  0  0
   38.1540   30.6970   50.5720 C   0  0  0  0  0  0  0  0  0  0  0  0
   37.9430   30.4860   49.2050 C   0  0  0  0  0  0  0  0  0  0  0  0
   36.8620   29.7570   48.8320 N   0  0  0  0  0  0  0  0  0  0  0  0
   35.9970   29.2360   49.7220 C   0  0  0  0  0  0  0  0  0  0  0  0
   36.1910   29.4340   51.0380 N   0  0  0  0  0  0  0  0  0  0  0  0
   37.4370   30.3290   52.5300 H   0  0  0  0  0  0  0  0  0  0  0  0
   39.0260   31.2820   50.8470 H   0  0  0  0  0  0  0  0  0  0  0  0
   38.6010   30.8770   48.4470 H   0  0  0  0  0  0  0  0  0  0  0  0
   34.5780   28.2780   49.2300 S   0  0  0  0  0  0  0  0  0  0  0  0
   34.1500   28.7050   47.5490 C   0  0  2  0  0  3  0  0  0  0  0  0
   33.9190   30.2090   47.3560 C   0  0  0  0  0  3  0  0  0  0  0  0
   34.8540   30.7690   47.2190 H   0  0  0  0  0  0  0  0  0  0  0  0
   33.1400   30.0840   46.0370 C   0  0  0  0  0  3  0  0  0  0  0  0
   33.7840   29.4720   45.3810 H   0  0  0  0  0  0  0  0  0  0  0  0
   32.1220   29.2300   46.4870 O   0  0  0  0  0  0  0  0  0  0  0  0
   32.7660   28.2090   47.1610 C   0  0  0  0  0  3  0  0  0  0  0  0
   32.8150   27.3480   46.4600 H   0  0  0  0  0  0  0  0  0  0  0  0
  1  7  1  0  0  0  0
  2  8  1  0  0  0  0
  2  1  2  0  0  0  0
  3  2  1  0  0  0  0
  4  3  2  0  0  0  0
  4  5  1  0  0  0  0
  5  6  2  0  0  0  0
  6  1  1  0  0  0  0
  9  3  1  0  0  0  0
 10  5  1  0  0  0  0
 11 10  1  1  0  0  0
 12 11  1  0  0  0  0
 13 12  1  0  0  0  0
 14 16  1  0  0  0  0
 14 12  1  0  0  0  0
 15 14  1  0  0  0  0
 16 17  1  0  0  0  0
 17 11  1  0  0  0  0
 18 17  1  0  0  0  0
M  END
>  <minimizedAffinity>
-3.85556602

>  <minimizedRMSD>
0.839076459

$$$$
