REMARK  Name = 
REMARK  2 active torsions:
REMARK  status: ('A' for Active; 'I' for Inactive)
REMARK    1  A    between atoms: C_5  and  S_7
REMARK    2  A    between atoms: S_7  and  C_11
REMARK                            x       y       z     vdW  Elec       q    Type
REMARK                         _______ _______ _______ _____ _____    ______ ____
ROOT
ATOM      1  C   UNL     1      37.262  30.177  51.429  0.00  0.00    +0.000 A 
ATOM      2  C   UNL     1      38.116  30.757  50.468  0.00  0.00    +0.000 A 
ATOM      3  C   UNL     1      37.843  30.546  49.112  0.00  0.00    +0.000 A 
ATOM      4  N   UNL     1      36.764  29.789  48.789  0.00  0.00    +0.000 NA
ATOM      5  C   UNL     1      35.959  29.242  49.719  0.00  0.00    +0.000 A 
ATOM      6  N   UNL     1      36.214  29.440  51.024  0.00  0.00    +0.000 NA
ATOM      7  H   UNL     1      37.508  30.362  52.457  0.00  0.00    +0.000 HD
ATOM      8  H   UNL     1      38.985  31.365  50.702  0.00  0.00    +0.000 HD
ATOM      9  H   UNL     1      38.451  30.958  48.324  0.00  0.00    +0.000 HD
ENDROOT
BRANCH   5  10
ATOM     10  S   UNL     1      34.544  28.247  49.293  0.00  0.00    +0.000 S 
BRANCH  10  11
ATOM     11  C   UNL     1      34.431  28.140  47.514  0.00  0.00    +0.000 C 
ATOM     12  C   UNL     1      34.846  29.438  46.809  0.00  0.00    +0.000 C 
ATOM     13  H   UNL     1      35.934  29.531  46.696  0.00  0.00    +0.000 HD
ATOM     14  C   UNL     1      34.165  29.118  45.469  0.00  0.00    +0.000 C 
ATOM     15  H   UNL     1      34.542  28.119  45.188  0.00  0.00    +0.000 HD
ATOM     16  O   UNL     1      32.862  28.919  45.949  0.00  0.00    +0.000 OA
ATOM     17  C   UNL     1      32.991  28.066  47.029  0.00  0.00    +0.000 C 
ATOM     18  H   UNL     1      32.727  27.051  46.664  0.00  0.00    +0.000 HD
ENDBRANCH  10  11
ENDBRANCH   5  10
TORSDOF 2
