
     RDKit          3D

 29 30  0  0  0  0  0  0  0  0999 V2000
   37.3645   30.1845   51.3894 C   0  0  0  0  0  0  0  0  0  0  0  0
   38.0191   30.7127   50.2658 C   0  0  0  0  0  0  0  0  0  0  0  0
   37.5219   30.3874   49.0252 C   0  0  0  0  0  0  0  0  0  0  0  0
   36.4320   29.5795   48.9173 N   0  0  0  0  0  0  0  0  0  0  0  0
   35.8290   29.0903   50.0268 C   0  0  0  0  0  0  0  0  0  0  0  0
   36.2845   29.3850   51.2562 N   0  0  0  0  0  0  0  0  0  0  0  0
   38.1216   30.8782   47.8206 C   0  0  0  0  0  0  0  0  0  0  0  0
   38.7808   32.0068   47.7947 C   0  0  0  0  0  0  0  0  0  0  0  0
   39.4168   32.5408   46.5510 C   0  0  0  0  0  0  0  0  0  0  0  0
   38.3289   32.2447   45.1250 S   0  0  0  0  0  0  0  0  0  0  0  0
   37.7656   30.4477   52.3804 H   0  0  0  0  0  0  0  0  0  0  0  0
   38.8825   31.3516   50.3852 H   0  0  0  0  0  0  0  0  0  0  0  0
   34.9665   28.4546   49.8569 H   0  0  0  0  0  0  0  0  0  0  0  0
   38.0530   30.3363   46.8880 H   0  0  0  0  0  0  0  0  0  0  0  0
   38.8894   32.6044   48.6979 H   0  0  0  0  0  0  0  0  0  0  0  0
   39.5550   33.6387   46.6120 H   0  0  0  0  0  0  0  0  0  0  0  0
   40.4087   32.0531   46.3810 H   0  0  0  0  0  0  0  0  0  0  0  0
   39.1356   32.9031   43.6537 C   0  0  1  0  0  0  0  0  0  0  0  0
   39.8949   31.8195   42.8867 C   0  0  2  0  0  0  0  0  0  0  0  0
   39.2775   30.8988   42.9028 H   0  0  0  0  0  0  0  0  0  0  0  0
   39.8121   32.3698   41.4775 C   0  0  1  0  0  0  0  0  0  0  0  0
   40.5426   33.2043   41.3793 H   0  0  0  0  0  0  0  0  0  0  0  0
   38.5000   32.8100   41.4182 O   0  0  0  0  0  0  0  0  0  0  0  0
   38.1676   33.3846   42.6179 C   0  0  1  0  0  0  0  0  0  0  0  0
   37.1660   32.9916   42.9227 H   0  0  0  0  0  0  0  0  0  0  0  0
   39.8975   33.6950   43.9097 H   0  0  0  0  0  0  0  0  0  0  0  0
   40.9216   31.6757   43.2427 H   0  0  0  0  0  0  0  0  0  0  0  0
   39.9707   31.5886   40.7084 H   0  0  0  0  0  0  0  0  0  0  0  0
   38.1083   34.4865   42.6079 H   0  0  0  0  0  0  0  0  0  0  0  0
  2  1  2  0
  3  2  1  0
  4  3  2  0
  4  5  1  0
  5  6  2  0
  6  1  1  0
  7  3  1  0
  8  7  2  0
  9  8  1  0
 10  9  1  0
  1 11  1  0
  2 12  1  0
  5 13  1  0
  7 14  1  0
  8 15  1  0
  9 16  1  0
  9 17  1  0
 18 19  1  0
 19 20  1  6
 19 21  1  0
 21 22  1  1
 21 23  1  0
 23 24  1  0
 24 25  1  1
 24 18  1  0
 18 26  1  1
 19 27  1  0
 21 28  1  0
 24 29  1  0
 10 18  1  0
M  ISO  8  11  14  12  14  13  14  16   8  17   8  20  15  22  15  25  15
M  END
>  <DihAtoms>  (1) 
8,9,17,18

>  <DihDeg>  (1) 
66.19166167111882

$$$$
