
 OpenBabel03272507413D

 40 43  0  0  1  0  0  0  0  0999 V2000
   36.7370   32.2080   49.0290 O   0  0  0  0  0  0  0  0  0  0  0  0
   38.2440   32.1650   47.0540 C   0  0  0  0  0  0  0  0  0  0  0  0
   37.8690   32.5970   48.3110 C   0  0  0  0  0  0  0  0  0  0  0  0
   38.6490   33.5170   49.0020 C   0  0  0  0  0  0  0  0  0  0  0  0
   39.8110   33.9990   48.4160 C   0  0  0  0  0  0  0  0  0  0  0  0
   40.1820   33.5630   47.1570 C   0  0  0  0  0  0  0  0  0  0  0  0
   39.3810   32.6510   46.5070 C   0  0  0  0  0  0  0  0  0  0  0  0
   38.4330   33.9000   49.9710 H   0  0  0  0  0  0  0  0  0  0  0  0
   40.4460   34.7180   48.9230 H   0  0  0  0  0  0  0  0  0  0  0  0
   41.0700   33.9090   46.6670 H   0  0  0  0  0  0  0  0  0  0  0  0
   39.7900   32.1930   45.1590 C   0  0  0  0  0  0  0  0  0  0  0  0
   40.6440   31.1780   44.8010 C   0  0  0  0  0  0  0  0  0  0  0  0
   40.6850   31.1610   43.4090 C   0  0  0  0  0  0  0  0  0  0  0  0
   39.8480   32.1740   43.0040 C   0  0  0  0  0  0  0  0  0  0  0  0
   39.3290   32.7720   44.0610 O   0  0  0  0  0  0  0  0  0  0  0  0
   41.1600   30.5430   45.5200 H   0  0  0  0  0  0  0  0  0  0  0  0
   41.2800   30.4610   42.8320 H   0  0  0  0  0  0  0  0  0  0  0  0
   39.6570   32.4270   41.9630 H   0  0  0  0  0  0  0  0  0  0  0  0
   36.7030   30.4620   45.8950 N   0  0  0  0  0  0  0  0  0  0  0  0
   37.3860   31.2230   46.4220 C   0  0  0  0  0  0  0  0  0  0  0  0
   36.7120   31.2020   49.9320 C   0  0  0  0  0  0  0  0  0  0  0  0
   35.7420   30.2520   49.6290 C   0  0  0  0  0  0  0  0  0  0  0  0
   35.5590   29.1390   50.4390 C   0  0  0  0  0  0  0  0  0  0  0  0
   36.3690   29.0220   51.5360 N   0  0  0  0  0  0  0  0  0  0  0  0
   37.3090   29.9630   51.8090 C   0  0  0  0  0  0  0  0  0  0  0  0
   37.4670   31.0220   51.0180 N   0  0  0  0  0  0  0  0  0  0  0  0
   34.8490   28.3630   50.2940 H   0  0  0  0  0  0  0  0  0  0  0  0
   37.9520   29.8780   52.6720 H   0  0  0  0  0  0  0  0  0  0  0  0
   34.3880   29.0520   47.9860 C   0  0  0  0  0  0  0  0  0  0  0  0
   34.6370   27.8120   48.2390 O   0  0  0  0  0  0  0  0  0  0  0  0
   34.8660   30.2680   48.5450 N   0  0  0  0  0  0  0  0  0  0  0  0
   34.5170   31.1390   48.0890 H   0  0  0  0  0  0  0  0  0  0  0  0
   33.3810   29.0900   46.8600 C   0  0  1  0  0  3  0  0  0  0  0  0
   32.0510   28.5510   47.2650 C   0  0  0  0  0  3  0  0  0  0  0  0
   31.8360   28.9360   48.2990 H   0  0  0  0  0  0  0  0  0  0  0  0
   31.1520   29.2460   46.2690 C   0  0  0  0  0  3  0  0  0  0  0  0
   31.1760   28.6130   45.3350 H   0  0  0  0  0  0  0  0  0  0  0  0
   31.7360   30.4690   45.9750 O   0  0  0  0  0  0  0  0  0  0  0  0
   33.0120   30.5030   46.4910 C   0  0  0  0  0  3  0  0  0  0  0  0
   33.7090   30.9390   45.7340 H   0  0  0  0  0  0  0  0  0  0  0  0
  1 21  1  0  0  0  0
  2  3  1  0  0  0  0
  3  4  2  0  0  0  0
  3  1  1  0  0  0  0
  4  8  1  0  0  0  0
  5  9  1  0  0  0  0
  5  4  1  0  0  0  0
  6  5  2  0  0  0  0
  7  2  2  0  0  0  0
  7  6  1  0  0  0  0
 10  6  1  0  0  0  0
 11  7  1  0  0  0  0
 12 11  2  0  0  0  0
 12 16  1  0  0  0  0
 13 12  1  0  0  0  0
 14 13  2  0  0  0  0
 14 15  1  0  0  0  0
 15 11  1  0  0  0  0
 17 13  1  0  0  0  0
 18 14  1  0  0  0  0
 19 20  3  0  0  0  0
 20  2  1  0  0  0  0
 21 26  1  0  0  0  0
 22 21  2  0  0  0  0
 22 23  1  0  0  0  0
 23 24  2  0  0  0  0
 24 25  1  0  0  0  0
 25 28  1  0  0  0  0
 26 25  2  0  0  0  0
 27 23  1  0  0  0  0
 29 30  2  0  0  0  0
 29 31  1  0  0  0  0
 31 22  1  0  0  0  0
 32 31  1  0  0  0  0
 33 34  1  0  0  0  0
 33 29  1  1  0  0  0
 34 35  1  0  0  0  0
 36 34  1  0  0  0  0
 37 36  1  0  0  0  0
 38 36  1  0  0  0  0
 38 39  1  0  0  0  0
 39 33  1  0  0  0  0
 40 39  1  0  0  0  0
M  END
>  <minimizedAffinity>
-5.84862137

>  <minimizedRMSD>
0.636397779

$$$$
