
 OpenBabel03272509433D

 37 39  0  0  1  0  0  0  0  0999 V2000
   37.0230   30.9210   49.0420 C   0  0  0  0  0  0  0  0  0  0  0  0
   36.7260   31.8060   50.0800 C   0  0  0  0  0  0  0  0  0  0  0  0
   37.3150   33.0610   50.1600 C   0  0  0  0  0  0  0  0  0  0  0  0
   38.2300   33.4530   49.1810 C   0  0  0  0  0  0  0  0  0  0  0  0
   38.5110   32.5780   48.1710 C   0  0  0  0  0  0  0  0  0  0  0  0
   37.9040   31.3320   48.1240 C   0  0  0  0  0  0  0  0  0  0  0  0
   36.0110   31.4870   50.8360 H   0  0  0  0  0  0  0  0  0  0  0  0
   37.0280   33.6690   50.9880 H   0  0  0  0  0  0  0  0  0  0  0  0
   38.6350   34.4380   49.3220 H   0  0  0  0  0  0  0  0  0  0  0  0
   39.2380   33.0210   47.4920 H   0  0  0  0  0  0  0  0  0  0  0  0
   36.4380   29.5990   48.9760 C   0  0  2  0  0  0  0  0  0  0  0  0
   36.9630   29.0780   48.0860 H   0  0  0  0  0  0  0  0  0  0  0  0
   33.5770   30.0820   46.7900 C   0  0  0  0  0  0  0  0  0  0  0  0
   32.8820   28.8910   46.8780 C   0  0  0  0  0  0  0  0  0  0  0  0
   33.3570   27.9250   47.7440 C   0  0  0  0  0  0  0  0  0  0  0  0
   34.4930   28.1750   48.4820 N   0  0  0  0  0  0  0  0  0  0  0  0
   35.1120   29.3320   48.3500 C   0  0  0  0  0  0  0  0  0  0  0  0
   34.6610   30.2920   47.5100 N   0  0  0  0  0  0  0  0  0  0  0  0
   33.1680   30.8090   46.1000 H   0  0  0  0  0  0  0  0  0  0  0  0
   31.9930   28.5990   46.3490 H   0  0  0  0  0  0  0  0  0  0  0  0
   32.9210   26.9520   47.9190 H   0  0  0  0  0  0  0  0  0  0  0  0
   36.8820   28.8170   49.8960 O   0  0  0  0  0  0  0  0  0  0  0  0
   36.4020   28.0250   50.1990 H   0  0  0  0  0  0  0  0  0  0  0  0
   38.3140   30.4940   47.0190 C   0  0  0  0  0  3  0  0  0  0  0  0
   38.9970   30.9390   45.9590 C   0  0  0  0  0  3  0  0  0  0  0  0
   39.5020   30.1710   44.7980 C   0  0  0  0  0  0  0  0  0  0  0  0
   40.5880   30.0070   44.9580 H   0  0  0  0  0  0  0  0  0  0  0  0
   39.0120   29.1680   44.7210 H   0  0  0  0  0  0  0  0  0  0  0  0
   39.2730   31.1270   43.2950 S   0  0  0  0  0  0  0  0  0  0  0  0
   37.7340   30.5780   42.5170 C   0  0  1  0  0  3  0  0  0  0  0  0
   37.8710   30.3090   41.0460 C   0  0  0  0  0  3  0  0  0  0  0  0
   38.9260   30.1770   40.7080 H   0  0  0  0  0  0  0  0  0  0  0  0
   37.0190   29.0980   40.8550 C   0  0  0  0  0  3  0  0  0  0  0  0
   36.0170   29.3680   40.4580 H   0  0  0  0  0  0  0  0  0  0  0  0
   36.8350   28.4610   42.0520 O   0  0  0  0  0  0  0  0  0  0  0  0
   37.3980   29.2070   43.0540 C   0  0  0  0  0  3  0  0  0  0  0  0
   38.3300   28.7120   43.4580 H   0  0  0  0  0  0  0  0  0  0  0  0
  1  2  1  0  0  0  0
  2  3  2  0  0  0  0
  2  7  1  0  0  0  0
  3  8  1  0  0  0  0
  4  9  1  0  0  0  0
  4  3  1  0  0  0  0
  5  4  2  0  0  0  0
  6  5  1  0  0  0  0
  6  1  2  0  0  0  0
 10  5  1  0  0  0  0
 11 12  1  6  0  0  0
 11  1  1  0  0  0  0
 11 22  1  0  0  0  0
 13 14  2  0  0  0  0
 13 18  1  0  0  0  0
 14 15  1  0  0  0  0
 15 21  1  0  0  0  0
 15 16  2  0  0  0  0
 17 16  1  0  0  0  0
 17 11  1  0  0  0  0
 18 17  2  0  0  0  0
 19 13  1  0  0  0  0
 20 14  1  0  0  0  0
 22 23  1  0  0  0  0
 24  6  1  0  0  0  0
 25 24  2  0  0  0  0
 26 27  1  0  0  0  0
 26 25  1  0  0  0  0
 28 26  1  0  0  0  0
 29 26  1  0  0  0  0
 30 36  1  0  0  0  0
 30 29  1  1  0  0  0
 31 30  1  0  0  0  0
 32 31  1  0  0  0  0
 33 31  1  0  0  0  0
 33 35  1  0  0  0  0
 34 33  1  0  0  0  0
 35 36  1  0  0  0  0
 36 37  1  0  0  0  0
M  END
>  <minimizedAffinity>
-5.28505754

>  <minimizedRMSD>
0.820883453

$$$$
