REMARK  Name = 
REMARK  3 active torsions:
REMARK  status: ('A' for Active; 'I' for Inactive)
REMARK    1  A    between atoms: C_2  and  C_12
REMARK    2  A    between atoms: C_14  and  C_16
REMARK    3  A    between atoms: C_16  and  C_25
REMARK                            x       y       z     vdW  Elec       q    Type
REMARK                         _______ _______ _______ _____ _____    ______ ____
ROOT
ATOM      1  C   UNL     1      37.373  30.204  51.358  0.00  0.00    +0.000 A 
ATOM      2  C   UNL     1      37.924  30.819  50.235  0.00  0.00    +0.000 A 
ATOM      3  C   UNL     1      37.298  30.633  48.994  0.00  0.00    +0.000 A 
ATOM      4  N   UNL     1      36.169  29.852  48.937  0.00  0.00    +0.000 NA
ATOM      5  C   UNL     1      35.675  29.279  50.050  0.00  0.00    +0.000 A 
ATOM      6  N   UNL     1      36.268  29.452  51.241  0.00  0.00    +0.000 NA
ATOM      7  H   UNL     1      37.826  30.324  52.330  0.00  0.00    +0.000 HD
ATOM      8  H   UNL     1      38.797  31.422  50.285  0.00  0.00    +0.000 HD
ENDROOT
BRANCH   3  10
ATOM      9  C   UNL     1      37.126  30.840  46.592  0.00  0.00    +0.000 A 
ATOM     10  C   UNL     1      37.777  31.223  47.759  0.00  0.00    +0.000 A 
ATOM     11  C   UNL     1      38.821  32.122  47.703  0.00  0.00    +0.000 A 
ATOM     12  C   UNL     1      39.192  32.621  46.473  0.00  0.00    +0.000 A 
ATOM     13  N   UNL     1      40.176  33.506  46.169  0.00  0.00    +0.000 N 
ATOM     14  C   UNL     1      40.153  33.683  44.841  0.00  0.00    +0.000 A 
ATOM     15  N   UNL     1      39.188  32.941  44.290  0.00  0.00    +0.000 NA
ATOM     16  C   UNL     1      38.569  32.265  45.284  0.00  0.00    +0.000 A 
ATOM     17  C   UNL     1      37.514  31.355  45.349  0.00  0.00    +0.000 A 
ATOM     18  H   UNL     1      36.295  30.137  46.555  0.00  0.00    +0.000 HD
ATOM     19  H   UNL     1      39.324  32.420  48.589  0.00  0.00    +0.000 HD
ATOM     20  H   UNL     1      40.827  33.959  46.863  0.00  0.00    +0.000 HD
ATOM     21  H   UNL     1      40.827  34.338  44.304  0.00  0.00    +0.000 HD
ATOM     22  H   UNL     1      37.016  31.065  44.437  0.00  0.00    +0.000 HD
ENDBRANCH   3  10
BRANCH   5  23
ATOM     23  C   UNL     1      34.474  28.465  49.914  0.00  0.00    +0.000 C 
ATOM     24  O   UNL     1      34.328  27.656  48.972  0.00  0.00    +0.000 OA
BRANCH  23  25
ATOM     25  C   UNL     1      33.468  28.696  50.990  0.00  0.00    +0.000 C 
ATOM     26  C   UNL     1      33.273  30.185  51.258  0.00  0.00    +0.000 C 
ATOM     27  H   UNL     1      33.053  30.755  50.338  0.00  0.00    +0.000 HD
ATOM     28  C   UNL     1      31.919  30.085  51.975  0.00  0.00    +0.000 C 
ATOM     29  H   UNL     1      32.089  29.699  52.998  0.00  0.00    +0.000 HD
ATOM     30  O   UNL     1      31.197  29.138  51.267  0.00  0.00    +0.000 OA
ATOM     31  C   UNL     1      32.072  28.349  50.557  0.00  0.00    +0.000 C 
ATOM     32  H   UNL     1      31.904  27.275  50.694  0.00  0.00    +0.000 HD
ENDBRANCH  23  25
ENDBRANCH   5  23
TORSDOF 3
