
 OpenBabel03272503423D

 40 43  0  0  1  0  0  0  0  0999 V2000
   38.3630   31.1720   45.8790 C   0  0  0  0  0  0  0  0  0  0  0  0
   39.7050   31.0210   46.0950 C   0  0  0  0  0  0  0  0  0  0  0  0
   40.3000   31.4500   44.8970 C   0  0  0  0  0  0  0  0  0  0  0  0
   39.3400   31.8260   44.0430 N   0  0  0  0  0  0  0  0  0  0  0  0
   38.1610   31.6570   44.6390 N   0  0  0  0  0  0  0  0  0  0  0  0
   40.2360   30.6600   46.9680 H   0  0  0  0  0  0  0  0  0  0  0  0
   41.3760   31.4420   44.7740 H   0  0  0  0  0  0  0  0  0  0  0  0
   39.6610   31.1750   41.7160 C   0  0  2  0  0  0  0  0  0  0  0  0
   39.6240   32.3180   42.7190 C   0  0  1  0  0  0  0  0  0  0  0  0
   38.4650   33.0930   42.1260 C   0  0  0  0  0  0  0  0  0  0  0  0
   38.5480   32.9790   40.7590 O   0  0  0  0  0  0  0  0  0  0  0  0
   39.4350   32.0000   40.4310 C   0  0  0  0  0  0  0  0  0  0  0  0
   40.6050   30.6550   41.6450 H   0  0  0  0  0  0  0  0  0  0  0  0
   40.5180   32.9330   42.7010 H   0  0  0  0  0  0  0  0  0  0  0  0
   37.5140   32.5800   42.4190 H   0  0  0  0  0  0  0  0  0  0  0  0
   38.4810   34.1460   42.4240 H   0  0  0  0  0  0  0  0  0  0  0  0
   39.0530   31.2810   39.6690 H   0  0  0  0  0  0  0  0  0  0  0  0
   40.4160   32.4230   40.1090 H   0  0  0  0  0  0  0  0  0  0  0  0
   38.5530   30.3910   41.9360 O   0  0  0  0  0  0  0  0  0  0  0  0
   38.7470   29.0560   41.9730 C   0  0  1  0  0  3  0  0  0  0  0  0
   38.6180   28.3160   40.6620 C   0  0  0  0  0  3  0  0  0  0  0  0
   39.2460   28.7520   39.8720 H   0  0  0  0  0  0  0  0  0  0  0  0
   39.2400   26.9970   41.0890 C   0  0  0  0  0  3  0  0  0  0  0  0
   38.4150   26.4290   41.6000 H   0  0  0  0  0  0  0  0  0  0  0  0
   40.2000   27.2680   42.0290 O   0  0  0  0  0  0  0  0  0  0  0  0
   40.1000   28.5880   42.4090 C   0  0  0  0  0  3  0  0  0  0  0  0
   40.9380   29.1230   41.9480 H   0  0  0  0  0  0  0  0  0  0  0  0
   36.4840   30.6290   49.0800 C   0  0  0  0  0  0  0  0  0  0  0  0
   37.4990   30.9390   48.2080 C   0  0  0  0  0  0  0  0  0  0  0  0
   37.3250   30.8560   46.8430 C   0  0  0  0  0  0  0  0  0  0  0  0
   36.1140   30.4580   46.4080 N   0  0  0  0  0  0  0  0  0  0  0  0
   35.1070   30.1510   47.2790 C   0  0  0  0  0  0  0  0  0  0  0  0
   35.2760   30.2300   48.5830 N   0  0  0  0  0  0  0  0  0  0  0  0
   38.5020   31.2680   48.5210 H   0  0  0  0  0  0  0  0  0  0  0  0
   34.1460   29.8340   46.8710 H   0  0  0  0  0  0  0  0  0  0  0  0
   36.8280   30.7650   50.4140 O   0  0  0  0  0  0  0  0  0  0  0  0
   36.8900   29.6880   51.3230 C   0  0  0  0  0  0  0  0  0  0  0  0
   35.6110   29.2430   51.6460 F   0  0  0  0  0  0  0  0  0  0  0  0
   37.5710   30.0930   52.4430 F   0  0  0  0  0  0  0  0  0  0  0  0
   37.6040   28.6710   50.7310 F   0  0  0  0  0  0  0  0  0  0  0  0
  1  2  1  0  0  0  0
  1 30  1  0  0  0  0
  2  6  1  0  0  0  0
  3  2  2  0  0  0  0
  4  5  1  0  0  0  0
  4  3  1  0  0  0  0
  5  1  2  0  0  0  0
  7  3  1  0  0  0  0
  8 13  1  1  0  0  0
  8 19  1  0  0  0  0
  8  9  1  0  0  0  0
  9 14  1  6  0  0  0
  9  4  1  0  0  0  0
 10 15  1  0  0  0  0
 10 16  1  0  0  0  0
 10  9  1  0  0  0  0
 11 10  1  0  0  0  0
 12 11  1  0  0  0  0
 12  8  1  0  0  0  0
 17 12  1  0  0  0  0
 18 12  1  0  0  0  0
 20 19  1  6  0  0  0
 20 26  1  0  0  0  0
 21 23  1  0  0  0  0
 21 20  1  0  0  0  0
 22 21  1  0  0  0  0
 23 24  1  0  0  0  0
 23 25  1  0  0  0  0
 25 26  1  0  0  0  0
 27 26  1  0  0  0  0
 28 36  1  0  0  0  0
 29 34  1  0  0  0  0
 29 28  2  0  0  0  0
 30 29  1  0  0  0  0
 31 30  2  0  0  0  0
 31 32  1  0  0  0  0
 32 33  2  0  0  0  0
 33 28  1  0  0  0  0
 35 32  1  0  0  0  0
 36 37  1  0  0  0  0
 37 38  1  0  0  0  0
 37 39  1  0  0  0  0
 40 37  1  0  0  0  0
M  END
>  <minimizedAffinity>
-6.01060534

>  <minimizedRMSD>
0.444096148

$$$$
