
 OpenBabel03272509433D

 37 39  0  0  1  0  0  0  0  0999 V2000
   37.0960   30.9440   49.0140 C   0  0  0  0  0  0  0  0  0  0  0  0
   36.8470   31.8530   50.0440 C   0  0  0  0  0  0  0  0  0  0  0  0
   37.4420   33.1070   50.0700 C   0  0  0  0  0  0  0  0  0  0  0  0
   38.3130   33.4750   49.0410 C   0  0  0  0  0  0  0  0  0  0  0  0
   38.5470   32.5770   48.0400 C   0  0  0  0  0  0  0  0  0  0  0  0
   37.9350   31.3320   48.0480 C   0  0  0  0  0  0  0  0  0  0  0  0
   36.1670   31.5530   50.8390 H   0  0  0  0  0  0  0  0  0  0  0  0
   37.1950   33.7350   50.8960 H   0  0  0  0  0  0  0  0  0  0  0  0
   38.7260   34.4610   49.1430 H   0  0  0  0  0  0  0  0  0  0  0  0
   39.2430   33.0030   47.3190 H   0  0  0  0  0  0  0  0  0  0  0  0
   36.5050   29.6240   49.0040 C   0  0  2  0  0  0  0  0  0  0  0  0
   36.9940   29.0780   48.1080 H   0  0  0  0  0  0  0  0  0  0  0  0
   33.6040   30.0010   46.8490 C   0  0  0  0  0  0  0  0  0  0  0  0
   32.8750   28.8470   47.0620 C   0  0  0  0  0  0  0  0  0  0  0  0
   33.3420   27.9480   48.0020 C   0  0  0  0  0  0  0  0  0  0  0  0
   34.5040   28.2270   48.6880 N   0  0  0  0  0  0  0  0  0  0  0  0
   35.1560   29.3450   48.4360 C   0  0  0  0  0  0  0  0  0  0  0  0
   34.7130   30.2380   47.5220 N   0  0  0  0  0  0  0  0  0  0  0  0
   33.2010   30.6750   46.1040 H   0  0  0  0  0  0  0  0  0  0  0  0
   31.9640   28.5380   46.5830 H   0  0  0  0  0  0  0  0  0  0  0  0
   32.8800   27.0110   48.2760 H   0  0  0  0  0  0  0  0  0  0  0  0
   36.9820   28.8630   49.9260 O   0  0  0  0  0  0  0  0  0  0  0  0
   36.5120   28.0810   50.2660 H   0  0  0  0  0  0  0  0  0  0  0  0
   38.2930   30.4690   46.9450 C   0  0  0  0  0  3  0  0  0  0  0  0
   39.0560   30.8510   45.9150 C   0  0  0  0  0  3  0  0  0  0  0  0
   39.5170   30.0480   44.7600 C   0  0  0  0  0  0  0  0  0  0  0  0
   40.6050   29.8760   44.8920 H   0  0  0  0  0  0  0  0  0  0  0  0
   39.0140   29.0490   44.7240 H   0  0  0  0  0  0  0  0  0  0  0  0
   39.2530   30.9680   43.2400 S   0  0  0  0  0  0  0  0  0  0  0  0
   37.4690   31.1800   43.0230 C   0  0  1  0  0  3  0  0  0  0  0  0
   36.9700   32.5260   43.4690 C   0  0  0  0  0  3  0  0  0  0  0  0
   37.7720   33.2940   43.5650 H   0  0  0  0  0  0  0  0  0  0  0  0
   35.9430   32.8500   42.4350 C   0  0  0  0  0  3  0  0  0  0  0  0
   34.9180   32.6270   42.8000 H   0  0  0  0  0  0  0  0  0  0  0  0
   36.1560   32.1000   41.3110 O   0  0  0  0  0  0  0  0  0  0  0  0
   37.1730   31.2140   41.5420 C   0  0  0  0  0  3  0  0  0  0  0  0
   38.1050   31.5000   40.9710 H   0  0  0  0  0  0  0  0  0  0  0  0
  1  2  1  0  0  0  0
  2  3  2  0  0  0  0
  2  7  1  0  0  0  0
  3  8  1  0  0  0  0
  4  9  1  0  0  0  0
  4  3  1  0  0  0  0
  5  6  1  0  0  0  0
  5  4  2  0  0  0  0
  6  1  2  0  0  0  0
 10  5  1  0  0  0  0
 11 12  1  6  0  0  0
 11  1  1  0  0  0  0
 11 22  1  0  0  0  0
 13 14  2  0  0  0  0
 13 18  1  0  0  0  0
 14 15  1  0  0  0  0
 15 21  1  0  0  0  0
 15 16  2  0  0  0  0
 17 16  1  0  0  0  0
 17 11  1  0  0  0  0
 18 17  2  0  0  0  0
 19 13  1  0  0  0  0
 20 14  1  0  0  0  0
 22 23  1  0  0  0  0
 24  6  1  0  0  0  0
 25 24  2  0  0  0  0
 26 27  1  0  0  0  0
 26 25  1  0  0  0  0
 28 26  1  0  0  0  0
 29 26  1  0  0  0  0
 30 29  1  6  0  0  0
 30 31  1  0  0  0  0
 31 32  1  0  0  0  0
 33 34  1  0  0  0  0
 33 31  1  0  0  0  0
 35 36  1  0  0  0  0
 35 33  1  0  0  0  0
 36 30  1  0  0  0  0
 37 36  1  0  0  0  0
M  END
>  <minimizedAffinity>
-5.46505976

>  <minimizedRMSD>
0.216743559

$$$$
