
     RDKit          3D

 29 30  0  0  0  0  0  0  0  0999 V2000
   37.3645   30.1845   51.3894 C   0  0  0  0  0  0  0  0  0  0  0  0
   38.0191   30.7127   50.2658 C   0  0  0  0  0  0  0  0  0  0  0  0
   37.5219   30.3874   49.0252 C   0  0  0  0  0  0  0  0  0  0  0  0
   36.4320   29.5795   48.9173 N   0  0  0  0  0  0  0  0  0  0  0  0
   35.8290   29.0903   50.0268 C   0  0  0  0  0  0  0  0  0  0  0  0
   36.2845   29.3850   51.2562 N   0  0  0  0  0  0  0  0  0  0  0  0
   38.1216   30.8782   47.8206 C   0  0  0  0  0  0  0  0  0  0  0  0
   38.7808   32.0068   47.7947 C   0  0  0  0  0  0  0  0  0  0  0  0
   39.4168   32.5408   46.5510 C   0  0  0  0  0  0  0  0  0  0  0  0
   38.3289   32.2447   45.1250 S   0  0  0  0  0  0  0  0  0  0  0  0
   37.7656   30.4477   52.3804 H   0  0  0  0  0  0  0  0  0  0  0  0
   38.8825   31.3516   50.3852 H   0  0  0  0  0  0  0  0  0  0  0  0
   34.9665   28.4546   49.8569 H   0  0  0  0  0  0  0  0  0  0  0  0
   38.0530   30.3363   46.8880 H   0  0  0  0  0  0  0  0  0  0  0  0
   38.8894   32.6044   48.6979 H   0  0  0  0  0  0  0  0  0  0  0  0
   39.5550   33.6387   46.6120 H   0  0  0  0  0  0  0  0  0  0  0  0
   40.4087   32.0531   46.3810 H   0  0  0  0  0  0  0  0  0  0  0  0
   39.1356   32.9031   43.6537 C   0  0  1  0  0  0  0  0  0  0  0  0
   38.6023   34.2876   43.2825 C   0  0  2  0  0  0  0  0  0  0  0  0
   38.4551   34.8561   44.2228 H   0  0  0  0  0  0  0  0  0  0  0  0
   39.8216   34.8805   42.6062 C   0  0  1  0  0  0  0  0  0  0  0  0
   39.9094   34.4427   41.5863 H   0  0  0  0  0  0  0  0  0  0  0  0
   40.8438   34.4679   43.4452 O   0  0  0  0  0  0  0  0  0  0  0  0
   40.5919   33.1848   43.8577 C   0  0  1  0  0  0  0  0  0  0  0  0
   40.7655   33.1371   44.9614 H   0  0  0  0  0  0  0  0  0  0  0  0
   38.9618   32.2501   42.7501 H   0  0  0  0  0  0  0  0  0  0  0  0
   37.7163   34.2519   42.6381 H   0  0  0  0  0  0  0  0  0  0  0  0
   39.7944   35.9876   42.5802 H   0  0  0  0  0  0  0  0  0  0  0  0
   41.2190   32.4100   43.3842 H   0  0  0  0  0  0  0  0  0  0  0  0
  2  1  2  0
  3  2  1  0
  4  3  2  0
  4  5  1  0
  5  6  2  0
  6  1  1  0
  7  3  1  0
  8  7  2  0
  9  8  1  0
 10  9  1  0
  1 11  1  0
  2 12  1  0
  5 13  1  0
  7 14  1  0
  8 15  1  0
  9 16  1  0
  9 17  1  0
 18 19  1  0
 19 20  1  1
 19 21  1  0
 21 22  1  6
 21 23  1  0
 23 24  1  0
 24 25  1  1
 24 18  1  0
 18 26  1  6
 19 27  1  0
 21 28  1  0
 24 29  1  0
 10 18  1  0
M  ISO  8  11  14  12  14  13  14  16   8  17   8  20  15  22  15  25  15
M  END
>  <DihAtoms>  (1) 
8,9,17,18

>  <DihDeg>  (1) 
66.19166167111882

$$$$
