
 OpenBabel03272506413D

 18 19  0  0  1  0  0  0  0  0999 V2000
   37.3010   30.1850   51.4280 C   0  0  0  0  0  0  0  0  0  0  0  0
   38.1380   30.7260   50.4300 C   0  0  0  0  0  0  0  0  0  0  0  0
   37.8070   30.5120   49.0880 C   0  0  0  0  0  0  0  0  0  0  0  0
   36.6910   29.7900   48.8130 N   0  0  0  0  0  0  0  0  0  0  0  0
   35.9030   29.2800   49.7780 C   0  0  0  0  0  0  0  0  0  0  0  0
   36.2140   29.4810   51.0700 N   0  0  0  0  0  0  0  0  0  0  0  0
   37.5910   30.3710   52.4450 H   0  0  0  0  0  0  0  0  0  0  0  0
   39.0350   31.3060   50.6250 H   0  0  0  0  0  0  0  0  0  0  0  0
   38.3990   30.8960   48.2730 H   0  0  0  0  0  0  0  0  0  0  0  0
   34.4400   28.3310   49.4150 S   0  0  0  0  0  0  0  0  0  0  0  0
   34.2890   28.1620   47.6440 C   0  0  2  0  0  3  0  0  0  0  0  0
   33.2460   29.1120   47.0400 C   0  0  0  0  0  3  0  0  0  0  0  0
   33.6390   30.1230   46.8710 H   0  0  0  0  0  0  0  0  0  0  0  0
   33.0760   28.3460   45.7190 C   0  0  0  0  0  3  0  0  0  0  0  0
   34.1010   28.2260   45.3240 H   0  0  0  0  0  0  0  0  0  0  0  0
   32.7200   27.0990   46.2550 O   0  0  0  0  0  0  0  0  0  0  0  0
   33.6530   26.8390   47.2410 C   0  0  0  0  0  3  0  0  0  0  0  0
   34.3950   26.1400   46.8000 H   0  0  0  0  0  0  0  0  0  0  0  0
  1  7  1  0  0  0  0
  2  8  1  0  0  0  0
  2  1  2  0  0  0  0
  3  2  1  0  0  0  0
  4  3  2  0  0  0  0
  4  5  1  0  0  0  0
  5  6  2  0  0  0  0
  6  1  1  0  0  0  0
  9  3  1  0  0  0  0
 10  5  1  0  0  0  0
 11 10  1  1  0  0  0
 12 11  1  0  0  0  0
 13 12  1  0  0  0  0
 14 16  1  0  0  0  0
 14 12  1  0  0  0  0
 15 14  1  0  0  0  0
 16 17  1  0  0  0  0
 17 11  1  0  0  0  0
 18 17  1  0  0  0  0
M  END
>  <minimizedAffinity>
-3.59580898

>  <minimizedRMSD>
0.240214676

$$$$
