
 OpenBabel03272507413D

 40 43  0  0  1  0  0  0  0  0999 V2000
   36.7240   32.2970   49.2930 O   0  0  0  0  0  0  0  0  0  0  0  0
   38.2480   32.2650   47.3320 C   0  0  0  0  0  0  0  0  0  0  0  0
   37.8500   32.7070   48.5780 C   0  0  0  0  0  0  0  0  0  0  0  0
   38.5980   33.6600   49.2600 C   0  0  0  0  0  0  0  0  0  0  0  0
   39.7510   34.1650   48.6760 C   0  0  0  0  0  0  0  0  0  0  0  0
   40.1440   33.7190   47.4270 C   0  0  0  0  0  0  0  0  0  0  0  0
   39.3760   32.7750   46.7860 C   0  0  0  0  0  0  0  0  0  0  0  0
   38.3630   34.0520   50.2210 H   0  0  0  0  0  0  0  0  0  0  0  0
   40.3610   34.9100   49.1770 H   0  0  0  0  0  0  0  0  0  0  0  0
   41.0270   34.0830   46.9390 H   0  0  0  0  0  0  0  0  0  0  0  0
   39.8100   32.3070   45.4490 C   0  0  0  0  0  0  0  0  0  0  0  0
   40.6550   31.2770   45.1140 C   0  0  0  0  0  0  0  0  0  0  0  0
   40.7300   31.2560   43.7240 C   0  0  0  0  0  0  0  0  0  0  0  0
   39.9180   32.2810   43.2970 C   0  0  0  0  0  0  0  0  0  0  0  0
   39.3840   32.8910   44.3400 O   0  0  0  0  0  0  0  0  0  0  0  0
   41.1440   30.6360   45.8460 H   0  0  0  0  0  0  0  0  0  0  0  0
   41.3260   30.5460   43.1620 H   0  0  0  0  0  0  0  0  0  0  0  0
   39.7560   32.5350   42.2510 H   0  0  0  0  0  0  0  0  0  0  0  0
   36.7670   30.5000   46.1880 N   0  0  0  0  0  0  0  0  0  0  0  0
   37.4230   31.2890   46.7080 C   0  0  0  0  0  0  0  0  0  0  0  0
   36.6760   31.2010   50.0840 C   0  0  0  0  0  0  0  0  0  0  0  0
   35.5620   30.4130   49.8180 C   0  0  0  0  0  0  0  0  0  0  0  0
   35.3340   29.2400   50.5270 C   0  0  0  0  0  0  0  0  0  0  0  0
   36.2460   28.9020   51.4880 N   0  0  0  0  0  0  0  0  0  0  0  0
   37.3270   29.6900   51.7300 C   0  0  0  0  0  0  0  0  0  0  0  0
   37.5250   30.8090   51.0370 N   0  0  0  0  0  0  0  0  0  0  0  0
   34.5170   28.5750   50.3990 H   0  0  0  0  0  0  0  0  0  0  0  0
   38.0510   29.4300   52.4860 H   0  0  0  0  0  0  0  0  0  0  0  0
   34.1780   29.6380   47.9580 C   0  0  0  0  0  0  0  0  0  0  0  0
   34.5960   28.4340   47.7530 O   0  0  0  0  0  0  0  0  0  0  0  0
   34.5730   30.6570   48.8660 N   0  0  0  0  0  0  0  0  0  0  0  0
   34.0760   31.5680   48.7610 H   0  0  0  0  0  0  0  0  0  0  0  0
   33.0520   29.8970   46.9840 C   0  0  1  0  0  3  0  0  0  0  0  0
   33.5350   30.0740   45.5850 C   0  0  0  0  0  3  0  0  0  0  0  0
   34.3380   29.3070   45.4110 H   0  0  0  0  0  0  0  0  0  0  0  0
   32.2940   29.6960   44.8100 C   0  0  0  0  0  3  0  0  0  0  0  0
   31.6630   30.6300   44.7600 H   0  0  0  0  0  0  0  0  0  0  0  0
   31.6110   28.7560   45.5660 O   0  0  0  0  0  0  0  0  0  0  0  0
   32.1630   28.6920   46.8270 C   0  0  0  0  0  3  0  0  0  0  0  0
   31.3480   28.6610   47.5900 H   0  0  0  0  0  0  0  0  0  0  0  0
  1 21  1  0  0  0  0
  2  3  1  0  0  0  0
  3  4  2  0  0  0  0
  3  1  1  0  0  0  0
  4  8  1  0  0  0  0
  5  9  1  0  0  0  0
  5  4  1  0  0  0  0
  6  5  2  0  0  0  0
  7  2  2  0  0  0  0
  7  6  1  0  0  0  0
 10  6  1  0  0  0  0
 11  7  1  0  0  0  0
 12 11  2  0  0  0  0
 12 16  1  0  0  0  0
 13 12  1  0  0  0  0
 14 13  2  0  0  0  0
 14 15  1  0  0  0  0
 15 11  1  0  0  0  0
 17 13  1  0  0  0  0
 18 14  1  0  0  0  0
 19 20  3  0  0  0  0
 20  2  1  0  0  0  0
 21 26  1  0  0  0  0
 22 21  2  0  0  0  0
 22 23  1  0  0  0  0
 23 24  2  0  0  0  0
 24 25  1  0  0  0  0
 25 28  1  0  0  0  0
 26 25  2  0  0  0  0
 27 23  1  0  0  0  0
 29 31  1  0  0  0  0
 30 29  2  0  0  0  0
 31 22  1  0  0  0  0
 32 31  1  0  0  0  0
 33 29  1  1  0  0  0
 34 33  1  0  0  0  0
 35 34  1  0  0  0  0
 36 38  1  0  0  0  0
 36 34  1  0  0  0  0
 37 36  1  0  0  0  0
 38 39  1  0  0  0  0
 39 33  1  0  0  0  0
 39 40  1  0  0  0  0
M  END
>  <minimizedAffinity>
-5.87735701

>  <minimizedRMSD>
0.174237907

$$$$
