
 OpenBabel03272506413D

 18 19  0  0  1  0  0  0  0  0999 V2000
   37.2500   30.3570   51.3140 C   0  0  0  0  0  0  0  0  0  0  0  0
   38.1220   30.8560   50.3240 C   0  0  0  0  0  0  0  0  0  0  0  0
   37.9000   30.4960   48.9900 C   0  0  0  0  0  0  0  0  0  0  0  0
   36.8500   29.6810   48.7160 N   0  0  0  0  0  0  0  0  0  0  0  0
   36.0270   29.2140   49.6730 C   0  0  0  0  0  0  0  0  0  0  0  0
   36.2340   29.5540   50.9570 N   0  0  0  0  0  0  0  0  0  0  0  0
   37.4570   30.6550   52.3240 H   0  0  0  0  0  0  0  0  0  0  0  0
   38.9680   31.5080   50.5190 H   0  0  0  0  0  0  0  0  0  0  0  0
   38.5240   30.8400   48.1820 H   0  0  0  0  0  0  0  0  0  0  0  0
   34.6510   28.1420   49.3110 S   0  0  0  0  0  0  0  0  0  0  0  0
   33.6760   28.8790   48.0090 C   0  0  2  0  0  3  0  0  0  0  0  0
   33.8290   28.1530   46.6650 C   0  0  0  0  0  3  0  0  0  0  0  0
   33.1900   27.2640   46.5870 H   0  0  0  0  0  0  0  0  0  0  0  0
   33.2950   29.3060   45.7990 C   0  0  0  0  0  3  0  0  0  0  0  0
   32.3220   29.5740   46.2460 H   0  0  0  0  0  0  0  0  0  0  0  0
   34.1960   30.3000   46.2120 O   0  0  0  0  0  0  0  0  0  0  0  0
   34.2010   30.2440   47.5930 C   0  0  0  0  0  3  0  0  0  0  0  0
   33.5430   31.0670   47.9460 H   0  0  0  0  0  0  0  0  0  0  0  0
  1  7  1  0  0  0  0
  2  8  1  0  0  0  0
  2  1  2  0  0  0  0
  3  2  1  0  0  0  0
  4  3  2  0  0  0  0
  4  5  1  0  0  0  0
  5  6  2  0  0  0  0
  6  1  1  0  0  0  0
  9  3  1  0  0  0  0
 10  5  1  0  0  0  0
 11 10  1  1  0  0  0
 12 11  1  0  0  0  0
 13 12  1  0  0  0  0
 14 16  1  0  0  0  0
 14 15  1  0  0  0  0
 14 12  1  0  0  0  0
 16 17  1  0  0  0  0
 17 18  1  0  0  0  0
 17 11  1  0  0  0  0
M  END
>  <minimizedAffinity>
-3.73304987

>  <minimizedRMSD>
1.3608104

$$$$
