
 OpenBabel03272502303D

 23 24  0  0  1  0  0  0  0  0999 V2000
   40.6960   32.5070   45.3180 C   0  0  0  0  0  0  0  0  0  0  0  0
   40.5940   33.4350   44.7210 H   0  0  0  0  0  0  0  0  0  0  0  0
   41.7160   32.4740   45.7780 H   0  0  0  0  0  0  0  0  0  0  0  0
   39.0630   31.3070   46.7130 C   0  0  0  0  0  3  0  0  0  0  0  0
   39.6450   32.4290   46.3790 C   0  0  0  0  0  3  0  0  0  0  0  0
   37.2100   31.7320   49.9030 C   0  0  0  0  0  0  0  0  0  0  0  0
   38.2520   31.8320   48.9680 C   0  0  0  0  0  0  0  0  0  0  0  0
   38.0580   31.2580   47.7330 C   0  0  0  0  0  0  0  0  0  0  0  0
   36.8880   30.6220   47.4520 N   0  0  0  0  0  0  0  0  0  0  0  0
   35.9070   30.5500   48.3830 C   0  0  0  0  0  0  0  0  0  0  0  0
   36.0590   31.0970   49.6010 N   0  0  0  0  0  0  0  0  0  0  0  0
   37.3710   32.1930   50.8900 H   0  0  0  0  0  0  0  0  0  0  0  0
   39.1710   32.3430   49.2220 H   0  0  0  0  0  0  0  0  0  0  0  0
   35.0050   30.0280   48.0820 H   0  0  0  0  0  0  0  0  0  0  0  0
   40.4990   31.1280   44.1500 S   0  0  0  0  0  0  0  0  0  0  0  0
   39.2430   31.5870   42.9420 C   0  0  1  0  0  3  0  0  0  0  0  0
   39.2100   33.0970   42.7000 C   0  0  0  0  0  3  0  0  0  0  0  0
   40.2580   33.4590   42.6810 H   0  0  0  0  0  0  0  0  0  0  0  0
   38.7160   33.1360   41.2680 C   0  0  0  0  0  3  0  0  0  0  0  0
   37.6220   32.9300   41.2650 H   0  0  0  0  0  0  0  0  0  0  0  0
   39.4450   32.1130   40.6840 O   0  0  0  0  0  0  0  0  0  0  0  0
   39.5310   31.0670   41.5680 C   0  0  0  0  0  3  0  0  0  0  0  0
   40.5930   30.7160   41.5850 H   0  0  0  0  0  0  0  0  0  0  0  0
  1  3  1  0  0  0  0
  1  5  1  0  0  0  0
  2  1  1  0  0  0  0
  4  8  1  0  0  0  0
  5  4  2  0  0  0  0
  6 12  1  0  0  0  0
  7 13  1  0  0  0  0
  7  6  2  0  0  0  0
  8  7  1  0  0  0  0
  9  8  2  0  0  0  0
  9 10  1  0  0  0  0
 10 11  2  0  0  0  0
 11  6  1  0  0  0  0
 14 10  1  0  0  0  0
 15  1  1  0  0  0  0
 16 15  1  1  0  0  0
 17 16  1  0  0  0  0
 18 17  1  0  0  0  0
 19 17  1  0  0  0  0
 20 19  1  0  0  0  0
 21 19  1  0  0  0  0
 21 22  1  0  0  0  0
 22 23  1  0  0  0  0
 22 16  1  0  0  0  0
M  END
>  <minimizedAffinity>
-4.1497674

>  <minimizedRMSD>
2.05443072

$$$$
