
 OpenBabel03272502303D

 23 24  0  0  1  0  0  0  0  0999 V2000
   39.5670   32.7760   46.5850 C   0  0  0  0  0  0  0  0  0  0  0  0
   39.6390   33.8810   46.6450 H   0  0  0  0  0  0  0  0  0  0  0  0
   40.5940   32.3450   46.4770 H   0  0  0  0  0  0  0  0  0  0  0  0
   38.3530   31.0210   47.8110 C   0  0  0  0  0  3  0  0  0  0  0  0
   38.8920   32.2120   47.7950 C   0  0  0  0  0  3  0  0  0  0  0  0
   37.4210   30.3130   51.3340 C   0  0  0  0  0  0  0  0  0  0  0  0
   38.1090   30.8730   50.2470 C   0  0  0  0  0  0  0  0  0  0  0  0
   37.7120   30.5030   48.9820 C   0  0  0  0  0  0  0  0  0  0  0  0
   36.6860   29.6240   48.8180 N   0  0  0  0  0  0  0  0  0  0  0  0
   36.0480   29.1070   49.8950 C   0  0  0  0  0  0  0  0  0  0  0  0
   36.4070   29.4430   51.1460 N   0  0  0  0  0  0  0  0  0  0  0  0
   37.7420   30.6120   52.3450 H   0  0  0  0  0  0  0  0  0  0  0  0
   38.9200   31.5690   50.4100 H   0  0  0  0  0  0  0  0  0  0  0  0
   35.2420   28.4150   49.6810 H   0  0  0  0  0  0  0  0  0  0  0  0
   38.5820   32.4110   45.1020 S   0  0  0  0  0  0  0  0  0  0  0  0
   39.6910   32.3870   43.6810 C   0  0  1  0  0  3  0  0  0  0  0  0
   40.0330   30.9610   43.2490 C   0  0  0  0  0  3  0  0  0  0  0  0
   39.1100   30.3510   43.3330 H   0  0  0  0  0  0  0  0  0  0  0  0
   40.2760   31.1720   41.7670 C   0  0  0  0  0  3  0  0  0  0  0  0
   41.2760   31.6440   41.6360 H   0  0  0  0  0  0  0  0  0  0  0  0
   39.2420   32.0280   41.4270 O   0  0  0  0  0  0  0  0  0  0  0  0
   39.0630   32.9370   42.4370 C   0  0  0  0  0  3  0  0  0  0  0  0
   37.9680   33.0090   42.6470 H   0  0  0  0  0  0  0  0  0  0  0  0
  1  2  1  0  0  0  0
  1  5  1  0  0  0  0
  3  1  1  0  0  0  0
  4  8  1  0  0  0  0
  5  4  2  0  0  0  0
  6 12  1  0  0  0  0
  7 13  1  0  0  0  0
  7  6  2  0  0  0  0
  8  7  1  0  0  0  0
  9  8  2  0  0  0  0
  9 10  1  0  0  0  0
 10 11  2  0  0  0  0
 11  6  1  0  0  0  0
 14 10  1  0  0  0  0
 15  1  1  0  0  0  0
 16 15  1  1  0  0  0
 17 18  1  0  0  0  0
 17 16  1  0  0  0  0
 19 17  1  0  0  0  0
 20 19  1  0  0  0  0
 21 19  1  0  0  0  0
 21 22  1  0  0  0  0
 22 23  1  0  0  0  0
 22 16  1  0  0  0  0
M  END
>  <minimizedAffinity>
-4.72936392

>  <minimizedRMSD>
0.759871602

$$$$
