
 OpenBabel03272503423D

 40 43  0  0  1  0  0  0  0  0999 V2000
   38.3890   31.2200   45.9060 C   0  0  0  0  0  0  0  0  0  0  0  0
   39.7330   31.1150   46.1390 C   0  0  0  0  0  0  0  0  0  0  0  0
   40.3280   31.5440   44.9420 C   0  0  0  0  0  0  0  0  0  0  0  0
   39.3670   31.8760   44.0710 N   0  0  0  0  0  0  0  0  0  0  0  0
   38.1880   31.6800   44.6570 N   0  0  0  0  0  0  0  0  0  0  0  0
   40.2640   30.7840   47.0240 H   0  0  0  0  0  0  0  0  0  0  0  0
   41.4050   31.5690   44.8310 H   0  0  0  0  0  0  0  0  0  0  0  0
   39.6750   31.2080   41.7470 C   0  0  2  0  0  0  0  0  0  0  0  0
   39.6510   32.3580   42.7430 C   0  0  1  0  0  0  0  0  0  0  0  0
   38.4980   33.1410   42.1500 C   0  0  0  0  0  0  0  0  0  0  0  0
   38.5750   33.0170   40.7830 O   0  0  0  0  0  0  0  0  0  0  0  0
   39.4510   32.0270   40.4590 C   0  0  0  0  0  0  0  0  0  0  0  0
   40.6130   30.6780   41.6770 H   0  0  0  0  0  0  0  0  0  0  0  0
   40.5520   32.9640   42.7190 H   0  0  0  0  0  0  0  0  0  0  0  0
   37.5440   32.6380   42.4490 H   0  0  0  0  0  0  0  0  0  0  0  0
   38.5250   34.1950   42.4410 H   0  0  0  0  0  0  0  0  0  0  0  0
   39.0600   31.3070   39.7020 H   0  0  0  0  0  0  0  0  0  0  0  0
   40.4350   32.4390   40.1300 H   0  0  0  0  0  0  0  0  0  0  0  0
   38.5600   30.4360   41.9760 O   0  0  0  0  0  0  0  0  0  0  0  0
   38.7280   29.0970   41.9540 C   0  0  1  0  0  3  0  0  0  0  0  0
   39.9320   28.5790   41.2020 C   0  0  0  0  0  3  0  0  0  0  0  0
   40.8660   29.0570   41.5280 H   0  0  0  0  0  0  0  0  0  0  0  0
   39.9220   27.1520   41.7250 C   0  0  0  0  0  3  0  0  0  0  0  0
   39.1720   26.6060   41.0900 H   0  0  0  0  0  0  0  0  0  0  0  0
   39.4400   27.1740   43.0070 O   0  0  0  0  0  0  0  0  0  0  0  0
   38.9330   28.4280   43.2760 C   0  0  0  0  0  3  0  0  0  0  0  0
   39.6480   28.9320   43.9370 H   0  0  0  0  0  0  0  0  0  0  0  0
   36.5000   30.6350   49.0940 C   0  0  0  0  0  0  0  0  0  0  0  0
   37.5160   30.9630   48.2290 C   0  0  0  0  0  0  0  0  0  0  0  0
   37.3500   30.8860   46.8620 C   0  0  0  0  0  0  0  0  0  0  0  0
   36.1460   30.4740   46.4190 N   0  0  0  0  0  0  0  0  0  0  0  0
   35.1390   30.1500   47.2830 C   0  0  0  0  0  0  0  0  0  0  0  0
   35.3000   30.2240   48.5880 N   0  0  0  0  0  0  0  0  0  0  0  0
   38.5130   31.3020   48.5490 H   0  0  0  0  0  0  0  0  0  0  0  0
   34.1850   29.8230   46.8680 H   0  0  0  0  0  0  0  0  0  0  0  0
   36.8360   30.7680   50.4300 O   0  0  0  0  0  0  0  0  0  0  0  0
   36.8900   29.6890   51.3370 C   0  0  0  0  0  0  0  0  0  0  0  0
   35.6090   29.2430   51.6480 F   0  0  0  0  0  0  0  0  0  0  0  0
   37.5620   30.0920   52.4640 F   0  0  0  0  0  0  0  0  0  0  0  0
   37.6110   28.6750   50.7500 F   0  0  0  0  0  0  0  0  0  0  0  0
  1  2  1  0  0  0  0
  1 30  1  0  0  0  0
  2  6  1  0  0  0  0
  3  2  2  0  0  0  0
  4  5  1  0  0  0  0
  4  3  1  0  0  0  0
  5  1  2  0  0  0  0
  7  3  1  0  0  0  0
  8 13  1  1  0  0  0
  8 19  1  0  0  0  0
  8  9  1  0  0  0  0
  9 14  1  6  0  0  0
  9  4  1  0  0  0  0
 10 16  1  0  0  0  0
 10 15  1  0  0  0  0
 10  9  1  0  0  0  0
 11 10  1  0  0  0  0
 12 11  1  0  0  0  0
 12  8  1  0  0  0  0
 17 12  1  0  0  0  0
 18 12  1  0  0  0  0
 20 19  1  1  0  0  0
 20 26  1  0  0  0  0
 21 22  1  0  0  0  0
 21 23  1  0  0  0  0
 21 20  1  0  0  0  0
 23 25  1  0  0  0  0
 24 23  1  0  0  0  0
 25 26  1  0  0  0  0
 26 27  1  0  0  0  0
 28 36  1  0  0  0  0
 29 34  1  0  0  0  0
 29 28  2  0  0  0  0
 30 29  1  0  0  0  0
 31 30  2  0  0  0  0
 31 32  1  0  0  0  0
 32 33  2  0  0  0  0
 33 28  1  0  0  0  0
 35 32  1  0  0  0  0
 36 37  1  0  0  0  0
 37 38  1  0  0  0  0
 37 39  1  0  0  0  0
 40 37  1  0  0  0  0
M  END
>  <minimizedAffinity>
-6.14453888

>  <minimizedRMSD>
0.431524605

$$$$
