
 OpenBabel03262521163D

 27 28  0  0  1  0  0  0  0  0999 V2000
   35.9660   29.9650   47.5220 C   0  0  0  0  0  0  0  0  0  0  0  0
   35.3270   29.1430   47.0810 H   0  0  0  0  0  0  0  0  0  0  0  0
   36.6810   29.3420   48.1510 H   0  0  0  0  0  0  0  0  0  0  0  0
   36.6090   30.6570   46.5860 C   0  0  0  0  0  0  0  0  0  0  0  0
   36.4400   30.3530   45.5220 H   0  0  0  0  0  0  0  0  0  0  0  0
   36.4490   31.7750   46.5600 H   0  0  0  0  0  0  0  0  0  0  0  0
   37.8940   30.4410   47.0500 O   0  0  0  0  0  0  0  0  0  0  0  0
   38.9190   31.0820   46.3770 C   0  0  0  0  0  0  0  0  0  0  0  0
   39.0880   32.4070   46.7860 C   0  0  0  0  0  0  0  0  0  0  0  0
   40.0830   33.1790   46.1970 C   0  0  0  0  0  0  0  0  0  0  0  0
   40.8480   32.5780   45.2360 N   0  0  0  0  0  0  0  0  0  0  0  0
   40.6740   31.2950   44.8490 C   0  0  0  0  0  0  0  0  0  0  0  0
   39.7140   30.5690   45.4250 N   0  0  0  0  0  0  0  0  0  0  0  0
   38.5220   32.9380   47.5350 H   0  0  0  0  0  0  0  0  0  0  0  0
   40.2600   34.2120   46.4750 H   0  0  0  0  0  0  0  0  0  0  0  0
   41.2930   30.8480   44.0880 H   0  0  0  0  0  0  0  0  0  0  0  0
   35.0930   30.5920   48.5600 C   0  0  0  0  0  0  0  0  0  0  0  0
   35.0340   31.7050   48.4530 H   0  0  0  0  0  0  0  0  0  0  0  0
   34.0640   30.2180   48.4680 H   0  0  0  0  0  0  0  0  0  0  0  0
   35.6120   30.3520   49.9580 C   0  0  1  0  0  0  0  0  0  0  0  0
   36.3260   29.0240   50.0900 C   0  0  0  0  0  0  0  0  0  0  0  0
   35.6380   28.2240   50.4400 H   0  0  0  0  0  0  0  0  0  0  0  0
   37.3250   29.3130   51.1620 C   0  0  0  0  0  0  0  0  0  0  0  0
   38.2610   28.6990   51.0520 H   0  0  0  0  0  0  0  0  0  0  0  0
   37.5770   30.6650   51.1880 O   0  0  0  0  0  0  0  0  0  0  0  0
   36.7960   31.2840   50.2460 C   0  0  0  0  0  0  0  0  0  0  0  0
   36.4720   32.3080   50.4880 H   0  0  0  0  0  0  0  0  0  0  0  0
  1  3  1  0  0  0  0
  1 17  1  0  0  0  0
  2  1  1  0  0  0  0
  4  7  1  0  0  0  0
  4  1  1  0  0  0  0
  5  4  1  0  0  0  0
  6  4  1  0  0  0  0
  8  9  1  0  0  0  0
  8  7  1  0  0  0  0
  9 14  1  0  0  0  0
 10 15  1  0  0  0  0
 10  9  2  0  0  0  0
 11 10  1  0  0  0  0
 12 11  2  0  0  0  0
 12 13  1  0  0  0  0
 13  8  2  0  0  0  0
 16 12  1  0  0  0  0
 18 17  1  0  0  0  0
 19 17  1  0  0  0  0
 20 17  1  6  0  0  0
 20 21  1  0  0  0  0
 20 26  1  0  0  0  0
 21 22  1  0  0  0  0
 21 23  1  0  0  0  0
 23 25  1  0  0  0  0
 24 23  1  0  0  0  0
 26 27  1  0  0  0  0
 26 25  1  0  0  0  0
M  END
>  <minimizedAffinity>
-4.49208021

>  <minimizedRMSD>
3.512465

$$$$
