
     RDKit          3D

 22 23  0  0  0  0  0  0  0  0999 V2000
   37.2624   30.1769   51.4287 C   0  0  0  0  0  0  0  0  0  0  0  0
   38.1157   30.7571   50.4682 C   0  0  0  0  0  0  0  0  0  0  0  0
   37.8433   30.5464   49.1116 C   0  0  0  0  0  0  0  0  0  0  0  0
   36.7638   29.7893   48.7894 N   0  0  0  0  0  0  0  0  0  0  0  0
   35.9588   29.2423   49.7191 C   0  0  0  0  0  0  0  0  0  0  0  0
   36.2138   29.4401   51.0242 N   0  0  0  0  0  0  0  0  0  0  0  0
   34.5442   28.2469   49.2928 S   0  0  0  0  0  0  0  0  0  0  0  0
   37.5082   30.3618   52.4569 H   0  0  0  0  0  0  0  0  0  0  0  0
   38.9854   31.3651   50.7023 H   0  0  0  0  0  0  0  0  0  0  0  0
   38.4513   30.9583   48.3241 H   0  0  0  0  0  0  0  0  0  0  0  0
   34.4308   28.1396   47.5142 C   0  0  2  0  0  0  0  0  0  0  0  0
   35.0165   26.8363   46.9556 C   0  0  2  0  0  0  0  0  0  0  0  0
   34.3135   25.9946   47.0124 H   0  0  0  0  0  0  0  0  0  0  0  0
   35.1782   27.3384   45.5120 C   0  0  2  0  0  0  0  0  0  0  0  0
   34.1860   27.7347   45.2338 H   0  0  0  0  0  0  0  0  0  0  0  0
   35.9810   28.4577   45.7779 O   0  0  0  0  0  0  0  0  0  0  0  0
   35.3551   29.1244   46.8144 C   0  0  1  0  0  0  0  0  0  0  0  0
   34.7943   29.9666   46.3567 H   0  0  0  0  0  0  0  0  0  0  0  0
   33.4157   28.2537   47.1038 H   0  0  0  0  0  0  0  0  0  0  0  0
   36.0046   26.6491   47.4278 H   0  0  0  0  0  0  0  0  0  0  0  0
   35.6269   26.6120   44.8552 H   0  0  0  0  0  0  0  0  0  0  0  0
   36.0980   29.4689   47.5653 H   0  0  0  0  0  0  0  0  0  0  0  0
  2  1  2  0
  3  2  1  0
  4  3  2  0
  4  5  1  0
  5  6  2  0
  6  1  1  0
  7  5  1  0
  1  8  1  0
  2  9  1  0
  3 10  1  0
 11 12  1  0
 12 13  1  6
 12 14  1  0
 14 15  1  6
 14 16  1  0
 16 17  1  0
 17 18  1  6
 17 11  1  0
 11 19  1  1
 12 20  1  0
 14 21  1  0
 17 22  1  0
  7 11  1  0
M  ISO  6   8  14   9  14  10  14  13  15  15  15  18  15
M  END
>  <DihAtoms>  (1) 
4,6,10,11

>  <DihDeg>  (1) 
-66.22157974784318

$$$$
