
 OpenBabel03272507413D

 40 43  0  0  1  0  0  0  0  0999 V2000
   36.7590   32.2230   49.1260 O   0  0  0  0  0  0  0  0  0  0  0  0
   38.2390   32.1740   47.1300 C   0  0  0  0  0  0  0  0  0  0  0  0
   37.8760   32.6160   48.3870 C   0  0  0  0  0  0  0  0  0  0  0  0
   38.6550   33.5520   49.0570 C   0  0  0  0  0  0  0  0  0  0  0  0
   39.8040   34.0400   48.4500 C   0  0  0  0  0  0  0  0  0  0  0  0
   40.1620   33.5940   47.1910 C   0  0  0  0  0  0  0  0  0  0  0  0
   39.3630   32.6660   46.5620 C   0  0  0  0  0  0  0  0  0  0  0  0
   38.4480   33.9440   50.0250 H   0  0  0  0  0  0  0  0  0  0  0  0
   40.4380   34.7720   48.9400 H   0  0  0  0  0  0  0  0  0  0  0  0
   41.0390   33.9440   46.6850 H   0  0  0  0  0  0  0  0  0  0  0  0
   39.7580   32.1980   45.2140 C   0  0  0  0  0  0  0  0  0  0  0  0
   40.6000   31.1730   44.8550 C   0  0  0  0  0  0  0  0  0  0  0  0
   40.6320   31.1480   43.4640 C   0  0  0  0  0  0  0  0  0  0  0  0
   39.8010   32.1670   43.0590 C   0  0  0  0  0  0  0  0  0  0  0  0
   39.2950   32.7750   44.1160 O   0  0  0  0  0  0  0  0  0  0  0  0
   41.1150   30.5360   45.5740 H   0  0  0  0  0  0  0  0  0  0  0  0
   41.2160   30.4400   42.8860 H   0  0  0  0  0  0  0  0  0  0  0  0
   39.6060   32.4160   42.0180 H   0  0  0  0  0  0  0  0  0  0  0  0
   36.7010   30.4410   46.0120 N   0  0  0  0  0  0  0  0  0  0  0  0
   37.3830   31.2160   46.5210 C   0  0  0  0  0  0  0  0  0  0  0  0
   36.7530   31.2150   50.0270 C   0  0  0  0  0  0  0  0  0  0  0  0
   35.7230   30.3100   49.7910 C   0  0  0  0  0  0  0  0  0  0  0  0
   35.5480   29.2020   50.6110 C   0  0  0  0  0  0  0  0  0  0  0  0
   36.4270   29.0450   51.6470 N   0  0  0  0  0  0  0  0  0  0  0  0
   37.4250   29.9430   51.8550 C   0  0  0  0  0  0  0  0  0  0  0  0
   37.5730   30.9970   51.0570 N   0  0  0  0  0  0  0  0  0  0  0  0
   34.7970   28.4590   50.5140 H   0  0  0  0  0  0  0  0  0  0  0  0
   38.1220   29.8260   52.6710 H   0  0  0  0  0  0  0  0  0  0  0  0
   34.3330   29.1810   48.1270 C   0  0  0  0  0  0  0  0  0  0  0  0
   34.6740   27.9420   48.2410 O   0  0  0  0  0  0  0  0  0  0  0  0
   34.7750   30.3680   48.7710 N   0  0  0  0  0  0  0  0  0  0  0  0
   34.3430   31.2530   48.4250 H   0  0  0  0  0  0  0  0  0  0  0  0
   33.2500   29.2580   47.0760 C   0  0  1  0  0  3  0  0  0  0  0  0
   33.1210   30.6210   46.4870 C   0  0  0  0  0  3  0  0  0  0  0  0
   34.1610   31.0180   46.3310 H   0  0  0  0  0  0  0  0  0  0  0  0
   32.4990   30.2910   45.1500 C   0  0  0  0  0  3  0  0  0  0  0  0
   31.3880   30.2150   45.3350 H   0  0  0  0  0  0  0  0  0  0  0  0
   32.9610   29.0380   44.7830 O   0  0  0  0  0  0  0  0  0  0  0  0
   33.6030   28.4540   45.8520 C   0  0  0  0  0  3  0  0  0  0  0  0
   33.2900   27.3860   45.9400 H   0  0  0  0  0  0  0  0  0  0  0  0
  1 21  1  0  0  0  0
  2  3  1  0  0  0  0
  3  4  2  0  0  0  0
  3  1  1  0  0  0  0
  4  8  1  0  0  0  0
  5  9  1  0  0  0  0
  5  4  1  0  0  0  0
  6  5  2  0  0  0  0
  7  2  2  0  0  0  0
  7  6  1  0  0  0  0
 10  6  1  0  0  0  0
 11  7  1  0  0  0  0
 12 11  2  0  0  0  0
 12 16  1  0  0  0  0
 13 12  1  0  0  0  0
 14 13  2  0  0  0  0
 14 15  1  0  0  0  0
 15 11  1  0  0  0  0
 17 13  1  0  0  0  0
 18 14  1  0  0  0  0
 19 20  3  0  0  0  0
 20  2  1  0  0  0  0
 21 26  1  0  0  0  0
 22 21  2  0  0  0  0
 22 23  1  0  0  0  0
 23 24  2  0  0  0  0
 24 25  1  0  0  0  0
 25 28  1  0  0  0  0
 26 25  2  0  0  0  0
 27 23  1  0  0  0  0
 29 30  2  0  0  0  0
 29 31  1  0  0  0  0
 31 22  1  0  0  0  0
 32 31  1  0  0  0  0
 33 29  1  1  0  0  0
 34 33  1  0  0  0  0
 35 34  1  0  0  0  0
 36 37  1  0  0  0  0
 36 34  1  0  0  0  0
 38 36  1  0  0  0  0
 38 39  1  0  0  0  0
 39 40  1  0  0  0  0
 39 33  1  0  0  0  0
M  END
>  <minimizedAffinity>
-5.82360792

>  <minimizedRMSD>
0.723932028

$$$$
