
 OpenBabel03272503413D

 40 43  0  0  1  0  0  0  0  0999 V2000
   38.3900   31.2190   45.9050 C   0  0  0  0  0  0  0  0  0  0  0  0
   39.7330   31.1130   46.1380 C   0  0  0  0  0  0  0  0  0  0  0  0
   40.3280   31.5420   44.9420 C   0  0  0  0  0  0  0  0  0  0  0  0
   39.3670   31.8750   44.0700 N   0  0  0  0  0  0  0  0  0  0  0  0
   38.1880   31.6790   44.6560 N   0  0  0  0  0  0  0  0  0  0  0  0
   40.2640   30.7820   47.0230 H   0  0  0  0  0  0  0  0  0  0  0  0
   41.4050   31.5660   44.8300 H   0  0  0  0  0  0  0  0  0  0  0  0
   39.6750   31.2070   41.7470 C   0  0  2  0  0  0  0  0  0  0  0  0
   39.6520   32.3570   42.7420 C   0  0  1  0  0  0  0  0  0  0  0  0
   38.4990   33.1400   42.1490 C   0  0  0  0  0  0  0  0  0  0  0  0
   38.5760   33.0170   40.7830 O   0  0  0  0  0  0  0  0  0  0  0  0
   39.4520   32.0270   40.4580 C   0  0  0  0  0  0  0  0  0  0  0  0
   40.6130   30.6770   41.6760 H   0  0  0  0  0  0  0  0  0  0  0  0
   40.5520   32.9630   42.7180 H   0  0  0  0  0  0  0  0  0  0  0  0
   37.5440   32.6380   42.4480 H   0  0  0  0  0  0  0  0  0  0  0  0
   38.5260   34.1940   42.4410 H   0  0  0  0  0  0  0  0  0  0  0  0
   39.0600   31.3070   39.7010 H   0  0  0  0  0  0  0  0  0  0  0  0
   40.4360   32.4380   40.1300 H   0  0  0  0  0  0  0  0  0  0  0  0
   38.5600   30.4360   41.9750 O   0  0  0  0  0  0  0  0  0  0  0  0
   38.7280   29.0970   41.9530 C   0  0  1  0  0  3  0  0  0  0  0  0
   39.9310   28.5780   41.2000 C   0  0  0  0  0  3  0  0  0  0  0  0
   40.8660   29.0560   41.5260 H   0  0  0  0  0  0  0  0  0  0  0  0
   39.9220   27.1510   41.7220 C   0  0  0  0  0  3  0  0  0  0  0  0
   39.1710   26.6050   41.0890 H   0  0  0  0  0  0  0  0  0  0  0  0
   39.4410   27.1740   43.0060 O   0  0  0  0  0  0  0  0  0  0  0  0
   38.9340   28.4270   43.2760 C   0  0  0  0  0  3  0  0  0  0  0  0
   39.6480   28.9320   43.9360 H   0  0  0  0  0  0  0  0  0  0  0  0
   36.5000   30.6350   49.0930 C   0  0  0  0  0  0  0  0  0  0  0  0
   37.5160   30.9620   48.2280 C   0  0  0  0  0  0  0  0  0  0  0  0
   37.3500   30.8850   46.8610 C   0  0  0  0  0  0  0  0  0  0  0  0
   36.1460   30.4740   46.4180 N   0  0  0  0  0  0  0  0  0  0  0  0
   35.1390   30.1500   47.2820 C   0  0  0  0  0  0  0  0  0  0  0  0
   35.3000   30.2240   48.5870 N   0  0  0  0  0  0  0  0  0  0  0  0
   38.5130   31.3010   48.5480 H   0  0  0  0  0  0  0  0  0  0  0  0
   34.1850   29.8230   46.8670 H   0  0  0  0  0  0  0  0  0  0  0  0
   36.8360   30.7680   50.4290 O   0  0  0  0  0  0  0  0  0  0  0  0
   36.8910   29.6890   51.3360 C   0  0  0  0  0  0  0  0  0  0  0  0
   35.6100   29.2430   51.6480 F   0  0  0  0  0  0  0  0  0  0  0  0
   37.5640   30.0920   52.4630 F   0  0  0  0  0  0  0  0  0  0  0  0
   37.6100   28.6740   50.7480 F   0  0  0  0  0  0  0  0  0  0  0  0
  1  2  1  0  0  0  0
  1 30  1  0  0  0  0
  2  6  1  0  0  0  0
  3  2  2  0  0  0  0
  4  5  1  0  0  0  0
  4  3  1  0  0  0  0
  5  1  2  0  0  0  0
  7  3  1  0  0  0  0
  8 13  1  1  0  0  0
  8 19  1  0  0  0  0
  8  9  1  0  0  0  0
  9 14  1  6  0  0  0
  9  4  1  0  0  0  0
 10 16  1  0  0  0  0
 10 15  1  0  0  0  0
 10  9  1  0  0  0  0
 11 10  1  0  0  0  0
 12 11  1  0  0  0  0
 12  8  1  0  0  0  0
 17 12  1  0  0  0  0
 18 12  1  0  0  0  0
 20 19  1  1  0  0  0
 20 26  1  0  0  0  0
 21 22  1  0  0  0  0
 21 23  1  0  0  0  0
 21 20  1  0  0  0  0
 23 25  1  0  0  0  0
 24 23  1  0  0  0  0
 25 26  1  0  0  0  0
 26 27  1  0  0  0  0
 28 36  1  0  0  0  0
 29 34  1  0  0  0  0
 29 28  2  0  0  0  0
 30 29  1  0  0  0  0
 31 30  2  0  0  0  0
 31 32  1  0  0  0  0
 32 33  2  0  0  0  0
 33 28  1  0  0  0  0
 35 32  1  0  0  0  0
 36 37  1  0  0  0  0
 37 38  1  0  0  0  0
 37 39  1  0  0  0  0
 40 37  1  0  0  0  0
M  END
>  <minimizedAffinity>
-6.14732695

>  <minimizedRMSD>
0.48338756

$$$$
