
 OpenBabel03272510313D

 31 33  0  0  1  0  0  0  0  0999 V2000
   37.4680   31.1640   49.1720 C   0  0  0  0  0  0  0  0  0  0  0  0
   38.4570   32.1310   49.1590 C   0  0  0  0  0  0  0  0  0  0  0  0
   38.8410   32.5640   47.8930 C   0  0  0  0  0  0  0  0  0  0  0  0
   38.2460   32.0370   46.7770 N   0  0  0  0  0  0  0  0  0  0  0  0
   37.2800   31.0910   46.8400 C   0  0  0  0  0  0  0  0  0  0  0  0
   36.8890   30.6500   48.0690 N   0  0  0  0  0  0  0  0  0  0  0  0
   38.9250   32.5470   50.0200 H   0  0  0  0  0  0  0  0  0  0  0  0
   39.6040   33.3180   47.7180 H   0  0  0  0  0  0  0  0  0  0  0  0
   36.9970   30.6870   50.5180 C   0  0  0  0  0  0  0  0  0  0  0  0
   36.0350   29.6490   50.6860 C   0  0  0  0  0  0  0  0  0  0  0  0
   37.5020   29.2660   50.8450 C   0  0  0  0  0  0  0  0  0  0  0  0
   37.1830   31.4460   51.3000 H   0  0  0  0  0  0  0  0  0  0  0  0
   35.5370   29.1190   49.8490 H   0  0  0  0  0  0  0  0  0  0  0  0
   35.4190   29.6590   51.6170 H   0  0  0  0  0  0  0  0  0  0  0  0
   37.8850   29.1750   51.8790 H   0  0  0  0  0  0  0  0  0  0  0  0
   37.9970   28.6950   50.0480 H   0  0  0  0  0  0  0  0  0  0  0  0
   36.6390   30.5350   45.6560 C   0  0  0  0  0  0  0  0  0  0  0  0
   35.5660   30.8670   45.6820 H   0  0  0  0  0  0  0  0  0  0  0  0
   36.7490   29.4560   45.6090 H   0  0  0  0  0  0  0  0  0  0  0  0
   36.5610   31.5880   43.3910 C   0  0  0  0  0  0  0  0  0  0  0  0
   35.2840   31.5820   43.3150 O   0  0  0  0  0  0  0  0  0  0  0  0
   37.3040   31.1070   44.4970 N   0  0  0  0  0  0  0  0  0  0  0  0
   38.3380   31.1430   44.5230 H   0  0  0  0  0  0  0  0  0  0  0  0
   37.3550   32.1360   42.2420 C   0  0  2  0  0  3  0  0  0  0  0  0
   38.6200   32.8280   42.7010 C   0  0  0  0  0  3  0  0  0  0  0  0
   39.4560   32.1500   42.8740 H   0  0  0  0  0  0  0  0  0  0  0  0
   38.8410   33.7150   41.4710 C   0  0  0  0  0  3  0  0  0  0  0  0
   39.2230   33.0210   40.6670 H   0  0  0  0  0  0  0  0  0  0  0  0
   37.5900   34.1310   41.0650 O   0  0  0  0  0  0  0  0  0  0  0  0
   36.6240   33.3610   41.6760 C   0  0  0  0  0  3  0  0  0  0  0  0
   36.2930   33.9450   42.5820 H   0  0  0  0  0  0  0  0  0  0  0  0
  1  9  1  0  0  0  0
  2  1  1  0  0  0  0
  2  7  1  0  0  0  0
  3  2  2  0  0  0  0
  4  5  2  0  0  0  0
  4  3  1  0  0  0  0
  5  6  1  0  0  0  0
  6  1  2  0  0  0  0
  8  3  1  0  0  0  0
  9 10  1  0  0  0  0
  9 11  1  0  0  0  0
  9 12  1  0  0  0  0
 10 11  1  0  0  0  0
 10 14  1  0  0  0  0
 11 15  1  0  0  0  0
 13 10  1  0  0  0  0
 16 11  1  0  0  0  0
 17 18  1  0  0  0  0
 17  5  1  0  0  0  0
 19 17  1  0  0  0  0
 20 22  1  0  0  0  0
 21 20  2  0  0  0  0
 22 23  1  0  0  0  0
 22 17  1  0  0  0  0
 24 25  1  0  0  0  0
 24 20  1  1  0  0  0
 25 26  1  0  0  0  0
 27 25  1  0  0  0  0
 28 27  1  0  0  0  0
 29 27  1  0  0  0  0
 29 30  1  0  0  0  0
 30 24  1  0  0  0  0
 30 31  1  0  0  0  0
M  END
>  <minimizedAffinity>
-4.74292612

>  <minimizedRMSD>
4.27736044

$$$$
