
 OpenBabel03272503423D

 40 43  0  0  1  0  0  0  0  0999 V2000
   38.3650   31.1750   45.8730 C   0  0  0  0  0  0  0  0  0  0  0  0
   39.7090   31.0520   46.0960 C   0  0  0  0  0  0  0  0  0  0  0  0
   40.3000   31.4790   44.8970 C   0  0  0  0  0  0  0  0  0  0  0  0
   39.3370   31.8270   44.0340 N   0  0  0  0  0  0  0  0  0  0  0  0
   38.1600   31.6420   44.6280 N   0  0  0  0  0  0  0  0  0  0  0  0
   40.2430   30.7110   46.9750 H   0  0  0  0  0  0  0  0  0  0  0  0
   41.3770   31.4910   44.7770 H   0  0  0  0  0  0  0  0  0  0  0  0
   39.9550   31.1570   41.7730 C   0  0  2  0  0  0  0  0  0  0  0  0
   39.6170   32.3110   42.7060 C   0  0  1  0  0  0  0  0  0  0  0  0
   38.3770   32.8120   41.9960 C   0  0  0  0  0  0  0  0  0  0  0  0
   38.5830   32.6590   40.6460 O   0  0  0  0  0  0  0  0  0  0  0  0
   39.6670   31.8650   40.4330 C   0  0  0  0  0  0  0  0  0  0  0  0
   40.9850   30.8340   41.7940 H   0  0  0  0  0  0  0  0  0  0  0  0
   40.3720   33.0910   42.7120 H   0  0  0  0  0  0  0  0  0  0  0  0
   37.5260   32.1310   42.2550 H   0  0  0  0  0  0  0  0  0  0  0  0
   38.1620   33.8580   42.2360 H   0  0  0  0  0  0  0  0  0  0  0  0
   39.4930   31.0530   39.6890 H   0  0  0  0  0  0  0  0  0  0  0  0
   40.5670   32.4620   40.1520 H   0  0  0  0  0  0  0  0  0  0  0  0
   39.0090   30.1760   41.9640 O   0  0  0  0  0  0  0  0  0  0  0  0
   39.4580   28.9100   42.0870 C   0  0  1  0  0  3  0  0  0  0  0  0
   38.9890   28.1400   43.2990 C   0  0  0  0  0  3  0  0  0  0  0  0
   37.8950   28.1490   43.4030 H   0  0  0  0  0  0  0  0  0  0  0  0
   39.4120   26.7480   42.8570 C   0  0  0  0  0  3  0  0  0  0  0  0
   40.5040   26.6720   43.1130 H   0  0  0  0  0  0  0  0  0  0  0  0
   39.3020   26.6880   41.4920 O   0  0  0  0  0  0  0  0  0  0  0  0
   39.0710   27.9540   41.0010 C   0  0  0  0  0  3  0  0  0  0  0  0
   38.0160   28.0020   40.7070 H   0  0  0  0  0  0  0  0  0  0  0  0
   36.4880   30.6150   49.0730 C   0  0  0  0  0  0  0  0  0  0  0  0
   37.5010   30.9340   48.2020 C   0  0  0  0  0  0  0  0  0  0  0  0
   37.3290   30.8500   46.8360 C   0  0  0  0  0  0  0  0  0  0  0  0
   36.1220   30.4390   46.4010 N   0  0  0  0  0  0  0  0  0  0  0  0
   35.1180   30.1230   47.2710 C   0  0  0  0  0  0  0  0  0  0  0  0
   35.2850   30.2050   48.5750 N   0  0  0  0  0  0  0  0  0  0  0  0
   38.5010   31.2730   48.5160 H   0  0  0  0  0  0  0  0  0  0  0  0
   34.1610   29.7960   46.8620 H   0  0  0  0  0  0  0  0  0  0  0  0
   36.8300   30.7550   50.4070 O   0  0  0  0  0  0  0  0  0  0  0  0
   36.8910   29.6810   51.3190 C   0  0  0  0  0  0  0  0  0  0  0  0
   35.6110   29.2380   51.6420 F   0  0  0  0  0  0  0  0  0  0  0  0
   37.5720   30.0890   52.4390 F   0  0  0  0  0  0  0  0  0  0  0  0
   37.6050   28.6620   50.7310 F   0  0  0  0  0  0  0  0  0  0  0  0
  1  2  1  0  0  0  0
  1 30  1  0  0  0  0
  2  6  1  0  0  0  0
  3  2  2  0  0  0  0
  4  5  1  0  0  0  0
  4  3  1  0  0  0  0
  5  1  2  0  0  0  0
  7  3  1  0  0  0  0
  8 13  1  1  0  0  0
  8 19  1  0  0  0  0
  8  9  1  0  0  0  0
  9 14  1  1  0  0  0
  9  4  1  0  0  0  0
 10 16  1  0  0  0  0
 10 15  1  0  0  0  0
 10  9  1  0  0  0  0
 11 10  1  0  0  0  0
 12 11  1  0  0  0  0
 12  8  1  0  0  0  0
 17 12  1  0  0  0  0
 18 12  1  0  0  0  0
 20 19  1  6  0  0  0
 20 21  1  0  0  0  0
 21 22  1  0  0  0  0
 23 24  1  0  0  0  0
 23 21  1  0  0  0  0
 25 23  1  0  0  0  0
 26 25  1  0  0  0  0
 26 20  1  0  0  0  0
 27 26  1  0  0  0  0
 28 36  1  0  0  0  0
 29 34  1  0  0  0  0
 29 28  2  0  0  0  0
 30 29  1  0  0  0  0
 31 30  2  0  0  0  0
 31 32  1  0  0  0  0
 32 33  2  0  0  0  0
 33 28  1  0  0  0  0
 35 32  1  0  0  0  0
 36 37  1  0  0  0  0
 37 38  1  0  0  0  0
 37 39  1  0  0  0  0
 40 37  1  0  0  0  0
M  END
>  <minimizedAffinity>
-6.12234402

>  <minimizedRMSD>
0.664314508

$$$$
