
 OpenBabel03272503423D

 40 43  0  0  1  0  0  0  0  0999 V2000
   38.4590   31.1410   45.8830 C   0  0  0  0  0  0  0  0  0  0  0  0
   39.7980   31.0560   46.1510 C   0  0  0  0  0  0  0  0  0  0  0  0
   40.4170   31.4400   44.9510 C   0  0  0  0  0  0  0  0  0  0  0  0
   39.4740   31.7290   44.0450 N   0  0  0  0  0  0  0  0  0  0  0  0
   38.2830   31.5480   44.6120 N   0  0  0  0  0  0  0  0  0  0  0  0
   40.3110   30.7650   47.0590 H   0  0  0  0  0  0  0  0  0  0  0  0
   41.4960   31.4680   44.8620 H   0  0  0  0  0  0  0  0  0  0  0  0
   40.1080   30.9640   41.8190 C   0  0  2  0  0  0  0  0  0  0  0  0
   39.7850   32.1580   42.7050 C   0  0  1  0  0  0  0  0  0  0  0  0
   38.5670   32.6630   41.9590 C   0  0  0  0  0  0  0  0  0  0  0  0
   38.7890   32.4570   40.6190 O   0  0  0  0  0  0  0  0  0  0  0  0
   39.8570   31.6300   40.4500 C   0  0  0  0  0  0  0  0  0  0  0  0
   41.1300   30.6180   41.8670 H   0  0  0  0  0  0  0  0  0  0  0  0
   40.5570   32.9210   42.6950 H   0  0  0  0  0  0  0  0  0  0  0  0
   37.6970   32.0110   42.2280 H   0  0  0  0  0  0  0  0  0  0  0  0
   38.3740   33.7210   42.1580 H   0  0  0  0  0  0  0  0  0  0  0  0
   39.6740   30.7960   39.7330 H   0  0  0  0  0  0  0  0  0  0  0  0
   40.7740   32.1960   40.1620 H   0  0  0  0  0  0  0  0  0  0  0  0
   39.1370   30.0130   42.0310 O   0  0  0  0  0  0  0  0  0  0  0  0
   39.5530   28.7400   42.1940 C   0  0  1  0  0  3  0  0  0  0  0  0
   38.9000   27.9530   43.3060 C   0  0  0  0  0  3  0  0  0  0  0  0
   37.8030   27.9700   43.2440 H   0  0  0  0  0  0  0  0  0  0  0  0
   39.3750   26.5650   42.9040 C   0  0  0  0  0  3  0  0  0  0  0  0
   40.4160   26.4740   43.3200 H   0  0  0  0  0  0  0  0  0  0  0  0
   39.4730   26.5320   41.5380 O   0  0  0  0  0  0  0  0  0  0  0  0
   39.3280   27.8110   41.0430 C   0  0  0  0  0  3  0  0  0  0  0  0
   38.3300   27.8740   40.5940 H   0  0  0  0  0  0  0  0  0  0  0  0
   36.5190   30.6240   49.0520 C   0  0  0  0  0  0  0  0  0  0  0  0
   37.5520   30.9210   48.1970 C   0  0  0  0  0  0  0  0  0  0  0  0
   37.4010   30.8380   46.8290 C   0  0  0  0  0  0  0  0  0  0  0  0
   36.1940   30.4510   46.3740 N   0  0  0  0  0  0  0  0  0  0  0  0
   35.1690   30.1570   47.2280 C   0  0  0  0  0  0  0  0  0  0  0  0
   35.3160   30.2380   48.5340 N   0  0  0  0  0  0  0  0  0  0  0  0
   38.5530   31.2400   48.5270 H   0  0  0  0  0  0  0  0  0  0  0  0
   34.2120   29.8490   46.8030 H   0  0  0  0  0  0  0  0  0  0  0  0
   36.8410   30.7590   50.3910 O   0  0  0  0  0  0  0  0  0  0  0  0
   36.8960   29.6810   51.2980 C   0  0  0  0  0  0  0  0  0  0  0  0
   35.6140   29.2480   51.6250 F   0  0  0  0  0  0  0  0  0  0  0  0
   37.5860   30.0780   52.4170 F   0  0  0  0  0  0  0  0  0  0  0  0
   37.5990   28.6580   50.7030 F   0  0  0  0  0  0  0  0  0  0  0  0
  1  2  1  0  0  0  0
  1 30  1  0  0  0  0
  2  6  1  0  0  0  0
  3  2  2  0  0  0  0
  4  5  1  0  0  0  0
  4  3  1  0  0  0  0
  5  1  2  0  0  0  0
  7  3  1  0  0  0  0
  8 13  1  1  0  0  0
  8 19  1  0  0  0  0
  8  9  1  0  0  0  0
  9 14  1  6  0  0  0
  9  4  1  0  0  0  0
 10 16  1  0  0  0  0
 10 15  1  0  0  0  0
 10  9  1  0  0  0  0
 11 10  1  0  0  0  0
 12 11  1  0  0  0  0
 12  8  1  0  0  0  0
 17 12  1  0  0  0  0
 18 12  1  0  0  0  0
 20 19  1  6  0  0  0
 20 21  1  0  0  0  0
 22 21  1  0  0  0  0
 23 21  1  0  0  0  0
 23 24  1  0  0  0  0
 25 23  1  0  0  0  0
 26 25  1  0  0  0  0
 26 20  1  0  0  0  0
 27 26  1  0  0  0  0
 28 36  1  0  0  0  0
 29 34  1  0  0  0  0
 29 28  2  0  0  0  0
 30 29  1  0  0  0  0
 31 30  2  0  0  0  0
 31 32  1  0  0  0  0
 32 33  2  0  0  0  0
 33 28  1  0  0  0  0
 35 32  1  0  0  0  0
 36 37  1  0  0  0  0
 37 38  1  0  0  0  0
 37 39  1  0  0  0  0
 40 37  1  0  0  0  0
M  END
>  <minimizedAffinity>
-6.16960001

>  <minimizedRMSD>
0.459140867

$$$$
