
 OpenBabel03272507413D

 40 43  0  0  1  0  0  0  0  0999 V2000
   36.7590   32.2230   49.1240 O   0  0  0  0  0  0  0  0  0  0  0  0
   38.2380   32.1740   47.1290 C   0  0  0  0  0  0  0  0  0  0  0  0
   37.8750   32.6160   48.3860 C   0  0  0  0  0  0  0  0  0  0  0  0
   38.6550   33.5520   49.0560 C   0  0  0  0  0  0  0  0  0  0  0  0
   39.8040   34.0390   48.4480 C   0  0  0  0  0  0  0  0  0  0  0  0
   40.1610   33.5940   47.1890 C   0  0  0  0  0  0  0  0  0  0  0  0
   39.3620   32.6660   46.5600 C   0  0  0  0  0  0  0  0  0  0  0  0
   38.4490   33.9430   50.0230 H   0  0  0  0  0  0  0  0  0  0  0  0
   40.4380   34.7710   48.9380 H   0  0  0  0  0  0  0  0  0  0  0  0
   41.0390   33.9440   46.6820 H   0  0  0  0  0  0  0  0  0  0  0  0
   39.7570   32.1980   45.2120 C   0  0  0  0  0  0  0  0  0  0  0  0
   40.5970   31.1720   44.8520 C   0  0  0  0  0  0  0  0  0  0  0  0
   40.6290   31.1480   43.4610 C   0  0  0  0  0  0  0  0  0  0  0  0
   39.8000   32.1690   43.0570 C   0  0  0  0  0  0  0  0  0  0  0  0
   39.2950   32.7770   44.1140 O   0  0  0  0  0  0  0  0  0  0  0  0
   41.1110   30.5350   45.5710 H   0  0  0  0  0  0  0  0  0  0  0  0
   41.2120   30.4400   42.8820 H   0  0  0  0  0  0  0  0  0  0  0  0
   39.6050   32.4190   42.0160 H   0  0  0  0  0  0  0  0  0  0  0  0
   36.7000   30.4410   46.0100 N   0  0  0  0  0  0  0  0  0  0  0  0
   37.3820   31.2160   46.5190 C   0  0  0  0  0  0  0  0  0  0  0  0
   36.7530   31.2140   50.0260 C   0  0  0  0  0  0  0  0  0  0  0  0
   35.7230   30.3100   49.7910 C   0  0  0  0  0  0  0  0  0  0  0  0
   35.5490   29.2020   50.6100 C   0  0  0  0  0  0  0  0  0  0  0  0
   36.4280   29.0440   51.6460 N   0  0  0  0  0  0  0  0  0  0  0  0
   37.4260   29.9420   51.8540 C   0  0  0  0  0  0  0  0  0  0  0  0
   37.5740   30.9970   51.0550 N   0  0  0  0  0  0  0  0  0  0  0  0
   34.7970   28.4590   50.5140 H   0  0  0  0  0  0  0  0  0  0  0  0
   38.1240   29.8260   52.6690 H   0  0  0  0  0  0  0  0  0  0  0  0
   34.3330   29.1810   48.1270 C   0  0  0  0  0  0  0  0  0  0  0  0
   34.6740   27.9420   48.2400 O   0  0  0  0  0  0  0  0  0  0  0  0
   34.7750   30.3680   48.7710 N   0  0  0  0  0  0  0  0  0  0  0  0
   34.3420   31.2530   48.4260 H   0  0  0  0  0  0  0  0  0  0  0  0
   33.2490   29.2570   47.0760 C   0  0  1  0  0  3  0  0  0  0  0  0
   33.1210   30.6220   46.4870 C   0  0  0  0  0  3  0  0  0  0  0  0
   34.1620   31.0160   46.3300 H   0  0  0  0  0  0  0  0  0  0  0  0
   32.4970   30.2900   45.1500 C   0  0  0  0  0  3  0  0  0  0  0  0
   31.3880   30.2150   45.3360 H   0  0  0  0  0  0  0  0  0  0  0  0
   32.9580   29.0360   44.7840 O   0  0  0  0  0  0  0  0  0  0  0  0
   33.6020   28.4520   45.8530 C   0  0  0  0  0  3  0  0  0  0  0  0
   33.2860   27.3850   45.9420 H   0  0  0  0  0  0  0  0  0  0  0  0
  1 21  1  0  0  0  0
  2  3  1  0  0  0  0
  3  4  2  0  0  0  0
  3  1  1  0  0  0  0
  4  8  1  0  0  0  0
  5  9  1  0  0  0  0
  5  4  1  0  0  0  0
  6  5  2  0  0  0  0
  7  2  2  0  0  0  0
  7  6  1  0  0  0  0
 10  6  1  0  0  0  0
 11  7  1  0  0  0  0
 12 11  2  0  0  0  0
 12 16  1  0  0  0  0
 13 12  1  0  0  0  0
 14 13  2  0  0  0  0
 14 15  1  0  0  0  0
 15 11  1  0  0  0  0
 17 13  1  0  0  0  0
 18 14  1  0  0  0  0
 19 20  3  0  0  0  0
 20  2  1  0  0  0  0
 21 26  1  0  0  0  0
 22 21  2  0  0  0  0
 22 23  1  0  0  0  0
 23 24  2  0  0  0  0
 24 25  1  0  0  0  0
 25 28  1  0  0  0  0
 26 25  2  0  0  0  0
 27 23  1  0  0  0  0
 29 30  2  0  0  0  0
 29 31  1  0  0  0  0
 31 22  1  0  0  0  0
 32 31  1  0  0  0  0
 33 29  1  1  0  0  0
 34 33  1  0  0  0  0
 35 34  1  0  0  0  0
 36 37  1  0  0  0  0
 36 34  1  0  0  0  0
 38 36  1  0  0  0  0
 38 39  1  0  0  0  0
 39 40  1  0  0  0  0
 39 33  1  0  0  0  0
M  END
>  <minimizedAffinity>
-5.8238802

>  <minimizedRMSD>
1.00602961

$$$$
