
 OpenBabel03272503423D

 40 43  0  0  1  0  0  0  0  0999 V2000
   38.3990   31.2000   45.8950 C   0  0  0  0  0  0  0  0  0  0  0  0
   39.7410   31.1300   46.1470 C   0  0  0  0  0  0  0  0  0  0  0  0
   40.3420   31.5400   44.9460 C   0  0  0  0  0  0  0  0  0  0  0  0
   39.3840   31.8280   44.0550 N   0  0  0  0  0  0  0  0  0  0  0  0
   38.2020   31.6220   44.6320 N   0  0  0  0  0  0  0  0  0  0  0  0
   40.2680   30.8340   47.0460 H   0  0  0  0  0  0  0  0  0  0  0  0
   41.4190   31.5850   44.8470 H   0  0  0  0  0  0  0  0  0  0  0  0
   40.0300   31.1060   41.8180 C   0  0  2  0  0  0  0  0  0  0  0  0
   39.6750   32.2810   42.7180 C   0  0  1  0  0  0  0  0  0  0  0  0
   38.4370   32.7540   41.9830 C   0  0  0  0  0  0  0  0  0  0  0  0
   38.6590   32.5690   40.6400 O   0  0  0  0  0  0  0  0  0  0  0  0
   39.7510   31.7780   40.4570 C   0  0  0  0  0  0  0  0  0  0  0  0
   41.0630   30.7920   41.8580 H   0  0  0  0  0  0  0  0  0  0  0  0
   40.4230   33.0670   42.7120 H   0  0  0  0  0  0  0  0  0  0  0  0
   37.5900   32.0730   42.2500 H   0  0  0  0  0  0  0  0  0  0  0  0
   38.2130   33.8040   42.1940 H   0  0  0  0  0  0  0  0  0  0  0  0
   39.5900   30.9460   39.7320 H   0  0  0  0  0  0  0  0  0  0  0  0
   40.6490   32.3750   40.1710 H   0  0  0  0  0  0  0  0  0  0  0  0
   39.0900   30.1240   42.0250 O   0  0  0  0  0  0  0  0  0  0  0  0
   39.5490   28.8680   42.2110 C   0  0  1  0  0  3  0  0  0  0  0  0
   38.8480   28.0420   43.2640 C   0  0  0  0  0  3  0  0  0  0  0  0
   37.7590   28.0120   43.1150 H   0  0  0  0  0  0  0  0  0  0  0  0
   39.4150   26.6810   42.8910 C   0  0  0  0  0  3  0  0  0  0  0  0
   40.4230   26.6310   43.3870 H   0  0  0  0  0  0  0  0  0  0  0  0
   39.6190   26.6660   41.5360 O   0  0  0  0  0  0  0  0  0  0  0  0
   39.4570   27.9410   41.0400 C   0  0  0  0  0  3  0  0  0  0  0  0
   38.4950   27.9660   40.5150 H   0  0  0  0  0  0  0  0  0  0  0  0
   36.4960   30.6250   49.0770 C   0  0  0  0  0  0  0  0  0  0  0  0
   37.5160   30.9490   48.2150 C   0  0  0  0  0  0  0  0  0  0  0  0
   37.3550   30.8700   46.8480 C   0  0  0  0  0  0  0  0  0  0  0  0
   36.1530   30.4580   46.4010 N   0  0  0  0  0  0  0  0  0  0  0  0
   35.1420   30.1370   47.2620 C   0  0  0  0  0  0  0  0  0  0  0  0
   35.2980   30.2140   48.5670 N   0  0  0  0  0  0  0  0  0  0  0  0
   38.5120   31.2890   48.5390 H   0  0  0  0  0  0  0  0  0  0  0  0
   34.1890   29.8100   46.8430 H   0  0  0  0  0  0  0  0  0  0  0  0
   36.8260   30.7610   50.4140 O   0  0  0  0  0  0  0  0  0  0  0  0
   36.8840   29.6830   51.3220 C   0  0  0  0  0  0  0  0  0  0  0  0
   35.6040   29.2370   51.6370 F   0  0  0  0  0  0  0  0  0  0  0  0
   37.5590   30.0880   52.4470 F   0  0  0  0  0  0  0  0  0  0  0  0
   37.6040   28.6680   50.7340 F   0  0  0  0  0  0  0  0  0  0  0  0
  1  2  1  0  0  0  0
  1 30  1  0  0  0  0
  2  6  1  0  0  0  0
  3  2  2  0  0  0  0
  4  5  1  0  0  0  0
  4  3  1  0  0  0  0
  5  1  2  0  0  0  0
  7  3  1  0  0  0  0
  8 13  1  1  0  0  0
  8 19  1  0  0  0  0
  8  9  1  0  0  0  0
  9 14  1  6  0  0  0
  9  4  1  0  0  0  0
 10 16  1  0  0  0  0
 10 15  1  0  0  0  0
 10  9  1  0  0  0  0
 11 10  1  0  0  0  0
 12 11  1  0  0  0  0
 12  8  1  0  0  0  0
 17 12  1  0  0  0  0
 18 12  1  0  0  0  0
 20 19  1  6  0  0  0
 20 21  1  0  0  0  0
 22 21  1  0  0  0  0
 23 21  1  0  0  0  0
 23 24  1  0  0  0  0
 25 23  1  0  0  0  0
 26 25  1  0  0  0  0
 26 20  1  0  0  0  0
 27 26  1  0  0  0  0
 28 36  1  0  0  0  0
 29 34  1  0  0  0  0
 29 28  2  0  0  0  0
 30 29  1  0  0  0  0
 31 30  2  0  0  0  0
 31 32  1  0  0  0  0
 32 33  2  0  0  0  0
 33 28  1  0  0  0  0
 35 32  1  0  0  0  0
 36 37  1  0  0  0  0
 37 38  1  0  0  0  0
 37 39  1  0  0  0  0
 40 37  1  0  0  0  0
M  END
>  <minimizedAffinity>
-6.16817999

>  <minimizedRMSD>
0.477514774

$$$$
