
 OpenBabel03272506153D

 27 29  0  0  1  0  0  0  0  0999 V2000
   37.7690   31.3840   49.9610 C   0  0  0  0  0  0  0  0  0  0  0  0
   38.7270   32.3670   49.6020 C   0  0  0  0  0  0  0  0  0  0  0  0
   38.8250   32.7300   48.2410 C   0  0  0  0  0  0  0  0  0  0  0  0
   37.9930   32.1130   47.3700 N   0  0  0  0  0  0  0  0  0  0  0  0
   37.0980   31.1860   47.7560 C   0  0  0  0  0  0  0  0  0  0  0  0
   36.9740   30.8130   49.0390 N   0  0  0  0  0  0  0  0  0  0  0  0
   36.2250   30.5390   46.8340 N   0  0  0  0  0  0  0  0  0  0  0  0
   36.5790   30.4760   45.5340 C   0  0  0  0  0  0  0  0  0  0  0  0
   35.6830   29.8360   44.7110 C   0  0  0  0  0  0  0  0  0  0  0  0
   34.4900   29.2810   45.1440 C   0  0  0  0  0  0  0  0  0  0  0  0
   33.6970   28.7070   44.3700 O   0  0  0  0  0  0  0  0  0  0  0  0
   34.1740   29.3710   46.4780 N   0  0  0  0  0  0  0  0  0  0  0  0
   35.0660   30.0020   47.2610 C   0  0  0  0  0  0  0  0  0  0  0  0
   34.8120   30.1070   48.5000 O   0  0  0  0  0  0  0  0  0  0  0  0
   37.6680   31.0840   50.9890 H   0  0  0  0  0  0  0  0  0  0  0  0
   39.3630   32.8200   50.3650 H   0  0  0  0  0  0  0  0  0  0  0  0
   39.5480   33.4760   47.9500 H   0  0  0  0  0  0  0  0  0  0  0  0
   37.5040   30.8990   45.1630 H   0  0  0  0  0  0  0  0  0  0  0  0
   35.8900   29.7410   43.6500 H   0  0  0  0  0  0  0  0  0  0  0  0
   32.9580   28.8270   47.0250 C   0  0  1  0  0  3  0  0  0  0  0  0
   31.7080   29.2660   46.2910 C   0  0  0  0  0  3  0  0  0  0  0  0
   31.8210   29.2100   45.1950 H   0  0  0  0  0  0  0  0  0  0  0  0
   30.7650   28.1580   46.7370 C   0  0  0  0  0  3  0  0  0  0  0  0
   29.8630   28.1100   46.0920 H   0  0  0  0  0  0  0  0  0  0  0  0
   31.5080   27.0060   46.7420 O   0  0  0  0  0  0  0  0  0  0  0  0
   32.8440   27.3430   46.8750 C   0  0  0  0  0  3  0  0  0  0  0  0
   33.2140   26.7800   47.7540 H   0  0  0  0  0  0  0  0  0  0  0  0
  1 15  1  0  0  0  0
  2  1  1  0  0  0  0
  2 16  1  0  0  0  0
  3  2  2  0  0  0  0
  4  5  2  0  0  0  0
  4  3  1  0  0  0  0
  5  6  1  0  0  0  0
  6  1  2  0  0  0  0
  7 13  1  0  0  0  0
  7  5  1  0  0  0  0
  8  7  1  0  0  0  0
  9 10  1  0  0  0  0
  9  8  2  0  0  0  0
 10 12  1  0  0  0  0
 11 10  2  0  0  0  0
 12 13  1  0  0  0  0
 13 14  2  0  0  0  0
 17  3  1  0  0  0  0
 18  8  1  0  0  0  0
 19  9  1  0  0  0  0
 20 12  1  6  0  0  0
 21 23  1  0  0  0  0
 21 20  1  0  0  0  0
 22 21  1  0  0  0  0
 23 25  1  0  0  0  0
 24 23  1  0  0  0  0
 25 26  1  0  0  0  0
 26 20  1  0  0  0  0
 26 27  1  0  0  0  0
M  END
>  <minimizedAffinity>
-4.58637953

>  <minimizedRMSD>
3.01320672

$$$$
