
 OpenBabel03272506413D

 18 19  0  0  1  0  0  0  0  0999 V2000
   37.3260   30.2010   51.3950 C   0  0  0  0  0  0  0  0  0  0  0  0
   38.1430   30.7210   50.3700 C   0  0  0  0  0  0  0  0  0  0  0  0
   37.7790   30.4930   49.0390 C   0  0  0  0  0  0  0  0  0  0  0  0
   36.6510   29.7770   48.8000 N   0  0  0  0  0  0  0  0  0  0  0  0
   35.8820   29.2870   49.7900 C   0  0  0  0  0  0  0  0  0  0  0  0
   36.2240   29.5020   51.0720 N   0  0  0  0  0  0  0  0  0  0  0  0
   37.6420   30.3970   52.4020 H   0  0  0  0  0  0  0  0  0  0  0  0
   39.0500   31.2950   50.5370 H   0  0  0  0  0  0  0  0  0  0  0  0
   38.3550   30.8600   48.2060 H   0  0  0  0  0  0  0  0  0  0  0  0
   34.4020   28.3470   49.4750 S   0  0  0  0  0  0  0  0  0  0  0  0
   34.2370   28.1070   47.7130 C   0  0  2  0  0  3  0  0  0  0  0  0
   33.3530   29.1690   47.0460 C   0  0  0  0  0  3  0  0  0  0  0  0
   33.8950   30.0990   46.8290 H   0  0  0  0  0  0  0  0  0  0  0  0
   33.0780   28.3660   45.7650 C   0  0  0  0  0  3  0  0  0  0  0  0
   34.0750   28.0730   45.3900 H   0  0  0  0  0  0  0  0  0  0  0  0
   32.5350   27.2180   46.3590 O   0  0  0  0  0  0  0  0  0  0  0  0
   33.4120   26.8750   47.3710 C   0  0  0  0  0  3  0  0  0  0  0  0
   34.0430   26.0510   46.9770 H   0  0  0  0  0  0  0  0  0  0  0  0
  1  7  1  0  0  0  0
  2  8  1  0  0  0  0
  2  1  2  0  0  0  0
  3  2  1  0  0  0  0
  4  3  2  0  0  0  0
  4  5  1  0  0  0  0
  5  6  2  0  0  0  0
  6  1  1  0  0  0  0
  9  3  1  0  0  0  0
 10  5  1  0  0  0  0
 11 10  1  1  0  0  0
 12 11  1  0  0  0  0
 13 12  1  0  0  0  0
 14 16  1  0  0  0  0
 14 12  1  0  0  0  0
 15 14  1  0  0  0  0
 16 17  1  0  0  0  0
 17 11  1  0  0  0  0
 18 17  1  0  0  0  0
M  END
>  <minimizedAffinity>
-3.59367871

>  <minimizedRMSD>
0.24344267

$$$$
