
 OpenBabel03272503243D

 31 33  0  0  1  0  0  0  0  0999 V2000
   36.5030   29.8570   49.2970 N   0  0  0  0  0  0  0  0  0  0  0  0
   37.1500   31.1160   49.1370 C   0  0  1  0  0  0  0  0  0  0  0  0
   37.7640   31.3900   50.4990 C   0  0  0  0  0  0  0  0  0  0  0  0
   37.3420   30.1820   51.3630 C   0  0  0  0  0  0  0  0  0  0  0  0
   37.2320   29.1340   50.3060 C   0  0  0  0  0  0  0  0  0  0  0  0
   36.3860   31.9540   49.0260 H   0  0  0  0  0  0  0  0  0  0  0  0
   38.8630   31.3210   50.3560 H   0  0  0  0  0  0  0  0  0  0  0  0
   37.4720   32.3420   50.9450 H   0  0  0  0  0  0  0  0  0  0  0  0
   38.1890   29.9730   52.0330 H   0  0  0  0  0  0  0  0  0  0  0  0
   36.3860   30.3830   51.8820 H   0  0  0  0  0  0  0  0  0  0  0  0
   38.2250   28.8030   49.9890 H   0  0  0  0  0  0  0  0  0  0  0  0
   36.6490   28.2540   50.6680 H   0  0  0  0  0  0  0  0  0  0  0  0
   35.3470   29.4140   48.5950 C   0  0  0  0  0  0  0  0  0  0  0  0
   34.7090   30.3250   47.7390 C   0  0  0  0  0  0  0  0  0  0  0  0
   33.5720   29.9180   47.0330 C   0  0  0  0  0  0  0  0  0  0  0  0
   33.1570   28.6260   47.2340 N   0  0  0  0  0  0  0  0  0  0  0  0
   33.7960   27.7720   48.0670 C   0  0  0  0  0  0  0  0  0  0  0  0
   34.9150   28.1570   48.7700 N   0  0  0  0  0  0  0  0  0  0  0  0
   35.0340   31.3370   47.5810 H   0  0  0  0  0  0  0  0  0  0  0  0
   33.0790   30.6000   46.3810 H   0  0  0  0  0  0  0  0  0  0  0  0
   33.3890   26.7750   48.1570 H   0  0  0  0  0  0  0  0  0  0  0  0
   38.0670   31.2430   48.0060 C   0  0  0  0  0  0  0  0  0  0  0  0
   38.8980   32.1520   48.1670 O   0  0  0  0  0  0  0  0  0  0  0  0
   38.2760   30.5710   46.6850 C   0  0  1  0  0  3  0  0  0  0  0  0
   37.3910   30.9970   45.5830 C   0  0  0  0  0  3  0  0  0  0  0  0
   36.4790   30.3850   45.4490 H   0  0  0  0  0  0  0  0  0  0  0  0
   38.2540   30.6880   44.3600 C   0  0  0  0  0  3  0  0  0  0  0  0
   38.0030   29.6790   43.9460 H   0  0  0  0  0  0  0  0  0  0  0  0
   39.5510   30.6190   44.7930 O   0  0  0  0  0  0  0  0  0  0  0  0
   39.6180   30.9660   46.1110 C   0  0  0  0  0  3  0  0  0  0  0  0
   40.4130   30.4350   46.6760 H   0  0  0  0  0  0  0  0  0  0  0  0
  1  5  1  0  0  0  0
  2  6  1  6  0  0  0
  2  1  1  0  0  0  0
  2  3  1  0  0  0  0
  3  8  1  0  0  0  0
  3  4  1  0  0  0  0
  4 10  1  0  0  0  0
  4  9  1  0  0  0  0
  5 12  1  0  0  0  0
  5  4  1  0  0  0  0
  7  3  1  0  0  0  0
 11  5  1  0  0  0  0
 13 18  1  0  0  0  0
 13  1  1  0  0  0  0
 14 13  2  0  0  0  0
 15 16  2  0  0  0  0
 15 14  1  0  0  0  0
 16 17  1  0  0  0  0
 17 21  1  0  0  0  0
 17 18  2  0  0  0  0
 19 14  1  0  0  0  0
 20 15  1  0  0  0  0
 22 23  2  0  0  0  0
 22  2  1  0  0  0  0
 24 22  1  1  0  0  0
 25 24  1  0  0  0  0
 26 25  1  0  0  0  0
 27 29  1  0  0  0  0
 27 25  1  0  0  0  0
 28 27  1  0  0  0  0
 29 30  1  0  0  0  0
 30 31  1  0  0  0  0
 30 24  1  0  0  0  0
M  END
>  <minimizedAffinity>
-5.20815802

>  <minimizedRMSD>
0.915752411

$$$$
