
 OpenBabel03262523303D

 32 35  0  0  1  0  0  0  0  0999 V2000
   36.1030   29.1420   49.7560 C   0  0  0  0  0  0  0  0  0  0  0  0
   36.9670   29.8780   48.9470 C   0  0  0  0  0  0  0  0  0  0  0  0
   36.5280   30.2590   47.6700 C   0  0  0  0  0  0  0  0  0  0  0  0
   35.2660   29.8900   47.2710 N   0  0  0  0  0  0  0  0  0  0  0  0
   34.4690   29.1790   48.0900 C   0  0  0  0  0  0  0  0  0  0  0  0
   34.8810   28.8110   49.3120 N   0  0  0  0  0  0  0  0  0  0  0  0
   36.4050   28.8320   50.7450 H   0  0  0  0  0  0  0  0  0  0  0  0
   37.9410   30.1610   49.2600 H   0  0  0  0  0  0  0  0  0  0  0  0
   37.1030   30.8090   45.3880 C   0  0  0  0  0  0  0  0  0  0  0  0
   37.3350   31.0260   46.7410 C   0  0  0  0  0  0  0  0  0  0  0  0
   38.2930   31.9340   47.1400 C   0  0  0  0  0  0  0  0  0  0  0  0
   39.0010   32.6090   46.1690 C   0  0  0  0  0  0  0  0  0  0  0  0
   39.9800   33.5390   46.3140 N   0  0  0  0  0  0  0  0  0  0  0  0
   40.3630   33.9060   45.0840 C   0  0  0  0  0  0  0  0  0  0  0  0
   39.6610   33.2410   44.1610 N   0  0  0  0  0  0  0  0  0  0  0  0
   38.8010   32.4220   44.8080 C   0  0  0  0  0  0  0  0  0  0  0  0
   37.8310   31.5020   44.4130 C   0  0  0  0  0  0  0  0  0  0  0  0
   36.3660   30.1100   44.9960 H   0  0  0  0  0  0  0  0  0  0  0  0
   38.4770   32.1060   48.1710 H   0  0  0  0  0  0  0  0  0  0  0  0
   40.3560   33.8940   47.2330 H   0  0  0  0  0  0  0  0  0  0  0  0
   41.1340   34.6380   44.8810 H   0  0  0  0  0  0  0  0  0  0  0  0
   37.6590   31.3410   43.3600 H   0  0  0  0  0  0  0  0  0  0  0  0
   33.1430   28.8240   47.6000 C   0  0  0  0  0  0  0  0  0  0  0  0
   32.6290   29.3940   46.6130 O   0  0  0  0  0  0  0  0  0  0  0  0
   32.4850   27.7380   48.3830 C   0  0  1  0  0  3  0  0  0  0  0  0
   30.9660   27.8610   48.3350 C   0  0  0  0  0  3  0  0  0  0  0  0
   30.5800   27.9370   47.3030 H   0  0  0  0  0  0  0  0  0  0  0  0
   30.6340   26.4220   48.7580 C   0  0  0  0  0  3  0  0  0  0  0  0
   30.8120   26.3250   49.8460 H   0  0  0  0  0  0  0  0  0  0  0  0
   31.5500   25.6230   48.0940 O   0  0  0  0  0  0  0  0  0  0  0  0
   32.6340   26.3910   47.7350 C   0  0  0  0  0  3  0  0  0  0  0  0
   33.5960   25.9520   48.0220 H   0  0  0  0  0  0  0  0  0  0  0  0
  1  7  1  0  0  0  0
  2  8  1  0  0  0  0
  2  1  2  0  0  0  0
  3  2  1  0  0  0  0
  4  3  2  0  0  0  0
  4  5  1  0  0  0  0
  5  6  2  0  0  0  0
  6  1  1  0  0  0  0
  9 10  1  0  0  0  0
 10 11  2  0  0  0  0
 10  3  1  0  0  0  0
 11 19  1  0  0  0  0
 12 13  1  0  0  0  0
 12 11  1  0  0  0  0
 13 20  1  0  0  0  0
 14 13  1  0  0  0  0
 15 16  1  0  0  0  0
 15 14  2  0  0  0  0
 16 12  2  0  0  0  0
 17 16  1  0  0  0  0
 17  9  2  0  0  0  0
 18  9  1  0  0  0  0
 21 14  1  0  0  0  0
 22 17  1  0  0  0  0
 23  5  1  0  0  0  0
 24 23  2  0  0  0  0
 25 23  1  6  0  0  0
 26 25  1  0  0  0  0
 26 28  1  0  0  0  0
 27 26  1  0  0  0  0
 28 29  1  0  0  0  0
 30 28  1  0  0  0  0
 31 32  1  0  0  0  0
 31 30  1  0  0  0  0
 31 25  1  0  0  0  0
M  END
>  <minimizedAffinity>
-5.66774082

>  <minimizedRMSD>
2.50712013

$$$$
