
 OpenBabel03272503413D

 40 43  0  0  1  0  0  0  0  0999 V2000
   38.4960   31.1350   45.9660 C   0  0  0  0  0  0  0  0  0  0  0  0
   39.8130   31.2040   46.3280 C   0  0  0  0  0  0  0  0  0  0  0  0
   40.4850   31.5240   45.1380 C   0  0  0  0  0  0  0  0  0  0  0  0
   39.5900   31.6320   44.1470 N   0  0  0  0  0  0  0  0  0  0  0  0
   38.3810   31.3960   44.6500 N   0  0  0  0  0  0  0  0  0  0  0  0
   40.2800   31.0550   47.2940 H   0  0  0  0  0  0  0  0  0  0  0  0
   41.5610   31.6460   45.1180 H   0  0  0  0  0  0  0  0  0  0  0  0
   39.9960   30.7000   41.9310 C   0  0  2  0  0  0  0  0  0  0  0  0
   39.9620   31.9540   42.7920 C   0  0  1  0  0  0  0  0  0  0  0  0
   38.8720   32.7010   42.0520 C   0  0  0  0  0  0  0  0  0  0  0  0
   39.0170   32.4230   40.7140 O   0  0  0  0  0  0  0  0  0  0  0  0
   39.8720   31.3770   40.5500 C   0  0  0  0  0  0  0  0  0  0  0  0
   40.9160   30.1370   41.9730 H   0  0  0  0  0  0  0  0  0  0  0  0
   40.8850   32.5250   42.7530 H   0  0  0  0  0  0  0  0  0  0  0  0
   37.8850   32.2640   42.3500 H   0  0  0  0  0  0  0  0  0  0  0  0
   38.9230   33.7800   42.2280 H   0  0  0  0  0  0  0  0  0  0  0  0
   39.4940   30.5900   39.8560 H   0  0  0  0  0  0  0  0  0  0  0  0
   40.8860   31.7190   40.2350 H   0  0  0  0  0  0  0  0  0  0  0  0
   38.8430   29.9930   42.1790 O   0  0  0  0  0  0  0  0  0  0  0  0
   38.9780   28.6780   42.4500 C   0  0  1  0  0  3  0  0  0  0  0  0
   37.7040   27.9010   42.6890 C   0  0  0  0  0  3  0  0  0  0  0  0
   36.9760   28.0320   41.8760 H   0  0  0  0  0  0  0  0  0  0  0  0
   38.2770   26.4980   42.5910 C   0  0  0  0  0  3  0  0  0  0  0  0
   38.7130   26.2810   43.6060 H   0  0  0  0  0  0  0  0  0  0  0  0
   39.3140   26.5260   41.6950 O   0  0  0  0  0  0  0  0  0  0  0  0
   39.6050   27.8370   41.3830 C   0  0  0  0  0  3  0  0  0  0  0  0
   39.2220   28.0220   40.3730 H   0  0  0  0  0  0  0  0  0  0  0  0
   36.4210   30.6300   49.0500 C   0  0  0  0  0  0  0  0  0  0  0  0
   37.4880   30.9320   48.2390 C   0  0  0  0  0  0  0  0  0  0  0  0
   37.4010   30.8290   46.8670 C   0  0  0  0  0  0  0  0  0  0  0  0
   36.2210   30.4180   46.3630 N   0  0  0  0  0  0  0  0  0  0  0  0
   35.1630   30.1190   47.1730 C   0  0  0  0  0  0  0  0  0  0  0  0
   35.2490   30.2190   48.4830 N   0  0  0  0  0  0  0  0  0  0  0  0
   38.4680   31.2700   48.6100 H   0  0  0  0  0  0  0  0  0  0  0  0
   34.2310   29.7920   46.7100 H   0  0  0  0  0  0  0  0  0  0  0  0
   36.6800   30.7880   50.4010 O   0  0  0  0  0  0  0  0  0  0  0  0
   36.7620   29.7160   51.3140 C   0  0  0  0  0  0  0  0  0  0  0  0
   35.4940   29.2300   51.6170 F   0  0  0  0  0  0  0  0  0  0  0  0
   37.4110   30.1480   52.4440 F   0  0  0  0  0  0  0  0  0  0  0  0
   37.5210   28.7230   50.7390 F   0  0  0  0  0  0  0  0  0  0  0  0
  1  2  1  0  0  0  0
  1 30  1  0  0  0  0
  2  6  1  0  0  0  0
  3  2  2  0  0  0  0
  4  5  1  0  0  0  0
  4  3  1  0  0  0  0
  5  1  2  0  0  0  0
  7  3  1  0  0  0  0
  8 13  1  1  0  0  0
  8 19  1  0  0  0  0
  8  9  1  0  0  0  0
  9 14  1  6  0  0  0
  9  4  1  0  0  0  0
 10 16  1  0  0  0  0
 10 15  1  0  0  0  0
 10  9  1  0  0  0  0
 11 10  1  0  0  0  0
 12 11  1  0  0  0  0
 12  8  1  0  0  0  0
 17 12  1  0  0  0  0
 18 12  1  0  0  0  0
 20 19  1  6  0  0  0
 20 21  1  0  0  0  0
 22 21  1  0  0  0  0
 23 21  1  0  0  0  0
 23 24  1  0  0  0  0
 25 23  1  0  0  0  0
 26 25  1  0  0  0  0
 26 20  1  0  0  0  0
 27 26  1  0  0  0  0
 28 36  1  0  0  0  0
 29 34  1  0  0  0  0
 29 28  2  0  0  0  0
 30 29  1  0  0  0  0
 31 30  2  0  0  0  0
 31 32  1  0  0  0  0
 32 33  2  0  0  0  0
 33 28  1  0  0  0  0
 35 32  1  0  0  0  0
 36 37  1  0  0  0  0
 37 38  1  0  0  0  0
 37 39  1  0  0  0  0
 40 37  1  0  0  0  0
M  END
>  <minimizedAffinity>
-6.00842237

>  <minimizedRMSD>
0.100095123

$$$$
