
 OpenBabel03272502303D

 23 24  0  0  1  0  0  0  0  0999 V2000
   39.3890   32.3210   46.3800 C   0  0  0  0  0  0  0  0  0  0  0  0
   39.7480   33.3660   46.4700 H   0  0  0  0  0  0  0  0  0  0  0  0
   40.2450   31.6590   46.0990 H   0  0  0  0  0  0  0  0  0  0  0  0
   38.0860   30.7390   47.7420 C   0  0  0  0  0  3  0  0  0  0  0  0
   38.7660   31.8520   47.6570 C   0  0  0  0  0  3  0  0  0  0  0  0
   37.3770   30.2160   51.3490 C   0  0  0  0  0  0  0  0  0  0  0  0
   38.0210   30.6850   50.1930 C   0  0  0  0  0  0  0  0  0  0  0  0
   37.4990   30.3110   48.9760 C   0  0  0  0  0  0  0  0  0  0  0  0
   36.3960   29.5150   48.9220 N   0  0  0  0  0  0  0  0  0  0  0  0
   35.8050   29.0850   50.0620 C   0  0  0  0  0  0  0  0  0  0  0  0
   36.2850   29.4270   51.2690 N   0  0  0  0  0  0  0  0  0  0  0  0
   37.7990   30.5180   52.3210 H   0  0  0  0  0  0  0  0  0  0  0  0
   38.8950   31.3160   50.2700 H   0  0  0  0  0  0  0  0  0  0  0  0
   34.9310   28.4550   49.9340 H   0  0  0  0  0  0  0  0  0  0  0  0
   38.1470   32.3240   45.0520 S   0  0  0  0  0  0  0  0  0  0  0  0
   38.8560   31.4970   43.6160 C   0  0  1  0  0  3  0  0  0  0  0  0
   40.3780   31.3860   43.7160 C   0  0  0  0  0  3  0  0  0  0  0  0
   40.6300   31.1410   44.7660 H   0  0  0  0  0  0  0  0  0  0  0  0
   40.6160   30.1250   42.9090 C   0  0  0  0  0  3  0  0  0  0  0  0
   40.5240   30.3730   41.8280 H   0  0  0  0  0  0  0  0  0  0  0  0
   39.5890   29.3060   43.3490 O   0  0  0  0  0  0  0  0  0  0  0  0
   38.4540   30.0590   43.5080 C   0  0  0  0  0  3  0  0  0  0  0  0
   37.9970   29.7900   44.4930 H   0  0  0  0  0  0  0  0  0  0  0  0
  1  2  1  0  0  0  0
  1  5  1  0  0  0  0
  3  1  1  0  0  0  0
  4  8  1  0  0  0  0
  5  4  2  0  0  0  0
  6 12  1  0  0  0  0
  7 13  1  0  0  0  0
  7  6  2  0  0  0  0
  8  7  1  0  0  0  0
  9  8  2  0  0  0  0
  9 10  1  0  0  0  0
 10 11  2  0  0  0  0
 11  6  1  0  0  0  0
 14 10  1  0  0  0  0
 15  1  1  0  0  0  0
 16 17  1  0  0  0  0
 16 15  1  1  0  0  0
 17 18  1  0  0  0  0
 19 21  1  0  0  0  0
 19 17  1  0  0  0  0
 20 19  1  0  0  0  0
 21 22  1  0  0  0  0
 22 16  1  0  0  0  0
 22 23  1  0  0  0  0
M  END
>  <minimizedAffinity>
-4.72806787

>  <minimizedRMSD>
1.82676136

$$$$
