
 OpenBabel03272502303D

 23 24  0  0  1  0  0  0  0  0999 V2000
   39.5220   32.8010   46.7400 C   0  0  0  0  0  0  0  0  0  0  0  0
   39.5200   33.9080   46.7830 H   0  0  0  0  0  0  0  0  0  0  0  0
   40.5790   32.4350   46.6950 H   0  0  0  0  0  0  0  0  0  0  0  0
   38.2980   31.0150   47.9080 C   0  0  0  0  0  3  0  0  0  0  0  0
   38.8190   32.2140   47.9220 C   0  0  0  0  0  3  0  0  0  0  0  0
   37.2960   30.2190   51.3940 C   0  0  0  0  0  0  0  0  0  0  0  0
   38.0120   30.7990   50.3350 C   0  0  0  0  0  0  0  0  0  0  0  0
   37.6290   30.4740   49.0530 C   0  0  0  0  0  0  0  0  0  0  0  0
   36.5910   29.6190   48.8470 N   0  0  0  0  0  0  0  0  0  0  0  0
   35.9260   29.0820   49.8980 C   0  0  0  0  0  0  0  0  0  0  0  0
   36.2700   29.3740   51.1640 N   0  0  0  0  0  0  0  0  0  0  0  0
   37.6070   30.4820   52.4180 H   0  0  0  0  0  0  0  0  0  0  0  0
   38.8320   31.4740   50.5310 H   0  0  0  0  0  0  0  0  0  0  0  0
   35.1110   28.4110   49.6510 H   0  0  0  0  0  0  0  0  0  0  0  0
   38.6450   32.3500   45.2130 S   0  0  0  0  0  0  0  0  0  0  0  0
   39.8670   32.1160   43.9090 C   0  0  1  0  0  3  0  0  0  0  0  0
   40.0990   30.6350   43.6050 C   0  0  0  0  0  3  0  0  0  0  0  0
   39.1160   30.1250   43.6400 H   0  0  0  0  0  0  0  0  0  0  0  0
   40.4940   30.7120   42.1430 C   0  0  0  0  0  3  0  0  0  0  0  0
   41.5440   31.0750   42.0780 H   0  0  0  0  0  0  0  0  0  0  0  0
   39.5870   31.6350   41.6510 O   0  0  0  0  0  0  0  0  0  0  0  0
   39.4120   32.6300   42.5780 C   0  0  0  0  0  3  0  0  0  0  0  0
   38.3160   32.8210   42.6770 H   0  0  0  0  0  0  0  0  0  0  0  0
  1  2  1  0  0  0  0
  1  5  1  0  0  0  0
  3  1  1  0  0  0  0
  4  5  2  0  0  0  0
  4  8  1  0  0  0  0
  6 12  1  0  0  0  0
  7 13  1  0  0  0  0
  7  6  2  0  0  0  0
  8  7  1  0  0  0  0
  9  8  2  0  0  0  0
  9 10  1  0  0  0  0
 10 11  2  0  0  0  0
 11  6  1  0  0  0  0
 14 10  1  0  0  0  0
 15  1  1  0  0  0  0
 16 15  1  1  0  0  0
 17 18  1  0  0  0  0
 17 16  1  0  0  0  0
 19 17  1  0  0  0  0
 20 19  1  0  0  0  0
 21 19  1  0  0  0  0
 21 22  1  0  0  0  0
 22 23  1  0  0  0  0
 22 16  1  0  0  0  0
M  END
>  <minimizedAffinity>
-4.71173334

>  <minimizedRMSD>
1.57735121

$$$$
