
 OpenBabel03272500423D

 47 50  0  0  1  0  0  0  0  0999 V2000
   37.2580   31.8320   48.3170 C   0  0  0  0  0  0  0  0  0  0  0  0
   37.5370   32.6090   49.4280 C   0  0  0  0  0  0  0  0  0  0  0  0
   38.6630   33.3980   49.3600 C   0  0  0  0  0  0  0  0  0  0  0  0
   39.4330   33.3760   48.2280 N   0  0  0  0  0  0  0  0  0  0  0  0
   39.1480   32.6130   47.1510 C   0  0  0  0  0  0  0  0  0  0  0  0
   38.0380   31.8290   47.2050 N   0  0  0  0  0  0  0  0  0  0  0  0
   39.9720   32.6250   45.9910 N   0  0  0  0  0  0  0  0  0  0  0  0
   36.8870   32.5780   50.2920 H   0  0  0  0  0  0  0  0  0  0  0  0
   38.9450   34.0320   50.1910 H   0  0  0  0  0  0  0  0  0  0  0  0
   40.3570   33.4880   45.5710 H   0  0  0  0  0  0  0  0  0  0  0  0
   36.0100   30.9670   48.3630 C   0  0  1  0  0  0  0  0  0  0  0  0
   35.6720   30.0960   47.2950 C   0  0  0  0  0  0  0  0  0  0  0  0
   36.3260   29.5140   48.5090 C   0  0  2  0  0  0  0  0  0  0  0  0
   35.2530   31.3560   49.1030 H   0  0  0  0  0  0  0  0  0  0  0  0
   34.7120   29.8210   46.8970 H   0  0  0  0  0  0  0  0  0  0  0  0
   36.4000   30.1440   46.4230 H   0  0  0  0  0  0  0  0  0  0  0  0
   37.3840   29.1780   48.4860 H   0  0  0  0  0  0  0  0  0  0  0  0
   35.8730   28.7330   50.8020 C   0  0  2  0  0  0  0  0  0  0  0  0
   35.4860   28.6430   49.3990 C   0  0  1  0  0  0  0  0  0  0  0  0
   34.0900   29.0500   49.3670 C   0  0  0  0  0  0  0  0  0  0  0  0
   33.8310   29.8610   50.4880 O   0  0  0  0  0  0  0  0  0  0  0  0
   34.4370   29.1410   51.4520 C   0  0  0  0  0  0  0  0  0  0  0  0
   36.1830   27.8400   51.3420 H   0  0  0  0  0  0  0  0  0  0  0  0
   35.6140   27.5920   49.0410 H   0  0  0  0  0  0  0  0  0  0  0  0
   33.6460   29.5710   48.5480 H   0  0  0  0  0  0  0  0  0  0  0  0
   33.4520   28.1350   49.5460 H   0  0  0  0  0  0  0  0  0  0  0  0
   34.6410   29.6090   52.4120 H   0  0  0  0  0  0  0  0  0  0  0  0
   33.9660   28.1300   51.6210 H   0  0  0  0  0  0  0  0  0  0  0  0
   36.5720   29.8960   51.0890 O   0  0  0  0  0  0  0  0  0  0  0  0
   37.4720   29.8930   52.0030 C   0  0  0  0  0  0  0  0  0  0  0  0
   38.3290   29.2010   51.8640 H   0  0  0  0  0  0  0  0  0  0  0  0
   37.9030   30.9010   52.1690 H   0  0  0  0  0  0  0  0  0  0  0  0
   37.0450   29.5890   53.0030 H   0  0  0  0  0  0  0  0  0  0  0  0
   40.4060   31.1830   45.1780 S   0  0  0  0  0  0  0  0  0  0  0  0
   39.5590   30.0160   45.5780 O   0  0  0  0  0  0  0  0  0  0  0  0
   38.8960   29.5600   45.0000 H   0  0  0  0  0  0  0  0  0  0  0  0
   41.8260   30.8470   45.5340 O   0  0  0  0  0  0  0  0  0  0  0  0
   42.6340   31.0880   45.0100 H   0  0  0  0  0  0  0  0  0  0  0  0
   40.3600   31.3740   43.5130 O   0  0  0  0  0  0  0  0  0  0  0  0
   39.3660   32.2340   43.1020 C   0  0  2  0  0  0  0  0  0  0  0  0
   38.0470   31.4740   43.2930 C   0  0  0  0  0  0  0  0  0  0  0  0
   38.1620   30.6700   44.0490 H   0  0  0  0  0  0  0  0  0  0  0  0
   37.8430   30.9190   41.8850 C   0  0  0  0  0  0  0  0  0  0  0  0
   38.5990   30.1570   41.6880 H   0  0  0  0  0  0  0  0  0  0  0  0
   38.1490   32.0470   41.1220 O   0  0  0  0  0  0  0  0  0  0  0  0
   39.4350   32.3680   41.6030 C   0  0  0  0  0  0  0  0  0  0  0  0
   40.1220   31.6180   41.1390 H   0  0  0  0  0  0  0  0  0  0  0  0
  1 11  1  0  0  0  0
  1  2  1  0  0  0  0
  2  8  1  0  0  0  0
  3  2  2  0  0  0  0
  3  9  1  0  0  0  0
  4  3  1  0  0  0  0
  5  6  1  0  0  0  0
  5  4  2  0  0  0  0
  6  1  2  0  0  0  0
  7  5  1  0  0  0  0
 10  7  1  0  0  0  0
 11 13  1  0  0  0  0
 11 14  1  1  0  0  0
 12 11  1  0  0  0  0
 12 13  1  0  0  0  0
 13 17  1  6  0  0  0
 13 19  1  0  0  0  0
 15 12  1  0  0  0  0
 16 12  1  0  0  0  0
 18 29  1  0  0  0  0
 18 23  1  1  0  0  0
 18 22  1  0  0  0  0
 19 24  1  6  0  0  0
 19 18  1  0  0  0  0
 20 19  1  0  0  0  0
 20 26  1  0  0  0  0
 20 21  1  0  0  0  0
 21 22  1  0  0  0  0
 22 28  1  0  0  0  0
 22 27  1  0  0  0  0
 25 20  1  0  0  0  0
 29 30  1  0  0  0  0
 30 32  1  0  0  0  0
 30 33  1  0  0  0  0
 31 30  1  0  0  0  0
 34 37  1  0  0  0  0
 34 35  1  0  0  0  0
 34  7  1  0  0  0  0
 36 35  1  0  0  0  0
 38 37  1  0  0  0  0
 39 34  1  0  0  0  0
 40 41  1  0  0  0  0
 40 39  1  6  0  0  0
 41 42  1  0  0  0  0
 43 41  1  0  0  0  0
 44 43  1  0  0  0  0
 45 46  1  0  0  0  0
 45 43  1  0  0  0  0
 46 40  1  0  0  0  0
 47 46  1  0  0  0  0
M  END
>  <minimizedAffinity>
-5.66875029

>  <minimizedRMSD>
3.33023882

$$$$
