
 OpenBabel03272509433D

 37 39  0  0  1  0  0  0  0  0999 V2000
   37.0250   30.9280   49.0320 C   0  0  0  0  0  0  0  0  0  0  0  0
   36.7250   31.8080   50.0740 C   0  0  0  0  0  0  0  0  0  0  0  0
   37.3110   33.0630   50.1610 C   0  0  0  0  0  0  0  0  0  0  0  0
   38.2260   33.4620   49.1840 C   0  0  0  0  0  0  0  0  0  0  0  0
   38.5110   32.5920   48.1700 C   0  0  0  0  0  0  0  0  0  0  0  0
   37.9060   31.3440   48.1170 C   0  0  0  0  0  0  0  0  0  0  0  0
   36.0100   31.4840   50.8280 H   0  0  0  0  0  0  0  0  0  0  0  0
   37.0220   33.6670   50.9910 H   0  0  0  0  0  0  0  0  0  0  0  0
   38.6290   34.4460   49.3300 H   0  0  0  0  0  0  0  0  0  0  0  0
   39.2370   33.0400   47.4940 H   0  0  0  0  0  0  0  0  0  0  0  0
   36.4420   29.6050   48.9600 C   0  0  2  0  0  0  0  0  0  0  0  0
   36.9620   29.0920   48.0620 H   0  0  0  0  0  0  0  0  0  0  0  0
   33.5740   30.0870   46.7820 C   0  0  0  0  0  0  0  0  0  0  0  0
   32.8750   28.8990   46.8810 C   0  0  0  0  0  0  0  0  0  0  0  0
   33.3490   27.9370   47.7510 C   0  0  0  0  0  0  0  0  0  0  0  0
   34.4890   28.1870   48.4830 N   0  0  0  0  0  0  0  0  0  0  0  0
   35.1130   29.3400   48.3410 C   0  0  0  0  0  0  0  0  0  0  0  0
   34.6620   30.2960   47.4970 N   0  0  0  0  0  0  0  0  0  0  0  0
   33.1650   30.8110   46.0890 H   0  0  0  0  0  0  0  0  0  0  0  0
   31.9820   28.6070   46.3580 H   0  0  0  0  0  0  0  0  0  0  0  0
   32.9090   26.9670   47.9340 H   0  0  0  0  0  0  0  0  0  0  0  0
   36.8950   28.8170   49.8700 O   0  0  0  0  0  0  0  0  0  0  0  0
   36.4190   28.0210   50.1700 H   0  0  0  0  0  0  0  0  0  0  0  0
   38.3190   30.5130   47.0090 C   0  0  0  0  0  3  0  0  0  0  0  0
   39.1240   30.9270   46.0250 C   0  0  0  0  0  3  0  0  0  0  0  0
   39.6430   30.1570   44.8720 C   0  0  0  0  0  0  0  0  0  0  0  0
   40.5350   29.5990   45.2220 H   0  0  0  0  0  0  0  0  0  0  0  0
   38.8950   29.4110   44.5020 H   0  0  0  0  0  0  0  0  0  0  0  0
   40.1380   31.2860   43.5640 S   0  0  0  0  0  0  0  0  0  0  0  0
   38.6940   31.5860   42.5150 C   0  0  1  0  0  3  0  0  0  0  0  0
   37.6690   30.4900   42.5800 C   0  0  0  0  0  3  0  0  0  0  0  0
   37.7770   29.8250   43.4700 H   0  0  0  0  0  0  0  0  0  0  0  0
   36.3820   31.2440   42.5420 C   0  0  0  0  0  3  0  0  0  0  0  0
   35.9470   31.2500   41.5210 H   0  0  0  0  0  0  0  0  0  0  0  0
   36.5910   32.5460   42.9110 O   0  0  0  0  0  0  0  0  0  0  0  0
   37.9330   32.7600   43.0850 C   0  0  0  0  0  3  0  0  0  0  0  0
   38.1890   32.8900   44.1760 H   0  0  0  0  0  0  0  0  0  0  0  0
  1  2  1  0  0  0  0
  2  3  2  0  0  0  0
  2  7  1  0  0  0  0
  3  8  1  0  0  0  0
  4  9  1  0  0  0  0
  4  3  1  0  0  0  0
  5  4  2  0  0  0  0
  6  5  1  0  0  0  0
  6  1  2  0  0  0  0
 10  5  1  0  0  0  0
 11 12  1  6  0  0  0
 11  1  1  0  0  0  0
 11 22  1  0  0  0  0
 13 14  2  0  0  0  0
 13 18  1  0  0  0  0
 14 15  1  0  0  0  0
 15 21  1  0  0  0  0
 15 16  2  0  0  0  0
 17 16  1  0  0  0  0
 17 11  1  0  0  0  0
 18 17  2  0  0  0  0
 19 13  1  0  0  0  0
 20 14  1  0  0  0  0
 22 23  1  0  0  0  0
 24  6  1  0  0  0  0
 25 24  2  0  0  0  0
 26 27  1  0  0  0  0
 26 25  1  0  0  0  0
 28 26  1  0  0  0  0
 29 26  1  0  0  0  0
 30 31  1  0  0  0  0
 30 36  1  0  0  0  0
 30 29  1  1  0  0  0
 31 32  1  0  0  0  0
 33 31  1  0  0  0  0
 33 35  1  0  0  0  0
 34 33  1  0  0  0  0
 35 36  1  0  0  0  0
 36 37  1  0  0  0  0
M  END
>  <minimizedAffinity>
-5.5301342

>  <minimizedRMSD>
0.786807179

$$$$
