
 OpenBabel03272507263D

 36 38  0  0  1  0  0  0  0  0999 V2000
   42.3250   21.8750   36.2080 C   0  0  0  0  0  0  0  0  0  0  0  0
   42.0560   23.0500   35.4580 C   0  0  0  0  0  0  0  0  0  0  0  0
   40.8840   23.7640   35.7800 C   0  0  0  0  0  0  0  0  0  0  0  0
   40.0940   23.2970   36.7710 N   0  0  0  0  0  0  0  0  0  0  0  0
   40.3940   22.1720   37.4580 C   0  0  0  0  0  0  0  0  0  0  0  0
   41.5000   21.4750   37.1710 N   0  0  0  0  0  0  0  0  0  0  0  0
   40.5510   24.9330   35.0850 N   0  0  0  0  0  0  0  0  0  0  0  0
   41.5300   25.8470   34.4720 C   0  0  0  0  0  0  0  0  0  0  0  0
   40.7710   27.0600   34.0610 C   0  0  0  0  0  0  0  0  0  0  0  0
   39.5270   26.9710   34.8760 C   0  0  0  0  0  0  0  0  0  0  0  0
   39.2570   25.4800   34.8230 C   0  0  2  0  0  0  0  0  0  0  0  0
   43.2510   21.4360   35.8520 H   0  0  0  0  0  0  0  0  0  0  0  0
   42.6630   23.4490   34.6640 H   0  0  0  0  0  0  0  0  0  0  0  0
   39.7780   21.7860   38.2470 H   0  0  0  0  0  0  0  0  0  0  0  0
   42.0940   25.3670   33.6580 H   0  0  0  0  0  0  0  0  0  0  0  0
   42.2460   26.0800   35.3070 H   0  0  0  0  0  0  0  0  0  0  0  0
   40.6480   27.2320   32.9890 H   0  0  0  0  0  0  0  0  0  0  0  0
   41.3250   27.9470   34.4370 H   0  0  0  0  0  0  0  0  0  0  0  0
   38.7150   27.4990   34.3300 H   0  0  0  0  0  0  0  0  0  0  0  0
   39.6730   27.3400   35.9030 H   0  0  0  0  0  0  0  0  0  0  0  0
   38.1340   25.0800   35.6980 C   0  0  0  0  0  0  0  0  0  0  0  0
   37.0820   25.9310   35.4090 F   0  0  0  0  0  0  0  0  0  0  0  0
   38.3630   25.1930   37.0330 F   0  0  0  0  0  0  0  0  0  0  0  0
   37.7450   23.8220   35.2980 F   0  0  0  0  0  0  0  0  0  0  0  0
   38.9340   25.0810   33.4220 C   0  0  0  0  0  0  0  0  0  0  0  0
   38.4770   24.0670   33.3560 H   0  0  0  0  0  0  0  0  0  0  0  0
   39.9350   24.9500   32.9150 H   0  0  0  0  0  0  0  0  0  0  0  0
   38.2320   25.9630   32.9340 O   0  0  0  0  0  0  0  0  0  0  0  0
   37.4270   25.4860   31.9050 C   0  0  1  0  0  3  0  0  0  0  0  0
   36.8320   24.1380   32.1350 C   0  0  0  0  0  3  0  0  0  0  0  0
   36.4090   24.0980   33.1720 H   0  0  0  0  0  0  0  0  0  0  0  0
   35.6700   24.1990   31.1630 C   0  0  0  0  0  3  0  0  0  0  0  0
   35.9980   23.6780   30.2400 H   0  0  0  0  0  0  0  0  0  0  0  0
   35.4490   25.5250   30.8390 O   0  0  0  0  0  0  0  0  0  0  0  0
   36.1460   26.3060   31.7490 C   0  0  0  0  0  3  0  0  0  0  0  0
   35.5600   26.3710   32.6750 H   0  0  0  0  0  0  0  0  0  0  0  0
  1  6  1  0  0  0  0
  2  3  1  0  0  0  0
  2  1  2  0  0  0  0
  3  4  2  0  0  0  0
  4  5  1  0  0  0  0
  5 14  1  0  0  0  0
  6  5  2  0  0  0  0
  7  3  1  0  0  0  0
  8  7  1  0  0  0  0
  8 16  1  0  0  0  0
  9 18  1  0  0  0  0
  9  8  1  0  0  0  0
  9 10  1  0  0  0  0
 10 20  1  0  0  0  0
 11 25  1  6  0  0  0
 11 10  1  0  0  0  0
 11  7  1  0  0  0  0
 11 21  1  0  0  0  0
 12  1  1  0  0  0  0
 13  2  1  0  0  0  0
 15  8  1  0  0  0  0
 17  9  1  0  0  0  0
 19 10  1  0  0  0  0
 21 23  1  0  0  0  0
 22 21  1  0  0  0  0
 24 21  1  0  0  0  0
 26 25  1  0  0  0  0
 27 25  1  0  0  0  0
 28 25  1  0  0  0  0
 29 30  1  0  0  0  0
 29 28  1  1  0  0  0
 30 31  1  0  0  0  0
 32 30  1  0  0  0  0
 33 32  1  0  0  0  0
 34 32  1  0  0  0  0
 34 35  1  0  0  0  0
 35 29  1  0  0  0  0
 35 36  1  0  0  0  0
M  END
>  <minimizedAffinity>
-5.07349396

$$$$

 OpenBabel03272507263D

 36 38  0  0  1  0  0  0  0  0999 V2000
   39.4230   22.7080   37.5790 C   0  0  0  0  0  0  0  0  0  0  0  0
   39.8890   23.3380   36.3940 C   0  0  0  0  0  0  0  0  0  0  0  0
   39.3360   24.5940   36.0740 C   0  0  0  0  0  0  0  0  0  0  0  0
   38.4060   25.1210   36.8990 N   0  0  0  0  0  0  0  0  0  0  0  0
   37.9950   24.4830   38.0180 C   0  0  0  0  0  0  0  0  0  0  0  0
   38.5040   23.2890   38.3440 N   0  0  0  0  0  0  0  0  0  0  0  0
   39.7450   25.2760   34.9220 N   0  0  0  0  0  0  0  0  0  0  0  0
   41.0810   25.1570   34.3110 C   0  0  0  0  0  0  0  0  0  0  0  0
   41.1630   26.2200   33.2710 C   0  0  0  0  0  0  0  0  0  0  0  0
   40.0820   27.1660   33.6700 C   0  0  0  0  0  0  0  0  0  0  0  0
   39.0040   26.1950   34.1160 C   0  0  2  0  0  0  0  0  0  0  0  0
   39.9320   21.7580   37.6950 H   0  0  0  0  0  0  0  0  0  0  0  0
   40.6260   22.9450   35.7150 H   0  0  0  0  0  0  0  0  0  0  0  0
   37.2580   24.8860   38.6850 H   0  0  0  0  0  0  0  0  0  0  0  0
   41.2780   24.1410   33.9380 H   0  0  0  0  0  0  0  0  0  0  0  0
   41.7880   25.3640   35.1600 H   0  0  0  0  0  0  0  0  0  0  0  0
   41.1760   25.8970   32.2280 H   0  0  0  0  0  0  0  0  0  0  0  0
   42.1200   26.7640   33.4210 H   0  0  0  0  0  0  0  0  0  0  0  0
   39.7290   27.6940   32.7580 H   0  0  0  0  0  0  0  0  0  0  0  0
   40.3980   27.8470   34.4740 H   0  0  0  0  0  0  0  0  0  0  0  0
   37.8440   26.8830   34.7200 C   0  0  0  0  0  0  0  0  0  0  0  0
   37.4860   27.8990   33.8510 F   0  0  0  0  0  0  0  0  0  0  0  0
   38.0720   27.4720   35.9230 F   0  0  0  0  0  0  0  0  0  0  0  0
   36.8030   25.9820   34.7220 F   0  0  0  0  0  0  0  0  0  0  0  0
   38.5310   25.4030   32.9430 C   0  0  0  0  0  0  0  0  0  0  0  0
   37.7500   24.6560   33.2140 H   0  0  0  0  0  0  0  0  0  0  0  0
   39.4130   24.7630   32.6460 H   0  0  0  0  0  0  0  0  0  0  0  0
   38.1670   26.1950   32.0780 O   0  0  0  0  0  0  0  0  0  0  0  0
   37.1520   25.6750   31.2820 C   0  0  1  0  0  3  0  0  0  0  0  0
   36.5940   24.3680   31.7360 C   0  0  0  0  0  3  0  0  0  0  0  0
   36.4000   24.4180   32.8380 H   0  0  0  0  0  0  0  0  0  0  0  0
   35.2530   24.4020   31.0290 C   0  0  0  0  0  3  0  0  0  0  0  0
   35.3660   23.8040   30.1000 H   0  0  0  0  0  0  0  0  0  0  0  0
   34.9930   25.7080   30.6570 O   0  0  0  0  0  0  0  0  0  0  0  0
   35.8830   26.5270   31.3370 C   0  0  0  0  0  3  0  0  0  0  0  0
   35.5090   26.6780   32.3580 H   0  0  0  0  0  0  0  0  0  0  0  0
  1 12  1  0  0  0  0
  1  6  1  0  0  0  0
  2  1  2  0  0  0  0
  3  2  1  0  0  0  0
  3  4  2  0  0  0  0
  4  5  1  0  0  0  0
  5  6  2  0  0  0  0
  5 14  1  0  0  0  0
  7  3  1  0  0  0  0
  8  7  1  0  0  0  0
  8 16  1  0  0  0  0
  9 18  1  0  0  0  0
  9 10  1  0  0  0  0
  9  8  1  0  0  0  0
 10 11  1  0  0  0  0
 10 20  1  0  0  0  0
 11 25  1  6  0  0  0
 11 21  1  0  0  0  0
 11  7  1  0  0  0  0
 13  2  1  0  0  0  0
 15  8  1  0  0  0  0
 17  9  1  0  0  0  0
 19 10  1  0  0  0  0
 21 24  1  0  0  0  0
 21 23  1  0  0  0  0
 22 21  1  0  0  0  0
 25 26  1  0  0  0  0
 27 25  1  0  0  0  0
 28 25  1  0  0  0  0
 29 35  1  0  0  0  0
 29 30  1  0  0  0  0
 29 28  1  1  0  0  0
 30 31  1  0  0  0  0
 32 30  1  0  0  0  0
 33 32  1  0  0  0  0
 34 32  1  0  0  0  0
 34 35  1  0  0  0  0
 35 36  1  0  0  0  0
M  END
>  <minimizedAffinity>
-4.9253087

$$$$

 OpenBabel03272507263D

 36 38  0  0  1  0  0  0  0  0999 V2000
   39.2340   22.7430   37.2440 C   0  0  0  0  0  0  0  0  0  0  0  0
   39.6370   23.3670   36.0340 C   0  0  0  0  0  0  0  0  0  0  0  0
   39.1450   24.6640   35.7840 C   0  0  0  0  0  0  0  0  0  0  0  0
   38.3280   25.2330   36.6970 N   0  0  0  0  0  0  0  0  0  0  0  0
   37.9730   24.5970   37.8370 C   0  0  0  0  0  0  0  0  0  0  0  0
   38.4270   23.3650   38.0970 N   0  0  0  0  0  0  0  0  0  0  0  0
   39.4980   25.3440   34.6130 N   0  0  0  0  0  0  0  0  0  0  0  0
   40.7640   25.1510   33.8840 C   0  0  0  0  0  0  0  0  0  0  0  0
   40.8270   26.2300   32.8600 C   0  0  0  0  0  0  0  0  0  0  0  0
   39.8510   27.2350   33.3680 C   0  0  0  0  0  0  0  0  0  0  0  0
   38.7540   26.3280   33.8900 C   0  0  2  0  0  0  0  0  0  0  0  0
   39.6870   21.7590   37.2990 H   0  0  0  0  0  0  0  0  0  0  0  0
   40.2850   22.9420   35.2860 H   0  0  0  0  0  0  0  0  0  0  0  0
   37.3260   25.0330   38.5730 H   0  0  0  0  0  0  0  0  0  0  0  0
   40.8590   24.1330   33.4780 H   0  0  0  0  0  0  0  0  0  0  0  0
   41.5550   25.2920   34.6710 H   0  0  0  0  0  0  0  0  0  0  0  0
   40.7290   25.9300   31.8140 H   0  0  0  0  0  0  0  0  0  0  0  0
   41.8290   26.7060   32.9340 H   0  0  0  0  0  0  0  0  0  0  0  0
   39.4570   27.8070   32.5000 H   0  0  0  0  0  0  0  0  0  0  0  0
   40.2820   27.8760   34.1530 H   0  0  0  0  0  0  0  0  0  0  0  0
   37.6990   27.0770   34.6060 C   0  0  0  0  0  0  0  0  0  0  0  0
   38.3230   27.7520   35.6410 F   0  0  0  0  0  0  0  0  0  0  0  0
   36.7260   26.3190   35.1760 F   0  0  0  0  0  0  0  0  0  0  0  0
   37.2300   28.0350   33.7370 F   0  0  0  0  0  0  0  0  0  0  0  0
   38.1280   25.5960   32.7510 C   0  0  0  0  0  0  0  0  0  0  0  0
   38.8710   25.2640   31.9900 H   0  0  0  0  0  0  0  0  0  0  0  0
   37.5200   26.3730   32.2000 H   0  0  0  0  0  0  0  0  0  0  0  0
   37.4650   24.6740   33.2180 O   0  0  0  0  0  0  0  0  0  0  0  0
   37.2300   23.6700   32.2840 C   0  0  1  0  0  3  0  0  0  0  0  0
   37.1090   22.2940   32.8460 C   0  0  0  0  0  3  0  0  0  0  0  0
   36.4350   22.3240   33.7400 H   0  0  0  0  0  0  0  0  0  0  0  0
   36.3510   21.6210   31.7180 C   0  0  0  0  0  3  0  0  0  0  0  0
   37.1030   21.0880   31.1000 H   0  0  0  0  0  0  0  0  0  0  0  0
   35.7850   22.6070   30.9300 O   0  0  0  0  0  0  0  0  0  0  0  0
   35.8530   23.8010   31.6320 C   0  0  0  0  0  3  0  0  0  0  0  0
   35.0320   23.8270   32.3600 H   0  0  0  0  0  0  0  0  0  0  0  0
  1 12  1  0  0  0  0
  1  6  1  0  0  0  0
  2  1  2  0  0  0  0
  3  2  1  0  0  0  0
  3  4  2  0  0  0  0
  4  5  1  0  0  0  0
  5  6  2  0  0  0  0
  5 14  1  0  0  0  0
  7  3  1  0  0  0  0
  8  7  1  0  0  0  0
  8 16  1  0  0  0  0
  9 18  1  0  0  0  0
  9 10  1  0  0  0  0
  9  8  1  0  0  0  0
 10 11  1  0  0  0  0
 10 20  1  0  0  0  0
 11 25  1  6  0  0  0
 11 21  1  0  0  0  0
 11  7  1  0  0  0  0
 13  2  1  0  0  0  0
 15  8  1  0  0  0  0
 17  9  1  0  0  0  0
 19 10  1  0  0  0  0
 21 23  1  0  0  0  0
 21 22  1  0  0  0  0
 24 21  1  0  0  0  0
 25 28  1  0  0  0  0
 26 25  1  0  0  0  0
 27 25  1  0  0  0  0
 29 30  1  0  0  0  0
 29 28  1  1  0  0  0
 30 31  1  0  0  0  0
 32 30  1  0  0  0  0
 33 32  1  0  0  0  0
 34 35  1  0  0  0  0
 34 32  1  0  0  0  0
 35 29  1  0  0  0  0
 35 36  1  0  0  0  0
M  END
>  <minimizedAffinity>
-4.8544035

$$$$

 OpenBabel03272507263D

 36 38  0  0  1  0  0  0  0  0999 V2000
   36.9350   26.3870   31.1450 C   0  0  0  0  0  0  0  0  0  0  0  0
   37.6440   25.1570   31.1250 C   0  0  0  0  0  0  0  0  0  0  0  0
   36.8800   23.9760   31.0300 C   0  0  0  0  0  0  0  0  0  0  0  0
   35.5350   24.0790   30.9640 N   0  0  0  0  0  0  0  0  0  0  0  0
   34.9050   25.2750   30.9860 C   0  0  0  0  0  0  0  0  0  0  0  0
   35.6080   26.4110   31.0760 N   0  0  0  0  0  0  0  0  0  0  0  0
   37.5070   22.7250   31.0050 N   0  0  0  0  0  0  0  0  0  0  0  0
   38.8600   22.4790   30.4730 C   0  0  0  0  0  0  0  0  0  0  0  0
   39.0270   21.0010   30.4190 C   0  0  0  0  0  0  0  0  0  0  0  0
   37.6230   20.5000   30.4670 C   0  0  0  0  0  0  0  0  0  0  0  0
   37.0110   21.4650   31.4640 C   0  0  2  0  0  0  0  0  0  0  0  0
   37.6470   27.2010   31.2200 H   0  0  0  0  0  0  0  0  0  0  0  0
   38.7130   25.0400   31.1760 H   0  0  0  0  0  0  0  0  0  0  0  0
   33.8380   25.3760   30.9350 H   0  0  0  0  0  0  0  0  0  0  0  0
   39.6350   23.0030   31.0510 H   0  0  0  0  0  0  0  0  0  0  0  0
   38.8300   22.9220   29.4400 H   0  0  0  0  0  0  0  0  0  0  0  0
   39.7350   20.5530   31.1200 H   0  0  0  0  0  0  0  0  0  0  0  0
   39.4130   20.7430   29.4090 H   0  0  0  0  0  0  0  0  0  0  0  0
   37.6320   19.4830   30.9150 H   0  0  0  0  0  0  0  0  0  0  0  0
   37.1320   20.5390   29.4820 H   0  0  0  0  0  0  0  0  0  0  0  0
   35.5490   21.2900   31.5910 C   0  0  0  0  0  0  0  0  0  0  0  0
   35.0070   21.5490   30.3430 F   0  0  0  0  0  0  0  0  0  0  0  0
   34.9300   22.1330   32.4590 F   0  0  0  0  0  0  0  0  0  0  0  0
   35.3270   19.9560   31.8460 F   0  0  0  0  0  0  0  0  0  0  0  0
   37.6330   21.2580   32.8050 C   0  0  0  0  0  0  0  0  0  0  0  0
   38.7420   21.1620   32.7560 H   0  0  0  0  0  0  0  0  0  0  0  0
   37.2960   20.2290   33.1290 H   0  0  0  0  0  0  0  0  0  0  0  0
   37.2550   22.1680   33.5370 O   0  0  0  0  0  0  0  0  0  0  0  0
   38.2120   22.5100   34.4870 C   0  0  1  0  0  3  0  0  0  0  0  0
   38.5470   23.9620   34.5580 C   0  0  0  0  0  3  0  0  0  0  0  0
   37.5970   24.5560   34.5560 H   0  0  0  0  0  0  0  0  0  0  0  0
   39.1290   24.0240   35.9560 C   0  0  0  0  0  3  0  0  0  0  0  0
   40.2330   23.9780   35.8460 H   0  0  0  0  0  0  0  0  0  0  0  0
   38.7300   22.8900   36.6410 O   0  0  0  0  0  0  0  0  0  0  0  0
   37.7080   22.2950   35.9150 C   0  0  0  0  0  3  0  0  0  0  0  0
   36.7720   22.8270   36.1270 H   0  0  0  0  0  0  0  0  0  0  0  0
  1 12  1  0  0  0  0
  2  1  1  0  0  0  0
  2 13  1  0  0  0  0
  3  2  2  0  0  0  0
  4  5  2  0  0  0  0
  4  3  1  0  0  0  0
  5  6  1  0  0  0  0
  6  1  2  0  0  0  0
  7  3  1  0  0  0  0
  7 11  1  0  0  0  0
  8  7  1  0  0  0  0
  8 15  1  0  0  0  0
  9 10  1  0  0  0  0
  9  8  1  0  0  0  0
  9 17  1  0  0  0  0
 10 19  1  0  0  0  0
 10 11  1  0  0  0  0
 11 21  1  1  0  0  0
 11 25  1  0  0  0  0
 14  5  1  0  0  0  0
 16  8  1  0  0  0  0
 18  9  1  0  0  0  0
 20 10  1  0  0  0  0
 21 24  1  0  0  0  0
 21 23  1  0  0  0  0
 22 21  1  0  0  0  0
 25 27  1  0  0  0  0
 25 28  1  0  0  0  0
 26 25  1  0  0  0  0
 29 28  1  6  0  0  0
 29 30  1  0  0  0  0
 29 35  1  0  0  0  0
 30 32  1  0  0  0  0
 31 30  1  0  0  0  0
 32 34  1  0  0  0  0
 33 32  1  0  0  0  0
 35 36  1  0  0  0  0
 35 34  1  0  0  0  0
M  END
>  <minimizedAffinity>
-4.79726171

$$$$

 OpenBabel03272507263D

 36 38  0  0  1  0  0  0  0  0999 V2000
   43.0250   22.0270   35.6220 C   0  0  0  0  0  0  0  0  0  0  0  0
   42.2370   23.1200   35.1740 C   0  0  0  0  0  0  0  0  0  0  0  0
   41.0540   23.3970   35.8890 C   0  0  0  0  0  0  0  0  0  0  0  0
   40.7410   22.6180   36.9470 N   0  0  0  0  0  0  0  0  0  0  0  0
   41.5260   21.5880   37.3370 C   0  0  0  0  0  0  0  0  0  0  0  0
   42.6540   21.3040   36.6730 N   0  0  0  0  0  0  0  0  0  0  0  0
   40.2250   24.4580   35.5070 N   0  0  0  0  0  0  0  0  0  0  0  0
   40.6930   25.6850   34.8400 C   0  0  0  0  0  0  0  0  0  0  0  0
   39.5420   26.6290   34.8400 C   0  0  0  0  0  0  0  0  0  0  0  0
   38.6570   26.0800   35.9070 C   0  0  0  0  0  0  0  0  0  0  0  0
   38.8100   24.5900   35.6660 C   0  0  2  0  0  0  0  0  0  0  0  0
   43.8950   21.9360   34.9810 H   0  0  0  0  0  0  0  0  0  0  0  0
   42.4560   23.7590   34.3350 H   0  0  0  0  0  0  0  0  0  0  0  0
   41.2940   20.9590   38.1740 H   0  0  0  0  0  0  0  0  0  0  0  0
   41.1130   25.4820   33.8430 H   0  0  0  0  0  0  0  0  0  0  0  0
   41.5220   26.0560   35.5020 H   0  0  0  0  0  0  0  0  0  0  0  0
   39.0760   26.8480   33.8760 H   0  0  0  0  0  0  0  0  0  0  0  0
   39.9090   27.6080   35.2160 H   0  0  0  0  0  0  0  0  0  0  0  0
   37.6100   26.3710   35.6740 H   0  0  0  0  0  0  0  0  0  0  0  0
   38.9800   26.3830   36.9150 H   0  0  0  0  0  0  0  0  0  0  0  0
   38.1410   23.7810   36.7060 C   0  0  0  0  0  0  0  0  0  0  0  0
   38.7550   24.0900   37.9080 F   0  0  0  0  0  0  0  0  0  0  0  0
   38.2470   22.4340   36.5590 F   0  0  0  0  0  0  0  0  0  0  0  0
   36.8460   24.2380   36.7970 F   0  0  0  0  0  0  0  0  0  0  0  0
   38.2270   24.2370   34.3390 C   0  0  0  0  0  0  0  0  0  0  0  0
   38.3590   25.0420   33.5810 H   0  0  0  0  0  0  0  0  0  0  0  0
   37.1090   24.2160   34.5060 H   0  0  0  0  0  0  0  0  0  0  0  0
   38.7070   23.1600   33.9940 O   0  0  0  0  0  0  0  0  0  0  0  0
   37.9100   22.5050   33.0610 C   0  0  1  0  0  3  0  0  0  0  0  0
   36.8920   21.5780   33.6320 C   0  0  0  0  0  3  0  0  0  0  0  0
   36.3660   22.0900   34.4780 H   0  0  0  0  0  0  0  0  0  0  0  0
   35.9270   21.5040   32.4640 C   0  0  0  0  0  3  0  0  0  0  0  0
   36.1690   20.5760   31.9070 H   0  0  0  0  0  0  0  0  0  0  0  0
   36.1810   22.5740   31.6260 O   0  0  0  0  0  0  0  0  0  0  0  0
   36.9870   23.4690   32.3150 C   0  0  0  0  0  3  0  0  0  0  0  0
   36.3540   24.0660   32.9850 H   0  0  0  0  0  0  0  0  0  0  0  0
  1  6  1  0  0  0  0
  2  1  2  0  0  0  0
  2  3  1  0  0  0  0
  3  4  2  0  0  0  0
  4  5  1  0  0  0  0
  5 14  1  0  0  0  0
  6  5  2  0  0  0  0
  7 11  1  0  0  0  0
  7  3  1  0  0  0  0
  8 16  1  0  0  0  0
  8  7  1  0  0  0  0
  9  8  1  0  0  0  0
  9 18  1  0  0  0  0
  9 10  1  0  0  0  0
 10 20  1  0  0  0  0
 11 25  1  6  0  0  0
 11 10  1  0  0  0  0
 11 21  1  0  0  0  0
 12  1  1  0  0  0  0
 13  2  1  0  0  0  0
 15  8  1  0  0  0  0
 17  9  1  0  0  0  0
 19 10  1  0  0  0  0
 21 24  1  0  0  0  0
 21 22  1  0  0  0  0
 23 21  1  0  0  0  0
 25 27  1  0  0  0  0
 26 25  1  0  0  0  0
 28 25  1  0  0  0  0
 29 30  1  0  0  0  0
 29 28  1  1  0  0  0
 30 31  1  0  0  0  0
 32 30  1  0  0  0  0
 33 32  1  0  0  0  0
 34 35  1  0  0  0  0
 34 32  1  0  0  0  0
 35 36  1  0  0  0  0
 35 29  1  0  0  0  0
M  END
>  <minimizedAffinity>
-4.7292757

$$$$

 OpenBabel03272507263D

 36 38  0  0  1  0  0  0  0  0999 V2000
   41.4570   27.4380   33.6730 C   0  0  0  0  0  0  0  0  0  0  0  0
   40.3170   26.8380   34.2700 C   0  0  0  0  0  0  0  0  0  0  0  0
   40.5100   25.6140   34.9400 C   0  0  0  0  0  0  0  0  0  0  0  0
   41.7530   25.0850   34.9770 N   0  0  0  0  0  0  0  0  0  0  0  0
   42.8090   25.6950   34.3940 C   0  0  0  0  0  0  0  0  0  0  0  0
   42.6510   26.8590   33.7510 N   0  0  0  0  0  0  0  0  0  0  0  0
   39.4340   24.9620   35.5540 N   0  0  0  0  0  0  0  0  0  0  0  0
   38.2510   25.6440   36.1090 C   0  0  0  0  0  0  0  0  0  0  0  0
   37.4900   24.6140   36.8670 C   0  0  0  0  0  0  0  0  0  0  0  0
   38.5050   23.5460   37.0970 C   0  0  0  0  0  0  0  0  0  0  0  0
   39.2410   23.5620   35.7710 C   0  0  2  0  0  0  0  0  0  0  0  0
   41.1580   28.3650   33.1990 H   0  0  0  0  0  0  0  0  0  0  0  0
   39.3140   27.2310   34.2590 H   0  0  0  0  0  0  0  0  0  0  0  0
   43.8020   25.2910   34.4120 H   0  0  0  0  0  0  0  0  0  0  0  0
   37.6670   26.1610   35.3330 H   0  0  0  0  0  0  0  0  0  0  0  0
   38.6840   26.4190   36.7990 H   0  0  0  0  0  0  0  0  0  0  0  0
   36.5280   24.3000   36.4550 H   0  0  0  0  0  0  0  0  0  0  0  0
   37.2550   25.0370   37.8670 H   0  0  0  0  0  0  0  0  0  0  0  0
   37.9720   22.5760   37.1960 H   0  0  0  0  0  0  0  0  0  0  0  0
   39.1630   23.7720   37.9510 H   0  0  0  0  0  0  0  0  0  0  0  0
   40.4280   22.6820   35.7770 C   0  0  0  0  0  0  0  0  0  0  0  0
   41.3720   23.2920   36.5850 F   0  0  0  0  0  0  0  0  0  0  0  0
   41.0240   22.4930   34.5700 F   0  0  0  0  0  0  0  0  0  0  0  0
   40.0600   21.5180   36.4120 F   0  0  0  0  0  0  0  0  0  0  0  0
   38.3210   23.1140   34.6850 C   0  0  0  0  0  0  0  0  0  0  0  0
   38.8190   23.0690   33.6890 H   0  0  0  0  0  0  0  0  0  0  0  0
   37.5760   23.9550   34.5660 H   0  0  0  0  0  0  0  0  0  0  0  0
   37.8270   22.0450   35.0310 O   0  0  0  0  0  0  0  0  0  0  0  0
   37.2060   21.3870   33.9750 C   0  0  1  0  0  3  0  0  0  0  0  0
   35.8650   20.8120   34.2830 C   0  0  0  0  0  3  0  0  0  0  0  0
   35.2580   21.5760   34.8320 H   0  0  0  0  0  0  0  0  0  0  0  0
   35.3040   20.6980   32.8780 C   0  0  0  0  0  3  0  0  0  0  0  0
   35.4600   19.6480   32.5550 H   0  0  0  0  0  0  0  0  0  0  0  0
   36.0560   21.5080   32.0470 O   0  0  0  0  0  0  0  0  0  0  0  0
   36.8190   22.3460   32.8480 C   0  0  0  0  0  3  0  0  0  0  0  0
   36.1870   23.1770   33.1870 H   0  0  0  0  0  0  0  0  0  0  0  0
  1  6  2  0  0  0  0
  1  2  1  0  0  0  0
  2  3  2  0  0  0  0
  3  4  1  0  0  0  0
  3  7  1  0  0  0  0
  5 14  1  0  0  0  0
  5  4  2  0  0  0  0
  6  5  1  0  0  0  0
  7 11  1  0  0  0  0
  7  8  1  0  0  0  0
  8 16  1  0  0  0  0
  8  9  1  0  0  0  0
  9 10  1  0  0  0  0
  9 18  1  0  0  0  0
 10 19  1  0  0  0  0
 10 20  1  0  0  0  0
 11 25  1  6  0  0  0
 11 21  1  0  0  0  0
 11 10  1  0  0  0  0
 12  1  1  0  0  0  0
 13  2  1  0  0  0  0
 15  8  1  0  0  0  0
 17  9  1  0  0  0  0
 21 24  1  0  0  0  0
 21 22  1  0  0  0  0
 23 21  1  0  0  0  0
 25 28  1  0  0  0  0
 26 25  1  0  0  0  0
 27 25  1  0  0  0  0
 29 30  1  0  0  0  0
 29 28  1  1  0  0  0
 30 31  1  0  0  0  0
 32 30  1  0  0  0  0
 33 32  1  0  0  0  0
 34 35  1  0  0  0  0
 34 32  1  0  0  0  0
 35 36  1  0  0  0  0
 35 29  1  0  0  0  0
M  END
>  <minimizedAffinity>
-4.70495749

$$$$

 OpenBabel03272507263D

 36 38  0  0  1  0  0  0  0  0999 V2000
   36.4250   20.8470   33.3790 C   0  0  0  0  0  0  0  0  0  0  0  0
   37.6010   21.5880   33.6730 C   0  0  0  0  0  0  0  0  0  0  0  0
   37.7790   22.0080   35.0060 C   0  0  0  0  0  0  0  0  0  0  0  0
   36.8360   21.6870   35.9180 N   0  0  0  0  0  0  0  0  0  0  0  0
   35.7330   20.9780   35.5890 C   0  0  0  0  0  0  0  0  0  0  0  0
   35.5390   20.5680   34.3290 N   0  0  0  0  0  0  0  0  0  0  0  0
   38.9130   22.7430   35.3730 N   0  0  0  0  0  0  0  0  0  0  0  0
   40.2250   22.6400   34.7110 C   0  0  0  0  0  0  0  0  0  0  0  0
   41.1850   23.3980   35.5610 C   0  0  0  0  0  0  0  0  0  0  0  0
   40.4810   23.4790   36.8730 C   0  0  0  0  0  0  0  0  0  0  0  0
   39.0530   23.7100   36.4170 C   0  0  2  0  0  0  0  0  0  0  0  0
   36.4240   20.5950   32.3250 H   0  0  0  0  0  0  0  0  0  0  0  0
   38.3700   21.8620   32.9720 H   0  0  0  0  0  0  0  0  0  0  0  0
   34.9730   20.7140   36.2990 H   0  0  0  0  0  0  0  0  0  0  0  0
   40.1880   22.9720   33.6630 H   0  0  0  0  0  0  0  0  0  0  0  0
   40.4520   21.5390   34.7250 H   0  0  0  0  0  0  0  0  0  0  0  0
   41.5820   24.3310   35.1550 H   0  0  0  0  0  0  0  0  0  0  0  0
   42.0720   22.7500   35.7250 H   0  0  0  0  0  0  0  0  0  0  0  0
   40.8370   24.3890   37.4020 H   0  0  0  0  0  0  0  0  0  0  0  0
   40.5940   22.5580   37.4650 H   0  0  0  0  0  0  0  0  0  0  0  0
   38.0930   23.6770   37.5400 C   0  0  0  0  0  0  0  0  0  0  0  0
   38.4670   24.6830   38.4140 F   0  0  0  0  0  0  0  0  0  0  0  0
   38.0760   22.5270   38.2640 F   0  0  0  0  0  0  0  0  0  0  0  0
   36.8670   24.0380   37.0270 F   0  0  0  0  0  0  0  0  0  0  0  0
   38.9540   25.0380   35.7440 C   0  0  0  0  0  0  0  0  0  0  0  0
   39.8290   25.2580   35.0910 H   0  0  0  0  0  0  0  0  0  0  0  0
   39.0520   25.7970   36.5750 H   0  0  0  0  0  0  0  0  0  0  0  0
   37.8800   25.0760   35.1490 O   0  0  0  0  0  0  0  0  0  0  0  0
   37.9060   25.9610   34.0760 C   0  0  1  0  0  3  0  0  0  0  0  0
   39.1390   26.7930   33.9660 C   0  0  0  0  0  3  0  0  0  0  0  0
   40.0350   26.1360   34.1040 H   0  0  0  0  0  0  0  0  0  0  0  0
   39.0640   27.1720   32.5000 C   0  0  0  0  0  3  0  0  0  0  0  0
   38.6160   28.1860   32.4530 H   0  0  0  0  0  0  0  0  0  0  0  0
   38.1930   26.3000   31.8720 O   0  0  0  0  0  0  0  0  0  0  0  0
   37.9680   25.2340   32.7320 C   0  0  0  0  0  3  0  0  0  0  0  0
   38.8150   24.5390   32.6560 H   0  0  0  0  0  0  0  0  0  0  0  0
  1  2  2  0  0  0  0
  1  6  1  0  0  0  0
  2  3  1  0  0  0  0
  3  7  1  0  0  0  0
  3  4  2  0  0  0  0
  5  4  1  0  0  0  0
  5 14  1  0  0  0  0
  6  5  2  0  0  0  0
  7 11  1  0  0  0  0
  8 16  1  0  0  0  0
  8  7  1  0  0  0  0
  8  9  1  0  0  0  0
  9 18  1  0  0  0  0
  9 10  1  0  0  0  0
 10 19  1  0  0  0  0
 10 20  1  0  0  0  0
 11 25  1  6  0  0  0
 11 10  1  0  0  0  0
 11 21  1  0  0  0  0
 12  1  1  0  0  0  0
 13  2  1  0  0  0  0
 15  8  1  0  0  0  0
 17  9  1  0  0  0  0
 21 23  1  0  0  0  0
 21 22  1  0  0  0  0
 24 21  1  0  0  0  0
 25 27  1  0  0  0  0
 26 25  1  0  0  0  0
 28 25  1  0  0  0  0
 29 28  1  1  0  0  0
 30 29  1  0  0  0  0
 30 31  1  0  0  0  0
 32 30  1  0  0  0  0
 33 32  1  0  0  0  0
 34 32  1  0  0  0  0
 34 35  1  0  0  0  0
 35 29  1  0  0  0  0
 36 35  1  0  0  0  0
M  END
>  <minimizedAffinity>
-4.69490576

$$$$

 OpenBabel03272507263D

 36 38  0  0  1  0  0  0  0  0999 V2000
   37.0010   23.3710   31.1280 C   0  0  0  0  0  0  0  0  0  0  0  0
   37.5960   23.2800   32.4150 C   0  0  0  0  0  0  0  0  0  0  0  0
   37.5290   24.4240   33.2360 C   0  0  0  0  0  0  0  0  0  0  0  0
   36.9110   25.5270   32.7600 N   0  0  0  0  0  0  0  0  0  0  0  0
   36.3590   25.5640   31.5270 C   0  0  0  0  0  0  0  0  0  0  0  0
   36.4090   24.4910   30.7270 N   0  0  0  0  0  0  0  0  0  0  0  0
   38.0930   24.4120   34.5170 N   0  0  0  0  0  0  0  0  0  0  0  0
   38.2270   23.2100   35.3590 C   0  0  0  0  0  0  0  0  0  0  0  0
   38.6440   23.6860   36.7070 C   0  0  0  0  0  0  0  0  0  0  0  0
   38.2660   25.1280   36.6870 C   0  0  0  0  0  0  0  0  0  0  0  0
   38.6390   25.5010   35.2650 C   0  0  2  0  0  0  0  0  0  0  0  0
   37.1290   22.4240   30.6150 H   0  0  0  0  0  0  0  0  0  0  0  0
   38.0960   22.4190   32.8230 H   0  0  0  0  0  0  0  0  0  0  0  0
   35.8640   26.4300   31.1320 H   0  0  0  0  0  0  0  0  0  0  0  0
   38.9000   22.4630   34.9130 H   0  0  0  0  0  0  0  0  0  0  0  0
   37.1890   22.7780   35.3840 H   0  0  0  0  0  0  0  0  0  0  0  0
   39.6610   23.4460   37.0270 H   0  0  0  0  0  0  0  0  0  0  0  0
   37.9810   23.2020   37.4550 H   0  0  0  0  0  0  0  0  0  0  0  0
   38.9380   25.6730   37.3850 H   0  0  0  0  0  0  0  0  0  0  0  0
   37.1970   25.2820   36.9000 H   0  0  0  0  0  0  0  0  0  0  0  0
   38.2190   26.8740   34.9150 C   0  0  0  0  0  0  0  0  0  0  0  0
   36.8480   26.9300   35.0990 F   0  0  0  0  0  0  0  0  0  0  0  0
   38.4470   27.2480   33.6290 F   0  0  0  0  0  0  0  0  0  0  0  0
   38.7760   27.7130   35.8530 F   0  0  0  0  0  0  0  0  0  0  0  0
   40.1180   25.3980   35.0940 C   0  0  0  0  0  0  0  0  0  0  0  0
   40.5600   24.5470   35.6620 H   0  0  0  0  0  0  0  0  0  0  0  0
   40.5390   26.3070   35.6170 H   0  0  0  0  0  0  0  0  0  0  0  0
   40.3530   25.3530   33.8900 O   0  0  0  0  0  0  0  0  0  0  0  0
   41.6660   25.7060   33.5970 C   0  0  1  0  0  3  0  0  0  0  0  0
   41.9540   27.1700   33.6260 C   0  0  0  0  0  3  0  0  0  0  0  0
   41.5020   27.6120   34.5510 H   0  0  0  0  0  0  0  0  0  0  0  0
   43.4570   27.1330   33.8170 C   0  0  0  0  0  3  0  0  0  0  0  0
   43.9110   27.2660   32.8120 H   0  0  0  0  0  0  0  0  0  0  0  0
   43.8050   25.8740   34.2700 O   0  0  0  0  0  0  0  0  0  0  0  0
   42.6430   25.2340   34.6760 C   0  0  0  0  0  3  0  0  0  0  0  0
   42.3800   25.5900   35.6810 H   0  0  0  0  0  0  0  0  0  0  0  0
  1  2  1  0  0  0  0
  2 13  1  0  0  0  0
  2  3  2  0  0  0  0
  3  7  1  0  0  0  0
  4  3  1  0  0  0  0
  5  4  2  0  0  0  0
  6  1  2  0  0  0  0
  6  5  1  0  0  0  0
  7 11  1  0  0  0  0
  7  8  1  0  0  0  0
  8 16  1  0  0  0  0
  8  9  1  0  0  0  0
  9 17  1  0  0  0  0
  9 18  1  0  0  0  0
 10  9  1  0  0  0  0
 10 20  1  0  0  0  0
 10 19  1  0  0  0  0
 11 21  1  6  0  0  0
 11 10  1  0  0  0  0
 12  1  1  0  0  0  0
 14  5  1  0  0  0  0
 15  8  1  0  0  0  0
 21 22  1  0  0  0  0
 21 24  1  0  0  0  0
 23 21  1  0  0  0  0
 25 11  1  0  0  0  0
 25 27  1  0  0  0  0
 25 26  1  0  0  0  0
 28 25  1  0  0  0  0
 29 30  1  0  0  0  0
 29 28  1  1  0  0  0
 29 35  1  0  0  0  0
 30 32  1  0  0  0  0
 30 31  1  0  0  0  0
 32 34  1  0  0  0  0
 33 32  1  0  0  0  0
 34 35  1  0  0  0  0
 35 36  1  0  0  0  0
M  END
>  <minimizedAffinity>
-4.68463898

$$$$

 OpenBabel03272507263D

 36 38  0  0  1  0  0  0  0  0999 V2000
   35.5040   28.9020   33.6400 C   0  0  0  0  0  0  0  0  0  0  0  0
   36.6270   28.2240   34.1820 C   0  0  0  0  0  0  0  0  0  0  0  0
   37.2260   27.2300   33.3820 C   0  0  0  0  0  0  0  0  0  0  0  0
   36.7050   26.9810   32.1610 N   0  0  0  0  0  0  0  0  0  0  0  0
   35.6330   27.6550   31.6880 C   0  0  0  0  0  0  0  0  0  0  0  0
   35.0460   28.6040   32.4280 N   0  0  0  0  0  0  0  0  0  0  0  0
   38.3380   26.5180   33.8480 N   0  0  0  0  0  0  0  0  0  0  0  0
   39.3320   27.0500   34.7970 C   0  0  0  0  0  0  0  0  0  0  0  0
   40.4510   26.0680   34.8250 C   0  0  0  0  0  0  0  0  0  0  0  0
   40.2560   25.2980   33.5640 C   0  0  0  0  0  0  0  0  0  0  0  0
   38.7440   25.1850   33.5300 C   0  0  2  0  0  0  0  0  0  0  0  0
   35.1530   29.6320   34.3610 H   0  0  0  0  0  0  0  0  0  0  0  0
   37.0670   28.3970   35.1500 H   0  0  0  0  0  0  0  0  0  0  0  0
   35.2050   27.4720   30.7210 H   0  0  0  0  0  0  0  0  0  0  0  0
   38.8920   27.2650   35.7820 H   0  0  0  0  0  0  0  0  0  0  0  0
   39.6560   28.0220   34.3350 H   0  0  0  0  0  0  0  0  0  0  0  0
   40.5840   25.4900   35.7420 H   0  0  0  0  0  0  0  0  0  0  0  0
   41.3990   26.6350   34.6980 H   0  0  0  0  0  0  0  0  0  0  0  0
   40.6860   24.2830   33.7070 H   0  0  0  0  0  0  0  0  0  0  0  0
   40.6630   25.8240   32.6860 H   0  0  0  0  0  0  0  0  0  0  0  0
   38.2540   24.5820   32.2730 C   0  0  0  0  0  0  0  0  0  0  0  0
   38.9970   23.4320   32.0660 F   0  0  0  0  0  0  0  0  0  0  0  0
   38.4090   25.3430   31.1580 F   0  0  0  0  0  0  0  0  0  0  0  0
   36.9590   24.1770   32.5030 F   0  0  0  0  0  0  0  0  0  0  0  0
   38.2810   24.3450   34.6730 C   0  0  0  0  0  0  0  0  0  0  0  0
   37.1710   24.2700   34.7320 H   0  0  0  0  0  0  0  0  0  0  0  0
   38.5520   24.9340   35.5990 H   0  0  0  0  0  0  0  0  0  0  0  0
   38.8390   23.2550   34.5870 O   0  0  0  0  0  0  0  0  0  0  0  0
   39.1020   22.6980   35.8340 C   0  0  1  0  0  3  0  0  0  0  0  0
   40.5420   22.4460   36.1270 C   0  0  0  0  0  3  0  0  0  0  0  0
   41.1370   23.3500   35.8380 H   0  0  0  0  0  0  0  0  0  0  0  0
   40.4910   22.3900   37.6410 C   0  0  0  0  0  3  0  0  0  0  0  0
   40.4510   21.3170   37.9220 H   0  0  0  0  0  0  0  0  0  0  0  0
   39.3080   22.9750   38.0550 O   0  0  0  0  0  0  0  0  0  0  0  0
   38.7760   23.6630   36.9750 C   0  0  0  0  0  3  0  0  0  0  0  0
   39.2920   24.6280   36.8850 H   0  0  0  0  0  0  0  0  0  0  0  0
  1  2  1  0  0  0  0
  1 12  1  0  0  0  0
  2 13  1  0  0  0  0
  3  7  1  0  0  0  0
  3  2  2  0  0  0  0
  4  3  1  0  0  0  0
  5  4  2  0  0  0  0
  5  6  1  0  0  0  0
  6  1  2  0  0  0  0
  7  8  1  0  0  0  0
  8  9  1  0  0  0  0
  8 15  1  0  0  0  0
  9 17  1  0  0  0  0
 10 19  1  0  0  0  0
 10  9  1  0  0  0  0
 11 21  1  6  0  0  0
 11 10  1  0  0  0  0
 11  7  1  0  0  0  0
 11 25  1  0  0  0  0
 14  5  1  0  0  0  0
 16  8  1  0  0  0  0
 18  9  1  0  0  0  0
 20 10  1  0  0  0  0
 21 24  1  0  0  0  0
 22 21  1  0  0  0  0
 23 21  1  0  0  0  0
 25 26  1  0  0  0  0
 25 27  1  0  0  0  0
 28 25  1  0  0  0  0
 29 28  1  6  0  0  0
 29 30  1  0  0  0  0
 29 35  1  0  0  0  0
 30 32  1  0  0  0  0
 31 30  1  0  0  0  0
 32 33  1  0  0  0  0
 32 34  1  0  0  0  0
 35 34  1  0  0  0  0
 36 35  1  0  0  0  0
M  END
>  <minimizedAffinity>
-4.63849831

$$$$
