
 OpenBabel03272508123D

 33 35  0  0  1  0  0  0  0  0999 V2000
   36.6750   29.4330   44.0220 Cl  0  0  0  0  0  0  0  0  0  0  0  0
   38.3140   29.8310   43.4970 C   0  0  0  0  0  0  0  0  0  0  0  0
   39.3050   30.3150   44.3540 C   0  0  0  0  0  0  0  0  0  0  0  0
   40.5580   30.5890   43.8080 C   0  0  0  0  0  0  0  0  0  0  0  0
   40.7840   30.3800   42.4690 C   0  0  0  0  0  0  0  0  0  0  0  0
   39.8320   29.9090   41.6140 C   0  0  0  0  0  0  0  0  0  0  0  0
   38.5960   29.6360   42.1370 C   0  0  0  0  0  0  0  0  0  0  0  0
   41.2460   30.9570   44.5560 H   0  0  0  0  0  0  0  0  0  0  0  0
   41.7980   30.6250   42.1360 H   0  0  0  0  0  0  0  0  0  0  0  0
   40.1000   29.7770   40.5760 H   0  0  0  0  0  0  0  0  0  0  0  0
   37.5450   29.1200   41.2210 C   0  0  2  0  0  3  0  0  0  0  0  0
   38.1300   28.4330   39.9970 C   0  0  0  0  0  3  0  0  0  0  0  0
   39.2220   28.3260   40.0300 H   0  0  0  0  0  0  0  0  0  0  0  0
   37.6660   29.3480   38.8840 C   0  0  0  0  0  3  0  0  0  0  0  0
   38.4430   29.4450   38.0840 H   0  0  0  0  0  0  0  0  0  0  0  0
   37.4170   30.5780   39.4900 O   0  0  0  0  0  0  0  0  0  0  0  0
   36.7170   30.2040   40.6340 C   0  0  0  0  0  3  0  0  0  0  0  0
   35.7790   29.7150   40.2450 H   0  0  0  0  0  0  0  0  0  0  0  0
   38.8630   30.4450   45.6410 O   0  0  0  0  0  0  0  0  0  0  0  0
   39.4370   32.5090   47.1010 O   0  0  0  0  0  0  0  0  0  0  0  0
   38.3060   31.8320   46.4150 P   0  0  1  0  0  0  0  0  0  0  0  0
   37.7070   32.8410   45.1740 O   0  0  0  0  0  0  0  0  0  0  0  0
   38.4880   33.1900   44.6590 H   0  0  0  0  0  0  0  0  0  0  0  0
   37.0220   31.4070   47.4400 O   0  0  0  0  0  0  0  0  0  0  0  0
   37.6130   30.5290   50.9840 C   0  0  0  0  0  0  0  0  0  0  0  0
   37.7060   31.3020   49.8220 C   0  0  0  0  0  0  0  0  0  0  0  0
   37.0680   30.8350   48.6640 C   0  0  0  0  0  0  0  0  0  0  0  0
   36.3920   29.6530   48.7310 N   0  0  0  0  0  0  0  0  0  0  0  0
   36.3290   28.9400   49.8730 C   0  0  0  0  0  0  0  0  0  0  0  0
   36.9360   29.3780   50.9870 N   0  0  0  0  0  0  0  0  0  0  0  0
   38.1290   30.9430   51.8500 H   0  0  0  0  0  0  0  0  0  0  0  0
   38.2210   32.2430   49.6950 H   0  0  0  0  0  0  0  0  0  0  0  0
   35.7980   28.0000   49.9490 H   0  0  0  0  0  0  0  0  0  0  0  0
  2  1  1  0  0  0  0
  2  3  1  0  0  0  0
  3 19  1  0  0  0  0
  4  3  2  0  0  0  0
  4  8  1  0  0  0  0
  5  4  1  0  0  0  0
  6  7  1  0  0  0  0
  6  5  2  0  0  0  0
  7  2  2  0  0  0  0
  9  5  1  0  0  0  0
 10  6  1  0  0  0  0
 11  7  1  1  0  0  0
 12 13  1  0  0  0  0
 12 11  1  0  0  0  0
 14 16  1  0  0  0  0
 14 12  1  0  0  0  0
 15 14  1  0  0  0  0
 16 17  1  0  0  0  0
 17 11  1  0  0  0  0
 18 17  1  0  0  0  0
 19 21  1  0  0  0  0
 21 20  2  1  0  0  0
 21 24  1  0  0  0  0
 22 21  1  0  0  0  0
 23 22  1  0  0  0  0
 24 27  1  0  0  0  0
 25 30  1  0  0  0  0
 25 31  1  0  0  0  0
 26 25  2  0  0  0  0
 27 28  2  0  0  0  0
 27 26  1  0  0  0  0
 28 29  1  0  0  0  0
 29 33  1  0  0  0  0
 29 30  2  0  0  0  0
 32 26  1  0  0  0  0
M  END
>  <minimizedAffinity>
-4.84754229

>  <minimizedRMSD>
0.87322855

$$$$
