REMARK  Name = 
REMARK  4 active torsions:
REMARK  status: ('A' for Active; 'I' for Inactive)
REMARK    1  A    between atoms: C_3  and  C_13
REMARK    2  A    between atoms: C_8  and  C_19
REMARK    3  A    between atoms: C_10  and  C_15
REMARK    4  A    between atoms: C_11  and  C_26
REMARK                            x       y       z     vdW  Elec       q    Type
REMARK                         _______ _______ _______ _____ _____    ______ ____
ROOT
ATOM      1  C   UNL     1      35.390  29.304  50.445  0.00  0.00    +0.000 A 
ATOM      2  C   UNL     1      36.322  30.142  49.777  0.00  0.00    +0.000 A 
ATOM      3  C   UNL     1      36.303  30.218  48.388  0.00  0.00    +0.000 A 
ATOM      4  N   UNL     1      35.354  29.453  47.756  0.00  0.00    +0.000 NA
ATOM      5  C   UNL     1      34.495  28.681  48.377  0.00  0.00    +0.000 A 
ATOM      6  N   UNL     1      34.498  28.595  49.710  0.00  0.00    +0.000 NA
ATOM      7  H   UNL     1      35.411  29.249  51.536  0.00  0.00    +0.000 HD
ENDROOT
BRANCH   5  10
ATOM      8 CL   UNL     1      32.690  30.300  46.560  0.00  0.00    +0.000 Cl
ATOM      9  C   UNL     1      32.636  28.547  46.724  0.00  0.00    +0.000 A 
ATOM     10  C   UNL     1      33.520  27.904  47.596  0.00  0.00    +0.000 A 
ATOM     11  C   UNL     1      33.515  26.525  47.758  0.00  0.00    +0.000 A 
ATOM     12  C   UNL     1      32.579  25.811  47.005  0.00  0.00    +0.000 A 
ATOM     13  C   UNL     1      31.703  26.419  46.145  0.00  0.00    +0.000 A 
ATOM     14 CL   UNL     1      30.578  25.423  45.255  0.00  0.00    +0.000 Cl
ATOM     15  C   UNL     1      31.741  27.804  46.011  0.00  0.00    +0.000 A 
ATOM     16  H   UNL     1      34.199  26.034  48.432  0.00  0.00    +0.000 HD
ATOM     17  H   UNL     1      32.617  24.742  47.169  0.00  0.00    +0.000 HD
BRANCH  15  18
ATOM     18  C   UNL     1      30.798  28.475  45.083  0.00  0.00    +0.000 C 
ATOM     19  F   UNL     1      29.828  27.578  44.634  0.00  0.00    +0.000 F 
ATOM     20  F   UNL     1      31.422  29.073  44.037  0.00  0.00    +0.000 F 
ATOM     21  F   UNL     1      30.095  29.457  45.780  0.00  0.00    +0.000 F 
ENDBRANCH  15  18
ENDBRANCH   5  10
BRANCH   3  22
ATOM     22  C   UNL     1      37.233  31.059  47.651  0.00  0.00    +0.000 C 
ATOM     23  C   UNL     1      38.538  30.417  47.252  0.00  0.00    +0.000 C 
ATOM     24  H   UNL     1      38.850  29.775  48.080  0.00  0.00    +0.000 HD
ATOM     25  C   UNL     1      39.432  31.663  47.147  0.00  0.00    +0.000 C 
ATOM     26  H   UNL     1      39.278  32.121  46.136  0.00  0.00    +0.000 HD
ATOM     27  O   UNL     1      38.945  32.572  48.046  0.00  0.00    +0.000 OA
ATOM     28  C   UNL     1      37.852  32.037  48.675  0.00  0.00    +0.000 C 
ATOM     29  H   UNL     1      38.216  31.396  49.505  0.00  0.00    +0.000 HD
ENDBRANCH   3  22
BRANCH   2  30
ATOM     30  C   UNL     1      37.298  30.915  50.594  0.00  0.00    +0.000 C 
ATOM     31  F   UNL     1      38.594  30.765  50.131  0.00  0.00    +0.000 F 
ATOM     32  F   UNL     1      36.944  32.242  50.589  0.00  0.00    +0.000 F 
ATOM     33  F   UNL     1      37.300  30.513  51.921  0.00  0.00    +0.000 F 
ENDBRANCH   2  30
TORSDOF 4
