
     RDKit          3D

 26 27  0  0  0  0  0  0  0  0999 V2000
   35.6174   29.0196   50.1741 C   0  0  0  0  0  0  0  0  0  0  0  0
   36.2797   30.1505   49.6562 C   0  0  0  0  0  0  0  0  0  0  0  0
   36.0389   30.5088   48.3428 C   0  0  0  0  0  0  0  0  0  0  0  0
   35.1706   29.7562   47.5958 N   0  0  0  0  0  0  0  0  0  0  0  0
   34.5507   28.6678   48.1382 C   0  0  0  0  0  0  0  0  0  0  0  0
   34.7692   28.2955   49.4227 N   0  0  0  0  0  0  0  0  0  0  0  0
   33.6861   28.0068   47.2217 N   0  0  0  0  0  0  0  0  0  0  0  0
   37.2120   30.9066   50.5299 C   0  0  0  0  0  0  0  0  0  0  0  0
   38.5374   30.7886   50.1009 F   0  0  0  0  0  0  0  0  0  0  0  0
   36.8649   32.2249   50.5195 F   0  0  0  0  0  0  0  0  0  0  0  0
   37.1861   30.4677   51.8421 F   0  0  0  0  0  0  0  0  0  0  0  0
   35.7603   28.6847   51.1926 H   0  0  0  0  0  0  0  0  0  0  0  0
   32.8093   28.5192   46.9690 H   0  0  0  0  0  0  0  0  0  0  0  0
   34.0203   27.0578   46.8868 H   0  0  0  0  0  0  0  0  0  0  0  0
   36.6822   31.6815   47.7156 C   0  0  2  0  0  0  0  0  0  0  0  0
   38.1776   31.6641   47.8748 C   0  0  1  0  0  0  0  0  0  0  0  0
   38.3958   30.9001   48.6651 H   0  0  0  0  0  0  0  0  0  0  0  0
   38.4841   33.0271   48.4077 C   0  0  2  0  0  0  0  0  0  0  0  0
   39.2527   33.5292   47.7694 H   0  0  0  0  0  0  0  0  0  0  0  0
   37.3094   33.7666   48.3445 O   0  0  0  0  0  0  0  0  0  0  0  0
   36.2659   32.8909   48.4823 C   0  0  1  0  0  0  0  0  0  0  0  0
   35.3263   33.3466   48.1103 H   0  0  0  0  0  0  0  0  0  0  0  0
   36.4395   31.7177   46.6437 H   0  0  0  0  0  0  0  0  0  0  0  0
   38.7321   31.4456   46.9393 H   0  0  0  0  0  0  0  0  0  0  0  0
   38.8486   33.0169   49.4584 H   0  0  0  0  0  0  0  0  0  0  0  0
   36.1703   32.5881   49.5640 H   0  0  0  0  0  0  0  0  0  0  0  0
  2  1  2  0
  2  8  1  0
  3  2  1  0
  4  5  1  0
  4  3  2  0
  5  6  2  0
  6  1  1  0
  7  5  1  0
  8 11  1  0
  9  8  1  0
 10  8  1  0
  1 12  1  0
  7 13  1  0
  7 14  1  0
 15 16  1  0
 16 17  1  1
 16 18  1  0
 18 19  1  6
 18 20  1  0
 20 21  1  0
 21 22  1  6
 21 15  1  0
 15 23  1  6
 16 24  1  0
 18 25  1  0
 21 26  1  0
  3 15  1  0
M  ISO  4  12  14  17  15  19  15  22  15
M  END
>  <DihAtoms>  (1) 
1,2,14,15

>  <DihDeg>  (1) 
-97.69803177275917

$$$$
