
 OpenBabel03272507553D

 22 23  0  0  1  0  0  0  0  0999 V2000
   35.1810   29.2290   50.5430 C   0  0  0  0  0  0  0  0  0  0  0  0
   36.0950   30.0970   49.9110 C   0  0  0  0  0  0  0  0  0  0  0  0
   35.8760   30.4300   48.5880 C   0  0  0  0  0  0  0  0  0  0  0  0
   34.7860   29.9070   47.9410 N   0  0  0  0  0  0  0  0  0  0  0  0
   33.9280   29.0700   48.5920 C   0  0  0  0  0  0  0  0  0  0  0  0
   34.1190   28.7280   49.8890 N   0  0  0  0  0  0  0  0  0  0  0  0
   32.8550   28.6250   47.7700 N   0  0  0  0  0  0  0  0  0  0  0  0
   35.2930   28.9280   51.5770 H   0  0  0  0  0  0  0  0  0  0  0  0
   32.1390   29.3460   47.5210 H   0  0  0  0  0  0  0  0  0  0  0  0
   32.8920   27.6020   47.4910 H   0  0  0  0  0  0  0  0  0  0  0  0
   36.7740   31.3370   47.8460 C   0  0  2  0  0  3  0  0  0  0  0  0
   37.8360   30.5900   47.0860 C   0  0  0  0  0  3  0  0  0  0  0  0
   37.8360   29.5480   47.4970 H   0  0  0  0  0  0  0  0  0  0  0  0
   39.1000   31.2800   47.4900 C   0  0  0  0  0  3  0  0  0  0  0  0
   39.6660   31.6140   46.5850 H   0  0  0  0  0  0  0  0  0  0  0  0
   38.7380   32.4050   48.2220 O   0  0  0  0  0  0  0  0  0  0  0  0
   37.5520   32.1240   48.8460 C   0  0  0  0  0  3  0  0  0  0  0  0
   37.0490   33.0600   49.1580 H   0  0  0  0  0  0  0  0  0  0  0  0
   37.2550   30.6120   50.6820 C   0  0  0  0  0  0  0  0  0  0  0  0
   38.4660   30.1240   50.1840 F   0  0  0  0  0  0  0  0  0  0  0  0
   37.2700   31.9730   50.6120 F   0  0  0  0  0  0  0  0  0  0  0  0
   37.2090   30.2530   52.0170 F   0  0  0  0  0  0  0  0  0  0  0  0
  1  8  1  0  0  0  0
  2  1  1  0  0  0  0
  2 19  1  0  0  0  0
  3  2  2  0  0  0  0
  4  3  1  0  0  0  0
  4  5  2  0  0  0  0
  5  6  1  0  0  0  0
  6  1  2  0  0  0  0
  7  5  1  0  0  0  0
  9  7  1  0  0  0  0
 10  7  1  0  0  0  0
 11  3  1  1  0  0  0
 11 17  1  0  0  0  0
 12 14  1  0  0  0  0
 12 13  1  0  0  0  0
 12 11  1  0  0  0  0
 14 16  1  0  0  0  0
 15 14  1  0  0  0  0
 16 17  1  0  0  0  0
 17 18  1  0  0  0  0
 19 22  1  0  0  0  0
 20 19  1  0  0  0  0
 21 19  1  0  0  0  0
M  END
>  <minimizedAffinity>
-5.34679556

>  <minimizedRMSD>
1.18917227

$$$$
