
 OpenBabel03272500193D

 33 35  0  0  1  0  0  0  0  0999 V2000
   35.3000   29.2740   50.6200 C   0  0  0  0  0  0  0  0  0  0  0  0
   36.4490   29.9390   50.1140 C   0  0  0  0  0  0  0  0  0  0  0  0
   36.6800   29.9590   48.7420 C   0  0  0  0  0  0  0  0  0  0  0  0
   35.7490   29.3160   47.9650 N   0  0  0  0  0  0  0  0  0  0  0  0
   34.6900   28.7040   48.4370 C   0  0  0  0  0  0  0  0  0  0  0  0
   34.4510   28.6730   49.7510 N   0  0  0  0  0  0  0  0  0  0  0  0
   35.1250   29.2620   51.6990 H   0  0  0  0  0  0  0  0  0  0  0  0
   33.0900   30.5630   46.6570 Cl  0  0  0  0  0  0  0  0  0  0  0  0
   32.9680   28.8060   46.6390 C   0  0  0  0  0  0  0  0  0  0  0  0
   33.7570   28.0460   47.5080 C   0  0  0  0  0  0  0  0  0  0  0  0
   33.6950   26.6590   47.5300 C   0  0  0  0  0  0  0  0  0  0  0  0
   32.8010   26.0600   46.6390 C   0  0  0  0  0  0  0  0  0  0  0  0
   32.0170   26.7830   45.7790 C   0  0  0  0  0  0  0  0  0  0  0  0
   30.9370   25.9240   44.7090 Cl  0  0  0  0  0  0  0  0  0  0  0  0
   32.1100   28.1720   45.7880 C   0  0  0  0  0  0  0  0  0  0  0  0
   34.3060   26.0780   48.2020 H   0  0  0  0  0  0  0  0  0  0  0  0
   32.7920   24.9790   46.6970 H   0  0  0  0  0  0  0  0  0  0  0  0
   31.2670   28.9670   44.8620 C   0  0  0  0  0  0  0  0  0  0  0  0
   30.2970   28.1610   44.2650 F   0  0  0  0  0  0  0  0  0  0  0  0
   31.9920   29.6250   43.9220 F   0  0  0  0  0  0  0  0  0  0  0  0
   30.5560   29.9160   45.5950 F   0  0  0  0  0  0  0  0  0  0  0  0
   37.8390   30.6240   48.1680 C   0  0  2  0  0  3  0  0  0  0  0  0
   37.7530   32.1250   48.0490 C   0  0  0  0  0  3  0  0  0  0  0  0
   36.7270   32.3700   47.7620 H   0  0  0  0  0  0  0  0  0  0  0  0
   38.7290   32.3620   46.8850 C   0  0  0  0  0  3  0  0  0  0  0  0
   39.7690   32.3930   47.3010 H   0  0  0  0  0  0  0  0  0  0  0  0
   38.6750   31.2460   46.0970 O   0  0  0  0  0  0  0  0  0  0  0  0
   37.7970   30.3500   46.6470 C   0  0  0  0  0  3  0  0  0  0  0  0
   36.7730   30.6380   46.3290 H   0  0  0  0  0  0  0  0  0  0  0  0
   37.3750   30.5940   51.0780 C   0  0  0  0  0  0  0  0  0  0  0  0
   38.7020   30.4110   50.7260 F   0  0  0  0  0  0  0  0  0  0  0  0
   37.0840   31.9340   51.1490 F   0  0  0  0  0  0  0  0  0  0  0  0
   37.2310   30.0910   52.3620 F   0  0  0  0  0  0  0  0  0  0  0  0
  1  7  1  0  0  0  0
  2  1  1  0  0  0  0
  2 30  1  0  0  0  0
  3  2  2  0  0  0  0
  4  5  2  0  0  0  0
  4  3  1  0  0  0  0
  5  6  1  0  0  0  0
  6  1  2  0  0  0  0
  9  8  1  0  0  0  0
  9 10  1  0  0  0  0
 10 11  2  0  0  0  0
 10  5  1  0  0  0  0
 11 16  1  0  0  0  0
 12 17  1  0  0  0  0
 12 11  1  0  0  0  0
 13 15  1  0  0  0  0
 13 12  2  0  0  0  0
 14 13  1  0  0  0  0
 15  9  2  0  0  0  0
 18 21  1  0  0  0  0
 18 15  1  0  0  0  0
 19 18  1  0  0  0  0
 20 18  1  0  0  0  0
 22  3  1  1  0  0  0
 23 22  1  0  0  0  0
 24 23  1  0  0  0  0
 25 26  1  0  0  0  0
 25 23  1  0  0  0  0
 27 28  1  0  0  0  0
 27 25  1  0  0  0  0
 28 22  1  0  0  0  0
 29 28  1  0  0  0  0
 30 32  1  0  0  0  0
 30 33  1  0  0  0  0
 31 30  1  0  0  0  0
M  END
>  <minimizedAffinity>
-5.7694006

>  <minimizedRMSD>
0.697879612

$$$$
