
 OpenBabel03262523343D

 39 43  0  0  1  0  0  0  0  0999 V2000
   35.4510   26.0490   31.1910 C   0  0  0  0  0  0  0  0  0  0  0  0
   35.3710   24.6730   31.0740 C   0  0  0  0  0  0  0  0  0  0  0  0
   36.3610   23.8990   31.6700 C   0  0  0  0  0  0  0  0  0  0  0  0
   37.3880   24.5170   32.3580 N   0  0  0  0  0  0  0  0  0  0  0  0
   37.4050   25.8710   32.4330 C   0  0  0  0  0  0  0  0  0  0  0  0
   36.4740   26.6350   31.8740 N   0  0  0  0  0  0  0  0  0  0  0  0
   34.6900   26.6650   30.7330 H   0  0  0  0  0  0  0  0  0  0  0  0
   34.5820   24.2020   30.5470 H   0  0  0  0  0  0  0  0  0  0  0  0
   37.3700   21.8620   30.8180 C   0  0  0  0  0  0  0  0  0  0  0  0
   36.3780   22.4450   31.6130 C   0  0  0  0  0  0  0  0  0  0  0  0
   35.4910   21.6430   32.2760 C   0  0  0  0  0  0  0  0  0  0  0  0
   35.5890   20.2750   32.1500 C   0  0  0  0  0  0  0  0  0  0  0  0
   34.8260   19.3040   32.7050 N   0  0  0  0  0  0  0  0  0  0  0  0
   35.3020   18.1350   32.2890 C   0  0  0  0  0  0  0  0  0  0  0  0
   36.3430   18.3230   31.4860 N   0  0  0  0  0  0  0  0  0  0  0  0
   36.5520   19.6550   31.3750 C   0  0  0  0  0  0  0  0  0  0  0  0
   37.4520   20.4730   30.7040 C   0  0  0  0  0  0  0  0  0  0  0  0
   38.1080   22.4110   30.2630 H   0  0  0  0  0  0  0  0  0  0  0  0
   34.7360   22.0730   32.8810 H   0  0  0  0  0  0  0  0  0  0  0  0
   34.0030   19.3450   33.3470 H   0  0  0  0  0  0  0  0  0  0  0  0
   35.0190   17.1010   32.4690 H   0  0  0  0  0  0  0  0  0  0  0  0
   38.1870   19.9810   30.1130 H   0  0  0  0  0  0  0  0  0  0  0  0
   38.5000   26.4850   33.1780 C   0  0  0  0  0  0  0  0  0  0  0  0
   39.0810   27.5320   32.7830 O   0  0  0  0  0  0  0  0  0  0  0  0
   38.9560   25.8360   34.4720 C   0  0  1  0  0  0  0  0  0  0  0  0
   38.6550   26.6690   35.7340 C   0  0  0  0  0  0  0  0  0  0  0  0
   37.9440   25.4090   35.4380 C   0  0  2  0  0  0  0  0  0  0  0  0
   40.0120   25.4690   34.4200 H   0  0  0  0  0  0  0  0  0  0  0  0
   39.4770   26.6680   36.4730 H   0  0  0  0  0  0  0  0  0  0  0  0
   38.1590   27.6380   35.5900 H   0  0  0  0  0  0  0  0  0  0  0  0
   36.8880   25.4900   35.0740 H   0  0  0  0  0  0  0  0  0  0  0  0
   38.1200   24.2860   36.3940 C   0  0  1  0  0  3  0  0  0  0  0  0
   39.5360   23.7200   36.4170 C   0  0  0  0  0  3  0  0  0  0  0  0
   39.7620   23.1060   35.5460 H   0  0  0  0  0  0  0  0  0  0  0  0
   39.3880   22.8970   37.6990 C   0  0  0  0  0  3  0  0  0  0  0  0
   38.7480   22.0280   37.4210 H   0  0  0  0  0  0  0  0  0  0  0  0
   38.6570   23.6850   38.5680 O   0  0  0  0  0  0  0  0  0  0  0  0
   37.9530   24.6320   37.8350 C   0  0  0  0  0  3  0  0  0  0  0  0
   38.4160   25.6110   38.1150 H   0  0  0  0  0  0  0  0  0  0  0  0
  1  6  1  0  0  0  0
  2  1  2  0  0  0  0
  2  3  1  0  0  0  0
  3  4  2  0  0  0  0
  4  5  1  0  0  0  0
  5 23  1  0  0  0  0
  6  5  2  0  0  0  0
  7  1  1  0  0  0  0
  8  2  1  0  0  0  0
  9 10  1  0  0  0  0
 10  3  1  0  0  0  0
 10 11  2  0  0  0  0
 11 19  1  0  0  0  0
 12 11  1  0  0  0  0
 12 13  1  0  0  0  0
 13 20  1  0  0  0  0
 14 21  1  0  0  0  0
 14 13  1  0  0  0  0
 15 14  2  0  0  0  0
 16 15  1  0  0  0  0
 16 12  2  0  0  0  0
 17  9  2  0  0  0  0
 17 16  1  0  0  0  0
 18  9  1  0  0  0  0
 22 17  1  0  0  0  0
 23 25  1  0  0  0  0
 24 23  2  0  0  0  0
 25 28  1  6  0  0  0
 25 27  1  0  0  0  0
 25 26  1  0  0  0  0
 26 29  1  0  0  0  0
 27 31  1  6  0  0  0
 27 26  1  0  0  0  0
 27 32  1  0  0  0  0
 30 26  1  0  0  0  0
 32 33  1  1  0  0  0
 32 38  1  0  0  0  0
 33 35  1  0  0  0  0
 34 33  1  0  0  0  0
 35 37  1  0  0  0  0
 36 35  1  0  0  0  0
 38 39  1  0  0  0  0
 38 37  1  0  0  0  0
M  END
>  <minimizedAffinity>
-6.0680418

$$$$

 OpenBabel03262523343D

 39 43  0  0  1  0  0  0  0  0999 V2000
   36.6410   26.1670   31.1720 C   0  0  0  0  0  0  0  0  0  0  0  0
   37.2010   25.3640   32.1500 C   0  0  0  0  0  0  0  0  0  0  0  0
   37.3560   25.8890   33.4290 C   0  0  0  0  0  0  0  0  0  0  0  0
   36.9510   27.1850   33.6880 N   0  0  0  0  0  0  0  0  0  0  0  0
   36.4100   27.9160   32.6830 C   0  0  0  0  0  0  0  0  0  0  0  0
   36.2500   27.4420   31.4530 N   0  0  0  0  0  0  0  0  0  0  0  0
   36.5140   25.7750   30.1730 H   0  0  0  0  0  0  0  0  0  0  0  0
   37.5100   24.3710   31.9480 H   0  0  0  0  0  0  0  0  0  0  0  0
   38.9190   24.2030   34.2080 C   0  0  0  0  0  0  0  0  0  0  0  0
   37.9300   25.1360   34.5340 C   0  0  0  0  0  0  0  0  0  0  0  0
   37.5560   25.2890   35.8400 C   0  0  0  0  0  0  0  0  0  0  0  0
   38.1580   24.5220   36.8120 C   0  0  0  0  0  0  0  0  0  0  0  0
   37.9440   24.5050   38.1490 N   0  0  0  0  0  0  0  0  0  0  0  0
   38.7600   23.5960   38.6730 C   0  0  0  0  0  0  0  0  0  0  0  0
   39.4910   23.0310   37.7190 N   0  0  0  0  0  0  0  0  0  0  0  0
   39.1390   23.5870   36.5370 C   0  0  0  0  0  0  0  0  0  0  0  0
   39.5170   23.4350   35.2090 C   0  0  0  0  0  0  0  0  0  0  0  0
   39.2760   24.0150   33.2120 H   0  0  0  0  0  0  0  0  0  0  0  0
   36.8080   25.9930   36.0990 H   0  0  0  0  0  0  0  0  0  0  0  0
   37.2940   25.0500   38.7590 H   0  0  0  0  0  0  0  0  0  0  0  0
   38.9400   23.2420   39.6850 H   0  0  0  0  0  0  0  0  0  0  0  0
   40.2730   22.7120   35.0130 H   0  0  0  0  0  0  0  0  0  0  0  0
   35.9850   29.2760   33.0000 C   0  0  0  0  0  0  0  0  0  0  0  0
   36.2050   30.2490   32.2290 O   0  0  0  0  0  0  0  0  0  0  0  0
   35.2560   29.5260   34.3070 C   0  0  1  0  0  0  0  0  0  0  0  0
   35.9850   30.4930   35.2610 C   0  0  0  0  0  0  0  0  0  0  0  0
   34.7330   30.8650   34.5740 C   0  0  2  0  0  0  0  0  0  0  0  0
   34.9220   28.5780   34.8010 H   0  0  0  0  0  0  0  0  0  0  0  0
   35.9520   30.1810   36.3210 H   0  0  0  0  0  0  0  0  0  0  0  0
   36.9500   30.8990   34.9240 H   0  0  0  0  0  0  0  0  0  0  0  0
   34.8120   31.5780   33.7130 H   0  0  0  0  0  0  0  0  0  0  0  0
   33.5470   31.1480   35.4240 C   0  0  1  0  0  3  0  0  0  0  0  0
   32.7050   29.9130   35.7260 C   0  0  0  0  0  3  0  0  0  0  0  0
   32.1050   29.5890   34.8760 H   0  0  0  0  0  0  0  0  0  0  0  0
   31.8610   30.5300   36.8440 C   0  0  0  0  0  3  0  0  0  0  0  0
   31.1570   31.2260   36.3330 H   0  0  0  0  0  0  0  0  0  0  0  0
   32.7330   31.3010   37.5890 O   0  0  0  0  0  0  0  0  0  0  0  0
   33.8420   31.6100   36.8110 C   0  0  0  0  0  3  0  0  0  0  0  0
   34.6900   31.0620   37.2930 H   0  0  0  0  0  0  0  0  0  0  0  0
  1  6  2  0  0  0  0
  1  2  1  0  0  0  0
  2  3  2  0  0  0  0
  3  4  1  0  0  0  0
  3 10  1  0  0  0  0
  5 23  1  0  0  0  0
  5  4  2  0  0  0  0
  6  5  1  0  0  0  0
  7  1  1  0  0  0  0
  8  2  1  0  0  0  0
  9 10  2  0  0  0  0
  9 17  1  0  0  0  0
 10 11  1  0  0  0  0
 11 19  1  0  0  0  0
 11 12  2  0  0  0  0
 12 13  1  0  0  0  0
 13 14  1  0  0  0  0
 13 20  1  0  0  0  0
 14 21  1  0  0  0  0
 15 14  2  0  0  0  0
 16 12  1  0  0  0  0
 16 15  1  0  0  0  0
 17 16  2  0  0  0  0
 18  9  1  0  0  0  0
 22 17  1  0  0  0  0
 23 25  1  0  0  0  0
 24 23  2  0  0  0  0
 25 27  1  0  0  0  0
 25 28  1  1  0  0  0
 25 26  1  0  0  0  0
 26 29  1  0  0  0  0
 27 31  1  6  0  0  0
 27 26  1  0  0  0  0
 27 32  1  0  0  0  0
 30 26  1  0  0  0  0
 32 33  1  1  0  0  0
 32 38  1  0  0  0  0
 33 35  1  0  0  0  0
 34 33  1  0  0  0  0
 35 37  1  0  0  0  0
 36 35  1  0  0  0  0
 38 39  1  0  0  0  0
 38 37  1  0  0  0  0
M  END
>  <minimizedAffinity>
-5.96788311

$$$$

 OpenBabel03262523343D

 39 43  0  0  1  0  0  0  0  0999 V2000
   36.5520   28.7350   30.5900 C   0  0  0  0  0  0  0  0  0  0  0  0
   35.9560   29.5300   31.5520 C   0  0  0  0  0  0  0  0  0  0  0  0
   35.7310   28.9870   32.8130 C   0  0  0  0  0  0  0  0  0  0  0  0
   36.1040   27.6820   33.0710 N   0  0  0  0  0  0  0  0  0  0  0  0
   36.6840   26.9590   32.0810 C   0  0  0  0  0  0  0  0  0  0  0  0
   36.9120   27.4500   30.8680 N   0  0  0  0  0  0  0  0  0  0  0  0
   36.7340   29.1410   29.6050 H   0  0  0  0  0  0  0  0  0  0  0  0
   35.6710   30.5300   31.3520 H   0  0  0  0  0  0  0  0  0  0  0  0
   33.7530   29.4940   34.1270 C   0  0  0  0  0  0  0  0  0  0  0  0
   35.1130   29.7310   33.9010 C   0  0  0  0  0  0  0  0  0  0  0  0
   35.7780   30.6300   34.6880 C   0  0  0  0  0  0  0  0  0  0  0  0
   35.0980   31.2860   35.6890 C   0  0  0  0  0  0  0  0  0  0  0  0
   35.5500   32.2070   36.5740 N   0  0  0  0  0  0  0  0  0  0  0  0
   34.5250   32.5570   37.3450 C   0  0  0  0  0  0  0  0  0  0  0  0
   33.4330   31.8920   36.9860 N   0  0  0  0  0  0  0  0  0  0  0  0
   33.7550   31.0850   35.9490 C   0  0  0  0  0  0  0  0  0  0  0  0
   33.0830   30.1710   35.1480 C   0  0  0  0  0  0  0  0  0  0  0  0
   33.1510   28.8080   33.5610 H   0  0  0  0  0  0  0  0  0  0  0  0
   36.8080   30.8170   34.5270 H   0  0  0  0  0  0  0  0  0  0  0  0
   36.4930   32.6330   36.7170 H   0  0  0  0  0  0  0  0  0  0  0  0
   34.4120   33.2490   38.1760 H   0  0  0  0  0  0  0  0  0  0  0  0
   32.0500   30.0270   35.3600 H   0  0  0  0  0  0  0  0  0  0  0  0
   37.0740   25.5880   32.3960 C   0  0  0  0  0  0  0  0  0  0  0  0
   38.1060   25.3170   33.0680 O   0  0  0  0  0  0  0  0  0  0  0  0
   36.2050   24.4490   31.8950 C   0  0  1  0  0  0  0  0  0  0  0  0
   36.8550   23.6020   30.7830 C   0  0  0  0  0  0  0  0  0  0  0  0
   36.6370   23.0740   32.1440 C   0  0  2  0  0  0  0  0  0  0  0  0
   35.1620   24.7770   31.6550 H   0  0  0  0  0  0  0  0  0  0  0  0
   36.1580   23.3220   29.9730 H   0  0  0  0  0  0  0  0  0  0  0  0
   37.8610   23.8960   30.4520 H   0  0  0  0  0  0  0  0  0  0  0  0
   37.5350   22.9800   32.8080 H   0  0  0  0  0  0  0  0  0  0  0  0
   35.7150   21.9180   32.2880 C   0  0  1  0  0  3  0  0  0  0  0  0
   35.8560   20.8840   31.1750 C   0  0  0  0  0  3  0  0  0  0  0  0
   35.4140   21.2090   30.2350 H   0  0  0  0  0  0  0  0  0  0  0  0
   35.0540   19.7700   31.8530 C   0  0  0  0  0  3  0  0  0  0  0  0
   33.9890   20.0950   31.7940 H   0  0  0  0  0  0  0  0  0  0  0  0
   35.4200   19.8010   33.1850 O   0  0  0  0  0  0  0  0  0  0  0  0
   35.9450   21.0530   33.4810 C   0  0  0  0  0  3  0  0  0  0  0  0
   37.0270   20.8660   33.6950 H   0  0  0  0  0  0  0  0  0  0  0  0
  1  6  2  0  0  0  0
  1  2  1  0  0  0  0
  2  3  2  0  0  0  0
  3  4  1  0  0  0  0
  3 10  1  0  0  0  0
  5 23  1  0  0  0  0
  5  4  2  0  0  0  0
  6  5  1  0  0  0  0
  7  1  1  0  0  0  0
  8  2  1  0  0  0  0
  9 17  1  0  0  0  0
 10  9  2  0  0  0  0
 10 11  1  0  0  0  0
 11 12  2  0  0  0  0
 12 16  1  0  0  0  0
 12 13  1  0  0  0  0
 13 20  1  0  0  0  0
 13 14  1  0  0  0  0
 14 21  1  0  0  0  0
 15 14  2  0  0  0  0
 16 15  1  0  0  0  0
 17 22  1  0  0  0  0
 17 16  2  0  0  0  0
 18  9  1  0  0  0  0
 19 11  1  0  0  0  0
 23 24  2  0  0  0  0
 25 28  1  6  0  0  0
 25 27  1  0  0  0  0
 25 23  1  0  0  0  0
 26 25  1  0  0  0  0
 26 27  1  0  0  0  0
 27 32  1  0  0  0  0
 27 31  1  1  0  0  0
 29 26  1  0  0  0  0
 30 26  1  0  0  0  0
 32 33  1  6  0  0  0
 32 38  1  0  0  0  0
 33 35  1  0  0  0  0
 34 33  1  0  0  0  0
 35 37  1  0  0  0  0
 36 35  1  0  0  0  0
 37 38  1  0  0  0  0
 38 39  1  0  0  0  0
M  END
>  <minimizedAffinity>
-5.92322063

$$$$

 OpenBabel03262523343D

 39 43  0  0  1  0  0  0  0  0999 V2000
   36.1050   27.9890   31.5520 C   0  0  0  0  0  0  0  0  0  0  0  0
   35.3500   28.8460   32.3320 C   0  0  0  0  0  0  0  0  0  0  0  0
   35.6650   28.9650   33.6820 C   0  0  0  0  0  0  0  0  0  0  0  0
   36.7140   28.2310   34.2040 N   0  0  0  0  0  0  0  0  0  0  0  0
   37.4120   27.4090   33.3820 C   0  0  0  0  0  0  0  0  0  0  0  0
   37.1340   27.2770   32.0900 N   0  0  0  0  0  0  0  0  0  0  0  0
   35.8720   27.8860   30.5020 H   0  0  0  0  0  0  0  0  0  0  0  0
   34.5470   29.4080   31.9300 H   0  0  0  0  0  0  0  0  0  0  0  0
   33.5820   29.5590   34.7780 C   0  0  0  0  0  0  0  0  0  0  0  0
   34.9410   29.8350   34.5960 C   0  0  0  0  0  0  0  0  0  0  0  0
   35.5080   30.8860   35.2630 C   0  0  0  0  0  0  0  0  0  0  0  0
   34.7330   31.6530   36.1020 C   0  0  0  0  0  0  0  0  0  0  0  0
   35.0800   32.7280   36.8490 N   0  0  0  0  0  0  0  0  0  0  0  0
   33.9910   33.1370   37.4920 C   0  0  0  0  0  0  0  0  0  0  0  0
   32.9580   32.3610   37.1840 N   0  0  0  0  0  0  0  0  0  0  0  0
   33.3870   31.4190   36.3130 C   0  0  0  0  0  0  0  0  0  0  0  0
   32.8140   30.3510   35.6340 C   0  0  0  0  0  0  0  0  0  0  0  0
   33.0530   28.7570   34.2980 H   0  0  0  0  0  0  0  0  0  0  0  0
   36.5370   31.1040   35.1330 H   0  0  0  0  0  0  0  0  0  0  0  0
   35.9890   33.2270   36.9750 H   0  0  0  0  0  0  0  0  0  0  0  0
   33.7890   33.9450   38.1900 H   0  0  0  0  0  0  0  0  0  0  0  0
   31.7780   30.1830   35.8060 H   0  0  0  0  0  0  0  0  0  0  0  0
   38.5190   26.6610   33.9690 C   0  0  0  0  0  0  0  0  0  0  0  0
   39.7150   27.0530   33.8930 O   0  0  0  0  0  0  0  0  0  0  0  0
   38.2180   25.3630   34.6950 C   0  0  1  0  0  0  0  0  0  0  0  0
   38.1370   24.1290   33.7740 C   0  0  0  0  0  0  0  0  0  0  0  0
   39.2450   24.3220   34.7290 C   0  0  2  0  0  0  0  0  0  0  0  0
   37.3510   25.4540   35.3970 H   0  0  0  0  0  0  0  0  0  0  0  0
   37.3130   23.4380   34.0290 H   0  0  0  0  0  0  0  0  0  0  0  0
   38.2910   24.2950   32.6980 H   0  0  0  0  0  0  0  0  0  0  0  0
   40.2370   24.6310   34.3090 H   0  0  0  0  0  0  0  0  0  0  0  0
   39.3890   23.3220   35.8180 C   0  0  1  0  0  3  0  0  0  0  0  0
   40.8270   23.1420   36.2950 C   0  0  0  0  0  3  0  0  0  0  0  0
   41.4390   22.5730   35.5970 H   0  0  0  0  0  0  0  0  0  0  0  0
   40.5050   22.3620   37.5720 C   0  0  0  0  0  3  0  0  0  0  0  0
   40.1990   21.3460   37.2290 H   0  0  0  0  0  0  0  0  0  0  0  0
   39.3850   22.9680   38.1090 O   0  0  0  0  0  0  0  0  0  0  0  0
   38.7260   23.6710   37.1080 C   0  0  0  0  0  3  0  0  0  0  0  0
   38.8420   24.7470   37.3920 H   0  0  0  0  0  0  0  0  0  0  0  0
  1  6  2  0  0  0  0
  1  2  1  0  0  0  0
  2  3  2  0  0  0  0
  3  4  1  0  0  0  0
  3 10  1  0  0  0  0
  5 23  1  0  0  0  0
  5  4  2  0  0  0  0
  6  5  1  0  0  0  0
  7  1  1  0  0  0  0
  8  2  1  0  0  0  0
  9 17  1  0  0  0  0
 10  9  2  0  0  0  0
 10 11  1  0  0  0  0
 11 12  2  0  0  0  0
 12 16  1  0  0  0  0
 12 13  1  0  0  0  0
 13 20  1  0  0  0  0
 13 14  1  0  0  0  0
 14 21  1  0  0  0  0
 15 14  2  0  0  0  0
 16 15  1  0  0  0  0
 17 22  1  0  0  0  0
 17 16  2  0  0  0  0
 18  9  1  0  0  0  0
 19 11  1  0  0  0  0
 23 25  1  0  0  0  0
 24 23  2  0  0  0  0
 25 27  1  0  0  0  0
 25 28  1  1  0  0  0
 26 29  1  0  0  0  0
 26 25  1  0  0  0  0
 26 27  1  0  0  0  0
 27 31  1  6  0  0  0
 27 32  1  0  0  0  0
 30 26  1  0  0  0  0
 32 33  1  1  0  0  0
 32 38  1  0  0  0  0
 33 35  1  0  0  0  0
 34 33  1  0  0  0  0
 35 37  1  0  0  0  0
 36 35  1  0  0  0  0
 38 39  1  0  0  0  0
 38 37  1  0  0  0  0
M  END
>  <minimizedAffinity>
-5.88391638

$$$$

 OpenBabel03262523343D

 39 43  0  0  1  0  0  0  0  0999 V2000
   36.0060   29.5030   31.5760 C   0  0  0  0  0  0  0  0  0  0  0  0
   36.7210   28.4630   32.1410 C   0  0  0  0  0  0  0  0  0  0  0  0
   36.5590   28.2080   33.4990 C   0  0  0  0  0  0  0  0  0  0  0  0
   35.6970   28.9920   34.2420 N   0  0  0  0  0  0  0  0  0  0  0  0
   35.0270   29.9960   33.6240 C   0  0  0  0  0  0  0  0  0  0  0  0
   35.1620   30.2620   32.3300 N   0  0  0  0  0  0  0  0  0  0  0  0
   36.1210   29.7140   30.5220 H   0  0  0  0  0  0  0  0  0  0  0  0
   37.3810   27.8630   31.5690 H   0  0  0  0  0  0  0  0  0  0  0  0
   37.8300   27.4690   35.4310 C   0  0  0  0  0  0  0  0  0  0  0  0
   37.2580   27.1400   34.1980 C   0  0  0  0  0  0  0  0  0  0  0  0
   37.3840   25.8660   33.7180 C   0  0  0  0  0  0  0  0  0  0  0  0
   38.0720   24.9290   34.4550 C   0  0  0  0  0  0  0  0  0  0  0  0
   38.3200   23.6280   34.1750 N   0  0  0  0  0  0  0  0  0  0  0  0
   39.0260   23.1280   35.1850 C   0  0  0  0  0  0  0  0  0  0  0  0
   39.2390   24.0640   36.1030 N   0  0  0  0  0  0  0  0  0  0  0  0
   38.6550   25.2090   35.6780 C   0  0  0  0  0  0  0  0  0  0  0  0
   38.5240   26.5030   36.1620 C   0  0  0  0  0  0  0  0  0  0  0  0
   37.7820   28.4410   35.8850 H   0  0  0  0  0  0  0  0  0  0  0  0
   36.9550   25.6040   32.7860 H   0  0  0  0  0  0  0  0  0  0  0  0
   38.0600   23.0270   33.3610 H   0  0  0  0  0  0  0  0  0  0  0  0
   39.4440   22.1480   35.3970 H   0  0  0  0  0  0  0  0  0  0  0  0
   38.9770   26.7030   37.1040 H   0  0  0  0  0  0  0  0  0  0  0  0
   34.1180   30.7940   34.4410 C   0  0  0  0  0  0  0  0  0  0  0  0
   32.9150   30.4650   34.6290 O   0  0  0  0  0  0  0  0  0  0  0  0
   34.6400   32.0660   35.0830 C   0  0  1  0  0  0  0  0  0  0  0  0
   35.1810   31.8730   36.5140 C   0  0  0  0  0  0  0  0  0  0  0  0
   36.0700   32.1700   35.3730 C   0  0  2  0  0  0  0  0  0  0  0  0
   33.9240   32.9210   34.9870 H   0  0  0  0  0  0  0  0  0  0  0  0
   34.8980   32.6850   37.2080 H   0  0  0  0  0  0  0  0  0  0  0  0
   35.1330   30.8600   36.9360 H   0  0  0  0  0  0  0  0  0  0  0  0
   36.6900   31.3270   34.9730 H   0  0  0  0  0  0  0  0  0  0  0  0
   36.8260   33.4480   35.4130 C   0  0  1  0  0  3  0  0  0  0  0  0
   37.3460   33.8910   34.0490 C   0  0  0  0  0  3  0  0  0  0  0  0
   38.2060   33.3130   33.7130 H   0  0  0  0  0  0  0  0  0  0  0  0
   37.7150   35.3230   34.4450 C   0  0  0  0  0  3  0  0  0  0  0  0
   38.6310   35.2300   35.0730 H   0  0  0  0  0  0  0  0  0  0  0  0
   36.6950   35.7580   35.2700 O   0  0  0  0  0  0  0  0  0  0  0  0
   36.0370   34.6540   35.7970 C   0  0  0  0  0  3  0  0  0  0  0  0
   35.0170   34.6840   35.3390 H   0  0  0  0  0  0  0  0  0  0  0  0
  1  2  2  0  0  0  0
  1  6  1  0  0  0  0
  2  3  1  0  0  0  0
  3 10  1  0  0  0  0
  3  4  2  0  0  0  0
  5  4  1  0  0  0  0
  5 23  1  0  0  0  0
  6  5  2  0  0  0  0
  7  1  1  0  0  0  0
  8  2  1  0  0  0  0
  9 18  1  0  0  0  0
  9 17  1  0  0  0  0
 10  9  2  0  0  0  0
 11 10  1  0  0  0  0
 11 12  2  0  0  0  0
 12 16  1  0  0  0  0
 13 12  1  0  0  0  0
 13 14  1  0  0  0  0
 14 21  1  0  0  0  0
 14 15  2  0  0  0  0
 16 15  1  0  0  0  0
 16 17  2  0  0  0  0
 17 22  1  0  0  0  0
 19 11  1  0  0  0  0
 20 13  1  0  0  0  0
 23 24  2  0  0  0  0
 23 25  1  0  0  0  0
 25 28  1  6  0  0  0
 25 27  1  0  0  0  0
 25 26  1  0  0  0  0
 26 30  1  0  0  0  0
 26 29  1  0  0  0  0
 27 31  1  6  0  0  0
 27 32  1  0  0  0  0
 27 26  1  0  0  0  0
 32 33  1  6  0  0  0
 32 38  1  0  0  0  0
 33 35  1  0  0  0  0
 34 33  1  0  0  0  0
 35 36  1  0  0  0  0
 35 37  1  0  0  0  0
 37 38  1  0  0  0  0
 39 38  1  0  0  0  0
M  END
>  <minimizedAffinity>
-5.72809124

$$$$

 OpenBabel03262523343D

 39 43  0  0  1  0  0  0  0  0999 V2000
   38.1930   26.2660   35.4830 C   0  0  0  0  0  0  0  0  0  0  0  0
   37.5250   27.4420   35.1960 C   0  0  0  0  0  0  0  0  0  0  0  0
   36.9260   27.5760   33.9460 C   0  0  0  0  0  0  0  0  0  0  0  0
   37.0150   26.5410   33.0340 N   0  0  0  0  0  0  0  0  0  0  0  0
   37.6860   25.4160   33.3820 C   0  0  0  0  0  0  0  0  0  0  0  0
   38.2660   25.2600   34.5660 N   0  0  0  0  0  0  0  0  0  0  0  0
   38.6630   26.1460   36.4490 H   0  0  0  0  0  0  0  0  0  0  0  0
   37.4580   28.2330   35.8970 H   0  0  0  0  0  0  0  0  0  0  0  0
   35.7030   29.5810   34.5600 C   0  0  0  0  0  0  0  0  0  0  0  0
   36.1970   28.7660   33.5360 C   0  0  0  0  0  0  0  0  0  0  0  0
   35.9720   29.1140   32.2330 C   0  0  0  0  0  0  0  0  0  0  0  0
   35.2630   30.2600   31.9510 C   0  0  0  0  0  0  0  0  0  0  0  0
   34.9250   30.7870   30.7500 N   0  0  0  0  0  0  0  0  0  0  0  0
   34.2370   31.9010   30.9820 C   0  0  0  0  0  0  0  0  0  0  0  0
   34.1240   32.1070   32.2890 N   0  0  0  0  0  0  0  0  0  0  0  0
   34.7560   31.0950   32.9290 C   0  0  0  0  0  0  0  0  0  0  0  0
   34.9870   30.7390   34.2510 C   0  0  0  0  0  0  0  0  0  0  0  0
   35.8310   29.3880   35.6090 H   0  0  0  0  0  0  0  0  0  0  0  0
   36.3420   28.5050   31.4490 H   0  0  0  0  0  0  0  0  0  0  0  0
   35.1110   30.4720   29.7720 H   0  0  0  0  0  0  0  0  0  0  0  0
   33.7710   32.6440   30.3400 H   0  0  0  0  0  0  0  0  0  0  0  0
   34.5900   31.3910   34.9920 H   0  0  0  0  0  0  0  0  0  0  0  0
   37.7470   24.3430   32.3940 C   0  0  0  0  0  0  0  0  0  0  0  0
   38.7190   24.2080   31.6030 O   0  0  0  0  0  0  0  0  0  0  0  0
   36.5960   23.3570   32.3170 C   0  0  1  0  0  0  0  0  0  0  0  0
   35.5300   23.7130   31.2620 C   0  0  0  0  0  0  0  0  0  0  0  0
   36.4350   22.5580   31.1020 C   0  0  2  0  0  0  0  0  0  0  0  0
   36.1660   23.1170   33.3230 H   0  0  0  0  0  0  0  0  0  0  0  0
   34.4930   23.5470   31.6050 H   0  0  0  0  0  0  0  0  0  0  0  0
   35.6880   24.6320   30.6790 H   0  0  0  0  0  0  0  0  0  0  0  0
   37.2720   22.6600   30.3630 H   0  0  0  0  0  0  0  0  0  0  0  0
   35.8180   21.2080   31.0620 C   0  0  1  0  0  3  0  0  0  0  0  0
   36.8290   20.0710   31.1750 C   0  0  0  0  0  3  0  0  0  0  0  0
   37.3960   19.9150   30.2590 H   0  0  0  0  0  0  0  0  0  0  0  0
   35.8220   18.9500   31.4460 C   0  0  0  0  0  3  0  0  0  0  0  0
   35.3110   18.7700   30.4710 H   0  0  0  0  0  0  0  0  0  0  0  0
   34.8840   19.4890   32.3070 O   0  0  0  0  0  0  0  0  0  0  0  0
   34.9190   20.8740   32.2050 C   0  0  0  0  0  3  0  0  0  0  0  0
   35.3080   21.2230   33.1940 H   0  0  0  0  0  0  0  0  0  0  0  0
  1  7  1  0  0  0  0
  2  1  1  0  0  0  0
  2  8  1  0  0  0  0
  3  2  2  0  0  0  0
  4  5  2  0  0  0  0
  4  3  1  0  0  0  0
  5  6  1  0  0  0  0
  6  1  2  0  0  0  0
  9 18  1  0  0  0  0
 10  3  1  0  0  0  0
 10  9  2  0  0  0  0
 11 10  1  0  0  0  0
 12 11  2  0  0  0  0
 12 16  1  0  0  0  0
 13 14  1  0  0  0  0
 13 12  1  0  0  0  0
 14 15  2  0  0  0  0
 15 16  1  0  0  0  0
 16 17  2  0  0  0  0
 17  9  1  0  0  0  0
 17 22  1  0  0  0  0
 19 11  1  0  0  0  0
 20 13  1  0  0  0  0
 21 14  1  0  0  0  0
 23  5  1  0  0  0  0
 24 23  2  0  0  0  0
 25 23  1  0  0  0  0
 25 28  1  1  0  0  0
 26 29  1  0  0  0  0
 26 25  1  0  0  0  0
 27 31  1  6  0  0  0
 27 26  1  0  0  0  0
 27 25  1  0  0  0  0
 30 26  1  0  0  0  0
 32 27  1  0  0  0  0
 32 33  1  1  0  0  0
 32 38  1  0  0  0  0
 33 35  1  0  0  0  0
 34 33  1  0  0  0  0
 35 37  1  0  0  0  0
 36 35  1  0  0  0  0
 38 37  1  0  0  0  0
 38 39  1  0  0  0  0
M  END
>  <minimizedAffinity>
-5.72741032

$$$$

 OpenBabel03262523343D

 39 43  0  0  1  0  0  0  0  0999 V2000
   36.8250   29.2170   30.4830 C   0  0  0  0  0  0  0  0  0  0  0  0
   36.3090   29.9330   31.5480 C   0  0  0  0  0  0  0  0  0  0  0  0
   35.5570   29.2540   32.5010 C   0  0  0  0  0  0  0  0  0  0  0  0
   35.3460   27.8950   32.3610 N   0  0  0  0  0  0  0  0  0  0  0  0
   35.8810   27.2550   31.2920 C   0  0  0  0  0  0  0  0  0  0  0  0
   36.6030   27.8770   30.3680 N   0  0  0  0  0  0  0  0  0  0  0  0
   37.4110   29.7300   29.7340 H   0  0  0  0  0  0  0  0  0  0  0  0
   36.4720   30.9740   31.6530 H   0  0  0  0  0  0  0  0  0  0  0  0
   33.5970   29.7060   33.8600 C   0  0  0  0  0  0  0  0  0  0  0  0
   34.9670   29.9030   33.6610 C   0  0  0  0  0  0  0  0  0  0  0  0
   35.6680   30.6820   34.5410 C   0  0  0  0  0  0  0  0  0  0  0  0
   35.0130   31.2580   35.6060 C   0  0  0  0  0  0  0  0  0  0  0  0
   35.5010   32.0570   36.5840 N   0  0  0  0  0  0  0  0  0  0  0  0
   34.4890   32.3690   37.3880 C   0  0  0  0  0  0  0  0  0  0  0  0
   33.3700   31.7970   36.9590 N   0  0  0  0  0  0  0  0  0  0  0  0
   33.6610   31.0920   35.8420 C   0  0  0  0  0  0  0  0  0  0  0  0
   32.9530   30.3000   34.9470 C   0  0  0  0  0  0  0  0  0  0  0  0
   32.9670   29.1130   33.2230 H   0  0  0  0  0  0  0  0  0  0  0  0
   36.7060   30.8380   34.4010 H   0  0  0  0  0  0  0  0  0  0  0  0
   36.4610   32.4220   36.7730 H   0  0  0  0  0  0  0  0  0  0  0  0
   34.4020   32.9720   38.2880 H   0  0  0  0  0  0  0  0  0  0  0  0
   31.9130   30.1820   35.1410 H   0  0  0  0  0  0  0  0  0  0  0  0
   35.6450   25.8180   31.1870 C   0  0  0  0  0  0  0  0  0  0  0  0
   34.7590   25.3330   30.4330 O   0  0  0  0  0  0  0  0  0  0  0  0
   36.4970   24.8770   32.0180 C   0  0  1  0  0  0  0  0  0  0  0  0
   37.8430   24.5030   31.3670 C   0  0  0  0  0  0  0  0  0  0  0  0
   37.7640   25.3680   32.5600 C   0  0  2  0  0  0  0  0  0  0  0  0
   35.9200   23.9930   32.3920 H   0  0  0  0  0  0  0  0  0  0  0  0
   38.1130   23.4380   31.4850 H   0  0  0  0  0  0  0  0  0  0  0  0
   38.0590   24.9320   30.3780 H   0  0  0  0  0  0  0  0  0  0  0  0
   37.9400   26.4650   32.4110 H   0  0  0  0  0  0  0  0  0  0  0  0
   38.3920   24.8670   33.8090 C   0  0  1  0  0  3  0  0  0  0  0  0
   37.8650   25.5430   35.0710 C   0  0  0  0  0  3  0  0  0  0  0  0
   38.2480   26.5540   35.2020 H   0  0  0  0  0  0  0  0  0  0  0  0
   38.4570   24.5520   36.0760 C   0  0  0  0  0  3  0  0  0  0  0  0
   39.5520   24.7600   36.0880 H   0  0  0  0  0  0  0  0  0  0  0  0
   38.2830   23.3000   35.5150 O   0  0  0  0  0  0  0  0  0  0  0  0
   38.1170   23.4390   34.1430 C   0  0  0  0  0  3  0  0  0  0  0  0
   37.0580   23.1320   33.9510 H   0  0  0  0  0  0  0  0  0  0  0  0
  1  2  1  0  0  0  0
  2  8  1  0  0  0  0
  2  3  2  0  0  0  0
  3 10  1  0  0  0  0
  4  3  1  0  0  0  0
  5  4  2  0  0  0  0
  6  1  2  0  0  0  0
  6  5  1  0  0  0  0
  7  1  1  0  0  0  0
  9 17  1  0  0  0  0
 10  9  2  0  0  0  0
 10 11  1  0  0  0  0
 11 12  2  0  0  0  0
 12 16  1  0  0  0  0
 12 13  1  0  0  0  0
 13 20  1  0  0  0  0
 13 14  1  0  0  0  0
 14 21  1  0  0  0  0
 15 14  2  0  0  0  0
 16 15  1  0  0  0  0
 17 22  1  0  0  0  0
 17 16  2  0  0  0  0
 18  9  1  0  0  0  0
 19 11  1  0  0  0  0
 23  5  1  0  0  0  0
 23 25  1  0  0  0  0
 24 23  2  0  0  0  0
 25 28  1  1  0  0  0
 25 27  1  0  0  0  0
 26 29  1  0  0  0  0
 26 25  1  0  0  0  0
 26 27  1  0  0  0  0
 27 31  1  6  0  0  0
 27 32  1  0  0  0  0
 30 26  1  0  0  0  0
 32 38  1  1  0  0  0
 32 33  1  0  0  0  0
 33 34  1  0  0  0  0
 33 35  1  0  0  0  0
 35 36  1  0  0  0  0
 37 35  1  0  0  0  0
 38 37  1  0  0  0  0
 39 38  1  0  0  0  0
M  END
>  <minimizedAffinity>
-5.70581961

$$$$

 OpenBabel03262523343D

 39 43  0  0  1  0  0  0  0  0999 V2000
   33.4840   30.9250   31.6410 C   0  0  0  0  0  0  0  0  0  0  0  0
   34.6770   30.2580   31.8580 C   0  0  0  0  0  0  0  0  0  0  0  0
   34.7840   29.4420   32.9800 C   0  0  0  0  0  0  0  0  0  0  0  0
   33.7090   29.3190   33.8400 N   0  0  0  0  0  0  0  0  0  0  0  0
   32.5700   30.0020   33.5650 C   0  0  0  0  0  0  0  0  0  0  0  0
   32.4380   30.7870   32.5030 N   0  0  0  0  0  0  0  0  0  0  0  0
   33.3850   31.5630   30.7740 H   0  0  0  0  0  0  0  0  0  0  0  0
   35.4990   30.3540   31.1980 H   0  0  0  0  0  0  0  0  0  0  0  0
   36.6880   28.1330   32.2340 C   0  0  0  0  0  0  0  0  0  0  0  0
   35.9880   28.6930   33.3080 C   0  0  0  0  0  0  0  0  0  0  0  0
   36.4530   28.5110   34.5810 C   0  0  0  0  0  0  0  0  0  0  0  0
   37.6010   27.7800   34.7840 C   0  0  0  0  0  0  0  0  0  0  0  0
   38.2310   27.4740   35.9430 N   0  0  0  0  0  0  0  0  0  0  0  0
   39.2990   26.7430   35.6380 C   0  0  0  0  0  0  0  0  0  0  0  0
   39.3750   26.5700   34.3240 N   0  0  0  0  0  0  0  0  0  0  0  0
   38.3250   27.2070   33.7550 C   0  0  0  0  0  0  0  0  0  0  0  0
   37.8500   27.3940   32.4640 C   0  0  0  0  0  0  0  0  0  0  0  0
   36.3990   28.2240   31.2040 H   0  0  0  0  0  0  0  0  0  0  0  0
   35.9320   28.9320   35.4010 H   0  0  0  0  0  0  0  0  0  0  0  0
   38.0160   27.7100   36.9380 H   0  0  0  0  0  0  0  0  0  0  0  0
   40.0870   26.2810   36.2270 H   0  0  0  0  0  0  0  0  0  0  0  0
   38.4180   26.9470   31.6820 H   0  0  0  0  0  0  0  0  0  0  0  0
   31.4540   29.8360   34.4920 C   0  0  0  0  0  0  0  0  0  0  0  0
   30.5040   29.0370   34.2680 O   0  0  0  0  0  0  0  0  0  0  0  0
   31.4360   30.6580   35.7670 C   0  0  1  0  0  0  0  0  0  0  0  0
   31.8640   29.8770   37.0260 C   0  0  0  0  0  0  0  0  0  0  0  0
   32.7050   30.9390   36.4390 C   0  0  2  0  0  0  0  0  0  0  0  0
   30.4820   31.2280   35.8980 H   0  0  0  0  0  0  0  0  0  0  0  0
   31.2500   30.1000   37.9170 H   0  0  0  0  0  0  0  0  0  0  0  0
   32.1290   28.8180   36.8940 H   0  0  0  0  0  0  0  0  0  0  0  0
   33.6150   30.6170   35.8700 H   0  0  0  0  0  0  0  0  0  0  0  0
   32.9640   32.1420   37.2710 C   0  0  1  0  0  3  0  0  0  0  0  0
   34.3660   32.7160   37.0940 C   0  0  0  0  0  3  0  0  0  0  0  0
   35.1340   32.1230   37.5890 H   0  0  0  0  0  0  0  0  0  0  0  0
   34.1110   34.0540   37.7920 C   0  0  0  0  0  3  0  0  0  0  0  0
   34.0460   33.8130   38.8780 H   0  0  0  0  0  0  0  0  0  0  0  0
   32.8520   34.4550   37.3850 O   0  0  0  0  0  0  0  0  0  0  0  0
   32.1450   33.3440   36.9410 C   0  0  0  0  0  3  0  0  0  0  0  0
   32.0160   33.5080   35.8420 H   0  0  0  0  0  0  0  0  0  0  0  0
  1  2  2  0  0  0  0
  1  6  1  0  0  0  0
  2  3  1  0  0  0  0
  3 10  1  0  0  0  0
  3  4  2  0  0  0  0
  5  4  1  0  0  0  0
  5 23  1  0  0  0  0
  6  5  2  0  0  0  0
  7  1  1  0  0  0  0
  8  2  1  0  0  0  0
  9 17  2  0  0  0  0
  9 10  1  0  0  0  0
 10 11  2  0  0  0  0
 11 12  1  0  0  0  0
 11 19  1  0  0  0  0
 12 13  1  0  0  0  0
 13 20  1  0  0  0  0
 14 13  1  0  0  0  0
 14 21  1  0  0  0  0
 15 14  2  0  0  0  0
 16 15  1  0  0  0  0
 16 12  2  0  0  0  0
 17 16  1  0  0  0  0
 18  9  1  0  0  0  0
 22 17  1  0  0  0  0
 23 25  1  0  0  0  0
 24 23  2  0  0  0  0
 25 28  1  1  0  0  0
 25 27  1  0  0  0  0
 25 26  1  0  0  0  0
 26 29  1  0  0  0  0
 27 31  1  6  0  0  0
 27 26  1  0  0  0  0
 27 32  1  0  0  0  0
 30 26  1  0  0  0  0
 32 38  1  6  0  0  0
 33 32  1  0  0  0  0
 33 34  1  0  0  0  0
 33 35  1  0  0  0  0
 35 36  1  0  0  0  0
 37 35  1  0  0  0  0
 38 37  1  0  0  0  0
 39 38  1  0  0  0  0
M  END
>  <minimizedAffinity>
-5.66317034

$$$$

 OpenBabel03262523343D

 39 43  0  0  1  0  0  0  0  0999 V2000
   35.6550   31.6530   32.2370 C   0  0  0  0  0  0  0  0  0  0  0  0
   35.9830   30.3410   31.9460 C   0  0  0  0  0  0  0  0  0  0  0  0
   35.9180   29.3990   32.9680 C   0  0  0  0  0  0  0  0  0  0  0  0
   35.5310   29.7940   34.2350 N   0  0  0  0  0  0  0  0  0  0  0  0
   35.2230   31.0970   34.4500 C   0  0  0  0  0  0  0  0  0  0  0  0
   35.2760   32.0170   33.4940 N   0  0  0  0  0  0  0  0  0  0  0  0
   35.7010   32.3970   31.4540 H   0  0  0  0  0  0  0  0  0  0  0  0
   36.2790   30.0410   30.9740 H   0  0  0  0  0  0  0  0  0  0  0  0
   37.0180   27.3890   33.7690 C   0  0  0  0  0  0  0  0  0  0  0  0
   36.2390   27.9930   32.7770 C   0  0  0  0  0  0  0  0  0  0  0  0
   35.8320   27.2550   31.7000 C   0  0  0  0  0  0  0  0  0  0  0  0
   36.1950   25.9300   31.6110 C   0  0  0  0  0  0  0  0  0  0  0  0
   35.9110   25.0240   30.6450 N   0  0  0  0  0  0  0  0  0  0  0  0
   36.4820   23.8750   30.9930 C   0  0  0  0  0  0  0  0  0  0  0  0
   37.1220   24.0130   32.1490 N   0  0  0  0  0  0  0  0  0  0  0  0
   36.9640   25.2910   32.5660 C   0  0  0  0  0  0  0  0  0  0  0  0
   37.3750   26.0440   33.6580 C   0  0  0  0  0  0  0  0  0  0  0  0
   37.3820   27.8890   34.6470 H   0  0  0  0  0  0  0  0  0  0  0  0
   35.2410   27.7010   30.9430 H   0  0  0  0  0  0  0  0  0  0  0  0
   35.3620   25.0970   29.7590 H   0  0  0  0  0  0  0  0  0  0  0  0
   36.5250   22.8890   30.5390 H   0  0  0  0  0  0  0  0  0  0  0  0
   37.9660   25.5380   34.3840 H   0  0  0  0  0  0  0  0  0  0  0  0
   34.8080   31.4710   35.7980 C   0  0  0  0  0  0  0  0  0  0  0  0
   35.5150   32.2020   36.5440 O   0  0  0  0  0  0  0  0  0  0  0  0
   33.4790   30.9580   36.3210 C   0  0  1  0  0  0  0  0  0  0  0  0
   32.2840   31.8850   36.0220 C   0  0  0  0  0  0  0  0  0  0  0  0
   32.4460   30.5760   35.3590 C   0  0  2  0  0  0  0  0  0  0  0  0
   33.5350   30.6310   37.3910 H   0  0  0  0  0  0  0  0  0  0  0  0
   31.5760   31.9830   36.8650 H   0  0  0  0  0  0  0  0  0  0  0  0
   32.4950   32.8170   35.4790 H   0  0  0  0  0  0  0  0  0  0  0  0
   32.7800   30.5810   34.2890 H   0  0  0  0  0  0  0  0  0  0  0  0
   31.4030   29.5490   35.6120 C   0  0  1  0  0  3  0  0  0  0  0  0
   31.2500   28.5410   34.4770 C   0  0  0  0  0  3  0  0  0  0  0  0
   30.7340   28.9520   33.6110 H   0  0  0  0  0  0  0  0  0  0  0  0
   30.4030   27.5230   35.2430 C   0  0  0  0  0  3  0  0  0  0  0  0
   29.3940   27.9880   35.3370 H   0  0  0  0  0  0  0  0  0  0  0  0
   30.9460   27.4620   36.5130 O   0  0  0  0  0  0  0  0  0  0  0  0
   31.6710   28.6230   36.7500 C   0  0  0  0  0  3  0  0  0  0  0  0
   32.7370   28.2870   36.8110 H   0  0  0  0  0  0  0  0  0  0  0  0
  1  6  1  0  0  0  0
  2  1  2  0  0  0  0
  2  3  1  0  0  0  0
  3  4  2  0  0  0  0
  4  5  1  0  0  0  0
  5 23  1  0  0  0  0
  6  5  2  0  0  0  0
  7  1  1  0  0  0  0
  8  2  1  0  0  0  0
  9 18  1  0  0  0  0
 10  3  1  0  0  0  0
 10  9  2  0  0  0  0
 11 10  1  0  0  0  0
 12 11  2  0  0  0  0
 12 16  1  0  0  0  0
 13 14  1  0  0  0  0
 13 12  1  0  0  0  0
 14 15  2  0  0  0  0
 15 16  1  0  0  0  0
 16 17  2  0  0  0  0
 17  9  1  0  0  0  0
 17 22  1  0  0  0  0
 19 11  1  0  0  0  0
 20 13  1  0  0  0  0
 21 14  1  0  0  0  0
 23 25  1  0  0  0  0
 23 24  2  0  0  0  0
 25 28  1  1  0  0  0
 26 25  1  0  0  0  0
 26 29  1  0  0  0  0
 27 31  1  6  0  0  0
 27 32  1  0  0  0  0
 27 26  1  0  0  0  0
 27 25  1  0  0  0  0
 30 26  1  0  0  0  0
 32 33  1  6  0  0  0
 32 38  1  0  0  0  0
 33 35  1  0  0  0  0
 34 33  1  0  0  0  0
 35 36  1  0  0  0  0
 35 37  1  0  0  0  0
 37 38  1  0  0  0  0
 38 39  1  0  0  0  0
M  END
>  <minimizedAffinity>
-5.61800098

$$$$
