
 OpenBabel03262523363D

 33 35  0  0  1  0  0  0  0  0999 V2000
   35.2800   30.3420   49.7340 C   0  0  2  0  0  0  0  0  0  0  0  0
   36.2570   31.0640   48.8270 C   0  0  0  0  0  0  0  0  0  0  0  0
   37.6640   30.5390   48.9650 C   0  0  2  0  0  0  0  0  0  0  0  0
   38.1540   30.6310   50.3810 C   0  0  0  0  0  0  0  0  0  0  0  0
   37.1470   30.0850   51.3670 C   0  0  0  0  0  0  0  0  0  0  0  0
   35.9650   29.4300   50.6930 C   0  0  0  0  0  0  0  0  0  0  0  0
   34.7020   31.0980   50.3020 H   0  0  0  0  0  0  0  0  0  0  0  0
   35.9990   30.9820   47.7500 H   0  0  0  0  0  0  0  0  0  0  0  0
   36.2810   32.1460   49.0810 H   0  0  0  0  0  0  0  0  0  0  0  0
   37.5650   29.4270   48.7740 H   0  0  0  0  0  0  0  0  0  0  0  0
   38.2980   31.7010   50.6420 H   0  0  0  0  0  0  0  0  0  0  0  0
   39.1230   30.0970   50.4660 H   0  0  0  0  0  0  0  0  0  0  0  0
   36.7310   30.8500   52.0450 H   0  0  0  0  0  0  0  0  0  0  0  0
   37.6450   29.3360   51.9910 H   0  0  0  0  0  0  0  0  0  0  0  0
   36.3560   28.5070   50.1780 H   0  0  0  0  0  0  0  0  0  0  0  0
   35.2820   29.0720   51.4590 H   0  0  0  0  0  0  0  0  0  0  0  0
   34.3590   29.5100   48.8980 C   0  0  0  0  0  0  0  0  0  0  0  0
   34.3370   29.7820   47.5180 C   0  0  0  0  0  0  0  0  0  0  0  0
   33.4790   29.0190   46.7380 C   0  0  0  0  0  0  0  0  0  0  0  0
   32.6970   28.0480   47.3310 N   0  0  0  0  0  0  0  0  0  0  0  0
   32.7530   27.8220   48.6780 C   0  0  0  0  0  0  0  0  0  0  0  0
   33.5750   28.5490   49.4380 N   0  0  0  0  0  0  0  0  0  0  0  0
   34.9220   30.5190   47.0210 H   0  0  0  0  0  0  0  0  0  0  0  0
   33.4050   29.1680   45.6620 H   0  0  0  0  0  0  0  0  0  0  0  0
   32.1070   27.0420   49.0600 H   0  0  0  0  0  0  0  0  0  0  0  0
   38.5830   31.0540   47.9470 C   0  0  2  0  0  0  0  0  0  0  0  0
   38.7420   32.5600   47.9130 C   0  0  0  0  0  0  0  0  0  0  0  0
   39.3050   32.9700   48.7470 H   0  0  0  0  0  0  0  0  0  0  0  0
   39.5220   32.6490   46.5900 C   0  0  0  0  0  0  0  0  0  0  0  0
   40.5660   32.3720   46.8500 H   0  0  0  0  0  0  0  0  0  0  0  0
   38.9280   31.7230   45.7500 O   0  0  0  0  0  0  0  0  0  0  0  0
   38.2330   30.7960   46.5170 C   0  0  0  0  0  0  0  0  0  0  0  0
   37.1550   30.9850   46.2890 H   0  0  0  0  0  0  0  0  0  0  0  0
  1  7  1  1  0  0  0
  1  6  1  0  0  0  0
  2  3  1  0  0  0  0
  2  9  1  0  0  0  0
  2  1  1  0  0  0  0
  3 10  1  6  0  0  0
  3  4  1  0  0  0  0
  4 12  1  0  0  0  0
  4 11  1  0  0  0  0
  4  5  1  0  0  0  0
  5 14  1  0  0  0  0
  5 13  1  0  0  0  0
  6  5  1  0  0  0  0
  6 16  1  0  0  0  0
  8  2  1  0  0  0  0
 15  6  1  0  0  0  0
 17 22  1  0  0  0  0
 17  1  1  0  0  0  0
 18 17  2  0  0  0  0
 19 20  2  0  0  0  0
 19 18  1  0  0  0  0
 20 21  1  0  0  0  0
 21 25  1  0  0  0  0
 21 22  2  0  0  0  0
 23 18  1  0  0  0  0
 24 19  1  0  0  0  0
 26 32  1  6  0  0  0
 26  3  1  0  0  0  0
 27 26  1  0  0  0  0
 27 28  1  0  0  0  0
 29 30  1  0  0  0  0
 29 27  1  0  0  0  0
 31 32  1  0  0  0  0
 31 29  1  0  0  0  0
 33 32  1  0  0  0  0
M  END
>  <minimizedAffinity>
-6.11078024

>  <minimizedRMSD>
0.763134956

$$$$
