
 OpenBabel03262521253D

 46 49  0  0  1  0  0  0  0  0999 V2000
   38.1630   28.2280   51.3000 C   0  0  0  0  0  0  0  0  0  0  0  0
   37.8190   27.5050   50.5070 H   0  0  0  0  0  0  0  0  0  0  0  0
   39.0700   28.7010   50.8400 H   0  0  0  0  0  0  0  0  0  0  0  0
   37.1370   29.3060   51.5400 C   0  0  0  0  0  0  0  0  0  0  0  0
   36.1620   28.8850   51.2090 H   0  0  0  0  0  0  0  0  0  0  0  0
   37.0180   29.3310   52.6660 H   0  0  0  0  0  0  0  0  0  0  0  0
   37.4770   30.5150   51.0230 C   0  0  0  0  0  0  0  0  0  0  0  0
   38.4820   30.9010   51.3490 H   0  0  0  0  0  0  0  0  0  0  0  0
   36.7620   31.3480   51.1900 H   0  0  0  0  0  0  0  0  0  0  0  0
   37.5080   30.1650   49.6980 O   0  0  0  0  0  0  0  0  0  0  0  0
   38.0950   31.0250   48.8070 C   0  0  0  0  0  0  0  0  0  0  0  0
   38.3670   32.2530   49.3590 C   0  0  0  0  0  0  0  0  0  0  0  0
   38.9730   33.2390   48.5540 C   0  0  0  0  0  0  0  0  0  0  0  0
   39.2550   32.9100   47.2640 N   0  0  0  0  0  0  0  0  0  0  0  0
   38.9710   31.6730   46.7440 C   0  0  0  0  0  0  0  0  0  0  0  0
   38.3970   30.7640   47.5360 N   0  0  0  0  0  0  0  0  0  0  0  0
   39.8620   32.5370   44.7030 C   0  0  0  0  0  0  0  0  0  0  0  0
   40.0750   33.6920   45.2020 O   0  0  0  0  0  0  0  0  0  0  0  0
   39.3090   31.4380   45.3840 N   0  0  0  0  0  0  0  0  0  0  0  0
   38.1950   32.6440   50.3600 H   0  0  0  0  0  0  0  0  0  0  0  0
   39.2260   34.2180   48.8760 H   0  0  0  0  0  0  0  0  0  0  0  0
   40.1410   32.4140   43.6560 H   0  0  0  0  0  0  0  0  0  0  0  0
   39.1380   30.4970   44.9690 H   0  0  0  0  0  0  0  0  0  0  0  0
   38.6620   27.3350   52.7380 S   0  0  0  0  0  0  0  0  0  0  0  0
   40.4230   25.2000   53.4040 C   0  0  0  0  0  0  0  0  0  0  0  0
   39.8080   26.0270   52.4600 C   0  0  0  0  0  0  0  0  0  0  0  0
   40.1420   25.7890   51.1270 C   0  0  0  0  0  0  0  0  0  0  0  0
   41.0130   24.8150   50.7330 C   0  0  0  0  0  0  0  0  0  0  0  0
   41.5000   24.3770   49.5770 N   0  0  0  0  0  0  0  0  0  0  0  0
   42.3720   23.3370   49.7560 C   0  0  0  0  0  0  0  0  0  0  0  0
   42.4250   23.1190   51.1170 C   0  0  0  0  0  0  0  0  0  0  0  0
   41.5860   24.0330   51.7100 C   0  0  0  0  0  0  0  0  0  0  0  0
   41.3070   24.2090   53.0260 C   0  0  0  0  0  0  0  0  0  0  0  0
   40.1330   25.4240   54.4180 H   0  0  0  0  0  0  0  0  0  0  0  0
   39.7190   26.3760   50.3010 H   0  0  0  0  0  0  0  0  0  0  0  0
   41.2530   24.7740   48.6330 H   0  0  0  0  0  0  0  0  0  0  0  0
   42.9010   22.8040   48.9980 H   0  0  0  0  0  0  0  0  0  0  0  0
   43.0250   22.3610   51.6130 H   0  0  0  0  0  0  0  0  0  0  0  0
   41.9210   23.3720   54.0650 C   0  0  2  0  0  0  0  0  0  0  0  0
   40.9740   23.1590   55.2510 C   0  0  0  0  0  0  0  0  0  0  0  0
   40.2330   22.3860   55.0190 H   0  0  0  0  0  0  0  0  0  0  0  0
   41.9540   22.8120   56.3290 C   0  0  0  0  0  0  0  0  0  0  0  0
   41.7440   23.3130   57.2900 H   0  0  0  0  0  0  0  0  0  0  0  0
   43.2270   23.0370   55.8320 O   0  0  0  0  0  0  0  0  0  0  0  0
   43.0920   23.9650   54.7720 C   0  0  0  0  0  0  0  0  0  0  0  0
   44.0250   23.9570   54.2020 H   0  0  0  0  0  0  0  0  0  0  0  0
  1  4  1  0  0  0  0
  1 24  1  0  0  0  0
  2  1  1  0  0  0  0
  3  1  1  0  0  0  0
  4  6  1  0  0  0  0
  5  4  1  0  0  0  0
  7  9  1  0  0  0  0
  7  8  1  0  0  0  0
  7  4  1  0  0  0  0
 10  7  1  0  0  0  0
 11 12  1  0  0  0  0
 11 10  1  0  0  0  0
 12 20  1  0  0  0  0
 13 21  1  0  0  0  0
 13 12  2  0  0  0  0
 14 13  1  0  0  0  0
 15 14  2  0  0  0  0
 15 16  1  0  0  0  0
 16 11  2  0  0  0  0
 17 18  2  0  0  0  0
 17 19  1  0  0  0  0
 19 15  1  0  0  0  0
 22 17  1  0  0  0  0
 23 19  1  0  0  0  0
 25 34  1  0  0  0  0
 26 24  1  0  0  0  0
 26 25  2  0  0  0  0
 27 26  1  0  0  0  0
 28 27  2  0  0  0  0
 28 32  1  0  0  0  0
 29 30  1  0  0  0  0
 29 28  1  0  0  0  0
 30 31  2  0  0  0  0
 31 38  1  0  0  0  0
 31 32  1  0  0  0  0
 32 33  2  0  0  0  0
 33 25  1  0  0  0  0
 35 27  1  0  0  0  0
 36 29  1  0  0  0  0
 37 30  1  0  0  0  0
 39 33  1  6  0  0  0
 39 45  1  0  0  0  0
 39 40  1  0  0  0  0
 40 42  1  0  0  0  0
 41 40  1  0  0  0  0
 42 43  1  0  0  0  0
 44 42  1  0  0  0  0
 45 44  1  0  0  0  0
 46 45  1  0  0  0  0
M  END
>  <minimizedAffinity>
-4.43413544

>  <minimizedRMSD>
0.589824319

$$$$
