
     RDKit          3D

 31 33  0  0  0  0  0  0  0  0999 V2000
   37.0117   31.4021   48.5716 N   0  0  0  0  0  0  0  0  0  0  0  0
   37.1838   32.1642   49.6570 C   0  0  0  0  0  0  0  0  0  0  0  0
   38.1549   33.1676   49.6665 C   0  0  0  0  0  0  0  0  0  0  0  0
   38.8600   33.2607   48.4941 C   0  0  0  0  0  0  0  0  0  0  0  0
   39.7578   34.1716   48.4722 O   0  0  0  0  0  0  0  0  0  0  0  0
   38.7162   32.5195   47.3923 N   0  0  0  0  0  0  0  0  0  0  0  0
   37.7544   31.5613   47.4487 C   0  0  0  0  0  0  0  0  0  0  0  0
   37.6042   30.8485   46.4089 O   0  0  0  0  0  0  0  0  0  0  0  0
   36.2041   29.2441   49.3501 C   0  0  0  0  0  0  0  0  0  0  0  0
   36.0415   30.3704   48.5266 C   0  0  0  0  0  0  0  0  0  0  0  0
   34.9028   30.3846   47.7048 C   0  0  0  0  0  0  0  0  0  0  0  0
   34.0403   29.3412   47.7447 N   0  0  0  0  0  0  0  0  0  0  0  0
   34.2272   28.2823   48.5435 C   0  0  0  0  0  0  0  0  0  0  0  0
   35.3171   28.2347   49.3512 N   0  0  0  0  0  0  0  0  0  0  0  0
   36.5822   32.0358   50.5566 H   0  0  0  0  0  0  0  0  0  0  0  0
   38.3447   33.8175   50.5103 H   0  0  0  0  0  0  0  0  0  0  0  0
   39.3165   32.6852   46.5546 H   0  0  0  0  0  0  0  0  0  0  0  0
   34.7844   31.2550   47.0733 H   0  0  0  0  0  0  0  0  0  0  0  0
   33.4619   27.5211   48.4756 H   0  0  0  0  0  0  0  0  0  0  0  0
   37.3309   29.0575   50.2611 C   0  0  2  0  0  0  0  0  0  0  0  0
   38.6682   29.0180   49.5269 C   0  0  2  0  0  0  0  0  0  0  0  0
   39.1791   29.9957   49.6008 H   0  0  0  0  0  0  0  0  0  0  0  0
   39.4370   28.0100   50.3440 C   0  0  1  0  0  0  0  0  0  0  0  0
   39.6018   27.0456   49.8082 H   0  0  0  0  0  0  0  0  0  0  0  0
   38.6443   27.7073   51.4629 O   0  0  0  0  0  0  0  0  0  0  0  0
   37.3361   27.7062   50.9342 C   0  0  1  0  0  0  0  0  0  0  0  0
   36.6173   27.6325   51.7677 H   0  0  0  0  0  0  0  0  0  0  0  0
   37.4388   29.8059   51.0525 H   0  0  0  0  0  0  0  0  0  0  0  0
   38.5577   28.6416   48.4845 H   0  0  0  0  0  0  0  0  0  0  0  0
   40.4157   28.4177   50.6854 H   0  0  0  0  0  0  0  0  0  0  0  0
   37.2800   26.8551   50.2209 H   0  0  0  0  0  0  0  0  0  0  0  0
  1  2  1  0
  2  3  2  0
  4  3  1  0
  5  4  2  0
  6  7  1  0
  6  4  1  0
  7  1  1  0
  8  7  2  0
  9 14  1  0
 10  1  1  0
 10  9  2  0
 11 12  2  0
 11 10  1  0
 12 13  1  0
 13 14  2  0
  2 15  1  0
  3 16  1  0
  6 17  1  0
 11 18  1  0
 13 19  1  0
 20 21  1  0
 21 22  1  6
 21 23  1  0
 23 24  1  6
 23 25  1  0
 25 26  1  0
 26 27  1  1
 26 20  1  0
 20 28  1  1
 21 29  1  0
 23 30  1  0
 26 31  1  0
  9 20  1  0
M  ISO  8  15  14  16  14  17   9  18  14  19  14  22  15  24  15  27  15
M  END
>  <DihAtoms>  (1) 
13,8,19,20

>  <DihDeg>  (1) 
88.55738256411429

$$$$
