
 OpenBabel03272510043D

 36 38  0  0  1  0  0  0  0  0999 V2000
   35.8520   30.4560   44.2760 C   0  0  0  0  0  0  0  0  0  0  0  0
   35.8500   30.2810   45.6230 C   0  0  0  0  0  0  0  0  0  0  0  0
   34.8110   29.5790   46.2280 C   0  0  0  0  0  0  0  0  0  0  0  0
   33.7610   29.0440   45.5210 C   0  0  0  0  0  0  0  0  0  0  0  0
   33.7240   29.2020   44.1580 C   0  0  0  0  0  0  0  0  0  0  0  0
   34.7630   29.8970   43.5890 C   0  0  0  0  0  0  0  0  0  0  0  0
   34.8470   29.4570   47.3250 H   0  0  0  0  0  0  0  0  0  0  0  0
   33.0180   28.5220   46.0900 H   0  0  0  0  0  0  0  0  0  0  0  0
   32.8930   28.7710   43.6620 H   0  0  0  0  0  0  0  0  0  0  0  0
   34.6110   29.9550   42.5020 H   0  0  0  0  0  0  0  0  0  0  0  0
   38.7890   32.2330   46.6490 C   0  0  0  0  0  0  0  0  0  0  0  0
   37.7690   31.6890   45.8860 C   0  0  0  0  0  0  0  0  0  0  0  0
   36.8770   30.8300   46.4440 C   0  0  0  0  0  0  0  0  0  0  0  0
   37.0340   30.5430   47.7660 N   0  0  0  0  0  0  0  0  0  0  0  0
   38.0140   31.0670   48.5090 C   0  0  0  0  0  0  0  0  0  0  0  0
   38.8860   31.9060   47.9460 N   0  0  0  0  0  0  0  0  0  0  0  0
   39.5710   32.9150   46.3720 H   0  0  0  0  0  0  0  0  0  0  0  0
   37.8990   32.1320   44.9280 H   0  0  0  0  0  0  0  0  0  0  0  0
   38.0230   30.7170   49.9560 C   0  0  0  0  0  0  0  0  0  0  0  0
   38.9920   31.4180   50.6490 F   0  0  0  0  0  0  0  0  0  0  0  0
   36.8010   31.2080   50.5560 F   0  0  0  0  0  0  0  0  0  0  0  0
   38.0300   29.4400   50.2650 F   0  0  0  0  0  0  0  0  0  0  0  0
   37.0760   31.2580   43.4020 S   0  0  0  0  0  0  0  0  0  0  0  0
   36.8940   32.7480   43.4720 O   0  0  0  0  0  0  0  0  0  0  0  0
   36.5260   31.0930   42.0120 O   0  0  0  0  0  0  0  0  0  0  0  0
   38.5310   30.6250   42.8230 C   0  0  0  0  0  0  0  0  0  0  0  0
   38.7900   30.8500   41.7750 H   0  0  0  0  0  0  0  0  0  0  0  0
   39.3410   31.2540   43.3420 H   0  0  0  0  0  0  0  0  0  0  0  0
   38.8740   29.2450   43.2510 C   0  0  1  0  0  3  0  0  0  0  0  0
   37.9480   28.1460   42.8980 C   0  0  0  0  0  3  0  0  0  0  0  0
   37.4660   28.2680   41.9140 H   0  0  0  0  0  0  0  0  0  0  0  0
   38.9110   26.9470   42.8270 C   0  0  0  0  0  3  0  0  0  0  0  0
   38.6030   26.2270   42.0430 H   0  0  0  0  0  0  0  0  0  0  0  0
   40.1620   27.4210   42.5640 O   0  0  0  0  0  0  0  0  0  0  0  0
   40.1390   28.7820   42.4950 C   0  0  0  0  0  3  0  0  0  0  0  0
   39.9540   29.1320   41.4480 H   0  0  0  0  0  0  0  0  0  0  0  0
  1  2  1  0  0  0  0
  2  3  2  0  0  0  0
  2 13  1  0  0  0  0
  3  7  1  0  0  0  0
  4  8  1  0  0  0  0
  4  3  1  0  0  0  0
  5  4  2  0  0  0  0
  6  5  1  0  0  0  0
  6  1  2  0  0  0  0
  9  5  1  0  0  0  0
 10  6  1  0  0  0  0
 11 16  1  0  0  0  0
 12 13  1  0  0  0  0
 12 11  2  0  0  0  0
 13 14  2  0  0  0  0
 14 15  1  0  0  0  0
 15 19  1  0  0  0  0
 16 15  2  0  0  0  0
 17 11  1  0  0  0  0
 18 12  1  0  0  0  0
 19 22  1  0  0  0  0
 19 21  1  0  0  0  0
 19 20  1  0  0  0  0
 23 24  2  0  0  0  0
 23  1  1  0  0  0  0
 25 23  2  0  0  0  0
 26 28  1  0  0  0  0
 26 23  1  0  0  0  0
 27 26  1  0  0  0  0
 29 26  1  6  0  0  0
 30 29  1  0  0  0  0
 31 30  1  0  0  0  0
 32 30  1  0  0  0  0
 33 32  1  0  0  0  0
 34 32  1  0  0  0  0
 35 34  1  0  0  0  0
 35 29  1  0  0  0  0
 36 35  1  0  0  0  0
M  END
>  <minimizedAffinity>
-5.43265581

>  <minimizedRMSD>
2.77356887

$$$$
