
 OpenBabel03272507383D

 22 23  0  0  1  0  0  0  0  0999 V2000
   39.7470   23.7330   35.6690 C   0  0  0  0  0  0  0  0  0  0  0  0
   39.5530   22.9330   36.7810 C   0  0  0  0  0  0  0  0  0  0  0  0
   40.6360   22.3740   37.4170 C   0  0  0  0  0  0  0  0  0  0  0  0
   41.8770   22.6430   36.9040 N   0  0  0  0  0  0  0  0  0  0  0  0
   42.0540   23.4320   35.8100 C   0  0  0  0  0  0  0  0  0  0  0  0
   40.9940   23.9620   35.2120 N   0  0  0  0  0  0  0  0  0  0  0  0
   40.5300   21.7390   38.2930 H   0  0  0  0  0  0  0  0  0  0  0  0
   43.0480   23.6260   35.4280 H   0  0  0  0  0  0  0  0  0  0  0  0
   37.7750   23.4720   38.3620 C   0  0  0  0  0  0  0  0  0  0  0  0
   38.1490   24.5280   38.9650 O   0  0  0  0  0  0  0  0  0  0  0  0
   38.2990   22.6350   37.3350 N   0  0  0  0  0  0  0  0  0  0  0  0
   36.8160   23.2810   38.8490 H   0  0  0  0  0  0  0  0  0  0  0  0
   37.6770   21.8570   37.0860 H   0  0  0  0  0  0  0  0  0  0  0  0
   38.5750   24.2270   35.1330 O   0  0  0  0  0  0  0  0  0  0  0  0
   38.5840   25.6020   34.8270 C   0  0  2  0  0  3  0  0  0  0  0  0
   38.2550   26.4810   36.0170 C   0  0  0  0  0  3  0  0  0  0  0  0
   39.1070   26.6680   36.6830 H   0  0  0  0  0  0  0  0  0  0  0  0
   37.7740   27.7260   35.2950 C   0  0  0  0  0  3  0  0  0  0  0  0
   36.9050   28.1720   35.8160 H   0  0  0  0  0  0  0  0  0  0  0  0
   37.4710   27.3650   34.0000 O   0  0  0  0  0  0  0  0  0  0  0  0
   37.4120   25.9960   33.9240 C   0  0  0  0  0  3  0  0  0  0  0  0
   37.6560   25.6020   32.9190 H   0  0  0  0  0  0  0  0  0  0  0  0
  1  2  1  0  0  0  0
  2 11  1  0  0  0  0
  2  3  2  0  0  0  0
  3  7  1  0  0  0  0
  4  3  1  0  0  0  0
  5  4  2  0  0  0  0
  6  1  2  0  0  0  0
  6  5  1  0  0  0  0
  8  5  1  0  0  0  0
  9 12  1  0  0  0  0
  9 10  2  0  0  0  0
 11  9  1  0  0  0  0
 13 11  1  0  0  0  0
 14  1  1  0  0  0  0
 15 14  1  1  0  0  0
 15 16  1  0  0  0  0
 16 17  1  0  0  0  0
 18 19  1  0  0  0  0
 18 16  1  0  0  0  0
 20 18  1  0  0  0  0
 21 20  1  0  0  0  0
 21 15  1  0  0  0  0
 22 21  1  0  0  0  0
M  END
>  <minimizedAffinity>
-4.18163633

$$$$

 OpenBabel03272507383D

 22 23  0  0  1  0  0  0  0  0999 V2000
   37.6320   25.4510   34.4300 C   0  0  0  0  0  0  0  0  0  0  0  0
   37.4730   25.5530   33.0590 C   0  0  0  0  0  0  0  0  0  0  0  0
   37.0480   26.7380   32.5070 C   0  0  0  0  0  0  0  0  0  0  0  0
   36.7970   27.7780   33.3610 N   0  0  0  0  0  0  0  0  0  0  0  0
   36.9580   27.6650   34.7070 C   0  0  0  0  0  0  0  0  0  0  0  0
   37.3700   26.5110   35.2190 N   0  0  0  0  0  0  0  0  0  0  0  0
   36.9100   26.8620   31.4350 H   0  0  0  0  0  0  0  0  0  0  0  0
   36.7510   28.5060   35.3570 H   0  0  0  0  0  0  0  0  0  0  0  0
   36.6190   23.8260   31.5630 C   0  0  0  0  0  0  0  0  0  0  0  0
   35.3500   23.9120   31.6140 O   0  0  0  0  0  0  0  0  0  0  0  0
   37.7200   24.5100   32.1520 N   0  0  0  0  0  0  0  0  0  0  0  0
   36.7440   22.9910   30.8690 H   0  0  0  0  0  0  0  0  0  0  0  0
   38.6330   24.1590   31.8410 H   0  0  0  0  0  0  0  0  0  0  0  0
   38.0630   24.2080   34.8450 O   0  0  0  0  0  0  0  0  0  0  0  0
   38.5670   24.1520   36.1590 C   0  0  2  0  0  3  0  0  0  0  0  0
   39.7580   23.2260   36.3030 C   0  0  0  0  0  3  0  0  0  0  0  0
   40.7130   23.6770   36.0030 H   0  0  0  0  0  0  0  0  0  0  0  0
   39.6770   22.9280   37.7890 C   0  0  0  0  0  3  0  0  0  0  0  0
   39.9170   21.8670   37.9920 H   0  0  0  0  0  0  0  0  0  0  0  0
   38.4090   23.2620   38.2110 O   0  0  0  0  0  0  0  0  0  0  0  0
   37.6060   23.4350   37.1120 C   0  0  0  0  0  3  0  0  0  0  0  0
   36.7690   24.1370   37.2850 H   0  0  0  0  0  0  0  0  0  0  0  0
  1 14  1  0  0  0  0
  1  6  1  0  0  0  0
  2  1  2  0  0  0  0
  3  2  1  0  0  0  0
  3  4  2  0  0  0  0
  4  5  1  0  0  0  0
  5  6  2  0  0  0  0
  5  8  1  0  0  0  0
  7  3  1  0  0  0  0
  9 10  2  0  0  0  0
  9 11  1  0  0  0  0
 11  2  1  0  0  0  0
 12  9  1  0  0  0  0
 13 11  1  0  0  0  0
 15 14  1  6  0  0  0
 15 16  1  0  0  0  0
 15 21  1  0  0  0  0
 16 18  1  0  0  0  0
 17 16  1  0  0  0  0
 18 19  1  0  0  0  0
 18 20  1  0  0  0  0
 21 22  1  0  0  0  0
 21 20  1  0  0  0  0
M  END
>  <minimizedAffinity>
-3.87124157

$$$$

 OpenBabel03272507383D

 22 23  0  0  1  0  0  0  0  0999 V2000
   39.6770   24.5340   35.3950 C   0  0  0  0  0  0  0  0  0  0  0  0
   38.5430   24.9460   36.0730 C   0  0  0  0  0  0  0  0  0  0  0  0
   38.2460   26.2850   36.1550 C   0  0  0  0  0  0  0  0  0  0  0  0
   39.1060   27.1610   35.5480 N   0  0  0  0  0  0  0  0  0  0  0  0
   40.2170   26.7420   34.8840 C   0  0  0  0  0  0  0  0  0  0  0  0
   40.4850   25.4440   34.8180 N   0  0  0  0  0  0  0  0  0  0  0  0
   37.3660   26.6540   36.6770 H   0  0  0  0  0  0  0  0  0  0  0  0
   40.8790   27.4590   34.4150 H   0  0  0  0  0  0  0  0  0  0  0  0
   37.7730   23.8330   38.1030 C   0  0  0  0  0  0  0  0  0  0  0  0
   38.5440   24.2300   39.0360 O   0  0  0  0  0  0  0  0  0  0  0  0
   37.6390   24.0790   36.7060 N   0  0  0  0  0  0  0  0  0  0  0  0
   37.1170   23.1510   38.6500 H   0  0  0  0  0  0  0  0  0  0  0  0
   36.8550   23.5750   36.2770 H   0  0  0  0  0  0  0  0  0  0  0  0
   39.8520   23.1640   35.3930 O   0  0  0  0  0  0  0  0  0  0  0  0
   41.0310   22.7060   36.0100 C   0  0  2  0  0  3  0  0  0  0  0  0
   41.7640   21.6590   35.1950 C   0  0  0  0  0  3  0  0  0  0  0  0
   42.3940   22.0730   34.3980 H   0  0  0  0  0  0  0  0  0  0  0  0
   42.5590   20.9820   36.2970 C   0  0  0  0  0  3  0  0  0  0  0  0
   42.5930   19.8870   36.1430 H   0  0  0  0  0  0  0  0  0  0  0  0
   41.9740   21.3180   37.4980 O   0  0  0  0  0  0  0  0  0  0  0  0
   40.7380   21.8610   37.2530 C   0  0  0  0  0  3  0  0  0  0  0  0
   40.4090   22.5730   38.0340 H   0  0  0  0  0  0  0  0  0  0  0  0
  1  2  1  0  0  0  0
  2  3  2  0  0  0  0
  2 11  1  0  0  0  0
  3  7  1  0  0  0  0
  4  3  1  0  0  0  0
  5  4  2  0  0  0  0
  6  5  1  0  0  0  0
  6  1  2  0  0  0  0
  8  5  1  0  0  0  0
  9 12  1  0  0  0  0
  9 10  2  0  0  0  0
 11  9  1  0  0  0  0
 13 11  1  0  0  0  0
 14  1  1  0  0  0  0
 15 14  1  6  0  0  0
 15 21  1  0  0  0  0
 16 15  1  0  0  0  0
 16 18  1  0  0  0  0
 17 16  1  0  0  0  0
 18 20  1  0  0  0  0
 19 18  1  0  0  0  0
 21 20  1  0  0  0  0
 21 22  1  0  0  0  0
M  END
>  <minimizedAffinity>
-3.84656215

$$$$

 OpenBabel03272507383D

 22 23  0  0  1  0  0  0  0  0999 V2000
   36.8860   27.4250   31.3180 C   0  0  0  0  0  0  0  0  0  0  0  0
   36.6680   28.3820   30.3420 C   0  0  0  0  0  0  0  0  0  0  0  0
   36.1480   29.6050   30.6900 C   0  0  0  0  0  0  0  0  0  0  0  0
   35.8650   29.8180   32.0140 N   0  0  0  0  0  0  0  0  0  0  0  0
   36.0860   28.8690   32.9630 C   0  0  0  0  0  0  0  0  0  0  0  0
   36.5890   27.6940   32.6040 N   0  0  0  0  0  0  0  0  0  0  0  0
   35.9600   30.3860   29.9570 H   0  0  0  0  0  0  0  0  0  0  0  0
   35.8520   29.0660   34.0010 H   0  0  0  0  0  0  0  0  0  0  0  0
   38.1430   28.7460   28.4330 C   0  0  0  0  0  0  0  0  0  0  0  0
   39.1420   29.3960   28.8790 O   0  0  0  0  0  0  0  0  0  0  0  0
   36.9440   28.2010   28.9780 N   0  0  0  0  0  0  0  0  0  0  0  0
   38.4040   28.6600   27.3750 H   0  0  0  0  0  0  0  0  0  0  0  0
   36.3710   27.7040   28.2870 H   0  0  0  0  0  0  0  0  0  0  0  0
   37.4110   26.2460   30.8280 O   0  0  0  0  0  0  0  0  0  0  0  0
   36.9240   25.0720   31.4320 C   0  0  2  0  0  3  0  0  0  0  0  0
   37.5640   23.8100   30.8900 C   0  0  0  0  0  3  0  0  0  0  0  0
   38.5420   23.5790   31.3310 H   0  0  0  0  0  0  0  0  0  0  0  0
   36.4910   22.7990   31.2480 C   0  0  0  0  0  3  0  0  0  0  0  0
   36.3640   22.0550   30.4390 H   0  0  0  0  0  0  0  0  0  0  0  0
   35.3280   23.4970   31.4960 O   0  0  0  0  0  0  0  0  0  0  0  0
   35.4740   24.7800   31.0330 C   0  0  0  0  0  3  0  0  0  0  0  0
   34.8550   25.5160   31.5790 H   0  0  0  0  0  0  0  0  0  0  0  0
  1  6  1  0  0  0  0
  2  3  1  0  0  0  0
  2  1  2  0  0  0  0
  3  4  2  0  0  0  0
  4  5  1  0  0  0  0
  5  8  1  0  0  0  0
  6  5  2  0  0  0  0
  7  3  1  0  0  0  0
  9 10  2  0  0  0  0
  9 11  1  0  0  0  0
 11  2  1  0  0  0  0
 12  9  1  0  0  0  0
 13 11  1  0  0  0  0
 14  1  1  0  0  0  0
 15 14  1  6  0  0  0
 16 18  1  0  0  0  0
 16 17  1  0  0  0  0
 16 15  1  0  0  0  0
 18 20  1  0  0  0  0
 19 18  1  0  0  0  0
 21 15  1  0  0  0  0
 21 20  1  0  0  0  0
 21 22  1  0  0  0  0
M  END
>  <minimizedAffinity>
-3.74780703

$$$$

 OpenBabel03272507383D

 22 23  0  0  1  0  0  0  0  0999 V2000
   38.6980   24.4370   36.0970 C   0  0  0  0  0  0  0  0  0  0  0  0
   39.7590   23.5520   36.0290 C   0  0  0  0  0  0  0  0  0  0  0  0
   40.0900   22.7970   37.1290 C   0  0  0  0  0  0  0  0  0  0  0  0
   39.3360   22.9660   38.2600 N   0  0  0  0  0  0  0  0  0  0  0  0
   38.2950   23.8390   38.3130 C   0  0  0  0  0  0  0  0  0  0  0  0
   37.9930   24.5580   37.2380 N   0  0  0  0  0  0  0  0  0  0  0  0
   40.9160   22.0900   37.1200 H   0  0  0  0  0  0  0  0  0  0  0  0
   37.7170   23.9500   39.2220 H   0  0  0  0  0  0  0  0  0  0  0  0
   41.7990   24.0360   34.7810 C   0  0  0  0  0  0  0  0  0  0  0  0
   42.4710   24.8410   35.5040 O   0  0  0  0  0  0  0  0  0  0  0  0
   40.5540   23.3520   34.8890 N   0  0  0  0  0  0  0  0  0  0  0  0
   42.4520   23.9430   33.9100 H   0  0  0  0  0  0  0  0  0  0  0  0
   40.3490   22.7490   34.0850 H   0  0  0  0  0  0  0  0  0  0  0  0
   38.4790   25.1280   34.9220 O   0  0  0  0  0  0  0  0  0  0  0  0
   37.5300   26.1650   35.0000 C   0  0  2  0  0  3  0  0  0  0  0  0
   37.0510   26.6410   33.6430 C   0  0  0  0  0  3  0  0  0  0  0  0
   36.2650   26.0150   33.2020 H   0  0  0  0  0  0  0  0  0  0  0  0
   36.5720   28.0330   34.0100 C   0  0  0  0  0  3  0  0  0  0  0  0
   36.8310   28.7610   33.2170 H   0  0  0  0  0  0  0  0  0  0  0  0
   37.1410   28.3630   35.2210 O   0  0  0  0  0  0  0  0  0  0  0  0
   38.1510   27.4750   35.4930 C   0  0  0  0  0  3  0  0  0  0  0  0
   38.3350   27.3370   36.5750 H   0  0  0  0  0  0  0  0  0  0  0  0
  1  6  1  0  0  0  0
  2  1  2  0  0  0  0
  2  3  1  0  0  0  0
  3  4  2  0  0  0  0
  4  5  1  0  0  0  0
  5  8  1  0  0  0  0
  6  5  2  0  0  0  0
  7  3  1  0  0  0  0
  9 11  1  0  0  0  0
  9 10  2  0  0  0  0
 11  2  1  0  0  0  0
 12  9  1  0  0  0  0
 13 11  1  0  0  0  0
 14  1  1  0  0  0  0
 15 14  1  6  0  0  0
 15 21  1  0  0  0  0
 16 18  1  0  0  0  0
 16 15  1  0  0  0  0
 17 16  1  0  0  0  0
 18 20  1  0  0  0  0
 19 18  1  0  0  0  0
 20 21  1  0  0  0  0
 21 22  1  0  0  0  0
M  END
>  <minimizedAffinity>
-3.73874521

$$$$

 OpenBabel03272507383D

 22 23  0  0  1  0  0  0  0  0999 V2000
   37.9670   23.9330   33.9410 C   0  0  0  0  0  0  0  0  0  0  0  0
   38.0190   22.5820   34.2350 C   0  0  0  0  0  0  0  0  0  0  0  0
   38.1740   22.1720   35.5380 C   0  0  0  0  0  0  0  0  0  0  0  0
   38.2700   23.1450   36.4980 N   0  0  0  0  0  0  0  0  0  0  0  0
   38.2160   24.4690   36.1950 C   0  0  0  0  0  0  0  0  0  0  0  0
   38.0670   24.8420   34.9300 N   0  0  0  0  0  0  0  0  0  0  0  0
   38.2200   21.1220   35.8150 H   0  0  0  0  0  0  0  0  0  0  0  0
   38.2950   25.2150   36.9760 H   0  0  0  0  0  0  0  0  0  0  0  0
   36.6720   20.9090   33.0790 C   0  0  0  0  0  0  0  0  0  0  0  0
   35.4950   21.0170   33.5510 O   0  0  0  0  0  0  0  0  0  0  0  0
   37.9240   21.5580   33.2800 N   0  0  0  0  0  0  0  0  0  0  0  0
   36.5380   20.0890   32.3680 H   0  0  0  0  0  0  0  0  0  0  0  0
   38.6720   21.1970   32.6780 H   0  0  0  0  0  0  0  0  0  0  0  0
   37.8100   24.1990   32.5960 O   0  0  0  0  0  0  0  0  0  0  0  0
   36.6630   24.9440   32.2580 C   0  0  2  0  0  3  0  0  0  0  0  0
   35.6360   24.1420   31.4850 C   0  0  0  0  0  3  0  0  0  0  0  0
   34.9910   23.5160   32.1140 H   0  0  0  0  0  0  0  0  0  0  0  0
   34.8900   25.2700   30.7970 C   0  0  0  0  0  3  0  0  0  0  0  0
   34.6260   24.9930   29.7590 H   0  0  0  0  0  0  0  0  0  0  0  0
   35.6920   26.3890   30.8450 O   0  0  0  0  0  0  0  0  0  0  0  0
   36.9620   26.0100   31.2010 C   0  0  0  0  0  3  0  0  0  0  0  0
   37.5280   26.8050   31.7220 H   0  0  0  0  0  0  0  0  0  0  0  0
  1  2  2  0  0  0  0
  1  6  1  0  0  0  0
  2  3  1  0  0  0  0
  3  7  1  0  0  0  0
  3  4  2  0  0  0  0
  5  4  1  0  0  0  0
  5  8  1  0  0  0  0
  6  5  2  0  0  0  0
  9 11  1  0  0  0  0
  9 10  2  0  0  0  0
 11  2  1  0  0  0  0
 12  9  1  0  0  0  0
 13 11  1  0  0  0  0
 14  1  1  0  0  0  0
 15 14  1  6  0  0  0
 16 17  1  0  0  0  0
 16 15  1  0  0  0  0
 18 20  1  0  0  0  0
 18 16  1  0  0  0  0
 19 18  1  0  0  0  0
 20 21  1  0  0  0  0
 21 22  1  0  0  0  0
 21 15  1  0  0  0  0
M  END
>  <minimizedAffinity>
-3.73269534

$$$$

 OpenBabel03272507383D

 22 23  0  0  1  0  0  0  0  0999 V2000
   36.3370   23.9230   32.0080 C   0  0  0  0  0  0  0  0  0  0  0  0
   37.1480   24.9720   32.4030 C   0  0  0  0  0  0  0  0  0  0  0  0
   36.8550   26.2520   31.9970 C   0  0  0  0  0  0  0  0  0  0  0  0
   35.7520   26.4250   31.2040 N   0  0  0  0  0  0  0  0  0  0  0  0
   34.9630   25.3850   30.8230 C   0  0  0  0  0  0  0  0  0  0  0  0
   35.2650   24.1570   31.2270 N   0  0  0  0  0  0  0  0  0  0  0  0
   37.4650   27.1060   32.2840 H   0  0  0  0  0  0  0  0  0  0  0  0
   34.0970   25.5540   30.1950 H   0  0  0  0  0  0  0  0  0  0  0  0
   38.2350   25.2830   34.5650 C   0  0  0  0  0  0  0  0  0  0  0  0
   37.3610   25.8080   35.3260 O   0  0  0  0  0  0  0  0  0  0  0  0
   38.2850   24.8330   33.2140 N   0  0  0  0  0  0  0  0  0  0  0  0
   39.0930   25.2250   35.2400 H   0  0  0  0  0  0  0  0  0  0  0  0
   39.1920   24.4310   32.9510 H   0  0  0  0  0  0  0  0  0  0  0  0
   36.7490   22.6950   32.4870 O   0  0  0  0  0  0  0  0  0  0  0  0
   35.8590   21.6290   32.2570 C   0  0  2  0  0  3  0  0  0  0  0  0
   35.7810   20.6550   33.4160 C   0  0  0  0  0  3  0  0  0  0  0  0
   35.1150   20.9770   34.2260 H   0  0  0  0  0  0  0  0  0  0  0  0
   35.2810   19.4220   32.6850 C   0  0  0  0  0  3  0  0  0  0  0  0
   35.7740   18.5090   33.0710 H   0  0  0  0  0  0  0  0  0  0  0  0
   35.5200   19.6100   31.3410 O   0  0  0  0  0  0  0  0  0  0  0  0
   36.3810   20.6660   31.1870 C   0  0  0  0  0  3  0  0  0  0  0  0
   36.2630   21.1920   30.2210 H   0  0  0  0  0  0  0  0  0  0  0  0
  1  2  1  0  0  0  0
  1 14  1  0  0  0  0
  2 11  1  0  0  0  0
  3  7  1  0  0  0  0
  3  2  2  0  0  0  0
  4  3  1  0  0  0  0
  5  4  2  0  0  0  0
  5  6  1  0  0  0  0
  6  1  2  0  0  0  0
  8  5  1  0  0  0  0
  9 12  1  0  0  0  0
  9 10  2  0  0  0  0
 11  9  1  0  0  0  0
 13 11  1  0  0  0  0
 15 14  1  1  0  0  0
 15 16  1  0  0  0  0
 16 17  1  0  0  0  0
 18 19  1  0  0  0  0
 18 16  1  0  0  0  0
 20 18  1  0  0  0  0
 21 20  1  0  0  0  0
 21 15  1  0  0  0  0
 22 21  1  0  0  0  0
M  END
>  <minimizedAffinity>
-3.72006583

$$$$

 OpenBabel03272507383D

 22 23  0  0  1  0  0  0  0  0999 V2000
   37.4310   22.1010   34.0730 C   0  0  0  0  0  0  0  0  0  0  0  0
   37.2280   22.5070   32.7660 C   0  0  0  0  0  0  0  0  0  0  0  0
   36.2010   21.9630   32.0330 C   0  0  0  0  0  0  0  0  0  0  0  0
   35.4140   21.0260   32.6500 N   0  0  0  0  0  0  0  0  0  0  0  0
   35.6230   20.6370   33.9360 C   0  0  0  0  0  0  0  0  0  0  0  0
   36.6220   21.1760   34.6240 N   0  0  0  0  0  0  0  0  0  0  0  0
   36.0050   22.2520   31.0030 H   0  0  0  0  0  0  0  0  0  0  0  0
   34.9850   19.8930   34.3950 H   0  0  0  0  0  0  0  0  0  0  0  0
   37.5540   24.8100   32.0290 C   0  0  0  0  0  0  0  0  0  0  0  0
   36.5470   25.4610   32.4540 O   0  0  0  0  0  0  0  0  0  0  0  0
   38.0130   23.4630   32.1010 N   0  0  0  0  0  0  0  0  0  0  0  0
   38.1060   25.5960   31.5060 H   0  0  0  0  0  0  0  0  0  0  0  0
   38.9170   23.3140   31.6390 H   0  0  0  0  0  0  0  0  0  0  0  0
   38.4960   22.7290   34.6880 O   0  0  0  0  0  0  0  0  0  0  0  0
   38.6240   22.4870   36.0690 C   0  0  2  0  0  3  0  0  0  0  0  0
   38.0340   23.5880   36.9260 C   0  0  0  0  0  3  0  0  0  0  0  0
   36.9470   23.5180   37.0590 H   0  0  0  0  0  0  0  0  0  0  0  0
   38.8100   23.3620   38.2100 C   0  0  0  0  0  3  0  0  0  0  0  0
   39.0890   24.3260   38.6770 H   0  0  0  0  0  0  0  0  0  0  0  0
   39.9140   22.5990   37.9000 O   0  0  0  0  0  0  0  0  0  0  0  0
   40.0780   22.5890   36.5370 C   0  0  0  0  0  3  0  0  0  0  0  0
   40.5830   21.6790   36.1620 H   0  0  0  0  0  0  0  0  0  0  0  0
  1  6  1  0  0  0  0
  1 14  1  0  0  0  0
  2  1  2  0  0  0  0
  3  4  2  0  0  0  0
  3  2  1  0  0  0  0
  4  5  1  0  0  0  0
  5  8  1  0  0  0  0
  5  6  2  0  0  0  0
  7  3  1  0  0  0  0
  9 11  1  0  0  0  0
  9 10  2  0  0  0  0
 11  2  1  0  0  0  0
 12  9  1  0  0  0  0
 13 11  1  0  0  0  0
 15 14  1  6  0  0  0
 15 21  1  0  0  0  0
 15 16  1  0  0  0  0
 16 17  1  0  0  0  0
 16 18  1  0  0  0  0
 18 19  1  0  0  0  0
 20 18  1  0  0  0  0
 21 20  1  0  0  0  0
 22 21  1  0  0  0  0
M  END
>  <minimizedAffinity>
-3.69642925

$$$$

 OpenBabel03272507383D

 22 23  0  0  1  0  0  0  0  0999 V2000
   38.0990   24.1260   33.9650 C   0  0  0  0  0  0  0  0  0  0  0  0
   38.4310   24.9130   35.0540 C   0  0  0  0  0  0  0  0  0  0  0  0
   38.5720   24.3390   36.2940 C   0  0  0  0  0  0  0  0  0  0  0  0
   38.3710   22.9870   36.3900 N   0  0  0  0  0  0  0  0  0  0  0  0
   38.0460   22.2250   35.3120 C   0  0  0  0  0  0  0  0  0  0  0  0
   37.9140   22.8010   34.1230 N   0  0  0  0  0  0  0  0  0  0  0  0
   38.8330   24.9190   37.1760 H   0  0  0  0  0  0  0  0  0  0  0  0
   37.8920   21.1580   35.4200 H   0  0  0  0  0  0  0  0  0  0  0  0
   39.9790   26.7950   34.9250 C   0  0  0  0  0  0  0  0  0  0  0  0
   41.1460   26.2880   34.8770 O   0  0  0  0  0  0  0  0  0  0  0  0
   38.6450   26.2990   34.9940 N   0  0  0  0  0  0  0  0  0  0  0  0
   40.2130   27.8620   34.9000 H   0  0  0  0  0  0  0  0  0  0  0  0
   37.9340   27.0390   34.9930 H   0  0  0  0  0  0  0  0  0  0  0  0
   37.9910   24.8330   32.7840 O   0  0  0  0  0  0  0  0  0  0  0  0
   36.6830   25.2140   32.4280 C   0  0  2  0  0  3  0  0  0  0  0  0
   36.0750   24.3350   31.3540 C   0  0  0  0  0  3  0  0  0  0  0  0
   35.6510   23.3960   31.7330 H   0  0  0  0  0  0  0  0  0  0  0  0
   35.0300   25.2840   30.8010 C   0  0  0  0  0  3  0  0  0  0  0  0
   34.9640   25.2000   29.6990 H   0  0  0  0  0  0  0  0  0  0  0  0
   35.3700   26.5580   31.2020 O   0  0  0  0  0  0  0  0  0  0  0  0
   36.6600   26.5450   31.6700 C   0  0  0  0  0  3  0  0  0  0  0  0
   36.8610   27.3280   32.4250 H   0  0  0  0  0  0  0  0  0  0  0  0
  1  6  2  0  0  0  0
  1  2  1  0  0  0  0
  2  3  2  0  0  0  0
  3  4  1  0  0  0  0
  3  7  1  0  0  0  0
  5  8  1  0  0  0  0
  5  4  2  0  0  0  0
  6  5  1  0  0  0  0
  9 11  1  0  0  0  0
 10  9  2  0  0  0  0
 11  2  1  0  0  0  0
 12  9  1  0  0  0  0
 13 11  1  0  0  0  0
 14  1  1  0  0  0  0
 15 14  1  6  0  0  0
 16 17  1  0  0  0  0
 16 15  1  0  0  0  0
 18 20  1  0  0  0  0
 18 16  1  0  0  0  0
 19 18  1  0  0  0  0
 20 21  1  0  0  0  0
 21 22  1  0  0  0  0
 21 15  1  0  0  0  0
M  END
>  <minimizedAffinity>
-3.68720984

$$$$
