
 OpenBabel03272508273D

 37 40  0  0  1  0  0  0  0  0999 V2000
   33.7380   28.8930   47.2020 C   0  0  2  0  0  0  0  0  0  0  0  0
   34.4700   28.0980   48.2720 C   0  0  2  0  0  0  0  0  0  0  0  0
   33.5610   27.9090   49.2760 O   0  0  0  0  0  0  0  0  0  0  0  0
   32.2930   27.9910   48.7970 C   0  0  0  0  0  0  0  0  0  0  0  0
   32.3590   28.2300   47.3050 C   0  0  1  0  0  0  0  0  0  0  0  0
   33.5770   29.9350   47.4910 H   0  0  0  0  0  0  0  0  0  0  0  0
   34.7600   27.1440   47.7660 H   0  0  0  0  0  0  0  0  0  0  0  0
   31.7080   27.0890   49.0540 H   0  0  0  0  0  0  0  0  0  0  0  0
   31.8050   28.8860   49.2720 H   0  0  0  0  0  0  0  0  0  0  0  0
   32.4170   27.2530   46.7830 H   0  0  0  0  0  0  0  0  0  0  0  0
   35.5530   30.3410   48.9620 C   0  0  1  0  0  0  0  0  0  0  0  0
   35.6310   28.9200   48.7240 C   0  0  1  0  0  0  0  0  0  0  0  0
   35.7700   29.3800   50.1390 C   0  0  0  0  0  0  0  0  0  0  0  0
   34.6550   30.9510   49.1450 H   0  0  0  0  0  0  0  0  0  0  0  0
   36.6030   28.5460   48.2880 H   0  0  0  0  0  0  0  0  0  0  0  0
   34.9120   29.1350   50.7910 H   0  0  0  0  0  0  0  0  0  0  0  0
   36.7440   29.3670   50.6470 H   0  0  0  0  0  0  0  0  0  0  0  0
   36.7570   31.2420   48.7460 C   0  0  0  0  0  0  0  0  0  0  0  0
   37.0120   32.2190   49.7090 C   0  0  0  0  0  0  0  0  0  0  0  0
   38.1090   33.0300   49.4490 C   0  0  0  0  0  0  0  0  0  0  0  0
   38.8650   32.8540   48.3150 N   0  0  0  0  0  0  0  0  0  0  0  0
   38.5770   31.8910   47.4110 C   0  0  0  0  0  0  0  0  0  0  0  0
   37.5140   31.0790   47.6300 N   0  0  0  0  0  0  0  0  0  0  0  0
   36.3890   32.3120   50.5750 H   0  0  0  0  0  0  0  0  0  0  0  0
   38.3400   33.8010   50.1730 H   0  0  0  0  0  0  0  0  0  0  0  0
   39.2060   31.8010   46.5410 H   0  0  0  0  0  0  0  0  0  0  0  0
   34.2760   28.7480   45.9370 O   0  0  0  0  0  0  0  0  0  0  0  0
   34.2600   27.7810   45.7140 H   0  0  0  0  0  0  0  0  0  0  0  0
   31.3710   29.0400   46.8150 O   0  0  0  0  0  0  0  0  0  0  0  0
   30.1680   28.4070   46.5810 C   0  0  2  0  0  3  0  0  0  0  0  0
   29.6590   28.6350   45.1700 C   0  0  0  0  0  3  0  0  0  0  0  0
   29.9530   27.8600   44.4640 H   0  0  0  0  0  0  0  0  0  0  0  0
   28.1630   28.5060   45.4080 C   0  0  0  0  0  3  0  0  0  0  0  0
   27.8550   27.4310   45.3240 H   0  0  0  0  0  0  0  0  0  0  0  0
   27.9070   29.0180   46.6640 O   0  0  0  0  0  0  0  0  0  0  0  0
   29.0940   29.1140   47.3700 C   0  0  0  0  0  3  0  0  0  0  0  0
   29.0180   28.7800   48.4240 H   0  0  0  0  0  0  0  0  0  0  0  0
  1  5  1  0  0  0  0
  1  6  1  1  0  0  0
  1  2  1  0  0  0  0
  2  7  1  6  0  0  0
  2 12  1  0  0  0  0
  2  3  1  0  0  0  0
  4  8  1  0  0  0  0
  4  9  1  0  0  0  0
  4  3  1  0  0  0  0
  5 10  1  6  0  0  0
  5  4  1  0  0  0  0
 11 14  1  6  0  0  0
 11 13  1  0  0  0  0
 12 15  1  6  0  0  0
 12 11  1  0  0  0  0
 12 13  1  0  0  0  0
 13 17  1  0  0  0  0
 13 16  1  0  0  0  0
 18 11  1  0  0  0  0
 18 19  1  0  0  0  0
 19 24  1  0  0  0  0
 20 19  2  0  0  0  0
 20 25  1  0  0  0  0
 21 20  1  0  0  0  0
 22 23  1  0  0  0  0
 22 21  2  0  0  0  0
 23 18  2  0  0  0  0
 26 22  1  0  0  0  0
 27  1  1  0  0  0  0
 28 27  1  0  0  0  0
 29  5  1  0  0  0  0
 30 29  1  6  0  0  0
 30 36  1  0  0  0  0
 31 33  1  0  0  0  0
 31 30  1  0  0  0  0
 32 31  1  0  0  0  0
 33 35  1  0  0  0  0
 34 33  1  0  0  0  0
 35 36  1  0  0  0  0
 36 37  1  0  0  0  0
M  END
>  <minimizedAffinity>
-5.02545404

>  <minimizedRMSD>
1.05140972

$$$$
