
 OpenBabel03272506093D

 43 46  0  0  1  0  0  0  0  0999 V2000
   35.1410   28.6820   49.1480 C   0  0  0  0  0  0  0  0  0  0  0  0
   36.0610   28.5260   48.5440 H   0  0  0  0  0  0  0  0  0  0  0  0
   35.1720   27.8730   49.9180 H   0  0  0  0  0  0  0  0  0  0  0  0
   33.9240   28.4680   48.2880 C   0  0  0  0  0  0  0  0  0  0  0  0
   34.0240   28.6750   46.8610 C   0  0  0  0  0  0  0  0  0  0  0  0
   32.3660   28.3010   46.3560 S   0  0  0  0  0  0  0  0  0  0  0  0
   31.7490   27.9210   48.0880 C   0  0  0  0  0  0  0  0  0  0  0  0
   32.7570   28.1070   48.7190 N   0  0  0  0  0  0  0  0  0  0  0  0
   30.4420   27.5150   48.5680 N   0  0  0  0  0  0  0  0  0  0  0  0
   29.6270   26.7910   47.6610 C   0  0  0  0  0  0  0  0  0  0  0  0
   28.1880   26.7100   48.0430 C   0  0  0  0  0  0  0  0  0  0  0  0
   27.8390   27.5880   49.1450 N   0  0  0  0  0  0  0  0  0  0  0  0
   28.7440   27.2170   50.2300 C   0  0  0  0  0  0  0  0  0  0  0  0
   30.0590   27.8730   49.9220 C   0  0  0  0  0  0  0  0  0  0  0  0
   34.8750   28.9650   46.3280 H   0  0  0  0  0  0  0  0  0  0  0  0
   29.6560   27.3580   46.6850 H   0  0  0  0  0  0  0  0  0  0  0  0
   30.0190   25.7850   47.3840 H   0  0  0  0  0  0  0  0  0  0  0  0
   27.5000   26.8700   47.1680 H   0  0  0  0  0  0  0  0  0  0  0  0
   27.9740   25.6820   48.4070 H   0  0  0  0  0  0  0  0  0  0  0  0
   28.0780   28.5590   48.8430 H   0  0  0  0  0  0  0  0  0  0  0  0
   28.8360   26.1190   50.3290 H   0  0  0  0  0  0  0  0  0  0  0  0
   28.3160   27.6770   51.1520 H   0  0  0  0  0  0  0  0  0  0  0  0
   29.9510   28.9660   50.0510 H   0  0  0  0  0  0  0  0  0  0  0  0
   30.8240   27.4830   50.6250 H   0  0  0  0  0  0  0  0  0  0  0  0
   35.1560   30.0090   49.7830 C   0  0  0  0  0  0  0  0  0  0  0  0
   34.2570   30.5910   49.4420 H   0  0  0  0  0  0  0  0  0  0  0  0
   35.1040   29.9130   50.8860 H   0  0  0  0  0  0  0  0  0  0  0  0
   37.9690   32.4480   49.6870 C   0  0  0  0  0  0  0  0  0  0  0  0
   38.5740   32.1650   48.4530 C   0  0  0  0  0  0  0  0  0  0  0  0
   38.0030   31.1450   47.6810 C   0  0  0  0  0  0  0  0  0  0  0  0
   36.9100   30.4890   48.1590 N   0  0  0  0  0  0  0  0  0  0  0  0
   36.3660   30.8010   49.3560 C   0  0  0  0  0  0  0  0  0  0  0  0
   36.8950   31.7610   50.0930 N   0  0  0  0  0  0  0  0  0  0  0  0
   38.4150   33.2390   50.2800 H   0  0  0  0  0  0  0  0  0  0  0  0
   39.4270   32.6800   48.0840 H   0  0  0  0  0  0  0  0  0  0  0  0
   38.5440   30.7420   46.3530 C   0  0  2  0  0  3  0  0  0  0  0  0
   39.7620   31.5130   45.9620 C   0  0  0  0  0  3  0  0  0  0  0  0
   40.5210   30.8230   45.5180 H   0  0  0  0  0  0  0  0  0  0  0  0
   39.2850   32.5290   44.9310 C   0  0  0  0  0  3  0  0  0  0  0  0
   39.6280   32.2520   43.9180 H   0  0  0  0  0  0  0  0  0  0  0  0
   37.9030   32.4570   44.9510 O   0  0  0  0  0  0  0  0  0  0  0  0
   37.5430   31.1700   45.2730 C   0  0  0  0  0  3  0  0  0  0  0  0
   36.5190   31.1870   45.7490 H   0  0  0  0  0  0  0  0  0  0  0  0
  1 25  1  0  0  0  0
  1  3  1  0  0  0  0
  2  1  1  0  0  0  0
  4  8  1  0  0  0  0
  4  1  1  0  0  0  0
  5  4  2  0  0  0  0
  6  5  1  0  0  0  0
  6  7  1  0  0  0  0
  7  9  1  0  0  0  0
  7  8  2  0  0  0  0
  9 14  1  0  0  0  0
 10 11  1  0  0  0  0
 10  9  1  0  0  0  0
 11 19  1  0  0  0  0
 11 12  1  0  0  0  0
 12 13  1  0  0  0  0
 13 21  1  0  0  0  0
 13 22  1  0  0  0  0
 14 23  1  0  0  0  0
 14 13  1  0  0  0  0
 14 24  1  0  0  0  0
 15  5  1  0  0  0  0
 16 10  1  0  0  0  0
 17 10  1  0  0  0  0
 18 11  1  0  0  0  0
 20 12  1  0  0  0  0
 25 27  1  0  0  0  0
 26 25  1  0  0  0  0
 28 33  1  0  0  0  0
 28 34  1  0  0  0  0
 29 28  2  0  0  0  0
 30 31  2  0  0  0  0
 30 29  1  0  0  0  0
 31 32  1  0  0  0  0
 32 25  1  0  0  0  0
 32 33  2  0  0  0  0
 35 29  1  0  0  0  0
 36 30  1  1  0  0  0
 37 36  1  0  0  0  0
 38 37  1  0  0  0  0
 39 41  1  0  0  0  0
 39 37  1  0  0  0  0
 40 39  1  0  0  0  0
 41 42  1  0  0  0  0
 42 43  1  0  0  0  0
 42 36  1  0  0  0  0
M  END
>  <minimizedAffinity>
-6.48220968

>  <minimizedRMSD>
1.09110463

$$$$
