
 OpenBabel03272500193D

 33 35  0  0  1  0  0  0  0  0999 V2000
   35.4430   29.1930   50.4460 C   0  0  0  0  0  0  0  0  0  0  0  0
   36.3040   30.1080   49.7840 C   0  0  0  0  0  0  0  0  0  0  0  0
   36.1910   30.2840   48.4080 C   0  0  0  0  0  0  0  0  0  0  0  0
   35.2240   29.5360   47.7830 N   0  0  0  0  0  0  0  0  0  0  0  0
   34.4310   28.6930   48.3990 C   0  0  0  0  0  0  0  0  0  0  0  0
   34.5250   28.5100   49.7190 N   0  0  0  0  0  0  0  0  0  0  0  0
   35.5390   29.0600   51.5260 H   0  0  0  0  0  0  0  0  0  0  0  0
   32.6780   30.3560   46.5710 Cl  0  0  0  0  0  0  0  0  0  0  0  0
   32.5650   28.6070   46.7500 C   0  0  0  0  0  0  0  0  0  0  0  0
   33.4280   27.9420   47.6270 C   0  0  0  0  0  0  0  0  0  0  0  0
   33.3770   26.5660   47.8010 C   0  0  0  0  0  0  0  0  0  0  0  0
   32.4160   25.8770   47.0560 C   0  0  0  0  0  0  0  0  0  0  0  0
   31.5590   26.5070   46.1920 C   0  0  0  0  0  0  0  0  0  0  0  0
   30.4000   25.5410   45.3130 Cl  0  0  0  0  0  0  0  0  0  0  0  0
   31.6440   27.8880   46.0460 C   0  0  0  0  0  0  0  0  0  0  0  0
   34.0450   26.0580   48.4780 H   0  0  0  0  0  0  0  0  0  0  0  0
   32.4180   24.8090   47.2290 H   0  0  0  0  0  0  0  0  0  0  0  0
   30.7220   28.5830   45.1130 C   0  0  0  0  0  0  0  0  0  0  0  0
   29.7420   27.7060   44.6480 F   0  0  0  0  0  0  0  0  0  0  0  0
   31.3670   29.1770   44.0780 F   0  0  0  0  0  0  0  0  0  0  0  0
   30.0290   29.5710   45.8100 F   0  0  0  0  0  0  0  0  0  0  0  0
   37.0450   31.2070   47.6780 C   0  0  2  0  0  0  0  0  0  0  0  0
   38.4040   30.6860   47.2830 C   0  0  0  0  0  0  0  0  0  0  0  0
   38.7680   30.0720   48.1110 H   0  0  0  0  0  0  0  0  0  0  0  0
   39.1830   32.0070   47.1860 C   0  0  0  0  0  0  0  0  0  0  0  0
   38.9930   32.4530   46.1750 H   0  0  0  0  0  0  0  0  0  0  0  0
   38.6130   32.8660   48.0850 O   0  0  0  0  0  0  0  0  0  0  0  0
   37.5690   32.2340   48.7070 C   0  0  0  0  0  0  0  0  0  0  0  0
   37.9850   31.6260   49.5370 H   0  0  0  0  0  0  0  0  0  0  0  0
   37.3100   30.8520   50.5910 C   0  0  0  0  0  0  0  0  0  0  0  0
   38.6020   30.6180   50.1530 F   0  0  0  0  0  0  0  0  0  0  0  0
   37.0290   32.1960   50.5410 F   0  0  0  0  0  0  0  0  0  0  0  0
   37.2730   30.4920   51.9300 F   0  0  0  0  0  0  0  0  0  0  0  0
  1  7  1  0  0  0  0
  2  1  1  0  0  0  0
  2 30  1  0  0  0  0
  3  2  2  0  0  0  0
  4  5  2  0  0  0  0
  4  3  1  0  0  0  0
  5  6  1  0  0  0  0
  6  1  2  0  0  0  0
  8  9  1  0  0  0  0
  9 10  1  0  0  0  0
 10 11  2  0  0  0  0
 10  5  1  0  0  0  0
 11 16  1  0  0  0  0
 12 17  1  0  0  0  0
 12 11  1  0  0  0  0
 13 12  2  0  0  0  0
 14 13  1  0  0  0  0
 15 13  1  0  0  0  0
 15  9  2  0  0  0  0
 18 21  1  0  0  0  0
 18 15  1  0  0  0  0
 19 18  1  0  0  0  0
 20 18  1  0  0  0  0
 22  3  1  1  0  0  0
 22 28  1  0  0  0  0
 23 22  1  0  0  0  0
 23 24  1  0  0  0  0
 25 23  1  0  0  0  0
 25 27  1  0  0  0  0
 26 25  1  0  0  0  0
 27 28  1  0  0  0  0
 28 29  1  0  0  0  0
 30 33  1  0  0  0  0
 31 30  1  0  0  0  0
 32 30  1  0  0  0  0
M  END
>  <minimizedAffinity>
-6.48061657

>  <minimizedRMSD>
0.193721756

$$$$
