REMARK  Name = 
REMARK  2 active torsions:
REMARK  status: ('A' for Active; 'I' for Inactive)
REMARK    1  A    between atoms: C_1  and  C_7
REMARK    2  A    between atoms: C_3  and  C_26
REMARK                            x       y       z     vdW  Elec       q    Type
REMARK                         _______ _______ _______ _____ _____    ______ ____
ROOT
ATOM      1  C   UNL     1      35.526  30.302  49.738  0.00  0.00    +0.000 C 
ATOM      2  C   UNL     1      36.479  31.175  48.952  0.00  0.00    +0.000 C 
ATOM      3  C   UNL     1      37.916  30.803  49.162  0.00  0.00    +0.000 C 
ATOM      4  C   UNL     1      38.313  30.782  50.613  0.00  0.00    +0.000 C 
ATOM      5  C   UNL     1      37.296  30.131  51.497  0.00  0.00    +0.000 C 
ATOM      6  C   UNL     1      36.202  29.421  50.727  0.00  0.00    +0.000 C 
ATOM      7  H   UNL     1      34.792  30.944  50.248  0.00  0.00    +0.000 HD
ATOM      8  H   UNL     1      36.281  31.189  47.869  0.00  0.00    +0.000 HD
ATOM      9  H   UNL     1      36.369  32.222  49.295  0.00  0.00    +0.000 HD
ATOM     10  H   UNL     1      38.547  31.552  48.667  0.00  0.00    +0.000 HD
ATOM     11  H   UNL     1      38.120  29.830  48.653  0.00  0.00    +0.000 HD
ATOM     12  H   UNL     1      38.578  31.804  50.965  0.00  0.00    +0.000 HD
ATOM     13  H   UNL     1      39.280  30.202  50.649  0.00  0.00    +0.000 HD
ATOM     14  H   UNL     1      36.875  30.899  52.167  0.00  0.00    +0.000 HD
ATOM     15  H   UNL     1      37.791  29.324  52.098  0.00  0.00    +0.000 HD
ATOM     16  H   UNL     1      35.429  29.163  51.504  0.00  0.00    +0.000 HD
ATOM     17  H   UNL     1      36.540  28.459  50.330  0.00  0.00    +0.000 HD
ENDROOT
BRANCH   1  18
ATOM     18  C   UNL     1      34.757  29.429  48.799  0.00  0.00    +0.000 A 
ATOM     19  C   UNL     1      34.226  30.053  47.658  0.00  0.00    +0.000 A 
ATOM     20  C   UNL     1      33.498  29.252  46.777  0.00  0.00    +0.000 A 
ATOM     21  N   UNL     1      33.335  27.922  47.056  0.00  0.00    +0.000 NA
ATOM     22  C   UNL     1      33.869  27.350  48.181  0.00  0.00    +0.000 A 
ATOM     23  N   UNL     1      34.569  28.107  49.031  0.00  0.00    +0.000 NA
ATOM     24  H   UNL     1      34.314  31.073  47.387  0.00  0.00    +0.000 HD
ATOM     25  H   UNL     1      33.696  26.294  48.328  0.00  0.00    +0.000 HD
BRANCH  20  26
ATOM     26  C   UNL     1      32.879  29.775  45.532  0.00  0.00    +0.000 C 
ATOM     27  C   UNL     1      32.426  31.197  45.697  0.00  0.00    +0.000 C 
ATOM     28  H   UNL     1      33.168  31.921  45.330  0.00  0.00    +0.000 HD
ATOM     29  C   UNL     1      31.232  31.244  44.782  0.00  0.00    +0.000 C 
ATOM     30  H   UNL     1      30.446  31.879  45.264  0.00  0.00    +0.000 HD
ATOM     31  O   UNL     1      30.705  29.974  44.672  0.00  0.00    +0.000 OA
ATOM     32  C   UNL     1      31.576  29.078  45.225  0.00  0.00    +0.000 C 
ATOM     33  H   UNL     1      31.109  28.644  46.139  0.00  0.00    +0.000 HD
ENDBRANCH  20  26
ENDBRANCH   1  18
TORSDOF 2
