
 OpenBabel03272501413D

 44 48  0  0  1  0  0  0  0  0999 V2000
   38.9510   27.6110   30.9950 C   0  0  0  0  0  0  0  0  0  0  0  0
   37.9080   28.4900   30.7880 C   0  0  0  0  0  0  0  0  0  0  0  0
   36.8770   28.6620   31.7200 C   0  0  0  0  0  0  0  0  0  0  0  0
   36.9370   27.9530   32.8160 N   0  0  0  0  0  0  0  0  0  0  0  0
   37.9790   27.0820   33.0080 C   0  0  0  0  0  0  0  0  0  0  0  0
   38.9570   26.9160   32.1240 N   0  0  0  0  0  0  0  0  0  0  0  0
   39.7320   27.4920   30.2680 H   0  0  0  0  0  0  0  0  0  0  0  0
   37.9430   29.0450   29.8410 H   0  0  0  0  0  0  0  0  0  0  0  0
   38.0680   26.2860   34.2290 C   0  0  0  0  0  0  0  0  0  0  0  0
   38.1280   26.6450   35.5490 C   0  0  0  0  0  0  0  0  0  0  0  0
   38.2030   25.7190   36.5190 C   0  0  0  0  0  0  0  0  0  0  0  0
   38.2140   24.3830   36.0750 C   0  0  0  0  0  0  0  0  0  0  0  0
   38.1160   24.5160   34.2580 S   0  0  0  0  0  0  0  0  0  0  0  0
   38.1110   27.7170   35.7500 H   0  0  0  0  0  0  0  0  0  0  0  0
   38.2540   25.9130   37.5800 H   0  0  0  0  0  0  0  0  0  0  0  0
   38.2870   23.0910   36.7800 C   0  0  2  0  0  3  0  0  0  0  0  0
   39.1920   23.1380   37.9910 C   0  0  0  0  0  3  0  0  0  0  0  0
   39.3160   24.2160   38.2580 H   0  0  0  0  0  0  0  0  0  0  0  0
   40.5030   22.6200   37.4980 C   0  0  0  0  0  3  0  0  0  0  0  0
   41.3140   23.4030   37.5320 H   0  0  0  0  0  0  0  0  0  0  0  0
   40.3630   22.2550   36.1700 O   0  0  0  0  0  0  0  0  0  0  0  0
   39.0130   22.1230   35.8930 C   0  0  0  0  0  3  0  0  0  0  0  0
   38.8140   22.2630   34.8190 H   0  0  0  0  0  0  0  0  0  0  0  0
   35.8200   29.5430   31.3050 C   0  0  1  0  0  0  0  0  0  0  0  0
   35.1260   28.7510   30.8090 H   0  0  0  0  0  0  0  0  0  0  0  0
   34.9960   30.1740   32.4060 C   0  0  2  0  0  0  0  0  0  0  0  0
   35.4680   31.6220   32.5310 C   0  0  0  0  0  0  0  0  0  0  0  0
   35.6240   30.6220   33.6240 C   0  0  1  0  0  0  0  0  0  0  0  0
   33.9190   29.9960   32.3360 H   0  0  0  0  0  0  0  0  0  0  0  0
   34.6480   32.3590   32.5830 H   0  0  0  0  0  0  0  0  0  0  0  0
   36.4050   31.9970   32.1310 H   0  0  0  0  0  0  0  0  0  0  0  0
   36.5890   30.1210   33.8420 H   0  0  0  0  0  0  0  0  0  0  0  0
   34.9220   30.9920   34.8600 C   0  0  0  0  0  0  0  0  0  0  0  0
   35.5960   31.7680   35.7660 C   0  0  0  0  0  0  0  0  0  0  0  0
   34.9060   32.1210   36.9010 C   0  0  0  0  0  0  0  0  0  0  0  0
   33.6140   31.7420   37.1590 C   0  0  0  0  0  0  0  0  0  0  0  0
   32.9720   30.9640   36.2270 C   0  0  0  0  0  0  0  0  0  0  0  0
   33.6250   30.6030   35.1050 N   0  0  0  0  0  0  0  0  0  0  0  0
   36.6220   32.0860   35.5920 H   0  0  0  0  0  0  0  0  0  0  0  0
   35.3770   32.7320   37.6580 H   0  0  0  0  0  0  0  0  0  0  0  0
   33.0760   32.0120   38.0340 H   0  0  0  0  0  0  0  0  0  0  0  0
   31.9620   30.5880   36.2860 H   0  0  0  0  0  0  0  0  0  0  0  0
   35.9210   30.2870   30.2330 O   0  0  0  0  0  0  0  0  0  0  0  0
   36.5670   31.0350   30.2110 H   0  0  0  0  0  0  0  0  0  0  0  0
  1  6  1  0  0  0  0
  2  1  2  0  0  0  0
  2  3  1  0  0  0  0
  3  4  2  0  0  0  0
  4  5  1  0  0  0  0
  5  9  1  0  0  0  0
  6  5  2  0  0  0  0
  7  1  1  0  0  0  0
  8  2  1  0  0  0  0
  9 13  1  0  0  0  0
  9 10  2  0  0  0  0
 10 14  1  0  0  0  0
 10 11  1  0  0  0  0
 11 15  1  0  0  0  0
 12 11  2  0  0  0  0
 13 12  1  0  0  0  0
 16 12  1  6  0  0  0
 16 17  1  0  0  0  0
 17 18  1  0  0  0  0
 19 20  1  0  0  0  0
 19 17  1  0  0  0  0
 21 19  1  0  0  0  0
 22 21  1  0  0  0  0
 22 16  1  0  0  0  0
 23 22  1  0  0  0  0
 24 25  1  6  0  0  0
 24  3  1  0  0  0  0
 24 26  1  0  0  0  0
 26 29  1  1  0  0  0
 26 27  1  0  0  0  0
 26 28  1  0  0  0  0
 27 30  1  0  0  0  0
 27 28  1  0  0  0  0
 28 32  1  1  0  0  0
 28 33  1  0  0  0  0
 31 27  1  0  0  0  0
 33 38  2  0  0  0  0
 33 34  1  0  0  0  0
 34 35  2  0  0  0  0
 35 36  1  0  0  0  0
 35 40  1  0  0  0  0
 36 41  1  0  0  0  0
 37 42  1  0  0  0  0
 37 36  2  0  0  0  0
 38 37  1  0  0  0  0
 39 34  1  0  0  0  0
 43 24  1  0  0  0  0
 44 43  1  0  0  0  0
M  END
>  <minimizedAffinity>
-6.54422665

$$$$

 OpenBabel03272501413D

 44 48  0  0  1  0  0  0  0  0999 V2000
   35.9590   29.3360   31.5010 C   0  0  0  0  0  0  0  0  0  0  0  0
   36.4540   28.0830   31.8010 C   0  0  0  0  0  0  0  0  0  0  0  0
   36.5700   27.6190   33.1170 C   0  0  0  0  0  0  0  0  0  0  0  0
   36.1850   28.4240   34.0710 N   0  0  0  0  0  0  0  0  0  0  0  0
   35.6960   29.6670   33.7580 C   0  0  0  0  0  0  0  0  0  0  0  0
   35.5870   30.1100   32.5100 N   0  0  0  0  0  0  0  0  0  0  0  0
   35.8780   29.6740   30.4850 H   0  0  0  0  0  0  0  0  0  0  0  0
   36.7490   27.4760   30.9350 H   0  0  0  0  0  0  0  0  0  0  0  0
   35.2530   30.5780   34.8100 C   0  0  0  0  0  0  0  0  0  0  0  0
   35.9510   31.3450   35.7040 C   0  0  0  0  0  0  0  0  0  0  0  0
   35.3170   32.1260   36.5950 C   0  0  0  0  0  0  0  0  0  0  0  0
   33.9110   32.0900   36.5310 C   0  0  0  0  0  0  0  0  0  0  0  0
   33.5550   30.9200   35.1770 S   0  0  0  0  0  0  0  0  0  0  0  0
   37.0380   31.2760   35.6420 H   0  0  0  0  0  0  0  0  0  0  0  0
   35.7870   32.7590   37.3320 H   0  0  0  0  0  0  0  0  0  0  0  0
   32.8540   32.7700   37.3010 C   0  0  2  0  0  3  0  0  0  0  0  0
   31.6270   33.0680   36.4670 C   0  0  0  0  0  3  0  0  0  0  0  0
   31.6780   32.4030   35.5710 H   0  0  0  0  0  0  0  0  0  0  0  0
   31.8150   34.4800   36.0190 C   0  0  0  0  0  3  0  0  0  0  0  0
   31.9330   34.5630   34.8990 H   0  0  0  0  0  0  0  0  0  0  0  0
   32.9840   34.9690   36.5750 O   0  0  0  0  0  0  0  0  0  0  0  0
   33.3410   34.1500   37.6320 C   0  0  0  0  0  3  0  0  0  0  0  0
   34.4230   34.2070   37.8290 H   0  0  0  0  0  0  0  0  0  0  0  0
   37.1940   26.3320   33.2560 C   0  0  1  0  0  0  0  0  0  0  0  0
   38.1420   26.5330   32.6110 H   0  0  0  0  0  0  0  0  0  0  0  0
   37.7080   25.9770   34.6350 C   0  0  2  0  0  0  0  0  0  0  0  0
   39.2330   25.9560   34.5410 C   0  0  0  0  0  0  0  0  0  0  0  0
   38.4240   24.7440   34.8520 C   0  0  1  0  0  0  0  0  0  0  0  0
   37.2580   26.5440   35.4540 H   0  0  0  0  0  0  0  0  0  0  0  0
   39.7410   26.4930   35.3600 H   0  0  0  0  0  0  0  0  0  0  0  0
   39.7880   25.8940   33.6090 H   0  0  0  0  0  0  0  0  0  0  0  0
   38.2060   23.9610   34.0980 H   0  0  0  0  0  0  0  0  0  0  0  0
   38.7310   24.1560   36.1630 C   0  0  0  0  0  0  0  0  0  0  0  0
   37.9120   24.4830   37.2120 C   0  0  0  0  0  0  0  0  0  0  0  0
   38.2060   23.8980   38.4210 C   0  0  0  0  0  0  0  0  0  0  0  0
   39.2500   23.0310   38.6170 C   0  0  0  0  0  0  0  0  0  0  0  0
   40.0480   22.7290   37.5410 C   0  0  0  0  0  0  0  0  0  0  0  0
   39.7830   23.2880   36.3440 N   0  0  0  0  0  0  0  0  0  0  0  0
   37.0750   25.1670   37.0910 H   0  0  0  0  0  0  0  0  0  0  0  0
   37.6020   24.1110   39.2910 H   0  0  0  0  0  0  0  0  0  0  0  0
   39.4810   22.5760   39.5480 H   0  0  0  0  0  0  0  0  0  0  0  0
   40.9010   22.0680   37.5360 H   0  0  0  0  0  0  0  0  0  0  0  0
   36.8050   25.2960   32.5580 O   0  0  0  0  0  0  0  0  0  0  0  0
   35.9170   24.8950   32.7250 H   0  0  0  0  0  0  0  0  0  0  0  0
  1  2  2  0  0  0  0
  1  6  1  0  0  0  0
  2  3  1  0  0  0  0
  3 24  1  0  0  0  0
  3  4  2  0  0  0  0
  5  4  1  0  0  0  0
  5  9  1  0  0  0  0
  6  5  2  0  0  0  0
  7  1  1  0  0  0  0
  8  2  1  0  0  0  0
  9 13  1  0  0  0  0
  9 10  2  0  0  0  0
 10 11  1  0  0  0  0
 11 15  1  0  0  0  0
 12 11  2  0  0  0  0
 13 12  1  0  0  0  0
 14 10  1  0  0  0  0
 16 12  1  6  0  0  0
 16 22  1  0  0  0  0
 17 16  1  0  0  0  0
 18 17  1  0  0  0  0
 19 17  1  0  0  0  0
 19 21  1  0  0  0  0
 20 19  1  0  0  0  0
 21 22  1  0  0  0  0
 22 23  1  0  0  0  0
 24 25  1  6  0  0  0
 24 26  1  0  0  0  0
 26 28  1  0  0  0  0
 26 29  1  1  0  0  0
 27 26  1  0  0  0  0
 27 28  1  0  0  0  0
 27 30  1  0  0  0  0
 28 32  1  6  0  0  0
 28 33  1  0  0  0  0
 31 27  1  0  0  0  0
 33 38  2  0  0  0  0
 33 34  1  0  0  0  0
 34 35  2  0  0  0  0
 35 36  1  0  0  0  0
 35 40  1  0  0  0  0
 36 41  1  0  0  0  0
 37 36  2  0  0  0  0
 38 37  1  0  0  0  0
 39 34  1  0  0  0  0
 42 37  1  0  0  0  0
 43 44  1  0  0  0  0
 43 24  1  0  0  0  0
M  END
>  <minimizedAffinity>
-6.24506235

$$$$

 OpenBabel03272501413D

 44 48  0  0  1  0  0  0  0  0999 V2000
   36.5670   24.4940   31.2180 C   0  0  0  0  0  0  0  0  0  0  0  0
   36.3890   25.8610   31.2800 C   0  0  0  0  0  0  0  0  0  0  0  0
   36.8640   26.6310   32.3490 C   0  0  0  0  0  0  0  0  0  0  0  0
   37.4980   26.0020   33.3030 N   0  0  0  0  0  0  0  0  0  0  0  0
   37.6670   24.6430   33.2280 C   0  0  0  0  0  0  0  0  0  0  0  0
   37.2150   23.9100   32.2160 N   0  0  0  0  0  0  0  0  0  0  0  0
   36.1940   23.9210   30.3900 H   0  0  0  0  0  0  0  0  0  0  0  0
   35.8480   26.3030   30.4320 H   0  0  0  0  0  0  0  0  0  0  0  0
   38.3780   23.9220   34.2810 C   0  0  0  0  0  0  0  0  0  0  0  0
   38.0850   22.7640   34.9500 C   0  0  0  0  0  0  0  0  0  0  0  0
   38.9080   22.2800   35.8960 C   0  0  0  0  0  0  0  0  0  0  0  0
   40.0660   23.0440   36.1330 C   0  0  0  0  0  0  0  0  0  0  0  0
   39.9230   24.4450   34.9720 S   0  0  0  0  0  0  0  0  0  0  0  0
   37.1540   22.2740   34.6650 H   0  0  0  0  0  0  0  0  0  0  0  0
   38.7550   21.3790   36.4700 H   0  0  0  0  0  0  0  0  0  0  0  0
   41.2030   22.8840   37.0570 C   0  0  2  0  0  3  0  0  0  0  0  0
   42.5200   23.2970   36.4380 C   0  0  0  0  0  3  0  0  0  0  0  0
   42.2740   23.9420   35.5590 H   0  0  0  0  0  0  0  0  0  0  0  0
   43.1130   22.0210   35.9360 C   0  0  0  0  0  3  0  0  0  0  0  0
   43.2070   22.0040   34.8120 H   0  0  0  0  0  0  0  0  0  0  0  0
   42.2710   20.9770   36.2770 O   0  0  0  0  0  0  0  0  0  0  0  0
   41.4150   21.4140   37.2740 C   0  0  0  0  0  3  0  0  0  0  0  0
   40.4860   20.8240   37.2840 H   0  0  0  0  0  0  0  0  0  0  0  0
   36.5100   28.0220   32.3040 C   0  0  1  0  0  0  0  0  0  0  0  0
   35.7290   27.9690   31.4420 H   0  0  0  0  0  0  0  0  0  0  0  0
   35.7590   28.5660   33.4990 C   0  0  2  0  0  0  0  0  0  0  0  0
   34.4180   29.0820   32.9770 C   0  0  0  0  0  0  0  0  0  0  0  0
   35.4460   29.9710   33.5880 C   0  0  1  0  0  0  0  0  0  0  0  0
   35.7430   27.9090   34.3730 H   0  0  0  0  0  0  0  0  0  0  0  0
   33.5490   28.7650   33.5780 H   0  0  0  0  0  0  0  0  0  0  0  0
   34.2100   29.2930   31.9320 H   0  0  0  0  0  0  0  0  0  0  0  0
   36.1130   30.6180   32.9830 H   0  0  0  0  0  0  0  0  0  0  0  0
   34.9750   30.6660   34.7940 C   0  0  0  0  0  0  0  0  0  0  0  0
   35.8750   31.4510   35.4660 C   0  0  0  0  0  0  0  0  0  0  0  0
   35.4020   32.1100   36.5750 C   0  0  0  0  0  0  0  0  0  0  0  0
   34.1110   32.0190   37.0250 C   0  0  0  0  0  0  0  0  0  0  0  0
   33.2380   31.2220   36.3250 C   0  0  0  0  0  0  0  0  0  0  0  0
   33.6750   30.5640   35.2340 N   0  0  0  0  0  0  0  0  0  0  0  0
   36.9080   31.5450   35.1350 H   0  0  0  0  0  0  0  0  0  0  0  0
   36.0580   32.7460   37.1520 H   0  0  0  0  0  0  0  0  0  0  0  0
   33.7390   32.5260   37.8820 H   0  0  0  0  0  0  0  0  0  0  0  0
   32.1970   31.0490   36.5530 H   0  0  0  0  0  0  0  0  0  0  0  0
   37.2660   28.9100   31.7110 O   0  0  0  0  0  0  0  0  0  0  0  0
   38.1490   29.1380   32.0920 H   0  0  0  0  0  0  0  0  0  0  0  0
  1  2  2  0  0  0  0
  1  6  1  0  0  0  0
  2  3  1  0  0  0  0
  3  4  2  0  0  0  0
  5  4  1  0  0  0  0
  5  9  1  0  0  0  0
  6  5  2  0  0  0  0
  7  1  1  0  0  0  0
  8  2  1  0  0  0  0
  9 10  2  0  0  0  0
  9 13  1  0  0  0  0
 10 11  1  0  0  0  0
 11 12  2  0  0  0  0
 11 15  1  0  0  0  0
 13 12  1  0  0  0  0
 14 10  1  0  0  0  0
 16 12  1  6  0  0  0
 16 22  1  0  0  0  0
 17 16  1  0  0  0  0
 18 17  1  0  0  0  0
 19 21  1  0  0  0  0
 19 17  1  0  0  0  0
 20 19  1  0  0  0  0
 21 22  1  0  0  0  0
 22 23  1  0  0  0  0
 24 25  1  6  0  0  0
 24  3  1  0  0  0  0
 24 26  1  0  0  0  0
 26 28  1  0  0  0  0
 26 29  1  1  0  0  0
 27 26  1  0  0  0  0
 27 30  1  0  0  0  0
 27 28  1  0  0  0  0
 28 32  1  6  0  0  0
 28 33  1  0  0  0  0
 31 27  1  0  0  0  0
 33 38  2  0  0  0  0
 33 34  1  0  0  0  0
 34 35  2  0  0  0  0
 35 36  1  0  0  0  0
 35 40  1  0  0  0  0
 36 41  1  0  0  0  0
 37 42  1  0  0  0  0
 37 36  2  0  0  0  0
 38 37  1  0  0  0  0
 39 34  1  0  0  0  0
 43 44  1  0  0  0  0
 43 24  1  0  0  0  0
M  END
>  <minimizedAffinity>
-5.97157335

$$$$

 OpenBabel03272501413D

 44 48  0  0  1  0  0  0  0  0999 V2000
   35.2880   24.9220   31.0260 C   0  0  0  0  0  0  0  0  0  0  0  0
   36.4660   24.2590   31.3010 C   0  0  0  0  0  0  0  0  0  0  0  0
   37.5720   24.9030   31.8710 C   0  0  0  0  0  0  0  0  0  0  0  0
   37.4490   26.1740   32.1440 N   0  0  0  0  0  0  0  0  0  0  0  0
   36.2720   26.8200   31.8650 C   0  0  0  0  0  0  0  0  0  0  0  0
   35.2220   26.2120   31.3210 N   0  0  0  0  0  0  0  0  0  0  0  0
   34.4510   24.4110   30.5870 H   0  0  0  0  0  0  0  0  0  0  0  0
   36.4770   23.1920   31.0410 H   0  0  0  0  0  0  0  0  0  0  0  0
   36.1110   28.2390   32.1680 C   0  0  0  0  0  0  0  0  0  0  0  0
   36.0440   29.3420   31.3590 C   0  0  0  0  0  0  0  0  0  0  0  0
   35.8860   30.5740   31.8730 C   0  0  0  0  0  0  0  0  0  0  0  0
   35.7980   30.6320   33.2770 C   0  0  0  0  0  0  0  0  0  0  0  0
   35.9480   28.8920   33.8070 S   0  0  0  0  0  0  0  0  0  0  0  0
   36.1260   29.1510   30.2890 H   0  0  0  0  0  0  0  0  0  0  0  0
   35.8230   31.4930   31.3120 H   0  0  0  0  0  0  0  0  0  0  0  0
   35.6290   31.7460   34.2280 C   0  0  2  0  0  3  0  0  0  0  0  0
   35.4570   31.2730   35.6540 C   0  0  0  0  0  3  0  0  0  0  0  0
   35.8410   30.2240   35.6940 H   0  0  0  0  0  0  0  0  0  0  0  0
   33.9790   31.2440   35.8630 C   0  0  0  0  0  3  0  0  0  0  0  0
   33.5910   30.1990   36.0400 H   0  0  0  0  0  0  0  0  0  0  0  0
   33.3610   31.7040   34.7130 O   0  0  0  0  0  0  0  0  0  0  0  0
   34.2980   32.3840   33.9550 C   0  0  0  0  0  3  0  0  0  0  0  0
   34.0150   32.3930   32.8910 H   0  0  0  0  0  0  0  0  0  0  0  0
   38.7500   24.0900   32.0010 C   0  0  1  0  0  0  0  0  0  0  0  0
   39.5390   24.8860   31.6870 H   0  0  0  0  0  0  0  0  0  0  0  0
   39.1310   23.6730   33.4050 C   0  0  2  0  0  0  0  0  0  0  0  0
   38.2660   22.4610   33.7510 C   0  0  0  0  0  0  0  0  0  0  0  0
   38.1710   23.7580   34.4780 C   0  0  1  0  0  0  0  0  0  0  0  0
   40.2060   23.5980   33.5880 H   0  0  0  0  0  0  0  0  0  0  0  0
   38.8250   21.6250   34.2050 H   0  0  0  0  0  0  0  0  0  0  0  0
   37.3630   22.1820   33.2170 H   0  0  0  0  0  0  0  0  0  0  0  0
   37.3570   24.4880   34.2940 H   0  0  0  0  0  0  0  0  0  0  0  0
   38.4810   23.6510   35.9100 C   0  0  0  0  0  0  0  0  0  0  0  0
   37.6460   24.2870   36.7900 C   0  0  0  0  0  0  0  0  0  0  0  0
   37.9440   24.1480   38.1250 C   0  0  0  0  0  0  0  0  0  0  0  0
   39.0070   23.4240   38.5990 C   0  0  0  0  0  0  0  0  0  0  0  0
   39.8220   22.8010   37.6850 C   0  0  0  0  0  0  0  0  0  0  0  0
   39.5530   22.9210   36.3700 N   0  0  0  0  0  0  0  0  0  0  0  0
   36.7930   24.8690   36.4470 H   0  0  0  0  0  0  0  0  0  0  0  0
   37.3270   24.6230   38.8740 H   0  0  0  0  0  0  0  0  0  0  0  0
   39.2430   23.3130   39.6280 H   0  0  0  0  0  0  0  0  0  0  0  0
   40.6920   22.2000   37.9010 H   0  0  0  0  0  0  0  0  0  0  0  0
   39.0980   23.2240   31.0840 O   0  0  0  0  0  0  0  0  0  0  0  0
   38.5460   22.4170   30.9340 H   0  0  0  0  0  0  0  0  0  0  0  0
  1  2  2  0  0  0  0
  1  6  1  0  0  0  0
  2  3  1  0  0  0  0
  3 24  1  0  0  0  0
  3  4  2  0  0  0  0
  5  4  1  0  0  0  0
  5  9  1  0  0  0  0
  6  5  2  0  0  0  0
  7  1  1  0  0  0  0
  8  2  1  0  0  0  0
  9 13  1  0  0  0  0
 10 11  1  0  0  0  0
 10  9  2  0  0  0  0
 11 12  2  0  0  0  0
 12 13  1  0  0  0  0
 14 10  1  0  0  0  0
 15 11  1  0  0  0  0
 16 12  1  6  0  0  0
 16 17  1  0  0  0  0
 17 18  1  0  0  0  0
 17 19  1  0  0  0  0
 19 20  1  0  0  0  0
 21 19  1  0  0  0  0
 22 16  1  0  0  0  0
 22 21  1  0  0  0  0
 23 22  1  0  0  0  0
 24 25  1  6  0  0  0
 24 26  1  0  0  0  0
 26 29  1  1  0  0  0
 26 27  1  0  0  0  0
 26 28  1  0  0  0  0
 27 30  1  0  0  0  0
 27 28  1  0  0  0  0
 28 32  1  6  0  0  0
 28 33  1  0  0  0  0
 31 27  1  0  0  0  0
 33 38  2  0  0  0  0
 33 34  1  0  0  0  0
 34 35  2  0  0  0  0
 35 36  1  0  0  0  0
 35 40  1  0  0  0  0
 36 41  1  0  0  0  0
 37 42  1  0  0  0  0
 37 36  2  0  0  0  0
 38 37  1  0  0  0  0
 39 34  1  0  0  0  0
 43 24  1  0  0  0  0
 44 43  1  0  0  0  0
M  END
>  <minimizedAffinity>
-5.96290064

$$$$

 OpenBabel03272501413D

 44 48  0  0  1  0  0  0  0  0999 V2000
   36.4430   29.4540   30.5580 C   0  0  0  0  0  0  0  0  0  0  0  0
   37.3210   28.5270   31.0800 C   0  0  0  0  0  0  0  0  0  0  0  0
   37.1320   27.9400   32.3380 C   0  0  0  0  0  0  0  0  0  0  0  0
   36.0730   28.3010   33.0120 N   0  0  0  0  0  0  0  0  0  0  0  0
   35.2080   29.2240   32.4820 C   0  0  0  0  0  0  0  0  0  0  0  0
   35.3880   29.7840   31.2900 N   0  0  0  0  0  0  0  0  0  0  0  0
   36.6060   29.8940   29.5920 H   0  0  0  0  0  0  0  0  0  0  0  0
   38.1800   28.2820   30.4410 H   0  0  0  0  0  0  0  0  0  0  0  0
   34.0160   29.6360   33.2170 C   0  0  0  0  0  0  0  0  0  0  0  0
   32.7620   29.9870   32.7950 C   0  0  0  0  0  0  0  0  0  0  0  0
   31.8040   30.3330   33.6720 C   0  0  0  0  0  0  0  0  0  0  0  0
   32.1900   30.3050   35.0250 C   0  0  0  0  0  0  0  0  0  0  0  0
   33.9360   29.7750   34.9810 S   0  0  0  0  0  0  0  0  0  0  0  0
   32.6000   29.9660   31.7170 H   0  0  0  0  0  0  0  0  0  0  0  0
   30.7930   30.6230   33.4270 H   0  0  0  0  0  0  0  0  0  0  0  0
   31.4760   30.6030   36.2800 C   0  0  2  0  0  3  0  0  0  0  0  0
   30.6710   31.8810   36.2010 C   0  0  0  0  0  3  0  0  0  0  0  0
   30.5340   32.1100   35.1160 H   0  0  0  0  0  0  0  0  0  0  0  0
   31.5640   32.9220   36.7940 C   0  0  0  0  0  3  0  0  0  0  0  0
   31.8700   33.7050   36.0400 H   0  0  0  0  0  0  0  0  0  0  0  0
   32.7300   32.3120   37.2240 O   0  0  0  0  0  0  0  0  0  0  0  0
   32.5000   30.9500   37.3200 C   0  0  0  0  0  3  0  0  0  0  0  0
   33.4400   30.3830   37.2300 H   0  0  0  0  0  0  0  0  0  0  0  0
   38.1890   27.0690   32.7700 C   0  0  1  0  0  0  0  0  0  0  0  0
   39.0210   27.8720   32.9120 H   0  0  0  0  0  0  0  0  0  0  0  0
   38.0170   26.4190   34.1260 C   0  0  2  0  0  0  0  0  0  0  0  0
   38.9320   27.1710   35.0910 C   0  0  0  0  0  0  0  0  0  0  0  0
   39.1200   25.7330   34.7520 C   0  0  1  0  0  0  0  0  0  0  0  0
   36.9800   26.2580   34.4310 H   0  0  0  0  0  0  0  0  0  0  0  0
   38.4510   27.4450   36.0460 H   0  0  0  0  0  0  0  0  0  0  0  0
   39.7520   27.8130   34.7820 H   0  0  0  0  0  0  0  0  0  0  0  0
   39.8940   25.3820   34.0390 H   0  0  0  0  0  0  0  0  0  0  0  0
   39.0190   24.8400   35.9140 C   0  0  0  0  0  0  0  0  0  0  0  0
   38.0850   25.1440   36.8690 C   0  0  0  0  0  0  0  0  0  0  0  0
   37.9940   24.2780   37.9330 C   0  0  0  0  0  0  0  0  0  0  0  0
   38.7720   23.1580   38.0750 C   0  0  0  0  0  0  0  0  0  0  0  0
   39.6970   22.8870   37.0960 C   0  0  0  0  0  0  0  0  0  0  0  0
   39.8080   23.7190   36.0430 N   0  0  0  0  0  0  0  0  0  0  0  0
   37.4520   26.0250   36.7870 H   0  0  0  0  0  0  0  0  0  0  0  0
   37.2790   24.4570   38.7220 H   0  0  0  0  0  0  0  0  0  0  0  0
   38.7050   22.4850   38.8940 H   0  0  0  0  0  0  0  0  0  0  0  0
   40.3770   22.0490   37.0660 H   0  0  0  0  0  0  0  0  0  0  0  0
   38.8800   26.3460   31.9250 O   0  0  0  0  0  0  0  0  0  0  0  0
   38.4450   25.5970   31.4490 H   0  0  0  0  0  0  0  0  0  0  0  0
  1  2  2  0  0  0  0
  1  6  1  0  0  0  0
  2  3  1  0  0  0  0
  3 24  1  0  0  0  0
  3  4  2  0  0  0  0
  5  4  1  0  0  0  0
  5  9  1  0  0  0  0
  6  5  2  0  0  0  0
  7  1  1  0  0  0  0
  8  2  1  0  0  0  0
  9 13  1  0  0  0  0
 10  9  2  0  0  0  0
 10 11  1  0  0  0  0
 11 12  2  0  0  0  0
 13 12  1  0  0  0  0
 14 10  1  0  0  0  0
 15 11  1  0  0  0  0
 16 12  1  6  0  0  0
 16 22  1  0  0  0  0
 17 16  1  0  0  0  0
 17 19  1  0  0  0  0
 18 17  1  0  0  0  0
 19 21  1  0  0  0  0
 20 19  1  0  0  0  0
 21 22  1  0  0  0  0
 23 22  1  0  0  0  0
 24 25  1  1  0  0  0
 24 26  1  0  0  0  0
 26 29  1  1  0  0  0
 26 28  1  0  0  0  0
 26 27  1  0  0  0  0
 27 30  1  0  0  0  0
 28 32  1  6  0  0  0
 28 27  1  0  0  0  0
 28 33  1  0  0  0  0
 31 27  1  0  0  0  0
 33 38  2  0  0  0  0
 33 34  1  0  0  0  0
 34 35  2  0  0  0  0
 35 36  1  0  0  0  0
 35 40  1  0  0  0  0
 36 41  1  0  0  0  0
 37 36  2  0  0  0  0
 38 37  1  0  0  0  0
 39 34  1  0  0  0  0
 42 37  1  0  0  0  0
 43 24  1  0  0  0  0
 44 43  1  0  0  0  0
M  END
>  <minimizedAffinity>
-5.94897938

$$$$

 OpenBabel03272501413D

 44 48  0  0  1  0  0  0  0  0999 V2000
   38.0300   26.8780   34.7790 C   0  0  0  0  0  0  0  0  0  0  0  0
   37.7890   26.1590   33.6250 C   0  0  0  0  0  0  0  0  0  0  0  0
   36.8010   26.5300   32.7040 C   0  0  0  0  0  0  0  0  0  0  0  0
   36.1040   27.6010   32.9740 N   0  0  0  0  0  0  0  0  0  0  0  0
   36.3530   28.3050   34.1240 C   0  0  0  0  0  0  0  0  0  0  0  0
   37.2880   27.9540   35.0010 N   0  0  0  0  0  0  0  0  0  0  0  0
   38.7920   26.5770   35.4730 H   0  0  0  0  0  0  0  0  0  0  0  0
   38.4270   25.2770   33.4800 H   0  0  0  0  0  0  0  0  0  0  0  0
   35.5890   29.5080   34.4410 C   0  0  0  0  0  0  0  0  0  0  0  0
   35.8950   30.6090   35.1960 C   0  0  0  0  0  0  0  0  0  0  0  0
   35.0180   31.6160   35.3450 C   0  0  0  0  0  0  0  0  0  0  0  0
   33.7900   31.4470   34.6770 C   0  0  0  0  0  0  0  0  0  0  0  0
   33.9500   29.8270   33.8520 S   0  0  0  0  0  0  0  0  0  0  0  0
   36.8830   30.6090   35.6570 H   0  0  0  0  0  0  0  0  0  0  0  0
   35.1760   32.5160   35.9190 H   0  0  0  0  0  0  0  0  0  0  0  0
   32.5790   32.2810   34.5760 C   0  0  2  0  0  3  0  0  0  0  0  0
   32.3610   33.1410   35.8000 C   0  0  0  0  0  3  0  0  0  0  0  0
   33.3410   33.1960   36.3340 H   0  0  0  0  0  0  0  0  0  0  0  0
   31.4080   32.3580   36.6420 C   0  0  0  0  0  3  0  0  0  0  0  0
   31.8680   32.0300   37.6190 H   0  0  0  0  0  0  0  0  0  0  0  0
   31.0620   31.2040   35.9610 O   0  0  0  0  0  0  0  0  0  0  0  0
   31.3880   31.3700   34.6260 C   0  0  0  0  0  3  0  0  0  0  0  0
   31.5470   30.3970   34.1340 H   0  0  0  0  0  0  0  0  0  0  0  0
   36.6180   25.6190   31.6080 C   0  0  1  0  0  0  0  0  0  0  0  0
   37.5950   25.8600   31.0240 H   0  0  0  0  0  0  0  0  0  0  0  0
   36.6930   24.1440   31.9360 C   0  0  2  0  0  0  0  0  0  0  0  0
   37.6320   23.5140   30.9090 C   0  0  0  0  0  0  0  0  0  0  0  0
   36.1880   23.1620   31.0080 C   0  0  1  0  0  0  0  0  0  0  0  0
   36.8670   23.9150   32.9910 H   0  0  0  0  0  0  0  0  0  0  0  0
   38.3860   22.8370   31.3450 H   0  0  0  0  0  0  0  0  0  0  0  0
   37.9140   23.9820   29.9700 H   0  0  0  0  0  0  0  0  0  0  0  0
   35.4270   23.5590   30.3060 H   0  0  0  0  0  0  0  0  0  0  0  0
   35.9510   21.7450   31.3110 C   0  0  0  0  0  0  0  0  0  0  0  0
   35.1090   21.4510   32.3520 C   0  0  0  0  0  0  0  0  0  0  0  0
   34.8840   20.1170   32.5980 C   0  0  0  0  0  0  0  0  0  0  0  0
   35.4470   19.1010   31.8700 C   0  0  0  0  0  0  0  0  0  0  0  0
   36.2850   19.4360   30.8350 C   0  0  0  0  0  0  0  0  0  0  0  0
   36.5240   20.7350   30.5720 N   0  0  0  0  0  0  0  0  0  0  0  0
   34.6460   22.2340   32.9490 H   0  0  0  0  0  0  0  0  0  0  0  0
   34.2310   19.8140   33.4030 H   0  0  0  0  0  0  0  0  0  0  0  0
   35.2760   18.0690   32.0550 H   0  0  0  0  0  0  0  0  0  0  0  0
   36.8000   18.7540   30.1760 H   0  0  0  0  0  0  0  0  0  0  0  0
   35.8220   25.8940   30.6060 O   0  0  0  0  0  0  0  0  0  0  0  0
   34.8450   25.9330   30.7500 H   0  0  0  0  0  0  0  0  0  0  0  0
  1  6  1  0  0  0  0
  1  7  1  0  0  0  0
  2  1  2  0  0  0  0
  3  4  2  0  0  0  0
  3  2  1  0  0  0  0
  4  5  1  0  0  0  0
  5  9  1  0  0  0  0
  5  6  2  0  0  0  0
  8  2  1  0  0  0  0
  9 10  2  0  0  0  0
 10 11  1  0  0  0  0
 10 14  1  0  0  0  0
 11 15  1  0  0  0  0
 12 11  2  0  0  0  0
 13  9  1  0  0  0  0
 13 12  1  0  0  0  0
 16 22  1  0  0  0  0
 16 12  1  1  0  0  0
 16 17  1  0  0  0  0
 17 18  1  0  0  0  0
 17 19  1  0  0  0  0
 19 20  1  0  0  0  0
 21 19  1  0  0  0  0
 22 21  1  0  0  0  0
 23 22  1  0  0  0  0
 24 25  1  6  0  0  0
 24 26  1  0  0  0  0
 24  3  1  0  0  0  0
 26 29  1  1  0  0  0
 27 28  1  0  0  0  0
 27 30  1  0  0  0  0
 27 26  1  0  0  0  0
 28 32  1  6  0  0  0
 28 33  1  0  0  0  0
 28 26  1  0  0  0  0
 31 27  1  0  0  0  0
 33 34  1  0  0  0  0
 34 35  2  0  0  0  0
 34 39  1  0  0  0  0
 35 40  1  0  0  0  0
 36 41  1  0  0  0  0
 36 35  1  0  0  0  0
 37 36  2  0  0  0  0
 38 37  1  0  0  0  0
 38 33  2  0  0  0  0
 42 37  1  0  0  0  0
 43 44  1  0  0  0  0
 43 24  1  0  0  0  0
M  END
>  <minimizedAffinity>
-5.78773642

$$$$

 OpenBabel03272501413D

 44 48  0  0  1  0  0  0  0  0999 V2000
   37.3550   28.4820   30.3580 C   0  0  0  0  0  0  0  0  0  0  0  0
   37.4940   27.2320   30.9260 C   0  0  0  0  0  0  0  0  0  0  0  0
   36.9310   26.9060   32.1670 C   0  0  0  0  0  0  0  0  0  0  0  0
   36.2530   27.8390   32.7790 N   0  0  0  0  0  0  0  0  0  0  0  0
   36.1230   29.0770   32.2020 C   0  0  0  0  0  0  0  0  0  0  0  0
   36.6580   29.3890   31.0270 N   0  0  0  0  0  0  0  0  0  0  0  0
   37.7940   28.7120   29.4050 H   0  0  0  0  0  0  0  0  0  0  0  0
   38.0770   26.5110   30.3380 H   0  0  0  0  0  0  0  0  0  0  0  0
   35.3630   30.1320   32.8670 C   0  0  0  0  0  0  0  0  0  0  0  0
   34.4470   31.0320   32.3930 C   0  0  0  0  0  0  0  0  0  0  0  0
   33.8610   31.9260   33.2080 C   0  0  0  0  0  0  0  0  0  0  0  0
   34.2610   31.8590   34.5570 C   0  0  0  0  0  0  0  0  0  0  0  0
   35.4760   30.4980   34.5960 S   0  0  0  0  0  0  0  0  0  0  0  0
   34.2310   30.9720   31.3260 H   0  0  0  0  0  0  0  0  0  0  0  0
   33.1330   32.6670   32.9200 H   0  0  0  0  0  0  0  0  0  0  0  0
   33.8830   32.6290   35.7550 C   0  0  2  0  0  3  0  0  0  0  0  0
   34.1080   31.8600   37.0370 C   0  0  0  0  0  3  0  0  0  0  0  0
   34.8200   31.0330   36.7960 H   0  0  0  0  0  0  0  0  0  0  0  0
   32.7770   31.2600   37.3510 C   0  0  0  0  0  3  0  0  0  0  0  0
   32.7920   30.1320   37.3050 H   0  0  0  0  0  0  0  0  0  0  0  0
   31.8660   31.6800   36.3970 O   0  0  0  0  0  0  0  0  0  0  0  0
   32.3910   32.7860   35.7500 C   0  0  0  0  0  3  0  0  0  0  0  0
   31.9550   32.8980   34.7440 H   0  0  0  0  0  0  0  0  0  0  0  0
   37.2540   25.5950   32.6570 C   0  0  1  0  0  0  0  0  0  0  0  0
   38.2110   25.4080   32.0210 H   0  0  0  0  0  0  0  0  0  0  0  0
   37.7010   25.5040   34.1000 C   0  0  2  0  0  0  0  0  0  0  0  0
   39.2240   25.3840   34.0800 C   0  0  0  0  0  0  0  0  0  0  0  0
   38.3330   24.3070   34.5950 C   0  0  1  0  0  0  0  0  0  0  0  0
   37.2600   26.2510   34.7660 H   0  0  0  0  0  0  0  0  0  0  0  0
   39.7370   26.0510   34.7930 H   0  0  0  0  0  0  0  0  0  0  0  0
   39.8040   25.1030   33.2050 H   0  0  0  0  0  0  0  0  0  0  0  0
   38.0930   23.3970   34.0080 H   0  0  0  0  0  0  0  0  0  0  0  0
   38.5610   23.9860   36.0100 C   0  0  0  0  0  0  0  0  0  0  0  0
   37.6840   24.5030   36.9280 C   0  0  0  0  0  0  0  0  0  0  0  0
   37.9050   24.1660   38.2420 C   0  0  0  0  0  0  0  0  0  0  0  0
   38.9330   23.3610   38.6620 C   0  0  0  0  0  0  0  0  0  0  0  0
   39.7910   22.8620   37.7120 C   0  0  0  0  0  0  0  0  0  0  0  0
   39.5980   23.1770   36.4160 N   0  0  0  0  0  0  0  0  0  0  0  0
   36.8590   25.1450   36.6280 H   0  0  0  0  0  0  0  0  0  0  0  0
   37.2530   24.5390   39.0180 H   0  0  0  0  0  0  0  0  0  0  0  0
   39.1090   23.0970   39.6750 H   0  0  0  0  0  0  0  0  0  0  0  0
   40.6410   22.2190   37.8850 H   0  0  0  0  0  0  0  0  0  0  0  0
   36.6310   24.5250   32.2320 O   0  0  0  0  0  0  0  0  0  0  0  0
   35.6790   24.3870   32.4600 H   0  0  0  0  0  0  0  0  0  0  0  0
  1  2  2  0  0  0  0
  1  6  1  0  0  0  0
  2  3  1  0  0  0  0
  3 24  1  0  0  0  0
  3  4  2  0  0  0  0
  5  4  1  0  0  0  0
  5  9  1  0  0  0  0
  6  5  2  0  0  0  0
  7  1  1  0  0  0  0
  8  2  1  0  0  0  0
  9 13  1  0  0  0  0
 10  9  2  0  0  0  0
 10 11  1  0  0  0  0
 11 12  2  0  0  0  0
 12 13  1  0  0  0  0
 14 10  1  0  0  0  0
 15 11  1  0  0  0  0
 16 12  1  6  0  0  0
 16 17  1  0  0  0  0
 17 19  1  0  0  0  0
 18 17  1  0  0  0  0
 20 19  1  0  0  0  0
 21 19  1  0  0  0  0
 22 16  1  0  0  0  0
 22 21  1  0  0  0  0
 23 22  1  0  0  0  0
 24 25  1  6  0  0  0
 24 26  1  0  0  0  0
 26 28  1  0  0  0  0
 26 29  1  1  0  0  0
 27 26  1  0  0  0  0
 27 28  1  0  0  0  0
 27 30  1  0  0  0  0
 28 32  1  6  0  0  0
 28 33  1  0  0  0  0
 31 27  1  0  0  0  0
 33 38  2  0  0  0  0
 33 34  1  0  0  0  0
 34 35  2  0  0  0  0
 35 36  1  0  0  0  0
 35 40  1  0  0  0  0
 36 41  1  0  0  0  0
 37 42  1  0  0  0  0
 37 36  2  0  0  0  0
 38 37  1  0  0  0  0
 39 34  1  0  0  0  0
 43 44  1  0  0  0  0
 43 24  1  0  0  0  0
M  END
>  <minimizedAffinity>
-5.7834487

$$$$

 OpenBabel03272501413D

 44 48  0  0  1  0  0  0  0  0999 V2000
   36.5750   29.5120   30.1740 C   0  0  0  0  0  0  0  0  0  0  0  0
   37.0150   28.2040   30.1890 C   0  0  0  0  0  0  0  0  0  0  0  0
   36.7340   27.3310   31.2470 C   0  0  0  0  0  0  0  0  0  0  0  0
   36.0250   27.8010   32.2380 N   0  0  0  0  0  0  0  0  0  0  0  0
   35.5950   29.1030   32.2110 C   0  0  0  0  0  0  0  0  0  0  0  0
   35.8620   29.9340   31.2090 N   0  0  0  0  0  0  0  0  0  0  0  0
   36.8010   30.1660   29.3530 H   0  0  0  0  0  0  0  0  0  0  0  0
   37.6000   27.8960   29.3120 H   0  0  0  0  0  0  0  0  0  0  0  0
   34.7950   29.6460   33.3050 C   0  0  0  0  0  0  0  0  0  0  0  0
   33.4460   29.6360   33.5400 C   0  0  0  0  0  0  0  0  0  0  0  0
   32.9270   30.2080   34.6400 C   0  0  0  0  0  0  0  0  0  0  0  0
   33.8640   30.8010   35.5080 C   0  0  0  0  0  0  0  0  0  0  0  0
   35.4720   30.5100   34.6950 S   0  0  0  0  0  0  0  0  0  0  0  0
   32.8370   29.1410   32.7840 H   0  0  0  0  0  0  0  0  0  0  0  0
   31.8810   30.2450   34.9030 H   0  0  0  0  0  0  0  0  0  0  0  0
   33.7320   31.5180   36.7880 C   0  0  2  0  0  3  0  0  0  0  0  0
   32.5500   32.4620   36.8090 C   0  0  0  0  0  3  0  0  0  0  0  0
   31.8660   32.1400   35.9860 H   0  0  0  0  0  0  0  0  0  0  0  0
   33.1280   33.7910   36.4490 C   0  0  0  0  0  3  0  0  0  0  0  0
   32.7330   34.1790   35.4650 H   0  0  0  0  0  0  0  0  0  0  0  0
   34.4970   33.6520   36.2960 O   0  0  0  0  0  0  0  0  0  0  0  0
   34.8860   32.4700   36.9030 C   0  0  0  0  0  3  0  0  0  0  0  0
   35.8240   32.0920   36.4670 H   0  0  0  0  0  0  0  0  0  0  0  0
   37.3490   26.0360   31.1490 C   0  0  1  0  0  0  0  0  0  0  0  0
   38.2890   26.2460   31.8020 H   0  0  0  0  0  0  0  0  0  0  0  0
   36.6280   24.8930   31.8300 C   0  0  2  0  0  0  0  0  0  0  0  0
   37.5280   24.4270   32.9730 C   0  0  0  0  0  0  0  0  0  0  0  0
   37.1850   23.5630   31.8100 C   0  0  1  0  0  0  0  0  0  0  0  0
   35.5760   25.0820   32.0580 H   0  0  0  0  0  0  0  0  0  0  0  0
   37.0000   24.2820   33.9310 H   0  0  0  0  0  0  0  0  0  0  0  0
   38.5850   24.6650   33.0560 H   0  0  0  0  0  0  0  0  0  0  0  0
   37.8860   23.3830   30.9700 H   0  0  0  0  0  0  0  0  0  0  0  0
   36.4710   22.3340   32.1840 C   0  0  0  0  0  0  0  0  0  0  0  0
   35.7040   21.7290   31.2240 C   0  0  0  0  0  0  0  0  0  0  0  0
   35.0680   20.5670   31.5930 C   0  0  0  0  0  0  0  0  0  0  0  0
   35.1650   20.0060   32.8400 C   0  0  0  0  0  0  0  0  0  0  0  0
   35.9440   20.6430   33.7750 C   0  0  0  0  0  0  0  0  0  0  0  0
   36.5780   21.7840   33.4410 N   0  0  0  0  0  0  0  0  0  0  0  0
   35.6050   22.1470   30.2250 H   0  0  0  0  0  0  0  0  0  0  0  0
   34.4470   20.0370   30.8860 H   0  0  0  0  0  0  0  0  0  0  0  0
   34.6770   19.1090   33.1310 H   0  0  0  0  0  0  0  0  0  0  0  0
   36.1180   20.3270   34.7920 H   0  0  0  0  0  0  0  0  0  0  0  0
   38.0290   25.6710   30.0920 O   0  0  0  0  0  0  0  0  0  0  0  0
   37.5630   25.5270   29.2320 H   0  0  0  0  0  0  0  0  0  0  0  0
  1  2  2  0  0  0  0
  1  6  1  0  0  0  0
  2  3  1  0  0  0  0
  3  4  2  0  0  0  0
  5  4  1  0  0  0  0
  5  9  1  0  0  0  0
  6  5  2  0  0  0  0
  7  1  1  0  0  0  0
  8  2  1  0  0  0  0
  9 10  2  0  0  0  0
  9 13  1  0  0  0  0
 10 11  1  0  0  0  0
 11 15  1  0  0  0  0
 11 12  2  0  0  0  0
 13 12  1  0  0  0  0
 14 10  1  0  0  0  0
 16 12  1  6  0  0  0
 16 17  1  0  0  0  0
 16 22  1  0  0  0  0
 18 17  1  0  0  0  0
 19 17  1  0  0  0  0
 20 19  1  0  0  0  0
 21 19  1  0  0  0  0
 21 22  1  0  0  0  0
 23 22  1  0  0  0  0
 24  3  1  0  0  0  0
 24 25  1  1  0  0  0
 24 26  1  0  0  0  0
 26 29  1  1  0  0  0
 26 27  1  0  0  0  0
 27 31  1  0  0  0  0
 27 30  1  0  0  0  0
 28 32  1  6  0  0  0
 28 26  1  0  0  0  0
 28 33  1  0  0  0  0
 28 27  1  0  0  0  0
 33 38  1  0  0  0  0
 34 35  1  0  0  0  0
 34 33  2  0  0  0  0
 35 36  2  0  0  0  0
 36 41  1  0  0  0  0
 36 37  1  0  0  0  0
 37 42  1  0  0  0  0
 38 37  2  0  0  0  0
 39 34  1  0  0  0  0
 40 35  1  0  0  0  0
 43 24  1  0  0  0  0
 44 43  1  0  0  0  0
M  END
>  <minimizedAffinity>
-5.75835609

$$$$

 OpenBabel03272501413D

 44 48  0  0  1  0  0  0  0  0999 V2000
   35.5910   23.9340   31.3350 C   0  0  0  0  0  0  0  0  0  0  0  0
   35.4090   25.2880   31.1470 C   0  0  0  0  0  0  0  0  0  0  0  0
   36.2850   26.2430   31.6800 C   0  0  0  0  0  0  0  0  0  0  0  0
   37.3020   25.8020   32.3700 N   0  0  0  0  0  0  0  0  0  0  0  0
   37.4700   24.4530   32.5500 C   0  0  0  0  0  0  0  0  0  0  0  0
   36.6400   23.5450   32.0470 N   0  0  0  0  0  0  0  0  0  0  0  0
   34.9080   23.2170   30.9190 H   0  0  0  0  0  0  0  0  0  0  0  0
   34.5300   25.5660   30.5510 H   0  0  0  0  0  0  0  0  0  0  0  0
   38.6040   23.9390   33.3130 C   0  0  0  0  0  0  0  0  0  0  0  0
   39.5160   22.9540   33.0380 C   0  0  0  0  0  0  0  0  0  0  0  0
   40.4960   22.6520   33.9070 C   0  0  0  0  0  0  0  0  0  0  0  0
   40.5050   23.4130   35.0910 C   0  0  0  0  0  0  0  0  0  0  0  0
   39.0860   24.5460   34.9050 S   0  0  0  0  0  0  0  0  0  0  0  0
   39.3910   22.4450   32.0820 H   0  0  0  0  0  0  0  0  0  0  0  0
   41.2530   21.8950   33.7710 H   0  0  0  0  0  0  0  0  0  0  0  0
   41.3770   23.4110   36.2790 C   0  0  2  0  0  3  0  0  0  0  0  0
   42.5850   22.5150   36.1130 C   0  0  0  0  0  3  0  0  0  0  0  0
   42.7080   22.3400   35.0160 H   0  0  0  0  0  0  0  0  0  0  0  0
   42.1850   21.2270   36.7550 C   0  0  0  0  0  3  0  0  0  0  0  0
   42.1260   20.3780   36.0140 H   0  0  0  0  0  0  0  0  0  0  0  0
   40.9150   21.3730   37.2870 O   0  0  0  0  0  0  0  0  0  0  0  0
   40.6380   22.7260   37.3910 C   0  0  0  0  0  3  0  0  0  0  0  0
   39.5520   22.9080   37.3860 H   0  0  0  0  0  0  0  0  0  0  0  0
   35.8960   27.6100   31.4720 C   0  0  1  0  0  0  0  0  0  0  0  0
   34.7900   27.4250   31.1590 H   0  0  0  0  0  0  0  0  0  0  0  0
   35.8280   28.4880   32.7030 C   0  0  2  0  0  0  0  0  0  0  0  0
   34.4030   29.0350   32.7730 C   0  0  0  0  0  0  0  0  0  0  0  0
   35.5960   29.9060   32.5780 C   0  0  1  0  0  0  0  0  0  0  0  0
   36.2460   28.0420   33.6100 H   0  0  0  0  0  0  0  0  0  0  0  0
   33.9430   28.9630   33.7730 H   0  0  0  0  0  0  0  0  0  0  0  0
   33.7070   29.0380   31.9400 H   0  0  0  0  0  0  0  0  0  0  0  0
   35.8780   30.3200   31.5890 H   0  0  0  0  0  0  0  0  0  0  0  0
   35.7790   30.8970   33.6460 C   0  0  0  0  0  0  0  0  0  0  0  0
   36.0280   32.1920   33.2750 C   0  0  0  0  0  0  0  0  0  0  0  0
   36.1680   33.1040   34.2940 C   0  0  0  0  0  0  0  0  0  0  0  0
   36.0730   32.7840   35.6240 C   0  0  0  0  0  0  0  0  0  0  0  0
   35.8230   31.4750   35.9560 C   0  0  0  0  0  0  0  0  0  0  0  0
   35.6810   30.5600   34.9770 N   0  0  0  0  0  0  0  0  0  0  0  0
   36.1090   32.4790   32.2290 H   0  0  0  0  0  0  0  0  0  0  0  0
   36.3660   34.1430   34.0730 H   0  0  0  0  0  0  0  0  0  0  0  0
   36.1800   33.4840   36.4150 H   0  0  0  0  0  0  0  0  0  0  0  0
   35.7210   31.0710   36.9520 H   0  0  0  0  0  0  0  0  0  0  0  0
   36.2090   28.2610   30.3800 O   0  0  0  0  0  0  0  0  0  0  0  0
   37.1530   28.4920   30.1990 H   0  0  0  0  0  0  0  0  0  0  0  0
  1  6  1  0  0  0  0
  2  1  2  0  0  0  0
  2  3  1  0  0  0  0
  3  4  2  0  0  0  0
  4  5  1  0  0  0  0
  5  9  1  0  0  0  0
  6  5  2  0  0  0  0
  7  1  1  0  0  0  0
  8  2  1  0  0  0  0
  9 13  1  0  0  0  0
 10  9  2  0  0  0  0
 10 11  1  0  0  0  0
 11 12  2  0  0  0  0
 13 12  1  0  0  0  0
 14 10  1  0  0  0  0
 15 11  1  0  0  0  0
 16 12  1  6  0  0  0
 16 22  1  0  0  0  0
 17 16  1  0  0  0  0
 17 19  1  0  0  0  0
 18 17  1  0  0  0  0
 19 21  1  0  0  0  0
 20 19  1  0  0  0  0
 21 22  1  0  0  0  0
 23 22  1  0  0  0  0
 24 25  1  6  0  0  0
 24  3  1  0  0  0  0
 24 26  1  0  0  0  0
 26 27  1  0  0  0  0
 26 29  1  1  0  0  0
 27 30  1  0  0  0  0
 28 32  1  6  0  0  0
 28 26  1  0  0  0  0
 28 27  1  0  0  0  0
 28 33  1  0  0  0  0
 31 27  1  0  0  0  0
 33 38  1  0  0  0  0
 34 33  2  0  0  0  0
 34 35  1  0  0  0  0
 35 36  2  0  0  0  0
 36 37  1  0  0  0  0
 36 41  1  0  0  0  0
 37 42  1  0  0  0  0
 38 37  2  0  0  0  0
 39 34  1  0  0  0  0
 40 35  1  0  0  0  0
 43 24  1  0  0  0  0
 44 43  1  0  0  0  0
M  END
>  <minimizedAffinity>
-5.75791788

$$$$
