
 OpenBabel03272508283D

 37 40  0  0  1  0  0  0  0  0999 V2000
   33.8200   28.8580   47.2550 C   0  0  2  0  0  0  0  0  0  0  0  0
   34.5190   28.1280   48.3920 C   0  0  2  0  0  0  0  0  0  0  0  0
   33.5960   28.0470   49.3980 O   0  0  0  0  0  0  0  0  0  0  0  0
   32.3350   28.1280   48.9010 C   0  0  0  0  0  0  0  0  0  0  0  0
   32.4210   28.2460   47.3950 C   0  0  1  0  0  0  0  0  0  0  0  0
   33.6890   29.9240   47.4590 H   0  0  0  0  0  0  0  0  0  0  0  0
   34.7840   27.1300   47.9670 H   0  0  0  0  0  0  0  0  0  0  0  0
   31.7210   27.2670   49.2210 H   0  0  0  0  0  0  0  0  0  0  0  0
   31.8710   29.0720   49.2980 H   0  0  0  0  0  0  0  0  0  0  0  0
   32.4540   27.2300   46.9520 H   0  0  0  0  0  0  0  0  0  0  0  0
   35.6260   30.3610   49.0800 C   0  0  1  0  0  0  0  0  0  0  0  0
   35.7010   28.9490   48.7900 C   0  0  1  0  0  0  0  0  0  0  0  0
   35.9320   29.3650   50.2070 C   0  0  0  0  0  0  0  0  0  0  0  0
   34.7370   30.9540   49.3440 H   0  0  0  0  0  0  0  0  0  0  0  0
   36.6440   28.6010   48.2770 H   0  0  0  0  0  0  0  0  0  0  0  0
   35.1240   29.0900   50.9080 H   0  0  0  0  0  0  0  0  0  0  0  0
   36.9390   29.3470   50.6460 H   0  0  0  0  0  0  0  0  0  0  0  0
   36.8030   31.2830   48.8120 C   0  0  0  0  0  0  0  0  0  0  0  0
   37.0560   32.2930   49.7410 C   0  0  0  0  0  0  0  0  0  0  0  0
   38.1280   33.1200   49.4330 C   0  0  0  0  0  0  0  0  0  0  0  0
   38.8640   32.9280   48.2880 N   0  0  0  0  0  0  0  0  0  0  0  0
   38.5790   31.9330   47.4190 C   0  0  0  0  0  0  0  0  0  0  0  0
   37.5400   31.1040   47.6840 N   0  0  0  0  0  0  0  0  0  0  0  0
   36.4490   32.3970   50.6160 H   0  0  0  0  0  0  0  0  0  0  0  0
   38.3560   33.9170   50.1290 H   0  0  0  0  0  0  0  0  0  0  0  0
   39.1920   31.8310   46.5390 H   0  0  0  0  0  0  0  0  0  0  0  0
   34.3640   28.5970   46.0120 O   0  0  0  0  0  0  0  0  0  0  0  0
   34.3210   27.6170   45.8650 H   0  0  0  0  0  0  0  0  0  0  0  0
   31.4620   29.0440   46.8330 O   0  0  0  0  0  0  0  0  0  0  0  0
   30.5020   28.3690   46.1080 C   0  0  2  0  0  3  0  0  0  0  0  0
   29.2620   28.0660   46.9320 C   0  0  0  0  0  3  0  0  0  0  0  0
   28.4820   28.8180   46.8460 H   0  0  0  0  0  0  0  0  0  0  0  0
   28.7790   26.8090   46.2250 C   0  0  0  0  0  3  0  0  0  0  0  0
   28.1170   27.0880   45.3640 H   0  0  0  0  0  0  0  0  0  0  0  0
   29.9030   26.1220   45.8080 O   0  0  0  0  0  0  0  0  0  0  0  0
   30.9980   26.9680   45.8480 C   0  0  0  0  0  3  0  0  0  0  0  0
   31.6630   26.8840   44.9660 H   0  0  0  0  0  0  0  0  0  0  0  0
  1  5  1  0  0  0  0
  1  6  1  1  0  0  0
  1  2  1  0  0  0  0
  2  7  1  6  0  0  0
  2 12  1  0  0  0  0
  2  3  1  0  0  0  0
  4  8  1  0  0  0  0
  4  9  1  0  0  0  0
  4  3  1  0  0  0  0
  5 10  1  6  0  0  0
  5  4  1  0  0  0  0
 11 14  1  6  0  0  0
 11 13  1  0  0  0  0
 12 15  1  6  0  0  0
 12 11  1  0  0  0  0
 12 13  1  0  0  0  0
 13 17  1  0  0  0  0
 13 16  1  0  0  0  0
 18 11  1  0  0  0  0
 18 19  1  0  0  0  0
 19 24  1  0  0  0  0
 20 19  2  0  0  0  0
 20 25  1  0  0  0  0
 21 20  1  0  0  0  0
 22 23  1  0  0  0  0
 22 21  2  0  0  0  0
 23 18  2  0  0  0  0
 26 22  1  0  0  0  0
 27  1  1  0  0  0  0
 28 27  1  0  0  0  0
 29  5  1  0  0  0  0
 30 29  1  1  0  0  0
 30 31  1  0  0  0  0
 32 31  1  0  0  0  0
 33 31  1  0  0  0  0
 34 33  1  0  0  0  0
 35 36  1  0  0  0  0
 35 33  1  0  0  0  0
 36 30  1  0  0  0  0
 37 36  1  0  0  0  0
M  END
>  <minimizedAffinity>
-4.86616516

>  <minimizedRMSD>
0.41241461

$$$$
