
 OpenBabel03272500193D

 33 35  0  0  1  0  0  0  0  0999 V2000
   35.3020   29.2740   50.6220 C   0  0  0  0  0  0  0  0  0  0  0  0
   36.4500   29.9390   50.1150 C   0  0  0  0  0  0  0  0  0  0  0  0
   36.6810   29.9590   48.7440 C   0  0  0  0  0  0  0  0  0  0  0  0
   35.7500   29.3150   47.9670 N   0  0  0  0  0  0  0  0  0  0  0  0
   34.6910   28.7030   48.4390 C   0  0  0  0  0  0  0  0  0  0  0  0
   34.4520   28.6730   49.7530 N   0  0  0  0  0  0  0  0  0  0  0  0
   35.1270   29.2620   51.7010 H   0  0  0  0  0  0  0  0  0  0  0  0
   33.0930   30.5610   46.6570 Cl  0  0  0  0  0  0  0  0  0  0  0  0
   32.9690   28.8040   46.6410 C   0  0  0  0  0  0  0  0  0  0  0  0
   33.7580   28.0450   47.5110 C   0  0  0  0  0  0  0  0  0  0  0  0
   33.6950   26.6580   47.5340 C   0  0  0  0  0  0  0  0  0  0  0  0
   32.8010   26.0580   46.6440 C   0  0  0  0  0  0  0  0  0  0  0  0
   32.0180   26.7810   45.7830 C   0  0  0  0  0  0  0  0  0  0  0  0
   30.9380   25.9210   44.7130 Cl  0  0  0  0  0  0  0  0  0  0  0  0
   32.1120   28.1700   45.7900 C   0  0  0  0  0  0  0  0  0  0  0  0
   34.3060   26.0770   48.2080 H   0  0  0  0  0  0  0  0  0  0  0  0
   32.7910   24.9770   46.7030 H   0  0  0  0  0  0  0  0  0  0  0  0
   31.2700   28.9640   44.8630 C   0  0  0  0  0  0  0  0  0  0  0  0
   30.3010   28.1580   44.2650 F   0  0  0  0  0  0  0  0  0  0  0  0
   31.9950   29.6220   43.9240 F   0  0  0  0  0  0  0  0  0  0  0  0
   30.5560   29.9130   45.5950 F   0  0  0  0  0  0  0  0  0  0  0  0
   37.8390   30.6240   48.1680 C   0  0  2  0  0  3  0  0  0  0  0  0
   37.7540   32.1250   48.0500 C   0  0  0  0  0  3  0  0  0  0  0  0
   36.7280   32.3700   47.7630 H   0  0  0  0  0  0  0  0  0  0  0  0
   38.7290   32.3620   46.8860 C   0  0  0  0  0  3  0  0  0  0  0  0
   39.7680   32.3930   47.2990 H   0  0  0  0  0  0  0  0  0  0  0  0
   38.6740   31.2450   46.0960 O   0  0  0  0  0  0  0  0  0  0  0  0
   37.7970   30.3500   46.6470 C   0  0  0  0  0  3  0  0  0  0  0  0
   36.7730   30.6370   46.3300 H   0  0  0  0  0  0  0  0  0  0  0  0
   37.3770   30.5950   51.0790 C   0  0  0  0  0  0  0  0  0  0  0  0
   38.7030   30.4140   50.7260 F   0  0  0  0  0  0  0  0  0  0  0  0
   37.0840   31.9350   51.1500 F   0  0  0  0  0  0  0  0  0  0  0  0
   37.2340   30.0920   52.3630 F   0  0  0  0  0  0  0  0  0  0  0  0
  1  7  1  0  0  0  0
  2  1  1  0  0  0  0
  2 30  1  0  0  0  0
  3  2  2  0  0  0  0
  4  5  2  0  0  0  0
  4  3  1  0  0  0  0
  5  6  1  0  0  0  0
  6  1  2  0  0  0  0
  9  8  1  0  0  0  0
  9 10  1  0  0  0  0
 10 11  2  0  0  0  0
 10  5  1  0  0  0  0
 11 16  1  0  0  0  0
 12 17  1  0  0  0  0
 12 11  1  0  0  0  0
 13 15  1  0  0  0  0
 13 12  2  0  0  0  0
 14 13  1  0  0  0  0
 15  9  2  0  0  0  0
 18 21  1  0  0  0  0
 18 15  1  0  0  0  0
 19 18  1  0  0  0  0
 20 18  1  0  0  0  0
 22  3  1  1  0  0  0
 23 22  1  0  0  0  0
 24 23  1  0  0  0  0
 25 26  1  0  0  0  0
 25 23  1  0  0  0  0
 27 28  1  0  0  0  0
 27 25  1  0  0  0  0
 28 22  1  0  0  0  0
 29 28  1  0  0  0  0
 30 32  1  0  0  0  0
 30 33  1  0  0  0  0
 31 30  1  0  0  0  0
M  END
>  <minimizedAffinity>
-5.76989603

>  <minimizedRMSD>
0.810524464

$$$$
