
 OpenBabel03272507553D

 22 23  0  0  1  0  0  0  0  0999 V2000
   35.4750   29.1560   50.4290 C   0  0  0  0  0  0  0  0  0  0  0  0
   36.2780   30.0620   49.7070 C   0  0  0  0  0  0  0  0  0  0  0  0
   36.1780   30.0740   48.3290 C   0  0  0  0  0  0  0  0  0  0  0  0
   35.3090   29.2090   47.7160 N   0  0  0  0  0  0  0  0  0  0  0  0
   34.5500   28.3480   48.4540 C   0  0  0  0  0  0  0  0  0  0  0  0
   34.6290   28.3160   49.8070 N   0  0  0  0  0  0  0  0  0  0  0  0
   33.7060   27.5260   47.6570 N   0  0  0  0  0  0  0  0  0  0  0  0
   35.5040   29.0940   51.5090 H   0  0  0  0  0  0  0  0  0  0  0  0
   32.9030   28.0100   47.1920 H   0  0  0  0  0  0  0  0  0  0  0  0
   33.9780   26.5020   47.6140 H   0  0  0  0  0  0  0  0  0  0  0  0
   36.9740   30.9920   47.4890 C   0  0  2  0  0  3  0  0  0  0  0  0
   36.5170   30.9960   46.0560 C   0  0  0  0  0  3  0  0  0  0  0  0
   35.8610   30.0940   45.9390 H   0  0  0  0  0  0  0  0  0  0  0  0
   37.7840   30.7880   45.2890 C   0  0  0  0  0  3  0  0  0  0  0  0
   37.9120   31.5940   44.5250 H   0  0  0  0  0  0  0  0  0  0  0  0
   38.8320   30.8720   46.1970 O   0  0  0  0  0  0  0  0  0  0  0  0
   38.3600   30.4470   47.4090 C   0  0  0  0  0  3  0  0  0  0  0  0
   39.0210   30.8000   48.2280 H   0  0  0  0  0  0  0  0  0  0  0  0
   37.2010   30.9590   50.4470 C   0  0  0  0  0  0  0  0  0  0  0  0
   38.5310   30.7710   50.0580 F   0  0  0  0  0  0  0  0  0  0  0  0
   36.8540   32.2550   50.2070 F   0  0  0  0  0  0  0  0  0  0  0  0
   37.1620   30.7520   51.8150 F   0  0  0  0  0  0  0  0  0  0  0  0
  1  8  1  0  0  0  0
  2  1  2  0  0  0  0
  2 19  1  0  0  0  0
  3  2  1  0  0  0  0
  4  3  2  0  0  0  0
  4  5  1  0  0  0  0
  5  6  2  0  0  0  0
  6  1  1  0  0  0  0
  7  5  1  0  0  0  0
  9  7  1  0  0  0  0
 10  7  1  0  0  0  0
 11  3  1  1  0  0  0
 12 11  1  0  0  0  0
 13 12  1  0  0  0  0
 14 12  1  0  0  0  0
 14 16  1  0  0  0  0
 15 14  1  0  0  0  0
 16 17  1  0  0  0  0
 17 11  1  0  0  0  0
 17 18  1  0  0  0  0
 19 22  1  0  0  0  0
 20 19  1  0  0  0  0
 21 19  1  0  0  0  0
M  END
>  <minimizedAffinity>
-4.80423832

>  <minimizedRMSD>
0.880326331

$$$$
