
     RDKit          3D

 41 44  0  0  0  0  0  0  0  0999 V2000
   35.8122   30.5451   49.0618 C   0  0  1  0  0  0  0  0  0  0  0  0
   35.9033   29.1216   48.8403 C   0  0  1  0  0  0  0  0  0  0  0  0
   36.0519   29.6007   50.2484 C   0  0  0  0  0  0  0  0  0  0  0  0
   37.0044   31.4555   48.8217 C   0  0  0  0  0  0  0  0  0  0  0  0
   37.1817   32.5288   49.6963 C   0  0  0  0  0  0  0  0  0  0  0  0
   38.2723   33.3424   49.4153 C   0  0  0  0  0  0  0  0  0  0  0  0
   39.0942   33.0786   48.3450 N   0  0  0  0  0  0  0  0  0  0  0  0
   38.8794   32.0253   47.5269 C   0  0  0  0  0  0  0  0  0  0  0  0
   37.8255   31.2072   47.7683 N   0  0  0  0  0  0  0  0  0  0  0  0
   33.9638   29.0779   47.3775 C   0  0  2  0  0  0  0  0  0  0  0  0
   34.7452   28.2816   48.4106 C   0  0  2  0  0  0  0  0  0  0  0  0
   33.8717   28.0586   49.4386 O   0  0  0  0  0  0  0  0  0  0  0  0
   32.5881   28.1214   49.0011 C   0  0  0  0  0  0  0  0  0  0  0  0
   32.6029   28.3845   47.5110 C   0  0  1  0  0  0  0  0  0  0  0  0
   34.4657   28.9627   46.0945 O   0  0  0  0  0  0  0  0  0  0  0  0
   31.5835   29.1811   47.0646 O   0  0  0  0  0  0  0  0  0  0  0  0
   34.9096   31.1483   49.2473 H   0  0  0  0  0  0  0  0  0  0  0  0
   36.8737   28.7532   48.3977 H   0  0  0  0  0  0  0  0  0  0  0  0
   35.2036   29.3555   50.9120 H   0  0  0  0  0  0  0  0  0  0  0  0
   37.0317   29.6040   50.7454 H   0  0  0  0  0  0  0  0  0  0  0  0
   36.5102   32.6872   50.5140 H   0  0  0  0  0  0  0  0  0  0  0  0
   38.4441   34.1856   50.0712 H   0  0  0  0  0  0  0  0  0  0  0  0
   39.5566   31.8686   46.7043 H   0  0  0  0  0  0  0  0  0  0  0  0
   33.7911   30.1123   47.6866 H   0  0  0  0  0  0  0  0  0  0  0  0
   35.0389   27.3426   47.8823 H   0  0  0  0  0  0  0  0  0  0  0  0
   32.0297   27.2045   49.2607 H   0  0  0  0  0  0  0  0  0  0  0  0
   32.0974   28.9987   49.5043 H   0  0  0  0  0  0  0  0  0  0  0  0
   32.6646   27.4166   46.9725 H   0  0  0  0  0  0  0  0  0  0  0  0
   34.4632   27.9999   45.8557 H   0  0  0  0  0  0  0  0  0  0  0  0
   30.8335   28.6387   46.0422 C   0  0  2  0  0  0  0  0  0  0  0  0
   30.2776   27.2704   46.3954 C   0  0  2  0  0  0  0  0  0  0  0  0
   29.2759   27.2979   46.8202 H   0  0  0  0  0  0  0  0  0  0  0  0
   30.1798   26.6607   45.0063 C   0  0  2  0  0  0  0  0  0  0  0  0
   29.1916   26.9218   44.5447 H   0  0  0  0  0  0  0  0  0  0  0  0
   31.2379   27.1576   44.2710 O   0  0  0  0  0  0  0  0  0  0  0  0
   31.7628   28.2652   44.9147 C   0  0  1  0  0  0  0  0  0  0  0  0
   32.0041   29.1069   44.2352 H   0  0  0  0  0  0  0  0  0  0  0  0
   30.0201   29.2688   45.6825 H   0  0  0  0  0  0  0  0  0  0  0  0
   31.0091   26.6531   46.9532 H   0  0  0  0  0  0  0  0  0  0  0  0
   30.2649   25.5512   45.0737 H   0  0  0  0  0  0  0  0  0  0  0  0
   32.7151   27.9279   45.3883 H   0  0  0  0  0  0  0  0  0  0  0  0
  1  3  1  0
  2  1  1  0
  2  3  1  0
  4  1  1  0
  4  5  2  0
  6  5  1  0
  7  6  2  0
  8  9  2  0
  8  7  1  0
  9  4  1  0
 10 15  1  0
 10 14  1  0
 10 11  1  0
 11  2  1  0
 11 12  1  0
 13 12  1  0
 14 16  1  0
 14 13  1  0
  1 17  1  1
  2 18  1  6
  3 19  1  0
  3 20  1  0
  5 21  1  0
  6 22  1  0
  8 23  1  0
 10 24  1  1
 11 25  1  6
 13 26  1  0
 13 27  1  0
 14 28  1  6
 15 29  1  0
 30 31  1  0
 31 32  1  1
 31 33  1  0
 33 34  1  6
 33 35  1  0
 35 36  1  0
 36 37  1  6
 36 30  1  0
 30 38  1  6
 31 39  1  0
 33 40  1  0
 36 41  1  0
 16 30  1  0
M  ISO  8  17  13  18  13  19  13  20  13  21  14  22  14  23  14  24  13
M  ISO  8  25  13  26  13  27  13  28  13  29   3  32  15  34  15  37  15
M  END
>  <DihAtoms>  (1) 
13,15,29,30

>  <DihDeg>  (1) 
-125.4278015465345

$$$$
