
 OpenBabel03272505413D

 44 47  0  0  1  0  0  0  0  0999 V2000
   35.7500   30.2210   46.5160 C   0  0  0  0  0  0  0  0  0  0  0  0
   34.4170   29.8210   46.5900 C   0  0  0  0  0  0  0  0  0  0  0  0
   33.7530   29.4580   45.4330 C   0  0  0  0  0  0  0  0  0  0  0  0
   34.3370   29.4650   44.1820 C   0  0  0  0  0  0  0  0  0  0  0  0
   35.6670   29.8640   44.1060 C   0  0  0  0  0  0  0  0  0  0  0  0
   36.3130   30.2240   45.2790 C   0  0  0  0  0  0  0  0  0  0  0  0
   33.8770   29.7850   47.5310 H   0  0  0  0  0  0  0  0  0  0  0  0
   32.7160   29.1510   45.5190 H   0  0  0  0  0  0  0  0  0  0  0  0
   33.7670   29.1700   43.3070 H   0  0  0  0  0  0  0  0  0  0  0  0
   36.0730   29.8540   43.1190 H   0  0  0  0  0  0  0  0  0  0  0  0
   37.6590   30.6010   45.0050 N   0  0  0  0  0  0  0  0  0  0  0  0
   38.9610   30.0060   45.0390 C   0  0  0  0  0  0  0  0  0  0  0  0
   39.8360   30.8770   45.9100 C   0  0  0  0  0  0  0  0  0  0  0  0
   40.0710   32.1130   45.2010 N   0  0  0  0  0  0  0  0  0  0  0  0
   39.0730   32.4300   44.2390 C   0  0  0  0  0  0  0  0  0  0  0  0
   37.6950   31.9590   44.5650 C   0  0  0  0  0  0  0  0  0  0  0  0
   38.9160   28.9630   45.3880 H   0  0  0  0  0  0  0  0  0  0  0  0
   39.4070   30.0580   44.0210 H   0  0  0  0  0  0  0  0  0  0  0  0
   39.7630   30.8530   46.9490 H   0  0  0  0  0  0  0  0  0  0  0  0
   40.8360   30.3330   45.7520 H   0  0  0  0  0  0  0  0  0  0  0  0
   41.0000   32.2530   44.8050 H   0  0  0  0  0  0  0  0  0  0  0  0
   39.0070   33.5600   44.2270 H   0  0  0  0  0  0  0  0  0  0  0  0
   39.4110   32.1780   43.2130 H   0  0  0  0  0  0  0  0  0  0  0  0
   37.0730   32.6810   45.0820 H   0  0  0  0  0  0  0  0  0  0  0  0
   37.2030   31.9010   43.5410 H   0  0  0  0  0  0  0  0  0  0  0  0
   37.1410   30.1600   49.8850 C   0  0  0  0  0  0  0  0  0  0  0  0
   37.8140   31.3910   49.9590 C   0  0  0  0  0  0  0  0  0  0  0  0
   37.7840   32.2290   48.8440 C   0  0  0  0  0  0  0  0  0  0  0  0
   37.0910   31.7680   47.7690 N   0  0  0  0  0  0  0  0  0  0  0  0
   36.4600   30.6070   47.7070 C   0  0  0  0  0  0  0  0  0  0  0  0
   36.4850   29.7910   48.7790 N   0  0  0  0  0  0  0  0  0  0  0  0
   38.3540   31.7240   50.8290 H   0  0  0  0  0  0  0  0  0  0  0  0
   38.4790   33.5180   48.9020 C   0  0  2  0  0  3  0  0  0  0  0  0
   39.4760   33.7120   47.7830 C   0  0  0  0  0  3  0  0  0  0  0  0
   39.0410   34.1160   46.8530 H   0  0  0  0  0  0  0  0  0  0  0  0
   40.3610   34.7840   48.4020 C   0  0  0  0  0  3  0  0  0  0  0  0
   41.4350   34.5770   48.2250 H   0  0  0  0  0  0  0  0  0  0  0  0
   40.0950   34.8290   49.7440 O   0  0  0  0  0  0  0  0  0  0  0  0
   39.4240   33.6540   50.0900 C   0  0  0  0  0  3  0  0  0  0  0  0
   40.2140   32.8640   50.0700 H   0  0  0  0  0  0  0  0  0  0  0  0
   37.1890   29.2870   51.1130 C   0  0  0  0  0  0  0  0  0  0  0  0
   35.8650   28.9600   51.4580 F   0  0  0  0  0  0  0  0  0  0  0  0
   37.9280   28.2060   50.8400 F   0  0  0  0  0  0  0  0  0  0  0  0
   37.6710   30.0360   52.1570 F   0  0  0  0  0  0  0  0  0  0  0  0
  1  2  1  0  0  0  0
  1 30  1  0  0  0  0
  2  7  1  0  0  0  0
  3  8  1  0  0  0  0
  3  2  2  0  0  0  0
  4  3  1  0  0  0  0
  5  4  2  0  0  0  0
  5  6  1  0  0  0  0
  6  1  2  0  0  0  0
  9  4  1  0  0  0  0
 10  5  1  0  0  0  0
 11 12  1  0  0  0  0
 11  6  1  0  0  0  0
 12 17  1  0  0  0  0
 12 13  1  0  0  0  0
 13 19  1  0  0  0  0
 14 13  1  0  0  0  0
 15 16  1  0  0  0  0
 15 14  1  0  0  0  0
 16 11  1  0  0  0  0
 16 24  1  0  0  0  0
 18 12  1  0  0  0  0
 20 13  1  0  0  0  0
 21 14  1  0  0  0  0
 22 15  1  0  0  0  0
 23 15  1  0  0  0  0
 25 16  1  0  0  0  0
 26 27  1  0  0  0  0
 26 41  1  0  0  0  0
 27 32  1  0  0  0  0
 28 27  2  0  0  0  0
 29 28  1  0  0  0  0
 30 29  2  0  0  0  0
 30 31  1  0  0  0  0
 31 26  2  0  0  0  0
 33 28  1  6  0  0  0
 33 39  1  0  0  0  0
 34 36  1  0  0  0  0
 34 33  1  0  0  0  0
 35 34  1  0  0  0  0
 36 38  1  0  0  0  0
 37 36  1  0  0  0  0
 38 39  1  0  0  0  0
 40 39  1  0  0  0  0
 41 42  1  0  0  0  0
 41 44  1  0  0  0  0
 43 41  1  0  0  0  0
M  END
>  <minimizedAffinity>
-5.80760479

>  <minimizedRMSD>
0.617126167

$$$$
