
 OpenBabel03272508093D

 23 24  0  0  1  0  0  0  0  0999 V2000
   38.8910   33.0720   48.2050 O   0  0  0  0  0  0  0  0  0  0  0  0
   38.6170   31.9910   47.2080 P   0  0  2  0  0  0  0  0  0  0  0  0
   37.3710   32.4890   46.1660 O   0  0  0  0  0  0  0  0  0  0  0  0
   36.8160   33.1520   46.6850 H   0  0  0  0  0  0  0  0  0  0  0  0
   38.2720   30.4780   47.8830 O   0  0  0  0  0  0  0  0  0  0  0  0
   37.2760   30.1790   51.4400 C   0  0  0  0  0  0  0  0  0  0  0  0
   38.0630   30.5720   50.3610 C   0  0  0  0  0  0  0  0  0  0  0  0
   37.6770   30.2140   49.0730 C   0  0  0  0  0  0  0  0  0  0  0  0
   36.5230   29.4790   48.9370 N   0  0  0  0  0  0  0  0  0  0  0  0
   35.7900   29.1180   50.0160 C   0  0  0  0  0  0  0  0  0  0  0  0
   36.1570   29.4600   51.2490 N   0  0  0  0  0  0  0  0  0  0  0  0
   37.7150   30.5380   52.3660 H   0  0  0  0  0  0  0  0  0  0  0  0
   38.9770   31.1480   50.3880 H   0  0  0  0  0  0  0  0  0  0  0  0
   34.8800   28.5390   49.9280 H   0  0  0  0  0  0  0  0  0  0  0  0
   40.0110   31.8320   46.2420 O   0  0  0  0  0  0  0  0  0  0  0  0
   39.7870   30.8000   45.3490 C   0  0  1  0  0  3  0  0  0  0  0  0
   38.4650   30.8380   44.6590 C   0  0  0  0  0  3  0  0  0  0  0  0
   37.9220   31.8170   44.7920 H   0  0  0  0  0  0  0  0  0  0  0  0
   38.8420   30.6410   43.1960 C   0  0  0  0  0  3  0  0  0  0  0  0
   38.9570   31.5960   42.6540 H   0  0  0  0  0  0  0  0  0  0  0  0
   40.0960   30.0150   43.2480 O   0  0  0  0  0  0  0  0  0  0  0  0
   40.7740   30.8020   44.2050 C   0  0  0  0  0  3  0  0  0  0  0  0
   41.7240   30.2660   44.4590 H   0  0  0  0  0  0  0  0  0  0  0  0
  2  5  1  0  0  0  0
  2  1  2  1  0  0  0
  3  4  1  0  0  0  0
  3  2  1  0  0  0  0
  5  8  1  0  0  0  0
  6 12  1  0  0  0  0
  7 13  1  0  0  0  0
  7  6  2  0  0  0  0
  8  7  1  0  0  0  0
  9  8  2  0  0  0  0
  9 10  1  0  0  0  0
 10 11  2  0  0  0  0
 11  6  1  0  0  0  0
 14 10  1  0  0  0  0
 15  2  1  0  0  0  0
 16 15  1  1  0  0  0
 17 18  1  0  0  0  0
 17 16  1  0  0  0  0
 19 21  1  0  0  0  0
 19 17  1  0  0  0  0
 20 19  1  0  0  0  0
 21 22  1  0  0  0  0
 22 23  1  0  0  0  0
 22 16  1  0  0  0  0
M  END
>  <minimizedAffinity>
-4.64282751

>  <minimizedRMSD>
0.60152638

$$$$
