
 OpenBabel03272508123D

 33 35  0  0  1  0  0  0  0  0999 V2000
   36.6910   29.4750   43.9820 Cl  0  0  0  0  0  0  0  0  0  0  0  0
   38.3340   29.8790   43.4730 C   0  0  0  0  0  0  0  0  0  0  0  0
   39.3210   30.3450   44.3430 C   0  0  0  0  0  0  0  0  0  0  0  0
   40.5780   30.6260   43.8090 C   0  0  0  0  0  0  0  0  0  0  0  0
   40.8110   30.4400   42.4670 C   0  0  0  0  0  0  0  0  0  0  0  0
   39.8620   29.9850   41.6000 C   0  0  0  0  0  0  0  0  0  0  0  0
   38.6240   29.7060   42.1110 C   0  0  0  0  0  0  0  0  0  0  0  0
   41.2630   30.9790   44.5670 H   0  0  0  0  0  0  0  0  0  0  0  0
   41.8270   30.6870   42.1450 H   0  0  0  0  0  0  0  0  0  0  0  0
   40.1360   29.8700   40.5610 H   0  0  0  0  0  0  0  0  0  0  0  0
   37.5760   29.2090   41.1820 C   0  0  2  0  0  3  0  0  0  0  0  0
   37.6420   27.7010   40.9870 C   0  0  0  0  0  3  0  0  0  0  0  0
   38.3710   27.2040   41.6400 H   0  0  0  0  0  0  0  0  0  0  0  0
   38.0040   27.6000   39.5210 C   0  0  0  0  0  3  0  0  0  0  0  0
   38.7050   26.7470   39.3310 H   0  0  0  0  0  0  0  0  0  0  0  0
   38.5990   28.8170   39.1980 O   0  0  0  0  0  0  0  0  0  0  0  0
   37.7420   29.7320   39.8020 C   0  0  0  0  0  3  0  0  0  0  0  0
   36.7540   29.5810   39.2810 H   0  0  0  0  0  0  0  0  0  0  0  0
   38.8730   30.4550   45.6300 O   0  0  0  0  0  0  0  0  0  0  0  0
   39.4330   32.4980   47.1240 O   0  0  0  0  0  0  0  0  0  0  0  0
   38.3080   31.8280   46.4220 P   0  0  1  0  0  0  0  0  0  0  0  0
   37.7110   32.8530   45.1940 O   0  0  0  0  0  0  0  0  0  0  0  0
   38.4920   33.2120   44.6870 H   0  0  0  0  0  0  0  0  0  0  0  0
   37.0210   31.3830   47.4350 O   0  0  0  0  0  0  0  0  0  0  0  0
   37.6050   30.5300   50.9860 C   0  0  0  0  0  0  0  0  0  0  0  0
   37.7010   31.2940   49.8190 C   0  0  0  0  0  0  0  0  0  0  0  0
   37.0640   30.8200   48.6640 C   0  0  0  0  0  0  0  0  0  0  0  0
   36.3860   29.6390   48.7380 N   0  0  0  0  0  0  0  0  0  0  0  0
   36.3200   28.9350   49.8850 C   0  0  0  0  0  0  0  0  0  0  0  0
   36.9260   29.3800   50.9970 N   0  0  0  0  0  0  0  0  0  0  0  0
   38.1200   30.9490   51.8500 H   0  0  0  0  0  0  0  0  0  0  0  0
   38.2170   32.2340   49.6860 H   0  0  0  0  0  0  0  0  0  0  0  0
   35.7880   27.9960   49.9680 H   0  0  0  0  0  0  0  0  0  0  0  0
  2  1  1  0  0  0  0
  2  3  1  0  0  0  0
  3 19  1  0  0  0  0
  4  3  2  0  0  0  0
  4  8  1  0  0  0  0
  5  4  1  0  0  0  0
  6  7  1  0  0  0  0
  6  5  2  0  0  0  0
  7  2  2  0  0  0  0
  9  5  1  0  0  0  0
 10  6  1  0  0  0  0
 11  7  1  1  0  0  0
 12 11  1  0  0  0  0
 12 13  1  0  0  0  0
 14 12  1  0  0  0  0
 15 14  1  0  0  0  0
 16 14  1  0  0  0  0
 16 17  1  0  0  0  0
 17 11  1  0  0  0  0
 18 17  1  0  0  0  0
 19 21  1  0  0  0  0
 21 20  2  1  0  0  0
 21 24  1  0  0  0  0
 22 21  1  0  0  0  0
 23 22  1  0  0  0  0
 24 27  1  0  0  0  0
 25 30  1  0  0  0  0
 25 31  1  0  0  0  0
 26 25  2  0  0  0  0
 27 28  2  0  0  0  0
 27 26  1  0  0  0  0
 28 29  1  0  0  0  0
 29 33  1  0  0  0  0
 29 30  2  0  0  0  0
 32 26  1  0  0  0  0
M  END
>  <minimizedAffinity>
-4.88313866

>  <minimizedRMSD>
0.149607882

$$$$
