
 OpenBabel03272506443D

 31 33  0  0  1  0  0  0  0  0999 V2000
   32.4130   28.3690   47.4980 C   0  0  2  0  0  0  0  0  0  0  0  0
   33.6440   28.4490   48.3770 C   0  0  1  0  0  0  0  0  0  0  0  0
   34.2150   27.1980   48.4030 O   0  0  0  0  0  0  0  0  0  0  0  0
   33.5820   26.3950   47.4840 C   0  0  0  0  0  0  0  0  0  0  0  0
   32.8970   27.3320   46.4940 C   0  0  1  0  0  0  0  0  0  0  0  0
   31.5390   27.9490   48.0020 H   0  0  0  0  0  0  0  0  0  0  0  0
   33.4060   28.7870   49.3990 H   0  0  0  0  0  0  0  0  0  0  0  0
   34.2350   25.6650   47.0030 H   0  0  0  0  0  0  0  0  0  0  0  0
   32.7310   25.9110   48.0450 H   0  0  0  0  0  0  0  0  0  0  0  0
   33.6100   27.7890   45.7780 H   0  0  0  0  0  0  0  0  0  0  0  0
   32.1620   29.6030   46.8820 O   0  0  0  0  0  0  0  0  0  0  0  0
   32.7460   29.6830   46.0850 H   0  0  0  0  0  0  0  0  0  0  0  0
   34.8110   29.5670   47.5380 S   0  0  0  0  0  0  0  0  0  0  0  0
   37.4030   29.5030   50.5370 C   0  0  0  0  0  0  0  0  0  0  0  0
   38.0160   30.7480   50.5200 C   0  0  0  0  0  0  0  0  0  0  0  0
   37.6170   31.6560   49.5390 C   0  0  0  0  0  0  0  0  0  0  0  0
   36.6600   31.2800   48.6630 N   0  0  0  0  0  0  0  0  0  0  0  0
   36.0750   30.0520   48.7030 C   0  0  0  0  0  0  0  0  0  0  0  0
   36.4430   29.1480   49.6450 N   0  0  0  0  0  0  0  0  0  0  0  0
   37.7230   28.8100   51.3050 H   0  0  0  0  0  0  0  0  0  0  0  0
   38.7700   31.0800   51.1900 H   0  0  0  0  0  0  0  0  0  0  0  0
   38.0760   32.6360   49.4990 H   0  0  0  0  0  0  0  0  0  0  0  0
   31.8410   26.6840   45.8700 O   0  0  0  0  0  0  0  0  0  0  0  0
   32.0130   26.5300   44.5180 C   0  0  1  0  0  3  0  0  0  0  0  0
   33.0340   27.5360   44.0210 C   0  0  0  0  0  3  0  0  0  0  0  0
   32.5560   28.4650   43.6600 H   0  0  0  0  0  0  0  0  0  0  0  0
   33.6260   26.7500   42.8470 C   0  0  0  0  0  3  0  0  0  0  0  0
   34.5980   27.1530   42.5560 H   0  0  0  0  0  0  0  0  0  0  0  0
   33.8330   25.5150   43.4670 O   0  0  0  0  0  0  0  0  0  0  0  0
   32.6230   25.2300   44.0910 C   0  0  0  0  0  3  0  0  0  0  0  0
   32.8400   24.5600   44.9490 H   0  0  0  0  0  0  0  0  0  0  0  0
  1  6  1  1  0  0  0
  1  2  1  0  0  0  0
  2  3  1  0  0  0  0
  2  7  1  1  0  0  0
  4  9  1  0  0  0  0
  4  3  1  0  0  0  0
  5 10  1  6  0  0  0
  5  4  1  0  0  0  0
  5  1  1  0  0  0  0
  8  4  1  0  0  0  0
 11  1  1  0  0  0  0
 12 11  1  0  0  0  0
 13  2  1  0  0  0  0
 13 18  1  0  0  0  0
 14 20  1  0  0  0  0
 15 14  1  0  0  0  0
 15 21  1  0  0  0  0
 16 15  2  0  0  0  0
 17 18  2  0  0  0  0
 17 16  1  0  0  0  0
 18 19  1  0  0  0  0
 19 14  2  0  0  0  0
 22 16  1  0  0  0  0
 23  5  1  0  0  0  0
 24 23  1  1  0  0  0
 25 24  1  0  0  0  0
 26 25  1  0  0  0  0
 27 29  1  0  0  0  0
 27 25  1  0  0  0  0
 28 27  1  0  0  0  0
 29 30  1  0  0  0  0
 30 24  1  0  0  0  0
 30 31  1  0  0  0  0
M  END
>  <minimizedAffinity>
-3.72805309

>  <minimizedRMSD>
0.413460433

$$$$
