REMARK  Name = 
REMARK  5 active torsions:
REMARK  status: ('A' for Active; 'I' for Inactive)
REMARK    1  A    between atoms: C_3  and  O_7
REMARK    2  A    between atoms: O_7  and  P_9
REMARK    3  A    between atoms: P_9  and  O_10
REMARK    4  A    between atoms: P_9  and  O_11
REMARK    5  A    between atoms: O_11  and  C_16
REMARK                            x       y       z     vdW  Elec       q    Type
REMARK                         _______ _______ _______ _____ _____    ______ ____
ROOT
ATOM      1  O   UNL     1      39.059  32.730  48.143  0.00  0.00    +0.000 OA
ATOM      2  P   UNL     1      38.699  31.717  47.103  0.00  0.00    +0.000 P 
ENDROOT
BRANCH   2   3
ATOM      3  O   UNL     1      37.824  32.473  45.859  0.00  0.00    +0.000 OA
ATOM      4  H   UNL     1      37.373  33.273  46.276  0.00  0.00    +0.000 HD
ENDBRANCH   2   3
BRANCH   2   5
ATOM      5  O   UNL     1      37.869  30.365  47.691  0.00  0.00    +0.000 OA
BRANCH   5   8
ATOM      6  C   UNL     1      37.340  30.166  51.354  0.00  0.00    +0.000 A 
ATOM      7  C   UNL     1      37.992  30.509  50.172  0.00  0.00    +0.000 A 
ATOM      8  C   UNL     1      37.426  30.145  48.954  0.00  0.00    +0.000 A 
ATOM      9  N   UNL     1      36.237  29.456  48.987  0.00  0.00    +0.000 NA
ATOM     10  C   UNL     1      35.640  29.143  50.161  0.00  0.00    +0.000 A 
ATOM     11  N   UNL     1      36.179  29.491  51.327  0.00  0.00    +0.000 NA
ATOM     12  H   UNL     1      37.911  30.522  52.206  0.00  0.00    +0.000 HD
ATOM     13  H   UNL     1      38.923  31.047  50.067  0.00  0.00    +0.000 HD
ATOM     14  H   UNL     1      34.704  28.601  50.206  0.00  0.00    +0.000 HD
ENDBRANCH   5   8
ENDBRANCH   2   5
BRANCH   2  15
ATOM     15  O   UNL     1      40.155  31.177  46.401  0.00  0.00    +0.000 OA
BRANCH  15  16
ATOM     16  C   UNL     1      39.872  30.768  45.111  0.00  0.00    +0.000 C 
ATOM     17  C   UNL     1      39.744  29.293  44.928  0.00  0.00    +0.000 C 
ATOM     18  H   UNL     1      39.677  28.728  45.902  0.00  0.00    +0.000 HD
ATOM     19  C   UNL     1      38.439  29.160  44.153  0.00  0.00    +0.000 C 
ATOM     20  H   UNL     1      37.570  28.978  44.810  0.00  0.00    +0.000 HD
ATOM     21  O   UNL     1      38.275  30.414  43.547  0.00  0.00    +0.000 OA
ATOM     22  C   UNL     1      38.542  31.293  44.618  0.00  0.00    +0.000 C 
ATOM     23  H   UNL     1      38.623  32.324  44.187  0.00  0.00    +0.000 HD
ENDBRANCH  15  16
ENDBRANCH   2  15
TORSDOF 5
