REMARK  Name = 
REMARK  4 active torsions:
REMARK  status: ('A' for Active; 'I' for Inactive)
REMARK    1  A    between atoms: C_1  and  C_17
REMARK    2  A    between atoms: C_6  and  N_7
REMARK    3  A    between atoms: C_13  and  C_19
REMARK    4  A    between atoms: C_15  and  C_37
REMARK                            x       y       z     vdW  Elec       q    Type
REMARK                         _______ _______ _______ _____ _____    ______ ____
ROOT
ATOM      1  C   UNL     1      36.084  30.468  46.644  0.00  0.00    +0.000 A 
ATOM      2  C   UNL     1      34.749  30.073  46.715  0.00  0.00    +0.000 A 
ATOM      3  C   UNL     1      34.059  29.804  45.547  0.00  0.00    +0.000 A 
ATOM      4  C   UNL     1      34.619  29.902  44.289  0.00  0.00    +0.000 A 
ATOM      5  C   UNL     1      35.950  30.296  44.216  0.00  0.00    +0.000 A 
ATOM      6  C   UNL     1      36.622  30.561  45.400  0.00  0.00    +0.000 A 
ATOM      7  H   UNL     1      34.228  29.969  47.661  0.00  0.00    +0.000 HD
ATOM      8  H   UNL     1      33.022  29.498  45.631  0.00  0.00    +0.000 HD
ATOM      9  H   UNL     1      34.029  29.678  43.406  0.00  0.00    +0.000 HD
ATOM     10  H   UNL     1      36.337  30.358  43.223  0.00  0.00    +0.000 HD
ENDROOT
BRANCH   6  11
ATOM     11  N   UNL     1      37.966  30.948  45.128  0.00  0.00    +0.000 N 
ATOM     12  C   UNL     1      39.261  30.340  45.075  0.00  0.00    +0.000 C 
ATOM     13  C   UNL     1      40.167  31.119  46.000  0.00  0.00    +0.000 C 
ATOM     14  N   UNL     1      40.400  32.412  45.401  0.00  0.00    +0.000 NA
ATOM     15  C   UNL     1      39.383  32.825  44.497  0.00  0.00    +0.000 C 
ATOM     16  C   UNL     1      38.008  32.340  44.813  0.00  0.00    +0.000 C 
ATOM     17  H   UNL     1      39.212  29.270  45.329  0.00  0.00    +0.000 HD
ATOM     18  H   UNL     1      39.683  30.480  44.056  0.00  0.00    +0.000 HD
ATOM     19  H   UNL     1      40.118  31.001  47.034  0.00  0.00    +0.000 HD
ATOM     20  H   UNL     1      41.156  30.582  45.768  0.00  0.00    +0.000 HD
ATOM     21  H   UNL     1      41.321  32.578  44.996  0.00  0.00    +0.000 HD
ATOM     22  H   UNL     1      39.331  33.952  44.589  0.00  0.00    +0.000 HD
ATOM     23  H   UNL     1      39.694  32.665  43.444  0.00  0.00    +0.000 HD
ATOM     24  H   UNL     1      37.407  33.018  45.409  0.00  0.00    +0.000 HD
ATOM     25  H   UNL     1      37.491  32.381  43.800  0.00  0.00    +0.000 HD
ENDBRANCH   6  11
BRANCH   1  30
ATOM     26  C   UNL     1      37.384  30.239  50.042  0.00  0.00    +0.000 A 
ATOM     27  C   UNL     1      38.233  31.355  50.119  0.00  0.00    +0.000 A 
ATOM     28  C   UNL     1      38.351  32.175  48.996  0.00  0.00    +0.000 A 
ATOM     29  N   UNL     1      37.618  31.810  47.911  0.00  0.00    +0.000 NA
ATOM     30  C   UNL     1      36.821  30.757  47.847  0.00  0.00    +0.000 A 
ATOM     31  N   UNL     1      36.701  29.960  48.926  0.00  0.00    +0.000 NA
ATOM     32  H   UNL     1      38.800  31.614  50.998  0.00  0.00    +0.000 HD
BRANCH  28  33
ATOM     33  C   UNL     1      39.232  33.345  49.057  0.00  0.00    +0.000 C 
ATOM     34  C   UNL     1      40.576  33.118  48.407  0.00  0.00    +0.000 C 
ATOM     35  H   UNL     1      40.590  33.304  47.318  0.00  0.00    +0.000 HD
ATOM     36  C   UNL     1      41.386  34.210  49.088  0.00  0.00    +0.000 C 
ATOM     37  H   UNL     1      42.387  33.843  49.394  0.00  0.00    +0.000 HD
ATOM     38  O   UNL     1      40.680  34.644  50.178  0.00  0.00    +0.000 OA
ATOM     39  C   UNL     1      39.704  33.688  50.465  0.00  0.00    +0.000 C 
ATOM     40  H   UNL     1      40.268  32.838  50.920  0.00  0.00    +0.000 HD
ENDBRANCH  28  33
BRANCH  26  41
ATOM     41  C   UNL     1      37.276  29.384  51.279  0.00  0.00    +0.000 C 
ATOM     42  F   UNL     1      35.910  29.145  51.516  0.00  0.00    +0.000 F 
ATOM     43  F   UNL     1      37.965  28.255  51.079  0.00  0.00    +0.000 F 
ATOM     44  F   UNL     1      37.717  30.117  52.352  0.00  0.00    +0.000 F 
ENDBRANCH  26  41
ENDBRANCH   1  30
TORSDOF 4
