
 OpenBabel03272507503D

 27 29  0  0  1  0  0  0  0  0999 V2000
   36.0090   29.9590   48.7560 C   0  0  0  0  0  0  0  0  0  0  0  0
   36.4220   30.7000   47.6370 C   0  0  0  0  0  0  0  0  0  0  0  0
   35.7800   30.4100   46.4230 C   0  0  0  0  0  0  0  0  0  0  0  0
   34.8180   29.4560   46.3900 N   0  0  0  0  0  0  0  0  0  0  0  0
   34.4490   28.7680   47.4790 C   0  0  0  0  0  0  0  0  0  0  0  0
   35.0500   29.0230   48.6690 N   0  0  0  0  0  0  0  0  0  0  0  0
   36.1040   30.9840   45.5650 H   0  0  0  0  0  0  0  0  0  0  0  0
   33.6700   28.0370   47.3120 H   0  0  0  0  0  0  0  0  0  0  0  0
   37.4400   31.6740   47.7940 N   0  0  0  0  0  0  0  0  0  0  0  0
   37.4100   32.5760   48.7810 C   0  0  0  0  0  0  0  0  0  0  0  0
   38.4340   33.5170   48.9070 C   0  0  0  0  0  0  0  0  0  0  0  0
   39.4080   33.4010   47.9490 C   0  0  0  0  0  0  0  0  0  0  0  0
   40.3600   34.2500   48.0390 O   0  0  0  0  0  0  0  0  0  0  0  0
   39.4710   32.5160   46.9500 N   0  0  0  0  0  0  0  0  0  0  0  0
   38.4440   31.6290   46.8840 C   0  0  0  0  0  0  0  0  0  0  0  0
   38.4890   30.7820   45.9400 O   0  0  0  0  0  0  0  0  0  0  0  0
   36.5980   32.6120   49.5080 H   0  0  0  0  0  0  0  0  0  0  0  0
   38.4690   34.2720   49.6820 H   0  0  0  0  0  0  0  0  0  0  0  0
   40.2680   32.5260   46.2780 H   0  0  0  0  0  0  0  0  0  0  0  0
   36.5730   30.1230   50.0940 C   0  0  2  0  0  3  0  0  0  0  0  0
   37.8940   29.3780   50.2620 C   0  0  0  0  0  3  0  0  0  0  0  0
   38.7460   30.0750   50.1610 H   0  0  0  0  0  0  0  0  0  0  0  0
   37.8100   28.9220   51.6960 C   0  0  0  0  0  3  0  0  0  0  0  0
   37.6710   27.8200   51.7990 H   0  0  0  0  0  0  0  0  0  0  0  0
   36.6630   29.5170   52.2430 O   0  0  0  0  0  0  0  0  0  0  0  0
   35.7420   29.4720   51.1740 C   0  0  0  0  0  3  0  0  0  0  0  0
   34.8510   30.0600   51.4500 H   0  0  0  0  0  0  0  0  0  0  0  0
  2  9  1  0  0  0  0
  2  1  2  0  0  0  0
  3  2  1  0  0  0  0
  4  3  2  0  0  0  0
  4  5  1  0  0  0  0
  5  6  2  0  0  0  0
  6  1  1  0  0  0  0
  7  3  1  0  0  0  0
  8  5  1  0  0  0  0
  9 10  1  0  0  0  0
 10 11  2  0  0  0  0
 10 17  1  0  0  0  0
 11 18  1  0  0  0  0
 12 13  2  0  0  0  0
 12 11  1  0  0  0  0
 14 12  1  0  0  0  0
 15 14  1  0  0  0  0
 15  9  1  0  0  0  0
 16 15  2  0  0  0  0
 19 14  1  0  0  0  0
 20  1  1  6  0  0  0
 20 21  1  0  0  0  0
 20 26  1  0  0  0  0
 21 23  1  0  0  0  0
 22 21  1  0  0  0  0
 23 24  1  0  0  0  0
 23 25  1  0  0  0  0
 26 27  1  0  0  0  0
 26 25  1  0  0  0  0
M  END
>  <minimizedAffinity>
-4.28949356

>  <minimizedRMSD>
1.45125043

$$$$
