
 OpenBabel03272503473D

 23 24  0  0  1  0  0  0  0  0999 V2000
   40.7900   26.7970   34.9090 O   0  0  0  0  0  0  0  0  0  0  0  0
   39.2770   26.7520   34.8400 P   0  0  2  0  0  0  0  0  0  0  0  0
   38.7000   27.7490   36.0790 O   0  0  0  0  0  0  0  0  0  0  0  0
   37.9160   28.2880   35.8280 H   0  0  0  0  0  0  0  0  0  0  0  0
   38.6650   25.1730   35.0250 O   0  0  0  0  0  0  0  0  0  0  0  0
   38.8210   24.4480   36.1930 C   0  0  0  0  0  0  0  0  0  0  0  0
   39.7350   23.4080   36.4030 C   0  0  0  0  0  0  0  0  0  0  0  0
   39.7450   22.7920   37.6550 C   0  0  0  0  0  0  0  0  0  0  0  0
   38.8730   23.2220   38.6170 N   0  0  0  0  0  0  0  0  0  0  0  0
   38.0040   24.2300   38.3770 C   0  0  0  0  0  0  0  0  0  0  0  0
   37.9710   24.8470   37.1720 N   0  0  0  0  0  0  0  0  0  0  0  0
   40.3600   23.1640   35.5840 H   0  0  0  0  0  0  0  0  0  0  0  0
   40.4540   21.9890   37.8120 H   0  0  0  0  0  0  0  0  0  0  0  0
   37.3350   24.5320   39.1710 H   0  0  0  0  0  0  0  0  0  0  0  0
   38.7250   27.3070   33.3220 O   0  0  0  0  0  0  0  0  0  0  0  0
   37.3830   27.0070   33.2220 C   0  0  1  0  0  3  0  0  0  0  0  0
   36.5360   28.2420   33.1790 C   0  0  0  0  0  3  0  0  0  0  0  0
   37.1610   29.1520   32.9750 H   0  0  0  0  0  0  0  0  0  0  0  0
   35.5560   28.0060   32.0680 C   0  0  0  0  0  3  0  0  0  0  0  0
   34.5180   28.1020   32.4430 H   0  0  0  0  0  0  0  0  0  0  0  0
   35.7280   26.7110   31.6170 O   0  0  0  0  0  0  0  0  0  0  0  0
   37.0290   26.3360   31.9150 C   0  0  0  0  0  3  0  0  0  0  0  0
   37.0340   25.2420   32.0930 H   0  0  0  0  0  0  0  0  0  0  0  0
  2  1  2  1  0  0  0
  2  5  1  0  0  0  0
  2  3  1  0  0  0  0
  4  3  1  0  0  0  0
  5  6  1  0  0  0  0
  6  7  2  0  0  0  0
  6 11  1  0  0  0  0
  7  8  1  0  0  0  0
  8 13  1  0  0  0  0
  8  9  2  0  0  0  0
 10  9  1  0  0  0  0
 10 14  1  0  0  0  0
 11 10  2  0  0  0  0
 12  7  1  0  0  0  0
 15  2  1  0  0  0  0
 16 15  1  6  0  0  0
 17 16  1  0  0  0  0
 18 17  1  0  0  0  0
 19 20  1  0  0  0  0
 19 17  1  0  0  0  0
 21 22  1  0  0  0  0
 21 19  1  0  0  0  0
 22 23  1  0  0  0  0
 22 16  1  0  0  0  0
M  END
>  <minimizedAffinity>
-4.56683016

$$$$

 OpenBabel03272503473D

 23 24  0  0  1  0  0  0  0  0999 V2000
   35.6260   26.5560   31.4880 O   0  0  0  0  0  0  0  0  0  0  0  0
   36.3790   25.2470   31.6030 P   0  0  2  0  0  0  0  0  0  0  0  0
   37.5530   25.2470   30.3850 O   0  0  0  0  0  0  0  0  0  0  0  0
   38.4180   24.8690   30.6610 H   0  0  0  0  0  0  0  0  0  0  0  0
   35.3570   23.8930   31.4310 O   0  0  0  0  0  0  0  0  0  0  0  0
   35.8060   22.5960   31.6090 C   0  0  0  0  0  0  0  0  0  0  0  0
   35.1350   21.5790   32.2990 C   0  0  0  0  0  0  0  0  0  0  0  0
   35.7490   20.3280   32.3740 C   0  0  0  0  0  0  0  0  0  0  0  0
   36.9670   20.1460   31.7790 N   0  0  0  0  0  0  0  0  0  0  0  0
   37.5840   21.1540   31.1210 C   0  0  0  0  0  0  0  0  0  0  0  0
   37.0130   22.3780   31.0320 N   0  0  0  0  0  0  0  0  0  0  0  0
   34.1970   21.8390   32.7180 H   0  0  0  0  0  0  0  0  0  0  0  0
   35.2250   19.5450   32.9070 H   0  0  0  0  0  0  0  0  0  0  0  0
   38.5470   20.9580   30.6680 H   0  0  0  0  0  0  0  0  0  0  0  0
   37.1120   25.1040   33.1380 O   0  0  0  0  0  0  0  0  0  0  0  0
   37.6130   26.3410   33.4860 C   0  0  1  0  0  3  0  0  0  0  0  0
   37.1640   26.7600   34.8530 C   0  0  0  0  0  3  0  0  0  0  0  0
   36.7330   25.8910   35.4200 H   0  0  0  0  0  0  0  0  0  0  0  0
   38.3990   27.2810   35.5290 C   0  0  0  0  0  3  0  0  0  0  0  0
   38.2380   28.3210   35.8750 H   0  0  0  0  0  0  0  0  0  0  0  0
   39.4190   27.2940   34.5960 O   0  0  0  0  0  0  0  0  0  0  0  0
   39.1170   26.3430   33.6350 C   0  0  0  0  0  3  0  0  0  0  0  0
   39.5420   26.6880   32.6700 H   0  0  0  0  0  0  0  0  0  0  0  0
  2  1  2  6  0  0  0
  2 15  1  0  0  0  0
  3  4  1  0  0  0  0
  3  2  1  0  0  0  0
  5  2  1  0  0  0  0
  5  6  1  0  0  0  0
  6  7  1  0  0  0  0
  7  8  2  0  0  0  0
  7 12  1  0  0  0  0
  8 13  1  0  0  0  0
  9  8  1  0  0  0  0
 10  9  2  0  0  0  0
 11 10  1  0  0  0  0
 11  6  2  0  0  0  0
 14 10  1  0  0  0  0
 16 15  1  1  0  0  0
 16 22  1  0  0  0  0
 16 17  1  0  0  0  0
 17 18  1  0  0  0  0
 17 19  1  0  0  0  0
 19 20  1  0  0  0  0
 21 19  1  0  0  0  0
 22 21  1  0  0  0  0
 23 22  1  0  0  0  0
M  END
>  <minimizedAffinity>
-3.90416837

$$$$

 OpenBabel03272503473D

 23 24  0  0  1  0  0  0  0  0999 V2000
   39.5880   23.4470   32.5670 O   0  0  0  0  0  0  0  0  0  0  0  0
   38.2490   23.1400   33.2040 P   0  0  2  0  0  0  0  0  0  0  0  0
   37.6350   24.6050   33.7850 O   0  0  0  0  0  0  0  0  0  0  0  0
   36.6660   24.7150   33.6520 H   0  0  0  0  0  0  0  0  0  0  0  0
   38.3770   22.0130   34.4750 O   0  0  0  0  0  0  0  0  0  0  0  0
   38.7040   22.3850   35.7670 C   0  0  0  0  0  0  0  0  0  0  0  0
   39.9470   22.2090   36.3870 C   0  0  0  0  0  0  0  0  0  0  0  0
   40.0880   22.6500   37.7040 C   0  0  0  0  0  0  0  0  0  0  0  0
   39.0200   23.2300   38.3300 N   0  0  0  0  0  0  0  0  0  0  0  0
   37.8340   23.3830   37.6980 C   0  0  0  0  0  0  0  0  0  0  0  0
   37.6670   22.9650   36.4210 N   0  0  0  0  0  0  0  0  0  0  0  0
   40.7000   21.7470   35.8010 H   0  0  0  0  0  0  0  0  0  0  0  0
   41.0520   22.5120   38.1770 H   0  0  0  0  0  0  0  0  0  0  0  0
   37.0200   23.8480   38.2380 H   0  0  0  0  0  0  0  0  0  0  0  0
   37.1790   22.4560   32.0620 O   0  0  0  0  0  0  0  0  0  0  0  0
   36.6560   21.3020   32.6070 C   0  0  1  0  0  3  0  0  0  0  0  0
   35.1570   21.2960   32.5660 C   0  0  0  0  0  3  0  0  0  0  0  0
   34.7700   22.0930   31.8770 H   0  0  0  0  0  0  0  0  0  0  0  0
   34.7860   19.9300   32.0670 C   0  0  0  0  0  3  0  0  0  0  0  0
   34.1130   19.4260   32.7880 H   0  0  0  0  0  0  0  0  0  0  0  0
   35.9440   19.1830   31.9700 O   0  0  0  0  0  0  0  0  0  0  0  0
   36.9980   20.0680   31.8050 C   0  0  0  0  0  3  0  0  0  0  0  0
   37.8980   19.6140   32.2670 H   0  0  0  0  0  0  0  0  0  0  0  0
  2  1  2  6  0  0  0
  2  3  1  0  0  0  0
  2  5  1  0  0  0  0
  4  3  1  0  0  0  0
  5  6  1  0  0  0  0
  6  7  2  0  0  0  0
  6 11  1  0  0  0  0
  7  8  1  0  0  0  0
  8 13  1  0  0  0  0
  8  9  2  0  0  0  0
 10 14  1  0  0  0  0
 10  9  1  0  0  0  0
 11 10  2  0  0  0  0
 12  7  1  0  0  0  0
 15  2  1  0  0  0  0
 16 15  1  6  0  0  0
 17 16  1  0  0  0  0
 18 17  1  0  0  0  0
 19 17  1  0  0  0  0
 19 20  1  0  0  0  0
 21 19  1  0  0  0  0
 22 21  1  0  0  0  0
 22 23  1  0  0  0  0
 22 16  1  0  0  0  0
M  END
>  <minimizedAffinity>
-3.86176586

$$$$

 OpenBabel03272503473D

 23 24  0  0  1  0  0  0  0  0999 V2000
   34.0120   29.1570   32.4320 O   0  0  0  0  0  0  0  0  0  0  0  0
   35.4440   29.2710   32.9110 P   0  0  2  0  0  0  0  0  0  0  0  0
   36.4290   29.1670   31.5400 O   0  0  0  0  0  0  0  0  0  0  0  0
   37.1990   29.7790   31.5510 H   0  0  0  0  0  0  0  0  0  0  0  0
   35.8570   28.0480   34.0220 O   0  0  0  0  0  0  0  0  0  0  0  0
   37.1650   27.6460   34.2340 C   0  0  0  0  0  0  0  0  0  0  0  0
   37.8380   27.6390   35.4620 C   0  0  0  0  0  0  0  0  0  0  0  0
   39.1610   27.1970   35.4780 C   0  0  0  0  0  0  0  0  0  0  0  0
   39.7430   26.7930   34.3080 N   0  0  0  0  0  0  0  0  0  0  0  0
   39.0600   26.8140   33.1410 C   0  0  0  0  0  0  0  0  0  0  0  0
   37.7750   27.2380   33.0940 N   0  0  0  0  0  0  0  0  0  0  0  0
   37.2830   27.9740   36.3000 H   0  0  0  0  0  0  0  0  0  0  0  0
   39.6760   27.1940   36.4300 H   0  0  0  0  0  0  0  0  0  0  0  0
   39.5670   26.4840   32.2430 H   0  0  0  0  0  0  0  0  0  0  0  0
   35.6960   30.7560   33.7140 O   0  0  0  0  0  0  0  0  0  0  0  0
   35.2990   30.6030   35.0260 C   0  0  1  0  0  3  0  0  0  0  0  0
   36.0370   31.5290   35.9450 C   0  0  0  0  0  3  0  0  0  0  0  0
   36.5660   32.3320   35.3660 H   0  0  0  0  0  0  0  0  0  0  0  0
   34.9830   32.1170   36.8370 C   0  0  0  0  0  3  0  0  0  0  0  0
   35.2280   31.9270   37.9000 H   0  0  0  0  0  0  0  0  0  0  0  0
   33.7870   31.4850   36.5550 O   0  0  0  0  0  0  0  0  0  0  0  0
   33.8620   31.0110   35.2550 C   0  0  0  0  0  3  0  0  0  0  0  0
   33.2440   30.0920   35.1920 H   0  0  0  0  0  0  0  0  0  0  0  0
  2  1  2  6  0  0  0
  2 15  1  0  0  0  0
  2  5  1  0  0  0  0
  3  4  1  0  0  0  0
  3  2  1  0  0  0  0
  5  6  1  0  0  0  0
  6  7  1  0  0  0  0
  7  8  2  0  0  0  0
  7 12  1  0  0  0  0
  8 13  1  0  0  0  0
  9  8  1  0  0  0  0
 10  9  2  0  0  0  0
 11 10  1  0  0  0  0
 11  6  2  0  0  0  0
 14 10  1  0  0  0  0
 16 15  1  6  0  0  0
 16 22  1  0  0  0  0
 16 17  1  0  0  0  0
 17 19  1  0  0  0  0
 18 17  1  0  0  0  0
 19 20  1  0  0  0  0
 21 19  1  0  0  0  0
 22 21  1  0  0  0  0
 23 22  1  0  0  0  0
M  END
>  <minimizedAffinity>
-3.81199551

$$$$

 OpenBabel03272503473D

 23 24  0  0  1  0  0  0  0  0999 V2000
   39.5970   27.3040   33.9630 O   0  0  0  0  0  0  0  0  0  0  0  0
   38.6990   26.6930   35.0180 P   0  0  2  0  0  0  0  0  0  0  0  0
   38.6510   27.7820   36.3110 O   0  0  0  0  0  0  0  0  0  0  0  0
   37.7640   27.8740   36.7260 H   0  0  0  0  0  0  0  0  0  0  0  0
   39.2630   25.1760   35.5510 O   0  0  0  0  0  0  0  0  0  0  0  0
   38.9790   23.9990   34.8800 C   0  0  0  0  0  0  0  0  0  0  0  0
   39.5360   23.5890   33.6620 C   0  0  0  0  0  0  0  0  0  0  0  0
   39.1230   22.3640   33.1370 C   0  0  0  0  0  0  0  0  0  0  0  0
   38.2030   21.6200   33.8220 N   0  0  0  0  0  0  0  0  0  0  0  0
   37.6870   22.0500   34.9970 C   0  0  0  0  0  0  0  0  0  0  0  0
   38.0680   23.2340   35.5310 N   0  0  0  0  0  0  0  0  0  0  0  0
   40.2400   24.2490   33.2250 H   0  0  0  0  0  0  0  0  0  0  0  0
   39.5580   22.0520   32.1960 H   0  0  0  0  0  0  0  0  0  0  0  0
   36.9620   21.4250   35.4990 H   0  0  0  0  0  0  0  0  0  0  0  0
   37.1300   26.4320   34.3990 O   0  0  0  0  0  0  0  0  0  0  0  0
   37.1670   26.6550   33.0390 C   0  0  1  0  0  3  0  0  0  0  0  0
   36.5990   25.5020   32.2690 C   0  0  0  0  0  3  0  0  0  0  0  0
   36.0260   24.8110   32.9430 H   0  0  0  0  0  0  0  0  0  0  0  0
   35.6940   26.1220   31.2440 C   0  0  0  0  0  3  0  0  0  0  0  0
   35.9920   25.8050   30.2260 H   0  0  0  0  0  0  0  0  0  0  0  0
   35.8410   27.4940   31.3240 O   0  0  0  0  0  0  0  0  0  0  0  0
   36.2720   27.7940   32.6070 C   0  0  0  0  0  3  0  0  0  0  0  0
   36.9010   28.7050   32.5500 H   0  0  0  0  0  0  0  0  0  0  0  0
  2  1  2  6  0  0  0
  2  5  1  0  0  0  0
  2  3  1  0  0  0  0
  3  4  1  0  0  0  0
  6 11  1  0  0  0  0
  6  5  1  0  0  0  0
  7  6  2  0  0  0  0
  8  7  1  0  0  0  0
  8  9  2  0  0  0  0
  9 10  1  0  0  0  0
 10 14  1  0  0  0  0
 10 11  2  0  0  0  0
 12  7  1  0  0  0  0
 13  8  1  0  0  0  0
 15  2  1  0  0  0  0
 16 15  1  1  0  0  0
 17 18  1  0  0  0  0
 17 16  1  0  0  0  0
 19 21  1  0  0  0  0
 19 17  1  0  0  0  0
 20 19  1  0  0  0  0
 21 22  1  0  0  0  0
 22 16  1  0  0  0  0
 23 22  1  0  0  0  0
M  END
>  <minimizedAffinity>
-3.78410625

$$$$

 OpenBabel03272503473D

 23 24  0  0  1  0  0  0  0  0999 V2000
   39.4780   22.8640   33.0160 O   0  0  0  0  0  0  0  0  0  0  0  0
   38.3640   23.6230   33.7080 P   0  0  2  0  0  0  0  0  0  0  0  0
   37.0410   23.6200   32.6530 O   0  0  0  0  0  0  0  0  0  0  0  0
   36.1730   23.4930   33.0990 H   0  0  0  0  0  0  0  0  0  0  0  0
   38.8060   25.2240   34.0870 O   0  0  0  0  0  0  0  0  0  0  0  0
   37.9480   26.2950   33.9090 C   0  0  0  0  0  0  0  0  0  0  0  0
   37.4030   27.0940   34.9210 C   0  0  0  0  0  0  0  0  0  0  0  0
   36.5520   28.1340   34.5450 C   0  0  0  0  0  0  0  0  0  0  0  0
   36.2860   28.3300   33.2180 N   0  0  0  0  0  0  0  0  0  0  0  0
   36.8320   27.5370   32.2680 C   0  0  0  0  0  0  0  0  0  0  0  0
   37.6610   26.5200   32.6030 N   0  0  0  0  0  0  0  0  0  0  0  0
   37.6830   26.8450   35.9130 H   0  0  0  0  0  0  0  0  0  0  0  0
   36.1350   28.7480   35.3320 H   0  0  0  0  0  0  0  0  0  0  0  0
   36.5890   27.7340   31.2320 H   0  0  0  0  0  0  0  0  0  0  0  0
   37.9500   22.8750   35.1860 O   0  0  0  0  0  0  0  0  0  0  0  0
   38.6560   23.5010   36.1910 C   0  0  1  0  0  3  0  0  0  0  0  0
   37.7730   23.8770   37.3430 C   0  0  0  0  0  3  0  0  0  0  0  0
   36.7820   23.3530   37.2780 H   0  0  0  0  0  0  0  0  0  0  0  0
   38.5260   23.4510   38.5690 C   0  0  0  0  0  3  0  0  0  0  0  0
   38.6710   24.3120   39.2510 H   0  0  0  0  0  0  0  0  0  0  0  0
   39.7730   23.0090   38.1690 O   0  0  0  0  0  0  0  0  0  0  0  0
   39.6650   22.5910   36.8530 C   0  0  0  0  0  3  0  0  0  0  0  0
   40.6420   22.7680   36.3590 H   0  0  0  0  0  0  0  0  0  0  0  0
  2  1  2  6  0  0  0
  2  5  1  0  0  0  0
  2 15  1  0  0  0  0
  3  4  1  0  0  0  0
  3  2  1  0  0  0  0
  6  5  1  0  0  0  0
  6  7  1  0  0  0  0
  7 12  1  0  0  0  0
  8  7  2  0  0  0  0
  8 13  1  0  0  0  0
  9  8  1  0  0  0  0
 10 11  1  0  0  0  0
 10  9  2  0  0  0  0
 11  6  2  0  0  0  0
 14 10  1  0  0  0  0
 16 15  1  6  0  0  0
 16 22  1  0  0  0  0
 16 17  1  0  0  0  0
 17 19  1  0  0  0  0
 18 17  1  0  0  0  0
 19 20  1  0  0  0  0
 21 19  1  0  0  0  0
 22 21  1  0  0  0  0
 23 22  1  0  0  0  0
M  END
>  <minimizedAffinity>
-3.78058362

$$$$

 OpenBabel03272503473D

 23 24  0  0  1  0  0  0  0  0999 V2000
   37.8570   27.6310   35.7770 O   0  0  0  0  0  0  0  0  0  0  0  0
   38.0530   26.4200   34.8900 P   0  0  2  0  0  0  0  0  0  0  0  0
   39.6980   26.3590   34.5000 O   0  0  0  0  0  0  0  0  0  0  0  0
   40.0760   25.4510   34.4950 H   0  0  0  0  0  0  0  0  0  0  0  0
   37.1170   26.4980   33.4680 O   0  0  0  0  0  0  0  0  0  0  0  0
   37.3050   25.6310   32.4060 C   0  0  0  0  0  0  0  0  0  0  0  0
   36.3840   24.6860   31.9380 C   0  0  0  0  0  0  0  0  0  0  0  0
   36.7540   23.8970   30.8490 C   0  0  0  0  0  0  0  0  0  0  0  0
   37.9880   24.0750   30.2870 N   0  0  0  0  0  0  0  0  0  0  0  0
   38.8520   24.9990   30.7660 C   0  0  0  0  0  0  0  0  0  0  0  0
   38.5200   25.7790   31.8220 N   0  0  0  0  0  0  0  0  0  0  0  0
   35.4590   24.6400   32.4550 H   0  0  0  0  0  0  0  0  0  0  0  0
   36.0380   23.1690   30.4920 H   0  0  0  0  0  0  0  0  0  0  0  0
   39.8160   25.1000   30.2850 H   0  0  0  0  0  0  0  0  0  0  0  0
   37.5800   24.9940   35.7000 O   0  0  0  0  0  0  0  0  0  0  0  0
   38.5530   24.6890   36.6280 C   0  0  1  0  0  3  0  0  0  0  0  0
   37.9860   24.5570   38.0090 C   0  0  0  0  0  3  0  0  0  0  0  0
   36.8670   24.4730   37.9780 H   0  0  0  0  0  0  0  0  0  0  0  0
   38.6010   23.3070   38.5680 C   0  0  0  0  0  3  0  0  0  0  0  0
   39.1290   23.5280   39.5160 H   0  0  0  0  0  0  0  0  0  0  0  0
   39.5350   22.8500   37.6570 O   0  0  0  0  0  0  0  0  0  0  0  0
   39.1660   23.3250   36.4080 C   0  0  0  0  0  3  0  0  0  0  0  0
   40.0910   23.4710   35.8140 H   0  0  0  0  0  0  0  0  0  0  0  0
  2 15  1  0  0  0  0
  2  1  2  1  0  0  0
  3  2  1  0  0  0  0
  4  3  1  0  0  0  0
  5  2  1  0  0  0  0
  6  5  1  0  0  0  0
  7  6  1  0  0  0  0
  7 12  1  0  0  0  0
  8  7  2  0  0  0  0
  9 10  2  0  0  0  0
  9  8  1  0  0  0  0
 10 11  1  0  0  0  0
 11  6  2  0  0  0  0
 13  8  1  0  0  0  0
 14 10  1  0  0  0  0
 16 15  1  6  0  0  0
 16 17  1  0  0  0  0
 17 19  1  0  0  0  0
 18 17  1  0  0  0  0
 19 20  1  0  0  0  0
 21 19  1  0  0  0  0
 22 16  1  0  0  0  0
 22 21  1  0  0  0  0
 23 22  1  0  0  0  0
M  END
>  <minimizedAffinity>
-3.77108741

$$$$

 OpenBabel03272503473D

 23 24  0  0  1  0  0  0  0  0999 V2000
   36.5870   25.0840   32.4780 O   0  0  0  0  0  0  0  0  0  0  0  0
   36.8940   23.7900   31.7520 P   0  0  2  0  0  0  0  0  0  0  0  0
   37.4460   24.2110   30.2100 O   0  0  0  0  0  0  0  0  0  0  0  0
   38.1930   23.6580   29.8860 H   0  0  0  0  0  0  0  0  0  0  0  0
   35.5300   22.7750   31.6300 O   0  0  0  0  0  0  0  0  0  0  0  0
   35.6150   21.3990   31.7410 C   0  0  0  0  0  0  0  0  0  0  0  0
   35.2130   20.6330   32.8420 C   0  0  0  0  0  0  0  0  0  0  0  0
   35.3780   19.2490   32.7700 C   0  0  0  0  0  0  0  0  0  0  0  0
   35.9210   18.7010   31.6410 N   0  0  0  0  0  0  0  0  0  0  0  0
   36.2980   19.4740   30.5970 C   0  0  0  0  0  0  0  0  0  0  0  0
   36.1500   20.8190   30.6380 N   0  0  0  0  0  0  0  0  0  0  0  0
   34.8050   21.1700   33.6600 H   0  0  0  0  0  0  0  0  0  0  0  0
   35.0640   18.6630   33.6240 H   0  0  0  0  0  0  0  0  0  0  0  0
   36.7230   18.9900   29.7270 H   0  0  0  0  0  0  0  0  0  0  0  0
   38.0840   22.8960   32.5880 O   0  0  0  0  0  0  0  0  0  0  0  0
   38.0580   23.2860   33.9110 C   0  0  1  0  0  3  0  0  0  0  0  0
   37.9490   22.1120   34.8370 C   0  0  0  0  0  3  0  0  0  0  0  0
   38.1700   21.1520   34.2980 H   0  0  0  0  0  0  0  0  0  0  0  0
   38.9620   22.3680   35.9140 C   0  0  0  0  0  3  0  0  0  0  0  0
   38.4750   22.3620   36.9090 H   0  0  0  0  0  0  0  0  0  0  0  0
   39.4940   23.6260   35.7070 O   0  0  0  0  0  0  0  0  0  0  0  0
   39.3540   23.9220   34.3600 C   0  0  0  0  0  3  0  0  0  0  0  0
   39.2330   25.0200   34.2640 H   0  0  0  0  0  0  0  0  0  0  0  0
  2  1  2  1  0  0  0
  2 15  1  0  0  0  0
  3  2  1  0  0  0  0
  4  3  1  0  0  0  0
  5  6  1  0  0  0  0
  5  2  1  0  0  0  0
  6  7  1  0  0  0  0
  7 12  1  0  0  0  0
  8  7  2  0  0  0  0
  8 13  1  0  0  0  0
  9  8  1  0  0  0  0
 10 11  1  0  0  0  0
 10  9  2  0  0  0  0
 11  6  2  0  0  0  0
 14 10  1  0  0  0  0
 16 15  1  6  0  0  0
 16 22  1  0  0  0  0
 16 17  1  0  0  0  0
 17 19  1  0  0  0  0
 18 17  1  0  0  0  0
 19 20  1  0  0  0  0
 21 19  1  0  0  0  0
 22 21  1  0  0  0  0
 23 22  1  0  0  0  0
M  END
>  <minimizedAffinity>
-3.72900772

$$$$

 OpenBabel03272503473D

 23 24  0  0  1  0  0  0  0  0999 V2000
   39.6080   25.8110   34.4750 O   0  0  0  0  0  0  0  0  0  0  0  0
   38.4930   24.9130   33.9820 P   0  0  2  0  0  0  0  0  0  0  0  0
   39.1030   24.0570   32.6570 O   0  0  0  0  0  0  0  0  0  0  0  0
   38.8200   23.1150   32.6230 H   0  0  0  0  0  0  0  0  0  0  0  0
   37.1070   25.7920   33.5240 O   0  0  0  0  0  0  0  0  0  0  0  0
   37.1560   26.8420   32.6240 C   0  0  0  0  0  0  0  0  0  0  0  0
   36.5500   28.0940   32.7830 C   0  0  0  0  0  0  0  0  0  0  0  0
   36.7120   29.0310   31.7620 C   0  0  0  0  0  0  0  0  0  0  0  0
   37.4470   28.6950   30.6590 N   0  0  0  0  0  0  0  0  0  0  0  0
   38.0180   27.4750   30.5410 C   0  0  0  0  0  0  0  0  0  0  0  0
   37.8790   26.5450   31.5150 N   0  0  0  0  0  0  0  0  0  0  0  0
   36.0050   28.2390   33.6810 H   0  0  0  0  0  0  0  0  0  0  0  0
   36.2410   29.9980   31.8910 H   0  0  0  0  0  0  0  0  0  0  0  0
   38.5900   27.2590   29.6480 H   0  0  0  0  0  0  0  0  0  0  0  0
   37.9960   23.8370   35.2100 O   0  0  0  0  0  0  0  0  0  0  0  0
   38.7970   24.0510   36.3130 C   0  0  1  0  0  3  0  0  0  0  0  0
   37.9880   24.2760   37.5550 C   0  0  0  0  0  3  0  0  0  0  0  0
   36.9180   23.9710   37.3990 H   0  0  0  0  0  0  0  0  0  0  0  0
   38.6400   23.4250   38.6050 C   0  0  0  0  0  3  0  0  0  0  0  0
   38.9330   24.0450   39.4750 H   0  0  0  0  0  0  0  0  0  0  0  0
   39.7880   22.8830   38.0610 O   0  0  0  0  0  0  0  0  0  0  0  0
   39.6160   22.8370   36.6860 C   0  0  0  0  0  3  0  0  0  0  0  0
   40.6130   22.9550   36.2150 H   0  0  0  0  0  0  0  0  0  0  0  0
  2  1  2  1  0  0  0
  2 15  1  0  0  0  0
  3  2  1  0  0  0  0
  4  3  1  0  0  0  0
  5  2  1  0  0  0  0
  6  7  1  0  0  0  0
  6  5  1  0  0  0  0
  7 12  1  0  0  0  0
  8 13  1  0  0  0  0
  8  7  2  0  0  0  0
  9  8  1  0  0  0  0
 10  9  2  0  0  0  0
 10 11  1  0  0  0  0
 11  6  2  0  0  0  0
 14 10  1  0  0  0  0
 16 15  1  6  0  0  0
 16 22  1  0  0  0  0
 16 17  1  0  0  0  0
 17 19  1  0  0  0  0
 18 17  1  0  0  0  0
 19 20  1  0  0  0  0
 21 19  1  0  0  0  0
 22 21  1  0  0  0  0
 23 22  1  0  0  0  0
M  END
>  <minimizedAffinity>
-3.72257924

$$$$
