REMARK  Name = 
REMARK  5 active torsions:
REMARK  status: ('A' for Active; 'I' for Inactive)
REMARK    1  A    between atoms: C_1  and  S_17
REMARK    2  A    between atoms: C_2  and  C_9
REMARK    3  A    between atoms: C_11  and  C_13
REMARK    4  A    between atoms: S_17  and  C_20
REMARK    5  A    between atoms: C_20  and  C_29
REMARK                            x       y       z     vdW  Elec       q    Type
REMARK                         _______ _______ _______ _____ _____    ______ ____
ROOT
ATOM      1  C   UNL     1      38.172  31.241  44.933  0.00  0.00    +0.000 A 
ATOM      2  C   UNL     1      37.346  30.947  45.971  0.00  0.00    +0.000 A 
ATOM      3  C   UNL     1      36.109  30.358  45.725  0.00  0.00    +0.000 A 
ATOM      4  C   UNL     1      35.666  30.052  44.460  0.00  0.00    +0.000 A 
ATOM      5  C   UNL     1      36.470  30.337  43.384  0.00  0.00    +0.000 A 
ATOM      6  C   UNL     1      37.684  30.916  43.657  0.00  0.00    +0.000 A 
ATOM      7  H   UNL     1      35.467  30.133  46.595  0.00  0.00    +0.000 HD
ATOM      8  H   UNL     1      34.698  29.599  44.389  0.00  0.00    +0.000 HD
ATOM      9  H   UNL     1      36.080  30.082  42.432  0.00  0.00    +0.000 HD
ATOM     10  H   UNL     1      38.223  31.094  42.716  0.00  0.00    +0.000 HD
ENDROOT
BRANCH   2  13
ATOM     11  C   UNL     1      38.688  32.778  48.860  0.00  0.00    +0.000 A 
ATOM     12  C   UNL     1      38.314  32.445  47.568  0.00  0.00    +0.000 A 
ATOM     13  C   UNL     1      37.703  31.259  47.314  0.00  0.00    +0.000 A 
ATOM     14  N   UNL     1      37.478  30.436  48.375  0.00  0.00    +0.000 NA
ATOM     15  C   UNL     1      37.833  30.752  49.625  0.00  0.00    +0.000 A 
ATOM     16  N   UNL     1      38.437  31.919  49.859  0.00  0.00    +0.000 NA
ATOM     17  H   UNL     1      39.176  33.659  49.233  0.00  0.00    +0.000 HD
ATOM     18  H   UNL     1      38.589  33.296  46.993  0.00  0.00    +0.000 HD
BRANCH  15  19
ATOM     19  C   UNL     1      37.464  29.786  50.695  0.00  0.00    +0.000 C 
ATOM     20  F   UNL     1      37.713  30.294  51.956  0.00  0.00    +0.000 F 
ATOM     21  F   UNL     1      36.025  29.636  50.704  0.00  0.00    +0.000 F 
ATOM     22  F   UNL     1      37.904  28.554  50.570  0.00  0.00    +0.000 F 
ENDBRANCH  15  19
ENDBRANCH   2  13
BRANCH   1  23
ATOM     23  S   UNL     1      39.725  31.925  45.091  0.00  0.00    +0.000 S 
ATOM     24  O   UNL     1      39.678  33.412  44.878  0.00  0.00    +0.000 OA
ATOM     25  O   UNL     1      40.276  31.586  43.733  0.00  0.00    +0.000 OA
BRANCH  23  26
ATOM     26  C   UNL     1      41.113  31.224  45.750  0.00  0.00    +0.000 C 
ATOM     27  H   UNL     1      41.928  31.909  46.038  0.00  0.00    +0.000 HD
ATOM     28  H   UNL     1      40.790  30.886  46.799  0.00  0.00    +0.000 HD
BRANCH  26  29
ATOM     29  C   UNL     1      41.576  29.956  45.132  0.00  0.00    +0.000 C 
ATOM     30  C   UNL     1      41.316  29.736  43.691  0.00  0.00    +0.000 C 
ATOM     31  H   UNL     1      41.383  30.652  43.082  0.00  0.00    +0.000 HD
ATOM     32  C   UNL     1      42.483  28.807  43.310  0.00  0.00    +0.000 C 
ATOM     33  H   UNL     1      42.834  29.002  42.277  0.00  0.00    +0.000 HD
ATOM     34  O   UNL     1      43.497  29.011  44.197  0.00  0.00    +0.000 OA
ATOM     35  C   UNL     1      43.120  29.928  45.132  0.00  0.00    +0.000 C 
ATOM     36  H   UNL     1      43.395  30.966  44.816  0.00  0.00    +0.000 HD
ENDBRANCH  26  29
ENDBRANCH  23  26
ENDBRANCH   1  23
TORSDOF 5
