
 OpenBabel03272506273D

 41 44  0  0  1  0  0  0  0  0999 V2000
   34.0770   27.5690   44.5340 C   0  0  0  0  0  0  0  0  0  0  0  0
   34.1040   26.3780   43.8330 C   0  0  0  0  0  0  0  0  0  0  0  0
   34.7790   26.1940   42.6260 C   0  0  0  0  0  0  0  0  0  0  0  0
   35.4770   27.2910   42.0860 C   0  0  0  0  0  0  0  0  0  0  0  0
   35.4370   28.4700   42.8030 C   0  0  0  0  0  0  0  0  0  0  0  0
   34.7740   28.6360   43.9830 C   0  0  0  0  0  0  0  0  0  0  0  0
   33.5700   25.5000   44.2240 H   0  0  0  0  0  0  0  0  0  0  0  0
   34.7320   25.2110   42.1620 H   0  0  0  0  0  0  0  0  0  0  0  0
   35.9630   27.0450   41.1560 H   0  0  0  0  0  0  0  0  0  0  0  0
   36.0070   29.1610   42.2340 H   0  0  0  0  0  0  0  0  0  0  0  0
   33.9800   27.0770   46.9020 C   0  0  0  0  0  0  0  0  0  0  0  0
   33.3270   27.5740   45.7620 C   0  0  0  0  0  0  0  0  0  0  0  0
   32.0090   28.0290   45.9050 C   0  0  0  0  0  0  0  0  0  0  0  0
   31.4240   27.9730   47.1310 N   0  0  0  0  0  0  0  0  0  0  0  0
   32.0860   27.4860   48.2220 C   0  0  0  0  0  0  0  0  0  0  0  0
   33.3640   27.0380   48.1020 N   0  0  0  0  0  0  0  0  0  0  0  0
   34.9930   26.7190   46.8250 H   0  0  0  0  0  0  0  0  0  0  0  0
   31.5560   27.4730   49.1610 H   0  0  0  0  0  0  0  0  0  0  0  0
   31.1950   28.5780   44.7890 C   0  0  0  0  0  0  0  0  0  0  0  0
   29.8680   28.7600   45.2260 F   0  0  0  0  0  0  0  0  0  0  0  0
   31.6310   29.7320   44.2480 F   0  0  0  0  0  0  0  0  0  0  0  0
   31.0770   27.6210   43.7810 F   0  0  0  0  0  0  0  0  0  0  0  0
   34.7360   30.1420   44.8830 S   0  0  0  0  0  0  0  0  0  0  0  0
   34.1960   30.3390   47.9360 Cl  0  0  0  0  0  0  0  0  0  0  0  0
   35.8280   30.4320   47.3090 C   0  0  0  0  0  0  0  0  0  0  0  0
   36.1280   30.3650   45.9560 C   0  0  0  0  0  0  0  0  0  0  0  0
   37.4170   30.4570   45.5220 C   0  0  0  0  0  0  0  0  0  0  0  0
   38.4240   30.6140   46.4530 C   0  0  0  0  0  0  0  0  0  0  0  0
   38.1300   30.6810   47.8160 C   0  0  0  0  0  0  0  0  0  0  0  0
   36.8280   30.5910   48.2650 C   0  0  0  0  0  0  0  0  0  0  0  0
   37.7390   30.4550   44.5120 H   0  0  0  0  0  0  0  0  0  0  0  0
   39.4660   30.6900   46.1520 H   0  0  0  0  0  0  0  0  0  0  0  0
   38.9650   30.8070   48.4880 H   0  0  0  0  0  0  0  0  0  0  0  0
   36.4860   30.6650   49.7080 C   0  0  2  0  0  0  0  0  0  0  0  0
   37.6860   30.9120   50.5930 C   0  0  0  0  0  0  0  0  0  0  0  0
   38.6390   30.5970   50.1390 H   0  0  0  0  0  0  0  0  0  0  0  0
   37.4350   30.0240   51.8000 C   0  0  0  0  0  0  0  0  0  0  0  0
   38.2850   29.3020   51.9750 H   0  0  0  0  0  0  0  0  0  0  0  0
   36.2150   29.4170   51.6390 O   0  0  0  0  0  0  0  0  0  0  0  0
   35.8750   29.4420   50.2890 C   0  0  0  0  0  0  0  0  0  0  0  0
   36.1820   28.4830   49.8730 H   0  0  0  0  0  0  0  0  0  0  0  0
  1 12  1  0  0  0  0
  2  7  1  0  0  0  0
  2  1  2  0  0  0  0
  3  2  1  0  0  0  0
  4  3  2  0  0  0  0
  4  5  1  0  0  0  0
  5  6  2  0  0  0  0
  6  1  1  0  0  0  0
  6 23  1  0  0  0  0
  8  3  1  0  0  0  0
  9  4  1  0  0  0  0
 10  5  1  0  0  0  0
 11 16  1  0  0  0  0
 12 13  1  0  0  0  0
 12 11  2  0  0  0  0
 13 14  2  0  0  0  0
 14 15  1  0  0  0  0
 15 18  1  0  0  0  0
 16 15  2  0  0  0  0
 17 11  1  0  0  0  0
 19 20  1  0  0  0  0
 19 13  1  0  0  0  0
 21 19  1  0  0  0  0
 22 19  1  0  0  0  0
 23 26  1  0  0  0  0
 25 24  1  0  0  0  0
 25 30  1  0  0  0  0
 26 25  2  0  0  0  0
 27 26  1  0  0  0  0
 27 28  2  0  0  0  0
 28 29  1  0  0  0  0
 29 30  2  0  0  0  0
 29 33  1  0  0  0  0
 31 27  1  0  0  0  0
 32 28  1  0  0  0  0
 34 30  1  6  0  0  0
 34 40  1  0  0  0  0
 34 35  1  0  0  0  0
 35 37  1  0  0  0  0
 36 35  1  0  0  0  0
 37 38  1  0  0  0  0
 39 37  1  0  0  0  0
 40 39  1  0  0  0  0
 41 40  1  0  0  0  0
M  END
>  <minimizedAffinity>
-5.35230446

>  <minimizedRMSD>
2.5125432

$$$$
