
     RDKit          3D

 26 27  0  0  0  0  0  0  0  0999 V2000
   35.6174   29.0196   50.1741 C   0  0  0  0  0  0  0  0  0  0  0  0
   36.2797   30.1505   49.6562 C   0  0  0  0  0  0  0  0  0  0  0  0
   36.0389   30.5088   48.3428 C   0  0  0  0  0  0  0  0  0  0  0  0
   35.1706   29.7562   47.5958 N   0  0  0  0  0  0  0  0  0  0  0  0
   34.5507   28.6678   48.1382 C   0  0  0  0  0  0  0  0  0  0  0  0
   34.7692   28.2955   49.4227 N   0  0  0  0  0  0  0  0  0  0  0  0
   33.6861   28.0068   47.2217 N   0  0  0  0  0  0  0  0  0  0  0  0
   37.2120   30.9066   50.5299 C   0  0  0  0  0  0  0  0  0  0  0  0
   38.5374   30.7886   50.1009 F   0  0  0  0  0  0  0  0  0  0  0  0
   36.8649   32.2249   50.5195 F   0  0  0  0  0  0  0  0  0  0  0  0
   37.1861   30.4677   51.8421 F   0  0  0  0  0  0  0  0  0  0  0  0
   35.7603   28.6847   51.1926 H   0  0  0  0  0  0  0  0  0  0  0  0
   32.8093   28.5192   46.9690 H   0  0  0  0  0  0  0  0  0  0  0  0
   34.0203   27.0578   46.8868 H   0  0  0  0  0  0  0  0  0  0  0  0
   36.6822   31.6815   47.7156 C   0  0  2  0  0  0  0  0  0  0  0  0
   38.1043   31.8624   48.1703 C   0  0  1  0  0  0  0  0  0  0  0  0
   38.2240   31.2145   49.0769 H   0  0  0  0  0  0  0  0  0  0  0  0
   38.1558   33.2994   48.5801 C   0  0  2  0  0  0  0  0  0  0  0  0
   38.9891   33.8241   48.0503 H   0  0  0  0  0  0  0  0  0  0  0  0
   36.9544   33.8803   48.1929 O   0  0  0  0  0  0  0  0  0  0  0  0
   35.9964   32.9026   48.2278 C   0  0  1  0  0  0  0  0  0  0  0  0
   35.1168   33.2006   47.6225 H   0  0  0  0  0  0  0  0  0  0  0  0
   36.6696   31.5792   46.6208 H   0  0  0  0  0  0  0  0  0  0  0  0
   38.8630   31.6194   47.3985 H   0  0  0  0  0  0  0  0  0  0  0  0
   38.2887   33.4400   49.6753 H   0  0  0  0  0  0  0  0  0  0  0  0
   35.7041   32.7015   49.2979 H   0  0  0  0  0  0  0  0  0  0  0  0
  2  1  2  0
  2  8  1  0
  3  2  1  0
  4  5  1  0
  4  3  2  0
  5  6  2  0
  6  1  1  0
  7  5  1  0
  8 11  1  0
  9  8  1  0
 10  8  1  0
  1 12  1  0
  7 13  1  0
  7 14  1  0
 15 16  1  0
 16 17  1  1
 16 18  1  0
 18 19  1  6
 18 20  1  0
 20 21  1  0
 21 22  1  6
 21 15  1  0
 15 23  1  6
 16 24  1  0
 18 25  1  0
 21 26  1  0
  3 15  1  0
M  ISO  4  12  14  17  15  19  15  22  15
M  END
>  <DihAtoms>  (1) 
1,2,14,15

>  <DihDeg>  (1) 
-97.69803177275917

$$$$
