
     RDKit          3D

 35 37  0  0  0  0  0  0  0  0999 V2000
   34.7980   29.5320   47.5142 S   0  0  0  0  0  0  0  0  0  0  0  0
   37.3785   29.4805   50.5216 C   0  0  0  0  0  0  0  0  0  0  0  0
   37.9758   30.7328   50.5159 C   0  0  0  0  0  0  0  0  0  0  0  0
   37.5687   31.6434   49.5404 C   0  0  0  0  0  0  0  0  0  0  0  0
   36.6197   31.2607   48.6574 N   0  0  0  0  0  0  0  0  0  0  0  0
   36.0509   30.0246   48.6871 C   0  0  0  0  0  0  0  0  0  0  0  0
   36.4267   29.1190   49.6237 N   0  0  0  0  0  0  0  0  0  0  0  0
   32.3886   28.3544   47.4783 C   0  0  2  0  0  0  0  0  0  0  0  0
   33.6289   28.4124   48.3467 C   0  0  1  0  0  0  0  0  0  0  0  0
   34.1896   27.1560   48.3496 O   0  0  0  0  0  0  0  0  0  0  0  0
   33.5423   26.3708   47.4246 C   0  0  0  0  0  0  0  0  0  0  0  0
   32.8561   27.3282   46.4548 C   0  0  1  0  0  0  0  0  0  0  0  0
   32.1428   29.5991   46.8822 O   0  0  0  0  0  0  0  0  0  0  0  0
   31.7894   26.6981   45.8305 O   0  0  0  0  0  0  0  0  0  0  0  0
   37.7063   28.7859   51.2856 H   0  0  0  0  0  0  0  0  0  0  0  0
   38.7231   31.0699   51.1914 H   0  0  0  0  0  0  0  0  0  0  0  0
   38.0146   32.6290   49.5079 H   0  0  0  0  0  0  0  0  0  0  0  0
   31.5158   27.9343   47.9840 H   0  0  0  0  0  0  0  0  0  0  0  0
   33.4030   28.7370   49.3760 H   0  0  0  0  0  0  0  0  0  0  0  0
   34.1839   25.6428   46.9283 H   0  0  0  0  0  0  0  0  0  0  0  0
   32.6920   25.8856   47.9867 H   0  0  0  0  0  0  0  0  0  0  0  0
   33.5662   27.7889   45.7392 H   0  0  0  0  0  0  0  0  0  0  0  0
   32.7215   29.6857   46.0805 H   0  0  0  0  0  0  0  0  0  0  0  0
   31.8305   26.7731   44.4620 C   0  0  1  0  0  0  0  0  0  0  0  0
   31.0488   27.9884   44.0004 C   0  0  1  0  0  0  0  0  0  0  0  0
   29.9989   27.7369   43.7617 H   0  0  0  0  0  0  0  0  0  0  0  0
   31.8197   28.3239   42.7195 C   0  0  2  0  0  0  0  0  0  0  0  0
   31.6305   29.3535   42.4063 H   0  0  0  0  0  0  0  0  0  0  0  0
   33.1287   28.2483   43.2028 O   0  0  0  0  0  0  0  0  0  0  0  0
   33.1838   27.0309   43.8730 C   0  0  1  0  0  0  0  0  0  0  0  0
   33.9765   27.1118   44.6450 H   0  0  0  0  0  0  0  0  0  0  0  0
   31.3611   25.9114   43.9450 H   0  0  0  0  0  0  0  0  0  0  0  0
   31.1086   28.8228   44.7092 H   0  0  0  0  0  0  0  0  0  0  0  0
   31.6089   27.5519   41.9537 H   0  0  0  0  0  0  0  0  0  0  0  0
   33.4571   26.2607   43.1048 H   0  0  0  0  0  0  0  0  0  0  0  0
  1  6  1  0
  3  2  2  0
  4  3  1  0
  5  6  1  0
  5  4  2  0
  6  7  2  0
  7  2  1  0
  8 13  1  0
  8  9  1  0
  9  1  1  0
  9 10  1  0
 11 10  1  0
 12 14  1  0
 12 11  1  0
 12  8  1  0
  2 15  1  0
  3 16  1  0
  4 17  1  0
  8 18  1  1
  9 19  1  1
 11 20  1  0
 11 21  1  0
 12 22  1  6
 13 23  1  0
 24 25  1  0
 25 26  1  6
 25 27  1  0
 27 28  1  6
 27 29  1  0
 29 30  1  0
 30 31  1  1
 30 24  1  0
 24 32  1  6
 25 33  1  0
 27 34  1  0
 30 35  1  0
 14 24  1  0
M  ISO  8  15  14  16  14  17  14  18  13  19  13  20  13  21  13  22  13
M  ISO  4  23   3  26  15  28  15  31  15
M  END
>  <DihAtoms>  (1) 
11,13,23,24

>  <DihDeg>  (1) 
117.61048838949694

$$$$
