
 OpenBabel03272507493D

 45 49  0  0  1  0  0  0  0  0999 V2000
   37.1340   27.6290   31.7680 N   0  0  0  0  0  0  0  0  0  0  0  0
   36.6530   26.3070   31.5600 C   0  0  0  0  0  0  0  0  0  0  0  0
   37.1310   25.2670   32.5010 C   0  0  0  0  0  0  0  0  0  0  0  0
   38.5310   25.3520   32.9190 C   0  0  1  0  0  0  0  0  0  0  0  0
   39.0160   26.8070   33.0500 C   0  0  0  0  0  0  0  0  0  0  0  0
   38.5740   27.5470   31.7780 C   0  0  0  0  0  0  0  0  0  0  0  0
   35.5370   26.3230   31.5620 H   0  0  0  0  0  0  0  0  0  0  0  0
   36.9360   25.9880   30.5350 H   0  0  0  0  0  0  0  0  0  0  0  0
   36.8430   24.2710   32.1440 H   0  0  0  0  0  0  0  0  0  0  0  0
   36.5070   25.4960   33.4290 H   0  0  0  0  0  0  0  0  0  0  0  0
   39.2060   24.9440   32.1170 H   0  0  0  0  0  0  0  0  0  0  0  0
   38.5450   27.2630   33.9280 H   0  0  0  0  0  0  0  0  0  0  0  0
   40.1060   26.8610   33.0640 H   0  0  0  0  0  0  0  0  0  0  0  0
   39.0100   27.0380   30.9020 H   0  0  0  0  0  0  0  0  0  0  0  0
   38.9900   28.5760   31.8120 H   0  0  0  0  0  0  0  0  0  0  0  0
   40.0010   24.0110   34.3520 C   0  0  0  0  0  0  0  0  0  0  0  0
   38.8250   24.7320   34.2340 C   0  0  0  0  0  0  0  0  0  0  0  0
   37.9200   24.8810   35.2510 C   0  0  0  0  0  0  0  0  0  0  0  0
   38.2040   24.2700   36.4630 C   0  0  0  0  0  0  0  0  0  0  0  0
   39.3730   23.5500   36.5820 C   0  0  0  0  0  0  0  0  0  0  0  0
   40.2920   23.3970   35.5590 C   0  0  0  0  0  0  0  0  0  0  0  0
   39.4790   23.0100   37.8800 O   0  0  0  0  0  0  0  0  0  0  0  0
   38.4830   23.6810   38.6360 C   0  0  0  0  0  0  0  0  0  0  0  0
   37.5640   24.1830   37.7080 O   0  0  0  0  0  0  0  0  0  0  0  0
   40.7870   23.8380   33.6310 H   0  0  0  0  0  0  0  0  0  0  0  0
   37.0250   25.4420   35.1310 H   0  0  0  0  0  0  0  0  0  0  0  0
   41.2020   22.8120   35.7230 H   0  0  0  0  0  0  0  0  0  0  0  0
   37.9560   22.8790   39.2130 H   0  0  0  0  0  0  0  0  0  0  0  0
   38.8820   24.4370   39.3260 H   0  0  0  0  0  0  0  0  0  0  0  0
   36.3730   28.8190   31.9320 C   0  0  0  0  0  0  0  0  0  0  0  0
   36.0010   29.6780   30.8950 C   0  0  0  0  0  0  0  0  0  0  0  0
   35.2410   30.7990   31.2500 C   0  0  0  0  0  0  0  0  0  0  0  0
   34.9070   30.9950   32.5710 N   0  0  0  0  0  0  0  0  0  0  0  0
   35.2970   30.1360   33.5050 C   0  0  0  0  0  0  0  0  0  0  0  0
   36.0090   29.0750   33.2110 N   0  0  0  0  0  0  0  0  0  0  0  0
   36.3160   29.4250   29.9140 H   0  0  0  0  0  0  0  0  0  0  0  0
   34.9680   31.4420   30.4310 H   0  0  0  0  0  0  0  0  0  0  0  0
   34.8940   30.4180   34.9220 C   0  0  1  0  0  3  0  0  0  0  0  0
   36.0700   31.0190   35.6760 C   0  0  0  0  0  3  0  0  0  0  0  0
   36.9140   31.2500   34.9810 H   0  0  0  0  0  0  0  0  0  0  0  0
   35.5310   32.3490   36.1540 C   0  0  0  0  0  3  0  0  0  0  0  0
   34.8560   32.2490   37.0250 H   0  0  0  0  0  0  0  0  0  0  0  0
   34.7190   32.7310   35.0800 O   0  0  0  0  0  0  0  0  0  0  0  0
   33.9150   31.5960   34.9620 C   0  0  0  0  0  3  0  0  0  0  0  0
   33.1570   31.5040   35.7390 H   0  0  0  0  0  0  0  0  0  0  0  0
  1  6  1  0  0  0  0
  1 30  1  0  0  0  0
  2  7  1  0  0  0  0
  2  1  1  0  0  0  0
  2  3  1  0  0  0  0
  3  4  1  0  0  0  0
  3 10  1  0  0  0  0
  4 11  1  6  0  0  0
  4  5  1  0  0  0  0
  4 17  1  0  0  0  0
  5 13  1  0  0  0  0
  5 12  1  0  0  0  0
  6 15  1  0  0  0  0
  6  5  1  0  0  0  0
  8  2  1  0  0  0  0
  9  3  1  0  0  0  0
 14  6  1  0  0  0  0
 16 21  1  0  0  0  0
 17 16  2  0  0  0  0
 17 18  1  0  0  0  0
 18 19  2  0  0  0  0
 19 20  1  0  0  0  0
 19 24  1  0  0  0  0
 20 22  1  0  0  0  0
 21 27  1  0  0  0  0
 21 20  2  0  0  0  0
 22 23  1  0  0  0  0
 23 28  1  0  0  0  0
 23 29  1  0  0  0  0
 24 23  1  0  0  0  0
 25 16  1  0  0  0  0
 26 18  1  0  0  0  0
 30 35  1  0  0  0  0
 31 32  1  0  0  0  0
 31 30  2  0  0  0  0
 32 33  2  0  0  0  0
 33 34  1  0  0  0  0
 35 34  2  0  0  0  0
 36 31  1  0  0  0  0
 37 32  1  0  0  0  0
 38 34  1  6  0  0  0
 38 44  1  0  0  0  0
 38 39  1  0  0  0  0
 39 41  1  0  0  0  0
 40 39  1  0  0  0  0
 41 42  1  0  0  0  0
 43 41  1  0  0  0  0
 44 43  1  0  0  0  0
 44 45  1  0  0  0  0
M  END
>  <minimizedAffinity>
-6.09820938

$$$$

 OpenBabel03272507493D

 45 49  0  0  1  0  0  0  0  0999 V2000
   34.7350   29.2360   33.4190 N   0  0  0  0  0  0  0  0  0  0  0  0
   35.1960   28.6090   32.2290 C   0  0  0  0  0  0  0  0  0  0  0  0
   36.0830   27.4340   32.3930 C   0  0  0  0  0  0  0  0  0  0  0  0
   37.0680   27.5000   33.4730 C   0  0  1  0  0  0  0  0  0  0  0  0
   36.5380   28.2580   34.7040 C   0  0  0  0  0  0  0  0  0  0  0  0
   35.9060   29.5620   34.1940 C   0  0  0  0  0  0  0  0  0  0  0  0
   34.3150   28.3240   31.6040 H   0  0  0  0  0  0  0  0  0  0  0  0
   35.7450   29.3620   31.6260 H   0  0  0  0  0  0  0  0  0  0  0  0
   36.5140   27.1460   31.4270 H   0  0  0  0  0  0  0  0  0  0  0  0
   35.3360   26.6250   32.6930 H   0  0  0  0  0  0  0  0  0  0  0  0
   37.9490   28.1270   33.1640 H   0  0  0  0  0  0  0  0  0  0  0  0
   35.7770   27.6450   35.2000 H   0  0  0  0  0  0  0  0  0  0  0  0
   37.3530   28.5590   35.3640 H   0  0  0  0  0  0  0  0  0  0  0  0
   36.6720   30.1360   33.6460 H   0  0  0  0  0  0  0  0  0  0  0  0
   35.5960   30.1650   35.0720 H   0  0  0  0  0  0  0  0  0  0  0  0
   37.6440   25.1480   33.0860 C   0  0  0  0  0  0  0  0  0  0  0  0
   37.5060   26.1820   33.9960 C   0  0  0  0  0  0  0  0  0  0  0  0
   37.7290   26.0470   35.3400 C   0  0  0  0  0  0  0  0  0  0  0  0
   38.1110   24.7990   35.8090 C   0  0  0  0  0  0  0  0  0  0  0  0
   38.2480   23.7670   34.9050 C   0  0  0  0  0  0  0  0  0  0  0  0
   38.0250   23.8980   33.5450 C   0  0  0  0  0  0  0  0  0  0  0  0
   38.6400   22.5880   35.5720 O   0  0  0  0  0  0  0  0  0  0  0  0
   39.0330   23.0160   36.8670 C   0  0  0  0  0  0  0  0  0  0  0  0
   38.4260   24.2610   37.0660 O   0  0  0  0  0  0  0  0  0  0  0  0
   37.5090   25.1410   32.0140 H   0  0  0  0  0  0  0  0  0  0  0  0
   37.6160   26.8600   36.0150 H   0  0  0  0  0  0  0  0  0  0  0  0
   38.1530   23.0360   32.8840 H   0  0  0  0  0  0  0  0  0  0  0  0
   38.5470   22.3010   37.5780 H   0  0  0  0  0  0  0  0  0  0  0  0
   40.1200   23.0180   37.0240 H   0  0  0  0  0  0  0  0  0  0  0  0
   33.3920   29.5050   33.7990 C   0  0  0  0  0  0  0  0  0  0  0  0
   32.2640   29.1510   33.0530 C   0  0  0  0  0  0  0  0  0  0  0  0
   31.0190   29.4930   33.5950 C   0  0  0  0  0  0  0  0  0  0  0  0
   30.9680   30.1460   34.8060 N   0  0  0  0  0  0  0  0  0  0  0  0
   32.0820   30.4530   35.4590 C   0  0  0  0  0  0  0  0  0  0  0  0
   33.2660   30.1480   34.9840 N   0  0  0  0  0  0  0  0  0  0  0  0
   32.4260   28.6490   32.1320 H   0  0  0  0  0  0  0  0  0  0  0  0
   30.1700   29.2070   32.9990 H   0  0  0  0  0  0  0  0  0  0  0  0
   31.9460   31.1650   36.7720 C   0  0  1  0  0  3  0  0  0  0  0  0
   33.3120   31.6470   37.2350 C   0  0  0  0  0  3  0  0  0  0  0  0
   34.0790   31.4960   36.4370 H   0  0  0  0  0  0  0  0  0  0  0  0
   33.1230   33.1420   37.3700 C   0  0  0  0  0  3  0  0  0  0  0  0
   32.5700   33.4220   38.2870 H   0  0  0  0  0  0  0  0  0  0  0  0
   32.2620   33.4200   36.3020 O   0  0  0  0  0  0  0  0  0  0  0  0
   31.2380   32.5080   36.5650 C   0  0  0  0  0  3  0  0  0  0  0  0
   30.5930   32.7920   37.3970 H   0  0  0  0  0  0  0  0  0  0  0  0
  1 30  1  0  0  0  0
  1  6  1  0  0  0  0
  2  3  1  0  0  0  0
  2  1  1  0  0  0  0
  3 10  1  0  0  0  0
  3  4  1  0  0  0  0
  4 11  1  6  0  0  0
  4 17  1  0  0  0  0
  4  5  1  0  0  0  0
  5 12  1  0  0  0  0
  5 13  1  0  0  0  0
  6  5  1  0  0  0  0
  6 15  1  0  0  0  0
  7  2  1  0  0  0  0
  8  2  1  0  0  0  0
  9  3  1  0  0  0  0
 14  6  1  0  0  0  0
 16 21  2  0  0  0  0
 16 17  1  0  0  0  0
 17 18  2  0  0  0  0
 18 19  1  0  0  0  0
 18 26  1  0  0  0  0
 19 24  1  0  0  0  0
 20 22  1  0  0  0  0
 20 19  2  0  0  0  0
 21 20  1  0  0  0  0
 22 23  1  0  0  0  0
 23 29  1  0  0  0  0
 23 24  1  0  0  0  0
 23 28  1  0  0  0  0
 25 16  1  0  0  0  0
 27 21  1  0  0  0  0
 30 35  1  0  0  0  0
 31 32  1  0  0  0  0
 31 30  2  0  0  0  0
 32 33  2  0  0  0  0
 33 34  1  0  0  0  0
 35 34  2  0  0  0  0
 36 31  1  0  0  0  0
 37 32  1  0  0  0  0
 38 34  1  6  0  0  0
 38 39  1  0  0  0  0
 39 41  1  0  0  0  0
 40 39  1  0  0  0  0
 41 42  1  0  0  0  0
 43 44  1  0  0  0  0
 43 41  1  0  0  0  0
 44 38  1  0  0  0  0
 44 45  1  0  0  0  0
M  END
>  <minimizedAffinity>
-6.01859331

$$$$

 OpenBabel03272507493D

 45 49  0  0  1  0  0  0  0  0999 V2000
   36.9600   26.1430   32.1090 N   0  0  0  0  0  0  0  0  0  0  0  0
   37.8050   26.8640   32.9970 C   0  0  0  0  0  0  0  0  0  0  0  0
   37.1930   28.0010   33.7260 C   0  0  0  0  0  0  0  0  0  0  0  0
   36.2430   28.8250   32.9790 C   0  0  1  0  0  0  0  0  0  0  0  0
   35.4120   28.0000   31.9790 C   0  0  0  0  0  0  0  0  0  0  0  0
   36.3950   27.1110   31.2010 C   0  0  0  0  0  0  0  0  0  0  0  0
   38.2520   26.1510   33.7310 H   0  0  0  0  0  0  0  0  0  0  0  0
   38.6660   27.2600   32.4190 H   0  0  0  0  0  0  0  0  0  0  0  0
   37.9690   28.5840   34.2370 H   0  0  0  0  0  0  0  0  0  0  0  0
   36.5860   27.4580   34.5250 H   0  0  0  0  0  0  0  0  0  0  0  0
   36.7880   29.5430   32.3070 H   0  0  0  0  0  0  0  0  0  0  0  0
   34.7030   27.3750   32.5330 H   0  0  0  0  0  0  0  0  0  0  0  0
   34.9380   28.6420   31.2350 H   0  0  0  0  0  0  0  0  0  0  0  0
   37.1350   27.7560   30.7000 H   0  0  0  0  0  0  0  0  0  0  0  0
   35.8280   26.5720   30.4140 H   0  0  0  0  0  0  0  0  0  0  0  0
   33.9070   29.3820   33.4770 C   0  0  0  0  0  0  0  0  0  0  0  0
   35.2410   29.5300   33.8170 C   0  0  0  0  0  0  0  0  0  0  0  0
   35.6790   30.3030   34.8590 C   0  0  0  0  0  0  0  0  0  0  0  0
   34.7270   30.9730   35.6110 C   0  0  0  0  0  0  0  0  0  0  0  0
   33.3980   30.8290   35.2740 C   0  0  0  0  0  0  0  0  0  0  0  0
   32.9490   30.0490   34.2230 C   0  0  0  0  0  0  0  0  0  0  0  0
   32.5920   31.5850   36.1500 O   0  0  0  0  0  0  0  0  0  0  0  0
   33.4540   31.9480   37.2170 C   0  0  0  0  0  0  0  0  0  0  0  0
   34.7570   31.8330   36.7190 O   0  0  0  0  0  0  0  0  0  0  0  0
   33.4480   28.7960   32.6940 H   0  0  0  0  0  0  0  0  0  0  0  0
   36.7110   30.3970   35.0960 H   0  0  0  0  0  0  0  0  0  0  0  0
   31.8780   29.9780   34.0120 H   0  0  0  0  0  0  0  0  0  0  0  0
   33.2690   33.0370   37.3930 H   0  0  0  0  0  0  0  0  0  0  0  0
   33.2770   31.3840   38.1440 H   0  0  0  0  0  0  0  0  0  0  0  0
   36.7040   24.7450   32.0910 C   0  0  0  0  0  0  0  0  0  0  0  0
   35.7720   24.1150   31.2630 C   0  0  0  0  0  0  0  0  0  0  0  0
   35.6660   22.7230   31.3800 C   0  0  0  0  0  0  0  0  0  0  0  0
   36.4670   22.0610   32.2820 N   0  0  0  0  0  0  0  0  0  0  0  0
   37.3320   22.7260   33.0380 C   0  0  0  0  0  0  0  0  0  0  0  0
   37.4600   24.0290   32.9570 N   0  0  0  0  0  0  0  0  0  0  0  0
   35.2090   24.7290   30.6060 H   0  0  0  0  0  0  0  0  0  0  0  0
   34.9410   22.2660   30.7300 H   0  0  0  0  0  0  0  0  0  0  0  0
   38.1700   21.9340   33.9980 C   0  0  1  0  0  3  0  0  0  0  0  0
   39.3810   22.7550   34.4140 C   0  0  0  0  0  3  0  0  0  0  0  0
   39.3030   23.8020   34.0330 H   0  0  0  0  0  0  0  0  0  0  0  0
   39.2450   22.8340   35.9180 C   0  0  0  0  0  3  0  0  0  0  0  0
   39.5440   21.8960   36.4250 H   0  0  0  0  0  0  0  0  0  0  0  0
   37.8580   22.9300   36.0760 O   0  0  0  0  0  0  0  0  0  0  0  0
   37.4470   21.8140   35.3440 C   0  0  0  0  0  3  0  0  0  0  0  0
   37.6210   20.8640   35.8470 H   0  0  0  0  0  0  0  0  0  0  0  0
  1  2  1  0  0  0  0
  2  3  1  0  0  0  0
  2  7  1  0  0  0  0
  3  9  1  0  0  0  0
  3 10  1  0  0  0  0
  4 11  1  6  0  0  0
  4  3  1  0  0  0  0
  4 17  1  0  0  0  0
  5 12  1  0  0  0  0
  5  4  1  0  0  0  0
  6  5  1  0  0  0  0
  6  1  1  0  0  0  0
  8  2  1  0  0  0  0
 13  5  1  0  0  0  0
 14  6  1  0  0  0  0
 15  6  1  0  0  0  0
 16 17  2  0  0  0  0
 16 21  1  0  0  0  0
 17 18  1  0  0  0  0
 18 26  1  0  0  0  0
 18 19  2  0  0  0  0
 19 24  1  0  0  0  0
 20 19  1  0  0  0  0
 20 22  1  0  0  0  0
 21 20  2  0  0  0  0
 22 23  1  0  0  0  0
 23 28  1  0  0  0  0
 23 29  1  0  0  0  0
 24 23  1  0  0  0  0
 25 16  1  0  0  0  0
 27 21  1  0  0  0  0
 30  1  1  0  0  0  0
 30 35  1  0  0  0  0
 31 32  1  0  0  0  0
 31 30  2  0  0  0  0
 32 33  2  0  0  0  0
 33 34  1  0  0  0  0
 35 34  2  0  0  0  0
 36 31  1  0  0  0  0
 37 32  1  0  0  0  0
 38 34  1  6  0  0  0
 38 39  1  0  0  0  0
 38 44  1  0  0  0  0
 39 41  1  0  0  0  0
 40 39  1  0  0  0  0
 41 43  1  0  0  0  0
 41 42  1  0  0  0  0
 44 45  1  0  0  0  0
 44 43  1  0  0  0  0
M  END
>  <minimizedAffinity>
-5.98270035

$$$$

 OpenBabel03272507493D

 45 49  0  0  1  0  0  0  0  0999 V2000
   38.3710   26.4470   33.4490 N   0  0  0  0  0  0  0  0  0  0  0  0
   38.0000   27.0140   32.2000 C   0  0  0  0  0  0  0  0  0  0  0  0
   37.2320   28.2810   32.2440 C   0  0  0  0  0  0  0  0  0  0  0  0
   36.2230   28.4010   33.2970 C   0  0  1  0  0  0  0  0  0  0  0  0
   36.6490   27.7000   34.5990 C   0  0  0  0  0  0  0  0  0  0  0  0
   37.1570   26.3020   34.2140 C   0  0  0  0  0  0  0  0  0  0  0  0
   38.9170   27.1590   31.5800 H   0  0  0  0  0  0  0  0  0  0  0  0
   37.3900   26.2710   31.6440 H   0  0  0  0  0  0  0  0  0  0  0  0
   36.8510   28.5280   31.2450 H   0  0  0  0  0  0  0  0  0  0  0  0
   38.0500   29.0340   32.4980 H   0  0  0  0  0  0  0  0  0  0  0  0
   35.2900   27.8400   33.0140 H   0  0  0  0  0  0  0  0  0  0  0  0
   37.4570   28.2750   35.0660 H   0  0  0  0  0  0  0  0  0  0  0  0
   35.7950   27.5370   35.2580 H   0  0  0  0  0  0  0  0  0  0  0  0
   36.3490   25.7630   33.6930 H   0  0  0  0  0  0  0  0  0  0  0  0
   37.3870   25.7470   35.1470 H   0  0  0  0  0  0  0  0  0  0  0  0
   35.7220   30.7240   32.6900 C   0  0  0  0  0  0  0  0  0  0  0  0
   35.9090   29.7950   33.6990 C   0  0  0  0  0  0  0  0  0  0  0  0
   35.8420   30.0970   35.0320 C   0  0  0  0  0  0  0  0  0  0  0  0
   35.5740   31.4110   35.3840 C   0  0  0  0  0  0  0  0  0  0  0  0
   35.3890   32.3390   34.3810 C   0  0  0  0  0  0  0  0  0  0  0  0
   35.4540   32.0390   33.0320 C   0  0  0  0  0  0  0  0  0  0  0  0
   35.1290   33.6090   34.9380 O   0  0  0  0  0  0  0  0  0  0  0  0
   34.8610   33.3570   36.3090 C   0  0  0  0  0  0  0  0  0  0  0  0
   35.4260   32.1090   36.5920 O   0  0  0  0  0  0  0  0  0  0  0  0
   35.7380   30.6000   31.6170 H   0  0  0  0  0  0  0  0  0  0  0  0
   35.9900   29.3620   35.7860 H   0  0  0  0  0  0  0  0  0  0  0  0
   35.2960   32.8260   32.2880 H   0  0  0  0  0  0  0  0  0  0  0  0
   35.4560   34.1190   36.8730 H   0  0  0  0  0  0  0  0  0  0  0  0
   33.7980   33.4400   36.5760 H   0  0  0  0  0  0  0  0  0  0  0  0
   39.6730   26.0780   33.8880 C   0  0  0  0  0  0  0  0  0  0  0  0
   40.7830   26.9260   33.8920 C   0  0  0  0  0  0  0  0  0  0  0  0
   41.9840   26.3870   34.3710 C   0  0  0  0  0  0  0  0  0  0  0  0
   42.0100   25.0800   34.8040 N   0  0  0  0  0  0  0  0  0  0  0  0
   40.9140   24.3320   34.7700 C   0  0  0  0  0  0  0  0  0  0  0  0
   39.7720   24.8020   34.3290 N   0  0  0  0  0  0  0  0  0  0  0  0
   40.6440   27.9150   33.5340 H   0  0  0  0  0  0  0  0  0  0  0  0
   42.8210   27.0630   34.3630 H   0  0  0  0  0  0  0  0  0  0  0  0
   41.0210   22.9180   35.2580 C   0  0  1  0  0  3  0  0  0  0  0  0
   41.7630   22.8910   36.5850 C   0  0  0  0  0  3  0  0  0  0  0  0
   41.9310   23.9270   36.9690 H   0  0  0  0  0  0  0  0  0  0  0  0
   40.7690   22.2430   37.5240 C   0  0  0  0  0  3  0  0  0  0  0  0
   40.7060   21.1470   37.3890 H   0  0  0  0  0  0  0  0  0  0  0  0
   39.5550   22.7580   37.0550 O   0  0  0  0  0  0  0  0  0  0  0  0
   39.6450   22.4150   35.7050 C   0  0  0  0  0  3  0  0  0  0  0  0
   39.4830   21.3560   35.5030 H   0  0  0  0  0  0  0  0  0  0  0  0
  1 30  1  0  0  0  0
  1  6  1  0  0  0  0
  2  3  1  0  0  0  0
  2  1  1  0  0  0  0
  3 10  1  0  0  0  0
  3  4  1  0  0  0  0
  4 11  1  6  0  0  0
  4 17  1  0  0  0  0
  4  5  1  0  0  0  0
  5 12  1  0  0  0  0
  5 13  1  0  0  0  0
  6  5  1  0  0  0  0
  6 15  1  0  0  0  0
  7  2  1  0  0  0  0
  8  2  1  0  0  0  0
  9  3  1  0  0  0  0
 14  6  1  0  0  0  0
 16 21  2  0  0  0  0
 16 17  1  0  0  0  0
 17 18  2  0  0  0  0
 18 19  1  0  0  0  0
 18 26  1  0  0  0  0
 19 24  1  0  0  0  0
 20 22  1  0  0  0  0
 20 19  2  0  0  0  0
 21 20  1  0  0  0  0
 22 23  1  0  0  0  0
 23 29  1  0  0  0  0
 23 24  1  0  0  0  0
 23 28  1  0  0  0  0
 25 16  1  0  0  0  0
 27 21  1  0  0  0  0
 30 31  2  0  0  0  0
 30 35  1  0  0  0  0
 31 32  1  0  0  0  0
 32 33  2  0  0  0  0
 34 33  1  0  0  0  0
 35 34  2  0  0  0  0
 36 31  1  0  0  0  0
 37 32  1  0  0  0  0
 38 34  1  1  0  0  0
 38 44  1  0  0  0  0
 38 39  1  0  0  0  0
 39 40  1  0  0  0  0
 39 41  1  0  0  0  0
 42 41  1  0  0  0  0
 43 41  1  0  0  0  0
 44 43  1  0  0  0  0
 45 44  1  0  0  0  0
M  END
>  <minimizedAffinity>
-5.90846491

$$$$

 OpenBabel03272507493D

 45 49  0  0  1  0  0  0  0  0999 V2000
   37.5050   24.9520   31.8640 N   0  0  0  0  0  0  0  0  0  0  0  0
   38.4740   25.8660   31.3660 C   0  0  0  0  0  0  0  0  0  0  0  0
   38.1320   27.3060   31.4380 C   0  0  0  0  0  0  0  0  0  0  0  0
   36.7440   27.6670   31.1500 C   0  0  1  0  0  0  0  0  0  0  0  0
   35.7480   26.6020   31.6440 C   0  0  0  0  0  0  0  0  0  0  0  0
   36.2730   25.2380   31.1700 C   0  0  0  0  0  0  0  0  0  0  0  0
   39.4430   25.6890   31.8910 H   0  0  0  0  0  0  0  0  0  0  0  0
   38.6730   25.6210   30.3020 H   0  0  0  0  0  0  0  0  0  0  0  0
   38.8630   27.8970   30.8720 H   0  0  0  0  0  0  0  0  0  0  0  0
   38.2960   27.5240   32.5460 H   0  0  0  0  0  0  0  0  0  0  0  0
   36.5600   27.6740   30.0410 H   0  0  0  0  0  0  0  0  0  0  0  0
   35.7110   26.6280   32.7390 H   0  0  0  0  0  0  0  0  0  0  0  0
   34.7710   26.7260   31.1730 H   0  0  0  0  0  0  0  0  0  0  0  0
   36.3600   25.2540   30.0710 H   0  0  0  0  0  0  0  0  0  0  0  0
   35.5250   24.4650   31.4390 H   0  0  0  0  0  0  0  0  0  0  0  0
   36.3150   30.0770   30.9960 C   0  0  0  0  0  0  0  0  0  0  0  0
   36.2890   28.9340   31.7760 C   0  0  0  0  0  0  0  0  0  0  0  0
   35.8930   28.9160   33.0870 C   0  0  0  0  0  0  0  0  0  0  0  0
   35.4980   30.1170   33.6580 C   0  0  0  0  0  0  0  0  0  0  0  0
   35.5240   31.2570   32.8840 C   0  0  0  0  0  0  0  0  0  0  0  0
   35.9220   31.2800   31.5590 C   0  0  0  0  0  0  0  0  0  0  0  0
   35.0900   32.3650   33.6400 O   0  0  0  0  0  0  0  0  0  0  0  0
   34.5100   31.8050   34.8080 C   0  0  0  0  0  0  0  0  0  0  0  0
   35.0380   30.5140   34.9230 O   0  0  0  0  0  0  0  0  0  0  0  0
   36.5920   30.2070   29.9600 H   0  0  0  0  0  0  0  0  0  0  0  0
   35.8830   28.0220   33.6620 H   0  0  0  0  0  0  0  0  0  0  0  0
   35.9170   32.2220   31.0020 H   0  0  0  0  0  0  0  0  0  0  0  0
   34.9230   32.4010   35.6610 H   0  0  0  0  0  0  0  0  0  0  0  0
   33.4120   31.8430   34.8220 H   0  0  0  0  0  0  0  0  0  0  0  0
   37.6830   23.9410   32.8470 C   0  0  0  0  0  0  0  0  0  0  0  0
   37.3470   22.5960   32.6800 C   0  0  0  0  0  0  0  0  0  0  0  0
   37.6060   21.7440   33.7600 C   0  0  0  0  0  0  0  0  0  0  0  0
   38.1660   22.2600   34.9070 N   0  0  0  0  0  0  0  0  0  0  0  0
   38.4600   23.5520   34.9960 C   0  0  0  0  0  0  0  0  0  0  0  0
   38.2320   24.3810   34.0050 N   0  0  0  0  0  0  0  0  0  0  0  0
   36.9200   22.3110   31.7510 H   0  0  0  0  0  0  0  0  0  0  0  0
   37.3370   20.7140   33.6020 H   0  0  0  0  0  0  0  0  0  0  0  0
   39.0670   24.0410   36.2770 C   0  0  1  0  0  3  0  0  0  0  0  0
   38.1490   25.0710   36.9160 C   0  0  0  0  0  3  0  0  0  0  0  0
   37.1730   25.1260   36.3750 H   0  0  0  0  0  0  0  0  0  0  0  0
   37.8530   24.4740   38.2740 C   0  0  0  0  0  3  0  0  0  0  0  0
   38.6930   24.5910   38.9850 H   0  0  0  0  0  0  0  0  0  0  0  0
   37.7870   23.1080   37.9780 O   0  0  0  0  0  0  0  0  0  0  0  0
   39.0140   22.9340   37.3350 C   0  0  0  0  0  3  0  0  0  0  0  0
   39.8720   22.9330   38.0070 H   0  0  0  0  0  0  0  0  0  0  0  0
  1 30  1  0  0  0  0
  2  3  1  0  0  0  0
  2  1  1  0  0  0  0
  2  7  1  0  0  0  0
  3 10  1  0  0  0  0
  4 11  1  6  0  0  0
  4  3  1  0  0  0  0
  4  5  1  0  0  0  0
  4 17  1  0  0  0  0
  5 12  1  0  0  0  0
  6 15  1  0  0  0  0
  6  5  1  0  0  0  0
  6  1  1  0  0  0  0
  8  2  1  0  0  0  0
  9  3  1  0  0  0  0
 13  5  1  0  0  0  0
 14  6  1  0  0  0  0
 16 21  2  0  0  0  0
 16 17  1  0  0  0  0
 17 18  2  0  0  0  0
 18 19  1  0  0  0  0
 18 26  1  0  0  0  0
 19 24  1  0  0  0  0
 20 22  1  0  0  0  0
 20 19  2  0  0  0  0
 21 20  1  0  0  0  0
 22 23  1  0  0  0  0
 23 29  1  0  0  0  0
 23 24  1  0  0  0  0
 23 28  1  0  0  0  0
 25 16  1  0  0  0  0
 27 21  1  0  0  0  0
 30 35  1  0  0  0  0
 31 30  2  0  0  0  0
 31 32  1  0  0  0  0
 32 33  2  0  0  0  0
 33 34  1  0  0  0  0
 35 34  2  0  0  0  0
 36 31  1  0  0  0  0
 37 32  1  0  0  0  0
 38 34  1  6  0  0  0
 38 39  1  0  0  0  0
 38 44  1  0  0  0  0
 39 41  1  0  0  0  0
 40 39  1  0  0  0  0
 41 42  1  0  0  0  0
 43 41  1  0  0  0  0
 44 43  1  0  0  0  0
 44 45  1  0  0  0  0
M  END
>  <minimizedAffinity>
-5.84109735

$$$$

 OpenBabel03272507493D

 45 49  0  0  1  0  0  0  0  0999 V2000
   37.0630   26.7080   32.8160 N   0  0  0  0  0  0  0  0  0  0  0  0
   37.3960   27.4170   34.0020 C   0  0  0  0  0  0  0  0  0  0  0  0
   36.4080   28.4100   34.4860 C   0  0  0  0  0  0  0  0  0  0  0  0
   35.7240   29.2060   33.4660 C   0  0  1  0  0  0  0  0  0  0  0  0
   35.4610   28.4070   32.1780 C   0  0  0  0  0  0  0  0  0  0  0  0
   36.7750   27.7000   31.8090 C   0  0  0  0  0  0  0  0  0  0  0  0
   37.6110   26.6830   34.8150 H   0  0  0  0  0  0  0  0  0  0  0  0
   38.3540   27.9510   33.8340 H   0  0  0  0  0  0  0  0  0  0  0  0
   36.8410   29.0140   35.2920 H   0  0  0  0  0  0  0  0  0  0  0  0
   35.6140   27.7340   34.9490 H   0  0  0  0  0  0  0  0  0  0  0  0
   36.3890   30.0380   33.1040 H   0  0  0  0  0  0  0  0  0  0  0  0
   34.6790   27.6630   32.3710 H   0  0  0  0  0  0  0  0  0  0  0  0
   35.2340   29.0690   31.3410 H   0  0  0  0  0  0  0  0  0  0  0  0
   37.5610   28.4610   31.6770 H   0  0  0  0  0  0  0  0  0  0  0  0
   36.6330   27.1880   30.8350 H   0  0  0  0  0  0  0  0  0  0  0  0
   34.3360   30.5250   34.9990 C   0  0  0  0  0  0  0  0  0  0  0  0
   34.3930   29.7230   33.8720 C   0  0  0  0  0  0  0  0  0  0  0  0
   33.2950   29.3680   33.1360 C   0  0  0  0  0  0  0  0  0  0  0  0
   32.0590   29.8410   33.5500 C   0  0  0  0  0  0  0  0  0  0  0  0
   31.9990   30.6390   34.6720 C   0  0  0  0  0  0  0  0  0  0  0  0
   33.1060   31.0020   35.4200 C   0  0  0  0  0  0  0  0  0  0  0  0
   30.6640   31.0140   34.9290 O   0  0  0  0  0  0  0  0  0  0  0  0
   29.9560   30.6690   33.7480 C   0  0  0  0  0  0  0  0  0  0  0  0
   30.7390   29.7140   33.0900 O   0  0  0  0  0  0  0  0  0  0  0  0
   35.1280   30.8780   35.6440 H   0  0  0  0  0  0  0  0  0  0  0  0
   33.3690   28.7500   32.2740 H   0  0  0  0  0  0  0  0  0  0  0  0
   32.9860   31.6400   36.3010 H   0  0  0  0  0  0  0  0  0  0  0  0
   29.0310   30.1450   34.0990 H   0  0  0  0  0  0  0  0  0  0  0  0
   29.6820   31.5320   33.1250 H   0  0  0  0  0  0  0  0  0  0  0  0
   37.0180   25.3000   32.6240 C   0  0  0  0  0  0  0  0  0  0  0  0
   36.3030   24.6540   31.6120 C   0  0  0  0  0  0  0  0  0  0  0  0
   36.3870   23.2560   31.5770 C   0  0  0  0  0  0  0  0  0  0  0  0
   37.1510   22.6040   32.5180 N   0  0  0  0  0  0  0  0  0  0  0  0
   37.8040   23.2830   33.4530 C   0  0  0  0  0  0  0  0  0  0  0  0
   37.7500   24.5920   33.5180 N   0  0  0  0  0  0  0  0  0  0  0  0
   35.7480   25.2610   30.9430 H   0  0  0  0  0  0  0  0  0  0  0  0
   35.8270   22.7870   30.7870 H   0  0  0  0  0  0  0  0  0  0  0  0
   38.6150   22.5020   34.4430 C   0  0  1  0  0  3  0  0  0  0  0  0
   39.4930   23.4510   35.2440 C   0  0  0  0  0  3  0  0  0  0  0  0
   39.2350   24.5150   35.0230 H   0  0  0  0  0  0  0  0  0  0  0  0
   39.0650   23.1950   36.6730 C   0  0  0  0  0  3  0  0  0  0  0  0
   39.4830   22.2550   37.0820 H   0  0  0  0  0  0  0  0  0  0  0  0
   37.6910   22.9720   36.5250 O   0  0  0  0  0  0  0  0  0  0  0  0
   37.7060   21.9670   35.5550 C   0  0  0  0  0  3  0  0  0  0  0  0
   38.0090   20.9910   35.9320 H   0  0  0  0  0  0  0  0  0  0  0  0
  1  2  1  0  0  0  0
  2  3  1  0  0  0  0
  2  7  1  0  0  0  0
  3 10  1  0  0  0  0
  3  9  1  0  0  0  0
  4 11  1  6  0  0  0
  4 17  1  0  0  0  0
  4  3  1  0  0  0  0
  5 12  1  0  0  0  0
  5  4  1  0  0  0  0
  6  5  1  0  0  0  0
  6  1  1  0  0  0  0
  8  2  1  0  0  0  0
 13  5  1  0  0  0  0
 14  6  1  0  0  0  0
 15  6  1  0  0  0  0
 16 21  1  0  0  0  0
 16 25  1  0  0  0  0
 17 16  2  0  0  0  0
 18 19  2  0  0  0  0
 18 17  1  0  0  0  0
 19 20  1  0  0  0  0
 20 22  1  0  0  0  0
 20 21  2  0  0  0  0
 21 27  1  0  0  0  0
 23 28  1  0  0  0  0
 23 22  1  0  0  0  0
 24 19  1  0  0  0  0
 24 23  1  0  0  0  0
 26 18  1  0  0  0  0
 29 23  1  0  0  0  0
 30  1  1  0  0  0  0
 30 35  1  0  0  0  0
 31 30  2  0  0  0  0
 32 31  1  0  0  0  0
 32 33  2  0  0  0  0
 33 34  1  0  0  0  0
 34 35  2  0  0  0  0
 36 31  1  0  0  0  0
 37 32  1  0  0  0  0
 38 34  1  6  0  0  0
 38 39  1  0  0  0  0
 38 44  1  0  0  0  0
 39 41  1  0  0  0  0
 40 39  1  0  0  0  0
 41 42  1  0  0  0  0
 43 41  1  0  0  0  0
 44 45  1  0  0  0  0
 44 43  1  0  0  0  0
M  END
>  <minimizedAffinity>
-5.83893442

$$$$

 OpenBabel03272507493D

 45 49  0  0  1  0  0  0  0  0999 V2000
   39.1460   25.4010   32.5700 N   0  0  0  0  0  0  0  0  0  0  0  0
   39.5170   26.3080   31.5400 C   0  0  0  0  0  0  0  0  0  0  0  0
   38.7260   27.5570   31.4340 C   0  0  0  0  0  0  0  0  0  0  0  0
   37.2850   27.4440   31.6630 C   0  0  1  0  0  0  0  0  0  0  0  0
   36.9440   26.3910   32.7330 C   0  0  0  0  0  0  0  0  0  0  0  0
   37.7420   25.1240   32.3910 C   0  0  0  0  0  0  0  0  0  0  0  0
   40.5980   26.5630   31.6520 H   0  0  0  0  0  0  0  0  0  0  0  0
   39.4440   25.7810   30.5650 H   0  0  0  0  0  0  0  0  0  0  0  0
   38.9800   28.0890   30.5090 H   0  0  0  0  0  0  0  0  0  0  0  0
   39.1410   28.1640   32.3060 H   0  0  0  0  0  0  0  0  0  0  0  0
   36.7720   27.0360   30.7490 H   0  0  0  0  0  0  0  0  0  0  0  0
   37.2470   26.7680   33.7160 H   0  0  0  0  0  0  0  0  0  0  0  0
   35.8920   26.1040   32.6830 H   0  0  0  0  0  0  0  0  0  0  0  0
   37.4660   24.7940   31.3750 H   0  0  0  0  0  0  0  0  0  0  0  0
   37.4440   24.3230   33.0980 H   0  0  0  0  0  0  0  0  0  0  0  0
   36.6750   29.7900   31.2930 C   0  0  0  0  0  0  0  0  0  0  0  0
   36.6320   28.6910   32.1330 C   0  0  0  0  0  0  0  0  0  0  0  0
   36.0440   28.7020   33.3700 C   0  0  0  0  0  0  0  0  0  0  0  0
   35.4640   29.8860   33.7980 C   0  0  0  0  0  0  0  0  0  0  0  0
   35.5060   30.9830   32.9640 C   0  0  0  0  0  0  0  0  0  0  0  0
   36.0980   30.9770   31.7130 C   0  0  0  0  0  0  0  0  0  0  0  0
   34.8680   32.0810   33.5750 O   0  0  0  0  0  0  0  0  0  0  0  0
   34.1690   31.5280   34.6790 C   0  0  0  0  0  0  0  0  0  0  0  0
   34.7840   30.3010   34.9530 O   0  0  0  0  0  0  0  0  0  0  0  0
   37.0940   29.8940   30.3020 H   0  0  0  0  0  0  0  0  0  0  0  0
   36.0260   27.8410   33.9930 H   0  0  0  0  0  0  0  0  0  0  0  0
   36.0950   31.8840   31.1020 H   0  0  0  0  0  0  0  0  0  0  0  0
   34.3930   32.2030   35.5430 H   0  0  0  0  0  0  0  0  0  0  0  0
   33.0820   31.4610   34.5300 H   0  0  0  0  0  0  0  0  0  0  0  0
   39.9730   24.8520   33.5880 C   0  0  0  0  0  0  0  0  0  0  0  0
   41.3490   25.0640   33.7000 C   0  0  0  0  0  0  0  0  0  0  0  0
   41.9950   24.4470   34.7790 C   0  0  0  0  0  0  0  0  0  0  0  0
   41.2600   23.6820   35.6550 N   0  0  0  0  0  0  0  0  0  0  0  0
   39.9520   23.5230   35.4870 C   0  0  0  0  0  0  0  0  0  0  0  0
   39.3130   24.0860   34.4890 N   0  0  0  0  0  0  0  0  0  0  0  0
   41.8110   25.6730   32.9640 H   0  0  0  0  0  0  0  0  0  0  0  0
   43.0540   24.6280   34.8380 H   0  0  0  0  0  0  0  0  0  0  0  0
   39.2200   22.6750   36.4830 C   0  0  1  0  0  3  0  0  0  0  0  0
   39.7620   22.9430   37.8780 C   0  0  0  0  0  3  0  0  0  0  0  0
   40.4730   23.8050   37.8710 H   0  0  0  0  0  0  0  0  0  0  0  0
   38.5400   23.4010   38.6420 C   0  0  0  0  0  3  0  0  0  0  0  0
   37.8720   22.5640   38.9220 H   0  0  0  0  0  0  0  0  0  0  0  0
   37.8520   24.1340   37.6680 O   0  0  0  0  0  0  0  0  0  0  0  0
   37.7840   23.1850   36.6460 C   0  0  0  0  0  3  0  0  0  0  0  0
   37.0590   22.3920   36.8230 H   0  0  0  0  0  0  0  0  0  0  0  0
  1 30  1  0  0  0  0
  2  7  1  0  0  0  0
  2  1  1  0  0  0  0
  3  2  1  0  0  0  0
  3  4  1  0  0  0  0
  3 10  1  0  0  0  0
  4 11  1  6  0  0  0
  4 17  1  0  0  0  0
  4  5  1  0  0  0  0
  5 12  1  0  0  0  0
  6  1  1  0  0  0  0
  6  5  1  0  0  0  0
  6 15  1  0  0  0  0
  8  2  1  0  0  0  0
  9  3  1  0  0  0  0
 13  5  1  0  0  0  0
 14  6  1  0  0  0  0
 16 21  2  0  0  0  0
 16 17  1  0  0  0  0
 17 18  2  0  0  0  0
 18 19  1  0  0  0  0
 18 26  1  0  0  0  0
 19 24  1  0  0  0  0
 20 22  1  0  0  0  0
 20 19  2  0  0  0  0
 21 20  1  0  0  0  0
 22 23  1  0  0  0  0
 23 24  1  0  0  0  0
 23 28  1  0  0  0  0
 25 16  1  0  0  0  0
 27 21  1  0  0  0  0
 29 23  1  0  0  0  0
 30 31  2  0  0  0  0
 30 35  1  0  0  0  0
 31 32  1  0  0  0  0
 32 37  1  0  0  0  0
 32 33  2  0  0  0  0
 34 33  1  0  0  0  0
 35 34  2  0  0  0  0
 36 31  1  0  0  0  0
 38 34  1  6  0  0  0
 38 44  1  0  0  0  0
 38 39  1  0  0  0  0
 39 41  1  0  0  0  0
 40 39  1  0  0  0  0
 41 42  1  0  0  0  0
 43 41  1  0  0  0  0
 44 45  1  0  0  0  0
 44 43  1  0  0  0  0
M  END
>  <minimizedAffinity>
-5.80323267

$$$$

 OpenBabel03272507493D

 45 49  0  0  1  0  0  0  0  0999 V2000
   39.0970   24.8110   33.9990 N   0  0  0  0  0  0  0  0  0  0  0  0
   39.8880   25.8420   33.4240 C   0  0  0  0  0  0  0  0  0  0  0  0
   39.1790   27.0760   33.0110 C   0  0  0  0  0  0  0  0  0  0  0  0
   37.8600   26.9030   32.4020 C   0  0  1  0  0  0  0  0  0  0  0  0
   37.0830   25.7230   33.0130 C   0  0  0  0  0  0  0  0  0  0  0  0
   38.0430   24.5240   33.0560 C   0  0  0  0  0  0  0  0  0  0  0  0
   40.7100   26.1070   34.1320 H   0  0  0  0  0  0  0  0  0  0  0  0
   40.4000   25.4330   32.5270 H   0  0  0  0  0  0  0  0  0  0  0  0
   39.8480   27.7200   32.4260 H   0  0  0  0  0  0  0  0  0  0  0  0
   39.0020   27.5850   34.0170 H   0  0  0  0  0  0  0  0  0  0  0  0
   37.9600   26.5950   31.3250 H   0  0  0  0  0  0  0  0  0  0  0  0
   36.7720   25.9880   34.0300 H   0  0  0  0  0  0  0  0  0  0  0  0
   36.2550   25.4200   32.3700 H   0  0  0  0  0  0  0  0  0  0  0  0
   38.3910   24.3120   32.0320 H   0  0  0  0  0  0  0  0  0  0  0  0
   37.4780   23.6380   33.4120 H   0  0  0  0  0  0  0  0  0  0  0  0
   36.7270   28.8430   31.4170 C   0  0  0  0  0  0  0  0  0  0  0  0
   36.9540   28.0700   32.5430 C   0  0  0  0  0  0  0  0  0  0  0  0
   36.4090   28.3380   33.7710 C   0  0  0  0  0  0  0  0  0  0  0  0
   35.5870   29.4490   33.8840 C   0  0  0  0  0  0  0  0  0  0  0  0
   35.3610   30.2210   32.7650 C   0  0  0  0  0  0  0  0  0  0  0  0
   35.9080   29.9540   31.5210 C   0  0  0  0  0  0  0  0  0  0  0  0
   34.5060   31.2960   33.0830 O   0  0  0  0  0  0  0  0  0  0  0  0
   33.9770   30.9750   34.3600 C   0  0  0  0  0  0  0  0  0  0  0  0
   34.8600   30.0470   34.9240 O   0  0  0  0  0  0  0  0  0  0  0  0
   37.0880   28.7230   30.4060 H   0  0  0  0  0  0  0  0  0  0  0  0
   36.6010   27.7250   34.6190 H   0  0  0  0  0  0  0  0  0  0  0  0
   35.6850   30.6100   30.6740 H   0  0  0  0  0  0  0  0  0  0  0  0
   34.0640   31.9140   34.9630 H   0  0  0  0  0  0  0  0  0  0  0  0
   32.9300   30.6420   34.3370 H   0  0  0  0  0  0  0  0  0  0  0  0
   39.2820   24.1640   35.2520 C   0  0  0  0  0  0  0  0  0  0  0  0
   38.2940   24.0170   36.2280 C   0  0  0  0  0  0  0  0  0  0  0  0
   38.6620   23.3400   37.3980 C   0  0  0  0  0  0  0  0  0  0  0  0
   39.9470   22.8660   37.5250 N   0  0  0  0  0  0  0  0  0  0  0  0
   40.8360   23.0430   36.5550 C   0  0  0  0  0  0  0  0  0  0  0  0
   40.5290   23.6710   35.4450 N   0  0  0  0  0  0  0  0  0  0  0  0
   37.3370   24.4250   36.0200 H   0  0  0  0  0  0  0  0  0  0  0  0
   37.8800   23.2420   38.1310 H   0  0  0  0  0  0  0  0  0  0  0  0
   42.2170   22.4980   36.7670 C   0  0  1  0  0  3  0  0  0  0  0  0
   42.1270   21.0730   37.2910 C   0  0  0  0  0  3  0  0  0  0  0  0
   41.0730   20.7030   37.2620 H   0  0  0  0  0  0  0  0  0  0  0  0
   42.8890   20.2760   36.2560 C   0  0  0  0  0  3  0  0  0  0  0  0
   43.9860   20.3820   36.3570 H   0  0  0  0  0  0  0  0  0  0  0  0
   42.5460   20.9400   35.0730 O   0  0  0  0  0  0  0  0  0  0  0  0
   42.8920   22.2490   35.4140 C   0  0  0  0  0  3  0  0  0  0  0  0
   43.9650   22.4370   35.4240 H   0  0  0  0  0  0  0  0  0  0  0  0
  1 30  1  0  0  0  0
  2  1  1  0  0  0  0
  2  7  1  0  0  0  0
  3  2  1  0  0  0  0
  3 10  1  0  0  0  0
  4 11  1  6  0  0  0
  4 17  1  0  0  0  0
  4  3  1  0  0  0  0
  4  5  1  0  0  0  0
  5  6  1  0  0  0  0
  5 12  1  0  0  0  0
  6 15  1  0  0  0  0
  6  1  1  0  0  0  0
  8  2  1  0  0  0  0
  9  3  1  0  0  0  0
 13  5  1  0  0  0  0
 14  6  1  0  0  0  0
 16 21  2  0  0  0  0
 16 17  1  0  0  0  0
 17 18  2  0  0  0  0
 18 19  1  0  0  0  0
 18 26  1  0  0  0  0
 19 24  1  0  0  0  0
 20 22  1  0  0  0  0
 20 19  2  0  0  0  0
 21 20  1  0  0  0  0
 22 23  1  0  0  0  0
 23 24  1  0  0  0  0
 23 28  1  0  0  0  0
 25 16  1  0  0  0  0
 27 21  1  0  0  0  0
 29 23  1  0  0  0  0
 30 35  2  0  0  0  0
 30 31  1  0  0  0  0
 31 32  2  0  0  0  0
 32 33  1  0  0  0  0
 32 37  1  0  0  0  0
 34 33  2  0  0  0  0
 35 34  1  0  0  0  0
 36 31  1  0  0  0  0
 38 34  1  6  0  0  0
 38 39  1  0  0  0  0
 40 39  1  0  0  0  0
 41 42  1  0  0  0  0
 41 39  1  0  0  0  0
 43 44  1  0  0  0  0
 43 41  1  0  0  0  0
 44 45  1  0  0  0  0
 44 38  1  0  0  0  0
M  END
>  <minimizedAffinity>
-5.78162241

$$$$

 OpenBabel03272507493D

 45 49  0  0  1  0  0  0  0  0999 V2000
   37.8270   25.1370   32.1190 N   0  0  0  0  0  0  0  0  0  0  0  0
   38.8410   26.1150   31.9260 C   0  0  0  0  0  0  0  0  0  0  0  0
   38.4290   27.5350   32.0260 C   0  0  0  0  0  0  0  0  0  0  0  0
   37.1260   27.8820   31.4570 C   0  0  1  0  0  0  0  0  0  0  0  0
   36.0930   26.7530   31.6280 C   0  0  0  0  0  0  0  0  0  0  0  0
   36.7730   25.4480   31.1850 C   0  0  0  0  0  0  0  0  0  0  0  0
   39.6740   25.9200   32.6440 H   0  0  0  0  0  0  0  0  0  0  0  0
   39.2870   25.9650   30.9200 H   0  0  0  0  0  0  0  0  0  0  0  0
   39.2410   28.1900   31.6890 H   0  0  0  0  0  0  0  0  0  0  0  0
   38.3280   27.6630   33.1560 H   0  0  0  0  0  0  0  0  0  0  0  0
   37.1980   27.9770   30.3390 H   0  0  0  0  0  0  0  0  0  0  0  0
   35.8090   26.6860   32.6840 H   0  0  0  0  0  0  0  0  0  0  0  0
   35.2440   26.8900   30.9560 H   0  0  0  0  0  0  0  0  0  0  0  0
   37.1040   25.5580   30.1400 H   0  0  0  0  0  0  0  0  0  0  0  0
   36.0180   24.6350   31.2170 H   0  0  0  0  0  0  0  0  0  0  0  0
   36.5410   30.2600   31.3370 C   0  0  0  0  0  0  0  0  0  0  0  0
   36.4860   29.0790   32.0560 C   0  0  0  0  0  0  0  0  0  0  0  0
   35.8990   28.9660   33.2880 C   0  0  0  0  0  0  0  0  0  0  0  0
   35.3310   30.1040   33.8400 C   0  0  0  0  0  0  0  0  0  0  0  0
   35.3850   31.2820   33.1260 C   0  0  0  0  0  0  0  0  0  0  0  0
   35.9770   31.4020   31.8800 C   0  0  0  0  0  0  0  0  0  0  0  0
   34.7580   32.3170   33.8500 O   0  0  0  0  0  0  0  0  0  0  0  0
   34.0530   31.6570   34.8900 C   0  0  0  0  0  0  0  0  0  0  0  0
   34.6550   30.4020   35.0330 O   0  0  0  0  0  0  0  0  0  0  0  0
   36.9620   30.4630   30.3620 H   0  0  0  0  0  0  0  0  0  0  0  0
   35.8710   28.0440   33.8180 H   0  0  0  0  0  0  0  0  0  0  0  0
   35.9830   32.3690   31.3680 H   0  0  0  0  0  0  0  0  0  0  0  0
   34.2850   32.2350   35.8200 H   0  0  0  0  0  0  0  0  0  0  0  0
   32.9660   31.6180   34.7360 H   0  0  0  0  0  0  0  0  0  0  0  0
   37.8240   24.0530   33.0380 C   0  0  0  0  0  0  0  0  0  0  0  0
   38.1970   24.1430   34.3810 C   0  0  0  0  0  0  0  0  0  0  0  0
   38.1180   22.9670   35.1360 C   0  0  0  0  0  0  0  0  0  0  0  0
   37.6890   21.8070   34.5330 N   0  0  0  0  0  0  0  0  0  0  0  0
   37.3510   21.7940   33.2490 C   0  0  0  0  0  0  0  0  0  0  0  0
   37.4100   22.8760   32.5100 N   0  0  0  0  0  0  0  0  0  0  0  0
   38.5130   25.0920   34.7370 H   0  0  0  0  0  0  0  0  0  0  0  0
   38.4110   23.0670   36.1670 H   0  0  0  0  0  0  0  0  0  0  0  0
   36.8920   20.4920   32.6620 C   0  0  1  0  0  3  0  0  0  0  0  0
   35.5690   20.0870   33.2930 C   0  0  0  0  0  3  0  0  0  0  0  0
   35.1650   20.9070   33.9340 H   0  0  0  0  0  0  0  0  0  0  0  0
   34.6400   19.9760   32.1040 C   0  0  0  0  0  3  0  0  0  0  0  0
   34.7970   19.0470   31.5240 H   0  0  0  0  0  0  0  0  0  0  0  0
   35.0920   21.0190   31.2890 O   0  0  0  0  0  0  0  0  0  0  0  0
   36.4500   20.7020   31.2100 C   0  0  0  0  0  3  0  0  0  0  0  0
   36.6720   19.8550   30.5620 H   0  0  0  0  0  0  0  0  0  0  0  0
  1 30  1  0  0  0  0
  2  3  1  0  0  0  0
  2  1  1  0  0  0  0
  2  7  1  0  0  0  0
  3 10  1  0  0  0  0
  4 11  1  6  0  0  0
  4  5  1  0  0  0  0
  4  3  1  0  0  0  0
  4 17  1  0  0  0  0
  5 12  1  0  0  0  0
  6 15  1  0  0  0  0
  6  5  1  0  0  0  0
  6  1  1  0  0  0  0
  8  2  1  0  0  0  0
  9  3  1  0  0  0  0
 13  5  1  0  0  0  0
 14  6  1  0  0  0  0
 16 21  2  0  0  0  0
 16 17  1  0  0  0  0
 17 18  2  0  0  0  0
 18 26  1  0  0  0  0
 18 19  1  0  0  0  0
 19 24  1  0  0  0  0
 20 19  2  0  0  0  0
 20 22  1  0  0  0  0
 21 20  1  0  0  0  0
 22 23  1  0  0  0  0
 23 24  1  0  0  0  0
 23 28  1  0  0  0  0
 25 16  1  0  0  0  0
 27 21  1  0  0  0  0
 29 23  1  0  0  0  0
 30 31  1  0  0  0  0
 31 36  1  0  0  0  0
 31 32  2  0  0  0  0
 32 37  1  0  0  0  0
 33 32  1  0  0  0  0
 34 33  2  0  0  0  0
 35 30  2  0  0  0  0
 35 34  1  0  0  0  0
 38 34  1  1  0  0  0
 38 39  1  0  0  0  0
 39 40  1  0  0  0  0
 41 39  1  0  0  0  0
 42 41  1  0  0  0  0
 43 41  1  0  0  0  0
 44 43  1  0  0  0  0
 44 38  1  0  0  0  0
 45 44  1  0  0  0  0
M  END
>  <minimizedAffinity>
-5.75794029

$$$$
