
 OpenBabel03272508283D

 37 40  0  0  1  0  0  0  0  0999 V2000
   33.8200   28.8580   47.2560 C   0  0  2  0  0  0  0  0  0  0  0  0
   34.5190   28.1280   48.3920 C   0  0  2  0  0  0  0  0  0  0  0  0
   33.5970   28.0470   49.3980 O   0  0  0  0  0  0  0  0  0  0  0  0
   32.3360   28.1270   48.9010 C   0  0  0  0  0  0  0  0  0  0  0  0
   32.4210   28.2460   47.3950 C   0  0  1  0  0  0  0  0  0  0  0  0
   33.6890   29.9240   47.4600 H   0  0  0  0  0  0  0  0  0  0  0  0
   34.7850   27.1300   47.9670 H   0  0  0  0  0  0  0  0  0  0  0  0
   31.7220   27.2670   49.2220 H   0  0  0  0  0  0  0  0  0  0  0  0
   31.8720   29.0720   49.2980 H   0  0  0  0  0  0  0  0  0  0  0  0
   32.4540   27.2290   46.9530 H   0  0  0  0  0  0  0  0  0  0  0  0
   35.6260   30.3610   49.0800 C   0  0  1  0  0  0  0  0  0  0  0  0
   35.7020   28.9490   48.7900 C   0  0  1  0  0  0  0  0  0  0  0  0
   35.9330   29.3650   50.2070 C   0  0  0  0  0  0  0  0  0  0  0  0
   34.7370   30.9540   49.3440 H   0  0  0  0  0  0  0  0  0  0  0  0
   36.6450   28.6010   48.2770 H   0  0  0  0  0  0  0  0  0  0  0  0
   35.1250   29.0890   50.9080 H   0  0  0  0  0  0  0  0  0  0  0  0
   36.9400   29.3470   50.6460 H   0  0  0  0  0  0  0  0  0  0  0  0
   36.8030   31.2830   48.8120 C   0  0  0  0  0  0  0  0  0  0  0  0
   37.0550   32.2940   49.7400 C   0  0  0  0  0  0  0  0  0  0  0  0
   38.1270   33.1210   49.4330 C   0  0  0  0  0  0  0  0  0  0  0  0
   38.8640   32.9290   48.2880 N   0  0  0  0  0  0  0  0  0  0  0  0
   38.5790   31.9330   47.4200 C   0  0  0  0  0  0  0  0  0  0  0  0
   37.5400   31.1040   47.6850 N   0  0  0  0  0  0  0  0  0  0  0  0
   36.4490   32.3980   50.6160 H   0  0  0  0  0  0  0  0  0  0  0  0
   38.3550   33.9180   50.1290 H   0  0  0  0  0  0  0  0  0  0  0  0
   39.1920   31.8320   46.5390 H   0  0  0  0  0  0  0  0  0  0  0  0
   34.3650   28.5970   46.0120 O   0  0  0  0  0  0  0  0  0  0  0  0
   34.3210   27.6170   45.8650 H   0  0  0  0  0  0  0  0  0  0  0  0
   31.4630   29.0440   46.8330 O   0  0  0  0  0  0  0  0  0  0  0  0
   30.5030   28.3680   46.1080 C   0  0  2  0  0  3  0  0  0  0  0  0
   29.2630   28.0650   46.9310 C   0  0  0  0  0  3  0  0  0  0  0  0
   28.4820   28.8200   46.8460 H   0  0  0  0  0  0  0  0  0  0  0  0
   28.7790   26.8100   46.2250 C   0  0  0  0  0  3  0  0  0  0  0  0
   28.1170   27.0890   45.3640 H   0  0  0  0  0  0  0  0  0  0  0  0
   29.9020   26.1230   45.8070 O   0  0  0  0  0  0  0  0  0  0  0  0
   30.9980   26.9680   45.8490 C   0  0  0  0  0  3  0  0  0  0  0  0
   31.6630   26.8840   44.9660 H   0  0  0  0  0  0  0  0  0  0  0  0
  1  5  1  0  0  0  0
  1  6  1  1  0  0  0
  1  2  1  0  0  0  0
  2  7  1  6  0  0  0
  2 12  1  0  0  0  0
  2  3  1  0  0  0  0
  4  8  1  0  0  0  0
  4  9  1  0  0  0  0
  4  3  1  0  0  0  0
  5 10  1  6  0  0  0
  5  4  1  0  0  0  0
 11 14  1  6  0  0  0
 11 13  1  0  0  0  0
 12 15  1  6  0  0  0
 12 11  1  0  0  0  0
 12 13  1  0  0  0  0
 13 17  1  0  0  0  0
 13 16  1  0  0  0  0
 18 11  1  0  0  0  0
 18 19  1  0  0  0  0
 19 24  1  0  0  0  0
 20 19  2  0  0  0  0
 20 25  1  0  0  0  0
 21 20  1  0  0  0  0
 22 23  1  0  0  0  0
 22 21  2  0  0  0  0
 23 18  2  0  0  0  0
 26 22  1  0  0  0  0
 27  1  1  0  0  0  0
 28 27  1  0  0  0  0
 29  5  1  0  0  0  0
 30 29  1  1  0  0  0
 30 31  1  0  0  0  0
 32 31  1  0  0  0  0
 33 31  1  0  0  0  0
 34 33  1  0  0  0  0
 35 36  1  0  0  0  0
 35 33  1  0  0  0  0
 36 30  1  0  0  0  0
 37 36  1  0  0  0  0
M  END
>  <minimizedAffinity>
-4.86576891

>  <minimizedRMSD>
0.853345752

$$$$
