
 OpenBabel03272506443D

 31 33  0  0  1  0  0  0  0  0999 V2000
   32.2410   28.1750   47.5280 C   0  0  2  0  0  0  0  0  0  0  0  0
   33.5120   28.1370   48.3520 C   0  0  1  0  0  0  0  0  0  0  0  0
   34.0890   26.9030   48.1630 O   0  0  0  0  0  0  0  0  0  0  0  0
   33.4180   26.2400   47.1630 C   0  0  0  0  0  0  0  0  0  0  0  0
   32.6820   27.3070   46.3580 C   0  0  1  0  0  0  0  0  0  0  0  0
   31.3930   27.6740   48.0030 H   0  0  0  0  0  0  0  0  0  0  0  0
   33.3200   28.3140   49.4230 H   0  0  0  0  0  0  0  0  0  0  0  0
   34.0500   25.5980   46.5480 H   0  0  0  0  0  0  0  0  0  0  0  0
   32.5960   25.6670   47.6830 H   0  0  0  0  0  0  0  0  0  0  0  0
   33.3580   27.8750   45.6870 H   0  0  0  0  0  0  0  0  0  0  0  0
   31.9550   29.4850   47.1170 O   0  0  0  0  0  0  0  0  0  0  0  0
   32.5010   29.6910   46.3160 H   0  0  0  0  0  0  0  0  0  0  0  0
   34.6330   29.3820   47.6390 S   0  0  0  0  0  0  0  0  0  0  0  0
   37.2030   29.2590   50.6540 C   0  0  0  0  0  0  0  0  0  0  0  0
   37.6310   30.5680   50.8270 C   0  0  0  0  0  0  0  0  0  0  0  0
   37.1060   31.5410   49.9760 C   0  0  0  0  0  0  0  0  0  0  0  0
   36.2140   31.1620   49.0340 N   0  0  0  0  0  0  0  0  0  0  0  0
   35.8120   29.8700   48.8880 C   0  0  0  0  0  0  0  0  0  0  0  0
   36.3060   28.9020   49.7000 N   0  0  0  0  0  0  0  0  0  0  0  0
   37.6200   28.5160   51.3230 H   0  0  0  0  0  0  0  0  0  0  0  0
   38.3280   30.9050   51.5530 H   0  0  0  0  0  0  0  0  0  0  0  0
   37.4190   32.5720   50.0840 H   0  0  0  0  0  0  0  0  0  0  0  0
   31.6010   26.7480   45.6920 O   0  0  0  0  0  0  0  0  0  0  0  0
   31.4640   27.1890   44.4010 C   0  0  1  0  0  3  0  0  0  0  0  0
   30.2810   28.1360   44.3160 C   0  0  0  0  0  3  0  0  0  0  0  0
   29.3510   27.6100   44.0300 H   0  0  0  0  0  0  0  0  0  0  0  0
   30.7520   29.0410   43.1730 C   0  0  0  0  0  3  0  0  0  0  0  0
   30.2030   29.9860   43.1690 H   0  0  0  0  0  0  0  0  0  0  0  0
   32.0590   29.2980   43.5970 O   0  0  0  0  0  0  0  0  0  0  0  0
   32.5840   28.0440   43.8910 C   0  0  0  0  0  3  0  0  0  0  0  0
   33.3870   28.1870   44.6420 H   0  0  0  0  0  0  0  0  0  0  0  0
  1  6  1  1  0  0  0
  1  2  1  0  0  0  0
  2  7  1  1  0  0  0
  3  2  1  0  0  0  0
  4  9  1  0  0  0  0
  4  3  1  0  0  0  0
  5 10  1  6  0  0  0
  5  4  1  0  0  0  0
  5  1  1  0  0  0  0
  8  4  1  0  0  0  0
 11  1  1  0  0  0  0
 12 11  1  0  0  0  0
 13  2  1  0  0  0  0
 13 18  1  0  0  0  0
 14 15  1  0  0  0  0
 14 20  1  0  0  0  0
 15 21  1  0  0  0  0
 16 22  1  0  0  0  0
 16 15  2  0  0  0  0
 17 16  1  0  0  0  0
 18 17  2  0  0  0  0
 18 19  1  0  0  0  0
 19 14  2  0  0  0  0
 23  5  1  0  0  0  0
 24 23  1  1  0  0  0
 25 24  1  0  0  0  0
 26 25  1  0  0  0  0
 27 29  1  0  0  0  0
 27 25  1  0  0  0  0
 28 27  1  0  0  0  0
 29 30  1  0  0  0  0
 30 24  1  0  0  0  0
 30 31  1  0  0  0  0
M  END
>  <minimizedAffinity>
-3.75887847

>  <minimizedRMSD>
0.659318089

$$$$
