
 OpenBabel03272506443D

 31 33  0  0  1  0  0  0  0  0999 V2000
   32.3510   28.3660   47.4260 C   0  0  2  0  0  0  0  0  0  0  0  0
   33.5490   28.3940   48.3540 C   0  0  1  0  0  0  0  0  0  0  0  0
   34.0990   27.1330   48.3560 O   0  0  0  0  0  0  0  0  0  0  0  0
   33.4890   26.3740   47.3850 C   0  0  0  0  0  0  0  0  0  0  0  0
   32.8580   27.3570   46.4050 C   0  0  1  0  0  0  0  0  0  0  0  0
   31.4520   27.9440   47.8810 H   0  0  0  0  0  0  0  0  0  0  0  0
   33.2780   28.7000   49.3770 H   0  0  0  0  0  0  0  0  0  0  0  0
   34.1480   25.6500   46.9040 H   0  0  0  0  0  0  0  0  0  0  0  0
   32.6090   25.8850   47.8960 H   0  0  0  0  0  0  0  0  0  0  0  0
   33.6050   27.8270   45.7330 H   0  0  0  0  0  0  0  0  0  0  0  0
   32.1440   29.6260   46.8460 O   0  0  0  0  0  0  0  0  0  0  0  0
   32.7600   29.7240   46.0750 H   0  0  0  0  0  0  0  0  0  0  0  0
   34.7660   29.5200   47.6010 S   0  0  0  0  0  0  0  0  0  0  0  0
   37.3230   29.3250   50.6230 C   0  0  0  0  0  0  0  0  0  0  0  0
   37.8240   30.6110   50.7640 C   0  0  0  0  0  0  0  0  0  0  0  0
   37.3570   31.5920   49.8880 C   0  0  0  0  0  0  0  0  0  0  0  0
   36.4460   31.2410   48.9540 N   0  0  0  0  0  0  0  0  0  0  0  0
   35.9700   29.9710   48.8400 C   0  0  0  0  0  0  0  0  0  0  0  0
   36.4070   28.9970   49.6770 N   0  0  0  0  0  0  0  0  0  0  0  0
   37.6950   28.5760   51.3110 H   0  0  0  0  0  0  0  0  0  0  0  0
   38.5400   30.9250   51.4840 H   0  0  0  0  0  0  0  0  0  0  0  0
   37.7290   32.6050   49.9720 H   0  0  0  0  0  0  0  0  0  0  0  0
   31.8160   26.7510   45.7180 O   0  0  0  0  0  0  0  0  0  0  0  0
   32.0390   26.6400   44.3690 C   0  0  1  0  0  3  0  0  0  0  0  0
   33.0930   27.6450   43.9470 C   0  0  0  0  0  3  0  0  0  0  0  0
   32.6420   28.5940   43.5990 H   0  0  0  0  0  0  0  0  0  0  0  0
   33.7180   26.8900   42.7690 C   0  0  0  0  0  3  0  0  0  0  0  0
   34.7070   27.2870   42.5310 H   0  0  0  0  0  0  0  0  0  0  0  0
   33.8830   25.6320   43.3550 O   0  0  0  0  0  0  0  0  0  0  0  0
   32.6450   25.3450   43.9210 C   0  0  0  0  0  3  0  0  0  0  0  0
   32.8190   24.6430   44.7630 H   0  0  0  0  0  0  0  0  0  0  0  0
  1  6  1  1  0  0  0
  1  2  1  0  0  0  0
  2  3  1  0  0  0  0
  2  7  1  1  0  0  0
  4  9  1  0  0  0  0
  4  3  1  0  0  0  0
  5 10  1  6  0  0  0
  5  4  1  0  0  0  0
  5  1  1  0  0  0  0
  8  4  1  0  0  0  0
 11  1  1  0  0  0  0
 12 11  1  0  0  0  0
 13  2  1  0  0  0  0
 13 18  1  0  0  0  0
 14 15  1  0  0  0  0
 14 20  1  0  0  0  0
 15 21  1  0  0  0  0
 16 22  1  0  0  0  0
 16 15  2  0  0  0  0
 17 16  1  0  0  0  0
 18 17  2  0  0  0  0
 18 19  1  0  0  0  0
 19 14  2  0  0  0  0
 23  5  1  0  0  0  0
 24 23  1  1  0  0  0
 25 24  1  0  0  0  0
 26 25  1  0  0  0  0
 27 29  1  0  0  0  0
 27 25  1  0  0  0  0
 28 27  1  0  0  0  0
 29 30  1  0  0  0  0
 30 24  1  0  0  0  0
 30 31  1  0  0  0  0
M  END
>  <minimizedAffinity>
-3.73109889

>  <minimizedRMSD>
0.288211942

$$$$
