REMARK  Name = 
REMARK  4 active torsions:
REMARK  status: ('A' for Active; 'I' for Inactive)
REMARK    1  A    between atoms: C_1  and  C_2
REMARK    2  A    between atoms: C_1  and  C_13
REMARK    3  A    between atoms: C_13  and  C_18
REMARK    4  A    between atoms: C_16  and  C_36
REMARK                            x       y       z     vdW  Elec       q    Type
REMARK                         _______ _______ _______ _____ _____    ______ ____
ROOT
ATOM      1  C   UNL     1      34.824  28.364  49.423  0.00  0.00    +0.000 C 
ATOM      2  H   UNL     1      35.726  28.155  48.808  0.00  0.00    +0.000 HD
ATOM      3  H   UNL     1      34.781  27.519  50.152  0.00  0.00    +0.000 HD
ENDROOT
BRANCH   1   4
ATOM      4  C   UNL     1      33.593  28.306  48.559  0.00  0.00    +0.000 A 
ATOM      5  C   UNL     1      33.689  28.686  47.168  0.00  0.00    +0.000 A 
ATOM      6  S   UNL     1      32.014  28.441  46.642  0.00  0.00    +0.000 S 
ATOM      7  C   UNL     1      31.397  27.870  48.320  0.00  0.00    +0.000 A 
ATOM      8  N   UNL     1      32.416  27.938  48.956  0.00  0.00    +0.000 NA
ATOM      9  N   UNL     1      30.079  27.457  48.763  0.00  0.00    +0.000 N 
ATOM     10  C   UNL     1      29.229  26.883  47.783  0.00  0.00    +0.000 C 
ATOM     11  C   UNL     1      27.791  26.809  48.171  0.00  0.00    +0.000 C 
ATOM     12  N   UNL     1      27.486  27.554  49.378  0.00  0.00    +0.000 NA
ATOM     13  C   UNL     1      28.384  27.017  50.397  0.00  0.00    +0.000 C 
ATOM     14  C   UNL     1      29.721  27.656  50.156  0.00  0.00    +0.000 C 
ATOM     15  H   UNL     1      34.546  29.009  46.664  0.00  0.00    +0.000 HD
ATOM     16  H   UNL     1      29.272  27.567  46.885  0.00  0.00    +0.000 HD
ATOM     17  H   UNL     1      29.579  25.906  47.377  0.00  0.00    +0.000 HD
ATOM     18  H   UNL     1      27.103  27.103  47.331  0.00  0.00    +0.000 HD
ATOM     19  H   UNL     1      27.540  25.752  48.406  0.00  0.00    +0.000 HD
ATOM     20  H   UNL     1      27.760  28.546  49.197  0.00  0.00    +0.000 HD
ATOM     21  H   UNL     1      28.434  25.912  50.356  0.00  0.00    +0.000 HD
ATOM     22  H   UNL     1      27.982  27.373  51.374  0.00  0.00    +0.000 HD
ATOM     23  H   UNL     1      29.657  28.728  50.422  0.00  0.00    +0.000 HD
ATOM     24  H   UNL     1      30.476  27.153  50.795  0.00  0.00    +0.000 HD
ENDBRANCH   1   4
BRANCH   1  25
ATOM     25  C   UNL     1      34.961  29.651  50.122  0.00  0.00    +0.000 C 
ATOM     26  H   UNL     1      34.044  30.273  49.934  0.00  0.00    +0.000 HD
ATOM     27  H   UNL     1      35.048  29.492  51.216  0.00  0.00    +0.000 HD
BRANCH  25  32
ATOM     28  C   UNL     1      37.501  32.312  49.539  0.00  0.00    +0.000 A 
ATOM     29  C   UNL     1      38.287  31.762  48.516  0.00  0.00    +0.000 A 
ATOM     30  C   UNL     1      37.928  30.491  48.048  0.00  0.00    +0.000 A 
ATOM     31  N   UNL     1      36.854  29.864  48.601  0.00  0.00    +0.000 NA
ATOM     32  C   UNL     1      36.130  30.439  49.586  0.00  0.00    +0.000 A 
ATOM     33  N   UNL     1      36.458  31.637  50.035  0.00  0.00    +0.000 NA
ATOM     34  H   UNL     1      37.783  33.297  49.897  0.00  0.00    +0.000 HD
ATOM     35  H   UNL     1      39.125  32.256  48.087  0.00  0.00    +0.000 HD
BRANCH  30  36
ATOM     36  C   UNL     1      38.676  29.791  46.966  0.00  0.00    +0.000 C 
ATOM     37  C   UNL     1      40.142  30.081  46.989  0.00  0.00    +0.000 C 
ATOM     38  H   UNL     1      40.717  29.139  46.815  0.00  0.00    +0.000 HD
ATOM     39  C   UNL     1      40.374  31.075  45.856  0.00  0.00    +0.000 C 
ATOM     40  H   UNL     1      40.893  30.591  45.009  0.00  0.00    +0.000 HD
ATOM     41  O   UNL     1      39.113  31.452  45.429  0.00  0.00    +0.000 OA
ATOM     42  C   UNL     1      38.258  30.393  45.621  0.00  0.00    +0.000 C 
ATOM     43  H   UNL     1      37.208  30.791  45.740  0.00  0.00    +0.000 HD
ENDBRANCH  30  36
ENDBRANCH  25  32
ENDBRANCH   1  25
TORSDOF 4
