
 OpenBabel03272500473D

 31 34  0  0  1  0  0  0  0  0999 V2000
   35.9850   29.2710   34.3310 C   0  0  0  0  0  0  0  0  0  0  0  0
   35.9340   28.7970   33.0140 C   0  0  0  0  0  0  0  0  0  0  0  0
   36.6330   27.5740   32.9840 C   0  0  0  0  0  0  0  0  0  0  0  0
   37.0690   27.3520   34.2310 N   0  0  0  0  0  0  0  0  0  0  0  0
   36.6800   28.3460   34.9820 N   0  0  0  0  0  0  0  0  0  0  0  0
   35.4450   29.2880   32.1810 H   0  0  0  0  0  0  0  0  0  0  0  0
   36.7600   26.9780   32.0990 H   0  0  0  0  0  0  0  0  0  0  0  0
   34.2130   31.0190   34.1740 C   0  0  0  0  0  0  0  0  0  0  0  0
   35.3800   30.4960   34.7500 C   0  0  0  0  0  0  0  0  0  0  0  0
   35.9590   31.2310   35.7840 C   0  0  0  0  0  0  0  0  0  0  0  0
   35.3850   32.3970   36.1840 N   0  0  0  0  0  0  0  0  0  0  0  0
   34.2530   32.8630   35.5940 C   0  0  0  0  0  0  0  0  0  0  0  0
   33.6610   32.1680   34.5820 N   0  0  0  0  0  0  0  0  0  0  0  0
   33.8080   30.4220   33.3890 H   0  0  0  0  0  0  0  0  0  0  0  0
   36.8730   30.9060   36.2980 H   0  0  0  0  0  0  0  0  0  0  0  0
   33.7730   33.7930   35.8960 H   0  0  0  0  0  0  0  0  0  0  0  0
   37.8330   26.2130   34.6590 C   0  0  1  0  0  0  0  0  0  0  0  0
   39.2720   26.4710   35.1890 C   0  0  0  0  0  0  0  0  0  0  0  0
   38.1820   26.0300   36.0830 C   0  0  2  0  0  0  0  0  0  0  0  0
   37.7470   25.3240   33.9770 H   0  0  0  0  0  0  0  0  0  0  0  0
   40.0690   25.8360   34.8100 H   0  0  0  0  0  0  0  0  0  0  0  0
   39.5800   27.5410   35.2490 H   0  0  0  0  0  0  0  0  0  0  0  0
   37.7490   26.8130   36.7650 H   0  0  0  0  0  0  0  0  0  0  0  0
   38.0810   24.6660   36.6730 C   0  0  2  0  0  3  0  0  0  0  0  0
   38.0390   24.6790   38.1880 C   0  0  0  0  0  3  0  0  0  0  0  0
   37.0160   24.8570   38.5730 H   0  0  0  0  0  0  0  0  0  0  0  0
   38.5220   23.2750   38.4890 C   0  0  0  0  0  3  0  0  0  0  0  0
   39.0340   23.2200   39.4780 H   0  0  0  0  0  0  0  0  0  0  0  0
   39.3020   22.8450   37.4530 O   0  0  0  0  0  0  0  0  0  0  0  0
   39.2480   23.7680   36.4310 C   0  0  0  0  0  3  0  0  0  0  0  0
   39.1910   23.3000   35.4270 H   0  0  0  0  0  0  0  0  0  0  0  0
  1  9  1  0  0  0  0
  1  5  2  0  0  0  0
  2  1  1  0  0  0  0
  3  2  2  0  0  0  0
  3  4  1  0  0  0  0
  4 17  1  0  0  0  0
  4  5  1  0  0  0  0
  6  2  1  0  0  0  0
  7  3  1  0  0  0  0
  8 13  2  0  0  0  0
  8  9  1  0  0  0  0
  9 10  2  0  0  0  0
 10 11  1  0  0  0  0
 10 15  1  0  0  0  0
 12 16  1  0  0  0  0
 12 11  2  0  0  0  0
 13 12  1  0  0  0  0
 14  8  1  0  0  0  0
 17 20  1  6  0  0  0
 17 18  1  0  0  0  0
 17 19  1  0  0  0  0
 18 22  1  0  0  0  0
 18 19  1  0  0  0  0
 19 24  1  0  0  0  0
 19 23  1  1  0  0  0
 21 18  1  0  0  0  0
 24 30  1  1  0  0  0
 24 25  1  0  0  0  0
 25 27  1  0  0  0  0
 25 26  1  0  0  0  0
 27 28  1  0  0  0  0
 29 27  1  0  0  0  0
 30 29  1  0  0  0  0
 31 30  1  0  0  0  0
M  END
>  <minimizedAffinity>
-5.15092802

$$$$

 OpenBabel03272500473D

 31 34  0  0  1  0  0  0  0  0999 V2000
   39.6330   23.3250   36.4220 C   0  0  0  0  0  0  0  0  0  0  0  0
   38.6920   23.3620   37.4580 C   0  0  0  0  0  0  0  0  0  0  0  0
   37.8030   24.4180   37.1770 C   0  0  0  0  0  0  0  0  0  0  0  0
   38.2140   24.9680   36.0270 N   0  0  0  0  0  0  0  0  0  0  0  0
   39.2690   24.3170   35.6190 N   0  0  0  0  0  0  0  0  0  0  0  0
   38.6610   22.6960   38.3130 H   0  0  0  0  0  0  0  0  0  0  0  0
   36.9710   24.6850   37.8030 H   0  0  0  0  0  0  0  0  0  0  0  0
   41.2260   21.7320   37.4920 C   0  0  0  0  0  0  0  0  0  0  0  0
   40.7010   22.3780   36.3620 C   0  0  0  0  0  0  0  0  0  0  0  0
   41.2710   22.0610   35.1310 C   0  0  0  0  0  0  0  0  0  0  0  0
   42.2880   21.1600   35.0720 N   0  0  0  0  0  0  0  0  0  0  0  0
   42.7620   20.5600   36.1960 C   0  0  0  0  0  0  0  0  0  0  0  0
   42.2260   20.8470   37.4150 N   0  0  0  0  0  0  0  0  0  0  0  0
   40.7580   22.0080   38.4090 H   0  0  0  0  0  0  0  0  0  0  0  0
   40.9310   22.5120   34.1900 H   0  0  0  0  0  0  0  0  0  0  0  0
   43.5750   19.8340   36.1760 H   0  0  0  0  0  0  0  0  0  0  0  0
   37.5940   26.0830   35.3650 C   0  0  1  0  0  0  0  0  0  0  0  0
   38.1630   27.5000   35.6600 C   0  0  0  0  0  0  0  0  0  0  0  0
   38.3280   26.8550   34.3410 C   0  0  2  0  0  0  0  0  0  0  0  0
   36.4720   26.0340   35.3420 H   0  0  0  0  0  0  0  0  0  0  0  0
   37.4510   28.2890   35.8880 H   0  0  0  0  0  0  0  0  0  0  0  0
   39.0560   27.5320   36.3270 H   0  0  0  0  0  0  0  0  0  0  0  0
   39.3520   26.4510   34.1080 H   0  0  0  0  0  0  0  0  0  0  0  0
   37.6050   27.2720   33.1070 C   0  0  2  0  0  3  0  0  0  0  0  0
   36.4920   28.2640   33.3800 C   0  0  0  0  0  3  0  0  0  0  0  0
   36.8700   29.3040   33.4390 H   0  0  0  0  0  0  0  0  0  0  0  0
   35.6230   28.0450   32.1600 C   0  0  0  0  0  3  0  0  0  0  0  0
   34.5520   28.2740   32.3720 H   0  0  0  0  0  0  0  0  0  0  0  0
   35.8200   26.7740   31.6980 O   0  0  0  0  0  0  0  0  0  0  0  0
   36.8540   26.1930   32.4020 C   0  0  0  0  0  3  0  0  0  0  0  0
   37.5280   25.5890   31.7610 H   0  0  0  0  0  0  0  0  0  0  0  0
  1  2  1  0  0  0  0
  2  6  1  0  0  0  0
  3  2  2  0  0  0  0
  3  7  1  0  0  0  0
  4  3  1  0  0  0  0
  5  4  1  0  0  0  0
  5  1  2  0  0  0  0
  8 14  1  0  0  0  0
  9  1  1  0  0  0  0
  9  8  2  0  0  0  0
 10  9  1  0  0  0  0
 11 10  2  0  0  0  0
 11 12  1  0  0  0  0
 12 13  2  0  0  0  0
 13  8  1  0  0  0  0
 15 10  1  0  0  0  0
 16 12  1  0  0  0  0
 17 20  1  6  0  0  0
 17 18  1  0  0  0  0
 17  4  1  0  0  0  0
 18 21  1  0  0  0  0
 18 22  1  0  0  0  0
 19 23  1  6  0  0  0
 19 17  1  0  0  0  0
 19 18  1  0  0  0  0
 24 30  1  1  0  0  0
 24 25  1  0  0  0  0
 24 19  1  0  0  0  0
 25 26  1  0  0  0  0
 27 28  1  0  0  0  0
 27 25  1  0  0  0  0
 29 27  1  0  0  0  0
 29 30  1  0  0  0  0
 31 30  1  0  0  0  0
M  END
>  <minimizedAffinity>
-5.06267214

$$$$

 OpenBabel03272500473D

 31 34  0  0  1  0  0  0  0  0999 V2000
   38.0960   25.8490   35.4170 C   0  0  0  0  0  0  0  0  0  0  0  0
   38.1040   27.1810   35.8460 C   0  0  0  0  0  0  0  0  0  0  0  0
   37.4520   27.9420   34.8560 C   0  0  0  0  0  0  0  0  0  0  0  0
   37.0830   27.0840   33.8950 N   0  0  0  0  0  0  0  0  0  0  0  0
   37.4680   25.8880   34.2470 N   0  0  0  0  0  0  0  0  0  0  0  0
   38.5340   27.5490   36.7700 H   0  0  0  0  0  0  0  0  0  0  0  0
   37.3080   29.0060   34.9140 H   0  0  0  0  0  0  0  0  0  0  0  0
   39.7790   24.0350   35.7290 C   0  0  0  0  0  0  0  0  0  0  0  0
   38.6710   24.7760   36.1660 C   0  0  0  0  0  0  0  0  0  0  0  0
   38.1230   24.4280   37.3990 C   0  0  0  0  0  0  0  0  0  0  0  0
   38.6690   23.4070   38.1140 N   0  0  0  0  0  0  0  0  0  0  0  0
   39.7430   22.7180   37.6480 C   0  0  0  0  0  0  0  0  0  0  0  0
   40.3030   23.0340   36.4460 N   0  0  0  0  0  0  0  0  0  0  0  0
   40.1620   24.3390   34.7820 H   0  0  0  0  0  0  0  0  0  0  0  0
   37.2560   24.9470   37.8280 H   0  0  0  0  0  0  0  0  0  0  0  0
   40.2000   21.8970   38.2000 H   0  0  0  0  0  0  0  0  0  0  0  0
   36.3850   27.4310   32.6880 C   0  0  1  0  0  0  0  0  0  0  0  0
   35.3940   28.6280   32.7500 C   0  0  0  0  0  0  0  0  0  0  0  0
   36.6620   28.7070   31.9970 C   0  0  2  0  0  0  0  0  0  0  0  0
   36.0010   26.5460   32.1120 H   0  0  0  0  0  0  0  0  0  0  0  0
   34.4100   28.4890   32.3100 H   0  0  0  0  0  0  0  0  0  0  0  0
   35.3460   29.1650   33.7260 H   0  0  0  0  0  0  0  0  0  0  0  0
   37.4850   29.3140   32.4670 H   0  0  0  0  0  0  0  0  0  0  0  0
   36.7560   28.7090   30.5100 C   0  0  2  0  0  3  0  0  0  0  0  0
   38.0370   28.0790   29.9980 C   0  0  0  0  0  3  0  0  0  0  0  0
   37.9590   26.9760   29.9330 H   0  0  0  0  0  0  0  0  0  0  0  0
   38.1310   28.7220   28.6300 C   0  0  0  0  0  3  0  0  0  0  0  0
   39.1900   28.8070   28.2890 H   0  0  0  0  0  0  0  0  0  0  0  0
   37.4770   29.9220   28.6590 O   0  0  0  0  0  0  0  0  0  0  0  0
   36.8260   30.0530   29.8670 C   0  0  0  0  0  3  0  0  0  0  0  0
   35.8170   30.5030   29.7690 H   0  0  0  0  0  0  0  0  0  0  0  0
  1  2  1  0  0  0  0
  1  9  1  0  0  0  0
  2  6  1  0  0  0  0
  3  7  1  0  0  0  0
  3  2  2  0  0  0  0
  4  5  1  0  0  0  0
  4  3  1  0  0  0  0
  5  1  2  0  0  0  0
  8  9  2  0  0  0  0
  8 13  1  0  0  0  0
  9 10  1  0  0  0  0
 10 15  1  0  0  0  0
 10 11  2  0  0  0  0
 12 11  1  0  0  0  0
 12 16  1  0  0  0  0
 13 12  2  0  0  0  0
 14  8  1  0  0  0  0
 17 20  1  6  0  0  0
 17 18  1  0  0  0  0
 17  4  1  0  0  0  0
 18 22  1  0  0  0  0
 19 23  1  1  0  0  0
 19 17  1  0  0  0  0
 19 18  1  0  0  0  0
 21 18  1  0  0  0  0
 24 30  1  1  0  0  0
 24 19  1  0  0  0  0
 25 24  1  0  0  0  0
 26 25  1  0  0  0  0
 27 29  1  0  0  0  0
 27 25  1  0  0  0  0
 28 27  1  0  0  0  0
 29 30  1  0  0  0  0
 31 30  1  0  0  0  0
M  END
>  <minimizedAffinity>
-4.9101963

$$$$

 OpenBabel03272500473D

 31 34  0  0  1  0  0  0  0  0999 V2000
   35.8550   28.9360   34.0050 C   0  0  0  0  0  0  0  0  0  0  0  0
   36.2280   28.7860   32.6630 C   0  0  0  0  0  0  0  0  0  0  0  0
   37.2200   27.7870   32.6150 C   0  0  0  0  0  0  0  0  0  0  0  0
   37.4110   27.3770   33.8770 N   0  0  0  0  0  0  0  0  0  0  0  0
   36.6120   28.0580   34.6520 N   0  0  0  0  0  0  0  0  0  0  0  0
   35.8220   29.3410   31.8250 H   0  0  0  0  0  0  0  0  0  0  0  0
   37.6960   27.4570   31.7100 H   0  0  0  0  0  0  0  0  0  0  0  0
   35.1680   31.0420   35.1500 C   0  0  0  0  0  0  0  0  0  0  0  0
   34.8650   29.8660   34.4470 C   0  0  0  0  0  0  0  0  0  0  0  0
   33.5200   29.6180   34.1810 C   0  0  0  0  0  0  0  0  0  0  0  0
   32.5760   30.5030   34.6020 N   0  0  0  0  0  0  0  0  0  0  0  0
   32.9200   31.6290   35.2800 C   0  0  0  0  0  0  0  0  0  0  0  0
   34.2260   31.9020   35.5560 N   0  0  0  0  0  0  0  0  0  0  0  0
   36.2090   31.1880   35.3300 H   0  0  0  0  0  0  0  0  0  0  0  0
   33.1810   28.7270   33.6380 H   0  0  0  0  0  0  0  0  0  0  0  0
   32.1830   32.3530   35.6280 H   0  0  0  0  0  0  0  0  0  0  0  0
   38.3400   26.3640   34.2940 C   0  0  1  0  0  0  0  0  0  0  0  0
   39.6020   26.8240   35.0780 C   0  0  0  0  0  0  0  0  0  0  0  0
   38.5230   26.0520   35.7270 C   0  0  2  0  0  0  0  0  0  0  0  0
   38.5440   25.5820   33.5130 H   0  0  0  0  0  0  0  0  0  0  0  0
   40.5620   26.4210   34.7660 H   0  0  0  0  0  0  0  0  0  0  0  0
   39.6570   27.9140   35.3060 H   0  0  0  0  0  0  0  0  0  0  0  0
   37.8400   26.6270   36.4120 H   0  0  0  0  0  0  0  0  0  0  0  0
   38.6420   24.6250   36.1380 C   0  0  2  0  0  3  0  0  0  0  0  0
   38.3490   23.6580   35.0080 C   0  0  0  0  0  3  0  0  0  0  0  0
   39.2360   23.4860   34.3680 H   0  0  0  0  0  0  0  0  0  0  0  0
   37.9700   22.4210   35.7960 C   0  0  0  0  0  3  0  0  0  0  0  0
   37.2630   21.7730   35.2280 H   0  0  0  0  0  0  0  0  0  0  0  0
   37.4880   22.8040   37.0160 O   0  0  0  0  0  0  0  0  0  0  0  0
   37.6640   24.1630   37.1660 C   0  0  0  0  0  3  0  0  0  0  0  0
   37.9910   24.4490   38.1860 H   0  0  0  0  0  0  0  0  0  0  0  0
  1  9  1  0  0  0  0
  1  5  2  0  0  0  0
  2  1  1  0  0  0  0
  3  2  2  0  0  0  0
  3  4  1  0  0  0  0
  4 17  1  0  0  0  0
  4  5  1  0  0  0  0
  6  2  1  0  0  0  0
  7  3  1  0  0  0  0
  8 14  1  0  0  0  0
  8 13  1  0  0  0  0
  9  8  2  0  0  0  0
 10  9  1  0  0  0  0
 10 11  2  0  0  0  0
 11 12  1  0  0  0  0
 12 13  2  0  0  0  0
 12 16  1  0  0  0  0
 15 10  1  0  0  0  0
 17 20  1  6  0  0  0
 17 18  1  0  0  0  0
 17 19  1  0  0  0  0
 18 22  1  0  0  0  0
 18 19  1  0  0  0  0
 19 24  1  0  0  0  0
 19 23  1  1  0  0  0
 21 18  1  0  0  0  0
 24 25  1  6  0  0  0
 24 30  1  0  0  0  0
 25 27  1  0  0  0  0
 26 25  1  0  0  0  0
 27 29  1  0  0  0  0
 28 27  1  0  0  0  0
 29 30  1  0  0  0  0
 30 31  1  0  0  0  0
M  END
>  <minimizedAffinity>
-4.82986069

$$$$

 OpenBabel03272500473D

 31 34  0  0  1  0  0  0  0  0999 V2000
   37.5320   26.3820   34.2410 C   0  0  0  0  0  0  0  0  0  0  0  0
   37.9370   26.5960   32.9190 C   0  0  0  0  0  0  0  0  0  0  0  0
   37.3180   27.7830   32.4790 C   0  0  0  0  0  0  0  0  0  0  0  0
   36.5860   28.2350   33.5060 N   0  0  0  0  0  0  0  0  0  0  0  0
   36.7300   27.4070   34.5040 N   0  0  0  0  0  0  0  0  0  0  0  0
   38.6040   25.9610   32.3480 H   0  0  0  0  0  0  0  0  0  0  0  0
   37.4460   28.1980   31.4960 H   0  0  0  0  0  0  0  0  0  0  0  0
   38.0220   25.2860   36.4270 C   0  0  0  0  0  0  0  0  0  0  0  0
   37.9600   25.2670   35.0260 C   0  0  0  0  0  0  0  0  0  0  0  0
   38.3410   24.0860   34.3920 C   0  0  0  0  0  0  0  0  0  0  0  0
   38.7490   23.0240   35.1370 N   0  0  0  0  0  0  0  0  0  0  0  0
   38.7920   23.0910   36.4940 C   0  0  0  0  0  0  0  0  0  0  0  0
   38.4250   24.2310   37.1440 N   0  0  0  0  0  0  0  0  0  0  0  0
   37.7200   26.2100   36.8650 H   0  0  0  0  0  0  0  0  0  0  0  0
   38.3280   23.9710   33.3010 H   0  0  0  0  0  0  0  0  0  0  0  0
   39.1140   22.2540   37.1130 H   0  0  0  0  0  0  0  0  0  0  0  0
   35.7830   29.4270   33.4990 C   0  0  1  0  0  0  0  0  0  0  0  0
   34.3020   29.2930   33.0430 C   0  0  0  0  0  0  0  0  0  0  0  0
   34.6600   29.5850   34.4460 C   0  0  2  0  0  0  0  0  0  0  0  0
   36.3100   30.3300   33.0890 H   0  0  0  0  0  0  0  0  0  0  0  0
   33.9300   30.0190   32.3250 H   0  0  0  0  0  0  0  0  0  0  0  0
   33.9620   28.2570   32.8080 H   0  0  0  0  0  0  0  0  0  0  0  0
   34.5520   28.7350   35.1760 H   0  0  0  0  0  0  0  0  0  0  0  0
   34.4610   30.9060   35.1050 C   0  0  2  0  0  3  0  0  0  0  0  0
   35.6630   31.3480   35.9160 C   0  0  0  0  0  3  0  0  0  0  0  0
   36.4280   31.8440   35.2860 H   0  0  0  0  0  0  0  0  0  0  0  0
   35.0050   32.3170   36.8760 C   0  0  0  0  0  3  0  0  0  0  0  0
   35.5590   32.3790   37.8420 H   0  0  0  0  0  0  0  0  0  0  0  0
   33.6930   31.9660   37.0290 O   0  0  0  0  0  0  0  0  0  0  0  0
   33.3880   30.9580   36.1390 C   0  0  0  0  0  3  0  0  0  0  0  0
   32.3880   31.0800   35.6740 H   0  0  0  0  0  0  0  0  0  0  0  0
  1  5  2  0  0  0  0
  1  9  1  0  0  0  0
  2  1  1  0  0  0  0
  3  2  2  0  0  0  0
  3  4  1  0  0  0  0
  4  5  1  0  0  0  0
  6  2  1  0  0  0  0
  7  3  1  0  0  0  0
  8 14  1  0  0  0  0
  8 13  1  0  0  0  0
  9  8  2  0  0  0  0
 10  9  1  0  0  0  0
 10 11  2  0  0  0  0
 11 12  1  0  0  0  0
 12 16  1  0  0  0  0
 12 13  2  0  0  0  0
 15 10  1  0  0  0  0
 17 20  1  6  0  0  0
 17  4  1  0  0  0  0
 17 19  1  0  0  0  0
 18 17  1  0  0  0  0
 18 19  1  0  0  0  0
 19 24  1  0  0  0  0
 19 23  1  1  0  0  0
 21 18  1  0  0  0  0
 22 18  1  0  0  0  0
 24 25  1  1  0  0  0
 24 30  1  0  0  0  0
 25 27  1  0  0  0  0
 26 25  1  0  0  0  0
 27 29  1  0  0  0  0
 27 28  1  0  0  0  0
 30 29  1  0  0  0  0
 31 30  1  0  0  0  0
M  END
>  <minimizedAffinity>
-4.82908344

$$$$

 OpenBabel03272500473D

 31 34  0  0  1  0  0  0  0  0999 V2000
   36.6030   28.4760   32.4010 C   0  0  0  0  0  0  0  0  0  0  0  0
   37.6120   28.2310   31.4630 C   0  0  0  0  0  0  0  0  0  0  0  0
   38.5310   27.3450   32.0600 C   0  0  0  0  0  0  0  0  0  0  0  0
   38.0700   27.0900   33.2920 N   0  0  0  0  0  0  0  0  0  0  0  0
   36.9600   27.7550   33.4570 N   0  0  0  0  0  0  0  0  0  0  0  0
   37.6680   28.6500   30.4650 H   0  0  0  0  0  0  0  0  0  0  0  0
   39.4150   26.9790   31.5720 H   0  0  0  0  0  0  0  0  0  0  0  0
   35.5300   30.4180   31.2610 C   0  0  0  0  0  0  0  0  0  0  0  0
   35.4870   29.3340   32.1510 C   0  0  0  0  0  0  0  0  0  0  0  0
   34.2820   29.1050   32.8120 C   0  0  0  0  0  0  0  0  0  0  0  0
   33.2200   29.9210   32.5750 N   0  0  0  0  0  0  0  0  0  0  0  0
   33.3100   30.9600   31.7030 C   0  0  0  0  0  0  0  0  0  0  0  0
   34.4740   31.2100   31.0410 N   0  0  0  0  0  0  0  0  0  0  0  0
   36.4720   30.5520   30.7810 H   0  0  0  0  0  0  0  0  0  0  0  0
   34.1480   28.2840   33.5270 H   0  0  0  0  0  0  0  0  0  0  0  0
   32.4740   31.6270   31.4960 H   0  0  0  0  0  0  0  0  0  0  0  0
   38.6970   26.2300   34.2580 C   0  0  1  0  0  0  0  0  0  0  0  0
   39.3320   26.8990   35.5100 C   0  0  0  0  0  0  0  0  0  0  0  0
   38.1180   26.0620   35.6070 C   0  0  2  0  0  0  0  0  0  0  0  0
   39.3250   25.4160   33.8040 H   0  0  0  0  0  0  0  0  0  0  0  0
   40.3340   26.5870   35.7930 H   0  0  0  0  0  0  0  0  0  0  0  0
   39.1970   28.0040   35.5880 H   0  0  0  0  0  0  0  0  0  0  0  0
   37.1460   26.6080   35.7600 H   0  0  0  0  0  0  0  0  0  0  0  0
   38.0860   24.6980   36.2050 C   0  0  2  0  0  3  0  0  0  0  0  0
   37.9230   24.7170   37.7110 C   0  0  0  0  0  3  0  0  0  0  0  0
   36.8610   24.8100   38.0130 H   0  0  0  0  0  0  0  0  0  0  0  0
   38.4960   23.3610   38.0670 C   0  0  0  0  0  3  0  0  0  0  0  0
   38.9310   23.3550   39.0940 H   0  0  0  0  0  0  0  0  0  0  0  0
   39.3900   22.9920   37.1010 O   0  0  0  0  0  0  0  0  0  0  0  0
   39.3390   23.9010   36.0660 C   0  0  0  0  0  3  0  0  0  0  0  0
   39.4010   23.4230   35.0670 H   0  0  0  0  0  0  0  0  0  0  0  0
  1  5  2  0  0  0  0
  2  3  2  0  0  0  0
  2  1  1  0  0  0  0
  3  4  1  0  0  0  0
  4  5  1  0  0  0  0
  4 17  1  0  0  0  0
  6  2  1  0  0  0  0
  7  3  1  0  0  0  0
  8  9  1  0  0  0  0
  9  1  1  0  0  0  0
  9 10  2  0  0  0  0
 10 15  1  0  0  0  0
 11 10  1  0  0  0  0
 12 11  2  0  0  0  0
 13  8  2  0  0  0  0
 13 12  1  0  0  0  0
 14  8  1  0  0  0  0
 16 12  1  0  0  0  0
 17 20  1  6  0  0  0
 17 18  1  0  0  0  0
 17 19  1  0  0  0  0
 18 22  1  0  0  0  0
 18 19  1  0  0  0  0
 18 21  1  0  0  0  0
 19 23  1  1  0  0  0
 19 24  1  0  0  0  0
 24 30  1  1  0  0  0
 24 25  1  0  0  0  0
 25 26  1  0  0  0  0
 25 27  1  0  0  0  0
 27 28  1  0  0  0  0
 29 27  1  0  0  0  0
 30 29  1  0  0  0  0
 31 30  1  0  0  0  0
M  END
>  <minimizedAffinity>
-4.80253315

$$$$

 OpenBabel03272500473D

 31 34  0  0  1  0  0  0  0  0999 V2000
   38.0780   27.4820   31.5010 C   0  0  0  0  0  0  0  0  0  0  0  0
   36.7700   27.1190   31.8450 C   0  0  0  0  0  0  0  0  0  0  0  0
   36.8290   26.4930   33.1050 C   0  0  0  0  0  0  0  0  0  0  0  0
   38.1170   26.4940   33.4740 N   0  0  0  0  0  0  0  0  0  0  0  0
   38.8100   27.0700   32.5300 N   0  0  0  0  0  0  0  0  0  0  0  0
   35.8840   27.2930   31.2450 H   0  0  0  0  0  0  0  0  0  0  0  0
   35.9700   26.1070   33.6240 H   0  0  0  0  0  0  0  0  0  0  0  0
   37.4670   28.7360   29.4340 C   0  0  0  0  0  0  0  0  0  0  0  0
   38.4170   28.1460   30.2820 C   0  0  0  0  0  0  0  0  0  0  0  0
   39.7510   28.2270   29.8900 C   0  0  0  0  0  0  0  0  0  0  0  0
   40.0750   28.8580   28.7300 N   0  0  0  0  0  0  0  0  0  0  0  0
   39.1180   29.4140   27.9410 C   0  0  0  0  0  0  0  0  0  0  0  0
   37.8040   29.3540   28.2960 N   0  0  0  0  0  0  0  0  0  0  0  0
   36.4610   28.6480   29.7760 H   0  0  0  0  0  0  0  0  0  0  0  0
   40.5680   27.7970   30.4850 H   0  0  0  0  0  0  0  0  0  0  0  0
   39.3510   29.9260   27.0070 H   0  0  0  0  0  0  0  0  0  0  0  0
   38.6360   25.9520   34.6990 C   0  0  1  0  0  0  0  0  0  0  0  0
   38.5850   26.8570   35.9640 C   0  0  0  0  0  0  0  0  0  0  0  0
   37.7360   25.6550   35.8330 C   0  0  2  0  0  0  0  0  0  0  0  0
   39.6000   25.3870   34.5770 H   0  0  0  0  0  0  0  0  0  0  0  0
   39.4860   26.9260   36.5670 H   0  0  0  0  0  0  0  0  0  0  0  0
   38.0910   27.8470   35.8280 H   0  0  0  0  0  0  0  0  0  0  0  0
   36.6470   25.8350   35.6130 H   0  0  0  0  0  0  0  0  0  0  0  0
   37.9440   24.3930   36.5980 C   0  0  2  0  0  3  0  0  0  0  0  0
   37.9840   24.6110   38.0980 C   0  0  0  0  0  3  0  0  0  0  0  0
   36.9690   24.6420   38.5390 H   0  0  0  0  0  0  0  0  0  0  0  0
   38.7550   23.3830   38.5340 C   0  0  0  0  0  3  0  0  0  0  0  0
   39.3210   23.5670   39.4770 H   0  0  0  0  0  0  0  0  0  0  0  0
   39.5480   22.9690   37.5010 O   0  0  0  0  0  0  0  0  0  0  0  0
   39.2530   23.7110   36.3770 C   0  0  0  0  0  3  0  0  0  0  0  0
   39.2360   23.1050   35.4490 H   0  0  0  0  0  0  0  0  0  0  0  0
  1  2  1  0  0  0  0
  1  5  2  0  0  0  0
  2  3  2  0  0  0  0
  3  4  1  0  0  0  0
  3  7  1  0  0  0  0
  4 17  1  0  0  0  0
  5  4  1  0  0  0  0
  6  2  1  0  0  0  0
  8 14  1  0  0  0  0
  8  9  1  0  0  0  0
  9  1  1  0  0  0  0
 10  9  2  0  0  0  0
 10 15  1  0  0  0  0
 11 10  1  0  0  0  0
 12 13  1  0  0  0  0
 12 11  2  0  0  0  0
 13  8  2  0  0  0  0
 16 12  1  0  0  0  0
 17 20  1  6  0  0  0
 17 19  1  0  0  0  0
 17 18  1  0  0  0  0
 18 21  1  0  0  0  0
 19 23  1  6  0  0  0
 19 18  1  0  0  0  0
 19 24  1  0  0  0  0
 22 18  1  0  0  0  0
 24 30  1  6  0  0  0
 24 25  1  0  0  0  0
 25 27  1  0  0  0  0
 25 26  1  0  0  0  0
 27 28  1  0  0  0  0
 29 27  1  0  0  0  0
 30 29  1  0  0  0  0
 31 30  1  0  0  0  0
M  END
>  <minimizedAffinity>
-4.78402805

$$$$

 OpenBabel03272500473D

 31 34  0  0  1  0  0  0  0  0999 V2000
   36.3660   27.5680   32.6820 C   0  0  0  0  0  0  0  0  0  0  0  0
   37.1110   26.8110   33.5950 C   0  0  0  0  0  0  0  0  0  0  0  0
   37.1720   25.4960   33.0930 C   0  0  0  0  0  0  0  0  0  0  0  0
   36.4910   25.4940   31.9390 N   0  0  0  0  0  0  0  0  0  0  0  0
   36.0400   26.7010   31.7310 N   0  0  0  0  0  0  0  0  0  0  0  0
   37.5540   27.1780   34.5130 H   0  0  0  0  0  0  0  0  0  0  0  0
   37.6830   24.6890   33.5870 H   0  0  0  0  0  0  0  0  0  0  0  0
   36.2460   29.9100   31.8340 C   0  0  0  0  0  0  0  0  0  0  0  0
   36.0900   28.9600   32.8540 C   0  0  0  0  0  0  0  0  0  0  0  0
   35.6400   29.4250   34.0880 C   0  0  0  0  0  0  0  0  0  0  0  0
   35.3770   30.7490   34.2530 N   0  0  0  0  0  0  0  0  0  0  0  0
   35.5440   31.6320   33.2340 C   0  0  0  0  0  0  0  0  0  0  0  0
   35.9810   31.2100   32.0150 N   0  0  0  0  0  0  0  0  0  0  0  0
   36.5920   29.5070   30.9100 H   0  0  0  0  0  0  0  0  0  0  0  0
   35.4860   28.7600   34.9480 H   0  0  0  0  0  0  0  0  0  0  0  0
   35.3400   32.6970   33.3400 H   0  0  0  0  0  0  0  0  0  0  0  0
   36.2970   24.3550   31.0860 C   0  0  1  0  0  0  0  0  0  0  0  0
   37.5650   23.6670   30.5060 C   0  0  0  0  0  0  0  0  0  0  0  0
   36.7180   23.0070   31.5200 C   0  0  2  0  0  0  0  0  0  0  0  0
   35.4610   24.4770   30.3450 H   0  0  0  0  0  0  0  0  0  0  0  0
   37.5690   23.4350   29.4440 H   0  0  0  0  0  0  0  0  0  0  0  0
   38.5400   24.0850   30.8490 H   0  0  0  0  0  0  0  0  0  0  0  0
   37.1290   22.9700   32.5670 H   0  0  0  0  0  0  0  0  0  0  0  0
   35.8180   21.8530   31.2390 C   0  0  2  0  0  3  0  0  0  0  0  0
   35.0960   21.3520   32.4750 C   0  0  0  0  0  3  0  0  0  0  0  0
   34.1800   21.9390   32.6850 H   0  0  0  0  0  0  0  0  0  0  0  0
   34.7760   19.9340   32.0500 C   0  0  0  0  0  3  0  0  0  0  0  0
   34.7070   19.2490   32.9270 H   0  0  0  0  0  0  0  0  0  0  0  0
   35.6960   19.5320   31.1230 O   0  0  0  0  0  0  0  0  0  0  0  0
   36.4930   20.6040   30.7810 C   0  0  0  0  0  3  0  0  0  0  0  0
   36.7190   20.6460   29.6960 H   0  0  0  0  0  0  0  0  0  0  0  0
  1  9  1  0  0  0  0
  1  2  1  0  0  0  0
  2  6  1  0  0  0  0
  3  7  1  0  0  0  0
  3  2  2  0  0  0  0
  4  3  1  0  0  0  0
  5  4  1  0  0  0  0
  5  1  2  0  0  0  0
  8 13  2  0  0  0  0
  8  9  1  0  0  0  0
  9 10  2  0  0  0  0
 10 11  1  0  0  0  0
 10 15  1  0  0  0  0
 12 16  1  0  0  0  0
 12 11  2  0  0  0  0
 13 12  1  0  0  0  0
 14  8  1  0  0  0  0
 17 20  1  6  0  0  0
 17 19  1  0  0  0  0
 17  4  1  0  0  0  0
 18 22  1  0  0  0  0
 18 17  1  0  0  0  0
 18 19  1  0  0  0  0
 19 23  1  1  0  0  0
 21 18  1  0  0  0  0
 24 30  1  1  0  0  0
 24 19  1  0  0  0  0
 24 25  1  0  0  0  0
 25 26  1  0  0  0  0
 27 25  1  0  0  0  0
 27 28  1  0  0  0  0
 29 27  1  0  0  0  0
 30 29  1  0  0  0  0
 31 30  1  0  0  0  0
M  END
>  <minimizedAffinity>
-4.74493408

$$$$

 OpenBabel03272500473D

 31 34  0  0  1  0  0  0  0  0999 V2000
   36.2230   23.1140   31.9900 C   0  0  0  0  0  0  0  0  0  0  0  0
   35.5220   23.9460   31.1080 C   0  0  0  0  0  0  0  0  0  0  0  0
   35.9920   25.2580   31.3110 C   0  0  0  0  0  0  0  0  0  0  0  0
   36.9250   25.1870   32.2700 N   0  0  0  0  0  0  0  0  0  0  0  0
   37.0340   23.9400   32.6400 N   0  0  0  0  0  0  0  0  0  0  0  0
   34.7620   23.6290   30.4040 H   0  0  0  0  0  0  0  0  0  0  0  0
   35.6320   26.1140   30.7700 H   0  0  0  0  0  0  0  0  0  0  0  0
   35.7130   21.0350   33.2690 C   0  0  0  0  0  0  0  0  0  0  0  0
   36.0170   21.7020   32.0730 C   0  0  0  0  0  0  0  0  0  0  0  0
   36.1150   20.9240   30.9220 C   0  0  0  0  0  0  0  0  0  0  0  0
   35.9190   19.5800   30.9990 N   0  0  0  0  0  0  0  0  0  0  0  0
   35.6270   18.9790   32.1820 C   0  0  0  0  0  0  0  0  0  0  0  0
   35.5220   19.7120   33.3260 N   0  0  0  0  0  0  0  0  0  0  0  0
   35.6480   21.6730   34.1210 H   0  0  0  0  0  0  0  0  0  0  0  0
   36.3480   21.3520   29.9380 H   0  0  0  0  0  0  0  0  0  0  0  0
   35.4650   17.9050   32.2710 H   0  0  0  0  0  0  0  0  0  0  0  0
   37.6700   26.2980   32.7950 C   0  0  1  0  0  0  0  0  0  0  0  0
   37.0180   27.1250   33.9390 C   0  0  0  0  0  0  0  0  0  0  0  0
   38.1970   26.2680   34.1750 C   0  0  2  0  0  0  0  0  0  0  0  0
   38.1760   26.9210   32.0080 H   0  0  0  0  0  0  0  0  0  0  0  0
   37.0360   28.2080   33.8490 H   0  0  0  0  0  0  0  0  0  0  0  0
   36.0330   26.7500   34.3040 H   0  0  0  0  0  0  0  0  0  0  0  0
   38.0090   25.2990   34.7160 H   0  0  0  0  0  0  0  0  0  0  0  0
   39.5720   26.7830   34.4260 C   0  0  2  0  0  3  0  0  0  0  0  0
   40.2800   27.2190   33.1590 C   0  0  0  0  0  3  0  0  0  0  0  0
   40.0100   28.2530   32.8680 H   0  0  0  0  0  0  0  0  0  0  0  0
   41.7250   27.1140   33.6020 C   0  0  0  0  0  3  0  0  0  0  0  0
   42.4030   26.9020   32.7420 H   0  0  0  0  0  0  0  0  0  0  0  0
   41.8150   26.1870   34.6020 O   0  0  0  0  0  0  0  0  0  0  0  0
   40.5460   25.7910   34.9670 C   0  0  0  0  0  3  0  0  0  0  0  0
   40.4280   25.6700   36.0630 H   0  0  0  0  0  0  0  0  0  0  0  0
  1  9  1  0  0  0  0
  1  5  2  0  0  0  0
  2  3  2  0  0  0  0
  2  1  1  0  0  0  0
  3  4  1  0  0  0  0
  4  5  1  0  0  0  0
  4 17  1  0  0  0  0
  6  2  1  0  0  0  0
  7  3  1  0  0  0  0
  8 13  1  0  0  0  0
  8 14  1  0  0  0  0
  9  8  2  0  0  0  0
 10 11  2  0  0  0  0
 10  9  1  0  0  0  0
 11 12  1  0  0  0  0
 12 16  1  0  0  0  0
 12 13  2  0  0  0  0
 15 10  1  0  0  0  0
 17 20  1  6  0  0  0
 17 18  1  0  0  0  0
 17 19  1  0  0  0  0
 18 19  1  0  0  0  0
 18 22  1  0  0  0  0
 19 24  1  0  0  0  0
 19 23  1  1  0  0  0
 21 18  1  0  0  0  0
 24 25  1  6  0  0  0
 24 30  1  0  0  0  0
 25 27  1  0  0  0  0
 26 25  1  0  0  0  0
 27 29  1  0  0  0  0
 28 27  1  0  0  0  0
 29 30  1  0  0  0  0
 30 31  1  0  0  0  0
M  END
>  <minimizedAffinity>
-4.73117876

$$$$
