
 OpenBabel03272510043D

 36 38  0  0  1  0  0  0  0  0999 V2000
   35.8530   30.4570   44.2750 C   0  0  0  0  0  0  0  0  0  0  0  0
   35.8510   30.2810   45.6230 C   0  0  0  0  0  0  0  0  0  0  0  0
   34.8120   29.5800   46.2270 C   0  0  0  0  0  0  0  0  0  0  0  0
   33.7620   29.0440   45.5200 C   0  0  0  0  0  0  0  0  0  0  0  0
   33.7250   29.2030   44.1560 C   0  0  0  0  0  0  0  0  0  0  0  0
   34.7640   29.8970   43.5880 C   0  0  0  0  0  0  0  0  0  0  0  0
   34.8470   29.4580   47.3240 H   0  0  0  0  0  0  0  0  0  0  0  0
   33.0180   28.5230   46.0880 H   0  0  0  0  0  0  0  0  0  0  0  0
   32.8940   28.7720   43.6600 H   0  0  0  0  0  0  0  0  0  0  0  0
   34.6120   29.9550   42.5010 H   0  0  0  0  0  0  0  0  0  0  0  0
   38.7900   32.2330   46.6490 C   0  0  0  0  0  0  0  0  0  0  0  0
   37.7700   31.6890   45.8860 C   0  0  0  0  0  0  0  0  0  0  0  0
   36.8780   30.8300   46.4430 C   0  0  0  0  0  0  0  0  0  0  0  0
   37.0340   30.5430   47.7650 N   0  0  0  0  0  0  0  0  0  0  0  0
   38.0140   31.0670   48.5090 C   0  0  0  0  0  0  0  0  0  0  0  0
   38.8860   31.9060   47.9460 N   0  0  0  0  0  0  0  0  0  0  0  0
   39.5720   32.9160   46.3730 H   0  0  0  0  0  0  0  0  0  0  0  0
   37.9000   32.1330   44.9280 H   0  0  0  0  0  0  0  0  0  0  0  0
   38.0230   30.7170   49.9550 C   0  0  0  0  0  0  0  0  0  0  0  0
   38.9910   31.4180   50.6490 F   0  0  0  0  0  0  0  0  0  0  0  0
   36.8010   31.2080   50.5550 F   0  0  0  0  0  0  0  0  0  0  0  0
   38.0300   29.4400   50.2640 F   0  0  0  0  0  0  0  0  0  0  0  0
   37.0780   31.2580   43.4020 S   0  0  0  0  0  0  0  0  0  0  0  0
   36.8970   32.7480   43.4720 O   0  0  0  0  0  0  0  0  0  0  0  0
   36.5270   31.0950   42.0120 O   0  0  0  0  0  0  0  0  0  0  0  0
   38.5320   30.6240   42.8230 C   0  0  0  0  0  0  0  0  0  0  0  0
   38.7900   30.8490   41.7740 H   0  0  0  0  0  0  0  0  0  0  0  0
   39.3420   31.2530   43.3400 H   0  0  0  0  0  0  0  0  0  0  0  0
   38.8750   29.2450   43.2500 C   0  0  1  0  0  3  0  0  0  0  0  0
   37.9480   28.1450   42.8980 C   0  0  0  0  0  3  0  0  0  0  0  0
   37.4670   28.2670   41.9150 H   0  0  0  0  0  0  0  0  0  0  0  0
   38.9120   26.9460   42.8270 C   0  0  0  0  0  3  0  0  0  0  0  0
   38.6030   26.2260   42.0440 H   0  0  0  0  0  0  0  0  0  0  0  0
   40.1620   27.4200   42.5630 O   0  0  0  0  0  0  0  0  0  0  0  0
   40.1390   28.7800   42.4940 C   0  0  0  0  0  3  0  0  0  0  0  0
   39.9540   29.1300   41.4470 H   0  0  0  0  0  0  0  0  0  0  0  0
  1  2  1  0  0  0  0
  2  3  2  0  0  0  0
  2 13  1  0  0  0  0
  3  7  1  0  0  0  0
  4  8  1  0  0  0  0
  4  3  1  0  0  0  0
  5  4  2  0  0  0  0
  6  5  1  0  0  0  0
  6  1  2  0  0  0  0
  9  5  1  0  0  0  0
 10  6  1  0  0  0  0
 11 16  1  0  0  0  0
 12 13  1  0  0  0  0
 12 11  2  0  0  0  0
 13 14  2  0  0  0  0
 14 15  1  0  0  0  0
 15 19  1  0  0  0  0
 16 15  2  0  0  0  0
 17 11  1  0  0  0  0
 18 12  1  0  0  0  0
 19 22  1  0  0  0  0
 19 21  1  0  0  0  0
 19 20  1  0  0  0  0
 23 24  2  0  0  0  0
 23  1  1  0  0  0  0
 25 23  2  0  0  0  0
 26 28  1  0  0  0  0
 26 23  1  0  0  0  0
 27 26  1  0  0  0  0
 29 26  1  6  0  0  0
 30 29  1  0  0  0  0
 31 30  1  0  0  0  0
 32 30  1  0  0  0  0
 33 32  1  0  0  0  0
 34 32  1  0  0  0  0
 35 34  1  0  0  0  0
 35 29  1  0  0  0  0
 36 35  1  0  0  0  0
M  END
>  <minimizedAffinity>
-5.43538857

>  <minimizedRMSD>
2.82495379

$$$$
