REMARK  Name = 
REMARK  6 active torsions:
REMARK  status: ('A' for Active; 'I' for Inactive)
REMARK    1  A    between atoms: P_2  and  O_3
REMARK    2  A    between atoms: P_2  and  O_4
REMARK    3  A    between atoms: P_2  and  O_11
REMARK    4  A    between atoms: O_4  and  C_7
REMARK    5  A    between atoms: O_11  and  C_14
REMARK    6  A    between atoms: C_18  and  C_26
REMARK                            x       y       z     vdW  Elec       q    Type
REMARK                         _______ _______ _______ _____ _____    ______ ____
ROOT
ATOM      1 CL   UNL     1      36.630  29.437  44.042  0.00  0.00    +0.000 Cl
ATOM      2  C   UNL     1      38.260  29.828  43.483  0.00  0.00    +0.000 A 
ATOM      3  C   UNL     1      39.272  30.303  44.319  0.00  0.00    +0.000 A 
ATOM      4  C   UNL     1      40.514  30.572  43.747  0.00  0.00    +0.000 A 
ATOM      5  C   UNL     1      40.710  30.367  42.402  0.00  0.00    +0.000 A 
ATOM      6  C   UNL     1      39.736  29.904  41.567  0.00  0.00    +0.000 A 
ATOM      7  C   UNL     1      38.511  29.636  42.116  0.00  0.00    +0.000 A 
ATOM      8  H   UNL     1      41.221  30.933  44.481  0.00  0.00    +0.000 HD
ATOM      9  H   UNL     1      41.717  30.607  42.048  0.00  0.00    +0.000 HD
ATOM     10  H   UNL     1      39.981  29.774  40.523  0.00  0.00    +0.000 HD
ENDROOT
BRANCH   7  11
ATOM     11  C   UNL     1      37.437  29.130  41.222  0.00  0.00    +0.000 C 
ATOM     12  C   UNL     1      36.928  27.760  41.645  0.00  0.00    +0.000 C 
ATOM     13  H   UNL     1      37.347  27.409  42.596  0.00  0.00    +0.000 HD
ATOM     14  C   UNL     1      37.347  26.905  40.469  0.00  0.00    +0.000 C 
ATOM     15  H   UNL     1      37.675  25.886  40.800  0.00  0.00    +0.000 HD
ATOM     16  O   UNL     1      38.394  27.592  39.859  0.00  0.00    +0.000 OA
ATOM     17  C   UNL     1      37.911  28.898  39.834  0.00  0.00    +0.000 C 
ATOM     18  H   UNL     1      36.991  28.846  39.185  0.00  0.00    +0.000 HD
ENDBRANCH   7  11
BRANCH   3  19
ATOM     19  O   UNL     1      38.859  30.431  45.616  0.00  0.00    +0.000 OA
BRANCH  19  21
ATOM     20  O   UNL     1      39.450  32.477  47.095  0.00  0.00    +0.000 OA
ATOM     21  P   UNL     1      38.314  31.815  46.403  0.00  0.00    +0.000 P 
BRANCH  21  22
ATOM     22  O   UNL     1      37.722  32.840  45.172  0.00  0.00    +0.000 OA
ATOM     23  H   UNL     1      38.505  33.187  44.659  0.00  0.00    +0.000 HD
ENDBRANCH  21  22
BRANCH  21  24
ATOM     24  O   UNL     1      37.027  31.391  47.425  0.00  0.00    +0.000 OA
BRANCH  24  27
ATOM     25  C   UNL     1      37.611  30.541  50.977  0.00  0.00    +0.000 A 
ATOM     26  C   UNL     1      37.707  31.304  49.809  0.00  0.00    +0.000 A 
ATOM     27  C   UNL     1      37.070  30.829  48.654  0.00  0.00    +0.000 A 
ATOM     28  N   UNL     1      36.391  29.649  48.730  0.00  0.00    +0.000 NA
ATOM     29  C   UNL     1      36.325  28.946  49.877  0.00  0.00    +0.000 A 
ATOM     30  N   UNL     1      36.931  29.392  50.989  0.00  0.00    +0.000 NA
ATOM     31  H   UNL     1      38.126  30.961  51.840  0.00  0.00    +0.000 HD
ATOM     32  H   UNL     1      38.224  32.243  49.675  0.00  0.00    +0.000 HD
ATOM     33  H   UNL     1      35.792  28.007  49.961  0.00  0.00    +0.000 HD
ENDBRANCH  24  27
ENDBRANCH  21  24
ENDBRANCH  19  21
ENDBRANCH   3  19
TORSDOF 6
