
 OpenBabel03272508093D

 23 24  0  0  1  0  0  0  0  0999 V2000
   39.1260   32.8270   48.1340 O   0  0  0  0  0  0  0  0  0  0  0  0
   38.7260   31.8410   47.0830 P   0  0  2  0  0  0  0  0  0  0  0  0
   37.6880   32.5930   45.9700 O   0  0  0  0  0  0  0  0  0  0  0  0
   37.2330   33.3420   46.4690 H   0  0  0  0  0  0  0  0  0  0  0  0
   38.0430   30.4120   47.6790 O   0  0  0  0  0  0  0  0  0  0  0  0
   37.3410   30.2010   51.3130 C   0  0  0  0  0  0  0  0  0  0  0  0
   38.0430   30.5570   50.1630 C   0  0  0  0  0  0  0  0  0  0  0  0
   37.5430   30.1830   48.9200 C   0  0  0  0  0  0  0  0  0  0  0  0
   36.3680   29.4720   48.8950 N   0  0  0  0  0  0  0  0  0  0  0  0
   35.7210   29.1460   50.0390 C   0  0  0  0  0  0  0  0  0  0  0  0
   36.1960   29.5040   51.2300 N   0  0  0  0  0  0  0  0  0  0  0  0
   37.8640   30.5670   52.1910 H   0  0  0  0  0  0  0  0  0  0  0  0
   38.9670   31.1130   50.1030 H   0  0  0  0  0  0  0  0  0  0  0  0
   34.7940   28.5870   50.0390 H   0  0  0  0  0  0  0  0  0  0  0  0
   40.1350   31.4290   46.2170 O   0  0  0  0  0  0  0  0  0  0  0  0
   39.7620   31.1580   44.9140 C   0  0  1  0  0  3  0  0  0  0  0  0
   39.2510   29.7770   44.6750 C   0  0  0  0  0  3  0  0  0  0  0  0
   39.0310   29.2130   45.6280 H   0  0  0  0  0  0  0  0  0  0  0  0
   37.9610   30.0220   43.9020 C   0  0  0  0  0  3  0  0  0  0  0  0
   37.0710   30.0510   44.5550 H   0  0  0  0  0  0  0  0  0  0  0  0
   38.1370   31.2970   43.3450 O   0  0  0  0  0  0  0  0  0  0  0  0
   38.6200   32.0330   44.4470 C   0  0  0  0  0  3  0  0  0  0  0  0
   38.9730   33.0220   44.0550 H   0  0  0  0  0  0  0  0  0  0  0  0
  2  5  1  0  0  0  0
  2  1  2  1  0  0  0
  3  4  1  0  0  0  0
  3  2  1  0  0  0  0
  5  8  1  0  0  0  0
  6 12  1  0  0  0  0
  7  6  2  0  0  0  0
  8  7  1  0  0  0  0
  9  8  2  0  0  0  0
  9 10  1  0  0  0  0
 10 11  2  0  0  0  0
 11  6  1  0  0  0  0
 13  7  1  0  0  0  0
 14 10  1  0  0  0  0
 15  2  1  0  0  0  0
 16 15  1  1  0  0  0
 17 16  1  0  0  0  0
 17 18  1  0  0  0  0
 19 20  1  0  0  0  0
 19 17  1  0  0  0  0
 21 19  1  0  0  0  0
 21 22  1  0  0  0  0
 22 16  1  0  0  0  0
 23 22  1  0  0  0  0
M  END
>  <minimizedAffinity>
-4.90941143

>  <minimizedRMSD>
0.467026204

$$$$
