
 OpenBabel03272510043D

 36 38  0  0  1  0  0  0  0  0999 V2000
   37.0510   30.8740   44.2010 C   0  0  0  0  0  0  0  0  0  0  0  0
   36.5740   30.5780   45.4380 C   0  0  0  0  0  0  0  0  0  0  0  0
   35.3670   29.8970   45.5700 C   0  0  0  0  0  0  0  0  0  0  0  0
   34.6120   29.4990   44.4920 C   0  0  0  0  0  0  0  0  0  0  0  0
   35.0580   29.7830   43.2240 C   0  0  0  0  0  0  0  0  0  0  0  0
   36.2510   30.4540   43.1250 C   0  0  0  0  0  0  0  0  0  0  0  0
   35.0140   29.6740   46.5920 H   0  0  0  0  0  0  0  0  0  0  0  0
   33.7020   28.9800   44.7110 H   0  0  0  0  0  0  0  0  0  0  0  0
   34.4380   29.4550   42.4300 H   0  0  0  0  0  0  0  0  0  0  0  0
   36.4890   30.6200   42.0650 H   0  0  0  0  0  0  0  0  0  0  0  0
   38.8150   32.4520   47.6660 C   0  0  0  0  0  0  0  0  0  0  0  0
   38.1130   32.0400   46.5450 C   0  0  0  0  0  0  0  0  0  0  0  0
   37.2680   30.9790   46.6160 C   0  0  0  0  0  0  0  0  0  0  0  0
   37.1470   30.3600   47.8220 N   0  0  0  0  0  0  0  0  0  0  0  0
   37.8190   30.7550   48.9090 C   0  0  0  0  0  0  0  0  0  0  0  0
   38.6490   31.7960   48.8240 N   0  0  0  0  0  0  0  0  0  0  0  0
   39.5170   33.2570   47.7850 H   0  0  0  0  0  0  0  0  0  0  0  0
   38.3950   32.7380   45.7940 H   0  0  0  0  0  0  0  0  0  0  0  0
   37.5370   30.0270   50.1760 C   0  0  0  0  0  0  0  0  0  0  0  0
   37.7860   30.8110   51.2870 F   0  0  0  0  0  0  0  0  0  0  0  0
   36.1100   29.8040   50.2720 F   0  0  0  0  0  0  0  0  0  0  0  0
   38.0490   28.8230   50.3040 F   0  0  0  0  0  0  0  0  0  0  0  0
   38.5280   31.6660   43.8920 S   0  0  0  0  0  0  0  0  0  0  0  0
   38.3610   33.1570   43.9730 O   0  0  0  0  0  0  0  0  0  0  0  0
   38.5340   31.5860   42.3900 O   0  0  0  0  0  0  0  0  0  0  0  0
   40.0810   31.0040   43.8620 C   0  0  0  0  0  0  0  0  0  0  0  0
   40.8520   31.5680   43.3100 H   0  0  0  0  0  0  0  0  0  0  0  0
   40.4790   31.1640   44.9280 H   0  0  0  0  0  0  0  0  0  0  0  0
   40.1750   29.5310   43.7010 C   0  0  1  0  0  3  0  0  0  0  0  0
   38.9270   28.7640   43.4860 C   0  0  0  0  0  3  0  0  0  0  0  0
   38.1780   29.2950   42.8770 H   0  0  0  0  0  0  0  0  0  0  0  0
   39.4470   27.5590   42.6820 C   0  0  0  0  0  3  0  0  0  0  0  0
   38.7010   27.2160   41.9370 H   0  0  0  0  0  0  0  0  0  0  0  0
   40.5990   27.9290   42.0560 O   0  0  0  0  0  0  0  0  0  0  0  0
   40.9150   29.2130   42.3830 C   0  0  0  0  0  3  0  0  0  0  0  0
   40.4690   29.9390   41.6580 H   0  0  0  0  0  0  0  0  0  0  0  0
  1  2  1  0  0  0  0
  2  3  2  0  0  0  0
  2 13  1  0  0  0  0
  3  7  1  0  0  0  0
  4  8  1  0  0  0  0
  4  3  1  0  0  0  0
  5  4  2  0  0  0  0
  6  5  1  0  0  0  0
  6  1  2  0  0  0  0
  9  5  1  0  0  0  0
 10  6  1  0  0  0  0
 11 17  1  0  0  0  0
 11 16  1  0  0  0  0
 12 13  1  0  0  0  0
 12 11  2  0  0  0  0
 13 14  2  0  0  0  0
 14 15  1  0  0  0  0
 15 19  1  0  0  0  0
 16 15  2  0  0  0  0
 18 12  1  0  0  0  0
 19 21  1  0  0  0  0
 19 22  1  0  0  0  0
 19 20  1  0  0  0  0
 23 24  2  0  0  0  0
 23  1  1  0  0  0  0
 25 23  2  0  0  0  0
 26 23  1  0  0  0  0
 26 28  1  0  0  0  0
 27 26  1  0  0  0  0
 29 26  1  6  0  0  0
 30 29  1  0  0  0  0
 31 30  1  0  0  0  0
 32 30  1  0  0  0  0
 33 32  1  0  0  0  0
 34 35  1  0  0  0  0
 34 32  1  0  0  0  0
 35 29  1  0  0  0  0
 36 35  1  0  0  0  0
M  END
>  <minimizedAffinity>
-5.19176149

>  <minimizedRMSD>
1.64349425

$$$$
