
 OpenBabel03272508063D

 34 37  0  0  1  0  0  0  0  0999 V2000
   38.9190   30.8910   45.7740 C   0  0  0  0  0  0  0  0  0  0  0  0
   40.1140   31.5110   46.0270 C   0  0  0  0  0  0  0  0  0  0  0  0
   40.9430   31.4490   44.9120 C   0  0  0  0  0  0  0  0  0  0  0  0
   40.1920   30.7780   44.0100 N   0  0  0  0  0  0  0  0  0  0  0  0
   39.0100   30.4470   44.5000 N   0  0  0  0  0  0  0  0  0  0  0  0
   40.4090   31.9910   46.9540 H   0  0  0  0  0  0  0  0  0  0  0  0
   41.9320   31.8180   44.7420 H   0  0  0  0  0  0  0  0  0  0  0  0
   37.7980   30.7450   46.6820 C   0  0  0  0  0  0  0  0  0  0  0  0
   38.0170   30.9730   48.0670 C   0  0  0  0  0  0  0  0  0  0  0  0
   36.9340   30.8310   48.9240 C   0  0  0  0  0  0  0  0  0  0  0  0
   35.7270   30.4820   48.3900 N   0  0  0  0  0  0  0  0  0  0  0  0
   35.5410   30.2690   47.0650 C   0  0  0  0  0  0  0  0  0  0  0  0
   36.5830   30.4040   46.2210 N   0  0  0  0  0  0  0  0  0  0  0  0
   38.9940   31.2490   48.4450 H   0  0  0  0  0  0  0  0  0  0  0  0
   34.5460   29.9960   46.7390 H   0  0  0  0  0  0  0  0  0  0  0  0
   37.1370   31.0640   50.3760 C   0  0  0  0  0  0  0  0  0  0  0  0
   36.6020   32.3040   50.6300 F   0  0  0  0  0  0  0  0  0  0  0  0
   36.4730   30.1330   51.1610 F   0  0  0  0  0  0  0  0  0  0  0  0
   38.4900   31.0740   50.7100 F   0  0  0  0  0  0  0  0  0  0  0  0
   40.5410   30.4100   42.6380 C   0  0  0  0  0  0  0  0  0  0  0  0
   40.2120   31.2430   41.5540 C   0  0  0  0  0  0  0  0  0  0  0  0
   40.5600   30.8520   40.2950 C   0  0  0  0  0  0  0  0  0  0  0  0
   41.2430   29.6180   40.1140 C   0  0  0  0  0  0  0  0  0  0  0  0
   41.3940   28.9840   41.8520 S   0  0  0  0  0  0  0  0  0  0  0  0
   39.6940   32.1860   41.6540 H   0  0  0  0  0  0  0  0  0  0  0  0
   40.4070   31.3320   39.3450 H   0  0  0  0  0  0  0  0  0  0  0  0
   41.7880   28.8060   39.1070 C   0  0  1  0  0  3  0  0  0  0  0  0
   41.2810   27.3990   39.2310 C   0  0  0  0  0  3  0  0  0  0  0  0
   41.0700   27.2230   40.3030 H   0  0  0  0  0  0  0  0  0  0  0  0
   40.0620   27.3910   38.3710 C   0  0  0  0  0  3  0  0  0  0  0  0
   39.1540   27.1660   38.9690 H   0  0  0  0  0  0  0  0  0  0  0  0
   39.9040   28.6720   37.8590 O   0  0  0  0  0  0  0  0  0  0  0  0
   41.1530   29.2440   37.7830 C   0  0  0  0  0  3  0  0  0  0  0  0
   41.0510   30.3440   37.7170 H   0  0  0  0  0  0  0  0  0  0  0  0
  1  2  1  0  0  0  0
  1  8  1  0  0  0  0
  2  6  1  0  0  0  0
  3  2  2  0  0  0  0
  4  5  1  0  0  0  0
  4  3  1  0  0  0  0
  5  1  2  0  0  0  0
  7  3  1  0  0  0  0
  8  9  1  0  0  0  0
  9 14  1  0  0  0  0
  9 10  2  0  0  0  0
 10 16  1  0  0  0  0
 11 10  1  0  0  0  0
 12 11  2  0  0  0  0
 13  8  2  0  0  0  0
 13 12  1  0  0  0  0
 15 12  1  0  0  0  0
 16 17  1  0  0  0  0
 16 19  1  0  0  0  0
 16 18  1  0  0  0  0
 20  4  1  0  0  0  0
 21 25  1  0  0  0  0
 21 20  2  0  0  0  0
 22 21  1  0  0  0  0
 23 22  2  0  0  0  0
 23 24  1  0  0  0  0
 24 20  1  0  0  0  0
 26 22  1  0  0  0  0
 27 28  1  0  0  0  0
 27 23  1  1  0  0  0
 28 29  1  0  0  0  0
 30 31  1  0  0  0  0
 30 28  1  0  0  0  0
 32 30  1  0  0  0  0
 33 32  1  0  0  0  0
 33 27  1  0  0  0  0
 34 33  1  0  0  0  0
M  END
>  <minimizedAffinity>
-6.14276028

>  <minimizedRMSD>
0.395200998

$$$$
