
 OpenBabel03272508093D

 23 24  0  0  1  0  0  0  0  0999 V2000
   39.1120   32.6920   48.1390 O   0  0  0  0  0  0  0  0  0  0  0  0
   38.6390   31.7000   47.1230 P   0  0  2  0  0  0  0  0  0  0  0  0
   37.5510   32.4570   46.0620 O   0  0  0  0  0  0  0  0  0  0  0  0
   37.1350   33.2180   46.5770 H   0  0  0  0  0  0  0  0  0  0  0  0
   37.9690   30.2890   47.7730 O   0  0  0  0  0  0  0  0  0  0  0  0
   37.2970   30.1740   51.4160 C   0  0  0  0  0  0  0  0  0  0  0  0
   37.9980   30.4860   50.2530 C   0  0  0  0  0  0  0  0  0  0  0  0
   37.4750   30.1010   49.0220 C   0  0  0  0  0  0  0  0  0  0  0  0
   36.2790   29.4240   49.0240 N   0  0  0  0  0  0  0  0  0  0  0  0
   35.6340   29.1420   50.1800 C   0  0  0  0  0  0  0  0  0  0  0  0
   36.1310   29.5100   51.3580 N   0  0  0  0  0  0  0  0  0  0  0  0
   37.8380   30.5430   52.2820 H   0  0  0  0  0  0  0  0  0  0  0  0
   38.9380   31.0120   50.1730 H   0  0  0  0  0  0  0  0  0  0  0  0
   34.6910   28.6100   50.2000 H   0  0  0  0  0  0  0  0  0  0  0  0
   39.9910   31.2580   46.1850 O   0  0  0  0  0  0  0  0  0  0  0  0
   39.5700   31.1410   44.8730 C   0  0  1  0  0  3  0  0  0  0  0  0
   40.5950   31.4890   43.8470 C   0  0  0  0  0  3  0  0  0  0  0  0
   41.6350   31.5860   44.2720 H   0  0  0  0  0  0  0  0  0  0  0  0
   40.5280   30.3080   42.8880 C   0  0  0  0  0  3  0  0  0  0  0  0
   41.2750   29.5290   43.1180 H   0  0  0  0  0  0  0  0  0  0  0  0
   39.2520   29.7680   43.1020 O   0  0  0  0  0  0  0  0  0  0  0  0
   39.1880   29.7240   44.5130 C   0  0  0  0  0  3  0  0  0  0  0  0
   38.1290   29.4840   44.7880 H   0  0  0  0  0  0  0  0  0  0  0  0
  2  5  1  0  0  0  0
  2  1  2  1  0  0  0
  3  4  1  0  0  0  0
  3  2  1  0  0  0  0
  5  8  1  0  0  0  0
  6 12  1  0  0  0  0
  7  6  2  0  0  0  0
  8  9  2  0  0  0  0
  8  7  1  0  0  0  0
  9 10  1  0  0  0  0
 10 14  1  0  0  0  0
 10 11  2  0  0  0  0
 11  6  1  0  0  0  0
 13  7  1  0  0  0  0
 15  2  1  0  0  0  0
 16 15  1  1  0  0  0
 17 18  1  0  0  0  0
 17 16  1  0  0  0  0
 19 21  1  0  0  0  0
 19 20  1  0  0  0  0
 19 17  1  0  0  0  0
 21 22  1  0  0  0  0
 22 23  1  0  0  0  0
 22 16  1  0  0  0  0
M  END
>  <minimizedAffinity>
-4.95160246

>  <minimizedRMSD>
0.896557748

$$$$
