
 OpenBabel03272508123D

 33 35  0  0  1  0  0  0  0  0999 V2000
   36.6490   29.4550   44.0720 Cl  0  0  0  0  0  0  0  0  0  0  0  0
   38.2810   29.8400   43.5150 C   0  0  0  0  0  0  0  0  0  0  0  0
   39.2920   30.3170   44.3510 C   0  0  0  0  0  0  0  0  0  0  0  0
   40.5360   30.5810   43.7810 C   0  0  0  0  0  0  0  0  0  0  0  0
   40.7340   30.3700   42.4370 C   0  0  0  0  0  0  0  0  0  0  0  0
   39.7610   29.9050   41.6020 C   0  0  0  0  0  0  0  0  0  0  0  0
   38.5340   29.6420   42.1490 C   0  0  0  0  0  0  0  0  0  0  0  0
   41.2420   30.9430   44.5150 H   0  0  0  0  0  0  0  0  0  0  0  0
   41.7420   30.6060   42.0840 H   0  0  0  0  0  0  0  0  0  0  0  0
   40.0080   29.7700   40.5590 H   0  0  0  0  0  0  0  0  0  0  0  0
   37.4610   29.1350   41.2550 C   0  0  2  0  0  3  0  0  0  0  0  0
   38.0150   28.4830   39.9970 C   0  0  0  0  0  3  0  0  0  0  0  0
   39.1080   28.3890   39.9950 H   0  0  0  0  0  0  0  0  0  0  0  0
   37.5050   29.4180   38.9220 C   0  0  0  0  0  3  0  0  0  0  0  0
   38.2560   29.5430   38.1000 H   0  0  0  0  0  0  0  0  0  0  0  0
   37.2610   30.6300   39.5630 O   0  0  0  0  0  0  0  0  0  0  0  0
   36.6020   30.2210   40.7190 C   0  0  0  0  0  3  0  0  0  0  0  0
   35.6580   29.7300   40.3480 H   0  0  0  0  0  0  0  0  0  0  0  0
   38.8770   30.4510   45.6470 O   0  0  0  0  0  0  0  0  0  0  0  0
   39.4450   32.5110   47.1150 O   0  0  0  0  0  0  0  0  0  0  0  0
   38.3170   31.8360   46.4220 P   0  0  1  0  0  0  0  0  0  0  0  0
   37.7230   32.8480   45.1820 O   0  0  0  0  0  0  0  0  0  0  0  0
   38.5050   33.1980   44.6700 H   0  0  0  0  0  0  0  0  0  0  0  0
   37.0290   31.4080   47.4410 O   0  0  0  0  0  0  0  0  0  0  0  0
   37.6090   30.5290   50.9870 C   0  0  0  0  0  0  0  0  0  0  0  0
   37.7060   31.3020   49.8260 C   0  0  0  0  0  0  0  0  0  0  0  0
   37.0710   30.8360   48.6660 C   0  0  0  0  0  0  0  0  0  0  0  0
   36.3930   29.6550   48.7310 N   0  0  0  0  0  0  0  0  0  0  0  0
   36.3250   28.9420   49.8720 C   0  0  0  0  0  0  0  0  0  0  0  0
   36.9290   29.3790   50.9880 N   0  0  0  0  0  0  0  0  0  0  0  0
   38.1220   30.9420   51.8540 H   0  0  0  0  0  0  0  0  0  0  0  0
   38.2220   32.2420   49.7000 H   0  0  0  0  0  0  0  0  0  0  0  0
   35.7930   28.0020   49.9470 H   0  0  0  0  0  0  0  0  0  0  0  0
  2  1  1  0  0  0  0
  2  3  1  0  0  0  0
  3 19  1  0  0  0  0
  4  3  2  0  0  0  0
  4  8  1  0  0  0  0
  5  4  1  0  0  0  0
  6  7  1  0  0  0  0
  6  5  2  0  0  0  0
  7  2  2  0  0  0  0
  9  5  1  0  0  0  0
 10  6  1  0  0  0  0
 11  7  1  1  0  0  0
 12 11  1  0  0  0  0
 13 12  1  0  0  0  0
 14 16  1  0  0  0  0
 14 12  1  0  0  0  0
 15 14  1  0  0  0  0
 16 17  1  0  0  0  0
 17 11  1  0  0  0  0
 18 17  1  0  0  0  0
 19 21  1  0  0  0  0
 21 20  2  1  0  0  0
 21 24  1  0  0  0  0
 22 21  1  0  0  0  0
 23 22  1  0  0  0  0
 24 27  1  0  0  0  0
 25 30  1  0  0  0  0
 25 31  1  0  0  0  0
 26 25  2  0  0  0  0
 27 28  2  0  0  0  0
 27 26  1  0  0  0  0
 28 29  1  0  0  0  0
 29 33  1  0  0  0  0
 29 30  2  0  0  0  0
 32 26  1  0  0  0  0
M  END
>  <minimizedAffinity>
-4.84276676

>  <minimizedRMSD>
0.102555849

$$$$
