REMARK  Name = 
REMARK  3 active torsions:
REMARK  status: ('A' for Active; 'I' for Inactive)
REMARK    1  A    between atoms: C_1  and  C_7
REMARK    2  A    between atoms: C_3  and  C_13
REMARK    3  A    between atoms: C_17  and  C_37
REMARK                            x       y       z     vdW  Elec       q    Type
REMARK                         _______ _______ _______ _____ _____    ______ ____
ROOT
ATOM      1  C   UNL     1      35.275  30.354  49.706  0.00  0.00    +0.000 C 
ATOM      2  C   UNL     1      36.263  31.084  48.869  0.00  0.00    +0.000 C 
ATOM      3  C   UNL     1      37.671  30.503  48.957  0.00  0.00    +0.000 C 
ATOM      4  C   UNL     1      38.150  30.640  50.385  0.00  0.00    +0.000 C 
ATOM      5  C   UNL     1      37.126  30.129  51.377  0.00  0.00    +0.000 C 
ATOM      6  C   UNL     1      35.967  29.440  50.696  0.00  0.00    +0.000 C 
ATOM      7  H   UNL     1      34.610  31.037  50.312  0.00  0.00    +0.000 HD
ATOM      8  H   UNL     1      36.390  32.098  49.398  0.00  0.00    +0.000 HD
ATOM      9  H   UNL     1      36.074  31.328  47.862  0.00  0.00    +0.000 HD
ATOM     10  H   UNL     1      37.556  29.410  48.819  0.00  0.00    +0.000 HD
ATOM     11  H   UNL     1      38.542  31.635  50.636  0.00  0.00    +0.000 HD
ATOM     12  H   UNL     1      39.040  29.954  50.472  0.00  0.00    +0.000 HD
ATOM     13  H   UNL     1      37.527  29.527  52.185  0.00  0.00    +0.000 HD
ATOM     14  H   UNL     1      36.677  31.038  51.861  0.00  0.00    +0.000 HD
ATOM     15  H   UNL     1      36.275  28.487  50.219  0.00  0.00    +0.000 HD
ATOM     16  H   UNL     1      35.234  29.194  51.486  0.00  0.00    +0.000 HD
ENDROOT
BRANCH   3  17
ATOM     17  C   UNL     1      38.572  31.014  47.925  0.00  0.00    +0.000 C 
ATOM     18  C   UNL     1      38.755  32.527  47.916  0.00  0.00    +0.000 C 
ATOM     19  C   UNL     1      39.544  32.621  46.598  0.00  0.00    +0.000 C 
ATOM     20  O   UNL     1      38.884  31.770  45.745  0.00  0.00    +0.000 OA
ATOM     21  C   UNL     1      38.233  30.788  46.510  0.00  0.00    +0.000 C 
ATOM     22  H   UNL     1      39.588  30.607  48.110  0.00  0.00    +0.000 HD
ATOM     23  H   UNL     1      39.377  32.800  48.771  0.00  0.00    +0.000 HD
ATOM     24  H   UNL     1      37.807  33.078  47.853  0.00  0.00    +0.000 HD
ATOM     25  H   UNL     1      39.605  33.653  46.247  0.00  0.00    +0.000 HD
ATOM     26  H   UNL     1      40.542  32.185  46.855  0.00  0.00    +0.000 HD
ATOM     27  H   UNL     1      37.177  30.866  46.219  0.00  0.00    +0.000 HD
BRANCH  21  28
ATOM     28  C   UNL     1      38.723  29.481  45.922  0.00  0.00    +0.000 C 
ATOM     29  C   UNL     1      39.937  29.770  45.056  0.00  0.00    +0.000 C 
ATOM     30  H   UNL     1      40.891  29.665  45.604  0.00  0.00    +0.000 HD
ATOM     31  C   UNL     1      39.779  28.806  43.910  0.00  0.00    +0.000 C 
ATOM     32  H   UNL     1      40.575  28.034  44.001  0.00  0.00    +0.000 HD
ATOM     33  O   UNL     1      38.560  28.175  44.007  0.00  0.00    +0.000 OA
ATOM     34  C   UNL     1      37.783  28.864  44.923  0.00  0.00    +0.000 C 
ATOM     35  H   UNL     1      37.163  28.121  45.456  0.00  0.00    +0.000 HD
ENDBRANCH  21  28
ENDBRANCH   3  17
BRANCH   1  36
ATOM     36  C   UNL     1      34.349  29.520  48.911  0.00  0.00    +0.000 A 
ATOM     37  C   UNL     1      34.308  29.801  47.545  0.00  0.00    +0.000 A 
ATOM     38  C   UNL     1      33.478  29.045  46.744  0.00  0.00    +0.000 A 
ATOM     39  N   UNL     1      32.721  28.041  47.323  0.00  0.00    +0.000 NA
ATOM     40  C   UNL     1      32.787  27.794  48.665  0.00  0.00    +0.000 A 
ATOM     41  N   UNL     1      33.592  28.533  49.415  0.00  0.00    +0.000 NA
ATOM     42  H   UNL     1      34.760  30.491  46.853  0.00  0.00    +0.000 HD
ATOM     43  H   UNL     1      33.257  29.043  45.699  0.00  0.00    +0.000 HD
ATOM     44  H   UNL     1      32.211  27.023  49.133  0.00  0.00    +0.000 HD
ENDBRANCH   1  36
TORSDOF 3
