
 OpenBabel03272508283D

 37 40  0  0  1  0  0  0  0  0999 V2000
   33.9890   28.9680   47.3430 C   0  0  2  0  0  0  0  0  0  0  0  0
   34.7270   28.2350   48.4520 C   0  0  2  0  0  0  0  0  0  0  0  0
   33.8200   28.0920   49.4650 O   0  0  0  0  0  0  0  0  0  0  0  0
   32.5510   28.1390   48.9840 C   0  0  0  0  0  0  0  0  0  0  0  0
   32.6150   28.3000   47.4810 C   0  0  1  0  0  0  0  0  0  0  0  0
   33.8210   30.0220   47.5770 H   0  0  0  0  0  0  0  0  0  0  0  0
   35.0250   27.2590   47.9970 H   0  0  0  0  0  0  0  0  0  0  0  0
   31.9730   27.2480   49.2870 H   0  0  0  0  0  0  0  0  0  0  0  0
   32.0570   29.0540   49.4110 H   0  0  0  0  0  0  0  0  0  0  0  0
   32.6810   27.2980   47.0100 H   0  0  0  0  0  0  0  0  0  0  0  0
   35.7880   30.5160   49.0470 C   0  0  1  0  0  0  0  0  0  0  0  0
   35.8830   29.0890   48.8600 C   0  0  1  0  0  0  0  0  0  0  0  0
   36.0310   29.6030   50.2560 C   0  0  0  0  0  0  0  0  0  0  0  0
   34.8840   31.1210   49.2180 H   0  0  0  0  0  0  0  0  0  0  0  0
   36.8550   28.7120   48.4270 H   0  0  0  0  0  0  0  0  0  0  0  0
   35.1840   29.3700   50.9260 H   0  0  0  0  0  0  0  0  0  0  0  0
   37.0110   29.6210   50.7520 H   0  0  0  0  0  0  0  0  0  0  0  0
   36.9770   31.4250   48.7840 C   0  0  0  0  0  0  0  0  0  0  0  0
   37.1970   32.4740   49.6770 C   0  0  0  0  0  0  0  0  0  0  0  0
   38.2820   33.2860   49.3750 C   0  0  0  0  0  0  0  0  0  0  0  0
   39.0600   33.0450   48.2670 N   0  0  0  0  0  0  0  0  0  0  0  0
   38.8050   32.0140   47.4320 C   0  0  0  0  0  0  0  0  0  0  0  0
   37.7540   31.1970   47.6930 N   0  0  0  0  0  0  0  0  0  0  0  0
   36.5580   32.6160   50.5240 H   0  0  0  0  0  0  0  0  0  0  0  0
   38.4850   34.1120   50.0440 H   0  0  0  0  0  0  0  0  0  0  0  0
   39.4490   31.8740   46.5800 H   0  0  0  0  0  0  0  0  0  0  0  0
   34.5290   28.7600   46.0870 O   0  0  0  0  0  0  0  0  0  0  0  0
   34.5200   27.7830   45.9150 H   0  0  0  0  0  0  0  0  0  0  0  0
   31.6210   29.0760   46.9500 O   0  0  0  0  0  0  0  0  0  0  0  0
   30.7080   28.3930   46.1760 C   0  0  2  0  0  3  0  0  0  0  0  0
   29.4940   27.9460   46.9720 C   0  0  0  0  0  3  0  0  0  0  0  0
   28.6630   28.6480   46.9420 H   0  0  0  0  0  0  0  0  0  0  0  0
   29.0950   26.7150   46.1740 C   0  0  0  0  0  3  0  0  0  0  0  0
   28.4110   27.0110   45.3350 H   0  0  0  0  0  0  0  0  0  0  0  0
   30.2610   26.1390   45.7090 O   0  0  0  0  0  0  0  0  0  0  0  0
   31.2960   27.0520   45.8140 C   0  0  0  0  0  3  0  0  0  0  0  0
   31.9630   27.0790   44.9290 H   0  0  0  0  0  0  0  0  0  0  0  0
  1  5  1  0  0  0  0
  1  6  1  1  0  0  0
  1  2  1  0  0  0  0
  2  7  1  6  0  0  0
  2 12  1  0  0  0  0
  2  3  1  0  0  0  0
  4  8  1  0  0  0  0
  4  9  1  0  0  0  0
  4  3  1  0  0  0  0
  5 10  1  6  0  0  0
  5  4  1  0  0  0  0
 11 14  1  6  0  0  0
 11 13  1  0  0  0  0
 12 15  1  6  0  0  0
 12 11  1  0  0  0  0
 12 13  1  0  0  0  0
 13 17  1  0  0  0  0
 13 16  1  0  0  0  0
 18 11  1  0  0  0  0
 18 19  1  0  0  0  0
 19 24  1  0  0  0  0
 20 19  2  0  0  0  0
 20 25  1  0  0  0  0
 21 20  1  0  0  0  0
 22 23  1  0  0  0  0
 22 21  2  0  0  0  0
 23 18  2  0  0  0  0
 26 22  1  0  0  0  0
 27  1  1  0  0  0  0
 28 27  1  0  0  0  0
 29  5  1  0  0  0  0
 30 29  1  1  0  0  0
 30 31  1  0  0  0  0
 32 31  1  0  0  0  0
 33 31  1  0  0  0  0
 34 33  1  0  0  0  0
 35 36  1  0  0  0  0
 35 33  1  0  0  0  0
 36 30  1  0  0  0  0
 37 36  1  0  0  0  0
M  END
>  <minimizedAffinity>
-4.83323717

>  <minimizedRMSD>
0.299631327

$$$$
