
 OpenBabel03272508123D

 33 35  0  0  1  0  0  0  0  0999 V2000
   36.7100   29.4560   44.0950 Cl  0  0  0  0  0  0  0  0  0  0  0  0
   38.3510   29.8520   43.5720 C   0  0  0  0  0  0  0  0  0  0  0  0
   39.3390   30.3430   44.4260 C   0  0  0  0  0  0  0  0  0  0  0  0
   40.5930   30.6140   43.8820 C   0  0  0  0  0  0  0  0  0  0  0  0
   40.8230   30.3950   42.5440 C   0  0  0  0  0  0  0  0  0  0  0  0
   39.8730   29.9160   41.6910 C   0  0  0  0  0  0  0  0  0  0  0  0
   38.6360   29.6460   42.2130 C   0  0  0  0  0  0  0  0  0  0  0  0
   41.2790   30.9880   44.6290 H   0  0  0  0  0  0  0  0  0  0  0  0
   41.8370   30.6380   42.2120 H   0  0  0  0  0  0  0  0  0  0  0  0
   40.1440   29.7750   40.6550 H   0  0  0  0  0  0  0  0  0  0  0  0
   37.5880   29.1220   41.3000 C   0  0  2  0  0  3  0  0  0  0  0  0
   37.6070   27.6040   41.2040 C   0  0  0  0  0  3  0  0  0  0  0  0
   38.3090   27.1280   41.9000 H   0  0  0  0  0  0  0  0  0  0  0  0
   37.9880   27.3960   39.7550 C   0  0  0  0  0  3  0  0  0  0  0  0
   38.6640   26.5110   39.6320 H   0  0  0  0  0  0  0  0  0  0  0  0
   38.6280   28.5700   39.3630 O   0  0  0  0  0  0  0  0  0  0  0  0
   37.7920   29.5490   39.8920 C   0  0  0  0  0  3  0  0  0  0  0  0
   36.8080   29.3950   39.3640 H   0  0  0  0  0  0  0  0  0  0  0  0
   38.8930   30.4830   45.7110 O   0  0  0  0  0  0  0  0  0  0  0  0
   39.4360   32.5660   47.1580 O   0  0  0  0  0  0  0  0  0  0  0  0
   38.3180   31.8720   46.4680 P   0  0  1  0  0  0  0  0  0  0  0  0
   37.7200   32.8640   45.2130 O   0  0  0  0  0  0  0  0  0  0  0  0
   38.5010   33.2150   44.7010 H   0  0  0  0  0  0  0  0  0  0  0  0
   37.0290   31.4450   47.4860 O   0  0  0  0  0  0  0  0  0  0  0  0
   37.6000   30.5130   51.0200 C   0  0  0  0  0  0  0  0  0  0  0  0
   37.6980   31.3040   49.8700 C   0  0  0  0  0  0  0  0  0  0  0  0
   37.0680   30.8540   48.7010 C   0  0  0  0  0  0  0  0  0  0  0  0
   36.3940   29.6700   48.7460 N   0  0  0  0  0  0  0  0  0  0  0  0
   36.3250   28.9390   49.8760 C   0  0  0  0  0  0  0  0  0  0  0  0
   36.9240   29.3610   51.0010 N   0  0  0  0  0  0  0  0  0  0  0  0
   38.1090   30.9150   51.8950 H   0  0  0  0  0  0  0  0  0  0  0  0
   38.2120   32.2480   49.7610 H   0  0  0  0  0  0  0  0  0  0  0  0
   35.7960   27.9970   49.9350 H   0  0  0  0  0  0  0  0  0  0  0  0
  2  1  1  0  0  0  0
  2  3  1  0  0  0  0
  3 19  1  0  0  0  0
  4  3  2  0  0  0  0
  4  8  1  0  0  0  0
  5  4  1  0  0  0  0
  6  7  1  0  0  0  0
  6  5  2  0  0  0  0
  7  2  2  0  0  0  0
  9  5  1  0  0  0  0
 10  6  1  0  0  0  0
 11  7  1  1  0  0  0
 12 11  1  0  0  0  0
 12 13  1  0  0  0  0
 14 12  1  0  0  0  0
 15 14  1  0  0  0  0
 16 14  1  0  0  0  0
 16 17  1  0  0  0  0
 17 11  1  0  0  0  0
 18 17  1  0  0  0  0
 19 21  1  0  0  0  0
 21 20  2  1  0  0  0
 21 24  1  0  0  0  0
 22 21  1  0  0  0  0
 23 22  1  0  0  0  0
 24 27  1  0  0  0  0
 25 31  1  0  0  0  0
 26 25  2  0  0  0  0
 27 28  2  0  0  0  0
 27 26  1  0  0  0  0
 28 29  1  0  0  0  0
 29 33  1  0  0  0  0
 29 30  2  0  0  0  0
 30 25  1  0  0  0  0
 32 26  1  0  0  0  0
M  END
>  <minimizedAffinity>
-4.88357353

>  <minimizedRMSD>
0.405731231

$$$$
