
 OpenBabel03272508293D

 37 40  0  0  1  0  0  0  0  0999 V2000
   35.3330   25.4200   31.1110 C   0  0  2  0  0  0  0  0  0  0  0  0
   36.4830   26.4150   31.0860 C   0  0  2  0  0  0  0  0  0  0  0  0
   37.4050   25.9330   31.9730 O   0  0  0  0  0  0  0  0  0  0  0  0
   37.2590   24.5920   32.1360 C   0  0  0  0  0  0  0  0  0  0  0  0
   36.1370   24.1200   31.2380 C   0  0  1  0  0  0  0  0  0  0  0  0
   34.7430   25.4830   32.0290 H   0  0  0  0  0  0  0  0  0  0  0  0
   36.8480   26.3990   30.0300 H   0  0  0  0  0  0  0  0  0  0  0  0
   38.2070   24.0590   31.9420 H   0  0  0  0  0  0  0  0  0  0  0  0
   36.9520   24.4090   33.2020 H   0  0  0  0  0  0  0  0  0  0  0  0
   36.5490   23.8810   30.2360 H   0  0  0  0  0  0  0  0  0  0  0  0
   36.1740   28.3050   32.8230 C   0  0  1  0  0  0  0  0  0  0  0  0
   35.9380   27.7370   31.5170 C   0  0  1  0  0  0  0  0  0  0  0  0
   36.7950   28.9600   31.5820 C   0  0  0  0  0  0  0  0  0  0  0  0
   36.9680   28.0500   33.5420 H   0  0  0  0  0  0  0  0  0  0  0  0
   34.9220   27.9370   31.0690 H   0  0  0  0  0  0  0  0  0  0  0  0
   37.8650   28.7870   31.3680 H   0  0  0  0  0  0  0  0  0  0  0  0
   36.4160   29.9360   31.2450 H   0  0  0  0  0  0  0  0  0  0  0  0
   35.1500   29.2130   33.4820 C   0  0  0  0  0  0  0  0  0  0  0  0
   35.5760   29.9900   34.5600 C   0  0  0  0  0  0  0  0  0  0  0  0
   34.5930   30.7820   35.1390 C   0  0  0  0  0  0  0  0  0  0  0  0
   33.3040   30.7750   34.6590 N   0  0  0  0  0  0  0  0  0  0  0  0
   32.9420   30.0030   33.6100 C   0  0  0  0  0  0  0  0  0  0  0  0
   33.8730   29.2160   33.0170 N   0  0  0  0  0  0  0  0  0  0  0  0
   36.5920   29.9560   34.8920 H   0  0  0  0  0  0  0  0  0  0  0  0
   34.8840   31.4000   35.9780 H   0  0  0  0  0  0  0  0  0  0  0  0
   31.9170   30.0390   33.2790 H   0  0  0  0  0  0  0  0  0  0  0  0
   34.5670   25.4300   29.9600 O   0  0  0  0  0  0  0  0  0  0  0  0
   35.1690   25.2350   29.1960 H   0  0  0  0  0  0  0  0  0  0  0  0
   35.3800   23.1070   31.7600 O   0  0  0  0  0  0  0  0  0  0  0  0
   36.0680   21.9350   31.9940 C   0  0  2  0  0  3  0  0  0  0  0  0
   35.9570   20.9570   30.8380 C   0  0  0  0  0  3  0  0  0  0  0  0
   36.7680   21.0320   30.1170 H   0  0  0  0  0  0  0  0  0  0  0  0
   36.1180   19.6450   31.5880 C   0  0  0  0  0  3  0  0  0  0  0  0
   37.2060   19.3870   31.6750 H   0  0  0  0  0  0  0  0  0  0  0  0
   35.5280   19.8110   32.8260 O   0  0  0  0  0  0  0  0  0  0  0  0
   35.3450   21.1620   33.0680 C   0  0  0  0  0  3  0  0  0  0  0  0
   35.6070   21.4730   34.0990 H   0  0  0  0  0  0  0  0  0  0  0  0
  1  5  1  0  0  0  0
  1  6  1  1  0  0  0
  2  7  1  6  0  0  0
  2  1  1  0  0  0  0
  2 12  1  0  0  0  0
  2  3  1  0  0  0  0
  3  4  1  0  0  0  0
  4  9  1  0  0  0  0
  5 10  1  6  0  0  0
  5 29  1  0  0  0  0
  5  4  1  0  0  0  0
  8  4  1  0  0  0  0
 11 18  1  0  0  0  0
 11 14  1  1  0  0  0
 12 15  1  6  0  0  0
 12 13  1  0  0  0  0
 12 11  1  0  0  0  0
 13 11  1  0  0  0  0
 16 13  1  0  0  0  0
 17 13  1  0  0  0  0
 18 19  1  0  0  0  0
 19 24  1  0  0  0  0
 19 20  2  0  0  0  0
 20 25  1  0  0  0  0
 21 20  1  0  0  0  0
 22 21  2  0  0  0  0
 23 18  2  0  0  0  0
 23 22  1  0  0  0  0
 26 22  1  0  0  0  0
 27  1  1  0  0  0  0
 28 27  1  0  0  0  0
 30 29  1  6  0  0  0
 30 36  1  0  0  0  0
 31 33  1  0  0  0  0
 31 30  1  0  0  0  0
 32 31  1  0  0  0  0
 33 34  1  0  0  0  0
 33 35  1  0  0  0  0
 35 36  1  0  0  0  0
 36 37  1  0  0  0  0
M  END
>  <minimizedAffinity>
-4.9812541

$$$$

 OpenBabel03272508293D

 37 40  0  0  1  0  0  0  0  0999 V2000
   39.0260   23.7800   34.3920 C   0  0  2  0  0  0  0  0  0  0  0  0
   38.9870   24.7320   35.5770 C   0  0  2  0  0  0  0  0  0  0  0  0
   37.9740   24.2820   36.3770 O   0  0  0  0  0  0  0  0  0  0  0  0
   37.7400   22.9620   36.1600 C   0  0  0  0  0  0  0  0  0  0  0  0
   38.7250   22.4660   35.1240 C   0  0  1  0  0  0  0  0  0  0  0  0
   38.1850   23.9270   33.7080 H   0  0  0  0  0  0  0  0  0  0  0  0
   39.9920   24.6300   36.0550 H   0  0  0  0  0  0  0  0  0  0  0  0
   37.7920   22.3850   37.1000 H   0  0  0  0  0  0  0  0  0  0  0  0
   36.7050   22.8640   35.7300 H   0  0  0  0  0  0  0  0  0  0  0  0
   39.6560   22.1450   35.6320 H   0  0  0  0  0  0  0  0  0  0  0  0
   37.3950   26.6990   35.0490 C   0  0  1  0  0  0  0  0  0  0  0  0
   38.7070   26.0990   35.0440 C   0  0  1  0  0  0  0  0  0  0  0  0
   38.5000   27.2710   35.9470 C   0  0  0  0  0  0  0  0  0  0  0  0
   36.5240   26.4250   35.6650 H   0  0  0  0  0  0  0  0  0  0  0  0
   39.3560   26.3410   34.1530 H   0  0  0  0  0  0  0  0  0  0  0  0
   38.4890   27.0290   37.0250 H   0  0  0  0  0  0  0  0  0  0  0  0
   38.9290   28.2540   35.7070 H   0  0  0  0  0  0  0  0  0  0  0  0
   36.9780   27.6890   33.9740 C   0  0  0  0  0  0  0  0  0  0  0  0
   36.0200   28.6440   34.3140 C   0  0  0  0  0  0  0  0  0  0  0  0
   35.6590   29.5060   33.2870 C   0  0  0  0  0  0  0  0  0  0  0  0
   36.2260   29.3970   32.0390 N   0  0  0  0  0  0  0  0  0  0  0  0
   37.1520   28.4530   31.7600 C   0  0  0  0  0  0  0  0  0  0  0  0
   37.5310   27.5920   32.7370 N   0  0  0  0  0  0  0  0  0  0  0  0
   35.6110   28.6830   35.3020 H   0  0  0  0  0  0  0  0  0  0  0  0
   34.9170   30.2620   33.5110 H   0  0  0  0  0  0  0  0  0  0  0  0
   37.5610   28.4160   30.7640 H   0  0  0  0  0  0  0  0  0  0  0  0
   40.2530   23.7360   33.7570 O   0  0  0  0  0  0  0  0  0  0  0  0
   40.9300   23.4680   34.4300 H   0  0  0  0  0  0  0  0  0  0  0  0
   38.2250   21.5180   34.2730 O   0  0  0  0  0  0  0  0  0  0  0  0
   37.0740   21.8890   33.6090 C   0  0  2  0  0  3  0  0  0  0  0  0
   35.9590   20.8720   33.7700 C   0  0  0  0  0  3  0  0  0  0  0  0
   35.2860   21.0820   34.5990 H   0  0  0  0  0  0  0  0  0  0  0  0
   35.1960   21.1110   32.4770 C   0  0  0  0  0  3  0  0  0  0  0  0
   34.4440   21.9290   32.6250 H   0  0  0  0  0  0  0  0  0  0  0  0
   36.1290   21.4370   31.5120 O   0  0  0  0  0  0  0  0  0  0  0  0
   37.3220   21.7800   32.1260 C   0  0  0  0  0  3  0  0  0  0  0  0
   37.8130   22.6710   31.6860 H   0  0  0  0  0  0  0  0  0  0  0  0
  1  6  1  6  0  0  0
  1  5  1  0  0  0  0
  1  2  1  0  0  0  0
  2  7  1  1  0  0  0
  2  3  1  0  0  0  0
  4  3  1  0  0  0  0
  4  8  1  0  0  0  0
  5 10  1  1  0  0  0
  5  4  1  0  0  0  0
  9  4  1  0  0  0  0
 11 14  1  1  0  0  0
 11 13  1  0  0  0  0
 12 15  1  6  0  0  0
 12 11  1  0  0  0  0
 12  2  1  0  0  0  0
 12 13  1  0  0  0  0
 13 16  1  0  0  0  0
 17 13  1  0  0  0  0
 18 19  1  0  0  0  0
 18 11  1  0  0  0  0
 19 24  1  0  0  0  0
 20 25  1  0  0  0  0
 20 19  2  0  0  0  0
 21 20  1  0  0  0  0
 22 21  2  0  0  0  0
 22 23  1  0  0  0  0
 23 18  2  0  0  0  0
 26 22  1  0  0  0  0
 27  1  1  0  0  0  0
 27 28  1  0  0  0  0
 29  5  1  0  0  0  0
 30 31  1  0  0  0  0
 30 29  1  1  0  0  0
 31 32  1  0  0  0  0
 33 34  1  0  0  0  0
 33 31  1  0  0  0  0
 35 36  1  0  0  0  0
 35 33  1  0  0  0  0
 36 30  1  0  0  0  0
 37 36  1  0  0  0  0
M  END
>  <minimizedAffinity>
-4.95689154

$$$$

 OpenBabel03272508293D

 37 40  0  0  1  0  0  0  0  0999 V2000
   38.6370   24.6810   33.0060 C   0  0  2  0  0  0  0  0  0  0  0  0
   37.6090   25.2170   32.0220 C   0  0  2  0  0  0  0  0  0  0  0  0
   36.7430   25.9670   32.7670 O   0  0  0  0  0  0  0  0  0  0  0  0
   37.3410   26.4000   33.9080 C   0  0  0  0  0  0  0  0  0  0  0  0
   38.7730   25.9110   33.9120 C   0  0  1  0  0  0  0  0  0  0  0  0
   38.2330   23.8950   33.6480 H   0  0  0  0  0  0  0  0  0  0  0  0
   38.2010   25.8310   31.3000 H   0  0  0  0  0  0  0  0  0  0  0  0
   37.2700   27.4970   34.0080 H   0  0  0  0  0  0  0  0  0  0  0  0
   36.8080   25.9220   34.7750 H   0  0  0  0  0  0  0  0  0  0  0  0
   39.4100   26.6490   33.3830 H   0  0  0  0  0  0  0  0  0  0  0  0
   36.1180   23.1090   32.1450 C   0  0  1  0  0  0  0  0  0  0  0  0
   36.9300   24.0410   31.4000 C   0  0  1  0  0  0  0  0  0  0  0  0
   35.4630   24.0380   31.1130 C   0  0  0  0  0  0  0  0  0  0  0  0
   35.6430   23.2550   33.1270 H   0  0  0  0  0  0  0  0  0  0  0  0
   37.5410   23.6010   30.5600 H   0  0  0  0  0  0  0  0  0  0  0  0
   34.9200   24.9310   31.4710 H   0  0  0  0  0  0  0  0  0  0  0  0
   35.0690   23.6090   30.1810 H   0  0  0  0  0  0  0  0  0  0  0  0
   36.0150   21.6510   31.7300 C   0  0  0  0  0  0  0  0  0  0  0  0
   35.0130   20.8820   32.3230 C   0  0  0  0  0  0  0  0  0  0  0  0
   34.9800   19.5510   31.9260 C   0  0  0  0  0  0  0  0  0  0  0  0
   35.8850   19.0630   31.0140 N   0  0  0  0  0  0  0  0  0  0  0  0
   36.8380   19.8500   30.4680 C   0  0  0  0  0  0  0  0  0  0  0  0
   36.9030   21.1550   30.8290 N   0  0  0  0  0  0  0  0  0  0  0  0
   34.3340   21.3140   33.0280 H   0  0  0  0  0  0  0  0  0  0  0  0
   34.2160   18.9210   32.3630 H   0  0  0  0  0  0  0  0  0  0  0  0
   37.5200   19.4110   29.7580 H   0  0  0  0  0  0  0  0  0  0  0  0
   39.8450   24.3500   32.4200 O   0  0  0  0  0  0  0  0  0  0  0  0
   40.1940   25.1620   31.9710 H   0  0  0  0  0  0  0  0  0  0  0  0
   39.2550   25.5770   35.1480 O   0  0  0  0  0  0  0  0  0  0  0  0
   38.6790   24.4550   35.7070 C   0  0  2  0  0  3  0  0  0  0  0  0
   38.0030   24.7510   37.0340 C   0  0  0  0  0  3  0  0  0  0  0  0
   36.9430   24.9830   36.9470 H   0  0  0  0  0  0  0  0  0  0  0  0
   38.1300   23.3910   37.7020 C   0  0  0  0  0  3  0  0  0  0  0  0
   37.2560   22.7470   37.4240 H   0  0  0  0  0  0  0  0  0  0  0  0
   39.3270   22.8450   37.2830 O   0  0  0  0  0  0  0  0  0  0  0  0
   39.7780   23.5320   36.1680 C   0  0  0  0  0  3  0  0  0  0  0  0
   40.1790   22.8770   35.3690 H   0  0  0  0  0  0  0  0  0  0  0  0
  1  6  1  1  0  0  0
  1  5  1  0  0  0  0
  2  7  1  6  0  0  0
  2  3  1  0  0  0  0
  2  1  1  0  0  0  0
  3  4  1  0  0  0  0
  4  5  1  0  0  0  0
  4  8  1  0  0  0  0
  4  9  1  0  0  0  0
  5 10  1  6  0  0  0
  5 29  1  0  0  0  0
 11 14  1  1  0  0  0
 12 15  1  6  0  0  0
 12  2  1  0  0  0  0
 12 11  1  0  0  0  0
 13 12  1  0  0  0  0
 13 16  1  0  0  0  0
 13 11  1  0  0  0  0
 17 13  1  0  0  0  0
 18 11  1  0  0  0  0
 18 19  1  0  0  0  0
 19 24  1  0  0  0  0
 20 19  2  0  0  0  0
 20 25  1  0  0  0  0
 21 20  1  0  0  0  0
 22 23  1  0  0  0  0
 22 21  2  0  0  0  0
 23 18  2  0  0  0  0
 26 22  1  0  0  0  0
 27  1  1  0  0  0  0
 28 27  1  0  0  0  0
 30 29  1  1  0  0  0
 30 36  1  0  0  0  0
 30 31  1  0  0  0  0
 31 33  1  0  0  0  0
 32 31  1  0  0  0  0
 34 33  1  0  0  0  0
 35 33  1  0  0  0  0
 36 35  1  0  0  0  0
 37 36  1  0  0  0  0
M  END
>  <minimizedAffinity>
-4.87228155

$$$$

 OpenBabel03272508293D

 37 40  0  0  1  0  0  0  0  0999 V2000
   38.4270   26.9040   32.8990 C   0  0  2  0  0  0  0  0  0  0  0  0
   39.8710   27.1290   33.3210 C   0  0  2  0  0  0  0  0  0  0  0  0
   40.6340   26.6300   32.3030 O   0  0  0  0  0  0  0  0  0  0  0  0
   39.9330   26.6160   31.1390 C   0  0  0  0  0  0  0  0  0  0  0  0
   38.5620   27.1990   31.4000 C   0  0  1  0  0  0  0  0  0  0  0  0
   38.1320   25.8530   32.9590 H   0  0  0  0  0  0  0  0  0  0  0  0
   39.9640   28.2380   33.4270 H   0  0  0  0  0  0  0  0  0  0  0  0
   40.4740   27.1530   30.3390 H   0  0  0  0  0  0  0  0  0  0  0  0
   39.8020   25.5430   30.8310 H   0  0  0  0  0  0  0  0  0  0  0  0
   38.6060   28.3000   31.2780 H   0  0  0  0  0  0  0  0  0  0  0  0
   39.9240   24.9500   34.7110 C   0  0  1  0  0  0  0  0  0  0  0  0
   40.0860   26.3800   34.5940 C   0  0  1  0  0  0  0  0  0  0  0  0
   41.3210   25.5730   34.8360 C   0  0  0  0  0  0  0  0  0  0  0  0
   39.9250   24.1980   33.9070 H   0  0  0  0  0  0  0  0  0  0  0  0
   39.7770   26.9860   35.4940 H   0  0  0  0  0  0  0  0  0  0  0  0
   42.0090   25.5120   33.9740 H   0  0  0  0  0  0  0  0  0  0  0  0
   41.8190   25.5780   35.8150 H   0  0  0  0  0  0  0  0  0  0  0  0
   39.4760   24.3140   36.0160 C   0  0  0  0  0  0  0  0  0  0  0  0
   38.3400   24.8390   36.6330 C   0  0  0  0  0  0  0  0  0  0  0  0
   37.9910   24.2350   37.8340 C   0  0  0  0  0  0  0  0  0  0  0  0
   38.7340   23.1990   38.3480 N   0  0  0  0  0  0  0  0  0  0  0  0
   39.8280   22.7260   37.7100 C   0  0  0  0  0  0  0  0  0  0  0  0
   40.2010   23.2890   36.5350 N   0  0  0  0  0  0  0  0  0  0  0  0
   37.7980   25.6480   36.1880 H   0  0  0  0  0  0  0  0  0  0  0  0
   37.1140   24.6150   38.3440 H   0  0  0  0  0  0  0  0  0  0  0  0
   40.3710   21.9120   38.1610 H   0  0  0  0  0  0  0  0  0  0  0  0
   37.5310   27.7640   33.5050 O   0  0  0  0  0  0  0  0  0  0  0  0
   37.8090   28.6900   33.2860 H   0  0  0  0  0  0  0  0  0  0  0  0
   37.5530   26.6210   30.6790 O   0  0  0  0  0  0  0  0  0  0  0  0
   36.8610   25.6310   31.3460 C   0  0  2  0  0  3  0  0  0  0  0  0
   37.1010   24.2550   30.7530 C   0  0  0  0  0  3  0  0  0  0  0  0
   37.9110   23.7050   31.2280 H   0  0  0  0  0  0  0  0  0  0  0  0
   35.7930   23.5760   31.1260 C   0  0  0  0  0  3  0  0  0  0  0  0
   35.8760   23.1270   32.1500 H   0  0  0  0  0  0  0  0  0  0  0  0
   34.8060   24.5400   31.0640 O   0  0  0  0  0  0  0  0  0  0  0  0
   35.3910   25.7950   31.0540 C   0  0  0  0  0  3  0  0  0  0  0  0
   34.8830   26.5330   31.7060 H   0  0  0  0  0  0  0  0  0  0  0  0
  1  6  1  1  0  0  0
  1  2  1  0  0  0  0
  1 27  1  0  0  0  0
  2  7  1  1  0  0  0
  2 12  1  0  0  0  0
  3  2  1  0  0  0  0
  4  5  1  0  0  0  0
  4  3  1  0  0  0  0
  5 10  1  6  0  0  0
  5  1  1  0  0  0  0
  8  4  1  0  0  0  0
  9  4  1  0  0  0  0
 11 14  1  6  0  0  0
 11 13  1  0  0  0  0
 11 18  1  0  0  0  0
 12 11  1  0  0  0  0
 12 13  1  0  0  0  0
 12 15  1  1  0  0  0
 13 17  1  0  0  0  0
 16 13  1  0  0  0  0
 18 23  2  0  0  0  0
 18 19  1  0  0  0  0
 19 20  2  0  0  0  0
 20 25  1  0  0  0  0
 20 21  1  0  0  0  0
 22 26  1  0  0  0  0
 22 21  2  0  0  0  0
 23 22  1  0  0  0  0
 24 19  1  0  0  0  0
 28 27  1  0  0  0  0
 29  5  1  0  0  0  0
 30 29  1  6  0  0  0
 31 33  1  0  0  0  0
 31 32  1  0  0  0  0
 31 30  1  0  0  0  0
 33 34  1  0  0  0  0
 35 33  1  0  0  0  0
 36 35  1  0  0  0  0
 36 30  1  0  0  0  0
 36 37  1  0  0  0  0
M  END
>  <minimizedAffinity>
-4.83652973

$$$$

 OpenBabel03272508293D

 37 40  0  0  1  0  0  0  0  0999 V2000
   36.5520   27.3520   30.8700 C   0  0  2  0  0  0  0  0  0  0  0  0
   36.9240   28.4440   31.8610 C   0  0  2  0  0  0  0  0  0  0  0  0
   37.4230   27.7930   32.9540 O   0  0  0  0  0  0  0  0  0  0  0  0
   37.8940   26.5670   32.6100 C   0  0  0  0  0  0  0  0  0  0  0  0
   37.7190   26.3890   31.1180 C   0  0  1  0  0  0  0  0  0  0  0  0
   35.6560   26.8020   31.1700 H   0  0  0  0  0  0  0  0  0  0  0  0
   37.6950   29.0550   31.3320 H   0  0  0  0  0  0  0  0  0  0  0  0
   38.9430   26.4350   32.9300 H   0  0  0  0  0  0  0  0  0  0  0  0
   37.2570   25.7980   33.1290 H   0  0  0  0  0  0  0  0  0  0  0  0
   38.6080   26.7980   30.5970 H   0  0  0  0  0  0  0  0  0  0  0  0
   35.2220   29.4370   33.5350 C   0  0  1  0  0  0  0  0  0  0  0  0
   35.6760   29.1970   32.1860 C   0  0  1  0  0  0  0  0  0  0  0  0
   35.7100   30.6100   32.6730 C   0  0  0  0  0  0  0  0  0  0  0  0
   35.8080   29.3960   34.4660 H   0  0  0  0  0  0  0  0  0  0  0  0
   34.8670   29.0180   31.4190 H   0  0  0  0  0  0  0  0  0  0  0  0
   36.7230   31.0140   32.8480 H   0  0  0  0  0  0  0  0  0  0  0  0
   34.9810   31.3500   32.3150 H   0  0  0  0  0  0  0  0  0  0  0  0
   33.7430   29.5570   33.8580 C   0  0  0  0  0  0  0  0  0  0  0  0
   33.3940   30.1000   35.0950 C   0  0  0  0  0  0  0  0  0  0  0  0
   32.0300   30.1630   35.3470 C   0  0  0  0  0  0  0  0  0  0  0  0
   31.1180   29.7140   34.4210 N   0  0  0  0  0  0  0  0  0  0  0  0
   31.5070   29.1960   33.2350 C   0  0  0  0  0  0  0  0  0  0  0  0
   32.8300   29.1180   32.9510 N   0  0  0  0  0  0  0  0  0  0  0  0
   34.1470   30.4340   35.7790 H   0  0  0  0  0  0  0  0  0  0  0  0
   31.7190   30.5780   36.2970 H   0  0  0  0  0  0  0  0  0  0  0  0
   30.7470   28.8610   32.5490 H   0  0  0  0  0  0  0  0  0  0  0  0
   36.5210   27.7820   29.5570 O   0  0  0  0  0  0  0  0  0  0  0  0
   37.4180   28.1480   29.3400 H   0  0  0  0  0  0  0  0  0  0  0  0
   37.4110   25.1130   30.7310 O   0  0  0  0  0  0  0  0  0  0  0  0
   36.9640   24.2940   31.7470 C   0  0  2  0  0  3  0  0  0  0  0  0
   37.6960   22.9650   31.7860 C   0  0  0  0  0  3  0  0  0  0  0  0
   38.5560   22.9550   32.4530 H   0  0  0  0  0  0  0  0  0  0  0  0
   36.6170   22.0890   32.4000 C   0  0  0  0  0  3  0  0  0  0  0  0
   36.6820   22.1340   33.5190 H   0  0  0  0  0  0  0  0  0  0  0  0
   35.4030   22.5550   31.9350 O   0  0  0  0  0  0  0  0  0  0  0  0
   35.5730   23.8230   31.4040 C   0  0  0  0  0  3  0  0  0  0  0  0
   34.7740   24.5380   31.6840 H   0  0  0  0  0  0  0  0  0  0  0  0
  1  5  1  0  0  0  0
  1  6  1  1  0  0  0
  1  2  1  0  0  0  0
  2  7  1  6  0  0  0
  2 12  1  0  0  0  0
  2  3  1  0  0  0  0
  4  8  1  0  0  0  0
  4  3  1  0  0  0  0
  4  9  1  0  0  0  0
  5 10  1  6  0  0  0
  5  4  1  0  0  0  0
 11 18  1  0  0  0  0
 11 14  1  1  0  0  0
 12 15  1  6  0  0  0
 12 13  1  0  0  0  0
 12 11  1  0  0  0  0
 13 16  1  0  0  0  0
 13 11  1  0  0  0  0
 17 13  1  0  0  0  0
 18 19  1  0  0  0  0
 19 20  2  0  0  0  0
 19 24  1  0  0  0  0
 20 25  1  0  0  0  0
 21 20  1  0  0  0  0
 22 21  2  0  0  0  0
 23 22  1  0  0  0  0
 23 18  2  0  0  0  0
 26 22  1  0  0  0  0
 27  1  1  0  0  0  0
 28 27  1  0  0  0  0
 29  5  1  0  0  0  0
 30 29  1  6  0  0  0
 30 31  1  0  0  0  0
 31 33  1  0  0  0  0
 31 32  1  0  0  0  0
 33 34  1  0  0  0  0
 35 33  1  0  0  0  0
 36 37  1  0  0  0  0
 36 30  1  0  0  0  0
 36 35  1  0  0  0  0
M  END
>  <minimizedAffinity>
-4.80492258

$$$$

 OpenBabel03272508293D

 37 40  0  0  1  0  0  0  0  0999 V2000
   35.9140   27.7850   31.7000 C   0  0  2  0  0  0  0  0  0  0  0  0
   36.4790   28.5450   32.8900 C   0  0  2  0  0  0  0  0  0  0  0  0
   36.8160   27.5910   33.8090 O   0  0  0  0  0  0  0  0  0  0  0  0
   37.0380   26.3960   33.2020 C   0  0  0  0  0  0  0  0  0  0  0  0
   36.8600   26.5780   31.7100 C   0  0  1  0  0  0  0  0  0  0  0  0
   34.9210   27.3740   31.8980 H   0  0  0  0  0  0  0  0  0  0  0  0
   37.3670   29.0870   32.4840 H   0  0  0  0  0  0  0  0  0  0  0  0
   38.0330   25.9930   33.4610 H   0  0  0  0  0  0  0  0  0  0  0  0
   36.2510   25.6790   33.5620 H   0  0  0  0  0  0  0  0  0  0  0  0
   37.8220   26.9020   31.2660 H   0  0  0  0  0  0  0  0  0  0  0  0
   35.5530   30.2910   34.5580 C   0  0  1  0  0  0  0  0  0  0  0  0
   35.4010   29.4460   33.3980 C   0  0  1  0  0  0  0  0  0  0  0  0
   35.4310   30.9220   33.1640 C   0  0  0  0  0  0  0  0  0  0  0  0
   36.4860   30.6280   35.0350 H   0  0  0  0  0  0  0  0  0  0  0  0
   34.3760   28.9990   33.2440 H   0  0  0  0  0  0  0  0  0  0  0  0
   36.3450   31.2930   32.6660 H   0  0  0  0  0  0  0  0  0  0  0  0
   34.5170   31.4730   32.9050 H   0  0  0  0  0  0  0  0  0  0  0  0
   34.3650   30.6410   35.4370 C   0  0  0  0  0  0  0  0  0  0  0  0
   33.1700   29.9570   35.2080 C   0  0  0  0  0  0  0  0  0  0  0  0
   32.1110   30.3340   36.0240 C   0  0  0  0  0  0  0  0  0  0  0  0
   32.2650   31.3140   36.9750 N   0  0  0  0  0  0  0  0  0  0  0  0
   33.4450   31.9470   37.1580 C   0  0  0  0  0  0  0  0  0  0  0  0
   34.5030   31.6070   36.3820 N   0  0  0  0  0  0  0  0  0  0  0  0
   33.1060   29.2020   34.4520 H   0  0  0  0  0  0  0  0  0  0  0  0
   31.1660   29.8260   35.8770 H   0  0  0  0  0  0  0  0  0  0  0  0
   33.5050   32.7070   37.9200 H   0  0  0  0  0  0  0  0  0  0  0  0
   35.9960   28.4820   30.5090 O   0  0  0  0  0  0  0  0  0  0  0  0
   36.9520   28.6980   30.3530 H   0  0  0  0  0  0  0  0  0  0  0  0
   36.3100   25.5010   31.0700 O   0  0  0  0  0  0  0  0  0  0  0  0
   36.7590   24.2750   31.5130 C   0  0  2  0  0  3  0  0  0  0  0  0
   37.8070   23.6750   30.5930 C   0  0  0  0  0  3  0  0  0  0  0  0
   38.8310   23.9080   30.8800 H   0  0  0  0  0  0  0  0  0  0  0  0
   37.5730   22.1960   30.8580 C   0  0  0  0  0  3  0  0  0  0  0  0
   38.1850   21.8650   31.7370 H   0  0  0  0  0  0  0  0  0  0  0  0
   36.2200   22.0350   31.0810 O   0  0  0  0  0  0  0  0  0  0  0  0
   35.6490   23.2690   31.3450 C   0  0  0  0  0  3  0  0  0  0  0  0
   34.9220   23.2580   32.1810 H   0  0  0  0  0  0  0  0  0  0  0  0
  1  5  1  0  0  0  0
  1  6  1  1  0  0  0
  1  2  1  0  0  0  0
  2  7  1  6  0  0  0
  2 12  1  0  0  0  0
  2  3  1  0  0  0  0
  4  8  1  0  0  0  0
  4  9  1  0  0  0  0
  4  3  1  0  0  0  0
  5 10  1  6  0  0  0
  5  4  1  0  0  0  0
 11 14  1  1  0  0  0
 11 18  1  0  0  0  0
 12 15  1  6  0  0  0
 12 11  1  0  0  0  0
 13 12  1  0  0  0  0
 13 11  1  0  0  0  0
 16 13  1  0  0  0  0
 17 13  1  0  0  0  0
 18 23  1  0  0  0  0
 19 18  2  0  0  0  0
 19 20  1  0  0  0  0
 20 21  2  0  0  0  0
 21 22  1  0  0  0  0
 22 26  1  0  0  0  0
 23 22  2  0  0  0  0
 24 19  1  0  0  0  0
 25 20  1  0  0  0  0
 27  1  1  0  0  0  0
 28 27  1  0  0  0  0
 29  5  1  0  0  0  0
 30 29  1  6  0  0  0
 31 33  1  0  0  0  0
 31 32  1  0  0  0  0
 31 30  1  0  0  0  0
 33 35  1  0  0  0  0
 33 34  1  0  0  0  0
 35 36  1  0  0  0  0
 36 30  1  0  0  0  0
 36 37  1  0  0  0  0
M  END
>  <minimizedAffinity>
-4.73621321

$$$$

 OpenBabel03272508293D

 37 40  0  0  1  0  0  0  0  0999 V2000
   37.8010   25.3600   34.1380 C   0  0  2  0  0  0  0  0  0  0  0  0
   38.2130   26.6320   33.4130 C   0  0  2  0  0  0  0  0  0  0  0  0
   38.6650   27.4790   34.3860 O   0  0  0  0  0  0  0  0  0  0  0  0
   39.0790   26.7830   35.4760 C   0  0  0  0  0  0  0  0  0  0  0  0
   38.9160   25.3060   35.1890 C   0  0  1  0  0  0  0  0  0  0  0  0
   36.8760   25.4820   34.7060 H   0  0  0  0  0  0  0  0  0  0  0  0
   39.0210   26.3100   32.7120 H   0  0  0  0  0  0  0  0  0  0  0  0
   40.1160   27.0460   35.7500 H   0  0  0  0  0  0  0  0  0  0  0  0
   38.3990   27.0480   36.3310 H   0  0  0  0  0  0  0  0  0  0  0  0
   39.8320   24.9300   34.6890 H   0  0  0  0  0  0  0  0  0  0  0  0
   36.9520   28.4670   32.0990 C   0  0  1  0  0  0  0  0  0  0  0  0
   36.9990   27.1700   32.7300 C   0  0  1  0  0  0  0  0  0  0  0  0
   36.8780   27.1970   31.2400 C   0  0  0  0  0  0  0  0  0  0  0  0
   37.7950   29.0900   31.7630 H   0  0  0  0  0  0  0  0  0  0  0  0
   36.0490   26.8360   33.2400 H   0  0  0  0  0  0  0  0  0  0  0  0
   37.7820   26.8680   30.6970 H   0  0  0  0  0  0  0  0  0  0  0  0
   35.9310   26.9410   30.7440 H   0  0  0  0  0  0  0  0  0  0  0  0
   35.6600   29.2630   32.0320 C   0  0  0  0  0  0  0  0  0  0  0  0
   35.6270   30.3690   31.1820 C   0  0  0  0  0  0  0  0  0  0  0  0
   34.4310   31.0740   31.1800 C   0  0  0  0  0  0  0  0  0  0  0  0
   33.3770   30.6820   31.9720 N   0  0  0  0  0  0  0  0  0  0  0  0
   33.4590   29.6020   32.7790 C   0  0  0  0  0  0  0  0  0  0  0  0
   34.6110   28.8870   32.8100 N   0  0  0  0  0  0  0  0  0  0  0  0
   36.4780   30.6290   30.5870 H   0  0  0  0  0  0  0  0  0  0  0  0
   34.3650   31.9390   30.5320 H   0  0  0  0  0  0  0  0  0  0  0  0
   32.6010   29.3430   33.3770 H   0  0  0  0  0  0  0  0  0  0  0  0
   37.8100   24.2360   33.3330 O   0  0  0  0  0  0  0  0  0  0  0  0
   38.7270   24.1380   32.9650 H   0  0  0  0  0  0  0  0  0  0  0  0
   38.5520   24.5540   36.2730 O   0  0  0  0  0  0  0  0  0  0  0  0
   39.1920   23.3360   36.3710 C   0  0  2  0  0  3  0  0  0  0  0  0
   39.5590   22.9880   37.8030 C   0  0  0  0  0  3  0  0  0  0  0  0
   38.8100   22.3890   38.3170 H   0  0  0  0  0  0  0  0  0  0  0  0
   40.7740   22.1080   37.5560 C   0  0  0  0  0  3  0  0  0  0  0  0
   40.4490   21.0460   37.4020 H   0  0  0  0  0  0  0  0  0  0  0  0
   41.4210   22.6150   36.4460 O   0  0  0  0  0  0  0  0  0  0  0  0
   40.5670   23.4690   35.7680 C   0  0  0  0  0  3  0  0  0  0  0  0
   40.5880   23.3450   34.6670 H   0  0  0  0  0  0  0  0  0  0  0  0
  1  6  1  1  0  0  0
  1  5  1  0  0  0  0
  2  7  1  6  0  0  0
  2  1  1  0  0  0  0
  2  3  1  0  0  0  0
  3  4  1  0  0  0  0
  4  8  1  0  0  0  0
  4  9  1  0  0  0  0
  5 10  1  6  0  0  0
  5  4  1  0  0  0  0
  5 29  1  0  0  0  0
 11 14  1  6  0  0  0
 11 12  1  0  0  0  0
 12 15  1  1  0  0  0
 12  2  1  0  0  0  0
 13 11  1  0  0  0  0
 13 12  1  0  0  0  0
 16 13  1  0  0  0  0
 17 13  1  0  0  0  0
 18 11  1  0  0  0  0
 18 23  1  0  0  0  0
 19 18  2  0  0  0  0
 20 19  1  0  0  0  0
 20 21  2  0  0  0  0
 21 22  1  0  0  0  0
 22 23  2  0  0  0  0
 22 26  1  0  0  0  0
 24 19  1  0  0  0  0
 25 20  1  0  0  0  0
 27  1  1  0  0  0  0
 28 27  1  0  0  0  0
 30 29  1  1  0  0  0
 30 31  1  0  0  0  0
 31 32  1  0  0  0  0
 33 31  1  0  0  0  0
 34 33  1  0  0  0  0
 35 33  1  0  0  0  0
 36 30  1  0  0  0  0
 36 35  1  0  0  0  0
 37 36  1  0  0  0  0
M  END
>  <minimizedAffinity>
-4.66795015

$$$$

 OpenBabel03272508293D

 37 40  0  0  1  0  0  0  0  0999 V2000
   37.0290   25.5290   33.0400 C   0  0  2  0  0  0  0  0  0  0  0  0
   37.5920   26.8510   32.5420 C   0  0  2  0  0  0  0  0  0  0  0  0
   38.4660   27.2650   33.5070 O   0  0  0  0  0  0  0  0  0  0  0  0
   38.9160   26.2090   34.2330 C   0  0  0  0  0  0  0  0  0  0  0  0
   38.2980   24.9460   33.6730 C   0  0  1  0  0  0  0  0  0  0  0  0
   36.3270   25.6570   33.8680 H   0  0  0  0  0  0  0  0  0  0  0  0
   38.0980   26.5980   31.5790 H   0  0  0  0  0  0  0  0  0  0  0  0
   40.0200   26.1690   34.2430 H   0  0  0  0  0  0  0  0  0  0  0  0
   38.5480   26.3380   35.2880 H   0  0  0  0  0  0  0  0  0  0  0  0
   38.9370   24.5620   32.8520 H   0  0  0  0  0  0  0  0  0  0  0  0
   36.1870   28.8830   33.3050 C   0  0  1  0  0  0  0  0  0  0  0  0
   36.4450   27.7960   32.3910 C   0  0  1  0  0  0  0  0  0  0  0  0
   36.6290   29.1830   31.8660 C   0  0  0  0  0  0  0  0  0  0  0  0
   36.8850   29.3570   34.0120 H   0  0  0  0  0  0  0  0  0  0  0  0
   35.5340   27.2840   31.9640 H   0  0  0  0  0  0  0  0  0  0  0  0
   37.6800   29.4720   31.6820 H   0  0  0  0  0  0  0  0  0  0  0  0
   35.9070   29.6250   31.1650 H   0  0  0  0  0  0  0  0  0  0  0  0
   34.7720   29.3690   33.5680 C   0  0  0  0  0  0  0  0  0  0  0  0
   34.5730   30.2120   34.6620 C   0  0  0  0  0  0  0  0  0  0  0  0
   33.2580   30.6060   34.8700 C   0  0  0  0  0  0  0  0  0  0  0  0
   32.2510   30.1770   34.0390 N   0  0  0  0  0  0  0  0  0  0  0  0
   32.4960   29.3600   32.9910 C   0  0  0  0  0  0  0  0  0  0  0  0
   33.7670   28.9530   32.7540 N   0  0  0  0  0  0  0  0  0  0  0  0
   35.3950   30.5150   35.2780 H   0  0  0  0  0  0  0  0  0  0  0  0
   33.0630   31.2610   35.7100 H   0  0  0  0  0  0  0  0  0  0  0  0
   31.6660   29.0560   32.3740 H   0  0  0  0  0  0  0  0  0  0  0  0
   36.5480   24.7160   32.0300 O   0  0  0  0  0  0  0  0  0  0  0  0
   37.2940   24.5510   31.3970 H   0  0  0  0  0  0  0  0  0  0  0  0
   38.0030   23.9950   34.6110 O   0  0  0  0  0  0  0  0  0  0  0  0
   38.7030   24.1150   35.7940 C   0  0  2  0  0  3  0  0  0  0  0  0
   39.6090   22.9250   36.0540 C   0  0  0  0  0  3  0  0  0  0  0  0
   40.6270   23.0590   35.6940 H   0  0  0  0  0  0  0  0  0  0  0  0
   39.6440   22.9500   37.5740 C   0  0  0  0  0  3  0  0  0  0  0  0
   40.4670   23.6270   37.9240 H   0  0  0  0  0  0  0  0  0  0  0  0
   38.4040   23.3820   38.0010 O   0  0  0  0  0  0  0  0  0  0  0  0
   37.7340   23.9680   36.9400 C   0  0  0  0  0  3  0  0  0  0  0  0
   37.2060   24.9050   37.2050 H   0  0  0  0  0  0  0  0  0  0  0  0
  1  5  1  0  0  0  0
  1  6  1  1  0  0  0
  2  7  1  6  0  0  0
  2  1  1  0  0  0  0
  2  3  1  0  0  0  0
  3  4  1  0  0  0  0
  4  8  1  0  0  0  0
  4  9  1  0  0  0  0
  5 10  1  6  0  0  0
  5  4  1  0  0  0  0
  5 29  1  0  0  0  0
 11 18  1  0  0  0  0
 11 14  1  1  0  0  0
 12 15  1  6  0  0  0
 12  2  1  0  0  0  0
 12 11  1  0  0  0  0
 13 12  1  0  0  0  0
 13 11  1  0  0  0  0
 16 13  1  0  0  0  0
 17 13  1  0  0  0  0
 18 19  1  0  0  0  0
 19 20  2  0  0  0  0
 19 24  1  0  0  0  0
 20 25  1  0  0  0  0
 21 20  1  0  0  0  0
 22 21  2  0  0  0  0
 23 22  1  0  0  0  0
 23 18  2  0  0  0  0
 26 22  1  0  0  0  0
 27  1  1  0  0  0  0
 28 27  1  0  0  0  0
 30 29  1  6  0  0  0
 30 31  1  0  0  0  0
 30 36  1  0  0  0  0
 31 33  1  0  0  0  0
 32 31  1  0  0  0  0
 33 34  1  0  0  0  0
 33 35  1  0  0  0  0
 36 37  1  0  0  0  0
 36 35  1  0  0  0  0
M  END
>  <minimizedAffinity>
-4.66627741

$$$$

 OpenBabel03272508293D

 37 40  0  0  1  0  0  0  0  0999 V2000
   36.3080   28.2650   33.8150 C   0  0  2  0  0  0  0  0  0  0  0  0
   37.1560   28.2460   32.5520 C   0  0  2  0  0  0  0  0  0  0  0  0
   36.3870   28.8310   31.5850 O   0  0  0  0  0  0  0  0  0  0  0  0
   35.4570   29.6500   32.1400 C   0  0  0  0  0  0  0  0  0  0  0  0
   35.6420   29.6350   33.6420 C   0  0  1  0  0  0  0  0  0  0  0  0
   35.4890   27.5410   33.7800 H   0  0  0  0  0  0  0  0  0  0  0  0
   38.0600   28.8500   32.8100 H   0  0  0  0  0  0  0  0  0  0  0  0
   35.5150   30.6690   31.7180 H   0  0  0  0  0  0  0  0  0  0  0  0
   34.4430   29.2200   31.9110 H   0  0  0  0  0  0  0  0  0  0  0  0
   36.3860   30.4080   33.9230 H   0  0  0  0  0  0  0  0  0  0  0  0
   36.4850   25.9130   31.6630 C   0  0  1  0  0  0  0  0  0  0  0  0
   37.4540   26.8180   32.2350 C   0  0  1  0  0  0  0  0  0  0  0  0
   37.7000   26.3550   30.8360 C   0  0  0  0  0  0  0  0  0  0  0  0
   35.5600   26.1620   31.1220 H   0  0  0  0  0  0  0  0  0  0  0  0
   38.1720   26.3650   32.9790 H   0  0  0  0  0  0  0  0  0  0  0  0
   37.5620   27.1300   30.0610 H   0  0  0  0  0  0  0  0  0  0  0  0
   38.4890   25.6240   30.6110 H   0  0  0  0  0  0  0  0  0  0  0  0
   36.5250   24.4250   31.9660 C   0  0  0  0  0  0  0  0  0  0  0  0
   35.6030   23.6090   31.3100 C   0  0  0  0  0  0  0  0  0  0  0  0
   35.6680   22.2620   31.6420 C   0  0  0  0  0  0  0  0  0  0  0  0
   36.5870   21.8020   32.5550 N   0  0  0  0  0  0  0  0  0  0  0  0
   37.4600   22.6350   33.1640 C   0  0  0  0  0  0  0  0  0  0  0  0
   37.4290   23.9570   32.8660 N   0  0  0  0  0  0  0  0  0  0  0  0
   34.9080   24.0210   30.6070 H   0  0  0  0  0  0  0  0  0  0  0  0
   34.9680   21.5960   31.1540 H   0  0  0  0  0  0  0  0  0  0  0  0
   38.1580   22.2170   33.8710 H   0  0  0  0  0  0  0  0  0  0  0  0
   37.0480   28.2060   34.9810 O   0  0  0  0  0  0  0  0  0  0  0  0
   37.6730   28.9770   34.9790 H   0  0  0  0  0  0  0  0  0  0  0  0
   34.4790   29.7260   34.3580 O   0  0  0  0  0  0  0  0  0  0  0  0
   34.2920   30.9300   35.0040 C   0  0  2  0  0  3  0  0  0  0  0  0
   35.4930   31.3300   35.8420 C   0  0  0  0  0  3  0  0  0  0  0  0
   36.2010   31.9710   35.3200 H   0  0  0  0  0  0  0  0  0  0  0  0
   34.8030   32.1670   36.9070 C   0  0  0  0  0  3  0  0  0  0  0  0
   34.7160   33.2290   36.5600 H   0  0  0  0  0  0  0  0  0  0  0  0
   33.5650   31.5960   37.1310 O   0  0  0  0  0  0  0  0  0  0  0  0
   33.2630   30.7350   36.0890 C   0  0  0  0  0  3  0  0  0  0  0  0
   32.2160   30.8110   35.7330 H   0  0  0  0  0  0  0  0  0  0  0  0
  1  6  1  6  0  0  0
  1 27  1  0  0  0  0
  2  7  1  1  0  0  0
  2  1  1  0  0  0  0
  3  4  1  0  0  0  0
  3  2  1  0  0  0  0
  4  5  1  0  0  0  0
  5  1  1  0  0  0  0
  5 10  1  1  0  0  0
  5 29  1  0  0  0  0
  8  4  1  0  0  0  0
  9  4  1  0  0  0  0
 11 14  1  6  0  0  0
 11 18  1  0  0  0  0
 11 12  1  0  0  0  0
 12  2  1  0  0  0  0
 12 15  1  1  0  0  0
 13 11  1  0  0  0  0
 13 12  1  0  0  0  0
 16 13  1  0  0  0  0
 17 13  1  0  0  0  0
 18 23  1  0  0  0  0
 19 20  1  0  0  0  0
 19 18  2  0  0  0  0
 20 21  2  0  0  0  0
 21 22  1  0  0  0  0
 22 26  1  0  0  0  0
 23 22  2  0  0  0  0
 24 19  1  0  0  0  0
 25 20  1  0  0  0  0
 28 27  1  0  0  0  0
 30 29  1  1  0  0  0
 30 31  1  0  0  0  0
 30 36  1  0  0  0  0
 31 33  1  0  0  0  0
 32 31  1  0  0  0  0
 33 35  1  0  0  0  0
 34 33  1  0  0  0  0
 36 35  1  0  0  0  0
 37 36  1  0  0  0  0
M  END
>  <minimizedAffinity>
-4.63688183

$$$$
