
     RDKit          3D

 48 51  0  0  0  0  0  0  0  0999 V2000
   35.2754   30.3536   49.7059 C   0  0  2  0  0  0  0  0  0  0  0  0
   36.2627   31.0843   48.8687 C   0  0  0  0  0  0  0  0  0  0  0  0
   37.6710   30.5028   48.9566 C   0  0  2  0  0  0  0  0  0  0  0  0
   38.1496   30.6405   50.3851 C   0  0  0  0  0  0  0  0  0  0  0  0
   37.1256   30.1289   51.3769 C   0  0  0  0  0  0  0  0  0  0  0  0
   35.9667   29.4404   50.6957 C   0  0  0  0  0  0  0  0  0  0  0  0
   34.3494   29.5195   48.9106 C   0  0  0  0  0  0  0  0  0  0  0  0
   34.3079   29.8009   47.5449 C   0  0  0  0  0  0  0  0  0  0  0  0
   33.4783   29.0449   46.7443 C   0  0  0  0  0  0  0  0  0  0  0  0
   32.7213   28.0407   47.3234 N   0  0  0  0  0  0  0  0  0  0  0  0
   32.7870   27.7939   48.6648 C   0  0  0  0  0  0  0  0  0  0  0  0
   33.5918   28.5334   49.4146 N   0  0  0  0  0  0  0  0  0  0  0  0
   38.5721   31.0140   47.9248 C   0  0  2  0  0  0  0  0  0  0  0  0
   38.7549   32.5271   47.9162 C   0  0  0  0  0  0  0  0  0  0  0  0
   39.5436   32.6206   46.5979 C   0  0  0  0  0  0  0  0  0  0  0  0
   38.8842   31.7698   45.7449 O   0  0  0  0  0  0  0  0  0  0  0  0
   38.2335   30.7876   46.5097 C   0  0  1  0  0  0  0  0  0  0  0  0
   34.6103   31.0366   50.3119 H   0  0  0  0  0  0  0  0  0  0  0  0
   36.3896   32.0978   49.3979 H   0  0  0  0  0  0  0  0  0  0  0  0
   36.0742   31.3285   47.8624 H   0  0  0  0  0  0  0  0  0  0  0  0
   37.5558   29.4100   48.8189 H   0  0  0  0  0  0  0  0  0  0  0  0
   38.5421   31.6354   50.6360 H   0  0  0  0  0  0  0  0  0  0  0  0
   39.0403   29.9541   50.4717 H   0  0  0  0  0  0  0  0  0  0  0  0
   37.5269   29.5273   52.1852 H   0  0  0  0  0  0  0  0  0  0  0  0
   36.6769   31.0382   51.8614 H   0  0  0  0  0  0  0  0  0  0  0  0
   36.2750   28.4866   50.2193 H   0  0  0  0  0  0  0  0  0  0  0  0
   35.2336   29.1936   51.4859 H   0  0  0  0  0  0  0  0  0  0  0  0
   34.7599   30.4909   46.8534 H   0  0  0  0  0  0  0  0  0  0  0  0
   33.2574   29.0432   45.6994 H   0  0  0  0  0  0  0  0  0  0  0  0
   32.2105   27.0231   49.1330 H   0  0  0  0  0  0  0  0  0  0  0  0
   39.5884   30.6074   48.1099 H   0  0  0  0  0  0  0  0  0  0  0  0
   39.3775   32.8000   48.7706 H   0  0  0  0  0  0  0  0  0  0  0  0
   37.8073   33.0779   47.8527 H   0  0  0  0  0  0  0  0  0  0  0  0
   39.6047   33.6531   46.2474 H   0  0  0  0  0  0  0  0  0  0  0  0
   40.5423   32.1847   46.8551 H   0  0  0  0  0  0  0  0  0  0  0  0
   37.1767   30.8655   46.2187 H   0  0  0  0  0  0  0  0  0  0  0  0
   38.7234   29.4810   45.9217 C   0  0  2  0  0  0  0  0  0  0  0  0
   39.9367   29.7696   45.0555 C   0  0  2  0  0  0  0  0  0  0  0  0
   40.8905   29.6652   45.6039 H   0  0  0  0  0  0  0  0  0  0  0  0
   39.7789   28.8060   43.9097 C   0  0  2  0  0  0  0  0  0  0  0  0
   40.5747   28.0336   44.0009 H   0  0  0  0  0  0  0  0  0  0  0  0
   38.5604   28.1749   44.0069 O   0  0  0  0  0  0  0  0  0  0  0  0
   37.7828   28.8641   44.9228 C   0  0  1  0  0  0  0  0  0  0  0  0
   37.1633   28.1211   45.4556 H   0  0  0  0  0  0  0  0  0  0  0  0
   39.0402   28.7694   46.7050 H   0  0  0  0  0  0  0  0  0  0  0  0
   39.9181   30.7965   44.6303 H   0  0  0  0  0  0  0  0  0  0  0  0
   39.9017   29.3005   42.9061 H   0  0  0  0  0  0  0  0  0  0  0  0
   37.2106   29.5962   44.3487 H   0  0  0  0  0  0  0  0  0  0  0  0
  1  6  1  0
  2  3  1  0
  2  1  1  0
  3  4  1  0
  4  5  1  0
  6  5  1  0
  7 12  1  0
  7  1  1  0
  8  7  2  0
  9 10  2  0
  9  8  1  0
 10 11  1  0
 11 12  2  0
 13 17  1  0
 13  3  1  0
 14 13  1  0
 15 14  1  0
 16 17  1  0
 16 15  1  0
  1 18  1  1
  2 19  1  0
  2 20  1  0
  3 21  1  6
  4 22  1  0
  4 23  1  0
  5 24  1  0
  5 25  1  0
  6 26  1  0
  6 27  1  0
  8 28  1  0
  9 29  1  0
 11 30  1  0
 13 31  1  1
 14 32  1  0
 14 33  1  0
 15 34  1  0
 15 35  1  0
 17 36  1  1
 37 38  1  0
 38 39  1  1
 38 40  1  0
 40 41  1  1
 40 42  1  0
 42 43  1  0
 43 44  1  1
 43 37  1  0
 37 45  1  1
 38 46  1  0
 40 47  1  0
 43 48  1  0
 17 37  1  0
M  ISO  8  18  13  19  13  20  13  21  13  22  13  23  13  24  13  25  13
M  ISO  8  26  13  27  13  28  14  29  14  30  14  31  13  32  13  33  13
M  ISO  6  34  13  35  13  36  13  39  15  41  15  44  15
M  END
>  <DihAtoms>  (1) 
12,16,36,37

>  <DihDeg>  (1) 
-178.43799539524287

$$$$
