
 OpenBabel03272508023D

 27 29  0  0  1  0  0  0  0  0999 V2000
   39.2380   31.1340   46.2010 C   0  0  0  0  0  0  0  0  0  0  0  0
   40.4380   31.5700   45.6810 C   0  0  0  0  0  0  0  0  0  0  0  0
   40.6720   30.9730   44.4470 C   0  0  0  0  0  0  0  0  0  0  0  0
   39.5710   30.1730   44.2610 N   0  0  0  0  0  0  0  0  0  0  0  0
   38.7500   30.2770   45.2860 N   0  0  0  0  0  0  0  0  0  0  0  0
   41.1230   32.2830   46.1510 H   0  0  0  0  0  0  0  0  0  0  0  0
   41.5180   31.1080   43.7930 H   0  0  0  0  0  0  0  0  0  0  0  0
   38.6360   31.5200   47.4650 C   0  0  0  0  0  0  0  0  0  0  0  0
   37.7680   30.6070   48.0980 C   0  0  0  0  0  0  0  0  0  0  0  0
   37.1860   30.9840   49.3220 C   0  0  0  0  0  0  0  0  0  0  0  0
   37.5000   32.2120   49.8190 N   0  0  0  0  0  0  0  0  0  0  0  0
   38.3300   33.0650   49.1980 C   0  0  0  0  0  0  0  0  0  0  0  0
   38.8920   32.7040   48.0180 N   0  0  0  0  0  0  0  0  0  0  0  0
   37.5440   29.6320   47.6640 H   0  0  0  0  0  0  0  0  0  0  0  0
   38.5230   34.0230   49.6680 H   0  0  0  0  0  0  0  0  0  0  0  0
   36.2740   30.0430   50.0030 C   0  0  0  0  0  0  0  0  0  0  0  0
   36.6290   30.0720   51.3440 F   0  0  0  0  0  0  0  0  0  0  0  0
   34.9440   30.4120   49.8930 F   0  0  0  0  0  0  0  0  0  0  0  0
   36.4390   28.7350   49.5490 F   0  0  0  0  0  0  0  0  0  0  0  0
   39.3890   29.3590   43.1030 C   0  0  1  0  0  0  0  0  0  0  0  0
   38.5520   30.0000   42.0160 C   0  0  0  0  0  0  0  0  0  0  0  0
   37.4880   29.6900   42.0830 H   0  0  0  0  0  0  0  0  0  0  0  0
   39.1420   29.2740   40.7980 C   0  0  0  0  0  0  0  0  0  0  0  0
   38.9190   28.1990   40.8990 H   0  0  0  0  0  0  0  0  0  0  0  0
   40.5040   29.4390   41.0590 O   0  0  0  0  0  0  0  0  0  0  0  0
   40.6760   29.0640   42.3730 C   0  0  0  0  0  0  0  0  0  0  0  0
   40.9320   27.9790   42.3640 H   0  0  0  0  0  0  0  0  0  0  0  0
  1  8  1  0  0  0  0
  2  6  1  0  0  0  0
  2  1  1  0  0  0  0
  3  2  2  0  0  0  0
  4  3  1  0  0  0  0
  4  5  1  0  0  0  0
  5  1  2  0  0  0  0
  7  3  1  0  0  0  0
  8 13  2  0  0  0  0
  8  9  1  0  0  0  0
  9 10  2  0  0  0  0
 10 11  1  0  0  0  0
 10 16  1  0  0  0  0
 12 15  1  0  0  0  0
 12 11  2  0  0  0  0
 13 12  1  0  0  0  0
 14  9  1  0  0  0  0
 16 17  1  0  0  0  0
 18 16  1  0  0  0  0
 19 16  1  0  0  0  0
 20  4  1  1  0  0  0
 21 22  1  0  0  0  0
 21 20  1  0  0  0  0
 23 24  1  0  0  0  0
 23 25  1  0  0  0  0
 23 21  1  0  0  0  0
 25 26  1  0  0  0  0
 26 20  1  0  0  0  0
 27 26  1  0  0  0  0
M  END
>  <minimizedAffinity>
-5.86794996

>  <minimizedRMSD>
2.45420027

$$$$
