
     RDKit          3D

 37 39  0  0  0  0  0  0  0  0999 V2000
   34.7567   29.4287   48.7990 C   0  0  0  0  0  0  0  0  0  0  0  0
   34.2257   30.0534   47.6581 C   0  0  0  0  0  0  0  0  0  0  0  0
   33.4978   29.2524   46.7773 C   0  0  0  0  0  0  0  0  0  0  0  0
   33.3354   27.9220   47.0562 N   0  0  0  0  0  0  0  0  0  0  0  0
   33.8694   27.3504   48.1807 C   0  0  0  0  0  0  0  0  0  0  0  0
   34.5687   28.1073   49.0314 N   0  0  0  0  0  0  0  0  0  0  0  0
   35.5255   30.3024   49.7379 C   0  0  0  0  0  0  0  0  0  0  0  0
   36.4786   31.1755   48.9518 C   0  0  0  0  0  0  0  0  0  0  0  0
   37.9163   30.8031   49.1623 C   0  0  0  0  0  0  0  0  0  0  0  0
   38.3131   30.7821   50.6126 C   0  0  0  0  0  0  0  0  0  0  0  0
   37.2962   30.1309   51.4971 C   0  0  0  0  0  0  0  0  0  0  0  0
   36.2015   29.4210   50.7265 C   0  0  0  0  0  0  0  0  0  0  0  0
   34.3136   31.0725   47.3873 H   0  0  0  0  0  0  0  0  0  0  0  0
   33.6955   26.2935   48.3279 H   0  0  0  0  0  0  0  0  0  0  0  0
   34.7917   30.9436   50.2485 H   0  0  0  0  0  0  0  0  0  0  0  0
   36.2805   31.1885   47.8691 H   0  0  0  0  0  0  0  0  0  0  0  0
   36.3692   32.2222   49.2947 H   0  0  0  0  0  0  0  0  0  0  0  0
   38.5468   31.5520   48.6671 H   0  0  0  0  0  0  0  0  0  0  0  0
   38.1195   29.8304   48.6529 H   0  0  0  0  0  0  0  0  0  0  0  0
   38.5784   31.8043   50.9654 H   0  0  0  0  0  0  0  0  0  0  0  0
   39.2798   30.2023   50.6493 H   0  0  0  0  0  0  0  0  0  0  0  0
   36.8746   30.8992   52.1666 H   0  0  0  0  0  0  0  0  0  0  0  0
   37.7914   29.3242   52.0977 H   0  0  0  0  0  0  0  0  0  0  0  0
   35.4289   29.1626   51.5040 H   0  0  0  0  0  0  0  0  0  0  0  0
   36.5397   28.4585   50.3298 H   0  0  0  0  0  0  0  0  0  0  0  0
   32.8791   29.7750   45.5316 C   0  0  2  0  0  0  0  0  0  0  0  0
   32.1097   31.0390   45.7876 C   0  0  2  0  0  0  0  0  0  0  0  0
   32.6999   31.9418   45.5711 H   0  0  0  0  0  0  0  0  0  0  0  0
   31.0113   30.9387   44.7630 C   0  0  1  0  0  0  0  0  0  0  0  0
   30.0689   31.3320   45.2218 H   0  0  0  0  0  0  0  0  0  0  0  0
   30.7897   29.6087   44.4768 O   0  0  0  0  0  0  0  0  0  0  0  0
   31.7920   28.8591   45.0263 C   0  0  2  0  0  0  0  0  0  0  0  0
   31.3615   28.2305   45.8404 H   0  0  0  0  0  0  0  0  0  0  0  0
   33.6429   29.9467   44.7653 H   0  0  0  0  0  0  0  0  0  0  0  0
   31.7263   31.0919   46.8287 H   0  0  0  0  0  0  0  0  0  0  0  0
   31.2097   31.5313   43.8490 H   0  0  0  0  0  0  0  0  0  0  0  0
   32.2065   28.2058   44.2235 H   0  0  0  0  0  0  0  0  0  0  0  0
  1  6  1  0
  1  7  1  0
  2  1  2  0
  3  4  2  0
  3  2  1  0
  4  5  1  0
  5  6  2  0
  7 12  1  0
  8  9  1  0
  8  7  1  0
  9 10  1  0
 10 11  1  0
 12 11  1  0
  2 13  1  0
  5 14  1  0
  7 15  1  0
  8 16  1  0
  8 17  1  0
  9 18  1  0
  9 19  1  0
 10 20  1  0
 10 21  1  0
 11 22  1  0
 11 23  1  0
 12 24  1  0
 12 25  1  0
 26 27  1  0
 27 28  1  6
 27 29  1  0
 29 30  1  1
 29 31  1  0
 31 32  1  0
 32 33  1  1
 32 26  1  0
 26 34  1  6
 27 35  1  0
 29 36  1  0
 32 37  1  0
  3 26  1  0
M  ISO  8  13  14  14  14  15  13  16  13  17  13  18  13  19  13  20  13
M  ISO  8  21  13  22  13  23  13  24  13  25  13  28  15  30  15  33  15
M  END
>  <DihAtoms>  (1) 
3,2,25,26

>  <DihDeg>  (1) 
57.088742719834855

$$$$
