
 OpenBabel03272506443D

 31 33  0  0  1  0  0  0  0  0999 V2000
   32.3610   28.3240   47.5500 C   0  0  2  0  0  0  0  0  0  0  0  0
   33.6140   28.2980   48.4020 C   0  0  1  0  0  0  0  0  0  0  0  0
   34.1610   27.0400   48.2930 O   0  0  0  0  0  0  0  0  0  0  0  0
   33.4900   26.3410   47.3170 C   0  0  0  0  0  0  0  0  0  0  0  0
   32.8010   27.3810   46.4400 C   0  0  1  0  0  0  0  0  0  0  0  0
   31.4910   27.8730   48.0340 H   0  0  0  0  0  0  0  0  0  0  0  0
   33.4070   28.5400   49.4570 H   0  0  0  0  0  0  0  0  0  0  0  0
   34.1160   25.6490   46.7530 H   0  0  0  0  0  0  0  0  0  0  0  0
   32.6430   25.8200   47.8510 H   0  0  0  0  0  0  0  0  0  0  0  0
   33.5060   27.8920   45.7530 H   0  0  0  0  0  0  0  0  0  0  0  0
   32.1210   29.6170   47.0620 O   0  0  0  0  0  0  0  0  0  0  0  0
   32.6880   29.7630   46.2620 H   0  0  0  0  0  0  0  0  0  0  0  0
   34.7840   29.4700   47.6450 S   0  0  0  0  0  0  0  0  0  0  0  0
   37.3490   29.3360   50.6640 C   0  0  0  0  0  0  0  0  0  0  0  0
   37.8470   30.6260   50.7820 C   0  0  0  0  0  0  0  0  0  0  0  0
   37.3740   31.5900   49.8900 C   0  0  0  0  0  0  0  0  0  0  0  0
   36.4610   31.2200   48.9650 N   0  0  0  0  0  0  0  0  0  0  0  0
   35.9900   29.9470   48.8730 C   0  0  0  0  0  0  0  0  0  0  0  0
   36.4310   28.9880   49.7260 N   0  0  0  0  0  0  0  0  0  0  0  0
   37.7260   28.6010   51.3640 H   0  0  0  0  0  0  0  0  0  0  0  0
   38.5620   30.9550   51.4940 H   0  0  0  0  0  0  0  0  0  0  0  0
   37.7420   32.6060   49.9550 H   0  0  0  0  0  0  0  0  0  0  0  0
   31.7180   26.8150   45.7830 O   0  0  0  0  0  0  0  0  0  0  0  0
   31.6220   27.1830   44.4650 C   0  0  1  0  0  3  0  0  0  0  0  0
   30.4580   28.1410   44.2930 C   0  0  0  0  0  3  0  0  0  0  0  0
   29.5270   27.6130   44.0140 H   0  0  0  0  0  0  0  0  0  0  0  0
   30.9730   28.9710   43.1130 C   0  0  0  0  0  3  0  0  0  0  0  0
   30.4410   29.9210   43.0400 H   0  0  0  0  0  0  0  0  0  0  0  0
   32.2730   29.2320   43.5560 O   0  0  0  0  0  0  0  0  0  0  0  0
   32.7680   27.9890   43.9360 C   0  0  0  0  0  3  0  0  0  0  0  0
   33.5550   28.1630   44.7000 H   0  0  0  0  0  0  0  0  0  0  0  0
  1  6  1  1  0  0  0
  1  2  1  0  0  0  0
  2  7  1  1  0  0  0
  3  2  1  0  0  0  0
  4  9  1  0  0  0  0
  4  3  1  0  0  0  0
  5 10  1  6  0  0  0
  5  4  1  0  0  0  0
  5  1  1  0  0  0  0
  8  4  1  0  0  0  0
 11  1  1  0  0  0  0
 12 11  1  0  0  0  0
 13  2  1  0  0  0  0
 13 18  1  0  0  0  0
 14 15  1  0  0  0  0
 14 20  1  0  0  0  0
 15 21  1  0  0  0  0
 16 22  1  0  0  0  0
 16 15  2  0  0  0  0
 17 16  1  0  0  0  0
 18 17  2  0  0  0  0
 18 19  1  0  0  0  0
 19 14  2  0  0  0  0
 23  5  1  0  0  0  0
 24 23  1  1  0  0  0
 25 24  1  0  0  0  0
 26 25  1  0  0  0  0
 27 29  1  0  0  0  0
 27 25  1  0  0  0  0
 28 27  1  0  0  0  0
 29 30  1  0  0  0  0
 30 24  1  0  0  0  0
 30 31  1  0  0  0  0
M  END
>  <minimizedAffinity>
-3.76747108

>  <minimizedRMSD>
0.395628422

$$$$
