
 OpenBabel03272504043D

 40 43  0  0  1  0  0  0  0  0999 V2000
   34.5900   29.3650   50.2880 C   0  0  0  0  0  0  0  0  0  0  0  0
   34.2740   29.1160   51.2970 H   0  0  0  0  0  0  0  0  0  0  0  0
   33.8540   30.1410   49.9310 H   0  0  0  0  0  0  0  0  0  0  0  0
   35.9050   30.0240   50.2350 C   0  0  0  0  0  0  0  0  0  0  0  0
   36.8700   29.8430   51.2310 C   0  0  0  0  0  0  0  0  0  0  0  0
   37.9650   30.5830   50.8900 C   0  0  0  0  0  0  0  0  0  0  0  0
   37.6760   31.1920   49.7280 N   0  0  0  0  0  0  0  0  0  0  0  0
   36.4590   30.8420   49.3740 N   0  0  0  0  0  0  0  0  0  0  0  0
   36.7690   29.2200   52.1250 H   0  0  0  0  0  0  0  0  0  0  0  0
   38.9150   30.7070   51.4010 H   0  0  0  0  0  0  0  0  0  0  0  0
   38.4340   32.0790   48.9110 C   0  0  0  0  0  0  0  0  0  0  0  0
   38.8120   33.2680   49.5060 C   0  0  0  0  0  0  0  0  0  0  0  0
   39.5570   34.2490   48.8490 C   0  0  0  0  0  0  0  0  0  0  0  0
   39.9130   33.9700   47.5320 C   0  0  0  0  0  0  0  0  0  0  0  0
   39.5350   32.7780   46.9330 C   0  0  0  0  0  0  0  0  0  0  0  0
   38.7990   31.8270   47.6050 C   0  0  0  0  0  0  0  0  0  0  0  0
   38.5490   33.5110   50.5290 H   0  0  0  0  0  0  0  0  0  0  0  0
   39.8300   35.1670   49.3550 H   0  0  0  0  0  0  0  0  0  0  0  0
   40.4900   34.6940   46.9710 H   0  0  0  0  0  0  0  0  0  0  0  0
   39.8250   32.5870   45.9080 H   0  0  0  0  0  0  0  0  0  0  0  0
   38.4850   30.8840   47.1750 H   0  0  0  0  0  0  0  0  0  0  0  0
   34.4670   28.2020   49.3660 C   0  0  0  0  0  0  0  0  0  0  0  0
   35.4700   27.7230   49.3350 H   0  0  0  0  0  0  0  0  0  0  0  0
   33.8440   27.4370   49.9110 H   0  0  0  0  0  0  0  0  0  0  0  0
   33.8670   28.4220   48.0870 C   0  0  0  0  0  0  0  0  0  0  0  0
   32.5990   27.9980   47.8210 C   0  0  0  0  0  0  0  0  0  0  0  0
   31.9870   28.2060   46.5640 C   0  0  0  0  0  0  0  0  0  0  0  0
   32.7760   28.8720   45.6320 N   0  0  0  0  0  0  0  0  0  0  0  0
   34.0370   29.2760   45.9460 C   0  0  0  0  0  0  0  0  0  0  0  0
   34.5600   29.0460   47.1620 N   0  0  0  0  0  0  0  0  0  0  0  0
   31.9730   27.4790   48.5350 H   0  0  0  0  0  0  0  0  0  0  0  0
   31.0020   27.8810   46.3430 H   0  0  0  0  0  0  0  0  0  0  0  0
   34.7810   29.9820   44.8550 C   0  0  1  0  0  0  0  0  0  0  0  0
   36.1340   30.4420   45.3020 C   0  0  0  0  0  0  0  0  0  0  0  0
   36.1600   31.5550   45.2290 H   0  0  0  0  0  0  0  0  0  0  0  0
   37.1090   29.8910   44.2870 C   0  0  0  0  0  0  0  0  0  0  0  0
   37.7900   30.6780   43.9040 H   0  0  0  0  0  0  0  0  0  0  0  0
   36.3480   29.4360   43.2170 O   0  0  0  0  0  0  0  0  0  0  0  0
   35.1400   28.9960   43.7410 C   0  0  0  0  0  0  0  0  0  0  0  0
   34.3620   28.9300   42.9820 H   0  0  0  0  0  0  0  0  0  0  0  0
  1  2  1  0  0  0  0
  3  1  1  0  0  0  0
  4  1  1  0  0  0  0
  4  5  1  0  0  0  0
  5  9  1  0  0  0  0
  6  5  2  0  0  0  0
  6 10  1  0  0  0  0
  7  6  1  0  0  0  0
  8  7  1  0  0  0  0
  8  4  2  0  0  0  0
 11 12  1  0  0  0  0
 11  7  1  0  0  0  0
 12 17  1  0  0  0  0
 13 18  1  0  0  0  0
 13 12  2  0  0  0  0
 14 13  1  0  0  0  0
 15 14  2  0  0  0  0
 15 16  1  0  0  0  0
 16 11  2  0  0  0  0
 19 14  1  0  0  0  0
 20 15  1  0  0  0  0
 21 16  1  0  0  0  0
 22 24  1  0  0  0  0
 22  1  1  0  0  0  0
 23 22  1  0  0  0  0
 25 22  1  0  0  0  0
 26 25  1  0  0  0  0
 26 31  1  0  0  0  0
 27 26  2  0  0  0  0
 28 29  2  0  0  0  0
 28 27  1  0  0  0  0
 29 30  1  0  0  0  0
 30 25  2  0  0  0  0
 32 27  1  0  0  0  0
 33 34  1  0  0  0  0
 33 29  1  1  0  0  0
 35 34  1  0  0  0  0
 36 34  1  0  0  0  0
 37 36  1  0  0  0  0
 38 39  1  0  0  0  0
 38 36  1  0  0  0  0
 39 33  1  0  0  0  0
 40 39  1  0  0  0  0
M  END
>  <minimizedAffinity>
-5.99326468

>  <minimizedRMSD>
1.80730915

$$$$
