
 OpenBabel03272508283D

 37 40  0  0  1  0  0  0  0  0999 V2000
   33.9850   28.9620   47.3660 C   0  0  2  0  0  0  0  0  0  0  0  0
   34.7190   28.2400   48.4850 C   0  0  2  0  0  0  0  0  0  0  0  0
   33.8170   28.1300   49.5050 O   0  0  0  0  0  0  0  0  0  0  0  0
   32.5460   28.1860   49.0310 C   0  0  0  0  0  0  0  0  0  0  0  0
   32.6030   28.3170   47.5240 C   0  0  1  0  0  0  0  0  0  0  0  0
   33.8340   30.0230   47.5800 H   0  0  0  0  0  0  0  0  0  0  0  0
   35.0000   27.2510   48.0470 H   0  0  0  0  0  0  0  0  0  0  0  0
   31.9570   27.3100   49.3550 H   0  0  0  0  0  0  0  0  0  0  0  0
   32.0670   29.1170   49.4430 H   0  0  0  0  0  0  0  0  0  0  0  0
   32.6510   27.3060   47.0730 H   0  0  0  0  0  0  0  0  0  0  0  0
   35.8040   30.5100   49.0820 C   0  0  1  0  0  0  0  0  0  0  0  0
   35.8900   29.0850   48.8690 C   0  0  1  0  0  0  0  0  0  0  0  0
   36.0840   29.5760   50.2670 C   0  0  0  0  0  0  0  0  0  0  0  0
   34.9080   31.1130   49.2910 H   0  0  0  0  0  0  0  0  0  0  0  0
   36.8460   28.7130   48.3980 H   0  0  0  0  0  0  0  0  0  0  0  0
   35.2590   29.3340   50.9600 H   0  0  0  0  0  0  0  0  0  0  0  0
   37.0800   29.5840   50.7320 H   0  0  0  0  0  0  0  0  0  0  0  0
   36.9870   31.4200   48.7950 C   0  0  0  0  0  0  0  0  0  0  0  0
   37.2140   32.4790   49.6750 C   0  0  0  0  0  0  0  0  0  0  0  0
   38.2920   33.2920   49.3520 C   0  0  0  0  0  0  0  0  0  0  0  0
   39.0570   33.0420   48.2380 N   0  0  0  0  0  0  0  0  0  0  0  0
   38.7970   32.0010   47.4160 C   0  0  0  0  0  0  0  0  0  0  0  0
   37.7520   31.1840   47.6980 N   0  0  0  0  0  0  0  0  0  0  0  0
   36.5850   32.6270   50.5280 H   0  0  0  0  0  0  0  0  0  0  0  0
   38.5000   34.1250   50.0110 H   0  0  0  0  0  0  0  0  0  0  0  0
   39.4310   31.8550   46.5570 H   0  0  0  0  0  0  0  0  0  0  0  0
   34.5140   28.7230   46.1110 O   0  0  0  0  0  0  0  0  0  0  0  0
   34.4900   27.7430   45.9570 H   0  0  0  0  0  0  0  0  0  0  0  0
   31.6170   29.0980   46.9850 O   0  0  0  0  0  0  0  0  0  0  0  0
   30.6080   28.3990   46.3550 C   0  0  2  0  0  3  0  0  0  0  0  0
   29.4110   28.1700   47.2600 C   0  0  0  0  0  3  0  0  0  0  0  0
   28.6390   28.9310   47.1720 H   0  0  0  0  0  0  0  0  0  0  0  0
   28.8700   26.8830   46.6590 C   0  0  0  0  0  3  0  0  0  0  0  0
   28.1650   27.1230   45.8190 H   0  0  0  0  0  0  0  0  0  0  0  0
   29.9570   26.1520   46.2230 O   0  0  0  0  0  0  0  0  0  0  0  0
   31.0660   26.9770   46.1540 C   0  0  0  0  0  3  0  0  0  0  0  0
   31.6810   26.8280   45.2440 H   0  0  0  0  0  0  0  0  0  0  0  0
  1  5  1  0  0  0  0
  1  6  1  1  0  0  0
  1  2  1  0  0  0  0
  2  7  1  6  0  0  0
  2 12  1  0  0  0  0
  2  3  1  0  0  0  0
  4  8  1  0  0  0  0
  4  9  1  0  0  0  0
  4  3  1  0  0  0  0
  5 10  1  6  0  0  0
  5  4  1  0  0  0  0
 11 14  1  6  0  0  0
 11 13  1  0  0  0  0
 12 15  1  6  0  0  0
 12 11  1  0  0  0  0
 12 13  1  0  0  0  0
 13 17  1  0  0  0  0
 13 16  1  0  0  0  0
 18 11  1  0  0  0  0
 18 19  1  0  0  0  0
 19 24  1  0  0  0  0
 20 19  2  0  0  0  0
 20 25  1  0  0  0  0
 21 20  1  0  0  0  0
 22 23  1  0  0  0  0
 22 21  2  0  0  0  0
 23 18  2  0  0  0  0
 26 22  1  0  0  0  0
 27  1  1  0  0  0  0
 28 27  1  0  0  0  0
 29  5  1  0  0  0  0
 30 29  1  1  0  0  0
 30 31  1  0  0  0  0
 32 31  1  0  0  0  0
 33 31  1  0  0  0  0
 34 33  1  0  0  0  0
 35 33  1  0  0  0  0
 36 35  1  0  0  0  0
 36 30  1  0  0  0  0
 37 36  1  0  0  0  0
M  END
>  <minimizedAffinity>
-4.90557289

>  <minimizedRMSD>
0.760520995

$$$$
