
 OpenBabel03272507513D

 27 29  0  0  1  0  0  0  0  0999 V2000
   36.5470   29.5960   49.4790 C   0  0  0  0  0  0  0  0  0  0  0  0
   36.4750   30.5640   48.4650 C   0  0  0  0  0  0  0  0  0  0  0  0
   35.4460   30.4080   47.5230 C   0  0  0  0  0  0  0  0  0  0  0  0
   34.5950   29.3590   47.6350 N   0  0  0  0  0  0  0  0  0  0  0  0
   34.6940   28.4540   48.6180 C   0  0  0  0  0  0  0  0  0  0  0  0
   35.6770   28.5750   49.5450 N   0  0  0  0  0  0  0  0  0  0  0  0
   35.3970   31.1570   46.7430 H   0  0  0  0  0  0  0  0  0  0  0  0
   33.9510   27.6690   48.5880 H   0  0  0  0  0  0  0  0  0  0  0  0
   37.4230   31.6190   48.4510 N   0  0  0  0  0  0  0  0  0  0  0  0
   37.3890   32.6120   49.3450 C   0  0  0  0  0  0  0  0  0  0  0  0
   38.3430   33.6310   49.3030 C   0  0  0  0  0  0  0  0  0  0  0  0
   39.2570   33.4860   48.2910 C   0  0  0  0  0  0  0  0  0  0  0  0
   40.1450   34.4050   48.2270 O   0  0  0  0  0  0  0  0  0  0  0  0
   39.3210   32.5110   47.3800 N   0  0  0  0  0  0  0  0  0  0  0  0
   38.3630   31.5510   47.4770 C   0  0  0  0  0  0  0  0  0  0  0  0
   38.4100   30.6180   46.6180 O   0  0  0  0  0  0  0  0  0  0  0  0
   36.6280   32.6650   50.1240 H   0  0  0  0  0  0  0  0  0  0  0  0
   38.3730   34.4610   49.9960 H   0  0  0  0  0  0  0  0  0  0  0  0
   40.0680   32.5080   46.6530 H   0  0  0  0  0  0  0  0  0  0  0  0
   37.5560   29.5990   50.5360 C   0  0  2  0  0  3  0  0  0  0  0  0
   38.0640   28.1950   50.8550 C   0  0  0  0  0  3  0  0  0  0  0  0
   39.0370   28.0150   50.3610 H   0  0  0  0  0  0  0  0  0  0  0  0
   38.2860   28.2790   52.3440 C   0  0  0  0  0  3  0  0  0  0  0  0
   37.5500   27.6810   52.9310 H   0  0  0  0  0  0  0  0  0  0  0  0
   38.0830   29.6200   52.7080 O   0  0  0  0  0  0  0  0  0  0  0  0
   37.0100   30.0150   51.8810 C   0  0  0  0  0  3  0  0  0  0  0  0
   36.8710   31.1050   51.9760 H   0  0  0  0  0  0  0  0  0  0  0  0
  1  6  1  0  0  0  0
  2  1  2  0  0  0  0
  3  4  2  0  0  0  0
  3  2  1  0  0  0  0
  4  5  1  0  0  0  0
  5  6  2  0  0  0  0
  7  3  1  0  0  0  0
  8  5  1  0  0  0  0
  9  2  1  0  0  0  0
  9 10  1  0  0  0  0
 10 17  1  0  0  0  0
 11 10  2  0  0  0  0
 11 18  1  0  0  0  0
 12 11  1  0  0  0  0
 13 12  2  0  0  0  0
 14 15  1  0  0  0  0
 14 12  1  0  0  0  0
 15  9  1  0  0  0  0
 16 15  2  0  0  0  0
 19 14  1  0  0  0  0
 20  1  1  6  0  0  0
 20 21  1  0  0  0  0
 20 26  1  0  0  0  0
 21 23  1  0  0  0  0
 22 21  1  0  0  0  0
 23 25  1  0  0  0  0
 23 24  1  0  0  0  0
 26 27  1  0  0  0  0
 26 25  1  0  0  0  0
M  END
>  <minimizedAffinity>
-3.8018887

>  <minimizedRMSD>
0.687452555

$$$$
