
 OpenBabel03272508123D

 33 35  0  0  1  0  0  0  0  0999 V2000
   36.6760   29.4810   44.0800 Cl  0  0  0  0  0  0  0  0  0  0  0  0
   38.3180   29.8570   43.5480 C   0  0  0  0  0  0  0  0  0  0  0  0
   39.3180   30.3310   44.3990 C   0  0  0  0  0  0  0  0  0  0  0  0
   40.5720   30.5880   43.8470 C   0  0  0  0  0  0  0  0  0  0  0  0
   40.7910   30.3730   42.5070 C   0  0  0  0  0  0  0  0  0  0  0  0
   39.8290   29.9110   41.6580 C   0  0  0  0  0  0  0  0  0  0  0  0
   38.5920   29.6550   42.1870 C   0  0  0  0  0  0  0  0  0  0  0  0
   41.2680   30.9490   44.5910 H   0  0  0  0  0  0  0  0  0  0  0  0
   41.8050   30.6040   42.1700 H   0  0  0  0  0  0  0  0  0  0  0  0
   40.0910   29.7730   40.6190 H   0  0  0  0  0  0  0  0  0  0  0  0
   37.5310   29.1500   41.2770 C   0  0  2  0  0  3  0  0  0  0  0  0
   37.5080   27.6310   41.1990 C   0  0  0  0  0  3  0  0  0  0  0  0
   38.1960   27.1430   41.9010 H   0  0  0  0  0  0  0  0  0  0  0  0
   37.8850   27.3950   39.7520 C   0  0  0  0  0  3  0  0  0  0  0  0
   38.5360   26.4910   39.6420 H   0  0  0  0  0  0  0  0  0  0  0  0
   38.5570   28.5460   39.3480 O   0  0  0  0  0  0  0  0  0  0  0  0
   37.7480   29.5540   39.8640 C   0  0  0  0  0  3  0  0  0  0  0  0
   36.7600   29.4230   39.3380 H   0  0  0  0  0  0  0  0  0  0  0  0
   38.8830   30.4700   45.6870 O   0  0  0  0  0  0  0  0  0  0  0  0
   39.4440   32.5430   47.1390 O   0  0  0  0  0  0  0  0  0  0  0  0
   38.3190   31.8600   46.4510 P   0  0  1  0  0  0  0  0  0  0  0  0
   37.7230   32.8600   45.2020 O   0  0  0  0  0  0  0  0  0  0  0  0
   38.5050   33.2080   44.6880 H   0  0  0  0  0  0  0  0  0  0  0  0
   37.0310   31.4370   47.4720 O   0  0  0  0  0  0  0  0  0  0  0  0
   37.6060   30.5180   51.0080 C   0  0  0  0  0  0  0  0  0  0  0  0
   37.7040   31.3040   49.8560 C   0  0  0  0  0  0  0  0  0  0  0  0
   37.0720   30.8510   48.6900 C   0  0  0  0  0  0  0  0  0  0  0  0
   36.3950   29.6680   48.7400 N   0  0  0  0  0  0  0  0  0  0  0  0
   36.3270   28.9420   49.8730 C   0  0  0  0  0  0  0  0  0  0  0  0
   36.9290   29.3670   50.9950 N   0  0  0  0  0  0  0  0  0  0  0  0
   38.1180   30.9210   51.8810 H   0  0  0  0  0  0  0  0  0  0  0  0
   38.2190   32.2460   49.7420 H   0  0  0  0  0  0  0  0  0  0  0  0
   35.7960   28.0000   49.9370 H   0  0  0  0  0  0  0  0  0  0  0  0
  2  1  1  0  0  0  0
  2  3  1  0  0  0  0
  3 19  1  0  0  0  0
  4  3  2  0  0  0  0
  4  8  1  0  0  0  0
  5  4  1  0  0  0  0
  6  7  1  0  0  0  0
  6  5  2  0  0  0  0
  7  2  2  0  0  0  0
  9  5  1  0  0  0  0
 10  6  1  0  0  0  0
 11  7  1  1  0  0  0
 12 11  1  0  0  0  0
 12 13  1  0  0  0  0
 14 12  1  0  0  0  0
 15 14  1  0  0  0  0
 16 14  1  0  0  0  0
 16 17  1  0  0  0  0
 17 11  1  0  0  0  0
 18 17  1  0  0  0  0
 19 21  1  0  0  0  0
 21 20  2  1  0  0  0
 21 24  1  0  0  0  0
 22 21  1  0  0  0  0
 23 22  1  0  0  0  0
 24 27  1  0  0  0  0
 25 31  1  0  0  0  0
 26 25  2  0  0  0  0
 27 28  2  0  0  0  0
 27 26  1  0  0  0  0
 28 29  1  0  0  0  0
 29 33  1  0  0  0  0
 29 30  2  0  0  0  0
 30 25  1  0  0  0  0
 32 26  1  0  0  0  0
M  END
>  <minimizedAffinity>
-4.88461399

>  <minimizedRMSD>
1.36868083

$$$$
