
 OpenBabel03272507503D

 27 29  0  0  1  0  0  0  0  0999 V2000
   35.3920   29.0300   49.0030 C   0  0  0  0  0  0  0  0  0  0  0  0
   35.4750   30.1990   48.2290 C   0  0  0  0  0  0  0  0  0  0  0  0
   34.5520   30.3200   47.1780 C   0  0  0  0  0  0  0  0  0  0  0  0
   33.6510   29.3300   46.9670 N   0  0  0  0  0  0  0  0  0  0  0  0
   33.6000   28.2280   47.7270 C   0  0  0  0  0  0  0  0  0  0  0  0
   34.4780   28.0790   48.7510 N   0  0  0  0  0  0  0  0  0  0  0  0
   34.6210   31.2220   46.5850 H   0  0  0  0  0  0  0  0  0  0  0  0
   32.8330   27.5190   47.4490 H   0  0  0  0  0  0  0  0  0  0  0  0
   36.4610   31.1660   48.5460 N   0  0  0  0  0  0  0  0  0  0  0  0
   36.3450   31.9750   49.6040 C   0  0  0  0  0  0  0  0  0  0  0  0
   37.3410   32.9120   49.8880 C   0  0  0  0  0  0  0  0  0  0  0  0
   38.3820   32.8940   48.9970 C   0  0  0  0  0  0  0  0  0  0  0  0
   39.3110   33.7420   49.2310 O   0  0  0  0  0  0  0  0  0  0  0  0
   38.5320   32.1040   47.9300 N   0  0  0  0  0  0  0  0  0  0  0  0
   37.5280   31.2140   47.7110 C   0  0  0  0  0  0  0  0  0  0  0  0
   37.6550   30.4570   46.7000 O   0  0  0  0  0  0  0  0  0  0  0  0
   35.4830   31.9360   50.2710 H   0  0  0  0  0  0  0  0  0  0  0  0
   37.3080   33.5940   50.7270 H   0  0  0  0  0  0  0  0  0  0  0  0
   39.3750   32.1830   47.3210 H   0  0  0  0  0  0  0  0  0  0  0  0
   36.2750   28.7360   50.1290 C   0  0  2  0  0  3  0  0  0  0  0  0
   35.9050   29.5290   51.3790 C   0  0  0  0  0  3  0  0  0  0  0  0
   35.3250   28.9000   52.0790 H   0  0  0  0  0  0  0  0  0  0  0  0
   37.2590   29.7980   51.9850 C   0  0  0  0  0  3  0  0  0  0  0  0
   37.5640   30.8700   51.9170 H   0  0  0  0  0  0  0  0  0  0  0  0
   38.1930   29.0760   51.2250 O   0  0  0  0  0  0  0  0  0  0  0  0
   37.6960   29.1990   49.9100 C   0  0  0  0  0  3  0  0  0  0  0  0
   38.2740   28.5310   49.2480 H   0  0  0  0  0  0  0  0  0  0  0  0
  2  9  1  0  0  0  0
  2  1  2  0  0  0  0
  3  2  1  0  0  0  0
  4  3  2  0  0  0  0
  4  5  1  0  0  0  0
  5  6  2  0  0  0  0
  6  1  1  0  0  0  0
  7  3  1  0  0  0  0
  8  5  1  0  0  0  0
  9 10  1  0  0  0  0
 10 11  2  0  0  0  0
 10 17  1  0  0  0  0
 11 18  1  0  0  0  0
 12 13  2  0  0  0  0
 12 11  1  0  0  0  0
 14 12  1  0  0  0  0
 15 14  1  0  0  0  0
 15  9  1  0  0  0  0
 16 15  2  0  0  0  0
 19 14  1  0  0  0  0
 20  1  1  6  0  0  0
 20 21  1  0  0  0  0
 21 23  1  0  0  0  0
 21 22  1  0  0  0  0
 24 23  1  0  0  0  0
 25 23  1  0  0  0  0
 26 20  1  0  0  0  0
 26 25  1  0  0  0  0
 27 26  1  0  0  0  0
M  END
>  <minimizedAffinity>
-5.07244825

>  <minimizedRMSD>
1.20775092

$$$$
