
 OpenBabel03262523563D

 40 42  0  0  1  0  0  0  0  0999 V2000
   36.9340   24.0450   31.2180 C   0  0  1  0  0  0  0  0  0  0  0  0
   35.5210   24.0720   31.5670 C   0  0  0  0  0  0  0  0  0  0  0  0
   34.8860   25.2420   30.8760 C   0  0  0  0  0  0  0  0  0  0  0  0
   35.7290   26.4430   30.9750 C   0  0  0  0  0  0  0  0  0  0  0  0
   36.7980   26.4200   32.0000 C   0  0  0  0  0  0  0  0  0  0  0  0
   37.6350   25.1460   32.0100 C   0  0  1  0  0  0  0  0  0  0  0  0
   37.0940   24.3490   30.1420 H   0  0  0  0  0  0  0  0  0  0  0  0
   34.9500   23.1350   31.3000 H   0  0  0  0  0  0  0  0  0  0  0  0
   35.3520   24.1950   32.6730 H   0  0  0  0  0  0  0  0  0  0  0  0
   34.7720   24.9530   29.7900 H   0  0  0  0  0  0  0  0  0  0  0  0
   33.8430   25.4070   31.2180 H   0  0  0  0  0  0  0  0  0  0  0  0
   35.0660   27.3000   31.2130 H   0  0  0  0  0  0  0  0  0  0  0  0
   36.1880   26.6970   29.9760 H   0  0  0  0  0  0  0  0  0  0  0  0
   36.3420   26.5090   32.9960 H   0  0  0  0  0  0  0  0  0  0  0  0
   37.4460   27.3160   31.8500 H   0  0  0  0  0  0  0  0  0  0  0  0
   38.5740   25.3890   31.4710 H   0  0  0  0  0  0  0  0  0  0  0  0
   37.5950   20.4980   32.0970 C   0  0  0  0  0  0  0  0  0  0  0  0
   36.8820   21.6900   31.7950 C   0  0  0  0  0  0  0  0  0  0  0  0
   37.6630   22.8020   31.5080 C   0  0  0  0  0  0  0  0  0  0  0  0
   39.0470   22.7180   31.5230 N   0  0  0  0  0  0  0  0  0  0  0  0
   39.6710   21.5690   31.8150 C   0  0  0  0  0  0  0  0  0  0  0  0
   38.9470   20.4440   32.1060 N   0  0  0  0  0  0  0  0  0  0  0  0
   37.0350   19.5910   32.3320 H   0  0  0  0  0  0  0  0  0  0  0  0
   35.8030   21.7150   31.7930 H   0  0  0  0  0  0  0  0  0  0  0  0
   40.7500   21.6320   31.7960 H   0  0  0  0  0  0  0  0  0  0  0  0
   38.9380   25.2090   34.3200 C   0  0  0  0  0  0  0  0  0  0  0  0
   39.5670   26.2130   33.8650 O   0  0  0  0  0  0  0  0  0  0  0  0
   37.9700   24.7790   33.3590 N   0  0  0  0  0  0  0  0  0  0  0  0
   37.2800   24.0020   33.6080 H   0  0  0  0  0  0  0  0  0  0  0  0
   41.1330   23.1320   34.7670 Cl  0  0  0  0  0  0  0  0  0  0  0  0
   39.9200   23.5040   35.9640 C   0  0  0  0  0  0  0  0  0  0  0  0
   39.0260   24.4630   35.5720 C   0  0  0  0  0  0  0  0  0  0  0  0
   37.9980   24.8610   36.4350 C   0  0  0  0  0  0  0  0  0  0  0  0
   37.2320   25.5950   36.2630 H   0  0  0  0  0  0  0  0  0  0  0  0
   37.8830   24.2770   37.7020 C   0  0  0  0  0  0  0  0  0  0  0  0
   37.1120   24.5380   38.4160 H   0  0  0  0  0  0  0  0  0  0  0  0
   38.7950   23.3090   38.0830 C   0  0  0  0  0  0  0  0  0  0  0  0
   38.7220   22.8520   39.0490 H   0  0  0  0  0  0  0  0  0  0  0  0
   39.7990   22.9350   37.2140 C   0  0  0  0  0  0  0  0  0  0  0  0
   40.9920   21.7190   37.6200 Cl  0  0  0  0  0  0  0  0  0  0  0  0
  1  7  1  6  0  0  0
  1 19  1  0  0  0  0
  1  2  1  0  0  0  0
  1  6  1  0  0  0  0
  2  9  1  0  0  0  0
  3  4  1  0  0  0  0
  3 11  1  0  0  0  0
  3  2  1  0  0  0  0
  4 12  1  0  0  0  0
  4  5  1  0  0  0  0
  5  6  1  0  0  0  0
  5 14  1  0  0  0  0
  6 16  1  6  0  0  0
  6 28  1  0  0  0  0
  8  2  1  0  0  0  0
 10  3  1  0  0  0  0
 13  4  1  0  0  0  0
 15  5  1  0  0  0  0
 17 22  1  0  0  0  0
 17 23  1  0  0  0  0
 18 17  2  0  0  0  0
 19 20  2  0  0  0  0
 19 18  1  0  0  0  0
 20 21  1  0  0  0  0
 21 22  2  0  0  0  0
 24 18  1  0  0  0  0
 25 21  1  0  0  0  0
 26 32  1  0  0  0  0
 27 26  2  0  0  0  0
 28 29  1  0  0  0  0
 28 26  1  0  0  0  0
 30 31  1  0  0  0  0
 31 39  1  0  0  0  0
 32 31  2  0  0  0  0
 32 33  1  0  0  0  0
 33 35  2  0  0  0  0
 34 33  1  0  0  0  0
 35 37  1  0  0  0  0
 35 36  1  0  0  0  0
 37 38  1  0  0  0  0
 39 40  1  0  0  0  0
 39 37  2  0  0  0  0
M  END
>  <minimizedAffinity>
-5.75469017

$$$$

 OpenBabel03262523563D

 40 42  0  0  1  0  0  0  0  0999 V2000
   37.3210   21.3130   33.3110 C   0  0  1  0  0  0  0  0  0  0  0  0
   35.9990   21.0030   33.8360 C   0  0  0  0  0  0  0  0  0  0  0  0
   35.3390   20.0290   32.9080 C   0  0  0  0  0  0  0  0  0  0  0  0
   35.5410   20.4090   31.5010 C   0  0  0  0  0  0  0  0  0  0  0  0
   35.9880   21.7980   31.2480 C   0  0  0  0  0  0  0  0  0  0  0  0
   37.1460   22.2580   32.1260 C   0  0  1  0  0  0  0  0  0  0  0  0
   37.8020   20.4000   32.8530 H   0  0  0  0  0  0  0  0  0  0  0  0
   35.9950   20.5740   34.8810 H   0  0  0  0  0  0  0  0  0  0  0  0
   35.3390   21.9120   33.9050 H   0  0  0  0  0  0  0  0  0  0  0  0
   35.8200   19.0240   33.0970 H   0  0  0  0  0  0  0  0  0  0  0  0
   34.2720   19.8650   33.1700 H   0  0  0  0  0  0  0  0  0  0  0  0
   34.5740   20.2740   30.9740 H   0  0  0  0  0  0  0  0  0  0  0  0
   36.2540   19.6990   30.9900 H   0  0  0  0  0  0  0  0  0  0  0  0
   35.1500   22.4840   31.4400 H   0  0  0  0  0  0  0  0  0  0  0  0
   36.2500   21.8890   30.1670 H   0  0  0  0  0  0  0  0  0  0  0  0
   38.0590   22.1720   31.5010 H   0  0  0  0  0  0  0  0  0  0  0  0
   38.7520   22.7330   36.4300 C   0  0  0  0  0  0  0  0  0  0  0  0
   37.8500   22.0700   35.5530 C   0  0  0  0  0  0  0  0  0  0  0  0
   38.2590   21.9750   34.2300 C   0  0  0  0  0  0  0  0  0  0  0  0
   39.4760   22.5020   33.8240 N   0  0  0  0  0  0  0  0  0  0  0  0
   40.2910   23.1170   34.6920 C   0  0  0  0  0  0  0  0  0  0  0  0
   39.9340   23.2390   36.0070 N   0  0  0  0  0  0  0  0  0  0  0  0
   38.4860   22.8400   37.4830 H   0  0  0  0  0  0  0  0  0  0  0  0
   36.9110   21.6730   35.9080 H   0  0  0  0  0  0  0  0  0  0  0  0
   41.2080   23.4850   34.2540 H   0  0  0  0  0  0  0  0  0  0  0  0
   37.4840   24.8880   32.0150 C   0  0  0  0  0  0  0  0  0  0  0  0
   38.1670   24.6910   30.9630 O   0  0  0  0  0  0  0  0  0  0  0  0
   36.9770   23.6380   32.4920 N   0  0  0  0  0  0  0  0  0  0  0  0
   36.3000   23.6180   33.3170 H   0  0  0  0  0  0  0  0  0  0  0  0
   36.2070   27.3060   30.6560 Cl  0  0  0  0  0  0  0  0  0  0  0  0
   36.5800   27.2620   32.3600 C   0  0  0  0  0  0  0  0  0  0  0  0
   37.1490   26.0890   32.7740 C   0  0  0  0  0  0  0  0  0  0  0  0
   37.5000   25.9140   34.1180 C   0  0  0  0  0  0  0  0  0  0  0  0
   37.9500   25.0550   34.5820 H   0  0  0  0  0  0  0  0  0  0  0  0
   37.2710   26.9410   35.0400 C   0  0  0  0  0  0  0  0  0  0  0  0
   37.5190   26.8710   36.0920 H   0  0  0  0  0  0  0  0  0  0  0  0
   36.6950   28.1220   34.6050 C   0  0  0  0  0  0  0  0  0  0  0  0
   36.5110   28.9180   35.2970 H   0  0  0  0  0  0  0  0  0  0  0  0
   36.3570   28.2680   33.2750 C   0  0  0  0  0  0  0  0  0  0  0  0
   35.6250   29.7290   32.6450 Cl  0  0  0  0  0  0  0  0  0  0  0  0
  1  7  1  6  0  0  0
  1  2  1  0  0  0  0
  1 19  1  0  0  0  0
  2  9  1  0  0  0  0
  2  8  1  0  0  0  0
  3 10  1  0  0  0  0
  3 11  1  0  0  0  0
  3  2  1  0  0  0  0
  4  3  1  0  0  0  0
  5 14  1  0  0  0  0
  5  4  1  0  0  0  0
  5  6  1  0  0  0  0
  6 16  1  6  0  0  0
  6 28  1  0  0  0  0
  6  1  1  0  0  0  0
 12  4  1  0  0  0  0
 13  4  1  0  0  0  0
 15  5  1  0  0  0  0
 17 23  1  0  0  0  0
 18 24  1  0  0  0  0
 18 17  2  0  0  0  0
 19 18  1  0  0  0  0
 20 19  2  0  0  0  0
 20 21  1  0  0  0  0
 21 22  2  0  0  0  0
 22 17  1  0  0  0  0
 25 21  1  0  0  0  0
 26 28  1  0  0  0  0
 26 32  1  0  0  0  0
 27 26  2  0  0  0  0
 28 29  1  0  0  0  0
 30 31  1  0  0  0  0
 31 32  2  0  0  0  0
 31 39  1  0  0  0  0
 32 33  1  0  0  0  0
 33 34  1  0  0  0  0
 33 35  2  0  0  0  0
 35 36  1  0  0  0  0
 37 35  1  0  0  0  0
 37 38  1  0  0  0  0
 39 37  2  0  0  0  0
 40 39  1  0  0  0  0
M  END
>  <minimizedAffinity>
-5.61919117

$$$$

 OpenBabel03262523563D

 40 42  0  0  1  0  0  0  0  0999 V2000
   38.5430   25.8180   33.7270 C   0  0  1  0  0  0  0  0  0  0  0  0
   39.7730   25.8220   32.9500 C   0  0  0  0  0  0  0  0  0  0  0  0
   39.8960   27.1510   32.2670 C   0  0  0  0  0  0  0  0  0  0  0  0
   38.6130   27.5730   31.6830 C   0  0  0  0  0  0  0  0  0  0  0  0
   37.5800   26.5240   31.5260 C   0  0  0  0  0  0  0  0  0  0  0  0
   37.3750   25.6510   32.7580 C   0  0  1  0  0  0  0  0  0  0  0  0
   38.3540   26.8280   34.1970 H   0  0  0  0  0  0  0  0  0  0  0  0
   40.7110   25.6300   33.5500 H   0  0  0  0  0  0  0  0  0  0  0  0
   39.7840   25.0260   32.1550 H   0  0  0  0  0  0  0  0  0  0  0  0
   40.2110   27.8930   33.0580 H   0  0  0  0  0  0  0  0  0  0  0  0
   40.7360   27.1670   31.5410 H   0  0  0  0  0  0  0  0  0  0  0  0
   38.8220   27.9830   30.6730 H   0  0  0  0  0  0  0  0  0  0  0  0
   38.1710   28.4350   32.2620 H   0  0  0  0  0  0  0  0  0  0  0  0
   37.8730   25.8540   30.7050 H   0  0  0  0  0  0  0  0  0  0  0  0
   36.6240   27.0170   31.2280 H   0  0  0  0  0  0  0  0  0  0  0  0
   36.4690   26.0410   33.2660 H   0  0  0  0  0  0  0  0  0  0  0  0
   37.6730   24.0960   36.9010 C   0  0  0  0  0  0  0  0  0  0  0  0
   37.7870   25.1230   35.9240 C   0  0  0  0  0  0  0  0  0  0  0  0
   38.3980   24.7560   34.7320 C   0  0  0  0  0  0  0  0  0  0  0  0
   38.8550   23.4600   34.5410 N   0  0  0  0  0  0  0  0  0  0  0  0
   38.7230   22.5280   35.4950 C   0  0  0  0  0  0  0  0  0  0  0  0
   38.1290   22.8400   36.6880 N   0  0  0  0  0  0  0  0  0  0  0  0
   37.2030   24.3250   37.8580 H   0  0  0  0  0  0  0  0  0  0  0  0
   37.4190   26.1210   36.1110 H   0  0  0  0  0  0  0  0  0  0  0  0
   39.1190   21.5590   35.2250 H   0  0  0  0  0  0  0  0  0  0  0  0
   36.0450   23.5950   31.7350 C   0  0  0  0  0  0  0  0  0  0  0  0
   35.1650   24.4310   31.3640 O   0  0  0  0  0  0  0  0  0  0  0  0
   37.1230   24.2900   32.3680 N   0  0  0  0  0  0  0  0  0  0  0  0
   38.0010   23.7570   32.6620 H   0  0  0  0  0  0  0  0  0  0  0  0
   38.3720   22.2680   30.2660 Cl  0  0  0  0  0  0  0  0  0  0  0  0
   37.0910   21.3630   31.0300 C   0  0  0  0  0  0  0  0  0  0  0  0
   36.1430   22.1420   31.6350 C   0  0  0  0  0  0  0  0  0  0  0  0
   35.0560   21.5470   32.2880 C   0  0  0  0  0  0  0  0  0  0  0  0
   34.2440   22.0290   32.8020 H   0  0  0  0  0  0  0  0  0  0  0  0
   34.9390   20.1530   32.3230 C   0  0  0  0  0  0  0  0  0  0  0  0
   34.1250   19.6310   32.8100 H   0  0  0  0  0  0  0  0  0  0  0  0
   35.9060   19.3800   31.7060 C   0  0  0  0  0  0  0  0  0  0  0  0
   35.8320   18.3110   31.7230 H   0  0  0  0  0  0  0  0  0  0  0  0
   36.9670   19.9900   31.0700 C   0  0  0  0  0  0  0  0  0  0  0  0
   38.2310   19.0840   30.2660 Cl  0  0  0  0  0  0  0  0  0  0  0  0
  1  7  1  1  0  0  0
  1 19  1  0  0  0  0
  2  8  1  0  0  0  0
  2  1  1  0  0  0  0
  3  2  1  0  0  0  0
  3 10  1  0  0  0  0
  4 13  1  0  0  0  0
  4  3  1  0  0  0  0
  5  4  1  0  0  0  0
  5  6  1  0  0  0  0
  6 16  1  1  0  0  0
  6  1  1  0  0  0  0
  9  2  1  0  0  0  0
 11  3  1  0  0  0  0
 12  4  1  0  0  0  0
 14  5  1  0  0  0  0
 15  5  1  0  0  0  0
 17 23  1  0  0  0  0
 18 24  1  0  0  0  0
 18 17  2  0  0  0  0
 19 18  1  0  0  0  0
 20 19  2  0  0  0  0
 20 21  1  0  0  0  0
 21 22  2  0  0  0  0
 22 17  1  0  0  0  0
 25 21  1  0  0  0  0
 26 28  1  0  0  0  0
 27 26  2  0  0  0  0
 28 29  1  0  0  0  0
 28  6  1  0  0  0  0
 30 31  1  0  0  0  0
 31 39  2  0  0  0  0
 31 32  1  0  0  0  0
 32 26  1  0  0  0  0
 32 33  2  0  0  0  0
 33 35  1  0  0  0  0
 33 34  1  0  0  0  0
 35 36  1  0  0  0  0
 37 38  1  0  0  0  0
 37 35  2  0  0  0  0
 39 37  1  0  0  0  0
 40 39  1  0  0  0  0
M  END
>  <minimizedAffinity>
-5.52400446

$$$$

 OpenBabel03262523563D

 40 42  0  0  1  0  0  0  0  0999 V2000
   35.8890   21.5860   31.6220 C   0  0  1  0  0  0  0  0  0  0  0  0
   36.6700   20.5490   30.9660 C   0  0  0  0  0  0  0  0  0  0  0  0
   35.9080   19.2600   31.0490 C   0  0  0  0  0  0  0  0  0  0  0  0
   35.3350   19.0630   32.3890 C   0  0  0  0  0  0  0  0  0  0  0  0
   35.8880   19.9030   33.4760 C   0  0  0  0  0  0  0  0  0  0  0  0
   36.0100   21.3820   33.1300 C   0  0  1  0  0  0  0  0  0  0  0  0
   34.7840   21.4520   31.4250 H   0  0  0  0  0  0  0  0  0  0  0  0
   36.9180   20.7580   29.8840 H   0  0  0  0  0  0  0  0  0  0  0  0
   37.6700   20.3870   31.4550 H   0  0  0  0  0  0  0  0  0  0  0  0
   35.0730   19.3280   30.2910 H   0  0  0  0  0  0  0  0  0  0  0  0
   36.5140   18.3980   30.6980 H   0  0  0  0  0  0  0  0  0  0  0  0
   35.5040   18.0040   32.6740 H   0  0  0  0  0  0  0  0  0  0  0  0
   34.2130   19.1850   32.3700 H   0  0  0  0  0  0  0  0  0  0  0  0
   36.8990   19.5490   33.7230 H   0  0  0  0  0  0  0  0  0  0  0  0
   35.2560   19.7600   34.3840 H   0  0  0  0  0  0  0  0  0  0  0  0
   35.1360   21.8820   33.5990 H   0  0  0  0  0  0  0  0  0  0  0  0
   37.9270   24.5080   30.5730 C   0  0  0  0  0  0  0  0  0  0  0  0
   37.5420   23.1580   30.7990 C   0  0  0  0  0  0  0  0  0  0  0  0
   36.2850   22.9780   31.3620 C   0  0  0  0  0  0  0  0  0  0  0  0
   35.4840   24.0670   31.6700 N   0  0  0  0  0  0  0  0  0  0  0  0
   35.8950   25.3210   31.4360 C   0  0  0  0  0  0  0  0  0  0  0  0
   37.1260   25.5520   30.8840 N   0  0  0  0  0  0  0  0  0  0  0  0
   38.9050   24.7130   30.1340 H   0  0  0  0  0  0  0  0  0  0  0  0
   38.1940   22.3360   30.5460 H   0  0  0  0  0  0  0  0  0  0  0  0
   35.1810   26.0820   31.7200 H   0  0  0  0  0  0  0  0  0  0  0  0
   37.6660   22.2090   35.0310 C   0  0  0  0  0  0  0  0  0  0  0  0
   36.8240   21.7640   35.8700 O   0  0  0  0  0  0  0  0  0  0  0  0
   37.2070   21.9320   33.7050 N   0  0  0  0  0  0  0  0  0  0  0  0
   37.8330   22.1510   32.8680 H   0  0  0  0  0  0  0  0  0  0  0  0
   37.9110   25.1810   34.3690 Cl  0  0  0  0  0  0  0  0  0  0  0  0
   39.2540   24.2200   34.9340 C   0  0  0  0  0  0  0  0  0  0  0  0
   38.9390   22.9110   35.1740 C   0  0  0  0  0  0  0  0  0  0  0  0
   39.9210   22.0240   35.6330 C   0  0  0  0  0  0  0  0  0  0  0  0
   39.8180   20.9780   35.8610 H   0  0  0  0  0  0  0  0  0  0  0  0
   41.2270   22.4760   35.8450 C   0  0  0  0  0  0  0  0  0  0  0  0
   42.0330   21.8440   36.1970 H   0  0  0  0  0  0  0  0  0  0  0  0
   41.5300   23.8040   35.5970 C   0  0  0  0  0  0  0  0  0  0  0  0
   42.5250   24.1670   35.7540 H   0  0  0  0  0  0  0  0  0  0  0  0
   40.5440   24.6570   35.1460 C   0  0  0  0  0  0  0  0  0  0  0  0
   40.8440   26.3490   34.8090 Cl  0  0  0  0  0  0  0  0  0  0  0  0
  1  7  1  6  0  0  0
  1  6  1  0  0  0  0
  2  3  1  0  0  0  0
  2  9  1  0  0  0  0
  2  1  1  0  0  0  0
  3  4  1  0  0  0  0
  4 12  1  0  0  0  0
  4  5  1  0  0  0  0
  5 14  1  0  0  0  0
  5 15  1  0  0  0  0
  6  5  1  0  0  0  0
  6 16  1  1  0  0  0
  6 28  1  0  0  0  0
  8  2  1  0  0  0  0
 10  3  1  0  0  0  0
 11  3  1  0  0  0  0
 13  4  1  0  0  0  0
 17 18  2  0  0  0  0
 17 22  1  0  0  0  0
 18 19  1  0  0  0  0
 19  1  1  0  0  0  0
 19 20  2  0  0  0  0
 21 20  1  0  0  0  0
 21 25  1  0  0  0  0
 22 21  2  0  0  0  0
 23 17  1  0  0  0  0
 24 18  1  0  0  0  0
 26 32  1  0  0  0  0
 26 27  2  0  0  0  0
 28 26  1  0  0  0  0
 29 28  1  0  0  0  0
 30 31  1  0  0  0  0
 31 39  2  0  0  0  0
 31 32  1  0  0  0  0
 32 33  2  0  0  0  0
 33 35  1  0  0  0  0
 33 34  1  0  0  0  0
 35 36  1  0  0  0  0
 37 38  1  0  0  0  0
 37 35  2  0  0  0  0
 39 37  1  0  0  0  0
 40 39  1  0  0  0  0
M  END
>  <minimizedAffinity>
-5.48431396

$$$$

 OpenBabel03262523563D

 40 42  0  0  1  0  0  0  0  0999 V2000
   38.8470   22.2520   35.7940 C   0  0  1  0  0  0  0  0  0  0  0  0
   40.2110   22.6890   36.0510 C   0  0  0  0  0  0  0  0  0  0  0  0
   40.4910   22.5290   37.5150 C   0  0  0  0  0  0  0  0  0  0  0  0
   39.3620   23.0050   38.3300 C   0  0  0  0  0  0  0  0  0  0  0  0
   38.3690   23.8660   37.6470 C   0  0  0  0  0  0  0  0  0  0  0  0
   37.9030   23.3420   36.2940 C   0  0  1  0  0  0  0  0  0  0  0  0
   38.5790   21.3580   36.4290 H   0  0  0  0  0  0  0  0  0  0  0  0
   41.0030   22.1360   35.4650 H   0  0  0  0  0  0  0  0  0  0  0  0
   40.3750   23.7700   35.7870 H   0  0  0  0  0  0  0  0  0  0  0  0
   40.6450   21.4250   37.6970 H   0  0  0  0  0  0  0  0  0  0  0  0
   41.4620   22.9830   37.8030 H   0  0  0  0  0  0  0  0  0  0  0  0
   39.7800   23.5910   39.1740 H   0  0  0  0  0  0  0  0  0  0  0  0
   38.8210   22.1410   38.8130 H   0  0  0  0  0  0  0  0  0  0  0  0
   38.8160   24.8550   37.4690 H   0  0  0  0  0  0  0  0  0  0  0  0
   37.5020   24.0130   38.3350 H   0  0  0  0  0  0  0  0  0  0  0  0
   36.9170   22.8650   36.4720 H   0  0  0  0  0  0  0  0  0  0  0  0
   39.1740   21.7780   32.1250 C   0  0  0  0  0  0  0  0  0  0  0  0
   39.5350   21.9930   33.4830 C   0  0  0  0  0  0  0  0  0  0  0  0
   38.4850   22.0060   34.3910 C   0  0  0  0  0  0  0  0  0  0  0  0
   37.1780   21.8180   33.9650 N   0  0  0  0  0  0  0  0  0  0  0  0
   36.8910   21.6190   32.6710 C   0  0  0  0  0  0  0  0  0  0  0  0
   37.8900   21.5980   31.7370 N   0  0  0  0  0  0  0  0  0  0  0  0
   39.9570   21.7590   31.3650 H   0  0  0  0  0  0  0  0  0  0  0  0
   40.5650   22.1360   33.7750 H   0  0  0  0  0  0  0  0  0  0  0  0
   35.8370   21.4860   32.4660 H   0  0  0  0  0  0  0  0  0  0  0  0
   38.4220   25.6390   35.0720 C   0  0  0  0  0  0  0  0  0  0  0  0
   39.5070   25.6710   35.7300 O   0  0  0  0  0  0  0  0  0  0  0  0
   37.7190   24.4310   35.3740 N   0  0  0  0  0  0  0  0  0  0  0  0
   36.8260   24.1860   34.8400 H   0  0  0  0  0  0  0  0  0  0  0  0
   38.9870   25.4280   32.0780 Cl  0  0  0  0  0  0  0  0  0  0  0  0
   37.9280   26.6340   32.7610 C   0  0  0  0  0  0  0  0  0  0  0  0
   37.8070   26.5620   34.1220 C   0  0  0  0  0  0  0  0  0  0  0  0
   36.9870   27.4690   34.8050 C   0  0  0  0  0  0  0  0  0  0  0  0
   36.7980   27.5300   35.8610 H   0  0  0  0  0  0  0  0  0  0  0  0
   36.2900   28.4530   34.0950 C   0  0  0  0  0  0  0  0  0  0  0  0
   35.6410   29.1840   34.5600 H   0  0  0  0  0  0  0  0  0  0  0  0
   36.4240   28.5130   32.7190 C   0  0  0  0  0  0  0  0  0  0  0  0
   35.8970   29.2590   32.1600 H   0  0  0  0  0  0  0  0  0  0  0  0
   37.2370   27.6070   32.0700 C   0  0  0  0  0  0  0  0  0  0  0  0
   37.4600   27.6160   30.3330 Cl  0  0  0  0  0  0  0  0  0  0  0  0
  1  2  1  0  0  0  0
  1  6  1  0  0  0  0
  1  7  1  1  0  0  0
  2  3  1  0  0  0  0
  3 10  1  0  0  0  0
  3 11  1  0  0  0  0
  3  4  1  0  0  0  0
  4 13  1  0  0  0  0
  4 12  1  0  0  0  0
  5  4  1  0  0  0  0
  5 15  1  0  0  0  0
  6 16  1  1  0  0  0
  6  5  1  0  0  0  0
  8  2  1  0  0  0  0
  9  2  1  0  0  0  0
 14  5  1  0  0  0  0
 17 18  1  0  0  0  0
 18 24  1  0  0  0  0
 18 19  2  0  0  0  0
 19  1  1  0  0  0  0
 20 19  1  0  0  0  0
 21 20  2  0  0  0  0
 22 17  2  0  0  0  0
 22 21  1  0  0  0  0
 23 17  1  0  0  0  0
 25 21  1  0  0  0  0
 26 28  1  0  0  0  0
 26 27  2  0  0  0  0
 28  6  1  0  0  0  0
 29 28  1  0  0  0  0
 30 31  1  0  0  0  0
 31 32  1  0  0  0  0
 32 33  2  0  0  0  0
 32 26  1  0  0  0  0
 33 34  1  0  0  0  0
 35 36  1  0  0  0  0
 35 33  1  0  0  0  0
 37 35  2  0  0  0  0
 38 37  1  0  0  0  0
 39 37  1  0  0  0  0
 39 31  2  0  0  0  0
 40 39  1  0  0  0  0
M  END
>  <minimizedAffinity>
-5.43237114

$$$$

 OpenBabel03262523563D

 40 42  0  0  1  0  0  0  0  0999 V2000
   38.8680   24.8310   36.1940 C   0  0  1  0  0  0  0  0  0  0  0  0
   37.7620   24.5570   37.0990 C   0  0  0  0  0  0  0  0  0  0  0  0
   38.3260   24.0800   38.4040 C   0  0  0  0  0  0  0  0  0  0  0  0
   39.4100   23.1080   38.1940 C   0  0  0  0  0  0  0  0  0  0  0  0
   39.5010   22.4980   36.8470 C   0  0  0  0  0  0  0  0  0  0  0  0
   39.4100   23.4930   35.6960 C   0  0  1  0  0  0  0  0  0  0  0  0
   39.7440   25.2830   36.7450 H   0  0  0  0  0  0  0  0  0  0  0  0
   37.0830   25.4390   37.2940 H   0  0  0  0  0  0  0  0  0  0  0  0
   37.0740   23.7570   36.7100 H   0  0  0  0  0  0  0  0  0  0  0  0
   38.7360   24.9910   38.9310 H   0  0  0  0  0  0  0  0  0  0  0  0
   37.5320   23.7130   39.0880 H   0  0  0  0  0  0  0  0  0  0  0  0
   39.2650   22.2810   38.9190 H   0  0  0  0  0  0  0  0  0  0  0  0
   40.4110   23.5560   38.4580 H   0  0  0  0  0  0  0  0  0  0  0  0
   38.6730   21.7860   36.7200 H   0  0  0  0  0  0  0  0  0  0  0  0
   40.4510   21.9150   36.7910 H   0  0  0  0  0  0  0  0  0  0  0  0
   40.4520   23.6680   35.3560 H   0  0  0  0  0  0  0  0  0  0  0  0
   37.0050   26.9530   33.7820 C   0  0  0  0  0  0  0  0  0  0  0  0
   37.3030   26.2100   34.9560 C   0  0  0  0  0  0  0  0  0  0  0  0
   38.5610   25.6220   34.9940 C   0  0  0  0  0  0  0  0  0  0  0  0
   39.4440   25.7730   33.9350 N   0  0  0  0  0  0  0  0  0  0  0  0
   39.1140   26.4850   32.8490 C   0  0  0  0  0  0  0  0  0  0  0  0
   37.8860   27.0830   32.7630 N   0  0  0  0  0  0  0  0  0  0  0  0
   36.0310   27.4370   33.6940 H   0  0  0  0  0  0  0  0  0  0  0  0
   36.5880   26.1160   35.7600 H   0  0  0  0  0  0  0  0  0  0  0  0
   39.8870   26.5270   32.0940 H   0  0  0  0  0  0  0  0  0  0  0  0
   38.9880   22.4460   33.2950 C   0  0  0  0  0  0  0  0  0  0  0  0
   40.2470   22.4570   33.1390 O   0  0  0  0  0  0  0  0  0  0  0  0
   38.6670   22.9260   34.6040 N   0  0  0  0  0  0  0  0  0  0  0  0
   37.6560   22.8990   34.9490 H   0  0  0  0  0  0  0  0  0  0  0  0
   38.9250   19.6990   31.9600 Cl  0  0  0  0  0  0  0  0  0  0  0  0
   37.6660   20.8890   31.7450 C   0  0  0  0  0  0  0  0  0  0  0  0
   37.8800   22.0550   32.4270 C   0  0  0  0  0  0  0  0  0  0  0  0
   36.9500   23.0980   32.3460 C   0  0  0  0  0  0  0  0  0  0  0  0
   36.9860   24.0610   32.8240 H   0  0  0  0  0  0  0  0  0  0  0  0
   35.7980   22.9490   31.5660 C   0  0  0  0  0  0  0  0  0  0  0  0
   35.0400   23.7150   31.4600 H   0  0  0  0  0  0  0  0  0  0  0  0
   35.5970   21.7630   30.8810 C   0  0  0  0  0  0  0  0  0  0  0  0
   34.7210   21.6320   30.2790 H   0  0  0  0  0  0  0  0  0  0  0  0
   36.5290   20.7510   30.9780 C   0  0  0  0  0  0  0  0  0  0  0  0
   36.3480   19.2210   30.1450 Cl  0  0  0  0  0  0  0  0  0  0  0  0
  1  7  1  1  0  0  0
  1  2  1  0  0  0  0
  2  8  1  0  0  0  0
  2  3  1  0  0  0  0
  3 10  1  0  0  0  0
  3 11  1  0  0  0  0
  4  3  1  0  0  0  0
  4 13  1  0  0  0  0
  4 12  1  0  0  0  0
  5  4  1  0  0  0  0
  6 16  1  6  0  0  0
  6  1  1  0  0  0  0
  6  5  1  0  0  0  0
  9  2  1  0  0  0  0
 14  5  1  0  0  0  0
 15  5  1  0  0  0  0
 17 18  1  0  0  0  0
 18 19  2  0  0  0  0
 18 24  1  0  0  0  0
 19  1  1  0  0  0  0
 20 19  1  0  0  0  0
 21 20  2  0  0  0  0
 22 21  1  0  0  0  0
 22 17  2  0  0  0  0
 23 17  1  0  0  0  0
 25 21  1  0  0  0  0
 26 28  1  0  0  0  0
 27 26  2  0  0  0  0
 28 29  1  0  0  0  0
 28  6  1  0  0  0  0
 31 30  1  0  0  0  0
 31 32  1  0  0  0  0
 32 26  1  0  0  0  0
 33 32  2  0  0  0  0
 33 34  1  0  0  0  0
 35 33  1  0  0  0  0
 36 35  1  0  0  0  0
 37 39  1  0  0  0  0
 37 35  2  0  0  0  0
 38 37  1  0  0  0  0
 39 31  2  0  0  0  0
 40 39  1  0  0  0  0
M  END
>  <minimizedAffinity>
-5.41069269

$$$$

 OpenBabel03262523563D

 40 42  0  0  1  0  0  0  0  0999 V2000
   36.7320   23.8540   31.0160 C   0  0  1  0  0  0  0  0  0  0  0  0
   35.3740   24.0850   31.4850 C   0  0  0  0  0  0  0  0  0  0  0  0
   34.8280   25.2880   30.7760 C   0  0  0  0  0  0  0  0  0  0  0  0
   35.8200   26.3720   30.7190 C   0  0  0  0  0  0  0  0  0  0  0  0
   36.9710   26.2650   31.6450 C   0  0  0  0  0  0  0  0  0  0  0  0
   37.6380   24.8950   31.6660 C   0  0  1  0  0  0  0  0  0  0  0  0
   36.8250   24.0750   29.9120 H   0  0  0  0  0  0  0  0  0  0  0  0
   34.6680   23.2170   31.3330 H   0  0  0  0  0  0  0  0  0  0  0  0
   35.3290   24.2900   32.5910 H   0  0  0  0  0  0  0  0  0  0  0  0
   34.5740   24.9560   29.7260 H   0  0  0  0  0  0  0  0  0  0  0  0
   33.8510   25.6070   31.1960 H   0  0  0  0  0  0  0  0  0  0  0  0
   35.2950   27.3210   30.9560 H   0  0  0  0  0  0  0  0  0  0  0  0
   36.2090   26.5080   29.6690 H   0  0  0  0  0  0  0  0  0  0  0  0
   36.6270   26.4690   32.6690 H   0  0  0  0  0  0  0  0  0  0  0  0
   37.7090   27.0600   31.3780 H   0  0  0  0  0  0  0  0  0  0  0  0
   38.5450   24.9830   31.0320 H   0  0  0  0  0  0  0  0  0  0  0  0
   37.0440   20.3350   32.1610 C   0  0  0  0  0  0  0  0  0  0  0  0
   36.4590   21.5910   31.8450 C   0  0  0  0  0  0  0  0  0  0  0  0
   37.3240   22.5440   31.3230 C   0  0  0  0  0  0  0  0  0  0  0  0
   38.6670   22.2530   31.1350 N   0  0  0  0  0  0  0  0  0  0  0  0
   39.1700   21.0520   31.4500 C   0  0  0  0  0  0  0  0  0  0  0  0
   38.3590   20.0790   31.9680 N   0  0  0  0  0  0  0  0  0  0  0  0
   36.4140   19.5460   32.5760 H   0  0  0  0  0  0  0  0  0  0  0  0
   35.4080   21.7790   32.0060 H   0  0  0  0  0  0  0  0  0  0  0  0
   40.2290   20.9500   31.2580 H   0  0  0  0  0  0  0  0  0  0  0  0
   39.2840   24.6180   33.7300 C   0  0  0  0  0  0  0  0  0  0  0  0
   40.1690   25.1850   33.0180 O   0  0  0  0  0  0  0  0  0  0  0  0
   38.0530   24.5630   33.0030 N   0  0  0  0  0  0  0  0  0  0  0  0
   37.1680   24.2040   33.4790 H   0  0  0  0  0  0  0  0  0  0  0  0
   37.7910   25.9610   36.0310 Cl  0  0  0  0  0  0  0  0  0  0  0  0
   38.7070   24.4880   36.2240 C   0  0  0  0  0  0  0  0  0  0  0  0
   39.3010   24.0470   35.0740 C   0  0  0  0  0  0  0  0  0  0  0  0
   40.0680   22.8760   35.0820 C   0  0  0  0  0  0  0  0  0  0  0  0
   40.5880   22.4150   34.2620 H   0  0  0  0  0  0  0  0  0  0  0  0
   40.2270   22.1530   36.2700 C   0  0  0  0  0  0  0  0  0  0  0  0
   40.8060   21.2410   36.3450 H   0  0  0  0  0  0  0  0  0  0  0  0
   39.6190   22.6120   37.4250 C   0  0  0  0  0  0  0  0  0  0  0  0
   39.7300   22.0710   38.3420 H   0  0  0  0  0  0  0  0  0  0  0  0
   38.8690   23.7690   37.3890 C   0  0  0  0  0  0  0  0  0  0  0  0
   38.0680   24.4160   38.8060 Cl  0  0  0  0  0  0  0  0  0  0  0  0
  1  7  1  6  0  0  0
  1 19  1  0  0  0  0
  1  2  1  0  0  0  0
  1  6  1  0  0  0  0
  2  9  1  0  0  0  0
  3 11  1  0  0  0  0
  3  2  1  0  0  0  0
  4  3  1  0  0  0  0
  4 12  1  0  0  0  0
  4  5  1  0  0  0  0
  5  6  1  0  0  0  0
  5 14  1  0  0  0  0
  6 16  1  6  0  0  0
  6 28  1  0  0  0  0
  8  2  1  0  0  0  0
 10  3  1  0  0  0  0
 13  4  1  0  0  0  0
 15  5  1  0  0  0  0
 17 23  1  0  0  0  0
 18 24  1  0  0  0  0
 18 17  2  0  0  0  0
 19 18  1  0  0  0  0
 20 19  2  0  0  0  0
 20 21  1  0  0  0  0
 21 22  2  0  0  0  0
 22 17  1  0  0  0  0
 25 21  1  0  0  0  0
 26 32  1  0  0  0  0
 27 26  2  0  0  0  0
 28 29  1  0  0  0  0
 28 26  1  0  0  0  0
 30 31  1  0  0  0  0
 31 39  1  0  0  0  0
 32 33  1  0  0  0  0
 32 31  2  0  0  0  0
 33 35  2  0  0  0  0
 34 33  1  0  0  0  0
 35 36  1  0  0  0  0
 35 37  1  0  0  0  0
 37 38  1  0  0  0  0
 39 37  2  0  0  0  0
 39 40  1  0  0  0  0
M  END
>  <minimizedAffinity>
-5.38370657

$$$$

 OpenBabel03262523563D

 40 42  0  0  1  0  0  0  0  0999 V2000
   37.2270   25.6280   30.9870 C   0  0  1  0  0  0  0  0  0  0  0  0
   36.1400   26.4670   31.4690 C   0  0  0  0  0  0  0  0  0  0  0  0
   36.2690   27.8180   30.8320 C   0  0  0  0  0  0  0  0  0  0  0  0
   37.6650   28.2830   30.8420 C   0  0  0  0  0  0  0  0  0  0  0  0
   38.5900   27.5810   31.7600 C   0  0  0  0  0  0  0  0  0  0  0  0
   38.5050   26.0600   31.7000 C   0  0  1  0  0  0  0  0  0  0  0  0
   37.4490   25.8320   29.8990 H   0  0  0  0  0  0  0  0  0  0  0  0
   35.1050   26.0630   31.2640 H   0  0  0  0  0  0  0  0  0  0  0  0
   36.1670   26.6090   32.5840 H   0  0  0  0  0  0  0  0  0  0  0  0
   35.9180   27.7080   29.7640 H   0  0  0  0  0  0  0  0  0  0  0  0
   35.5590   28.5510   31.2700 H   0  0  0  0  0  0  0  0  0  0  0  0
   37.6610   29.3530   31.1350 H   0  0  0  0  0  0  0  0  0  0  0  0
   38.1020   28.2660   29.8020 H   0  0  0  0  0  0  0  0  0  0  0  0
   38.3580   27.8720   32.7940 H   0  0  0  0  0  0  0  0  0  0  0  0
   39.6280   27.9280   31.5430 H   0  0  0  0  0  0  0  0  0  0  0  0
   39.3590   25.7280   31.0730 H   0  0  0  0  0  0  0  0  0  0  0  0
   35.7190   22.3330   31.8040 C   0  0  0  0  0  0  0  0  0  0  0  0
   35.8310   23.7300   31.5610 C   0  0  0  0  0  0  0  0  0  0  0  0
   37.0980   24.1810   31.2160 C   0  0  0  0  0  0  0  0  0  0  0  0
   38.1630   23.2980   31.1210 N   0  0  0  0  0  0  0  0  0  0  0  0
   38.0040   21.9890   31.3600 C   0  0  0  0  0  0  0  0  0  0  0  0
   36.7760   21.4940   31.7060 N   0  0  0  0  0  0  0  0  0  0  0  0
   34.7480   21.9200   32.0810 H   0  0  0  0  0  0  0  0  0  0  0  0
   34.9770   24.3850   31.6450 H   0  0  0  0  0  0  0  0  0  0  0  0
   38.9090   21.4060   31.2550 H   0  0  0  0  0  0  0  0  0  0  0  0
   39.7590   25.3250   33.9210 C   0  0  0  0  0  0  0  0  0  0  0  0
   40.7900   25.8980   33.4520 O   0  0  0  0  0  0  0  0  0  0  0  0
   38.6660   25.4990   33.0150 N   0  0  0  0  0  0  0  0  0  0  0  0
   37.6890   25.1650   33.2870 H   0  0  0  0  0  0  0  0  0  0  0  0
   41.7620   23.2500   34.9250 Cl  0  0  0  0  0  0  0  0  0  0  0  0
   40.2690   23.6080   35.7550 C   0  0  0  0  0  0  0  0  0  0  0  0
   39.5100   24.5680   35.1440 C   0  0  0  0  0  0  0  0  0  0  0  0
   38.2850   24.9560   35.7010 C   0  0  0  0  0  0  0  0  0  0  0  0
   37.5900   25.6890   35.3340 H   0  0  0  0  0  0  0  0  0  0  0  0
   37.8350   24.3600   36.8850 C   0  0  0  0  0  0  0  0  0  0  0  0
   36.9000   24.6130   37.3670 H   0  0  0  0  0  0  0  0  0  0  0  0
   38.6150   23.3900   37.4900 C   0  0  0  0  0  0  0  0  0  0  0  0
   38.2870   22.9250   38.3970 H   0  0  0  0  0  0  0  0  0  0  0  0
   39.8180   23.0270   36.9210 C   0  0  0  0  0  0  0  0  0  0  0  0
   40.8630   21.8100   37.6230 Cl  0  0  0  0  0  0  0  0  0  0  0  0
  1  7  1  6  0  0  0
  1 19  1  0  0  0  0
  1  2  1  0  0  0  0
  1  6  1  0  0  0  0
  2  9  1  0  0  0  0
  3  4  1  0  0  0  0
  3 11  1  0  0  0  0
  3  2  1  0  0  0  0
  4 12  1  0  0  0  0
  4  5  1  0  0  0  0
  5 14  1  0  0  0  0
  6 16  1  6  0  0  0
  6  5  1  0  0  0  0
  6 28  1  0  0  0  0
  8  2  1  0  0  0  0
 10  3  1  0  0  0  0
 13  4  1  0  0  0  0
 15  5  1  0  0  0  0
 17 23  1  0  0  0  0
 18 24  1  0  0  0  0
 18 17  2  0  0  0  0
 19 18  1  0  0  0  0
 20 19  2  0  0  0  0
 20 21  1  0  0  0  0
 21 22  2  0  0  0  0
 22 17  1  0  0  0  0
 25 21  1  0  0  0  0
 26 32  1  0  0  0  0
 27 26  2  0  0  0  0
 28 29  1  0  0  0  0
 28 26  1  0  0  0  0
 30 31  1  0  0  0  0
 31 39  1  0  0  0  0
 32 33  1  0  0  0  0
 32 31  2  0  0  0  0
 33 35  2  0  0  0  0
 34 33  1  0  0  0  0
 35 36  1  0  0  0  0
 35 37  1  0  0  0  0
 37 38  1  0  0  0  0
 39 37  2  0  0  0  0
 39 40  1  0  0  0  0
M  END
>  <minimizedAffinity>
-5.34243727

$$$$

 OpenBabel03262523563D

 40 42  0  0  1  0  0  0  0  0999 V2000
   38.7080   24.8710   36.2320 C   0  0  1  0  0  0  0  0  0  0  0  0
   37.5330   24.6570   37.0640 C   0  0  0  0  0  0  0  0  0  0  0  0
   37.9900   24.3530   38.4590 C   0  0  0  0  0  0  0  0  0  0  0  0
   39.1180   23.4080   38.4580 C   0  0  0  0  0  0  0  0  0  0  0  0
   39.3490   22.6540   37.2040 C   0  0  0  0  0  0  0  0  0  0  0  0
   39.3330   23.5090   35.9420 C   0  0  1  0  0  0  0  0  0  0  0  0
   39.5160   25.4170   36.8020 H   0  0  0  0  0  0  0  0  0  0  0  0
   36.8120   25.5260   37.0960 H   0  0  0  0  0  0  0  0  0  0  0  0
   36.9080   23.7900   36.7110 H   0  0  0  0  0  0  0  0  0  0  0  0
   38.3230   25.3330   38.9110 H   0  0  0  0  0  0  0  0  0  0  0  0
   37.1490   24.0330   39.1090 H   0  0  0  0  0  0  0  0  0  0  0  0
   38.9320   22.6620   39.2590 H   0  0  0  0  0  0  0  0  0  0  0  0
   40.0760   23.9230   38.7550 H   0  0  0  0  0  0  0  0  0  0  0  0
   38.5580   21.9000   37.0880 H   0  0  0  0  0  0  0  0  0  0  0  0
   40.3180   22.1080   37.2990 H   0  0  0  0  0  0  0  0  0  0  0  0
   40.3960   23.6870   35.6760 H   0  0  0  0  0  0  0  0  0  0  0  0
   37.0700   26.7830   33.5020 C   0  0  0  0  0  0  0  0  0  0  0  0
   37.2860   26.1890   34.7760 C   0  0  0  0  0  0  0  0  0  0  0  0
   38.4880   25.5100   34.9270 C   0  0  0  0  0  0  0  0  0  0  0  0
   39.3960   25.4370   33.8820 N   0  0  0  0  0  0  0  0  0  0  0  0
   39.1440   26.0150   32.6990 C   0  0  0  0  0  0  0  0  0  0  0  0
   37.9730   26.6950   32.4990 N   0  0  0  0  0  0  0  0  0  0  0  0
   36.1420   27.3290   33.3230 H   0  0  0  0  0  0  0  0  0  0  0  0
   36.5540   26.2680   35.5650 H   0  0  0  0  0  0  0  0  0  0  0  0
   39.9290   25.8860   31.9660 H   0  0  0  0  0  0  0  0  0  0  0  0
   39.1560   21.8810   33.8550 C   0  0  0  0  0  0  0  0  0  0  0  0
   40.3760   21.5930   34.0570 O   0  0  0  0  0  0  0  0  0  0  0  0
   38.7100   22.7930   34.8620 N   0  0  0  0  0  0  0  0  0  0  0  0
   37.6810   23.0750   34.9090 H   0  0  0  0  0  0  0  0  0  0  0  0
   36.3240   21.0340   34.6220 Cl  0  0  0  0  0  0  0  0  0  0  0  0
   36.8930   21.0620   32.9720 C   0  0  0  0  0  0  0  0  0  0  0  0
   38.1910   21.4710   32.8390 C   0  0  0  0  0  0  0  0  0  0  0  0
   38.7790   21.5410   31.5700 C   0  0  0  0  0  0  0  0  0  0  0  0
   39.7800   21.8420   31.3160 H   0  0  0  0  0  0  0  0  0  0  0  0
   38.0380   21.1920   30.4350 C   0  0  0  0  0  0  0  0  0  0  0  0
   38.4320   21.2240   29.4270 H   0  0  0  0  0  0  0  0  0  0  0  0
   36.7260   20.7800   30.5880 C   0  0  0  0  0  0  0  0  0  0  0  0
   36.1440   20.5100   29.7300 H   0  0  0  0  0  0  0  0  0  0  0  0
   36.1700   20.7200   31.8490 C   0  0  0  0  0  0  0  0  0  0  0  0
   34.5180   20.2100   32.1270 Cl  0  0  0  0  0  0  0  0  0  0  0  0
  1  7  1  1  0  0  0
  1  2  1  0  0  0  0
  2  8  1  0  0  0  0
  2  3  1  0  0  0  0
  3 10  1  0  0  0  0
  3 11  1  0  0  0  0
  4  3  1  0  0  0  0
  4 13  1  0  0  0  0
  4 12  1  0  0  0  0
  5 15  1  0  0  0  0
  5  4  1  0  0  0  0
  6 16  1  6  0  0  0
  6  1  1  0  0  0  0
  6  5  1  0  0  0  0
  9  2  1  0  0  0  0
 14  5  1  0  0  0  0
 17 18  1  0  0  0  0
 18 19  2  0  0  0  0
 18 24  1  0  0  0  0
 19  1  1  0  0  0  0
 20 19  1  0  0  0  0
 21 20  2  0  0  0  0
 22 21  1  0  0  0  0
 22 17  2  0  0  0  0
 23 17  1  0  0  0  0
 25 21  1  0  0  0  0
 26 27  2  0  0  0  0
 26 28  1  0  0  0  0
 28 29  1  0  0  0  0
 28  6  1  0  0  0  0
 31 30  1  0  0  0  0
 32 31  1  0  0  0  0
 32 26  1  0  0  0  0
 33 32  2  0  0  0  0
 34 33  1  0  0  0  0
 35 37  2  0  0  0  0
 35 33  1  0  0  0  0
 36 35  1  0  0  0  0
 37 39  1  0  0  0  0
 38 37  1  0  0  0  0
 39 40  1  0  0  0  0
 39 31  2  0  0  0  0
M  END
>  <minimizedAffinity>
-5.33195543

$$$$
