
 OpenBabel03272508573D

 42 45  0  0  1  0  0  0  0  0999 V2000
   38.9170   31.6810   43.3160 C   0  0  0  0  0  0  0  0  0  0  0  0
   40.0340   30.8960   43.3610 C   0  0  0  0  0  0  0  0  0  0  0  0
   40.6760   30.6220   42.1650 C   0  0  0  0  0  0  0  0  0  0  0  0
   40.1550   31.1510   41.0110 C   0  0  0  0  0  0  0  0  0  0  0  0
   39.0250   31.9450   40.9600 C   0  0  0  0  0  0  0  0  0  0  0  0
   38.4520   32.1730   42.1480 N   0  0  0  0  0  0  0  0  0  0  0  0
   40.4330   30.4850   44.2810 H   0  0  0  0  0  0  0  0  0  0  0  0
   41.5600   30.0080   42.1550 H   0  0  0  0  0  0  0  0  0  0  0  0
   40.6950   30.9060   40.1040 H   0  0  0  0  0  0  0  0  0  0  0  0
   38.2130   31.9900   44.5750 C   0  0  0  0  0  0  0  0  0  0  0  0
   37.0110   32.3450   44.5760 O   0  0  0  0  0  0  0  0  0  0  0  0
   38.9530   31.8730   45.8180 N   0  0  0  0  0  0  0  0  0  0  0  0
   39.9750   31.7950   45.8580 H   0  0  0  0  0  0  0  0  0  0  0  0
   38.7500   31.2850   48.2190 C   0  0  2  0  0  0  0  0  0  0  0  0
   38.8210   32.7670   48.1430 C   0  0  0  0  0  0  0  0  0  0  0  0
   38.1940   31.8680   47.0420 C   0  0  1  0  0  0  0  0  0  0  0  0
   39.7530   30.8080   48.2140 H   0  0  0  0  0  0  0  0  0  0  0  0
   39.7590   33.2730   47.9220 H   0  0  0  0  0  0  0  0  0  0  0  0
   38.1140   33.2940   48.8190 H   0  0  0  0  0  0  0  0  0  0  0  0
   37.0820   31.9880   46.9610 H   0  0  0  0  0  0  0  0  0  0  0  0
   35.9900   29.2250   49.6300 C   0  0  0  0  0  0  0  0  0  0  0  0
   36.2030   29.3880   51.0350 C   0  0  0  0  0  0  0  0  0  0  0  0
   37.2990   30.2190   51.4710 C   0  0  0  0  0  0  0  0  0  0  0  0
   38.0970   30.8230   50.5330 N   0  0  0  0  0  0  0  0  0  0  0  0
   37.8340   30.6240   49.2240 C   0  0  0  0  0  0  0  0  0  0  0  0
   36.7970   29.8370   48.7400 N   0  0  0  0  0  0  0  0  0  0  0  0
   35.1610   28.5960   49.3440 H   0  0  0  0  0  0  0  0  0  0  0  0
   35.5930   28.9240   51.7830 H   0  0  0  0  0  0  0  0  0  0  0  0
   37.4580   30.3400   52.5310 H   0  0  0  0  0  0  0  0  0  0  0  0
   38.5250   32.4760   39.6980 C   0  0  0  0  0  0  0  0  0  0  0  0
   39.2460   33.3250   39.0860 O   0  0  0  0  0  0  0  0  0  0  0  0
   36.3030   34.3210   40.4760 Cl  0  0  0  0  0  0  0  0  0  0  0  0
   36.2130   32.9560   39.3930 C   0  0  0  0  0  0  0  0  0  0  0  0
   37.2680   32.1250   39.0570 C   0  0  0  0  0  0  0  0  0  0  0  0
   37.1120   31.0630   38.1910 C   0  0  0  0  0  0  0  0  0  0  0  0
   37.9810   30.4750   37.9890 H   0  0  0  0  0  0  0  0  0  0  0  0
   35.8540   30.8620   37.6670 C   0  0  0  0  0  0  0  0  0  0  0  0
   35.7390   30.0260   36.9870 H   0  0  0  0  0  0  0  0  0  0  0  0
   34.7710   31.6590   37.9670 C   0  0  0  0  0  0  0  0  0  0  0  0
   33.8020   31.4690   37.5360 H   0  0  0  0  0  0  0  0  0  0  0  0
   34.9550   32.7200   38.8430 C   0  0  0  0  0  0  0  0  0  0  0  0
   33.5540   33.7050   39.1950 Cl  0  0  0  0  0  0  0  0  0  0  0  0
  1  2  1  0  0  0  0
  1 10  1  0  0  0  0
  2  7  1  0  0  0  0
  3  2  2  0  0  0  0
  4  3  1  0  0  0  0
  5  4  2  0  0  0  0
  5  6  1  0  0  0  0
  6  1  2  0  0  0  0
  8  3  1  0  0  0  0
  9  4  1  0  0  0  0
 10 11  2  0  0  0  0
 10 12  1  0  0  0  0
 12 13  1  0  0  0  0
 12 16  1  0  0  0  0
 14 17  1  6  0  0  0
 14 25  1  0  0  0  0
 15 14  1  0  0  0  0
 15 19  1  0  0  0  0
 16 20  1  6  0  0  0
 16 15  1  0  0  0  0
 16 14  1  0  0  0  0
 18 15  1  0  0  0  0
 21 22  1  0  0  0  0
 22 23  2  0  0  0  0
 22 28  1  0  0  0  0
 23 29  1  0  0  0  0
 24 23  1  0  0  0  0
 25 24  2  0  0  0  0
 26 25  1  0  0  0  0
 26 21  2  0  0  0  0
 27 21  1  0  0  0  0
 30  5  1  0  0  0  0
 31 30  2  0  0  0  0
 33 32  1  0  0  0  0
 34 33  1  0  0  0  0
 34 30  1  0  0  0  0
 35 34  2  0  0  0  0
 36 35  1  0  0  0  0
 37 39  2  0  0  0  0
 37 35  1  0  0  0  0
 38 37  1  0  0  0  0
 39 41  1  0  0  0  0
 40 39  1  0  0  0  0
 41 42  1  0  0  0  0
 41 33  2  0  0  0  0
M  END
>  <minimizedAffinity>
-5.07965326

>  <minimizedRMSD>
2.26864052

$$$$
