
 OpenBabel03262523563D

 40 42  0  0  1  0  0  0  0  0999 V2000
   34.0430   30.1460   42.6450 C   0  0  1  0  0  0  0  0  0  0  0  0
   34.9560   31.2490   42.3820 C   0  0  0  0  0  0  0  0  0  0  0  0
   35.8550   30.8570   41.2470 C   0  0  0  0  0  0  0  0  0  0  0  0
   36.3360   29.4750   41.3990 C   0  0  0  0  0  0  0  0  0  0  0  0
   36.1930   28.8680   42.7420 C   0  0  0  0  0  0  0  0  0  0  0  0
   34.8210   29.0560   43.3770 C   0  0  1  0  0  0  0  0  0  0  0  0
   33.7230   29.6440   41.6850 H   0  0  0  0  0  0  0  0  0  0  0  0
   34.4530   32.2280   42.1300 H   0  0  0  0  0  0  0  0  0  0  0  0
   35.6070   31.4900   43.2670 H   0  0  0  0  0  0  0  0  0  0  0  0
   35.2380   30.9380   40.3040 H   0  0  0  0  0  0  0  0  0  0  0  0
   36.6720   31.5930   41.0940 H   0  0  0  0  0  0  0  0  0  0  0  0
   37.4170   29.4670   41.1480 H   0  0  0  0  0  0  0  0  0  0  0  0
   35.8540   28.7950   40.6390 H   0  0  0  0  0  0  0  0  0  0  0  0
   36.9250   29.3270   43.4220 H   0  0  0  0  0  0  0  0  0  0  0  0
   36.4470   27.7840   42.6640 H   0  0  0  0  0  0  0  0  0  0  0  0
   34.2750   28.1030   43.2200 H   0  0  0  0  0  0  0  0  0  0  0  0
   30.6270   29.9290   44.0870 C   0  0  0  0  0  0  0  0  0  0  0  0
   31.7670   29.6200   43.2950 C   0  0  0  0  0  0  0  0  0  0  0  0
   32.8690   30.4440   43.4780 C   0  0  0  0  0  0  0  0  0  0  0  0
   32.8260   31.4920   44.3850 N   0  0  0  0  0  0  0  0  0  0  0  0
   31.7260   31.7420   45.1080 C   0  0  0  0  0  0  0  0  0  0  0  0
   30.6130   30.9590   44.9640 N   0  0  0  0  0  0  0  0  0  0  0  0
   29.7290   29.3170   43.9860 H   0  0  0  0  0  0  0  0  0  0  0  0
   31.7610   28.7940   42.5990 H   0  0  0  0  0  0  0  0  0  0  0  0
   31.8170   32.5860   45.7780 H   0  0  0  0  0  0  0  0  0  0  0  0
   34.3940   28.6830   45.9690 C   0  0  0  0  0  0  0  0  0  0  0  0
   33.6980   27.6730   45.6440 O   0  0  0  0  0  0  0  0  0  0  0  0
   34.9520   29.2750   44.7920 N   0  0  0  0  0  0  0  0  0  0  0  0
   35.6450   30.0820   44.8780 H   0  0  0  0  0  0  0  0  0  0  0  0
   32.7250   28.0870   48.4570 Cl  0  0  0  0  0  0  0  0  0  0  0  0
   34.0900   29.1760   48.4670 C   0  0  0  0  0  0  0  0  0  0  0  0
   34.7050   29.3080   47.2520 C   0  0  0  0  0  0  0  0  0  0  0  0
   35.8150   30.1500   47.1130 C   0  0  0  0  0  0  0  0  0  0  0  0
   36.3930   30.3490   46.2290 H   0  0  0  0  0  0  0  0  0  0  0  0
   36.2970   30.8590   48.2190 C   0  0  0  0  0  0  0  0  0  0  0  0
   37.1490   31.5260   48.1820 H   0  0  0  0  0  0  0  0  0  0  0  0
   35.6630   30.7150   49.4420 C   0  0  0  0  0  0  0  0  0  0  0  0
   36.0190   31.2490   50.2980 H   0  0  0  0  0  0  0  0  0  0  0  0
   34.5710   29.8780   49.5510 C   0  0  0  0  0  0  0  0  0  0  0  0
   33.7140   29.6410   51.0600 Cl  0  0  0  0  0  0  0  0  0  0  0  0
  1  7  1  6  0  0  0
  1  6  1  0  0  0  0
  1 19  1  0  0  0  0
  2  1  1  0  0  0  0
  2  9  1  0  0  0  0
  3  4  1  0  0  0  0
  3  2  1  0  0  0  0
  4  5  1  0  0  0  0
  5  6  1  0  0  0  0
  5 14  1  0  0  0  0
  6 16  1  6  0  0  0
  6 28  1  0  0  0  0
  8  2  1  0  0  0  0
 10  3  1  0  0  0  0
 11  3  1  0  0  0  0
 12  4  1  0  0  0  0
 13  4  1  0  0  0  0
 15  5  1  0  0  0  0
 17 22  1  0  0  0  0
 18 19  1  0  0  0  0
 18 17  2  0  0  0  0
 19 20  2  0  0  0  0
 20 21  1  0  0  0  0
 21 25  1  0  0  0  0
 22 21  2  0  0  0  0
 23 17  1  0  0  0  0
 24 18  1  0  0  0  0
 26 32  1  0  0  0  0
 27 26  2  0  0  0  0
 28 29  1  0  0  0  0
 28 26  1  0  0  0  0
 30 31  1  0  0  0  0
 31 39  1  0  0  0  0
 32 31  2  0  0  0  0
 33 32  1  0  0  0  0
 33 35  2  0  0  0  0
 34 33  1  0  0  0  0
 35 37  1  0  0  0  0
 36 35  1  0  0  0  0
 37 39  2  0  0  0  0
 37 38  1  0  0  0  0
 39 40  1  0  0  0  0
M  END
>  <minimizedAffinity>
-3.70699525

>  <minimizedRMSD>
6.50104237

$$$$
