
 OpenBabel03262522123D

 32 34  0  0  0  0  0  0  0  0999 V2000
   37.3170   26.9400   34.1430 C   0  0  0  0  0  0  0  0  0  0  0  0
   37.2430   25.9340   33.1990 C   0  0  0  0  0  0  0  0  0  0  0  0
   36.4990   26.1170   32.0540 C   0  0  0  0  0  0  0  0  0  0  0  0
   35.8580   27.3340   31.9270 C   0  0  0  0  0  0  0  0  0  0  0  0
   35.9360   28.3350   32.8740 C   0  0  0  0  0  0  0  0  0  0  0  0
   36.6760   28.1150   33.9830 N   0  0  0  0  0  0  0  0  0  0  0  0
   37.7440   24.9750   33.2920 H   0  0  0  0  0  0  0  0  0  0  0  0
   36.4250   25.3420   31.2990 H   0  0  0  0  0  0  0  0  0  0  0  0
   35.2540   27.5480   31.0530 H   0  0  0  0  0  0  0  0  0  0  0  0
   38.1200   26.6840   35.3320 C   0  0  0  0  0  0  0  0  0  0  0  0
   38.5400   27.6170   36.0260 O   0  0  0  0  0  0  0  0  0  0  0  0
   39.6730   24.7690   35.3230 C   0  0  0  0  0  0  0  0  0  0  0  0
   38.4670   25.3310   35.7570 C   0  0  0  0  0  0  0  0  0  0  0  0
   37.6430   24.5640   36.5830 C   0  0  0  0  0  0  0  0  0  0  0  0
   38.0310   23.3110   36.9390 N   0  0  0  0  0  0  0  0  0  0  0  0
   39.2100   22.7980   36.4980 C   0  0  0  0  0  0  0  0  0  0  0  0
   40.0110   23.5110   35.7090 N   0  0  0  0  0  0  0  0  0  0  0  0
   40.3410   25.3270   34.6820 H   0  0  0  0  0  0  0  0  0  0  0  0
   36.7240   25.0330   36.8950 H   0  0  0  0  0  0  0  0  0  0  0  0
   39.3760   21.7940   36.8660 H   0  0  0  0  0  0  0  0  0  0  0  0
   35.0970   29.9090   32.6920 S   0  0  0  0  0  0  0  0  0  0  0  0
   32.5760   29.4160   34.5940 Cl  0  0  0  0  0  0  0  0  0  0  0  0
   33.8640   30.5010   35.1160 C   0  0  0  0  0  0  0  0  0  0  0  0
   34.9650   30.7210   34.2940 C   0  0  0  0  0  0  0  0  0  0  0  0
   35.9660   31.5780   34.7230 C   0  0  0  0  0  0  0  0  0  0  0  0
   36.8360   31.7590   34.0870 H   0  0  0  0  0  0  0  0  0  0  0  0
   35.8810   32.2040   35.9380 C   0  0  0  0  0  0  0  0  0  0  0  0
   36.6680   32.8820   36.2840 H   0  0  0  0  0  0  0  0  0  0  0  0
   34.7690   31.9700   36.7500 C   0  0  0  0  0  0  0  0  0  0  0  0
   34.6840   32.4480   37.6990 H   0  0  0  0  0  0  0  0  0  0  0  0
   33.7460   31.1200   36.3570 C   0  0  0  0  0  0  0  0  0  0  0  0
   32.3460   30.8240   37.3710 Cl  0  0  0  0  0  0  0  0  0  0  0  0
  1 10  1  0  0  0  0
  2  7  1  0  0  0  0
  2  1  2  0  0  0  0
  3  2  1  0  0  0  0
  4  3  2  0  0  0  0
  4  5  1  0  0  0  0
  5  6  2  0  0  0  0
  6  1  1  0  0  0  0
  8  3  1  0  0  0  0
  9  4  1  0  0  0  0
 10 13  1  0  0  0  0
 10 11  2  0  0  0  0
 12 17  2  0  0  0  0
 12 13  1  0  0  0  0
 13 14  2  0  0  0  0
 14 19  1  0  0  0  0
 14 15  1  0  0  0  0
 16 20  1  0  0  0  0
 16 15  2  0  0  0  0
 17 16  1  0  0  0  0
 18 12  1  0  0  0  0
 21  5  1  0  0  0  0
 21 24  1  0  0  0  0
 22 23  1  0  0  0  0
 23 31  1  0  0  0  0
 24 25  1  0  0  0  0
 24 23  2  0  0  0  0
 25 27  2  0  0  0  0
 26 25  1  0  0  0  0
 27 28  1  0  0  0  0
 27 29  1  0  0  0  0
 29 30  1  0  0  0  0
 31 29  2  0  0  0  0
 31 32  1  0  0  0  0
M  END
>  <minimizedAffinity>
-5.63112497

$$$$

 OpenBabel03262522123D

 32 34  0  0  0  0  0  0  0  0999 V2000
   37.2430   23.4710   31.6720 C   0  0  0  0  0  0  0  0  0  0  0  0
   36.1920   24.1890   31.1380 C   0  0  0  0  0  0  0  0  0  0  0  0
   35.9490   25.4770   31.5650 C   0  0  0  0  0  0  0  0  0  0  0  0
   36.8030   25.9730   32.5300 C   0  0  0  0  0  0  0  0  0  0  0  0
   37.8530   25.2500   33.0590 C   0  0  0  0  0  0  0  0  0  0  0  0
   38.0560   23.9910   32.6130 N   0  0  0  0  0  0  0  0  0  0  0  0
   35.5160   23.8060   30.3790 H   0  0  0  0  0  0  0  0  0  0  0  0
   35.1300   26.0600   31.1610 H   0  0  0  0  0  0  0  0  0  0  0  0
   36.6740   26.9780   32.9140 H   0  0  0  0  0  0  0  0  0  0  0  0
   37.4460   22.1150   31.1780 C   0  0  0  0  0  0  0  0  0  0  0  0
   38.2660   21.8830   30.2810 O   0  0  0  0  0  0  0  0  0  0  0  0
   36.4690   19.8700   30.8830 C   0  0  0  0  0  0  0  0  0  0  0  0
   36.7020   20.9760   31.7080 C   0  0  0  0  0  0  0  0  0  0  0  0
   36.2050   20.9400   33.0130 C   0  0  0  0  0  0  0  0  0  0  0  0
   35.5210   19.8460   33.4380 N   0  0  0  0  0  0  0  0  0  0  0  0
   35.3140   18.7890   32.6080 C   0  0  0  0  0  0  0  0  0  0  0  0
   35.7780   18.8030   31.3600 N   0  0  0  0  0  0  0  0  0  0  0  0
   36.8360   19.8570   29.8650 H   0  0  0  0  0  0  0  0  0  0  0  0
   36.4060   21.8100   33.6150 H   0  0  0  0  0  0  0  0  0  0  0  0
   34.7550   17.9990   33.0910 H   0  0  0  0  0  0  0  0  0  0  0  0
   38.9520   25.9120   34.3110 S   0  0  0  0  0  0  0  0  0  0  0  0
   41.0250   23.4990   34.6260 Cl  0  0  0  0  0  0  0  0  0  0  0  0
   39.8390   23.8020   35.8950 C   0  0  0  0  0  0  0  0  0  0  0  0
   38.9330   24.8500   35.7660 C   0  0  0  0  0  0  0  0  0  0  0  0
   38.0080   25.0710   36.7740 C   0  0  0  0  0  0  0  0  0  0  0  0
   37.2920   25.8900   36.6850 H   0  0  0  0  0  0  0  0  0  0  0  0
   37.9800   24.2720   37.8870 C   0  0  0  0  0  0  0  0  0  0  0  0
   37.2520   24.4400   38.6880 H   0  0  0  0  0  0  0  0  0  0  0  0
   38.8970   23.2250   37.9990 C   0  0  0  0  0  0  0  0  0  0  0  0
   38.8910   22.5930   38.8570 H   0  0  0  0  0  0  0  0  0  0  0  0
   39.8380   22.9710   37.0120 C   0  0  0  0  0  0  0  0  0  0  0  0
   40.9920   21.6580   37.1470 Cl  0  0  0  0  0  0  0  0  0  0  0  0
  1  6  1  0  0  0  0
  2  3  1  0  0  0  0
  2  1  2  0  0  0  0
  3  4  2  0  0  0  0
  4  9  1  0  0  0  0
  4  5  1  0  0  0  0
  5 21  1  0  0  0  0
  6  5  2  0  0  0  0
  7  2  1  0  0  0  0
  8  3  1  0  0  0  0
 10  1  1  0  0  0  0
 10 13  1  0  0  0  0
 11 10  2  0  0  0  0
 12 17  2  0  0  0  0
 12 13  1  0  0  0  0
 13 14  2  0  0  0  0
 14 15  1  0  0  0  0
 14 19  1  0  0  0  0
 16 20  1  0  0  0  0
 16 15  2  0  0  0  0
 17 16  1  0  0  0  0
 18 12  1  0  0  0  0
 21 24  1  0  0  0  0
 22 23  1  0  0  0  0
 23 31  1  0  0  0  0
 24 23  2  0  0  0  0
 24 25  1  0  0  0  0
 25 27  2  0  0  0  0
 26 25  1  0  0  0  0
 27 29  1  0  0  0  0
 27 28  1  0  0  0  0
 29 30  1  0  0  0  0
 31 32  1  0  0  0  0
 31 29  2  0  0  0  0
M  END
>  <minimizedAffinity>
-5.60309553

$$$$

 OpenBabel03262522123D

 32 34  0  0  0  0  0  0  0  0999 V2000
   36.5990   22.0110   32.9930 C   0  0  0  0  0  0  0  0  0  0  0  0
   35.6910   21.0350   33.3540 C   0  0  0  0  0  0  0  0  0  0  0  0
   35.6880   20.5390   34.6400 C   0  0  0  0  0  0  0  0  0  0  0  0
   36.6250   21.0710   35.5040 C   0  0  0  0  0  0  0  0  0  0  0  0
   37.5290   22.0460   35.1370 C   0  0  0  0  0  0  0  0  0  0  0  0
   37.4990   22.5060   33.8660 N   0  0  0  0  0  0  0  0  0  0  0  0
   34.9520   20.6120   32.6810 H   0  0  0  0  0  0  0  0  0  0  0  0
   34.9860   19.7730   34.9480 H   0  0  0  0  0  0  0  0  0  0  0  0
   36.6820   20.7290   36.5310 H   0  0  0  0  0  0  0  0  0  0  0  0
   36.5510   22.4930   31.6180 C   0  0  0  0  0  0  0  0  0  0  0  0
   36.5910   21.7030   30.6670 O   0  0  0  0  0  0  0  0  0  0  0  0
   37.6260   24.6440   31.0730 C   0  0  0  0  0  0  0  0  0  0  0  0
   36.4530   23.9140   31.2980 C   0  0  0  0  0  0  0  0  0  0  0  0
   35.2320   24.5860   31.2050 C   0  0  0  0  0  0  0  0  0  0  0  0
   35.2180   25.9100   30.9020 N   0  0  0  0  0  0  0  0  0  0  0  0
   36.3780   26.5870   30.6900 C   0  0  0  0  0  0  0  0  0  0  0  0
   37.5540   25.9670   30.7740 N   0  0  0  0  0  0  0  0  0  0  0  0
   38.5930   24.1630   31.1350 H   0  0  0  0  0  0  0  0  0  0  0  0
   34.3540   23.9890   31.3840 H   0  0  0  0  0  0  0  0  0  0  0  0
   36.2020   27.6290   30.4610 H   0  0  0  0  0  0  0  0  0  0  0  0
   38.7390   22.7260   36.2730 S   0  0  0  0  0  0  0  0  0  0  0  0
   41.1940   23.7440   34.4970 Cl  0  0  0  0  0  0  0  0  0  0  0  0
   40.0520   24.9130   35.1600 C   0  0  0  0  0  0  0  0  0  0  0  0
   38.9810   24.4780   35.9330 C   0  0  0  0  0  0  0  0  0  0  0  0
   38.0960   25.4130   36.4460 C   0  0  0  0  0  0  0  0  0  0  0  0
   37.2510   25.0850   37.0550 H   0  0  0  0  0  0  0  0  0  0  0  0
   38.2660   26.7490   36.1980 C   0  0  0  0  0  0  0  0  0  0  0  0
   37.5700   27.4940   36.5990 H   0  0  0  0  0  0  0  0  0  0  0  0
   39.3470   27.1670   35.4190 C   0  0  0  0  0  0  0  0  0  0  0  0
   39.4960   28.2020   35.2150 H   0  0  0  0  0  0  0  0  0  0  0  0
   40.2550   26.2630   34.8880 C   0  0  0  0  0  0  0  0  0  0  0  0
   41.6140   26.7800   33.9100 Cl  0  0  0  0  0  0  0  0  0  0  0  0
  1  2  2  0  0  0  0
  1  6  1  0  0  0  0
  2  3  1  0  0  0  0
  3  8  1  0  0  0  0
  3  4  2  0  0  0  0
  4  9  1  0  0  0  0
  5  4  1  0  0  0  0
  5 21  1  0  0  0  0
  6  5  2  0  0  0  0
  7  2  1  0  0  0  0
 10  1  1  0  0  0  0
 11 10  2  0  0  0  0
 12 18  1  0  0  0  0
 12 13  1  0  0  0  0
 13 10  1  0  0  0  0
 14 13  2  0  0  0  0
 14 19  1  0  0  0  0
 15 14  1  0  0  0  0
 16 17  1  0  0  0  0
 16 15  2  0  0  0  0
 17 12  2  0  0  0  0
 20 16  1  0  0  0  0
 22 23  1  0  0  0  0
 23 24  1  0  0  0  0
 24 21  1  0  0  0  0
 24 25  2  0  0  0  0
 25 26  1  0  0  0  0
 27 25  1  0  0  0  0
 27 28  1  0  0  0  0
 29 27  2  0  0  0  0
 30 29  1  0  0  0  0
 31 23  2  0  0  0  0
 31 29  1  0  0  0  0
 32 31  1  0  0  0  0
M  END
>  <minimizedAffinity>
-5.53192806

$$$$

 OpenBabel03262522123D

 32 34  0  0  0  0  0  0  0  0999 V2000
   38.1090   25.1670   35.5670 C   0  0  0  0  0  0  0  0  0  0  0  0
   38.2580   26.4270   36.1120 C   0  0  0  0  0  0  0  0  0  0  0  0
   37.9820   27.5430   35.3530 C   0  0  0  0  0  0  0  0  0  0  0  0
   37.5630   27.3150   34.0560 C   0  0  0  0  0  0  0  0  0  0  0  0
   37.4160   26.0530   33.5180 C   0  0  0  0  0  0  0  0  0  0  0  0
   37.6970   24.9840   34.2960 N   0  0  0  0  0  0  0  0  0  0  0  0
   38.5860   26.6140   37.1300 H   0  0  0  0  0  0  0  0  0  0  0  0
   38.0910   28.5430   35.7580 H   0  0  0  0  0  0  0  0  0  0  0  0
   37.3280   28.1450   33.4000 H   0  0  0  0  0  0  0  0  0  0  0  0
   38.4170   24.0270   36.4220 C   0  0  0  0  0  0  0  0  0  0  0  0
   37.5520   23.5320   37.1540 O   0  0  0  0  0  0  0  0  0  0  0  0
   40.0280   22.4590   37.4340 C   0  0  0  0  0  0  0  0  0  0  0  0
   39.7440   23.4210   36.4590 C   0  0  0  0  0  0  0  0  0  0  0  0
   40.7560   23.7620   35.5570 C   0  0  0  0  0  0  0  0  0  0  0  0
   41.9680   23.1560   35.6520 N   0  0  0  0  0  0  0  0  0  0  0  0
   42.2070   22.2240   36.6120 C   0  0  0  0  0  0  0  0  0  0  0  0
   41.2570   21.8850   37.4830 N   0  0  0  0  0  0  0  0  0  0  0  0
   39.2740   22.1650   38.1520 H   0  0  0  0  0  0  0  0  0  0  0  0
   40.4980   24.5060   34.8220 H   0  0  0  0  0  0  0  0  0  0  0  0
   43.2150   21.8360   36.5580 H   0  0  0  0  0  0  0  0  0  0  0  0
   36.8710   25.7750   31.8330 S   0  0  0  0  0  0  0  0  0  0  0  0
   39.4800   24.2040   30.8610 Cl  0  0  0  0  0  0  0  0  0  0  0  0
   37.9610   23.3320   31.0660 C   0  0  0  0  0  0  0  0  0  0  0  0
   36.8210   24.0080   31.4890 C   0  0  0  0  0  0  0  0  0  0  0  0
   35.6370   23.3040   31.6420 C   0  0  0  0  0  0  0  0  0  0  0  0
   34.7350   23.8230   31.9730 H   0  0  0  0  0  0  0  0  0  0  0  0
   35.5820   21.9600   31.3840 C   0  0  0  0  0  0  0  0  0  0  0  0
   34.6510   21.3960   31.5040 H   0  0  0  0  0  0  0  0  0  0  0  0
   36.7370   21.2980   30.9610 C   0  0  0  0  0  0  0  0  0  0  0  0
   36.7140   20.2520   30.7560 H   0  0  0  0  0  0  0  0  0  0  0  0
   37.9400   21.9670   30.7950 C   0  0  0  0  0  0  0  0  0  0  0  0
   39.3940   21.1420   30.2640 Cl  0  0  0  0  0  0  0  0  0  0  0  0
  1  2  1  0  0  0  0
  1 10  1  0  0  0  0
  2  7  1  0  0  0  0
  3  8  1  0  0  0  0
  3  2  2  0  0  0  0
  4  3  1  0  0  0  0
  5  4  2  0  0  0  0
  5  6  1  0  0  0  0
  6  1  2  0  0  0  0
  9  4  1  0  0  0  0
 10 13  1  0  0  0  0
 10 11  2  0  0  0  0
 12 17  1  0  0  0  0
 12 18  1  0  0  0  0
 13 12  2  0  0  0  0
 14 15  2  0  0  0  0
 14 13  1  0  0  0  0
 15 16  1  0  0  0  0
 16 17  2  0  0  0  0
 19 14  1  0  0  0  0
 20 16  1  0  0  0  0
 21  5  1  0  0  0  0
 22 23  1  0  0  0  0
 23 24  1  0  0  0  0
 24 25  2  0  0  0  0
 24 21  1  0  0  0  0
 25 26  1  0  0  0  0
 27 28  1  0  0  0  0
 27 25  1  0  0  0  0
 29 27  2  0  0  0  0
 30 29  1  0  0  0  0
 31 29  1  0  0  0  0
 31 23  2  0  0  0  0
 32 31  1  0  0  0  0
M  END
>  <minimizedAffinity>
-5.48591709

$$$$

 OpenBabel03262522123D

 32 34  0  0  0  0  0  0  0  0999 V2000
   35.3470   29.3130   32.3550 C   0  0  0  0  0  0  0  0  0  0  0  0
   35.4940   30.1720   31.2840 C   0  0  0  0  0  0  0  0  0  0  0  0
   36.5320   29.9920   30.3940 C   0  0  0  0  0  0  0  0  0  0  0  0
   37.3790   28.9310   30.6470 C   0  0  0  0  0  0  0  0  0  0  0  0
   37.2250   28.0760   31.7190 C   0  0  0  0  0  0  0  0  0  0  0  0
   36.1950   28.2870   32.5680 N   0  0  0  0  0  0  0  0  0  0  0  0
   34.8330   31.0090   31.0790 H   0  0  0  0  0  0  0  0  0  0  0  0
   36.6680   30.6540   29.5460 H   0  0  0  0  0  0  0  0  0  0  0  0
   38.2170   28.7290   29.9900 H   0  0  0  0  0  0  0  0  0  0  0  0
   34.2300   29.5570   33.2590 C   0  0  0  0  0  0  0  0  0  0  0  0
   33.1090   29.0890   33.0230 O   0  0  0  0  0  0  0  0  0  0  0  0
   35.6570   30.6780   34.9280 C   0  0  0  0  0  0  0  0  0  0  0  0
   34.3740   30.3560   34.4720 C   0  0  0  0  0  0  0  0  0  0  0  0
   33.2790   30.8170   35.2080 C   0  0  0  0  0  0  0  0  0  0  0  0
   33.4900   31.5560   36.3280 N   0  0  0  0  0  0  0  0  0  0  0  0
   34.7510   31.8500   36.7410 C   0  0  0  0  0  0  0  0  0  0  0  0
   35.8090   31.4200   36.0550 N   0  0  0  0  0  0  0  0  0  0  0  0
   36.5330   30.3410   34.3900 H   0  0  0  0  0  0  0  0  0  0  0  0
   32.3100   30.5480   34.8240 H   0  0  0  0  0  0  0  0  0  0  0  0
   34.7530   32.4430   37.6450 H   0  0  0  0  0  0  0  0  0  0  0  0
   38.3340   26.7030   32.0300 S   0  0  0  0  0  0  0  0  0  0  0  0
   37.8320   23.7130   33.0450 Cl  0  0  0  0  0  0  0  0  0  0  0  0
   38.1150   24.9980   34.2190 C   0  0  0  0  0  0  0  0  0  0  0  0
   38.3340   26.3010   33.7860 C   0  0  0  0  0  0  0  0  0  0  0  0
   38.5540   27.2960   34.7250 C   0  0  0  0  0  0  0  0  0  0  0  0
   38.7270   28.3240   34.3990 H   0  0  0  0  0  0  0  0  0  0  0  0
   38.5560   27.0080   36.0650 C   0  0  0  0  0  0  0  0  0  0  0  0
   38.7290   27.7890   36.8130 H   0  0  0  0  0  0  0  0  0  0  0  0
   38.3340   25.6940   36.4810 C   0  0  0  0  0  0  0  0  0  0  0  0
   38.3330   25.4490   37.5180 H   0  0  0  0  0  0  0  0  0  0  0  0
   38.1110   24.6700   35.5720 C   0  0  0  0  0  0  0  0  0  0  0  0
   37.8310   23.0180   36.0870 Cl  0  0  0  0  0  0  0  0  0  0  0  0
  1  6  1  0  0  0  0
  1 10  1  0  0  0  0
  2  1  2  0  0  0  0
  3  4  2  0  0  0  0
  3  2  1  0  0  0  0
  4  5  1  0  0  0  0
  5 21  1  0  0  0  0
  5  6  2  0  0  0  0
  7  2  1  0  0  0  0
  8  3  1  0  0  0  0
  9  4  1  0  0  0  0
 10 13  1  0  0  0  0
 11 10  2  0  0  0  0
 12 17  1  0  0  0  0
 13 12  2  0  0  0  0
 13 14  1  0  0  0  0
 14 15  2  0  0  0  0
 15 16  1  0  0  0  0
 16 20  1  0  0  0  0
 17 16  2  0  0  0  0
 18 12  1  0  0  0  0
 19 14  1  0  0  0  0
 21 24  1  0  0  0  0
 22 23  1  0  0  0  0
 23 31  1  0  0  0  0
 24 23  2  0  0  0  0
 24 25  1  0  0  0  0
 25 27  2  0  0  0  0
 26 25  1  0  0  0  0
 27 29  1  0  0  0  0
 27 28  1  0  0  0  0
 29 30  1  0  0  0  0
 31 32  1  0  0  0  0
 31 29  2  0  0  0  0
M  END
>  <minimizedAffinity>
-5.46971989

$$$$

 OpenBabel03262522123D

 32 34  0  0  0  0  0  0  0  0999 V2000
   36.4620   26.9140   32.0400 C   0  0  0  0  0  0  0  0  0  0  0  0
   35.8520   25.7680   31.5690 C   0  0  0  0  0  0  0  0  0  0  0  0
   36.3850   24.5320   31.8670 C   0  0  0  0  0  0  0  0  0  0  0  0
   37.5290   24.5280   32.6400 C   0  0  0  0  0  0  0  0  0  0  0  0
   38.1330   25.6770   33.1080 C   0  0  0  0  0  0  0  0  0  0  0  0
   37.5790   26.8690   32.7940 N   0  0  0  0  0  0  0  0  0  0  0  0
   34.9530   25.7630   30.9600 H   0  0  0  0  0  0  0  0  0  0  0  0
   35.9250   23.6190   31.5080 H   0  0  0  0  0  0  0  0  0  0  0  0
   38.0040   23.5930   32.9140 H   0  0  0  0  0  0  0  0  0  0  0  0
   35.8500   28.1900   31.6900 C   0  0  0  0  0  0  0  0  0  0  0  0
   34.8310   28.5840   32.2710 O   0  0  0  0  0  0  0  0  0  0  0  0
   36.1930   30.4360   30.7350 C   0  0  0  0  0  0  0  0  0  0  0  0
   36.3990   29.0550   30.6510 C   0  0  0  0  0  0  0  0  0  0  0  0
   37.1260   28.5620   29.5640 C   0  0  0  0  0  0  0  0  0  0  0  0
   37.6070   29.4280   28.6340 N   0  0  0  0  0  0  0  0  0  0  0  0
   37.3880   30.7650   28.7490 C   0  0  0  0  0  0  0  0  0  0  0  0
   36.6970   31.2560   29.7760 N   0  0  0  0  0  0  0  0  0  0  0  0
   35.6350   30.8600   31.5590 H   0  0  0  0  0  0  0  0  0  0  0  0
   37.2620   27.4940   29.5370 H   0  0  0  0  0  0  0  0  0  0  0  0
   37.8320   31.3190   27.9330 H   0  0  0  0  0  0  0  0  0  0  0  0
   39.6180   25.6520   34.1120 S   0  0  0  0  0  0  0  0  0  0  0  0
   41.5580   23.2580   34.9620 Cl  0  0  0  0  0  0  0  0  0  0  0  0
   40.1750   23.6630   35.9780 C   0  0  0  0  0  0  0  0  0  0  0  0
   39.3250   24.7030   35.6150 C   0  0  0  0  0  0  0  0  0  0  0  0
   38.2430   25.0040   36.4260 C   0  0  0  0  0  0  0  0  0  0  0  0
   37.5690   25.8190   36.1530 H   0  0  0  0  0  0  0  0  0  0  0  0
   38.0060   24.2920   37.5720 C   0  0  0  0  0  0  0  0  0  0  0  0
   37.1530   24.5240   38.2190 H   0  0  0  0  0  0  0  0  0  0  0  0
   38.8690   23.2510   37.9200 C   0  0  0  0  0  0  0  0  0  0  0  0
   38.7020   22.6860   38.8080 H   0  0  0  0  0  0  0  0  0  0  0  0
   39.9630   22.9190   37.1340 C   0  0  0  0  0  0  0  0  0  0  0  0
   41.0510   21.6130   37.5650 Cl  0  0  0  0  0  0  0  0  0  0  0  0
  1  6  1  0  0  0  0
  2  3  1  0  0  0  0
  2  1  2  0  0  0  0
  3  4  2  0  0  0  0
  4  9  1  0  0  0  0
  4  5  1  0  0  0  0
  5 21  1  0  0  0  0
  6  5  2  0  0  0  0
  7  2  1  0  0  0  0
  8  3  1  0  0  0  0
 10  1  1  0  0  0  0
 10 11  2  0  0  0  0
 12 18  1  0  0  0  0
 13 12  1  0  0  0  0
 13 10  1  0  0  0  0
 14 13  2  0  0  0  0
 15 16  2  0  0  0  0
 15 14  1  0  0  0  0
 16 17  1  0  0  0  0
 17 12  2  0  0  0  0
 19 14  1  0  0  0  0
 20 16  1  0  0  0  0
 21 24  1  0  0  0  0
 22 23  1  0  0  0  0
 23 31  1  0  0  0  0
 24 23  2  0  0  0  0
 24 25  1  0  0  0  0
 25 27  2  0  0  0  0
 26 25  1  0  0  0  0
 27 29  1  0  0  0  0
 27 28  1  0  0  0  0
 29 30  1  0  0  0  0
 31 32  1  0  0  0  0
 31 29  2  0  0  0  0
M  END
>  <minimizedAffinity>
-5.45858192

$$$$

 OpenBabel03262522123D

 32 34  0  0  0  0  0  0  0  0999 V2000
   37.4110   22.1060   35.5050 C   0  0  0  0  0  0  0  0  0  0  0  0
   36.4780   21.1790   35.9270 C   0  0  0  0  0  0  0  0  0  0  0  0
   35.6730   20.5440   35.0060 C   0  0  0  0  0  0  0  0  0  0  0  0
   35.8610   20.8920   33.6830 C   0  0  0  0  0  0  0  0  0  0  0  0
   36.7960   21.8180   33.2690 C   0  0  0  0  0  0  0  0  0  0  0  0
   37.5660   22.4190   34.2030 N   0  0  0  0  0  0  0  0  0  0  0  0
   36.3240   20.9000   36.9650 H   0  0  0  0  0  0  0  0  0  0  0  0
   34.9330   19.8130   35.3130 H   0  0  0  0  0  0  0  0  0  0  0  0
   35.2640   20.4330   32.9040 H   0  0  0  0  0  0  0  0  0  0  0  0
   38.2310   22.7420   36.5280 C   0  0  0  0  0  0  0  0  0  0  0  0
   37.7160   23.2310   37.5410 O   0  0  0  0  0  0  0  0  0  0  0  0
   40.2420   23.8630   35.6440 C   0  0  0  0  0  0  0  0  0  0  0  0
   39.6830   22.8340   36.4110 C   0  0  0  0  0  0  0  0  0  0  0  0
   40.5500   21.9330   37.0340 C   0  0  0  0  0  0  0  0  0  0  0  0
   41.8920   22.0810   36.8800 N   0  0  0  0  0  0  0  0  0  0  0  0
   42.3990   23.0930   36.1280 C   0  0  0  0  0  0  0  0  0  0  0  0
   41.5910   23.9630   35.5250 N   0  0  0  0  0  0  0  0  0  0  0  0
   39.6070   24.5820   35.1450 H   0  0  0  0  0  0  0  0  0  0  0  0
   40.0820   21.1560   37.6150 H   0  0  0  0  0  0  0  0  0  0  0  0
   43.4800   23.0760   36.1020 H   0  0  0  0  0  0  0  0  0  0  0  0
   37.0280   22.2570   31.5460 S   0  0  0  0  0  0  0  0  0  0  0  0
   39.3590   24.4390   31.6880 Cl  0  0  0  0  0  0  0  0  0  0  0  0
   37.7020   24.9520   31.3720 C   0  0  0  0  0  0  0  0  0  0  0  0
   36.6820   24.0090   31.3080 C   0  0  0  0  0  0  0  0  0  0  0  0
   35.3860   24.4330   31.0600 C   0  0  0  0  0  0  0  0  0  0  0  0
   34.5760   23.7030   31.0070 H   0  0  0  0  0  0  0  0  0  0  0  0
   35.1060   25.7620   30.8780 C   0  0  0  0  0  0  0  0  0  0  0  0
   34.0850   26.1040   30.6800 H   0  0  0  0  0  0  0  0  0  0  0  0
   36.1430   26.6940   30.9440 C   0  0  0  0  0  0  0  0  0  0  0  0
   35.9450   27.7320   30.8050 H   0  0  0  0  0  0  0  0  0  0  0  0
   37.4530   26.3090   31.1920 C   0  0  0  0  0  0  0  0  0  0  0  0
   38.7600   27.4740   31.2770 Cl  0  0  0  0  0  0  0  0  0  0  0  0
  1  2  1  0  0  0  0
  1 10  1  0  0  0  0
  2  7  1  0  0  0  0
  3  8  1  0  0  0  0
  3  2  2  0  0  0  0
  4  3  1  0  0  0  0
  5  4  2  0  0  0  0
  5  6  1  0  0  0  0
  6  1  2  0  0  0  0
  9  4  1  0  0  0  0
 10 11  2  0  0  0  0
 12 13  1  0  0  0  0
 13 10  1  0  0  0  0
 13 14  2  0  0  0  0
 14 19  1  0  0  0  0
 15 14  1  0  0  0  0
 16 15  2  0  0  0  0
 17 12  2  0  0  0  0
 17 16  1  0  0  0  0
 18 12  1  0  0  0  0
 20 16  1  0  0  0  0
 21  5  1  0  0  0  0
 23 22  1  0  0  0  0
 24 23  1  0  0  0  0
 24 21  1  0  0  0  0
 25 24  2  0  0  0  0
 26 25  1  0  0  0  0
 27 29  2  0  0  0  0
 27 25  1  0  0  0  0
 28 27  1  0  0  0  0
 29 31  1  0  0  0  0
 30 29  1  0  0  0  0
 31 32  1  0  0  0  0
 31 23  2  0  0  0  0
M  END
>  <minimizedAffinity>
-5.3861537

$$$$

 OpenBabel03262522123D

 32 34  0  0  0  0  0  0  0  0999 V2000
   35.9010   28.7050   33.6170 C   0  0  0  0  0  0  0  0  0  0  0  0
   36.2520   28.3730   32.3240 C   0  0  0  0  0  0  0  0  0  0  0  0
   37.3480   27.5680   32.0930 C   0  0  0  0  0  0  0  0  0  0  0  0
   38.0390   27.1390   33.2080 C   0  0  0  0  0  0  0  0  0  0  0  0
   37.6820   27.4750   34.4980 C   0  0  0  0  0  0  0  0  0  0  0  0
   36.6010   28.2650   34.6820 N   0  0  0  0  0  0  0  0  0  0  0  0
   35.7140   28.7060   31.4420 H   0  0  0  0  0  0  0  0  0  0  0  0
   37.6440   27.2940   31.0860 H   0  0  0  0  0  0  0  0  0  0  0  0
   38.9110   26.5040   33.1040 H   0  0  0  0  0  0  0  0  0  0  0  0
   34.7330   29.5580   33.7940 C   0  0  0  0  0  0  0  0  0  0  0  0
   33.7940   29.5230   32.9890 O   0  0  0  0  0  0  0  0  0  0  0  0
   35.6980   31.3060   35.2400 C   0  0  0  0  0  0  0  0  0  0  0  0
   34.6120   30.4860   34.9140 C   0  0  0  0  0  0  0  0  0  0  0  0
   33.4520   30.5930   35.6850 C   0  0  0  0  0  0  0  0  0  0  0  0
   33.4120   31.4800   36.7140 N   0  0  0  0  0  0  0  0  0  0  0  0
   34.4860   32.2610   37.0010 C   0  0  0  0  0  0  0  0  0  0  0  0
   35.6030   32.1750   36.2800 N   0  0  0  0  0  0  0  0  0  0  0  0
   36.6160   31.2560   34.6700 H   0  0  0  0  0  0  0  0  0  0  0  0
   32.6390   29.9450   35.4020 H   0  0  0  0  0  0  0  0  0  0  0  0
   34.3000   32.9110   37.8450 H   0  0  0  0  0  0  0  0  0  0  0  0
   38.5910   26.9070   35.9350 S   0  0  0  0  0  0  0  0  0  0  0  0
   40.9170   25.3180   34.4240 Cl  0  0  0  0  0  0  0  0  0  0  0  0
   39.6680   24.4230   35.2890 C   0  0  0  0  0  0  0  0  0  0  0  0
   38.6520   25.1070   35.9490 C   0  0  0  0  0  0  0  0  0  0  0  0
   37.6790   24.3840   36.6220 C   0  0  0  0  0  0  0  0  0  0  0  0
   36.8770   24.9090   37.1440 H   0  0  0  0  0  0  0  0  0  0  0  0
   37.7110   23.0150   36.6420 C   0  0  0  0  0  0  0  0  0  0  0  0
   36.9460   22.4370   37.1720 H   0  0  0  0  0  0  0  0  0  0  0  0
   38.7380   22.3460   35.9740 C   0  0  0  0  0  0  0  0  0  0  0  0
   38.7800   21.2810   35.9780 H   0  0  0  0  0  0  0  0  0  0  0  0
   39.7300   23.0330   35.2890 C   0  0  0  0  0  0  0  0  0  0  0  0
   41.0230   22.1990   34.4480 Cl  0  0  0  0  0  0  0  0  0  0  0  0
  1 10  1  0  0  0  0
  1  6  1  0  0  0  0
  2  1  2  0  0  0  0
  3  2  1  0  0  0  0
  3  4  2  0  0  0  0
  4  5  1  0  0  0  0
  5  6  2  0  0  0  0
  5 21  1  0  0  0  0
  7  2  1  0  0  0  0
  8  3  1  0  0  0  0
  9  4  1  0  0  0  0
 10 13  1  0  0  0  0
 11 10  2  0  0  0  0
 12 17  1  0  0  0  0
 13 12  2  0  0  0  0
 13 14  1  0  0  0  0
 14 15  2  0  0  0  0
 15 16  1  0  0  0  0
 16 20  1  0  0  0  0
 17 16  2  0  0  0  0
 18 12  1  0  0  0  0
 19 14  1  0  0  0  0
 21 24  1  0  0  0  0
 22 23  1  0  0  0  0
 23 24  1  0  0  0  0
 24 25  2  0  0  0  0
 25 27  1  0  0  0  0
 25 26  1  0  0  0  0
 27 28  1  0  0  0  0
 29 30  1  0  0  0  0
 29 27  2  0  0  0  0
 31 23  2  0  0  0  0
 31 29  1  0  0  0  0
 32 31  1  0  0  0  0
M  END
>  <minimizedAffinity>
-5.3835392

$$$$

 OpenBabel03262522123D

 32 34  0  0  0  0  0  0  0  0999 V2000
   38.8930   26.0930   34.5660 C   0  0  0  0  0  0  0  0  0  0  0  0
   38.5420   26.6740   35.7690 C   0  0  0  0  0  0  0  0  0  0  0  0
   38.1490   25.8830   36.8270 C   0  0  0  0  0  0  0  0  0  0  0  0
   38.1340   24.5210   36.6020 C   0  0  0  0  0  0  0  0  0  0  0  0
   38.4880   23.9470   35.3980 C   0  0  0  0  0  0  0  0  0  0  0  0
   38.8670   24.7580   34.3850 N   0  0  0  0  0  0  0  0  0  0  0  0
   38.5500   27.7440   35.9540 H   0  0  0  0  0  0  0  0  0  0  0  0
   37.8680   26.3160   37.7810 H   0  0  0  0  0  0  0  0  0  0  0  0
   37.8360   23.8370   37.3880 H   0  0  0  0  0  0  0  0  0  0  0  0
   39.2990   26.9840   33.4870 C   0  0  0  0  0  0  0  0  0  0  0  0
   40.4560   27.4190   33.4240 O   0  0  0  0  0  0  0  0  0  0  0  0
   38.8220   27.4580   31.1140 C   0  0  0  0  0  0  0  0  0  0  0  0
   38.3740   27.4050   32.4390 C   0  0  0  0  0  0  0  0  0  0  0  0
   37.0480   27.7620   32.7000 C   0  0  0  0  0  0  0  0  0  0  0  0
   36.2440   28.1440   31.6730 N   0  0  0  0  0  0  0  0  0  0  0  0
   36.7150   28.1830   30.3980 C   0  0  0  0  0  0  0  0  0  0  0  0
   37.9750   27.8470   30.1270 N   0  0  0  0  0  0  0  0  0  0  0  0
   39.8410   27.1900   30.8680 H   0  0  0  0  0  0  0  0  0  0  0  0
   36.7420   27.7080   33.7310 H   0  0  0  0  0  0  0  0  0  0  0  0
   35.9570   28.5060   29.6970 H   0  0  0  0  0  0  0  0  0  0  0  0
   38.4630   22.1750   35.1240 S   0  0  0  0  0  0  0  0  0  0  0  0
   35.6290   20.7210   34.8540 Cl  0  0  0  0  0  0  0  0  0  0  0  0
   36.5160   21.1820   33.4010 C   0  0  0  0  0  0  0  0  0  0  0  0
   37.7500   21.8150   33.5100 C   0  0  0  0  0  0  0  0  0  0  0  0
   38.4300   22.1680   32.3550 C   0  0  0  0  0  0  0  0  0  0  0  0
   39.4000   22.6660   32.4270 H   0  0  0  0  0  0  0  0  0  0  0  0
   37.9020   21.9010   31.1200 C   0  0  0  0  0  0  0  0  0  0  0  0
   38.4340   22.1770   30.2030 H   0  0  0  0  0  0  0  0  0  0  0  0
   36.6620   21.2650   31.0310 C   0  0  0  0  0  0  0  0  0  0  0  0
   36.2340   21.0490   30.0790 H   0  0  0  0  0  0  0  0  0  0  0  0
   35.9500   20.8950   32.1630 C   0  0  0  0  0  0  0  0  0  0  0  0
   34.3930   20.0960   32.0580 Cl  0  0  0  0  0  0  0  0  0  0  0  0
  1  2  1  0  0  0  0
  2  7  1  0  0  0  0
  2  3  2  0  0  0  0
  3  8  1  0  0  0  0
  4  3  1  0  0  0  0
  4  9  1  0  0  0  0
  5  4  2  0  0  0  0
  6  1  2  0  0  0  0
  6  5  1  0  0  0  0
 10  1  1  0  0  0  0
 11 10  2  0  0  0  0
 12 13  1  0  0  0  0
 13 14  2  0  0  0  0
 13 10  1  0  0  0  0
 14 19  1  0  0  0  0
 15 14  1  0  0  0  0
 16 15  2  0  0  0  0
 17 16  1  0  0  0  0
 17 12  2  0  0  0  0
 18 12  1  0  0  0  0
 20 16  1  0  0  0  0
 21  5  1  0  0  0  0
 23 24  1  0  0  0  0
 23 22  1  0  0  0  0
 24 21  1  0  0  0  0
 25 26  1  0  0  0  0
 25 24  2  0  0  0  0
 27 25  1  0  0  0  0
 28 27  1  0  0  0  0
 29 27  2  0  0  0  0
 29 31  1  0  0  0  0
 30 29  1  0  0  0  0
 31 23  2  0  0  0  0
 32 31  1  0  0  0  0
M  END
>  <minimizedAffinity>
-5.3755064

$$$$
