REMARK  Name = 
REMARK  3 active torsions:
REMARK  status: ('A' for Active; 'I' for Inactive)
REMARK    1  A    between atoms: C_1  and  C_9
REMARK    2  A    between atoms: C_6  and  N_15
REMARK    3  A    between atoms: C_13  and  C_32
REMARK                            x       y       z     vdW  Elec       q    Type
REMARK                         _______ _______ _______ _____ _____    ______ ____
ROOT
ATOM      1  C   UNL     1      38.136  30.569  47.327  0.00  0.00    +0.000 C 
ATOM      2  C   UNL     1      37.511  30.732  46.023  0.00  0.00    +0.000 C 
ATOM      3  C   UNL     1      38.562  30.550  44.969  0.00  0.00    +0.000 C 
ATOM      4  C   UNL     1      39.803  31.256  45.324  0.00  0.00    +0.000 C 
ATOM      5  C   UNL     1      39.700  32.283  46.386  0.00  0.00    +0.000 C 
ATOM      6  C   UNL     1      38.936  31.834  47.626  0.00  0.00    +0.000 C 
ATOM      7  H   UNL     1      38.922  29.758  47.304  0.00  0.00    +0.000 HD
ATOM      8  H   UNL     1      36.658  30.021  45.816  0.00  0.00    +0.000 HD
ATOM      9  H   UNL     1      37.061  31.754  45.885  0.00  0.00    +0.000 HD
ATOM     10  H   UNL     1      38.767  29.441  44.905  0.00  0.00    +0.000 HD
ATOM     11  H   UNL     1      38.183  30.808  43.958  0.00  0.00    +0.000 HD
ATOM     12  H   UNL     1      40.173  31.765  44.410  0.00  0.00    +0.000 HD
ATOM     13  H   UNL     1      40.617  30.526  45.602  0.00  0.00    +0.000 HD
ATOM     14  H   UNL     1      39.171  33.160  45.986  0.00  0.00    +0.000 HD
ATOM     15  H   UNL     1      40.732  32.612  46.655  0.00  0.00    +0.000 HD
ATOM     16  H   UNL     1      39.704  31.565  48.381  0.00  0.00    +0.000 HD
ENDROOT
BRANCH   1  19
ATOM     17  C   UNL     1      36.933  29.631  50.713  0.00  0.00    +0.000 A 
ATOM     18  C   UNL     1      37.815  29.842  49.618  0.00  0.00    +0.000 A 
ATOM     19  C   UNL     1      37.236  30.371  48.472  0.00  0.00    +0.000 A 
ATOM     20  N   UNL     1      35.881  30.664  48.434  0.00  0.00    +0.000 NA
ATOM     21  C   UNL     1      35.092  30.446  49.495  0.00  0.00    +0.000 A 
ATOM     22  N   UNL     1      35.614  29.925  50.648  0.00  0.00    +0.000 NA
ATOM     23  H   UNL     1      37.330  29.216  51.641  0.00  0.00    +0.000 HD
ATOM     24  H   UNL     1      38.865  29.601  49.687  0.00  0.00    +0.000 HD
ATOM     25  H   UNL     1      34.056  30.714  49.340  0.00  0.00    +0.000 HD
ENDBRANCH   1  19
BRANCH   6  28
ATOM     26  C   UNL     1      38.253  33.805  49.266  0.00  0.00    +0.000 C 
ATOM     27  O   UNL     1      39.361  33.613  49.855  0.00  0.00    +0.000 OA
ATOM     28  N   UNL     1      38.150  32.919  48.148  0.00  0.00    +0.000 N 
ATOM     29  H   UNL     1      37.324  33.002  47.476  0.00  0.00    +0.000 HD
BRANCH  26  32
ATOM     30 CL   UNL     1      35.898  32.964  51.021  0.00  0.00    +0.000 Cl
ATOM     31  C   UNL     1      36.004  34.531  50.260  0.00  0.00    +0.000 A 
ATOM     32  C   UNL     1      37.137  34.713  49.515  0.00  0.00    +0.000 A 
ATOM     33  C   UNL     1      37.354  35.925  48.848  0.00  0.00    +0.000 A 
ATOM     34  H   UNL     1      38.190  36.206  48.233  0.00  0.00    +0.000 HD
ATOM     35  C   UNL     1      36.409  36.954  48.942  0.00  0.00    +0.000 A 
ATOM     36  H   UNL     1      36.514  37.913  48.453  0.00  0.00    +0.000 HD
ATOM     37  C   UNL     1      35.268  36.754  49.700  0.00  0.00    +0.000 A 
ATOM     38  H   UNL     1      34.536  37.530  49.783  0.00  0.00    +0.000 HD
ATOM     39  C   UNL     1      35.079  35.550  50.347  0.00  0.00    +0.000 A 
ATOM     40 CL   UNL     1      33.664  35.219  51.324  0.00  0.00    +0.000 Cl
ENDBRANCH  26  32
ENDBRANCH   6  28
TORSDOF 3
