
 OpenBabel03272503133D

 48 52  0  0  0  0  0  0  0  0999 V2000
   39.0930   32.1170   42.5340 C   0  0  0  0  0  0  0  0  0  0  0  0
   39.6810   31.4580   43.6030 C   0  0  0  0  0  0  0  0  0  0  0  0
   40.6080   30.4780   43.4480 C   0  0  0  0  0  0  0  0  0  0  0  0
   41.0040   30.1000   42.1620 C   0  0  0  0  0  0  0  0  0  0  0  0
   41.8770   29.2050   41.7100 N   0  0  0  0  0  0  0  0  0  0  0  0
   41.8770   29.2620   40.3920 C   0  0  0  0  0  0  0  0  0  0  0  0
   41.0010   30.1940   40.0110 N   0  0  0  0  0  0  0  0  0  0  0  0
   40.4250   30.7500   41.1070 C   0  0  0  0  0  0  0  0  0  0  0  0
   39.4660   31.7630   41.2190 C   0  0  0  0  0  0  0  0  0  0  0  0
   38.3530   32.8990   42.6390 H   0  0  0  0  0  0  0  0  0  0  0  0
   41.0710   29.9600   44.2640 H   0  0  0  0  0  0  0  0  0  0  0  0
   42.4880   28.5430   42.2750 H   0  0  0  0  0  0  0  0  0  0  0  0
   42.4540   28.6880   39.6610 H   0  0  0  0  0  0  0  0  0  0  0  0
   39.2490   31.8750   44.9170 C   0  0  0  0  0  0  0  0  0  0  0  0
   38.1620   32.5280   45.0430 O   0  0  0  0  0  0  0  0  0  0  0  0
   39.9380   31.6210   46.1280 N   0  0  0  0  0  0  0  0  0  0  0  0
   40.8280   31.1030   46.0830 H   0  0  0  0  0  0  0  0  0  0  0  0
   38.1070   30.1410   47.4880 F   0  0  0  0  0  0  0  0  0  0  0  0
   38.3720   31.3850   47.9700 C   0  0  0  0  0  0  0  0  0  0  0  0
   37.7270   31.8280   49.0840 C   0  0  0  0  0  0  0  0  0  0  0  0
   38.0410   33.0880   49.5180 C   0  0  0  0  0  0  0  0  0  0  0  0
   38.9500   33.8800   48.8820 C   0  0  0  0  0  0  0  0  0  0  0  0
   39.5920   33.4040   47.7500 C   0  0  0  0  0  0  0  0  0  0  0  0
   39.2900   32.1320   47.2940 C   0  0  0  0  0  0  0  0  0  0  0  0
   37.5370   33.4670   50.4090 H   0  0  0  0  0  0  0  0  0  0  0  0
   39.1930   34.8750   49.2290 H   0  0  0  0  0  0  0  0  0  0  0  0
   40.3160   34.0210   47.2350 H   0  0  0  0  0  0  0  0  0  0  0  0
   36.0950   29.3720   51.4590 C   0  0  0  0  0  0  0  0  0  0  0  0
   37.0580   30.2230   50.8620 C   0  0  0  0  0  0  0  0  0  0  0  0
   36.7600   30.9410   49.7280 C   0  0  0  0  0  0  0  0  0  0  0  0
   35.4910   30.7870   49.2130 N   0  0  0  0  0  0  0  0  0  0  0  0
   34.5820   29.9810   49.7800 C   0  0  0  0  0  0  0  0  0  0  0  0
   34.8800   29.2910   50.8770 N   0  0  0  0  0  0  0  0  0  0  0  0
   36.3360   28.8100   52.3520 H   0  0  0  0  0  0  0  0  0  0  0  0
   38.0500   30.3180   51.2980 H   0  0  0  0  0  0  0  0  0  0  0  0
   33.6430   29.9860   49.2380 H   0  0  0  0  0  0  0  0  0  0  0  0
   38.8930   32.4100   40.1800 O   0  0  0  0  0  0  0  0  0  0  0  0
   37.5740   34.7790   38.3640 Cl  0  0  0  0  0  0  0  0  0  0  0  0
   36.9380   33.1930   38.6810 C   0  0  0  0  0  0  0  0  0  0  0  0
   37.7840   32.4950   39.4940 C   0  0  0  0  0  0  0  0  0  0  0  0
   37.2290   31.2090   39.7600 C   0  0  0  0  0  0  0  0  0  0  0  0
   37.5690   30.3330   40.3600 H   0  0  0  0  0  0  0  0  0  0  0  0
   36.0120   30.7380   39.2650 C   0  0  0  0  0  0  0  0  0  0  0  0
   35.4760   29.7900   39.3880 H   0  0  0  0  0  0  0  0  0  0  0  0
   35.2600   31.5710   38.4440 C   0  0  0  0  0  0  0  0  0  0  0  0
   34.3080   31.3460   37.9910 H   0  0  0  0  0  0  0  0  0  0  0  0
   35.7350   32.8100   38.1550 C   0  0  0  0  0  0  0  0  0  0  0  0
   34.9110   33.9560   37.1490 Cl  0  0  0  0  0  0  0  0  0  0  0  0
  1 10  1  0  0  0  0
  1  2  1  0  0  0  0
  2 14  1  0  0  0  0
  3  2  2  0  0  0  0
  3 11  1  0  0  0  0
  4  3  1  0  0  0  0
  5  4  1  0  0  0  0
  5 12  1  0  0  0  0
  6  5  1  0  0  0  0
  7  6  2  0  0  0  0
  7  8  1  0  0  0  0
  8  9  1  0  0  0  0
  8  4  2  0  0  0  0
  9  1  2  0  0  0  0
 13  6  1  0  0  0  0
 14 15  2  0  0  0  0
 14 16  1  0  0  0  0
 16 24  1  0  0  0  0
 17 16  1  0  0  0  0
 18 19  1  0  0  0  0
 19 20  1  0  0  0  0
 20 21  2  0  0  0  0
 20 30  1  0  0  0  0
 21 25  1  0  0  0  0
 22 26  1  0  0  0  0
 22 21  1  0  0  0  0
 23 22  2  0  0  0  0
 24 23  1  0  0  0  0
 24 19  2  0  0  0  0
 27 23  1  0  0  0  0
 28 34  1  0  0  0  0
 29 35  1  0  0  0  0
 29 28  2  0  0  0  0
 30 29  1  0  0  0  0
 31 30  2  0  0  0  0
 31 32  1  0  0  0  0
 32 33  2  0  0  0  0
 33 28  1  0  0  0  0
 36 32  1  0  0  0  0
 37  9  1  0  0  0  0
 38 39  1  0  0  0  0
 39 40  1  0  0  0  0
 40 41  2  0  0  0  0
 40 37  1  0  0  0  0
 41 42  1  0  0  0  0
 43 44  1  0  0  0  0
 43 41  1  0  0  0  0
 45 43  2  0  0  0  0
 46 45  1  0  0  0  0
 47 45  1  0  0  0  0
 47 39  2  0  0  0  0
 48 47  1  0  0  0  0
M  END
>  <minimizedAffinity>
-7.15741968

>  <minimizedRMSD>
0.795669854

$$$$
