
     RDKit          3D

 34 36  0  0  0  0  0  0  0  0999 V2000
   38.4563   30.4448   47.3121 F   0  0  0  0  0  0  0  0  0  0  0  0
   38.7553   31.6737   47.7881 C   0  0  0  0  0  0  0  0  0  0  0  0
   38.2366   32.0812   48.9851 C   0  0  0  0  0  0  0  0  0  0  0  0
   38.5715   33.3353   49.4207 C   0  0  0  0  0  0  0  0  0  0  0  0
   39.3976   34.1799   48.7040 C   0  0  0  0  0  0  0  0  0  0  0  0
   39.9048   33.7442   47.5038 C   0  0  0  0  0  0  0  0  0  0  0  0
   39.5834   32.4761   47.0343 C   0  0  0  0  0  0  0  0  0  0  0  0
   36.9263   29.6001   51.5354 C   0  0  0  0  0  0  0  0  0  0  0  0
   37.7670   30.4846   50.8526 C   0  0  0  0  0  0  0  0  0  0  0  0
   37.3660   31.1524   49.7095 C   0  0  0  0  0  0  0  0  0  0  0  0
   36.1029   30.9002   49.2842 N   0  0  0  0  0  0  0  0  0  0  0  0
   35.2918   30.0478   49.9417 C   0  0  0  0  0  0  0  0  0  0  0  0
   35.6908   29.4140   51.0377 N   0  0  0  0  0  0  0  0  0  0  0  0
   39.1824   32.1613   44.6828 C   0  0  0  0  0  0  0  0  0  0  0  0
   38.0875   32.7276   44.9896 O   0  0  0  0  0  0  0  0  0  0  0  0
   40.0878   31.9796   45.7904 N   0  0  0  0  0  0  0  0  0  0  0  0
   38.1726   33.6738   50.3613 H   0  0  0  0  0  0  0  0  0  0  0  0
   39.6232   35.1596   49.1050 H   0  0  0  0  0  0  0  0  0  0  0  0
   40.5620   34.3931   46.9155 H   0  0  0  0  0  0  0  0  0  0  0  0
   37.3728   29.1386   52.4279 H   0  0  0  0  0  0  0  0  0  0  0  0
   38.7847   30.6985   51.1808 H   0  0  0  0  0  0  0  0  0  0  0  0
   34.2847   29.8487   49.6000 H   0  0  0  0  0  0  0  0  0  0  0  0
   40.9855   31.5249   45.5961 H   0  0  0  0  0  0  0  0  0  0  0  0
   38.7326   34.1225   42.4415 Cl  0  0  0  0  0  0  0  0  0  0  0  0
   39.3826   32.5045   42.2113 C   0  0  0  0  0  0  0  0  0  0  0  0
   39.5331   31.7171   43.3354 C   0  0  0  0  0  0  0  0  0  0  0  0
   40.0443   30.4230   43.2156 C   0  0  0  0  0  0  0  0  0  0  0  0
   40.2034   29.7194   44.0361 H   0  0  0  0  0  0  0  0  0  0  0  0
   40.3869   29.9627   41.9729 C   0  0  0  0  0  0  0  0  0  0  0  0
   40.7943   28.9495   41.8257 H   0  0  0  0  0  0  0  0  0  0  0  0
   40.2248   30.7742   40.8673 C   0  0  0  0  0  0  0  0  0  0  0  0
   40.5069   30.3742   39.9049 H   0  0  0  0  0  0  0  0  0  0  0  0
   39.7208   32.0647   40.9448 C   0  0  0  0  0  0  0  0  0  0  0  0
   39.5190   33.0866   39.5334 Cl  0  0  0  0  0  0  0  0  0  0  0  0
  1  2  1  0
  2  3  2  0
  3  4  1  0
  3 10  1  0
  5  4  2  0
  6  5  1  0
  7  6  2  0
  7  2  1  0
  9  8  2  0
 10  9  1  0
 11 10  2  0
 11 12  1  0
 12 13  2  0
 13  8  1  0
 14 15  2  0
 14 16  1  0
 16  7  1  0
  4 17  1  0
  5 18  1  0
  6 19  1  0
  8 20  1  0
  9 21  1  0
 12 22  1  0
 16 23  1  0
 24 25  1  0
 25 26  2  0
 26 27  1  0
 27 28  1  0
 27 29  2  0
 29 30  1  0
 29 31  1  0
 31 32  1  0
 31 33  2  0
 33 34  1  0
 33 25  1  0
 14 26  1  0
M  ISO  8  17  14  18  14  19  14  20  14  21  14  22  14  28  15  30  15
M  ISO  1  32  15
M  END
>  <DihAtoms>  (1) 
14,13,25,24

>  <DihDeg>  (1) 
62.7428020492641

$$$$
