
 OpenBabel03272503143D

 48 52  0  0  0  0  0  0  0  0999 V2000
   36.4270   28.0800   34.3730 C   0  0  0  0  0  0  0  0  0  0  0  0
   37.4690   27.2750   33.9380 C   0  0  0  0  0  0  0  0  0  0  0  0
   37.9600   27.3200   32.6720 C   0  0  0  0  0  0  0  0  0  0  0  0
   37.4050   28.2110   31.7490 C   0  0  0  0  0  0  0  0  0  0  0  0
   37.6780   28.4810   30.4760 N   0  0  0  0  0  0  0  0  0  0  0  0
   36.8540   29.4290   30.0730 C   0  0  0  0  0  0  0  0  0  0  0  0
   36.0580   29.7580   31.0930 N   0  0  0  0  0  0  0  0  0  0  0  0
   36.3770   29.0040   32.1770 C   0  0  0  0  0  0  0  0  0  0  0  0
   35.8390   28.9910   33.4680 C   0  0  0  0  0  0  0  0  0  0  0  0
   36.0230   28.0560   35.3760 H   0  0  0  0  0  0  0  0  0  0  0  0
   38.7650   26.7050   32.3220 H   0  0  0  0  0  0  0  0  0  0  0  0
   38.4200   28.0380   29.8570 H   0  0  0  0  0  0  0  0  0  0  0  0
   36.7640   29.9190   29.0990 H   0  0  0  0  0  0  0  0  0  0  0  0
   38.0190   26.3670   34.9190 C   0  0  0  0  0  0  0  0  0  0  0  0
   38.7660   26.8230   35.8460 O   0  0  0  0  0  0  0  0  0  0  0  0
   37.8050   24.9690   34.9570 N   0  0  0  0  0  0  0  0  0  0  0  0
   37.2140   24.5460   34.2250 H   0  0  0  0  0  0  0  0  0  0  0  0
   40.2680   23.8560   34.6550 F   0  0  0  0  0  0  0  0  0  0  0  0
   39.6890   23.7440   35.8810 C   0  0  0  0  0  0  0  0  0  0  0  0
   40.3470   23.0970   36.8820 C   0  0  0  0  0  0  0  0  0  0  0  0
   39.7100   23.0210   38.0910 C   0  0  0  0  0  0  0  0  0  0  0  0
   38.4760   23.5580   38.3070 C   0  0  0  0  0  0  0  0  0  0  0  0
   37.8280   24.2120   37.2710 C   0  0  0  0  0  0  0  0  0  0  0  0
   38.4550   24.3010   36.0400 C   0  0  0  0  0  0  0  0  0  0  0  0
   40.2170   22.5060   38.9090 H   0  0  0  0  0  0  0  0  0  0  0  0
   37.9770   23.4950   39.2640 H   0  0  0  0  0  0  0  0  0  0  0  0
   36.8490   24.6440   37.4280 H   0  0  0  0  0  0  0  0  0  0  0  0
   44.0500   22.7430   36.1740 C   0  0  0  0  0  0  0  0  0  0  0  0
   42.7860   23.3220   36.4490 C   0  0  0  0  0  0  0  0  0  0  0  0
   41.6670   22.5360   36.5980 C   0  0  0  0  0  0  0  0  0  0  0  0
   41.8430   21.1760   36.4650 N   0  0  0  0  0  0  0  0  0  0  0  0
   43.0400   20.6320   36.2040 C   0  0  0  0  0  0  0  0  0  0  0  0
   44.1170   21.4000   36.0620 N   0  0  0  0  0  0  0  0  0  0  0  0
   44.9260   23.3670   36.0580 H   0  0  0  0  0  0  0  0  0  0  0  0
   42.6870   24.4000   36.5470 H   0  0  0  0  0  0  0  0  0  0  0  0
   42.9860   19.5510   36.1340 H   0  0  0  0  0  0  0  0  0  0  0  0
   34.8250   29.7750   33.8970 O   0  0  0  0  0  0  0  0  0  0  0  0
   36.1370   32.3500   35.4160 Cl  0  0  0  0  0  0  0  0  0  0  0  0
   34.6280   31.5550   35.7610 C   0  0  0  0  0  0  0  0  0  0  0  0
   34.4350   30.5110   34.9040 C   0  0  0  0  0  0  0  0  0  0  0  0
   33.2060   29.8610   35.2220 C   0  0  0  0  0  0  0  0  0  0  0  0
   32.6660   28.9840   34.7960 H   0  0  0  0  0  0  0  0  0  0  0  0
   32.3390   30.2360   36.2490 C   0  0  0  0  0  0  0  0  0  0  0  0
   31.3810   29.8330   36.5960 H   0  0  0  0  0  0  0  0  0  0  0  0
   32.6760   31.3290   37.0400 C   0  0  0  0  0  0  0  0  0  0  0  0
   32.1080   31.7320   37.8630 H   0  0  0  0  0  0  0  0  0  0  0  0
   33.8350   31.9900   36.7870 C   0  0  0  0  0  0  0  0  0  0  0  0
   34.3860   33.3650   37.6860 Cl  0  0  0  0  0  0  0  0  0  0  0  0
  1 10  1  0  0  0  0
  2  1  1  0  0  0  0
  2 14  1  0  0  0  0
  3  2  2  0  0  0  0
  4  8  2  0  0  0  0
  4  3  1  0  0  0  0
  5  4  1  0  0  0  0
  6  5  1  0  0  0  0
  6  7  2  0  0  0  0
  7  8  1  0  0  0  0
  8  9  1  0  0  0  0
  9 37  1  0  0  0  0
  9  1  2  0  0  0  0
 11  3  1  0  0  0  0
 12  5  1  0  0  0  0
 13  6  1  0  0  0  0
 14 16  1  0  0  0  0
 14 15  2  0  0  0  0
 16 24  1  0  0  0  0
 17 16  1  0  0  0  0
 18 19  1  0  0  0  0
 19 24  2  0  0  0  0
 19 20  1  0  0  0  0
 20 21  2  0  0  0  0
 21 22  1  0  0  0  0
 21 25  1  0  0  0  0
 22 26  1  0  0  0  0
 23 27  1  0  0  0  0
 23 22  2  0  0  0  0
 24 23  1  0  0  0  0
 28 29  1  0  0  0  0
 29 35  1  0  0  0  0
 29 30  2  0  0  0  0
 30 20  1  0  0  0  0
 31 30  1  0  0  0  0
 32 31  2  0  0  0  0
 33 28  2  0  0  0  0
 33 32  1  0  0  0  0
 34 28  1  0  0  0  0
 36 32  1  0  0  0  0
 37 40  1  0  0  0  0
 38 39  1  0  0  0  0
 39 47  1  0  0  0  0
 40 41  1  0  0  0  0
 40 39  2  0  0  0  0
 41 43  2  0  0  0  0
 42 41  1  0  0  0  0
 43 44  1  0  0  0  0
 43 45  1  0  0  0  0
 45 46  1  0  0  0  0
 47 45  2  0  0  0  0
 47 48  1  0  0  0  0
M  END
>  <minimizedAffinity>
-7.76841354

$$$$

 OpenBabel03272503143D

 48 52  0  0  0  0  0  0  0  0999 V2000
   37.6160   24.1450   33.0150 C   0  0  0  0  0  0  0  0  0  0  0  0
   36.6540   24.5660   32.1090 C   0  0  0  0  0  0  0  0  0  0  0  0
   35.9950   23.7140   31.2820 C   0  0  0  0  0  0  0  0  0  0  0  0
   36.2830   22.3460   31.3270 C   0  0  0  0  0  0  0  0  0  0  0  0
   35.8040   21.2980   30.6640 N   0  0  0  0  0  0  0  0  0  0  0  0
   36.4180   20.2180   31.1080 C   0  0  0  0  0  0  0  0  0  0  0  0
   37.2880   20.5850   32.0520 N   0  0  0  0  0  0  0  0  0  0  0  0
   37.2320   21.9320   32.2200 C   0  0  0  0  0  0  0  0  0  0  0  0
   37.9360   22.7720   33.0900 C   0  0  0  0  0  0  0  0  0  0  0  0
   38.1500   24.8090   33.6810 H   0  0  0  0  0  0  0  0  0  0  0  0
   35.2490   24.0230   30.5770 H   0  0  0  0  0  0  0  0  0  0  0  0
   35.0590   21.2870   29.9070 H   0  0  0  0  0  0  0  0  0  0  0  0
   36.3030   19.1700   30.8150 H   0  0  0  0  0  0  0  0  0  0  0  0
   36.3800   25.9840   32.0900 C   0  0  0  0  0  0  0  0  0  0  0  0
   35.2720   26.4030   31.6210 O   0  0  0  0  0  0  0  0  0  0  0  0
   37.2520   26.9960   32.5580 N   0  0  0  0  0  0  0  0  0  0  0  0
   38.1660   26.7130   32.9410 H   0  0  0  0  0  0  0  0  0  0  0  0
   36.0350   28.2340   34.6510 F   0  0  0  0  0  0  0  0  0  0  0  0
   36.1250   28.9370   33.4900 C   0  0  0  0  0  0  0  0  0  0  0  0
   35.6170   30.1980   33.4220 C   0  0  0  0  0  0  0  0  0  0  0  0
   35.7420   30.8510   32.2250 C   0  0  0  0  0  0  0  0  0  0  0  0
   36.3420   30.2860   31.1390 C   0  0  0  0  0  0  0  0  0  0  0  0
   36.8510   29.0000   31.2350 C   0  0  0  0  0  0  0  0  0  0  0  0
   36.7360   28.3230   32.4370 C   0  0  0  0  0  0  0  0  0  0  0  0
   35.3420   31.8630   32.1460 H   0  0  0  0  0  0  0  0  0  0  0  0
   36.4370   30.8060   30.1960 H   0  0  0  0  0  0  0  0  0  0  0  0
   37.3300   28.5400   30.3820 H   0  0  0  0  0  0  0  0  0  0  0  0
   35.0350   31.9880   36.7070 C   0  0  0  0  0  0  0  0  0  0  0  0
   35.6840   31.4610   35.5640 C   0  0  0  0  0  0  0  0  0  0  0  0
   34.9810   30.7570   34.6150 C   0  0  0  0  0  0  0  0  0  0  0  0
   33.6310   30.5950   34.8370 N   0  0  0  0  0  0  0  0  0  0  0  0
   33.0190   31.0950   35.9200 C   0  0  0  0  0  0  0  0  0  0  0  0
   33.7080   31.7750   36.8330 N   0  0  0  0  0  0  0  0  0  0  0  0
   35.5930   32.5420   37.4500 H   0  0  0  0  0  0  0  0  0  0  0  0
   36.7520   31.6090   35.4230 H   0  0  0  0  0  0  0  0  0  0  0  0
   31.9590   30.8690   35.9260 H   0  0  0  0  0  0  0  0  0  0  0  0
   38.8720   22.3650   33.9760 O   0  0  0  0  0  0  0  0  0  0  0  0
   37.4540   23.6650   36.6120 Cl  0  0  0  0  0  0  0  0  0  0  0  0
   39.0160   22.9070   36.4980 C   0  0  0  0  0  0  0  0  0  0  0  0
   39.2510   22.4950   35.2190 C   0  0  0  0  0  0  0  0  0  0  0  0
   40.5450   21.9010   35.1460 C   0  0  0  0  0  0  0  0  0  0  0  0
   41.1360   21.4410   34.3210 H   0  0  0  0  0  0  0  0  0  0  0  0
   41.4310   21.7630   36.2170 C   0  0  0  0  0  0  0  0  0  0  0  0
   42.4350   21.3350   36.2990 H   0  0  0  0  0  0  0  0  0  0  0  0
   41.0430   22.2350   37.4660 C   0  0  0  0  0  0  0  0  0  0  0  0
   41.6160   22.1970   38.3780 H   0  0  0  0  0  0  0  0  0  0  0  0
   39.8210   22.8120   37.6000 C   0  0  0  0  0  0  0  0  0  0  0  0
   39.2030   23.4440   39.0910 Cl  0  0  0  0  0  0  0  0  0  0  0  0
  1  9  1  0  0  0  0
  1 10  1  0  0  0  0
  2  1  2  0  0  0  0
  3  4  2  0  0  0  0
  3  2  1  0  0  0  0
  4  8  1  0  0  0  0
  5  6  1  0  0  0  0
  5  4  1  0  0  0  0
  6  7  2  0  0  0  0
  7  8  1  0  0  0  0
  8  9  2  0  0  0  0
  9 37  1  0  0  0  0
 11  3  1  0  0  0  0
 12  5  1  0  0  0  0
 13  6  1  0  0  0  0
 14  2  1  0  0  0  0
 14 16  1  0  0  0  0
 15 14  2  0  0  0  0
 16 17  1  0  0  0  0
 19 18  1  0  0  0  0
 20 19  1  0  0  0  0
 20 30  1  0  0  0  0
 21 20  2  0  0  0  0
 22 23  2  0  0  0  0
 22 21  1  0  0  0  0
 23 24  1  0  0  0  0
 24 16  1  0  0  0  0
 24 19  2  0  0  0  0
 25 21  1  0  0  0  0
 26 22  1  0  0  0  0
 27 23  1  0  0  0  0
 28 33  1  0  0  0  0
 28 34  1  0  0  0  0
 29 28  2  0  0  0  0
 30 31  2  0  0  0  0
 30 29  1  0  0  0  0
 31 32  1  0  0  0  0
 32 36  1  0  0  0  0
 32 33  2  0  0  0  0
 35 29  1  0  0  0  0
 37 40  1  0  0  0  0
 39 38  1  0  0  0  0
 39 47  1  0  0  0  0
 40 39  2  0  0  0  0
 41 40  1  0  0  0  0
 41 43  2  0  0  0  0
 42 41  1  0  0  0  0
 43 44  1  0  0  0  0
 43 45  1  0  0  0  0
 45 47  2  0  0  0  0
 45 46  1  0  0  0  0
 47 48  1  0  0  0  0
M  END
>  <minimizedAffinity>
-7.33275938

$$$$

 OpenBabel03272503143D

 48 52  0  0  0  0  0  0  0  0999 V2000
   37.7680   23.7970   32.8170 C   0  0  0  0  0  0  0  0  0  0  0  0
   36.6640   24.2280   32.0970 C   0  0  0  0  0  0  0  0  0  0  0  0
   35.8310   23.3780   31.4420 C   0  0  0  0  0  0  0  0  0  0  0  0
   36.0790   22.0030   31.4800 C   0  0  0  0  0  0  0  0  0  0  0  0
   35.4480   20.9550   30.9590 N   0  0  0  0  0  0  0  0  0  0  0  0
   36.1010   19.8650   31.3150 C   0  0  0  0  0  0  0  0  0  0  0  0
   37.1470   20.2260   32.0620 N   0  0  0  0  0  0  0  0  0  0  0  0
   37.1680   21.5780   32.1900 C   0  0  0  0  0  0  0  0  0  0  0  0
   38.0520   22.4150   32.8790 C   0  0  0  0  0  0  0  0  0  0  0  0
   38.4410   24.4590   33.3450 H   0  0  0  0  0  0  0  0  0  0  0  0
   34.9740   23.6960   30.8810 H   0  0  0  0  0  0  0  0  0  0  0  0
   34.5710   20.9510   30.3580 H   0  0  0  0  0  0  0  0  0  0  0  0
   35.8980   18.8150   31.0870 H   0  0  0  0  0  0  0  0  0  0  0  0
   36.4370   25.6540   32.0800 C   0  0  0  0  0  0  0  0  0  0  0  0
   35.4230   26.1210   31.4650 O   0  0  0  0  0  0  0  0  0  0  0  0
   37.2580   26.6250   32.7010 N   0  0  0  0  0  0  0  0  0  0  0  0
   38.0970   26.3030   33.2070 H   0  0  0  0  0  0  0  0  0  0  0  0
   36.0200   27.9430   34.7320 F   0  0  0  0  0  0  0  0  0  0  0  0
   36.1830   28.6250   33.5660 C   0  0  0  0  0  0  0  0  0  0  0  0
   35.7320   29.9050   33.4640 C   0  0  0  0  0  0  0  0  0  0  0  0
   35.9290   30.5350   32.2650 C   0  0  0  0  0  0  0  0  0  0  0  0
   36.5430   29.9310   31.2090 C   0  0  0  0  0  0  0  0  0  0  0  0
   36.9930   28.6260   31.3390 C   0  0  0  0  0  0  0  0  0  0  0  0
   36.8050   27.9710   32.5440 C   0  0  0  0  0  0  0  0  0  0  0  0
   35.5760   31.5620   32.1580 H   0  0  0  0  0  0  0  0  0  0  0  0
   36.6950   30.4330   30.2640 H   0  0  0  0  0  0  0  0  0  0  0  0
   37.4830   28.1340   30.5110 H   0  0  0  0  0  0  0  0  0  0  0  0
   35.0860   31.8680   36.6370 C   0  0  0  0  0  0  0  0  0  0  0  0
   35.7530   31.3010   35.5230 C   0  0  0  0  0  0  0  0  0  0  0  0
   35.0780   30.5070   34.6250 C   0  0  0  0  0  0  0  0  0  0  0  0
   33.7380   30.2970   34.8690 N   0  0  0  0  0  0  0  0  0  0  0  0
   33.1100   30.8350   35.9250 C   0  0  0  0  0  0  0  0  0  0  0  0
   33.7720   31.6020   36.7870 N   0  0  0  0  0  0  0  0  0  0  0  0
   35.6230   32.4920   37.3390 H   0  0  0  0  0  0  0  0  0  0  0  0
   36.8120   31.4900   35.3640 H   0  0  0  0  0  0  0  0  0  0  0  0
   32.0620   30.5610   35.9540 H   0  0  0  0  0  0  0  0  0  0  0  0
   39.1270   21.9990   33.5840 O   0  0  0  0  0  0  0  0  0  0  0  0
   42.2810   22.8240   33.7420 Cl  0  0  0  0  0  0  0  0  0  0  0  0
   41.1340   22.7160   35.0460 C   0  0  0  0  0  0  0  0  0  0  0  0
   39.9130   22.3320   34.5720 C   0  0  0  0  0  0  0  0  0  0  0  0
   38.9980   22.2270   35.6610 C   0  0  0  0  0  0  0  0  0  0  0  0
   37.9210   21.9490   35.7380 H   0  0  0  0  0  0  0  0  0  0  0  0
   39.3050   22.4780   37.0000 C   0  0  0  0  0  0  0  0  0  0  0  0
   38.7100   22.4360   37.9180 H   0  0  0  0  0  0  0  0  0  0  0  0
   40.6010   22.8640   37.3240 C   0  0  0  0  0  0  0  0  0  0  0  0
   40.9810   23.0900   38.3070 H   0  0  0  0  0  0  0  0  0  0  0  0
   41.5190   22.9820   36.3310 C   0  0  0  0  0  0  0  0  0  0  0  0
   43.1680   23.4530   36.5830 Cl  0  0  0  0  0  0  0  0  0  0  0  0
  1  9  1  0  0  0  0
  1 10  1  0  0  0  0
  2  1  2  0  0  0  0
  3  4  2  0  0  0  0
  3  2  1  0  0  0  0
  4  8  1  0  0  0  0
  5  6  1  0  0  0  0
  5  4  1  0  0  0  0
  6  7  2  0  0  0  0
  7  8  1  0  0  0  0
  8  9  2  0  0  0  0
  9 37  1  0  0  0  0
 11  3  1  0  0  0  0
 12  5  1  0  0  0  0
 13  6  1  0  0  0  0
 14  2  1  0  0  0  0
 14 16  1  0  0  0  0
 15 14  2  0  0  0  0
 16 17  1  0  0  0  0
 19 18  1  0  0  0  0
 20 19  1  0  0  0  0
 20 30  1  0  0  0  0
 21 20  2  0  0  0  0
 22 23  2  0  0  0  0
 22 21  1  0  0  0  0
 23 24  1  0  0  0  0
 24 16  1  0  0  0  0
 24 19  2  0  0  0  0
 25 21  1  0  0  0  0
 26 22  1  0  0  0  0
 27 23  1  0  0  0  0
 28 33  1  0  0  0  0
 28 34  1  0  0  0  0
 29 28  2  0  0  0  0
 30 31  2  0  0  0  0
 30 29  1  0  0  0  0
 31 32  1  0  0  0  0
 32 36  1  0  0  0  0
 32 33  2  0  0  0  0
 35 29  1  0  0  0  0
 37 40  1  0  0  0  0
 38 39  1  0  0  0  0
 39 47  1  0  0  0  0
 40 39  2  0  0  0  0
 40 41  1  0  0  0  0
 41 42  1  0  0  0  0
 41 43  2  0  0  0  0
 43 45  1  0  0  0  0
 43 44  1  0  0  0  0
 45 46  1  0  0  0  0
 47 48  1  0  0  0  0
 47 45  2  0  0  0  0
M  END
>  <minimizedAffinity>
-7.14813471

$$$$

 OpenBabel03272503143D

 48 52  0  0  0  0  0  0  0  0999 V2000
   36.3960   28.5310   32.9060 C   0  0  0  0  0  0  0  0  0  0  0  0
   36.6970   28.1330   31.6120 C   0  0  0  0  0  0  0  0  0  0  0  0
   36.5470   28.9460   30.5350 C   0  0  0  0  0  0  0  0  0  0  0  0
   36.0700   30.2480   30.7140 C   0  0  0  0  0  0  0  0  0  0  0  0
   35.8380   31.2510   29.8720 N   0  0  0  0  0  0  0  0  0  0  0  0
   35.4000   32.2800   30.5720 C   0  0  0  0  0  0  0  0  0  0  0  0
   35.3550   31.9260   31.8590 N   0  0  0  0  0  0  0  0  0  0  0  0
   35.7730   30.6400   31.9900 C   0  0  0  0  0  0  0  0  0  0  0  0
   35.9100   29.8380   33.1270 C   0  0  0  0  0  0  0  0  0  0  0  0
   36.5090   27.8970   33.7750 H   0  0  0  0  0  0  0  0  0  0  0  0
   36.7750   28.6530   29.5290 H   0  0  0  0  0  0  0  0  0  0  0  0
   35.9690   31.2640   28.8180 H   0  0  0  0  0  0  0  0  0  0  0  0
   35.1030   33.2800   30.2450 H   0  0  0  0  0  0  0  0  0  0  0  0
   37.1890   26.7820   31.4640 C   0  0  0  0  0  0  0  0  0  0  0  0
   38.0110   26.3160   32.3190 O   0  0  0  0  0  0  0  0  0  0  0  0
   36.8370   25.8880   30.4250 N   0  0  0  0  0  0  0  0  0  0  0  0
   36.1800   26.2170   29.7000 H   0  0  0  0  0  0  0  0  0  0  0  0
   35.5710   23.7930   31.6090 F   0  0  0  0  0  0  0  0  0  0  0  0
   36.8150   23.5580   31.1120 C   0  0  0  0  0  0  0  0  0  0  0  0
   37.3640   22.3170   31.2250 C   0  0  0  0  0  0  0  0  0  0  0  0
   38.6180   22.1470   30.7020 C   0  0  0  0  0  0  0  0  0  0  0  0
   39.3050   23.1560   30.0960 C   0  0  0  0  0  0  0  0  0  0  0  0
   38.7230   24.4110   29.9950 C   0  0  0  0  0  0  0  0  0  0  0  0
   37.4550   24.6040   30.5160 C   0  0  0  0  0  0  0  0  0  0  0  0
   39.0800   21.1620   30.7810 H   0  0  0  0  0  0  0  0  0  0  0  0
   40.2960   23.0170   29.6860 H   0  0  0  0  0  0  0  0  0  0  0  0
   39.2560   25.2200   29.5160 H   0  0  0  0  0  0  0  0  0  0  0  0
   35.6230   20.2190   33.8520 C   0  0  0  0  0  0  0  0  0  0  0  0
   36.3820   21.2500   33.2450 C   0  0  0  0  0  0  0  0  0  0  0  0
   36.5870   21.2700   31.8860 C   0  0  0  0  0  0  0  0  0  0  0  0
   36.0220   20.2440   31.1590 N   0  0  0  0  0  0  0  0  0  0  0  0
   35.3040   19.2700   31.7360 C   0  0  0  0  0  0  0  0  0  0  0  0
   35.1110   19.2600   33.0520 N   0  0  0  0  0  0  0  0  0  0  0  0
   35.4640   20.2100   34.9220 H   0  0  0  0  0  0  0  0  0  0  0  0
   36.8120   22.0430   33.8530 H   0  0  0  0  0  0  0  0  0  0  0  0
   34.9400   18.5520   31.0100 H   0  0  0  0  0  0  0  0  0  0  0  0
   35.6210   30.2230   34.3900 O   0  0  0  0  0  0  0  0  0  0  0  0
   32.4340   29.5300   34.5200 Cl  0  0  0  0  0  0  0  0  0  0  0  0
   33.3330   30.6340   35.5200 C   0  0  0  0  0  0  0  0  0  0  0  0
   34.6460   30.6490   35.1480 C   0  0  0  0  0  0  0  0  0  0  0  0
   35.3550   31.5780   35.9650 C   0  0  0  0  0  0  0  0  0  0  0  0
   36.4190   31.9070   36.0110 H   0  0  0  0  0  0  0  0  0  0  0  0
   34.7930   32.3500   36.9830 C   0  0  0  0  0  0  0  0  0  0  0  0
   35.2140   33.0880   37.6740 H   0  0  0  0  0  0  0  0  0  0  0  0
   33.4330   32.2210   37.2430 C   0  0  0  0  0  0  0  0  0  0  0  0
   32.8650   32.7460   37.9930 H   0  0  0  0  0  0  0  0  0  0  0  0
   32.7020   31.3510   36.4990 C   0  0  0  0  0  0  0  0  0  0  0  0
   31.0030   31.0840   36.7080 Cl  0  0  0  0  0  0  0  0  0  0  0  0
  1  9  1  0  0  0  0
  1 10  1  0  0  0  0
  2  1  2  0  0  0  0
  3  4  2  0  0  0  0
  3  2  1  0  0  0  0
  4  8  1  0  0  0  0
  5  6  1  0  0  0  0
  5  4  1  0  0  0  0
  6  7  2  0  0  0  0
  7  8  1  0  0  0  0
  8  9  2  0  0  0  0
  9 37  1  0  0  0  0
 11  3  1  0  0  0  0
 12  5  1  0  0  0  0
 13  6  1  0  0  0  0
 14  2  1  0  0  0  0
 14 15  2  0  0  0  0
 16 24  1  0  0  0  0
 16 14  1  0  0  0  0
 17 16  1  0  0  0  0
 19 20  1  0  0  0  0
 19 18  1  0  0  0  0
 20 30  1  0  0  0  0
 21 25  1  0  0  0  0
 21 20  2  0  0  0  0
 22 21  1  0  0  0  0
 23 22  2  0  0  0  0
 23 24  1  0  0  0  0
 24 19  2  0  0  0  0
 26 22  1  0  0  0  0
 27 23  1  0  0  0  0
 28 34  1  0  0  0  0
 29 28  1  0  0  0  0
 29 35  1  0  0  0  0
 30 29  2  0  0  0  0
 31 32  2  0  0  0  0
 31 30  1  0  0  0  0
 32 33  1  0  0  0  0
 33 28  2  0  0  0  0
 36 32  1  0  0  0  0
 37 40  1  0  0  0  0
 38 39  1  0  0  0  0
 39 47  1  0  0  0  0
 40 39  2  0  0  0  0
 40 41  1  0  0  0  0
 41 42  1  0  0  0  0
 41 43  2  0  0  0  0
 43 45  1  0  0  0  0
 43 44  1  0  0  0  0
 45 46  1  0  0  0  0
 47 48  1  0  0  0  0
 47 45  2  0  0  0  0
M  END
>  <minimizedAffinity>
-7.08451843

$$$$

 OpenBabel03272503143D

 48 52  0  0  0  0  0  0  0  0999 V2000
   36.1280   28.3450   34.5460 C   0  0  0  0  0  0  0  0  0  0  0  0
   36.8900   27.5350   33.7170 C   0  0  0  0  0  0  0  0  0  0  0  0
   37.0820   27.8000   32.3990 C   0  0  0  0  0  0  0  0  0  0  0  0
   36.4940   28.9340   31.8300 C   0  0  0  0  0  0  0  0  0  0  0  0
   36.5140   29.4440   30.6020 N   0  0  0  0  0  0  0  0  0  0  0  0
   35.7960   30.5510   30.6080 C   0  0  0  0  0  0  0  0  0  0  0  0
   35.3210   30.7390   31.8410 N   0  0  0  0  0  0  0  0  0  0  0  0
   35.7430   29.7320   32.6480 C   0  0  0  0  0  0  0  0  0  0  0  0
   35.5170   29.4980   34.0080 C   0  0  0  0  0  0  0  0  0  0  0  0
   35.9640   28.1490   35.5970 H   0  0  0  0  0  0  0  0  0  0  0  0
   37.6680   27.1850   31.7450 H   0  0  0  0  0  0  0  0  0  0  0  0
   37.0080   29.0630   29.7430 H   0  0  0  0  0  0  0  0  0  0  0  0
   35.5730   31.2510   29.7970 H   0  0  0  0  0  0  0  0  0  0  0  0
   37.4830   26.3740   34.3380 C   0  0  0  0  0  0  0  0  0  0  0  0
   37.5350   25.2750   33.6940 O   0  0  0  0  0  0  0  0  0  0  0  0
   38.0360   26.3290   35.6400 N   0  0  0  0  0  0  0  0  0  0  0  0
   38.0140   27.1890   36.2090 H   0  0  0  0  0  0  0  0  0  0  0  0
   40.6120   25.6640   35.0770 F   0  0  0  0  0  0  0  0  0  0  0  0
   39.8640   24.7300   35.7240 C   0  0  0  0  0  0  0  0  0  0  0  0
   40.4180   23.5320   36.0550 C   0  0  0  0  0  0  0  0  0  0  0  0
   39.6120   22.6380   36.7070 C   0  0  0  0  0  0  0  0  0  0  0  0
   38.3140   22.9110   37.0190 C   0  0  0  0  0  0  0  0  0  0  0  0
   37.7730   24.1390   36.6700 C   0  0  0  0  0  0  0  0  0  0  0  0
   38.5720   25.0580   36.0110 C   0  0  0  0  0  0  0  0  0  0  0  0
   40.0340   21.6700   36.9830 H   0  0  0  0  0  0  0  0  0  0  0  0
   37.6810   22.2010   37.5340 H   0  0  0  0  0  0  0  0  0  0  0  0
   36.7450   24.3690   36.9120 H   0  0  0  0  0  0  0  0  0  0  0  0
   44.1810   23.1450   36.2240 C   0  0  0  0  0  0  0  0  0  0  0  0
   42.8390   23.3890   36.6080 C   0  0  0  0  0  0  0  0  0  0  0  0
   41.8150   23.2880   35.6960 C   0  0  0  0  0  0  0  0  0  0  0  0
   42.1630   22.9440   34.4080 N   0  0  0  0  0  0  0  0  0  0  0  0
   43.4340   22.7150   34.0480 C   0  0  0  0  0  0  0  0  0  0  0  0
   44.4180   22.8140   34.9370 N   0  0  0  0  0  0  0  0  0  0  0  0
   44.9830   23.2250   36.9450 H   0  0  0  0  0  0  0  0  0  0  0  0
   42.6040   23.6590   37.6350 H   0  0  0  0  0  0  0  0  0  0  0  0
   43.5160   22.4580   32.9980 H   0  0  0  0  0  0  0  0  0  0  0  0
   34.7770   30.2860   34.8210 O   0  0  0  0  0  0  0  0  0  0  0  0
   32.8960   31.5210   37.1840 Cl  0  0  0  0  0  0  0  0  0  0  0  0
   34.3030   32.2350   36.4500 C   0  0  0  0  0  0  0  0  0  0  0  0
   34.8090   31.4060   35.4920 C   0  0  0  0  0  0  0  0  0  0  0  0
   35.9450   32.0230   34.8890 C   0  0  0  0  0  0  0  0  0  0  0  0
   36.6500   31.7160   34.0820 H   0  0  0  0  0  0  0  0  0  0  0  0
   36.4560   33.2770   35.2270 C   0  0  0  0  0  0  0  0  0  0  0  0
   37.3050   33.8580   34.8520 H   0  0  0  0  0  0  0  0  0  0  0  0
   35.8260   34.0040   36.2310 C   0  0  0  0  0  0  0  0  0  0  0  0
   36.1060   34.9780   36.5980 H   0  0  0  0  0  0  0  0  0  0  0  0
   34.7380   33.4700   36.8440 C   0  0  0  0  0  0  0  0  0  0  0  0
   33.8510   34.2570   38.1090 Cl  0  0  0  0  0  0  0  0  0  0  0  0
  1 10  1  0  0  0  0
  2 14  1  0  0  0  0
  2  1  2  0  0  0  0
  3  2  1  0  0  0  0
  4  3  2  0  0  0  0
  4  8  1  0  0  0  0
  5  6  1  0  0  0  0
  5  4  1  0  0  0  0
  6  7  2  0  0  0  0
  7  8  1  0  0  0  0
  8  9  2  0  0  0  0
  9  1  1  0  0  0  0
  9 37  1  0  0  0  0
 11  3  1  0  0  0  0
 12  5  1  0  0  0  0
 13  6  1  0  0  0  0
 14 16  1  0  0  0  0
 15 14  2  0  0  0  0
 16 24  1  0  0  0  0
 16 17  1  0  0  0  0
 18 19  1  0  0  0  0
 19 24  2  0  0  0  0
 19 20  1  0  0  0  0
 20 21  2  0  0  0  0
 21 25  1  0  0  0  0
 21 22  1  0  0  0  0
 22 26  1  0  0  0  0
 23 27  1  0  0  0  0
 23 22  2  0  0  0  0
 24 23  1  0  0  0  0
 28 29  1  0  0  0  0
 28 34  1  0  0  0  0
 29 35  1  0  0  0  0
 30 20  1  0  0  0  0
 30 29  2  0  0  0  0
 31 30  1  0  0  0  0
 32 31  2  0  0  0  0
 32 33  1  0  0  0  0
 33 28  2  0  0  0  0
 36 32  1  0  0  0  0
 37 40  1  0  0  0  0
 39 47  1  0  0  0  0
 39 38  1  0  0  0  0
 40 39  2  0  0  0  0
 41 43  2  0  0  0  0
 41 40  1  0  0  0  0
 42 41  1  0  0  0  0
 43 45  1  0  0  0  0
 44 43  1  0  0  0  0
 45 46  1  0  0  0  0
 45 47  2  0  0  0  0
 47 48  1  0  0  0  0
M  END
>  <minimizedAffinity>
-6.91933346

$$$$

 OpenBabel03272503143D

 48 52  0  0  0  0  0  0  0  0999 V2000
   36.2050   29.0000   32.2810 C   0  0  0  0  0  0  0  0  0  0  0  0
   36.9080   28.1560   31.4340 C   0  0  0  0  0  0  0  0  0  0  0  0
   37.3470   28.5380   30.2070 C   0  0  0  0  0  0  0  0  0  0  0  0
   37.0900   29.8360   29.7560 C   0  0  0  0  0  0  0  0  0  0  0  0
   37.3980   30.4820   28.6350 N   0  0  0  0  0  0  0  0  0  0  0  0
   36.9220   31.7090   28.7260 C   0  0  0  0  0  0  0  0  0  0  0  0
   36.3120   31.8380   29.9060 N   0  0  0  0  0  0  0  0  0  0  0  0
   36.3970   30.6680   30.5910 C   0  0  0  0  0  0  0  0  0  0  0  0
   35.9250   30.3180   31.8600 C   0  0  0  0  0  0  0  0  0  0  0  0
   35.8470   28.7130   33.2610 H   0  0  0  0  0  0  0  0  0  0  0  0
   37.8920   27.8980   29.5420 H   0  0  0  0  0  0  0  0  0  0  0  0
   37.9320   30.1140   27.7930 H   0  0  0  0  0  0  0  0  0  0  0  0
   36.9690   32.5390   28.0140 H   0  0  0  0  0  0  0  0  0  0  0  0
   37.1570   26.8230   31.9330 C   0  0  0  0  0  0  0  0  0  0  0  0
   36.2020   26.1610   32.4570 O   0  0  0  0  0  0  0  0  0  0  0  0
   38.4020   26.1510   31.8980 N   0  0  0  0  0  0  0  0  0  0  0  0
   39.2110   26.6450   31.4920 H   0  0  0  0  0  0  0  0  0  0  0  0
   38.7360   25.7250   34.5640 F   0  0  0  0  0  0  0  0  0  0  0  0
   38.5470   24.6260   33.7840 C   0  0  0  0  0  0  0  0  0  0  0  0
   38.5330   23.3900   34.3530 C   0  0  0  0  0  0  0  0  0  0  0  0
   38.3370   22.3260   33.5140 C   0  0  0  0  0  0  0  0  0  0  0  0
   38.1630   22.4730   32.1700 C   0  0  0  0  0  0  0  0  0  0  0  0
   38.1810   23.7430   31.6160 C   0  0  0  0  0  0  0  0  0  0  0  0
   38.3770   24.8320   32.4470 C   0  0  0  0  0  0  0  0  0  0  0  0
   38.3220   21.3240   33.9460 H   0  0  0  0  0  0  0  0  0  0  0  0
   38.0080   21.6290   31.5120 H   0  0  0  0  0  0  0  0  0  0  0  0
   38.0430   23.8740   30.5520 H   0  0  0  0  0  0  0  0  0  0  0  0
   40.0600   22.7660   37.7620 C   0  0  0  0  0  0  0  0  0  0  0  0
   39.9080   22.8530   36.3560 C   0  0  0  0  0  0  0  0  0  0  0  0
   38.7270   23.2870   35.7990 C   0  0  0  0  0  0  0  0  0  0  0  0
   37.7170   23.6240   36.6730 N   0  0  0  0  0  0  0  0  0  0  0  0
   37.8640   23.5400   38.0030 C   0  0  0  0  0  0  0  0  0  0  0  0
   39.0100   23.1210   38.5320 N   0  0  0  0  0  0  0  0  0  0  0  0
   40.9910   22.4250   38.1940 H   0  0  0  0  0  0  0  0  0  0  0  0
   40.7290   22.5780   35.6980 H   0  0  0  0  0  0  0  0  0  0  0  0
   36.9660   23.8460   38.5290 H   0  0  0  0  0  0  0  0  0  0  0  0
   35.2410   31.1380   32.6890 O   0  0  0  0  0  0  0  0  0  0  0  0
   32.6400   30.0890   34.3590 Cl  0  0  0  0  0  0  0  0  0  0  0  0
   33.9760   31.0390   34.9410 C   0  0  0  0  0  0  0  0  0  0  0  0
   34.8630   31.2780   33.9320 C   0  0  0  0  0  0  0  0  0  0  0  0
   35.9350   32.0790   34.4270 C   0  0  0  0  0  0  0  0  0  0  0  0
   36.8550   32.5040   33.9640 H   0  0  0  0  0  0  0  0  0  0  0  0
   36.0550   32.5430   35.7370 C   0  0  0  0  0  0  0  0  0  0  0  0
   36.8110   33.1540   36.2420 H   0  0  0  0  0  0  0  0  0  0  0  0
   35.0640   32.2120   36.6550 C   0  0  0  0  0  0  0  0  0  0  0  0
   35.0240   32.4960   37.6940 H   0  0  0  0  0  0  0  0  0  0  0  0
   34.0170   31.4510   36.2440 C   0  0  0  0  0  0  0  0  0  0  0  0
   32.7100   30.9610   37.2720 Cl  0  0  0  0  0  0  0  0  0  0  0  0
  1 10  1  0  0  0  0
  2 14  1  0  0  0  0
  2  1  2  0  0  0  0
  3  2  1  0  0  0  0
  4  3  2  0  0  0  0
  4  8  1  0  0  0  0
  5  6  1  0  0  0  0
  5  4  1  0  0  0  0
  6  7  2  0  0  0  0
  7  8  1  0  0  0  0
  8  9  2  0  0  0  0
  9  1  1  0  0  0  0
  9 37  1  0  0  0  0
 11  3  1  0  0  0  0
 12  5  1  0  0  0  0
 13  6  1  0  0  0  0
 14 15  2  0  0  0  0
 16 14  1  0  0  0  0
 16 24  1  0  0  0  0
 17 16  1  0  0  0  0
 19 20  1  0  0  0  0
 19 18  1  0  0  0  0
 20 30  1  0  0  0  0
 21 25  1  0  0  0  0
 21 20  2  0  0  0  0
 22 21  1  0  0  0  0
 23 22  2  0  0  0  0
 23 24  1  0  0  0  0
 24 19  2  0  0  0  0
 26 22  1  0  0  0  0
 27 23  1  0  0  0  0
 28 34  1  0  0  0  0
 28 33  1  0  0  0  0
 29 28  2  0  0  0  0
 30 29  1  0  0  0  0
 30 31  2  0  0  0  0
 31 32  1  0  0  0  0
 32 36  1  0  0  0  0
 32 33  2  0  0  0  0
 35 29  1  0  0  0  0
 37 40  1  0  0  0  0
 38 39  1  0  0  0  0
 39 47  1  0  0  0  0
 40 41  1  0  0  0  0
 40 39  2  0  0  0  0
 41 43  2  0  0  0  0
 42 41  1  0  0  0  0
 43 44  1  0  0  0  0
 43 45  1  0  0  0  0
 45 46  1  0  0  0  0
 47 45  2  0  0  0  0
 47 48  1  0  0  0  0
M  END
>  <minimizedAffinity>
-6.87030745

$$$$

 OpenBabel03272503143D

 48 52  0  0  0  0  0  0  0  0999 V2000
   36.3080   27.9720   31.9870 C   0  0  0  0  0  0  0  0  0  0  0  0
   35.7380   29.2310   32.1030 C   0  0  0  0  0  0  0  0  0  0  0  0
   35.9000   30.2060   31.1710 C   0  0  0  0  0  0  0  0  0  0  0  0
   36.6730   29.9500   30.0340 C   0  0  0  0  0  0  0  0  0  0  0  0
   36.9920   30.6860   28.9730 N   0  0  0  0  0  0  0  0  0  0  0  0
   37.7430   29.9500   28.1770 C   0  0  0  0  0  0  0  0  0  0  0  0
   37.9000   28.7490   28.7360 N   0  0  0  0  0  0  0  0  0  0  0  0
   37.2350   28.7090   29.9190 C   0  0  0  0  0  0  0  0  0  0  0  0
   37.0950   27.6770   30.8530 C   0  0  0  0  0  0  0  0  0  0  0  0
   36.1890   27.1850   32.7190 H   0  0  0  0  0  0  0  0  0  0  0  0
   35.4660   31.1830   31.2470 H   0  0  0  0  0  0  0  0  0  0  0  0
   36.7110   31.6890   28.7640 H   0  0  0  0  0  0  0  0  0  0  0  0
   38.2010   30.1960   27.2140 H   0  0  0  0  0  0  0  0  0  0  0  0
   34.9450   29.4600   33.2900 C   0  0  0  0  0  0  0  0  0  0  0  0
   35.4910   29.3650   34.4370 O   0  0  0  0  0  0  0  0  0  0  0  0
   33.5700   29.7930   33.3080 N   0  0  0  0  0  0  0  0  0  0  0  0
   33.0760   29.8750   32.4060 H   0  0  0  0  0  0  0  0  0  0  0  0
   33.6270   32.2220   34.5300 F   0  0  0  0  0  0  0  0  0  0  0  0
   33.0580   31.1980   35.2230 C   0  0  0  0  0  0  0  0  0  0  0  0
   32.5530   31.4240   36.4670 C   0  0  0  0  0  0  0  0  0  0  0  0
   31.9930   30.3530   37.1090 C   0  0  0  0  0  0  0  0  0  0  0  0
   31.9320   29.1110   36.5510 C   0  0  0  0  0  0  0  0  0  0  0  0
   32.4530   28.9080   35.2830 C   0  0  0  0  0  0  0  0  0  0  0  0
   33.0240   29.9780   34.6160 C   0  0  0  0  0  0  0  0  0  0  0  0
   31.5820   30.5080   38.1080 H   0  0  0  0  0  0  0  0  0  0  0  0
   31.4890   28.2680   37.0630 H   0  0  0  0  0  0  0  0  0  0  0  0
   32.4110   27.9280   34.8280 H   0  0  0  0  0  0  0  0  0  0  0  0
   33.8620   34.5890   38.0810 C   0  0  0  0  0  0  0  0  0  0  0  0
   33.8100   33.2750   37.5530 C   0  0  0  0  0  0  0  0  0  0  0  0
   32.6460   32.7740   37.0210 C   0  0  0  0  0  0  0  0  0  0  0  0
   31.5490   33.6090   37.0320 N   0  0  0  0  0  0  0  0  0  0  0  0
   31.6020   34.8520   37.5330 C   0  0  0  0  0  0  0  0  0  0  0  0
   32.7330   35.3280   38.0450 N   0  0  0  0  0  0  0  0  0  0  0  0
   34.7820   34.9780   38.4980 H   0  0  0  0  0  0  0  0  0  0  0  0
   34.6970   32.6450   37.5620 H   0  0  0  0  0  0  0  0  0  0  0  0
   30.6470   35.3580   37.4570 H   0  0  0  0  0  0  0  0  0  0  0  0
   37.6470   26.4480   30.7420 O   0  0  0  0  0  0  0  0  0  0  0  0
   34.8750   24.7420   30.9810 Cl  0  0  0  0  0  0  0  0  0  0  0  0
   36.5090   24.1470   31.0390 C   0  0  0  0  0  0  0  0  0  0  0  0
   37.3940   25.1780   30.9090 C   0  0  0  0  0  0  0  0  0  0  0  0
   38.7240   24.6680   30.9850 C   0  0  0  0  0  0  0  0  0  0  0  0
   39.7330   25.1390   30.9300 H   0  0  0  0  0  0  0  0  0  0  0  0
   39.0650   23.3270   31.1640 C   0  0  0  0  0  0  0  0  0  0  0  0
   40.0260   22.8090   31.2390 H   0  0  0  0  0  0  0  0  0  0  0  0
   38.0430   22.3900   31.2810 C   0  0  0  0  0  0  0  0  0  0  0  0
   38.1530   21.3270   31.4200 H   0  0  0  0  0  0  0  0  0  0  0  0
   36.7540   22.8130   31.2160 C   0  0  0  0  0  0  0  0  0  0  0  0
   35.3800   21.7650   31.3450 Cl  0  0  0  0  0  0  0  0  0  0  0  0
  1  2  1  0  0  0  0
  1 10  1  0  0  0  0
  2 14  1  0  0  0  0
  3 11  1  0  0  0  0
  3  2  2  0  0  0  0
  4  3  1  0  0  0  0
  5  4  1  0  0  0  0
  6  7  2  0  0  0  0
  6  5  1  0  0  0  0
  7  8  1  0  0  0  0
  8  4  2  0  0  0  0
  8  9  1  0  0  0  0
  9  1  2  0  0  0  0
 12  5  1  0  0  0  0
 13  6  1  0  0  0  0
 14 16  1  0  0  0  0
 14 15  2  0  0  0  0
 16 24  1  0  0  0  0
 17 16  1  0  0  0  0
 18 19  1  0  0  0  0
 19 20  1  0  0  0  0
 20 30  1  0  0  0  0
 20 21  2  0  0  0  0
 21 25  1  0  0  0  0
 22 26  1  0  0  0  0
 22 21  1  0  0  0  0
 23 22  2  0  0  0  0
 24 19  2  0  0  0  0
 24 23  1  0  0  0  0
 27 23  1  0  0  0  0
 28 34  1  0  0  0  0
 29 35  1  0  0  0  0
 29 28  2  0  0  0  0
 30 31  2  0  0  0  0
 30 29  1  0  0  0  0
 31 32  1  0  0  0  0
 32 33  2  0  0  0  0
 33 28  1  0  0  0  0
 36 32  1  0  0  0  0
 37  9  1  0  0  0  0
 37 40  1  0  0  0  0
 38 39  1  0  0  0  0
 39 47  1  0  0  0  0
 40 41  1  0  0  0  0
 40 39  2  0  0  0  0
 41 43  2  0  0  0  0
 42 41  1  0  0  0  0
 43 44  1  0  0  0  0
 43 45  1  0  0  0  0
 45 46  1  0  0  0  0
 47 45  2  0  0  0  0
 47 48  1  0  0  0  0
M  END
>  <minimizedAffinity>
-6.85355043

$$$$

 OpenBabel03272503143D

 48 52  0  0  0  0  0  0  0  0999 V2000
   37.0150   27.3610   33.2210 C   0  0  0  0  0  0  0  0  0  0  0  0
   36.5170   28.3600   32.3980 C   0  0  0  0  0  0  0  0  0  0  0  0
   36.9330   28.5370   31.1170 C   0  0  0  0  0  0  0  0  0  0  0  0
   37.9070   27.6880   30.5840 C   0  0  0  0  0  0  0  0  0  0  0  0
   38.4870   27.6130   29.3900 N   0  0  0  0  0  0  0  0  0  0  0  0
   39.3380   26.6060   29.4100 C   0  0  0  0  0  0  0  0  0  0  0  0
   39.2960   26.0430   30.6210 N   0  0  0  0  0  0  0  0  0  0  0  0
   38.3980   26.7030   31.3960 C   0  0  0  0  0  0  0  0  0  0  0  0
   38.0000   26.4840   32.7190 C   0  0  0  0  0  0  0  0  0  0  0  0
   36.6950   27.2050   34.2430 H   0  0  0  0  0  0  0  0  0  0  0  0
   36.5580   29.3040   30.4680 H   0  0  0  0  0  0  0  0  0  0  0  0
   38.3230   28.2330   28.5420 H   0  0  0  0  0  0  0  0  0  0  0  0
   40.0010   26.2260   28.6280 H   0  0  0  0  0  0  0  0  0  0  0  0
   35.5120   29.2180   32.9810 C   0  0  0  0  0  0  0  0  0  0  0  0
   35.0170   30.1660   32.2870 O   0  0  0  0  0  0  0  0  0  0  0  0
   34.9980   29.1090   34.2950 N   0  0  0  0  0  0  0  0  0  0  0  0
   35.3690   28.3630   34.9030 H   0  0  0  0  0  0  0  0  0  0  0  0
   35.6350   31.4090   35.5990 F   0  0  0  0  0  0  0  0  0  0  0  0
   34.3250   31.2270   35.2770 C   0  0  0  0  0  0  0  0  0  0  0  0
   33.4100   32.1770   35.6110 C   0  0  0  0  0  0  0  0  0  0  0  0
   32.1100   31.9330   35.2560 C   0  0  0  0  0  0  0  0  0  0  0  0
   31.7260   30.8020   34.6020 C   0  0  0  0  0  0  0  0  0  0  0  0
   32.6790   29.8490   34.2730 C   0  0  0  0  0  0  0  0  0  0  0  0
   33.9990   30.0770   34.6220 C   0  0  0  0  0  0  0  0  0  0  0  0
   31.3570   32.6800   35.5140 H   0  0  0  0  0  0  0  0  0  0  0  0
   30.6980   30.6140   34.3250 H   0  0  0  0  0  0  0  0  0  0  0  0
   32.3890   28.9470   33.7530 H   0  0  0  0  0  0  0  0  0  0  0  0
   34.0890   34.7540   38.3000 C   0  0  0  0  0  0  0  0  0  0  0  0
   33.6250   33.5840   37.6510 C   0  0  0  0  0  0  0  0  0  0  0  0
   33.8720   33.3720   36.3150 C   0  0  0  0  0  0  0  0  0  0  0  0
   34.5840   34.3500   35.6540 N   0  0  0  0  0  0  0  0  0  0  0  0
   35.0220   35.4570   36.2720 C   0  0  0  0  0  0  0  0  0  0  0  0
   34.7780   35.6520   37.5640 N   0  0  0  0  0  0  0  0  0  0  0  0
   33.8920   34.9150   39.3520 H   0  0  0  0  0  0  0  0  0  0  0  0
   33.0660   32.8340   38.2060 H   0  0  0  0  0  0  0  0  0  0  0  0
   35.5610   36.1100   35.5950 H   0  0  0  0  0  0  0  0  0  0  0  0
   38.4810   25.5110   33.5240 O   0  0  0  0  0  0  0  0  0  0  0  0
   38.3660   26.7860   36.5270 Cl  0  0  0  0  0  0  0  0  0  0  0  0
   38.2460   25.1120   36.0670 C   0  0  0  0  0  0  0  0  0  0  0  0
   38.3450   24.9840   34.7120 C   0  0  0  0  0  0  0  0  0  0  0  0
   38.2700   23.6030   34.3630 C   0  0  0  0  0  0  0  0  0  0  0  0
   38.3070   23.0510   33.3960 H   0  0  0  0  0  0  0  0  0  0  0  0
   38.1170   22.5510   35.2670 C   0  0  0  0  0  0  0  0  0  0  0  0
   38.0450   21.4660   35.1370 H   0  0  0  0  0  0  0  0  0  0  0  0
   38.0280   22.8450   36.6230 C   0  0  0  0  0  0  0  0  0  0  0  0
   37.9080   22.1420   37.4310 H   0  0  0  0  0  0  0  0  0  0  0  0
   38.0940   24.1420   37.0190 C   0  0  0  0  0  0  0  0  0  0  0  0
   37.9990   24.6600   38.6700 Cl  0  0  0  0  0  0  0  0  0  0  0  0
  1 10  1  0  0  0  0
  2 14  1  0  0  0  0
  2  1  2  0  0  0  0
  3  2  1  0  0  0  0
  4  3  2  0  0  0  0
  4  8  1  0  0  0  0
  5  6  1  0  0  0  0
  5  4  1  0  0  0  0
  6  7  2  0  0  0  0
  7  8  1  0  0  0  0
  8  9  2  0  0  0  0
  9  1  1  0  0  0  0
  9 37  1  0  0  0  0
 11  3  1  0  0  0  0
 12  5  1  0  0  0  0
 13  6  1  0  0  0  0
 14 16  1  0  0  0  0
 15 14  2  0  0  0  0
 16 24  1  0  0  0  0
 16 17  1  0  0  0  0
 19 18  1  0  0  0  0
 19 20  1  0  0  0  0
 20 30  1  0  0  0  0
 21 25  1  0  0  0  0
 21 20  2  0  0  0  0
 22 21  1  0  0  0  0
 23 22  2  0  0  0  0
 23 24  1  0  0  0  0
 24 19  2  0  0  0  0
 26 22  1  0  0  0  0
 27 23  1  0  0  0  0
 28 34  1  0  0  0  0
 29 35  1  0  0  0  0
 29 28  1  0  0  0  0
 30 29  2  0  0  0  0
 31 32  2  0  0  0  0
 31 30  1  0  0  0  0
 32 33  1  0  0  0  0
 33 28  2  0  0  0  0
 36 32  1  0  0  0  0
 37 40  1  0  0  0  0
 39 38  1  0  0  0  0
 39 47  1  0  0  0  0
 40 39  2  0  0  0  0
 41 40  1  0  0  0  0
 41 43  2  0  0  0  0
 42 41  1  0  0  0  0
 43 45  1  0  0  0  0
 44 43  1  0  0  0  0
 45 47  2  0  0  0  0
 45 46  1  0  0  0  0
 47 48  1  0  0  0  0
M  END
>  <minimizedAffinity>
-6.84057045

$$$$

 OpenBabel03272503143D

 48 52  0  0  0  0  0  0  0  0999 V2000
   37.5370   24.4390   32.9240 C   0  0  0  0  0  0  0  0  0  0  0  0
   36.5200   24.7560   32.0360 C   0  0  0  0  0  0  0  0  0  0  0  0
   35.7880   23.8160   31.3840 C   0  0  0  0  0  0  0  0  0  0  0  0
   36.0550   22.4610   31.6020 C   0  0  0  0  0  0  0  0  0  0  0  0
   35.5110   21.3440   31.1270 N   0  0  0  0  0  0  0  0  0  0  0  0
   36.1370   20.3190   31.6750 C   0  0  0  0  0  0  0  0  0  0  0  0
   37.0780   20.7910   32.4960 N   0  0  0  0  0  0  0  0  0  0  0  0
   37.0580   22.1480   32.4770 C   0  0  0  0  0  0  0  0  0  0  0  0
   37.8370   23.0820   33.1690 C   0  0  0  0  0  0  0  0  0  0  0  0
   38.1290   25.1740   33.4520 H   0  0  0  0  0  0  0  0  0  0  0  0
   34.9990   24.0440   30.6950 H   0  0  0  0  0  0  0  0  0  0  0  0
   34.7140   21.2480   30.4320 H   0  0  0  0  0  0  0  0  0  0  0  0
   35.9830   19.2450   31.5410 H   0  0  0  0  0  0  0  0  0  0  0  0
   36.2700   26.1650   31.8370 C   0  0  0  0  0  0  0  0  0  0  0  0
   35.4110   26.5330   30.9700 O   0  0  0  0  0  0  0  0  0  0  0  0
   36.9070   27.2200   32.5330 N   0  0  0  0  0  0  0  0  0  0  0  0
   37.6180   26.9780   33.2400 H   0  0  0  0  0  0  0  0  0  0  0  0
   38.0850   28.5640   30.4830 F   0  0  0  0  0  0  0  0  0  0  0  0
   37.0660   29.1950   31.1260 C   0  0  0  0  0  0  0  0  0  0  0  0
   36.6860   30.4410   30.7310 C   0  0  0  0  0  0  0  0  0  0  0  0
   35.6530   31.0190   31.4190 C   0  0  0  0  0  0  0  0  0  0  0  0
   35.0220   30.3980   32.4550 C   0  0  0  0  0  0  0  0  0  0  0  0
   35.4280   29.1300   32.8380 C   0  0  0  0  0  0  0  0  0  0  0  0
   36.4700   28.5260   32.1540 C   0  0  0  0  0  0  0  0  0  0  0  0
   35.3310   32.0180   31.1210 H   0  0  0  0  0  0  0  0  0  0  0  0
   34.2070   30.8600   32.9950 H   0  0  0  0  0  0  0  0  0  0  0  0
   34.9350   28.6250   33.6570 H   0  0  0  0  0  0  0  0  0  0  0  0
   38.8130   32.7910   28.6600 C   0  0  0  0  0  0  0  0  0  0  0  0
   38.1360   32.2150   29.7630 C   0  0  0  0  0  0  0  0  0  0  0  0
   37.3980   31.0640   29.6160 C   0  0  0  0  0  0  0  0  0  0  0  0
   37.3550   30.5130   28.3530 N   0  0  0  0  0  0  0  0  0  0  0  0
   37.9960   31.0600   27.3120 C   0  0  0  0  0  0  0  0  0  0  0  0
   38.7080   32.1740   27.4640 N   0  0  0  0  0  0  0  0  0  0  0  0
   39.3930   33.6960   28.7810 H   0  0  0  0  0  0  0  0  0  0  0  0
   38.1940   32.6800   30.7440 H   0  0  0  0  0  0  0  0  0  0  0  0
   37.8480   30.4910   26.4010 H   0  0  0  0  0  0  0  0  0  0  0  0
   38.8270   22.7770   34.0370 O   0  0  0  0  0  0  0  0  0  0  0  0
   37.4530   24.1940   36.6360 Cl  0  0  0  0  0  0  0  0  0  0  0  0
   38.9020   23.2340   36.5800 C   0  0  0  0  0  0  0  0  0  0  0  0
   39.1500   22.8240   35.3020 C   0  0  0  0  0  0  0  0  0  0  0  0
   40.3560   22.0620   35.2780 C   0  0  0  0  0  0  0  0  0  0  0  0
   40.9240   21.5460   34.4700 H   0  0  0  0  0  0  0  0  0  0  0  0
   41.1540   21.7790   36.3870 C   0  0  0  0  0  0  0  0  0  0  0  0
   42.0850   21.2170   36.5080 H   0  0  0  0  0  0  0  0  0  0  0  0
   40.7640   22.2700   37.6290 C   0  0  0  0  0  0  0  0  0  0  0  0
   41.2750   22.1320   38.5680 H   0  0  0  0  0  0  0  0  0  0  0  0
   39.6250   23.0040   37.7180 C   0  0  0  0  0  0  0  0  0  0  0  0
   39.0160   23.6780   39.1940 Cl  0  0  0  0  0  0  0  0  0  0  0  0
  1  9  1  0  0  0  0
  1 10  1  0  0  0  0
  2  1  2  0  0  0  0
  3  4  2  0  0  0  0
  3  2  1  0  0  0  0
  4  8  1  0  0  0  0
  5  4  1  0  0  0  0
  5  6  1  0  0  0  0
  6  7  2  0  0  0  0
  8  7  1  0  0  0  0
  8  9  2  0  0  0  0
  9 37  1  0  0  0  0
 11  3  1  0  0  0  0
 12  5  1  0  0  0  0
 13  6  1  0  0  0  0
 14  2  1  0  0  0  0
 14 16  1  0  0  0  0
 15 14  2  0  0  0  0
 16 17  1  0  0  0  0
 18 19  1  0  0  0  0
 19 24  1  0  0  0  0
 20 19  2  0  0  0  0
 20 21  1  0  0  0  0
 21 22  2  0  0  0  0
 22 23  1  0  0  0  0
 22 26  1  0  0  0  0
 23 27  1  0  0  0  0
 24 16  1  0  0  0  0
 24 23  2  0  0  0  0
 25 21  1  0  0  0  0
 28 34  1  0  0  0  0
 28 29  1  0  0  0  0
 29 35  1  0  0  0  0
 30 29  2  0  0  0  0
 30 20  1  0  0  0  0
 31 30  1  0  0  0  0
 32 33  1  0  0  0  0
 32 31  2  0  0  0  0
 33 28  2  0  0  0  0
 36 32  1  0  0  0  0
 37 40  1  0  0  0  0
 39 38  1  0  0  0  0
 39 47  1  0  0  0  0
 40 39  2  0  0  0  0
 41 40  1  0  0  0  0
 41 43  2  0  0  0  0
 42 41  1  0  0  0  0
 43 44  1  0  0  0  0
 43 45  1  0  0  0  0
 45 47  2  0  0  0  0
 45 46  1  0  0  0  0
 47 48  1  0  0  0  0
M  END
>  <minimizedAffinity>
-6.8104229

$$$$
