
 OpenBabel03272503133D

 48 52  0  0  0  0  0  0  0  0999 V2000
   39.2250   32.2320   42.5700 C   0  0  0  0  0  0  0  0  0  0  0  0
   39.7230   31.4980   43.6360 C   0  0  0  0  0  0  0  0  0  0  0  0
   40.5800   30.4560   43.4800 C   0  0  0  0  0  0  0  0  0  0  0  0
   40.9920   30.0880   42.1960 C   0  0  0  0  0  0  0  0  0  0  0  0
   41.8120   29.1430   41.7450 N   0  0  0  0  0  0  0  0  0  0  0  0
   41.8630   29.2400   40.4300 C   0  0  0  0  0  0  0  0  0  0  0  0
   41.0730   30.2470   40.0500 N   0  0  0  0  0  0  0  0  0  0  0  0
   40.5010   30.8120   41.1450 C   0  0  0  0  0  0  0  0  0  0  0  0
   39.6180   31.8900   41.2580 C   0  0  0  0  0  0  0  0  0  0  0  0
   38.5430   33.0640   42.6750 H   0  0  0  0  0  0  0  0  0  0  0  0
   40.9730   29.8790   44.2940 H   0  0  0  0  0  0  0  0  0  0  0  0
   42.3500   28.4200   42.3080 H   0  0  0  0  0  0  0  0  0  0  0  0
   42.4220   28.6460   39.7010 H   0  0  0  0  0  0  0  0  0  0  0  0
   39.2770   31.9060   44.9480 C   0  0  0  0  0  0  0  0  0  0  0  0
   38.1850   32.5540   45.0670 O   0  0  0  0  0  0  0  0  0  0  0  0
   39.9550   31.6500   46.1640 N   0  0  0  0  0  0  0  0  0  0  0  0
   40.8480   31.1360   46.1250 H   0  0  0  0  0  0  0  0  0  0  0  0
   38.1200   30.1530   47.5010 F   0  0  0  0  0  0  0  0  0  0  0  0
   38.3730   31.3970   47.9910 C   0  0  0  0  0  0  0  0  0  0  0  0
   37.7160   31.8320   49.1010 C   0  0  0  0  0  0  0  0  0  0  0  0
   38.0190   33.0920   49.5430 C   0  0  0  0  0  0  0  0  0  0  0  0
   38.9280   33.8910   48.9190 C   0  0  0  0  0  0  0  0  0  0  0  0
   39.5840   33.4240   47.7900 C   0  0  0  0  0  0  0  0  0  0  0  0
   39.2930   32.1520   47.3270 C   0  0  0  0  0  0  0  0  0  0  0  0
   37.5040   33.4640   50.4310 H   0  0  0  0  0  0  0  0  0  0  0  0
   39.1630   34.8860   49.2720 H   0  0  0  0  0  0  0  0  0  0  0  0
   40.3090   34.0470   47.2850 H   0  0  0  0  0  0  0  0  0  0  0  0
   36.0770   29.3550   51.4490 C   0  0  0  0  0  0  0  0  0  0  0  0
   37.0400   30.2130   50.8640 C   0  0  0  0  0  0  0  0  0  0  0  0
   36.7480   30.9360   49.7320 C   0  0  0  0  0  0  0  0  0  0  0  0
   35.4830   30.7790   49.2060 N   0  0  0  0  0  0  0  0  0  0  0  0
   34.5740   29.9660   49.7610 C   0  0  0  0  0  0  0  0  0  0  0  0
   34.8660   29.2710   50.8570 N   0  0  0  0  0  0  0  0  0  0  0  0
   36.3130   28.7890   52.3400 H   0  0  0  0  0  0  0  0  0  0  0  0
   38.0280   30.3110   51.3090 H   0  0  0  0  0  0  0  0  0  0  0  0
   33.6400   29.9690   49.2110 H   0  0  0  0  0  0  0  0  0  0  0  0
   39.1320   32.6100   40.2210 O   0  0  0  0  0  0  0  0  0  0  0  0
   37.9820   30.3780   38.1350 Cl  0  0  0  0  0  0  0  0  0  0  0  0
   37.4370   32.0140   38.3620 C   0  0  0  0  0  0  0  0  0  0  0  0
   38.1790   32.6310   39.3280 C   0  0  0  0  0  0  0  0  0  0  0  0
   37.7300   33.9760   39.4780 C   0  0  0  0  0  0  0  0  0  0  0  0
   38.0420   34.8230   40.1330 H   0  0  0  0  0  0  0  0  0  0  0  0
   36.6960   34.5670   38.7520 C   0  0  0  0  0  0  0  0  0  0  0  0
   36.2570   35.5700   38.7650 H   0  0  0  0  0  0  0  0  0  0  0  0
   36.0320   33.8040   37.7980 C   0  0  0  0  0  0  0  0  0  0  0  0
   35.2180   34.1210   37.1660 H   0  0  0  0  0  0  0  0  0  0  0  0
   36.4120   32.5140   37.6080 C   0  0  0  0  0  0  0  0  0  0  0  0
   35.6800   31.4440   36.4580 Cl  0  0  0  0  0  0  0  0  0  0  0  0
  1 10  1  0  0  0  0
  1  2  1  0  0  0  0
  2 14  1  0  0  0  0
  3  2  2  0  0  0  0
  3 11  1  0  0  0  0
  4  3  1  0  0  0  0
  5  4  1  0  0  0  0
  5 12  1  0  0  0  0
  6  5  1  0  0  0  0
  7  6  2  0  0  0  0
  7  8  1  0  0  0  0
  8  9  1  0  0  0  0
  8  4  2  0  0  0  0
  9  1  2  0  0  0  0
 13  6  1  0  0  0  0
 14 15  2  0  0  0  0
 14 16  1  0  0  0  0
 16 24  1  0  0  0  0
 17 16  1  0  0  0  0
 18 19  1  0  0  0  0
 19 20  1  0  0  0  0
 20 21  2  0  0  0  0
 20 30  1  0  0  0  0
 21 25  1  0  0  0  0
 22 26  1  0  0  0  0
 22 21  1  0  0  0  0
 23 22  2  0  0  0  0
 24 23  1  0  0  0  0
 24 19  2  0  0  0  0
 27 23  1  0  0  0  0
 28 34  1  0  0  0  0
 29 35  1  0  0  0  0
 29 28  1  0  0  0  0
 30 29  2  0  0  0  0
 31 30  1  0  0  0  0
 31 32  2  0  0  0  0
 32 33  1  0  0  0  0
 33 28  2  0  0  0  0
 36 32  1  0  0  0  0
 37  9  1  0  0  0  0
 38 39  1  0  0  0  0
 39 40  1  0  0  0  0
 40 41  2  0  0  0  0
 40 37  1  0  0  0  0
 41 42  1  0  0  0  0
 43 44  1  0  0  0  0
 43 41  1  0  0  0  0
 45 43  2  0  0  0  0
 46 45  1  0  0  0  0
 47 45  1  0  0  0  0
 47 39  2  0  0  0  0
 48 47  1  0  0  0  0
M  END
>  <minimizedAffinity>
-7.22698307

>  <minimizedRMSD>
0.719470561

$$$$
