
     RDKit          3D

 31 33  0  0  0  0  0  0  0  0999 V2000
   38.3638   30.5944   47.0951 C   0  0  2  0  0  0  0  0  0  0  0  0
   36.9680   30.5579   47.5220 C   0  0  0  0  0  0  0  0  0  0  0  0
   38.0845   31.1226   48.4208 C   0  0  1  0  0  0  0  0  0  0  0  0
   40.6123   32.6969   45.0184 C   0  0  0  0  0  0  0  0  0  0  0  0
   39.7046   33.1785   44.0313 C   0  0  0  0  0  0  0  0  0  0  0  0
   38.3682   32.7743   44.1016 C   0  0  0  0  0  0  0  0  0  0  0  0
   37.9785   31.9417   45.1047 N   0  0  0  0  0  0  0  0  0  0  0  0
   38.8535   31.5011   46.0249 C   0  0  0  0  0  0  0  0  0  0  0  0
   40.1854   31.8574   46.0153 N   0  0  0  0  0  0  0  0  0  0  0  0
   37.6971   30.5315   50.7884 C   0  0  0  0  0  0  0  0  0  0  0  0
   36.7451   31.3493   50.8056 O   0  0  0  0  0  0  0  0  0  0  0  0
   38.4129   30.2644   49.5640 N   0  0  0  0  0  0  0  0  0  0  0  0
   38.9060   29.5967   47.0226 H   0  0  0  0  0  0  0  0  0  0  0  0
   36.4578   29.6312   47.8305 H   0  0  0  0  0  0  0  0  0  0  0  0
   36.3119   31.3430   47.1026 H   0  0  0  0  0  0  0  0  0  0  0  0
   37.9852   32.1754   48.6590 H   0  0  0  0  0  0  0  0  0  0  0  0
   41.6542   32.9875   44.9908 H   0  0  0  0  0  0  0  0  0  0  0  0
   40.0304   33.8279   43.2542 H   0  0  0  0  0  0  0  0  0  0  0  0
   37.6131   33.0918   43.3920 H   0  0  0  0  0  0  0  0  0  0  0  0
   39.1371   29.5338   49.4006 H   0  0  0  0  0  0  0  0  0  0  0  0
   36.3306   27.9379   51.7133 Cl  0  0  0  0  0  0  0  0  0  0  0  0
   37.8076   28.5690   52.4427 C   0  0  0  0  0  0  0  0  0  0  0  0
   38.2463   29.7376   51.8717 C   0  0  0  0  0  0  0  0  0  0  0  0
   39.4267   30.2108   52.4837 C   0  0  0  0  0  0  0  0  0  0  0  0
   39.8411   31.1553   52.0776 H   0  0  0  0  0  0  0  0  0  0  0  0
   40.1585   29.6553   53.5458 C   0  0  0  0  0  0  0  0  0  0  0  0
   41.0554   30.0395   53.9895 H   0  0  0  0  0  0  0  0  0  0  0  0
   39.5045   28.4960   53.9264 C   0  0  0  0  0  0  0  0  0  0  0  0
   40.0051   27.9763   54.7652 H   0  0  0  0  0  0  0  0  0  0  0  0
   38.3775   27.8780   53.4761 C   0  0  0  0  0  0  0  0  0  0  0  0
   37.7248   26.3970   54.1176 Cl  0  0  0  0  0  0  0  0  0  0  0  0
  1  2  1  0
  1  3  1  0
  2  3  1  0
  3 12  1  0
  4  9  2  0
  5  6  2  0
  5  4  1  0
  6  7  1  0
  7  8  2  0
  8  1  1  0
  9  8  1  0
 10 11  2  0
 12 10  1  0
  1 13  1  1
  2 14  1  0
  2 15  1  0
  3 16  1  1
  4 17  1  0
  5 18  1  0
  6 19  1  0
 12 20  1  0
 21 22  1  0
 22 23  2  0
 23 24  1  0
 24 25  1  0
 24 26  2  0
 26 27  1  0
 26 28  1  0
 28 29  1  0
 28 30  2  0
 30 31  1  0
 30 22  1  0
 10 23  1  0
M  ISO  8  13  13  14  13  15  13  16  13  17  14  18  14  19  14  25  15
M  ISO  2  27  15  29  15
M  END
>  <DihAtoms>  (1) 
10,9,22,21

>  <DihDeg>  (1) 
-100.69916637970469

$$$$
