REMARK  Name = 
REMARK  5 active torsions:
REMARK  status: ('A' for Active; 'I' for Inactive)
REMARK    1  A    between atoms: C_1  and  O_8
REMARK    2  A    between atoms: C_5  and  C_7
REMARK    3  A    between atoms: O_8  and  C_10
REMARK    4  A    between atoms: C_13  and  S_15
REMARK    5  A    between atoms: S_15  and  C_26
REMARK                            x       y       z     vdW  Elec       q    Type
REMARK                         _______ _______ _______ _____ _____    ______ ____
ROOT
ATOM      1  C   UNL     1      38.164  31.018  49.887  0.00  0.00    +0.000 A 
ATOM      2  C   UNL     1      38.054  31.431  48.544  0.00  0.00    +0.000 A 
ATOM      3  C   UNL     1      36.882  31.135  47.864  0.00  0.00    +0.000 A 
ATOM      4  N   UNL     1      35.911  30.464  48.536  0.00  0.00    +0.000 NA
ATOM      5  C   UNL     1      36.056  30.097  49.793  0.00  0.00    +0.000 A 
ATOM      6  N   UNL     1      37.191  30.355  50.532  0.00  0.00    +0.000 NA
ATOM      7  H   UNL     1      39.033  31.203  50.493  0.00  0.00    +0.000 HD
ATOM      8  H   UNL     1      36.812  31.452  46.852  0.00  0.00    +0.000 HD
ENDROOT
BRANCH   2   9
ATOM      9  O   UNL     1      39.138  32.094  48.046  0.00  0.00    +0.000 OA
BRANCH   9  10
ATOM     10  C   UNL     1      39.459  31.899  46.698  0.00  0.00    +0.000 A 
ATOM     11  C   UNL     1      39.595  30.720  46.038  0.00  0.00    +0.000 A 
ATOM     12  C   UNL     1      39.914  30.710  44.718  0.00  0.00    +0.000 A 
ATOM     13  C   UNL     1      40.095  31.910  44.068  0.00  0.00    +0.000 A 
ATOM     14  C   UNL     1      39.955  33.105  44.747  0.00  0.00    +0.000 A 
ATOM     15  N   UNL     1      39.634  33.062  46.073  0.00  0.00    +0.000 NA
ATOM     16  H   UNL     1      39.427  29.840  46.659  0.00  0.00    +0.000 HD
ATOM     17  H   UNL     1      40.016  29.768  44.217  0.00  0.00    +0.000 HD
ATOM     18  H   UNL     1      40.350  31.916  43.014  0.00  0.00    +0.000 HD
BRANCH  14  19
ATOM     19  C   UNL     1      40.154  34.424  44.038  0.00  0.00    +0.000 C 
ATOM     20  H   UNL     1      40.988  34.931  44.557  0.00  0.00    +0.000 HD
ATOM     21  H   UNL     1      40.473  34.203  43.022  0.00  0.00    +0.000 HD
ATOM     22  H   UNL     1      39.215  35.007  44.030  0.00  0.00    +0.000 HD
ENDBRANCH  14  19
ENDBRANCH   9  10
ENDBRANCH   2   9
BRANCH   5  23
ATOM     23  S   UNL     1      34.589  29.230  50.421  0.00  0.00    +0.000 S 
BRANCH  23  26
ATOM     24 CL   UNL     1      37.230  27.505  51.000  0.00  0.00    +0.000 Cl
ATOM     25  C   UNL     1      35.810  26.721  50.383  0.00  0.00    +0.000 A 
ATOM     26  C   UNL     1      34.693  27.486  50.145  0.00  0.00    +0.000 A 
ATOM     27  C   UNL     1      33.546  26.896  49.655  0.00  0.00    +0.000 A 
ATOM     28  H   UNL     1      32.629  27.420  49.441  0.00  0.00    +0.000 HD
ATOM     29  C   UNL     1      33.581  25.517  49.420  0.00  0.00    +0.000 A 
ATOM     30  H   UNL     1      32.756  24.948  49.042  0.00  0.00    +0.000 HD
ATOM     31  C   UNL     1      34.701  24.764  49.662  0.00  0.00    +0.000 A 
ATOM     32  H   UNL     1      34.756  23.698  49.490  0.00  0.00    +0.000 HD
ATOM     33  C   UNL     1      35.853  25.345  50.152  0.00  0.00    +0.000 A 
ATOM     34 CL   UNL     1      37.317  24.455  50.485  0.00  0.00    +0.000 Cl
ENDBRANCH  23  26
ENDBRANCH   5  23
TORSDOF 5
