
 OpenBabel03272508513D

 31 33  0  0  1  0  0  0  0  0999 V2000
   37.6060   29.7520   43.7610 C   0  0  2  0  0  0  0  0  0  0  0  0
   36.1600   29.6650   43.5780 C   0  0  0  0  0  0  0  0  0  0  0  0
   36.8130   30.7840   44.4120 C   0  0  1  0  0  0  0  0  0  0  0  0
   38.0900   28.9600   44.4180 H   0  0  0  0  0  0  0  0  0  0  0  0
   35.5330   28.9190   44.0930 H   0  0  0  0  0  0  0  0  0  0  0  0
   35.7710   30.0210   42.6060 H   0  0  0  0  0  0  0  0  0  0  0  0
   36.6620   31.7840   44.0250 H   0  0  0  0  0  0  0  0  0  0  0  0
   39.9440   31.6920   41.6260 C   0  0  0  0  0  0  0  0  0  0  0  0
   40.2380   30.7420   40.6060 C   0  0  0  0  0  0  0  0  0  0  0  0
   39.6380   29.4810   40.6780 C   0  0  0  0  0  0  0  0  0  0  0  0
   38.7960   29.2040   41.7100 N   0  0  0  0  0  0  0  0  0  0  0  0
   38.5340   30.1170   42.6600 C   0  0  0  0  0  0  0  0  0  0  0  0
   39.0920   31.3780   42.6540 N   0  0  0  0  0  0  0  0  0  0  0  0
   40.3940   32.6760   41.6030 H   0  0  0  0  0  0  0  0  0  0  0  0
   40.9000   30.9780   39.8070 H   0  0  0  0  0  0  0  0  0  0  0  0
   39.8070   28.7000   39.9450 H   0  0  0  0  0  0  0  0  0  0  0  0
   37.4500   31.4420   46.7060 C   0  0  0  0  0  0  0  0  0  0  0  0
   38.2130   32.3080   46.2140 O   0  0  0  0  0  0  0  0  0  0  0  0
   36.5970   30.6460   45.8560 N   0  0  0  0  0  0  0  0  0  0  0  0
   35.8490   29.9850   46.1520 H   0  0  0  0  0  0  0  0  0  0  0  0
   34.8530   30.0900   47.6450 Cl  0  0  0  0  0  0  0  0  0  0  0  0
   36.1910   30.4770   48.7280 C   0  0  0  0  0  0  0  0  0  0  0  0
   37.2530   31.0750   48.0960 C   0  0  0  0  0  0  0  0  0  0  0  0
   38.3010   31.3700   48.9960 C   0  0  0  0  0  0  0  0  0  0  0  0
   39.1940   31.8570   48.5590 H   0  0  0  0  0  0  0  0  0  0  0  0
   38.3730   31.1360   50.3780 C   0  0  0  0  0  0  0  0  0  0  0  0
   39.1860   31.3720   51.0350 H   0  0  0  0  0  0  0  0  0  0  0  0
   37.1860   30.5310   50.7510 C   0  0  0  0  0  0  0  0  0  0  0  0
   37.1400   30.3030   51.8320 H   0  0  0  0  0  0  0  0  0  0  0  0
   36.0720   30.1680   50.0540 C   0  0  0  0  0  0  0  0  0  0  0  0
   34.6670   29.4060   50.7430 Cl  0  0  0  0  0  0  0  0  0  0  0  0
  1  3  1  0  0  0  0
  1  4  1  1  0  0  0
  2  1  1  0  0  0  0
  2  5  1  0  0  0  0
  2  3  1  0  0  0  0
  3  7  1  6  0  0  0
  3 19  1  0  0  0  0
  6  2  1  0  0  0  0
  8 13  1  0  0  0  0
  9 10  1  0  0  0  0
  9  8  2  0  0  0  0
 10 11  2  0  0  0  0
 11 12  1  0  0  0  0
 12  1  1  0  0  0  0
 13 12  2  0  0  0  0
 14  8  1  0  0  0  0
 15  9  1  0  0  0  0
 16 10  1  0  0  0  0
 17 23  1  0  0  0  0
 18 17  2  0  0  0  0
 19 20  1  0  0  0  0
 19 17  1  0  0  0  0
 21 22  1  0  0  0  0
 22 30  1  0  0  0  0
 23 22  2  0  0  0  0
 23 24  1  0  0  0  0
 24 26  2  0  0  0  0
 25 24  1  0  0  0  0
 26 28  1  0  0  0  0
 26 27  1  0  0  0  0
 28 29  1  0  0  0  0
 30 31  1  0  0  0  0
 30 28  2  0  0  0  0
M  END
>  <minimizedAffinity>
-5.46732044

>  <minimizedRMSD>
4.29698229

$$$$
