
 OpenBabel03272509323D

 40 42  0  0  1  0  0  0  0  0999 V2000
   38.7910   25.8180   34.5610 C   0  0  2  0  0  0  0  0  0  0  0  0
   38.7370   27.1720   35.2060 C   0  0  0  0  0  0  0  0  0  0  0  0
   37.3700   27.8150   35.1020 C   0  0  0  0  0  0  0  0  0  0  0  0
   36.9260   27.9190   33.6430 C   0  0  0  0  0  0  0  0  0  0  0  0
   37.3600   26.7470   32.7930 C   0  0  0  0  0  0  0  0  0  0  0  0
   37.5890   25.5430   33.7220 C   0  0  1  0  0  0  0  0  0  0  0  0
   39.6670   25.6900   33.8670 H   0  0  0  0  0  0  0  0  0  0  0  0
   39.3860   27.8290   34.5320 H   0  0  0  0  0  0  0  0  0  0  0  0
   39.1620   27.2740   36.1820 H   0  0  0  0  0  0  0  0  0  0  0  0
   37.4400   28.8230   35.5030 H   0  0  0  0  0  0  0  0  0  0  0  0
   36.5910   27.2180   35.6110 H   0  0  0  0  0  0  0  0  0  0  0  0
   35.8090   27.9680   33.6420 H   0  0  0  0  0  0  0  0  0  0  0  0
   37.3170   28.8620   33.2450 H   0  0  0  0  0  0  0  0  0  0  0  0
   38.3180   26.9570   32.3240 H   0  0  0  0  0  0  0  0  0  0  0  0
   36.6250   26.4820   32.0130 H   0  0  0  0  0  0  0  0  0  0  0  0
   36.6990   25.5680   34.3000 H   0  0  0  0  0  0  0  0  0  0  0  0
   38.9270   24.7450   35.5790 C   0  0  0  0  0  0  0  0  0  0  0  0
   38.1080   24.8870   36.7250 C   0  0  0  0  0  0  0  0  0  0  0  0
   38.2180   23.8800   37.6930 C   0  0  0  0  0  0  0  0  0  0  0  0
   39.0940   22.8390   37.4760 N   0  0  0  0  0  0  0  0  0  0  0  0
   39.8600   22.7520   36.3490 C   0  0  0  0  0  0  0  0  0  0  0  0
   39.7580   23.7170   35.4170 N   0  0  0  0  0  0  0  0  0  0  0  0
   37.3900   25.6310   37.0050 H   0  0  0  0  0  0  0  0  0  0  0  0
   37.6700   23.8480   38.6070 H   0  0  0  0  0  0  0  0  0  0  0  0
   40.5250   21.9070   36.2420 H   0  0  0  0  0  0  0  0  0  0  0  0
   36.5820   23.7790   32.2220 C   0  0  0  0  0  0  0  0  0  0  0  0
   35.5780   24.3650   31.6450 O   0  0  0  0  0  0  0  0  0  0  0  0
   37.5690   24.2730   33.0960 N   0  0  0  0  0  0  0  0  0  0  0  0
   38.3160   23.5190   33.2120 H   0  0  0  0  0  0  0  0  0  0  0  0
   38.6170   22.4430   30.2500 Cl  0  0  0  0  0  0  0  0  0  0  0  0
   37.2440   21.6340   30.9080 C   0  0  0  0  0  0  0  0  0  0  0  0
   36.4670   22.3770   31.7450 C   0  0  0  0  0  0  0  0  0  0  0  0
   35.3660   21.6610   32.2480 C   0  0  0  0  0  0  0  0  0  0  0  0
   34.6700   22.1700   32.9370 H   0  0  0  0  0  0  0  0  0  0  0  0
   35.0390   20.3490   31.9740 C   0  0  0  0  0  0  0  0  0  0  0  0
   34.1650   19.8920   32.4180 H   0  0  0  0  0  0  0  0  0  0  0  0
   35.8830   19.6920   31.1220 C   0  0  0  0  0  0  0  0  0  0  0  0
   35.6680   18.6580   30.8730 H   0  0  0  0  0  0  0  0  0  0  0  0
   36.9750   20.3330   30.5970 C   0  0  0  0  0  0  0  0  0  0  0  0
   38.0870   19.5250   29.5000 Cl  0  0  0  0  0  0  0  0  0  0  0  0
  1  7  1  6  0  0  0
  1  2  1  0  0  0  0
  1 17  1  0  0  0  0
  2  9  1  0  0  0  0
  3  2  1  0  0  0  0
  3 10  1  0  0  0  0
  3 11  1  0  0  0  0
  4  3  1  0  0  0  0
  5  4  1  0  0  0  0
  5  6  1  0  0  0  0
  6 16  1  1  0  0  0
  6  1  1  0  0  0  0
  8  2  1  0  0  0  0
 12  4  1  0  0  0  0
 13  4  1  0  0  0  0
 14  5  1  0  0  0  0
 15  5  1  0  0  0  0
 17 18  1  0  0  0  0
 18 23  1  0  0  0  0
 18 19  2  0  0  0  0
 19 24  1  0  0  0  0
 20 19  1  0  0  0  0
 21 20  2  0  0  0  0
 22 17  2  0  0  0  0
 22 21  1  0  0  0  0
 25 21  1  0  0  0  0
 26 28  1  0  0  0  0
 27 26  2  0  0  0  0
 28 29  1  0  0  0  0
 28  6  1  0  0  0  0
 30 31  1  0  0  0  0
 31 32  1  0  0  0  0
 32 26  1  0  0  0  0
 32 33  2  0  0  0  0
 33 34  1  0  0  0  0
 35 33  1  0  0  0  0
 35 36  1  0  0  0  0
 37 35  2  0  0  0  0
 38 37  1  0  0  0  0
 39 31  2  0  0  0  0
 39 37  1  0  0  0  0
 40 39  1  0  0  0  0
M  END
>  <minimizedAffinity>
-6.09570169

$$$$

 OpenBabel03272509323D

 40 42  0  0  1  0  0  0  0  0999 V2000
   36.1660   25.8020   31.9440 C   0  0  2  0  0  0  0  0  0  0  0  0
   36.0200   26.6610   30.7220 C   0  0  0  0  0  0  0  0  0  0  0  0
   37.0820   27.7380   30.6330 C   0  0  0  0  0  0  0  0  0  0  0  0
   37.0740   28.6140   31.8850 C   0  0  0  0  0  0  0  0  0  0  0  0
   36.7650   27.8540   33.1550 C   0  0  0  0  0  0  0  0  0  0  0  0
   37.1290   26.3780   32.9280 C   0  0  1  0  0  0  0  0  0  0  0  0
   35.2070   25.6740   32.5150 H   0  0  0  0  0  0  0  0  0  0  0  0
   35.0610   27.2540   30.9100 H   0  0  0  0  0  0  0  0  0  0  0  0
   35.8600   26.1680   29.7860 H   0  0  0  0  0  0  0  0  0  0  0  0
   36.8490   28.3710   29.7810 H   0  0  0  0  0  0  0  0  0  0  0  0
   38.1000   27.3120   30.5710 H   0  0  0  0  0  0  0  0  0  0  0  0
   38.0930   29.0650   31.9780 H   0  0  0  0  0  0  0  0  0  0  0  0
   36.3500   29.4200   31.7200 H   0  0  0  0  0  0  0  0  0  0  0  0
   35.6970   27.8770   33.3570 H   0  0  0  0  0  0  0  0  0  0  0  0
   37.3080   28.2410   34.0350 H   0  0  0  0  0  0  0  0  0  0  0  0
   38.0990   26.4760   32.5080 H   0  0  0  0  0  0  0  0  0  0  0  0
   36.6050   24.4290   31.5840 C   0  0  0  0  0  0  0  0  0  0  0  0
   35.5800   23.4540   31.5450 C   0  0  0  0  0  0  0  0  0  0  0  0
   35.9750   22.1550   31.2010 C   0  0  0  0  0  0  0  0  0  0  0  0
   37.3030   21.9110   30.9280 N   0  0  0  0  0  0  0  0  0  0  0  0
   38.2510   22.8930   30.9800 C   0  0  0  0  0  0  0  0  0  0  0  0
   37.8760   24.1420   31.3110 N   0  0  0  0  0  0  0  0  0  0  0  0
   34.5250   23.5150   31.7230 H   0  0  0  0  0  0  0  0  0  0  0  0
   35.3210   21.3150   31.1300 H   0  0  0  0  0  0  0  0  0  0  0  0
   39.2750   22.6330   30.7520 H   0  0  0  0  0  0  0  0  0  0  0  0
   38.4030   25.7020   35.0000 C   0  0  0  0  0  0  0  0  0  0  0  0
   39.3580   26.5760   35.1040 O   0  0  0  0  0  0  0  0  0  0  0  0
   37.3250   25.6070   34.0990 N   0  0  0  0  0  0  0  0  0  0  0  0
   36.6670   24.8440   34.4500 H   0  0  0  0  0  0  0  0  0  0  0  0
   40.5640   23.4440   34.8000 Cl  0  0  0  0  0  0  0  0  0  0  0  0
   39.5960   23.7270   36.1980 C   0  0  0  0  0  0  0  0  0  0  0  0
   38.7030   24.7510   36.1000 C   0  0  0  0  0  0  0  0  0  0  0  0
   37.9460   24.9310   37.2730 C   0  0  0  0  0  0  0  0  0  0  0  0
   37.1920   25.7360   37.3000 H   0  0  0  0  0  0  0  0  0  0  0  0
   38.0380   24.1940   38.4350 C   0  0  0  0  0  0  0  0  0  0  0  0
   37.4050   24.4180   39.2830 H   0  0  0  0  0  0  0  0  0  0  0  0
   38.9650   23.1880   38.4310 C   0  0  0  0  0  0  0  0  0  0  0  0
   39.0730   22.5790   39.3210 H   0  0  0  0  0  0  0  0  0  0  0  0
   39.7350   22.9610   37.3190 C   0  0  0  0  0  0  0  0  0  0  0  0
   40.9400   21.6810   37.2710 Cl  0  0  0  0  0  0  0  0  0  0  0  0
  1  7  1  1  0  0  0
  1  6  1  0  0  0  0
  2  8  1  0  0  0  0
  2  1  1  0  0  0  0
  3  2  1  0  0  0  0
  3  4  1  0  0  0  0
  4 12  1  0  0  0  0
  4  5  1  0  0  0  0
  5 14  1  0  0  0  0
  5 15  1  0  0  0  0
  6 16  1  6  0  0  0
  6  5  1  0  0  0  0
  6 28  1  0  0  0  0
  9  2  1  0  0  0  0
 10  3  1  0  0  0  0
 11  3  1  0  0  0  0
 13  4  1  0  0  0  0
 17  1  1  0  0  0  0
 18 17  1  0  0  0  0
 18 23  1  0  0  0  0
 19 18  2  0  0  0  0
 20 21  2  0  0  0  0
 20 19  1  0  0  0  0
 21 22  1  0  0  0  0
 22 17  2  0  0  0  0
 24 19  1  0  0  0  0
 25 21  1  0  0  0  0
 26 27  2  0  0  0  0
 26 32  1  0  0  0  0
 28 29  1  0  0  0  0
 28 26  1  0  0  0  0
 30 31  1  0  0  0  0
 31 39  1  0  0  0  0
 32 31  2  0  0  0  0
 32 33  1  0  0  0  0
 33 34  1  0  0  0  0
 33 35  2  0  0  0  0
 35 36  1  0  0  0  0
 37 35  1  0  0  0  0
 37 38  1  0  0  0  0
 39 37  2  0  0  0  0
 40 39  1  0  0  0  0
M  END
>  <minimizedAffinity>
-6.02530336

$$$$

 OpenBabel03272509323D

 40 42  0  0  1  0  0  0  0  0999 V2000
   38.8750   25.6560   34.6230 C   0  0  2  0  0  0  0  0  0  0  0  0
   38.6670   27.0240   35.2050 C   0  0  0  0  0  0  0  0  0  0  0  0
   37.2850   27.5770   34.9200 C   0  0  0  0  0  0  0  0  0  0  0  0
   37.0100   27.6070   33.4170 C   0  0  0  0  0  0  0  0  0  0  0  0
   37.6090   26.4380   32.6670 C   0  0  0  0  0  0  0  0  0  0  0  0
   37.7970   25.2810   33.6610 C   0  0  1  0  0  0  0  0  0  0  0  0
   39.8320   25.5620   34.0390 H   0  0  0  0  0  0  0  0  0  0  0  0
   39.3500   27.6990   34.5860 H   0  0  0  0  0  0  0  0  0  0  0  0
   38.9670   27.1820   36.2190 H   0  0  0  0  0  0  0  0  0  0  0  0
   37.2490   28.5990   35.2870 H   0  0  0  0  0  0  0  0  0  0  0  0
   36.4890   26.9470   35.3580 H   0  0  0  0  0  0  0  0  0  0  0  0
   35.9000   27.5850   33.2850 H   0  0  0  0  0  0  0  0  0  0  0  0
   37.3880   28.5600   33.0310 H   0  0  0  0  0  0  0  0  0  0  0  0
   38.6010   26.6930   32.3040 H   0  0  0  0  0  0  0  0  0  0  0  0
   36.9870   26.1030   31.8190 H   0  0  0  0  0  0  0  0  0  0  0  0
   36.8470   25.2680   34.1330 H   0  0  0  0  0  0  0  0  0  0  0  0
   38.9530   24.6260   35.6900 C   0  0  0  0  0  0  0  0  0  0  0  0
   38.0930   24.8300   36.7950 C   0  0  0  0  0  0  0  0  0  0  0  0
   38.1490   23.8640   37.8080 C   0  0  0  0  0  0  0  0  0  0  0  0
   39.0150   22.8010   37.6710 N   0  0  0  0  0  0  0  0  0  0  0  0
   39.8230   22.6550   36.5800 C   0  0  0  0  0  0  0  0  0  0  0  0
   39.7730   23.5800   35.6050 N   0  0  0  0  0  0  0  0  0  0  0  0
   37.3780   25.5960   37.0150 H   0  0  0  0  0  0  0  0  0  0  0  0
   37.5650   23.8790   38.7010 H   0  0  0  0  0  0  0  0  0  0  0  0
   40.4770   21.7960   36.5350 H   0  0  0  0  0  0  0  0  0  0  0  0
   36.9730   23.3230   32.2960 C   0  0  0  0  0  0  0  0  0  0  0  0
   35.8630   23.7340   31.7620 O   0  0  0  0  0  0  0  0  0  0  0  0
   37.9260   23.9930   33.0870 N   0  0  0  0  0  0  0  0  0  0  0  0
   38.7800   23.3590   33.1840 H   0  0  0  0  0  0  0  0  0  0  0  0
   35.5240   21.0050   33.8250 Cl  0  0  0  0  0  0  0  0  0  0  0  0
   36.4740   20.7740   32.4050 C   0  0  0  0  0  0  0  0  0  0  0  0
   37.0340   21.8990   31.8810 C   0  0  0  0  0  0  0  0  0  0  0  0
   37.7950   21.6440   30.7250 C   0  0  0  0  0  0  0  0  0  0  0  0
   38.2920   22.4880   30.2190 H   0  0  0  0  0  0  0  0  0  0  0  0
   38.0000   20.4180   30.1260 C   0  0  0  0  0  0  0  0  0  0  0  0
   38.6050   20.3330   29.2340 H   0  0  0  0  0  0  0  0  0  0  0  0
   37.3950   19.3510   30.7320 C   0  0  0  0  0  0  0  0  0  0  0  0
   37.5280   18.3650   30.3000 H   0  0  0  0  0  0  0  0  0  0  0  0
   36.6400   19.5330   31.8610 C   0  0  0  0  0  0  0  0  0  0  0  0
   35.8420   18.1910   32.6700 Cl  0  0  0  0  0  0  0  0  0  0  0  0
  1  7  1  6  0  0  0
  1  2  1  0  0  0  0
  1 17  1  0  0  0  0
  2  9  1  0  0  0  0
  3  2  1  0  0  0  0
  3 10  1  0  0  0  0
  3 11  1  0  0  0  0
  4  3  1  0  0  0  0
  5  4  1  0  0  0  0
  5  6  1  0  0  0  0
  6 16  1  1  0  0  0
  6  1  1  0  0  0  0
  8  2  1  0  0  0  0
 12  4  1  0  0  0  0
 13  4  1  0  0  0  0
 14  5  1  0  0  0  0
 15  5  1  0  0  0  0
 17 18  1  0  0  0  0
 18 23  1  0  0  0  0
 18 19  2  0  0  0  0
 19 24  1  0  0  0  0
 20 19  1  0  0  0  0
 21 20  2  0  0  0  0
 22 17  2  0  0  0  0
 22 21  1  0  0  0  0
 25 21  1  0  0  0  0
 26 28  1  0  0  0  0
 27 26  2  0  0  0  0
 28 29  1  0  0  0  0
 28  6  1  0  0  0  0
 31 30  1  0  0  0  0
 32 26  1  0  0  0  0
 32 31  1  0  0  0  0
 33 32  2  0  0  0  0
 34 33  1  0  0  0  0
 35 33  1  0  0  0  0
 35 37  2  0  0  0  0
 36 35  1  0  0  0  0
 37 39  1  0  0  0  0
 38 37  1  0  0  0  0
 39 31  2  0  0  0  0
 39 40  1  0  0  0  0
M  END
>  <minimizedAffinity>
-5.79394484

$$$$

 OpenBabel03272509323D

 40 42  0  0  1  0  0  0  0  0999 V2000
   36.5330   26.6060   31.8920 C   0  0  2  0  0  0  0  0  0  0  0  0
   36.3440   27.6850   30.8660 C   0  0  0  0  0  0  0  0  0  0  0  0
   36.8980   29.0220   31.3130 C   0  0  0  0  0  0  0  0  0  0  0  0
   36.2740   29.4540   32.6390 C   0  0  0  0  0  0  0  0  0  0  0  0
   36.0070   28.3060   33.5860 C   0  0  0  0  0  0  0  0  0  0  0  0
   36.9530   27.1530   33.2160 C   0  0  1  0  0  0  0  0  0  0  0  0
   35.5960   26.0220   32.1020 H   0  0  0  0  0  0  0  0  0  0  0  0
   35.2150   27.8620   30.8520 H   0  0  0  0  0  0  0  0  0  0  0  0
   36.6000   27.4560   29.8530 H   0  0  0  0  0  0  0  0  0  0  0  0
   36.6370   29.7630   30.5630 H   0  0  0  0  0  0  0  0  0  0  0  0
   37.9880   28.9780   31.4940 H   0  0  0  0  0  0  0  0  0  0  0  0
   36.9910   30.1600   33.1260 H   0  0  0  0  0  0  0  0  0  0  0  0
   35.3520   29.9990   32.4080 H   0  0  0  0  0  0  0  0  0  0  0  0
   34.9970   27.9300   33.4450 H   0  0  0  0  0  0  0  0  0  0  0  0
   36.1470   28.5790   34.6470 H   0  0  0  0  0  0  0  0  0  0  0  0
   37.8770   27.6700   33.1450 H   0  0  0  0  0  0  0  0  0  0  0  0
   37.5360   25.6080   31.4410 C   0  0  0  0  0  0  0  0  0  0  0  0
   37.0040   24.3960   30.9400 C   0  0  0  0  0  0  0  0  0  0  0  0
   37.9360   23.4450   30.5030 C   0  0  0  0  0  0  0  0  0  0  0  0
   39.2790   23.7390   30.5860 N   0  0  0  0  0  0  0  0  0  0  0  0
   39.7360   24.9280   31.0790 C   0  0  0  0  0  0  0  0  0  0  0  0
   38.8450   25.8440   31.5000 N   0  0  0  0  0  0  0  0  0  0  0  0
   35.9970   24.0520   30.8150 H   0  0  0  0  0  0  0  0  0  0  0  0
   37.6900   22.4870   30.1030 H   0  0  0  0  0  0  0  0  0  0  0  0
   40.8030   25.0950   31.1130 H   0  0  0  0  0  0  0  0  0  0  0  0
   38.1330   26.2300   35.2480 C   0  0  0  0  0  0  0  0  0  0  0  0
   38.9290   27.1820   35.6320 O   0  0  0  0  0  0  0  0  0  0  0  0
   37.1650   26.1840   34.2270 N   0  0  0  0  0  0  0  0  0  0  0  0
   36.6050   25.2830   34.3410 H   0  0  0  0  0  0  0  0  0  0  0  0
   40.1190   23.9240   34.5040 Cl  0  0  0  0  0  0  0  0  0  0  0  0
   39.3140   24.0470   36.0240 C   0  0  0  0  0  0  0  0  0  0  0  0
   38.4820   25.1160   36.1660 C   0  0  0  0  0  0  0  0  0  0  0  0
   37.8580   25.1600   37.4260 C   0  0  0  0  0  0  0  0  0  0  0  0
   37.1620   25.9870   37.6470 H   0  0  0  0  0  0  0  0  0  0  0  0
   38.0190   24.2590   38.4590 C   0  0  0  0  0  0  0  0  0  0  0  0
   37.4890   24.3870   39.3920 H   0  0  0  0  0  0  0  0  0  0  0  0
   38.8760   23.2210   38.2140 C   0  0  0  0  0  0  0  0  0  0  0  0
   39.0340   22.4840   38.9940 H   0  0  0  0  0  0  0  0  0  0  0  0
   39.5160   23.1210   37.0060 C   0  0  0  0  0  0  0  0  0  0  0  0
   40.6280   21.8060   36.6510 Cl  0  0  0  0  0  0  0  0  0  0  0  0
  1  7  1  1  0  0  0
  1  6  1  0  0  0  0
  2  3  1  0  0  0  0
  2  1  1  0  0  0  0
  3 11  1  0  0  0  0
  3  4  1  0  0  0  0
  4 12  1  0  0  0  0
  4  5  1  0  0  0  0
  5 15  1  0  0  0  0
  6 16  1  6  0  0  0
  6  5  1  0  0  0  0
  6 28  1  0  0  0  0
  8  2  1  0  0  0  0
  9  2  1  0  0  0  0
 10  3  1  0  0  0  0
 13  4  1  0  0  0  0
 14  5  1  0  0  0  0
 17 22  1  0  0  0  0
 17  1  1  0  0  0  0
 18 17  2  0  0  0  0
 19 20  2  0  0  0  0
 19 18  1  0  0  0  0
 20 21  1  0  0  0  0
 21 25  1  0  0  0  0
 21 22  2  0  0  0  0
 23 18  1  0  0  0  0
 24 19  1  0  0  0  0
 26 27  2  0  0  0  0
 26 32  1  0  0  0  0
 28 29  1  0  0  0  0
 28 26  1  0  0  0  0
 30 31  1  0  0  0  0
 31 32  2  0  0  0  0
 31 39  1  0  0  0  0
 32 33  1  0  0  0  0
 33 34  1  0  0  0  0
 33 35  2  0  0  0  0
 35 36  1  0  0  0  0
 37 35  1  0  0  0  0
 37 38  1  0  0  0  0
 39 37  2  0  0  0  0
 40 39  1  0  0  0  0
M  END
>  <minimizedAffinity>
-5.70716

$$$$

 OpenBabel03272509323D

 40 42  0  0  1  0  0  0  0  0999 V2000
   36.8610   27.1060   32.3720 C   0  0  2  0  0  0  0  0  0  0  0  0
   37.5840   26.7080   31.1180 C   0  0  0  0  0  0  0  0  0  0  0  0
   38.1930   27.8910   30.3930 C   0  0  0  0  0  0  0  0  0  0  0  0
   37.1280   28.9370   30.0670 C   0  0  0  0  0  0  0  0  0  0  0  0
   36.0640   29.0730   31.1330 C   0  0  0  0  0  0  0  0  0  0  0  0
   36.6580   28.5820   32.4630 C   0  0  1  0  0  0  0  0  0  0  0  0
   35.8300   26.6640   32.4500 H   0  0  0  0  0  0  0  0  0  0  0  0
   36.7520   26.3690   30.4110 H   0  0  0  0  0  0  0  0  0  0  0  0
   38.2530   25.8760   31.1750 H   0  0  0  0  0  0  0  0  0  0  0  0
   38.6090   27.5330   29.4550 H   0  0  0  0  0  0  0  0  0  0  0  0
   38.9460   28.4120   31.0120 H   0  0  0  0  0  0  0  0  0  0  0  0
   37.6520   29.9180   29.9570 H   0  0  0  0  0  0  0  0  0  0  0  0
   36.6860   28.6680   29.1000 H   0  0  0  0  0  0  0  0  0  0  0  0
   35.2250   28.4180   30.9130 H   0  0  0  0  0  0  0  0  0  0  0  0
   35.6960   30.1070   31.2480 H   0  0  0  0  0  0  0  0  0  0  0  0
   37.5840   29.0990   32.4700 H   0  0  0  0  0  0  0  0  0  0  0  0
   37.5900   26.6420   33.5800 C   0  0  0  0  0  0  0  0  0  0  0  0
   37.5780   25.2430   33.7970 C   0  0  0  0  0  0  0  0  0  0  0  0
   38.2670   24.7870   34.9290 C   0  0  0  0  0  0  0  0  0  0  0  0
   38.8970   25.7040   35.7410 N   0  0  0  0  0  0  0  0  0  0  0  0
   38.8760   27.0440   35.4820 C   0  0  0  0  0  0  0  0  0  0  0  0
   38.2150   27.4870   34.3970 N   0  0  0  0  0  0  0  0  0  0  0  0
   37.1410   24.4360   33.2450 H   0  0  0  0  0  0  0  0  0  0  0  0
   38.3470   23.7660   35.2250 H   0  0  0  0  0  0  0  0  0  0  0  0
   39.3930   27.7080   36.1600 H   0  0  0  0  0  0  0  0  0  0  0  0
   34.6760   29.5120   33.7210 C   0  0  0  0  0  0  0  0  0  0  0  0
   33.7090   29.5260   32.8550 O   0  0  0  0  0  0  0  0  0  0  0  0
   35.9950   29.0260   33.6330 N   0  0  0  0  0  0  0  0  0  0  0  0
   36.4210   29.0450   34.6110 H   0  0  0  0  0  0  0  0  0  0  0  0
   35.9160   32.0110   35.1470 Cl  0  0  0  0  0  0  0  0  0  0  0  0
   34.4520   31.2470   35.6440 C   0  0  0  0  0  0  0  0  0  0  0  0
   34.0690   30.1680   34.9070 C   0  0  0  0  0  0  0  0  0  0  0  0
   32.8690   29.5920   35.3620 C   0  0  0  0  0  0  0  0  0  0  0  0
   32.4680   28.7100   34.8340 H   0  0  0  0  0  0  0  0  0  0  0  0
   32.1030   30.0150   36.4290 C   0  0  0  0  0  0  0  0  0  0  0  0
   31.1910   29.4980   36.6940 H   0  0  0  0  0  0  0  0  0  0  0  0
   32.5750   31.1070   37.1040 C   0  0  0  0  0  0  0  0  0  0  0  0
   32.0100   31.4770   37.9530 H   0  0  0  0  0  0  0  0  0  0  0  0
   33.7400   31.7150   36.7110 C   0  0  0  0  0  0  0  0  0  0  0  0
   34.3800   33.1220   37.5480 Cl  0  0  0  0  0  0  0  0  0  0  0  0
  1  7  1  6  0  0  0
  1  6  1  0  0  0  0
  1 17  1  0  0  0  0
  2  9  1  0  0  0  0
  2  1  1  0  0  0  0
  3 11  1  0  0  0  0
  3  2  1  0  0  0  0
  4  3  1  0  0  0  0
  4  5  1  0  0  0  0
  5 15  1  0  0  0  0
  5  6  1  0  0  0  0
  6 16  1  1  0  0  0
  6 28  1  0  0  0  0
  8  2  1  0  0  0  0
 10  3  1  0  0  0  0
 12  4  1  0  0  0  0
 13  4  1  0  0  0  0
 14  5  1  0  0  0  0
 17 18  2  0  0  0  0
 17 22  1  0  0  0  0
 18 19  1  0  0  0  0
 19 24  1  0  0  0  0
 19 20  2  0  0  0  0
 21 20  1  0  0  0  0
 21 25  1  0  0  0  0
 22 21  2  0  0  0  0
 23 18  1  0  0  0  0
 26 32  1  0  0  0  0
 27 26  2  0  0  0  0
 28 26  1  0  0  0  0
 28 29  1  0  0  0  0
 30 31  1  0  0  0  0
 31 39  1  0  0  0  0
 32 33  1  0  0  0  0
 32 31  2  0  0  0  0
 33 35  2  0  0  0  0
 34 33  1  0  0  0  0
 35 36  1  0  0  0  0
 35 37  1  0  0  0  0
 37 38  1  0  0  0  0
 39 37  2  0  0  0  0
 39 40  1  0  0  0  0
M  END
>  <minimizedAffinity>
-5.51940584

$$$$

 OpenBabel03272509323D

 40 42  0  0  1  0  0  0  0  0999 V2000
   39.2500   25.8050   34.6350 C   0  0  2  0  0  0  0  0  0  0  0  0
   39.0340   27.0580   35.4330 C   0  0  0  0  0  0  0  0  0  0  0  0
   37.5860   27.5030   35.4420 C   0  0  0  0  0  0  0  0  0  0  0  0
   37.0690   27.7010   34.0180 C   0  0  0  0  0  0  0  0  0  0  0  0
   37.6260   26.7050   33.0260 C   0  0  0  0  0  0  0  0  0  0  0  0
   38.0630   25.4530   33.8030 C   0  0  1  0  0  0  0  0  0  0  0  0
   40.1040   25.8830   33.9080 H   0  0  0  0  0  0  0  0  0  0  0  0
   39.5530   27.8720   34.8230 H   0  0  0  0  0  0  0  0  0  0  0  0
   39.4820   27.1120   36.4030 H   0  0  0  0  0  0  0  0  0  0  0  0
   37.5300   28.4600   35.9540 H   0  0  0  0  0  0  0  0  0  0  0  0
   36.9230   26.7460   35.9000 H   0  0  0  0  0  0  0  0  0  0  0  0
   35.9570   27.5870   34.0520 H   0  0  0  0  0  0  0  0  0  0  0  0
   37.3040   28.7290   33.7210 H   0  0  0  0  0  0  0  0  0  0  0  0
   38.5240   27.1030   32.5590 H   0  0  0  0  0  0  0  0  0  0  0  0
   36.9030   26.4250   32.2410 H   0  0  0  0  0  0  0  0  0  0  0  0
   37.2050   25.2840   34.4050 H   0  0  0  0  0  0  0  0  0  0  0  0
   39.5800   24.6580   35.5190 C   0  0  0  0  0  0  0  0  0  0  0  0
   40.9100   24.1810   35.4250 C   0  0  0  0  0  0  0  0  0  0  0  0
   41.2400   23.1030   36.2570 C   0  0  0  0  0  0  0  0  0  0  0  0
   40.2760   22.5850   37.0940 N   0  0  0  0  0  0  0  0  0  0  0  0
   39.0070   23.0870   37.1430 C   0  0  0  0  0  0  0  0  0  0  0  0
   38.6850   24.1220   36.3460 N   0  0  0  0  0  0  0  0  0  0  0  0
   41.7440   24.4960   34.8320 H   0  0  0  0  0  0  0  0  0  0  0  0
   42.1970   22.6340   36.2990 H   0  0  0  0  0  0  0  0  0  0  0  0
   38.3000   22.6350   37.8250 H   0  0  0  0  0  0  0  0  0  0  0  0
   37.2550   23.7420   32.1310 C   0  0  0  0  0  0  0  0  0  0  0  0
   36.1590   24.2410   31.6470 O   0  0  0  0  0  0  0  0  0  0  0  0
   38.1960   24.2700   33.0360 N   0  0  0  0  0  0  0  0  0  0  0  0
   39.0440   23.6220   33.0490 H   0  0  0  0  0  0  0  0  0  0  0  0
   35.2960   21.4000   32.8320 Cl  0  0  0  0  0  0  0  0  0  0  0  0
   36.5600   21.2800   31.6660 C   0  0  0  0  0  0  0  0  0  0  0  0
   37.3170   22.4000   31.4980 C   0  0  0  0  0  0  0  0  0  0  0  0
   38.3290   22.2380   30.5340 C   0  0  0  0  0  0  0  0  0  0  0  0
   39.0000   23.0860   30.3200 H   0  0  0  0  0  0  0  0  0  0  0  0
   38.5910   21.1020   29.7960 C   0  0  0  0  0  0  0  0  0  0  0  0
   39.3970   21.0840   29.0760 H   0  0  0  0  0  0  0  0  0  0  0  0
   37.7740   20.0320   30.0400 C   0  0  0  0  0  0  0  0  0  0  0  0
   37.9410   19.1150   29.4860 H   0  0  0  0  0  0  0  0  0  0  0  0
   36.7680   20.1260   30.9670 C   0  0  0  0  0  0  0  0  0  0  0  0
   35.6930   18.7770   31.3100 Cl  0  0  0  0  0  0  0  0  0  0  0  0
  1  7  1  6  0  0  0
  1  2  1  0  0  0  0
  1 17  1  0  0  0  0
  2  3  1  0  0  0  0
  2  9  1  0  0  0  0
  3 11  1  0  0  0  0
  3 10  1  0  0  0  0
  4 12  1  0  0  0  0
  4  3  1  0  0  0  0
  5  6  1  0  0  0  0
  5  4  1  0  0  0  0
  6 16  1  1  0  0  0
  6  1  1  0  0  0  0
  8  2  1  0  0  0  0
 13  4  1  0  0  0  0
 14  5  1  0  0  0  0
 15  5  1  0  0  0  0
 17 22  1  0  0  0  0
 18 17  2  0  0  0  0
 18 19  1  0  0  0  0
 19 24  1  0  0  0  0
 19 20  2  0  0  0  0
 20 21  1  0  0  0  0
 21 25  1  0  0  0  0
 22 21  2  0  0  0  0
 23 18  1  0  0  0  0
 26 28  1  0  0  0  0
 27 26  2  0  0  0  0
 28 29  1  0  0  0  0
 28  6  1  0  0  0  0
 31 30  1  0  0  0  0
 32 31  1  0  0  0  0
 32 26  1  0  0  0  0
 33 32  2  0  0  0  0
 34 33  1  0  0  0  0
 35 37  2  0  0  0  0
 35 33  1  0  0  0  0
 36 35  1  0  0  0  0
 37 39  1  0  0  0  0
 38 37  1  0  0  0  0
 39 40  1  0  0  0  0
 39 31  2  0  0  0  0
M  END
>  <minimizedAffinity>
-5.44569778

$$$$

 OpenBabel03272509323D

 40 42  0  0  1  0  0  0  0  0999 V2000
   38.2670   25.6810   34.0500 C   0  0  2  0  0  0  0  0  0  0  0  0
   39.1900   26.6600   34.7150 C   0  0  0  0  0  0  0  0  0  0  0  0
   40.6520   26.3470   34.4670 C   0  0  0  0  0  0  0  0  0  0  0  0
   40.9890   24.9270   34.9200 C   0  0  0  0  0  0  0  0  0  0  0  0
   39.8740   23.9340   34.6830 C   0  0  0  0  0  0  0  0  0  0  0  0
   38.9880   24.4750   33.5490 C   0  0  1  0  0  0  0  0  0  0  0  0
   37.4720   25.2820   34.7370 H   0  0  0  0  0  0  0  0  0  0  0  0
   39.0640   26.4490   35.8310 H   0  0  0  0  0  0  0  0  0  0  0  0
   38.9720   27.7010   34.6040 H   0  0  0  0  0  0  0  0  0  0  0  0
   41.2490   27.0370   35.0570 H   0  0  0  0  0  0  0  0  0  0  0  0
   40.9070   26.3870   33.3920 H   0  0  0  0  0  0  0  0  0  0  0  0
   41.8880   24.6010   34.3410 H   0  0  0  0  0  0  0  0  0  0  0  0
   41.2570   24.9740   35.9820 H   0  0  0  0  0  0  0  0  0  0  0  0
   39.2370   23.8650   35.5610 H   0  0  0  0  0  0  0  0  0  0  0  0
   40.2400   22.9250   34.4220 H   0  0  0  0  0  0  0  0  0  0  0  0
   39.7230   24.7340   32.8300 H   0  0  0  0  0  0  0  0  0  0  0  0
   37.5390   26.3150   32.9200 C   0  0  0  0  0  0  0  0  0  0  0  0
   38.1090   27.5120   32.4260 C   0  0  0  0  0  0  0  0  0  0  0  0
   37.4390   28.1200   31.3550 C   0  0  0  0  0  0  0  0  0  0  0  0
   36.2960   27.5290   30.8610 N   0  0  0  0  0  0  0  0  0  0  0  0
   35.7920   26.3700   31.3780 C   0  0  0  0  0  0  0  0  0  0  0  0
   36.4310   25.7840   32.4060 N   0  0  0  0  0  0  0  0  0  0  0  0
   38.9830   28.0610   32.7100 H   0  0  0  0  0  0  0  0  0  0  0  0
   37.7430   29.0230   30.8770 H   0  0  0  0  0  0  0  0  0  0  0  0
   34.8930   25.9600   30.9410 H   0  0  0  0  0  0  0  0  0  0  0  0
   37.5490   22.4010   33.4830 C   0  0  0  0  0  0  0  0  0  0  0  0
   37.4040   22.0560   34.7260 O   0  0  0  0  0  0  0  0  0  0  0  0
   38.1740   23.5170   32.8950 N   0  0  0  0  0  0  0  0  0  0  0  0
   37.9300   23.5250   31.8570 H   0  0  0  0  0  0  0  0  0  0  0  0
   38.2270   21.6110   30.5280 Cl  0  0  0  0  0  0  0  0  0  0  0  0
   37.0420   20.8090   31.4900 C   0  0  0  0  0  0  0  0  0  0  0  0
   36.8790   21.2960   32.7520 C   0  0  0  0  0  0  0  0  0  0  0  0
   35.9000   20.5990   33.4840 C   0  0  0  0  0  0  0  0  0  0  0  0
   35.6880   20.9120   34.5210 H   0  0  0  0  0  0  0  0  0  0  0  0
   35.1450   19.5310   33.0450 C   0  0  0  0  0  0  0  0  0  0  0  0
   34.4160   19.0650   33.6940 H   0  0  0  0  0  0  0  0  0  0  0  0
   35.3850   19.1200   31.7620 C   0  0  0  0  0  0  0  0  0  0  0  0
   34.8150   18.2850   31.3700 H   0  0  0  0  0  0  0  0  0  0  0  0
   36.3260   19.7570   30.9960 C   0  0  0  0  0  0  0  0  0  0  0  0
   36.6690   19.2600   29.3440 Cl  0  0  0  0  0  0  0  0  0  0  0  0
  1  2  1  0  0  0  0
  1  7  1  1  0  0  0
  2  8  1  0  0  0  0
  3  2  1  0  0  0  0
  3  4  1  0  0  0  0
  3 10  1  0  0  0  0
  4 13  1  0  0  0  0
  5  4  1  0  0  0  0
  5 14  1  0  0  0  0
  6 16  1  6  0  0  0
  6  1  1  0  0  0  0
  6  5  1  0  0  0  0
  9  2  1  0  0  0  0
 11  3  1  0  0  0  0
 12  4  1  0  0  0  0
 15  5  1  0  0  0  0
 17  1  1  0  0  0  0
 18 23  1  0  0  0  0
 18 17  1  0  0  0  0
 19 18  2  0  0  0  0
 20 19  1  0  0  0  0
 20 21  2  0  0  0  0
 21 22  1  0  0  0  0
 22 17  2  0  0  0  0
 24 19  1  0  0  0  0
 25 21  1  0  0  0  0
 26 27  2  0  0  0  0
 28 26  1  0  0  0  0
 28  6  1  0  0  0  0
 29 28  1  0  0  0  0
 30 31  1  0  0  0  0
 31 32  1  0  0  0  0
 32 26  1  0  0  0  0
 32 33  2  0  0  0  0
 33 34  1  0  0  0  0
 35 33  1  0  0  0  0
 35 36  1  0  0  0  0
 37 35  2  0  0  0  0
 38 37  1  0  0  0  0
 39 31  2  0  0  0  0
 39 37  1  0  0  0  0
 40 39  1  0  0  0  0
M  END
>  <minimizedAffinity>
-5.40533972

$$$$

 OpenBabel03272509323D

 40 42  0  0  1  0  0  0  0  0999 V2000
   38.9590   25.5380   34.9600 C   0  0  2  0  0  0  0  0  0  0  0  0
   38.8680   26.9780   35.3720 C   0  0  0  0  0  0  0  0  0  0  0  0
   37.5250   27.5980   35.0440 C   0  0  0  0  0  0  0  0  0  0  0  0
   37.2160   27.4660   33.5530 C   0  0  0  0  0  0  0  0  0  0  0  0
   37.7060   26.1710   32.9440 C   0  0  0  0  0  0  0  0  0  0  0  0
   37.8320   25.1330   34.0700 C   0  0  1  0  0  0  0  0  0  0  0  0
   39.8900   25.2990   34.3780 H   0  0  0  0  0  0  0  0  0  0  0  0
   39.5850   27.5170   34.6640 H   0  0  0  0  0  0  0  0  0  0  0  0
   39.2050   27.2350   36.3540 H   0  0  0  0  0  0  0  0  0  0  0  0
   37.5750   28.6570   35.2820 H   0  0  0  0  0  0  0  0  0  0  0  0
   36.6960   27.0900   35.5690 H   0  0  0  0  0  0  0  0  0  0  0  0
   36.1040   27.5150   33.4420 H   0  0  0  0  0  0  0  0  0  0  0  0
   37.6550   28.3320   33.0460 H   0  0  0  0  0  0  0  0  0  0  0  0
   38.7050   26.3020   32.5360 H   0  0  0  0  0  0  0  0  0  0  0  0
   37.0400   25.7850   32.1530 H   0  0  0  0  0  0  0  0  0  0  0  0
   36.8950   25.2510   34.5540 H   0  0  0  0  0  0  0  0  0  0  0  0
   38.9860   24.6420   36.1450 C   0  0  0  0  0  0  0  0  0  0  0  0
   38.0290   24.9320   37.1480 C   0  0  0  0  0  0  0  0  0  0  0  0
   38.0360   24.0930   38.2700 C   0  0  0  0  0  0  0  0  0  0  0  0
   38.9500   23.0630   38.3280 N   0  0  0  0  0  0  0  0  0  0  0  0
   39.8510   22.8300   37.3290 C   0  0  0  0  0  0  0  0  0  0  0  0
   39.8480   23.6330   36.2500 N   0  0  0  0  0  0  0  0  0  0  0  0
   37.2700   25.6840   37.2180 H   0  0  0  0  0  0  0  0  0  0  0  0
   37.3800   24.1840   39.1050 H   0  0  0  0  0  0  0  0  0  0  0  0
   40.5380   22.0030   37.4370 H   0  0  0  0  0  0  0  0  0  0  0  0
   38.7480   23.1850   32.7490 C   0  0  0  0  0  0  0  0  0  0  0  0
   39.8400   23.6340   32.2100 O   0  0  0  0  0  0  0  0  0  0  0  0
   37.8490   23.7780   33.6570 N   0  0  0  0  0  0  0  0  0  0  0  0
   37.1710   23.0250   33.9910 H   0  0  0  0  0  0  0  0  0  0  0  0
   36.2780   22.2310   31.0750 Cl  0  0  0  0  0  0  0  0  0  0  0  0
   37.6480   21.2410   31.4190 C   0  0  0  0  0  0  0  0  0  0  0  0
   38.6240   21.8250   32.1680 C   0  0  0  0  0  0  0  0  0  0  0  0
   39.7130   20.9670   32.4120 C   0  0  0  0  0  0  0  0  0  0  0  0
   40.5610   21.3410   33.0100 H   0  0  0  0  0  0  0  0  0  0  0  0
   39.8520   19.6650   31.9770 C   0  0  0  0  0  0  0  0  0  0  0  0
   40.7350   19.0920   32.2220 H   0  0  0  0  0  0  0  0  0  0  0  0
   38.8150   19.1730   31.2320 C   0  0  0  0  0  0  0  0  0  0  0  0
   38.8760   18.1530   30.8680 H   0  0  0  0  0  0  0  0  0  0  0  0
   37.7250   19.9580   30.9580 C   0  0  0  0  0  0  0  0  0  0  0  0
   36.3720   19.3670   30.0030 Cl  0  0  0  0  0  0  0  0  0  0  0  0
  1  7  1  6  0  0  0
  1  2  1  0  0  0  0
  1 17  1  0  0  0  0
  2  9  1  0  0  0  0
  3 10  1  0  0  0  0
  3  2  1  0  0  0  0
  3 11  1  0  0  0  0
  4  3  1  0  0  0  0
  5  4  1  0  0  0  0
  5  6  1  0  0  0  0
  6 16  1  1  0  0  0
  6  1  1  0  0  0  0
  8  2  1  0  0  0  0
 12  4  1  0  0  0  0
 13  4  1  0  0  0  0
 14  5  1  0  0  0  0
 15  5  1  0  0  0  0
 17 22  2  0  0  0  0
 17 18  1  0  0  0  0
 18 23  1  0  0  0  0
 18 19  2  0  0  0  0
 19 20  1  0  0  0  0
 19 24  1  0  0  0  0
 21 25  1  0  0  0  0
 21 20  2  0  0  0  0
 22 21  1  0  0  0  0
 26 28  1  0  0  0  0
 27 26  2  0  0  0  0
 28 29  1  0  0  0  0
 28  6  1  0  0  0  0
 30 31  1  0  0  0  0
 31 32  1  0  0  0  0
 32 33  2  0  0  0  0
 32 26  1  0  0  0  0
 33 34  1  0  0  0  0
 35 36  1  0  0  0  0
 35 33  1  0  0  0  0
 37 35  2  0  0  0  0
 38 37  1  0  0  0  0
 39 37  1  0  0  0  0
 39 31  2  0  0  0  0
 40 39  1  0  0  0  0
M  END
>  <minimizedAffinity>
-5.35039282

$$$$

 OpenBabel03272509323D

 40 42  0  0  1  0  0  0  0  0999 V2000
   33.8490   31.0660   35.8770 C   0  0  2  0  0  0  0  0  0  0  0  0
   33.3820   32.4510   36.2160 C   0  0  0  0  0  0  0  0  0  0  0  0
   34.1170   33.5230   35.4380 C   0  0  0  0  0  0  0  0  0  0  0  0
   35.6260   33.4180   35.6590 C   0  0  0  0  0  0  0  0  0  0  0  0
   36.1220   31.9950   35.7860 C   0  0  0  0  0  0  0  0  0  0  0  0
   35.1120   31.0740   35.0830 C   0  0  1  0  0  0  0  0  0  0  0  0
   34.0770   30.4390   36.7820 H   0  0  0  0  0  0  0  0  0  0  0  0
   33.7420   32.6130   37.2890 H   0  0  0  0  0  0  0  0  0  0  0  0
   32.3270   32.6240   36.2500 H   0  0  0  0  0  0  0  0  0  0  0  0
   33.7920   34.4920   35.8090 H   0  0  0  0  0  0  0  0  0  0  0  0
   33.9650   33.4220   34.3480 H   0  0  0  0  0  0  0  0  0  0  0  0
   36.1220   33.8920   34.7760 H   0  0  0  0  0  0  0  0  0  0  0  0
   35.8710   34.0030   36.5520 H   0  0  0  0  0  0  0  0  0  0  0  0
   36.1340   31.6930   36.8300 H   0  0  0  0  0  0  0  0  0  0  0  0
   37.1270   31.8460   35.3540 H   0  0  0  0  0  0  0  0  0  0  0  0
   34.9860   31.5850   34.1610 H   0  0  0  0  0  0  0  0  0  0  0  0
   32.8080   30.3190   35.1250 C   0  0  0  0  0  0  0  0  0  0  0  0
   32.1390   29.3070   35.8540 C   0  0  0  0  0  0  0  0  0  0  0  0
   31.1500   28.5970   35.1610 C   0  0  0  0  0  0  0  0  0  0  0  0
   30.8940   28.9190   33.8460 N   0  0  0  0  0  0  0  0  0  0  0  0
   31.5710   29.9070   33.1920 C   0  0  0  0  0  0  0  0  0  0  0  0
   32.5230   30.5910   33.8530 N   0  0  0  0  0  0  0  0  0  0  0  0
   32.2360   28.9700   36.8660 H   0  0  0  0  0  0  0  0  0  0  0  0
   30.5620   27.8080   35.5730 H   0  0  0  0  0  0  0  0  0  0  0  0
   31.3190   30.1100   32.1610 H   0  0  0  0  0  0  0  0  0  0  0  0
   35.9880   29.3810   33.4270 C   0  0  0  0  0  0  0  0  0  0  0  0
   36.1650   30.0500   32.3290 O   0  0  0  0  0  0  0  0  0  0  0  0
   35.5990   29.7960   34.7150 N   0  0  0  0  0  0  0  0  0  0  0  0
   35.7350   28.9750   35.3830 H   0  0  0  0  0  0  0  0  0  0  0  0
   37.8250   27.4520   35.0750 Cl  0  0  0  0  0  0  0  0  0  0  0  0
   37.0500   27.0140   33.5990 C   0  0  0  0  0  0  0  0  0  0  0  0
   36.2930   27.9860   33.0190 C   0  0  0  0  0  0  0  0  0  0  0  0
   35.6870   27.5660   31.8200 C   0  0  0  0  0  0  0  0  0  0  0  0
   35.0510   28.2780   31.2680 H   0  0  0  0  0  0  0  0  0  0  0  0
   35.7980   26.3230   31.2310 C   0  0  0  0  0  0  0  0  0  0  0  0
   35.2870   26.1040   30.3040 H   0  0  0  0  0  0  0  0  0  0  0  0
   36.5820   25.4190   31.8930 C   0  0  0  0  0  0  0  0  0  0  0  0
   36.7020   24.4280   31.4690 H   0  0  0  0  0  0  0  0  0  0  0  0
   37.2000   25.7660   33.0670 C   0  0  0  0  0  0  0  0  0  0  0  0
   38.2130   24.6330   33.9520 Cl  0  0  0  0  0  0  0  0  0  0  0  0
  1  2  1  0  0  0  0
  1  7  1  1  0  0  0
  2  9  1  0  0  0  0
  2  8  1  0  0  0  0
  3  4  1  0  0  0  0
  3 10  1  0  0  0  0
  3  2  1  0  0  0  0
  4  5  1  0  0  0  0
  4 13  1  0  0  0  0
  5 14  1  0  0  0  0
  6 16  1  6  0  0  0
  6  5  1  0  0  0  0
  6  1  1  0  0  0  0
 11  3  1  0  0  0  0
 12  4  1  0  0  0  0
 15  5  1  0  0  0  0
 17 18  1  0  0  0  0
 17  1  1  0  0  0  0
 18 23  1  0  0  0  0
 19 24  1  0  0  0  0
 19 18  2  0  0  0  0
 20 19  1  0  0  0  0
 21 20  2  0  0  0  0
 21 22  1  0  0  0  0
 22 17  2  0  0  0  0
 25 21  1  0  0  0  0
 26 28  1  0  0  0  0
 27 26  2  0  0  0  0
 28  6  1  0  0  0  0
 28 29  1  0  0  0  0
 31 30  1  0  0  0  0
 32 26  1  0  0  0  0
 32 31  2  0  0  0  0
 33 32  1  0  0  0  0
 34 33  1  0  0  0  0
 35 33  2  0  0  0  0
 35 37  1  0  0  0  0
 36 35  1  0  0  0  0
 37 39  2  0  0  0  0
 38 37  1  0  0  0  0
 39 31  1  0  0  0  0
 39 40  1  0  0  0  0
M  END
>  <minimizedAffinity>
-5.34255219

$$$$
