
     RDKit          3D

 36 38  0  0  0  0  0  0  0  0999 V2000
   36.4734   29.8852   48.6751 N   0  0  0  0  0  0  0  0  0  0  0  0
   37.5974   30.6438   48.2307 C   0  0  0  0  0  0  0  0  0  0  0  0
   38.1035   31.2883   49.5205 C   0  0  2  0  0  0  0  0  0  0  0  0
   37.1073   30.8957   50.5970 C   0  0  0  0  0  0  0  0  0  0  0  0
   36.7477   29.5217   50.0440 C   0  0  0  0  0  0  0  0  0  0  0  0
   35.2920   29.5374   47.9327 C   0  0  0  0  0  0  0  0  0  0  0  0
   35.2438   29.9999   46.6059 C   0  0  0  0  0  0  0  0  0  0  0  0
   34.0927   29.6645   45.8753 C   0  0  0  0  0  0  0  0  0  0  0  0
   33.1234   28.9246   46.5044 N   0  0  0  0  0  0  0  0  0  0  0  0
   33.2059   28.5061   47.7606 C   0  0  0  0  0  0  0  0  0  0  0  0
   34.3121   28.8222   48.4794 N   0  0  0  0  0  0  0  0  0  0  0  0
   31.9306   27.5575   48.5269 S   0  0  0  0  0  0  0  0  0  0  0  0
   38.2685   32.7767   49.4039 C   0  0  0  0  0  0  0  0  0  0  0  0
   37.0886   33.3399   49.8902 F   0  0  0  0  0  0  0  0  0  0  0  0
   38.3002   33.0889   48.0573 F   0  0  0  0  0  0  0  0  0  0  0  0
   39.3618   33.2616   50.0402 F   0  0  0  0  0  0  0  0  0  0  0  0
   38.3876   30.0381   47.7514 H   0  0  0  0  0  0  0  0  0  0  0  0
   37.2456   31.4586   47.5586 H   0  0  0  0  0  0  0  0  0  0  0  0
   39.1027   30.8742   49.7592 H   0  0  0  0  0  0  0  0  0  0  0  0
   36.2180   31.5494   50.5822 H   0  0  0  0  0  0  0  0  0  0  0  0
   37.5825   30.8344   51.5879 H   0  0  0  0  0  0  0  0  0  0  0  0
   35.8225   29.2214   50.5669 H   0  0  0  0  0  0  0  0  0  0  0  0
   37.5966   28.8312   50.1682 H   0  0  0  0  0  0  0  0  0  0  0  0
   36.0276   30.5820   46.1412 H   0  0  0  0  0  0  0  0  0  0  0  0
   33.9725   29.9759   44.8569 H   0  0  0  0  0  0  0  0  0  0  0  0
   29.8271   25.8110   46.9924 Cl  0  0  0  0  0  0  0  0  0  0  0  0
   31.3125   25.0491   47.5603 C   0  0  0  0  0  0  0  0  0  0  0  0
   32.2519   25.8247   48.2438 C   0  0  0  0  0  0  0  0  0  0  0  0
   33.4126   25.1903   48.6775 C   0  0  0  0  0  0  0  0  0  0  0  0
   34.1314   25.8242   49.2110 H   0  0  0  0  0  0  0  0  0  0  0  0
   33.5968   23.8386   48.4235 C   0  0  0  0  0  0  0  0  0  0  0  0
   34.5313   23.4288   48.7986 H   0  0  0  0  0  0  0  0  0  0  0  0
   32.6782   23.0870   47.7569 C   0  0  0  0  0  0  0  0  0  0  0  0
   32.8811   22.0357   47.5901 H   0  0  0  0  0  0  0  0  0  0  0  0
   31.5203   23.7172   47.3235 C   0  0  0  0  0  0  0  0  0  0  0  0
   30.3100   22.8204   46.4694 Cl  0  0  0  0  0  0  0  0  0  0  0  0
  1  5  1  0
  2  1  1  0
  2  3  1  0
  3  4  1  0
  5  4  1  0
  6 11  1  0
  6  1  1  0
  7  6  2  0
  8  9  2  0
  8  7  1  0
  9 10  1  0
 10 11  2  0
 10 12  1  0
 13  3  1  0
 13 14  1  0
 13 16  1  0
 15 13  1  0
  2 17  1  0
  2 18  1  0
  3 19  1  1
  4 20  1  0
  4 21  1  0
  5 22  1  0
  5 23  1  0
  7 24  1  0
  8 25  1  0
 26 27  1  0
 27 28  2  0
 28 29  1  0
 29 30  1  0
 29 31  2  0
 31 32  1  0
 31 33  1  0
 33 34  1  0
 33 35  2  0
 35 36  1  0
 35 27  1  0
 12 28  1  0
M  ISO  8  17  13  18  13  19  13  20  13  21  13  22  13  23  13  24  14
M  ISO  4  25  14  30  15  32  15  34  15
M  END
>  <DihAtoms>  (1) 
9,11,27,26

>  <DihDeg>  (1) 
-90.07980402442942

$$$$
