
 OpenBabel03272508573D

 42 45  0  0  1  0  0  0  0  0999 V2000
   39.1450   31.4980   43.3520 C   0  0  0  0  0  0  0  0  0  0  0  0
   40.1220   30.5520   43.4860 C   0  0  0  0  0  0  0  0  0  0  0  0
   40.8340   30.1980   42.3530 C   0  0  0  0  0  0  0  0  0  0  0  0
   40.5180   30.8130   41.1670 C   0  0  0  0  0  0  0  0  0  0  0  0
   39.5310   31.7700   41.0260 C   0  0  0  0  0  0  0  0  0  0  0  0
   38.8810   32.0680   42.1580 N   0  0  0  0  0  0  0  0  0  0  0  0
   40.3600   30.0750   44.4300 H   0  0  0  0  0  0  0  0  0  0  0  0
   41.6130   29.4580   42.4130 H   0  0  0  0  0  0  0  0  0  0  0  0
   41.1050   30.5000   40.3120 H   0  0  0  0  0  0  0  0  0  0  0  0
   38.3710   31.8950   44.5440 C   0  0  0  0  0  0  0  0  0  0  0  0
   37.2480   32.4410   44.4350 O   0  0  0  0  0  0  0  0  0  0  0  0
   38.9470   31.6370   45.8500 N   0  0  0  0  0  0  0  0  0  0  0  0
   39.9330   31.3920   45.9910 H   0  0  0  0  0  0  0  0  0  0  0  0
   38.4370   31.1100   48.2190 C   0  0  2  0  0  0  0  0  0  0  0  0
   38.6810   32.5730   48.1470 C   0  0  0  0  0  0  0  0  0  0  0  0
   38.0720   31.7340   46.9900 C   0  0  1  0  0  0  0  0  0  0  0  0
   39.3750   30.5230   48.3180 H   0  0  0  0  0  0  0  0  0  0  0  0
   39.6880   32.9680   48.0220 H   0  0  0  0  0  0  0  0  0  0  0  0
   37.9730   33.1860   48.7460 H   0  0  0  0  0  0  0  0  0  0  0  0
   36.9950   31.9760   46.7950 H   0  0  0  0  0  0  0  0  0  0  0  0
   35.0630   30.2350   49.5260 C   0  0  0  0  0  0  0  0  0  0  0  0
   35.3960   29.5530   50.7390 C   0  0  0  0  0  0  0  0  0  0  0  0
   36.7890   29.4160   51.0880 C   0  0  0  0  0  0  0  0  0  0  0  0
   37.7440   29.9380   50.2550 N   0  0  0  0  0  0  0  0  0  0  0  0
   37.3550   30.5700   49.1270 C   0  0  0  0  0  0  0  0  0  0  0  0
   36.0320   30.7350   48.7340 N   0  0  0  0  0  0  0  0  0  0  0  0
   34.0110   30.3170   49.2980 H   0  0  0  0  0  0  0  0  0  0  0  0
   34.6650   29.1380   51.4020 H   0  0  0  0  0  0  0  0  0  0  0  0
   37.0370   28.9020   52.0030 H   0  0  0  0  0  0  0  0  0  0  0  0
   39.2470   32.3840   39.7350 C   0  0  0  0  0  0  0  0  0  0  0  0
   38.6710   33.5180   39.7330 O   0  0  0  0  0  0  0  0  0  0  0  0
   37.0880   30.5700   38.7320 Cl  0  0  0  0  0  0  0  0  0  0  0  0
   38.5850   30.9780   37.9310 C   0  0  0  0  0  0  0  0  0  0  0  0
   39.5610   31.8240   38.4310 C   0  0  0  0  0  0  0  0  0  0  0  0
   40.7180   32.0960   37.7320 C   0  0  0  0  0  0  0  0  0  0  0  0
   41.4160   32.7610   38.1950 H   0  0  0  0  0  0  0  0  0  0  0  0
   40.8670   31.4850   36.5050 C   0  0  0  0  0  0  0  0  0  0  0  0
   41.7790   31.7040   35.9630 H   0  0  0  0  0  0  0  0  0  0  0  0
   39.9290   30.6360   35.9630 C   0  0  0  0  0  0  0  0  0  0  0  0
   40.0820   30.1780   34.9980 H   0  0  0  0  0  0  0  0  0  0  0  0
   38.7720   30.3810   36.6860 C   0  0  0  0  0  0  0  0  0  0  0  0
   37.6080   29.2970   35.9580 Cl  0  0  0  0  0  0  0  0  0  0  0  0
  1  2  1  0  0  0  0
  1 10  1  0  0  0  0
  2  7  1  0  0  0  0
  3  8  1  0  0  0  0
  3  2  2  0  0  0  0
  4  3  1  0  0  0  0
  5  4  2  0  0  0  0
  5  6  1  0  0  0  0
  6  1  2  0  0  0  0
  9  4  1  0  0  0  0
 10 12  1  0  0  0  0
 11 10  2  0  0  0  0
 12 13  1  0  0  0  0
 12 16  1  0  0  0  0
 14 17  1  6  0  0  0
 14 25  1  0  0  0  0
 15 14  1  0  0  0  0
 15 19  1  0  0  0  0
 16 20  1  6  0  0  0
 16 15  1  0  0  0  0
 16 14  1  0  0  0  0
 18 15  1  0  0  0  0
 21 22  1  0  0  0  0
 22 23  2  0  0  0  0
 22 28  1  0  0  0  0
 23 29  1  0  0  0  0
 24 23  1  0  0  0  0
 25 24  2  0  0  0  0
 26 25  1  0  0  0  0
 26 21  2  0  0  0  0
 27 21  1  0  0  0  0
 30  5  1  0  0  0  0
 31 30  2  0  0  0  0
 33 34  1  0  0  0  0
 33 32  1  0  0  0  0
 34 30  1  0  0  0  0
 35 36  1  0  0  0  0
 35 34  2  0  0  0  0
 37 35  1  0  0  0  0
 38 37  1  0  0  0  0
 39 37  2  0  0  0  0
 39 41  1  0  0  0  0
 40 39  1  0  0  0  0
 41 33  2  0  0  0  0
 42 41  1  0  0  0  0
M  END
>  <minimizedAffinity>
-4.96557999

>  <minimizedRMSD>
0.621320426

$$$$
