
 OpenBabel03262522233D

 34 36  0  0  0  0  0  0  0  0999 V2000
   37.1880   29.7050   49.1780 C   0  0  0  0  0  0  0  0  0  0  0  0
   37.2400   30.5160   48.0260 C   0  0  0  0  0  0  0  0  0  0  0  0
   36.1240   30.5530   47.2040 C   0  0  0  0  0  0  0  0  0  0  0  0
   35.0480   29.8040   47.5600 N   0  0  0  0  0  0  0  0  0  0  0  0
   35.0430   29.0590   48.6460 C   0  0  0  0  0  0  0  0  0  0  0  0
   36.1140   28.9720   49.5100 N   0  0  0  0  0  0  0  0  0  0  0  0
   38.0030   29.6130   49.8730 H   0  0  0  0  0  0  0  0  0  0  0  0
   36.1760   31.1690   46.3390 H   0  0  0  0  0  0  0  0  0  0  0  0
   38.4100   31.1940   47.8410 O   0  0  0  0  0  0  0  0  0  0  0  0
   38.9400   31.2380   46.5470 C   0  0  0  0  0  0  0  0  0  0  0  0
   39.1260   30.2020   45.6890 C   0  0  0  0  0  0  0  0  0  0  0  0
   39.6580   30.4220   44.4590 C   0  0  0  0  0  0  0  0  0  0  0  0
   40.0030   31.7060   44.1030 C   0  0  0  0  0  0  0  0  0  0  0  0
   39.8100   32.7550   44.9820 C   0  0  0  0  0  0  0  0  0  0  0  0
   39.2720   32.4820   46.2060 N   0  0  0  0  0  0  0  0  0  0  0  0
   38.8150   29.2350   46.0840 H   0  0  0  0  0  0  0  0  0  0  0  0
   39.7960   29.5890   43.7980 H   0  0  0  0  0  0  0  0  0  0  0  0
   40.4290   31.8960   43.1240 H   0  0  0  0  0  0  0  0  0  0  0  0
   40.1880   34.1660   44.5960 C   0  0  0  0  0  0  0  0  0  0  0  0
   40.9480   34.4940   45.3280 H   0  0  0  0  0  0  0  0  0  0  0  0
   40.6600   34.1200   43.6170 H   0  0  0  0  0  0  0  0  0  0  0  0
   39.2920   34.8130   44.5630 H   0  0  0  0  0  0  0  0  0  0  0  0
   33.4660   28.1850   48.8630 S   0  0  0  0  0  0  0  0  0  0  0  0
   34.1430   25.5900   47.1040 Cl  0  0  0  0  0  0  0  0  0  0  0  0
   32.9650   26.7300   46.5350 C   0  0  0  0  0  0  0  0  0  0  0  0
   32.6960   27.8330   47.3100 C   0  0  0  0  0  0  0  0  0  0  0  0
   31.7650   28.7600   46.8890 C   0  0  0  0  0  0  0  0  0  0  0  0
   31.4940   29.6500   47.4330 H   0  0  0  0  0  0  0  0  0  0  0  0
   31.1300   28.5250   45.6650 C   0  0  0  0  0  0  0  0  0  0  0  0
   30.3910   29.1700   45.2340 H   0  0  0  0  0  0  0  0  0  0  0  0
   31.4060   27.4210   44.9000 C   0  0  0  0  0  0  0  0  0  0  0  0
   30.9310   27.2130   43.9510 H   0  0  0  0  0  0  0  0  0  0  0  0
   32.3350   26.4870   45.3130 C   0  0  0  0  0  0  0  0  0  0  0  0
   32.7420   25.0590   44.3960 Cl  0  0  0  0  0  0  0  0  0  0  0  0
  1  6  1  0  0  0  0
  1  7  1  0  0  0  0
  2  1  2  0  0  0  0
  3  4  2  0  0  0  0
  3  2  1  0  0  0  0
  4  5  1  0  0  0  0
  5 23  1  0  0  0  0
  5  6  2  0  0  0  0
  8  3  1  0  0  0  0
  9  2  1  0  0  0  0
 10  9  1  0  0  0  0
 11 16  1  0  0  0  0
 11 10  2  0  0  0  0
 12 11  1  0  0  0  0
 13 12  2  0  0  0  0
 13 14  1  0  0  0  0
 14 15  2  0  0  0  0
 15 10  1  0  0  0  0
 17 12  1  0  0  0  0
 18 13  1  0  0  0  0
 19 14  1  0  0  0  0
 19 20  1  0  0  0  0
 21 19  1  0  0  0  0
 22 19  1  0  0  0  0
 25 24  1  0  0  0  0
 25 26  1  0  0  0  0
 26 23  1  0  0  0  0
 27 26  2  0  0  0  0
 27 28  1  0  0  0  0
 29 27  1  0  0  0  0
 30 29  1  0  0  0  0
 31 33  1  0  0  0  0
 31 29  2  0  0  0  0
 32 31  1  0  0  0  0
 33 25  2  0  0  0  0
 34 33  1  0  0  0  0
M  END
>  <minimizedAffinity>
-4.66956854

>  <minimizedRMSD>
3.41185379

$$$$
