
 OpenBabel03272508513D

 31 33  0  0  1  0  0  0  0  0999 V2000
   38.5530   30.6910   46.1960 C   0  0  2  0  0  0  0  0  0  0  0  0
   37.1780   30.2220   46.3400 C   0  0  0  0  0  0  0  0  0  0  0  0
   37.8570   31.1040   47.4050 C   0  0  1  0  0  0  0  0  0  0  0  0
   39.3760   29.9120   46.2950 H   0  0  0  0  0  0  0  0  0  0  0  0
   36.9220   29.1810   46.6000 H   0  0  0  0  0  0  0  0  0  0  0  0
   36.4160   30.7650   45.7520 H   0  0  0  0  0  0  0  0  0  0  0  0
   37.3950   32.0720   47.5520 H   0  0  0  0  0  0  0  0  0  0  0  0
   40.0500   33.7200   44.6550 C   0  0  0  0  0  0  0  0  0  0  0  0
   39.6650   33.5550   43.2930 C   0  0  0  0  0  0  0  0  0  0  0  0
   38.9150   32.4260   42.9450 C   0  0  0  0  0  0  0  0  0  0  0  0
   38.5780   31.5290   43.9110 N   0  0  0  0  0  0  0  0  0  0  0  0
   38.9530   31.7070   45.1890 C   0  0  0  0  0  0  0  0  0  0  0  0
   39.6940   32.7940   45.6030 N   0  0  0  0  0  0  0  0  0  0  0  0
   40.6330   34.5790   44.9580 H   0  0  0  0  0  0  0  0  0  0  0  0
   39.9390   34.2680   42.5530 H   0  0  0  0  0  0  0  0  0  0  0  0
   38.5820   32.2240   41.9340 H   0  0  0  0  0  0  0  0  0  0  0  0
   37.0690   29.9480   49.4410 C   0  0  0  0  0  0  0  0  0  0  0  0
   35.8960   30.0450   49.0070 O   0  0  0  0  0  0  0  0  0  0  0  0
   38.1880   30.3870   48.6420 N   0  0  0  0  0  0  0  0  0  0  0  0
   39.2000   30.2560   48.8440 H   0  0  0  0  0  0  0  0  0  0  0  0
   38.4690   27.2160   49.6120 Cl  0  0  0  0  0  0  0  0  0  0  0  0
   38.1740   28.2430   51.0150 C   0  0  0  0  0  0  0  0  0  0  0  0
   37.5380   29.4210   50.7100 C   0  0  0  0  0  0  0  0  0  0  0  0
   37.3180   30.2130   51.8570 C   0  0  0  0  0  0  0  0  0  0  0  0
   36.8050   31.1800   51.6900 H   0  0  0  0  0  0  0  0  0  0  0  0
   37.6540   29.9470   53.1950 C   0  0  0  0  0  0  0  0  0  0  0  0
   37.4740   30.5700   54.0470 H   0  0  0  0  0  0  0  0  0  0  0  0
   38.2770   28.7110   53.2180 C   0  0  0  0  0  0  0  0  0  0  0  0
   38.5850   28.4050   54.2370 H   0  0  0  0  0  0  0  0  0  0  0  0
   38.5800   27.8070   52.2460 C   0  0  0  0  0  0  0  0  0  0  0  0
   39.3830   26.2850   52.5100 Cl  0  0  0  0  0  0  0  0  0  0  0  0
  1  4  1  1  0  0  0
  1  2  1  0  0  0  0
  1  3  1  0  0  0  0
  2  5  1  0  0  0  0
  2  3  1  0  0  0  0
  3  7  1  1  0  0  0
  3 19  1  0  0  0  0
  6  2  1  0  0  0  0
  8 14  1  0  0  0  0
  8 13  1  0  0  0  0
  9  8  2  0  0  0  0
 10  9  1  0  0  0  0
 10 11  2  0  0  0  0
 11 12  1  0  0  0  0
 12 13  2  0  0  0  0
 12  1  1  0  0  0  0
 15  9  1  0  0  0  0
 16 10  1  0  0  0  0
 17 23  1  0  0  0  0
 18 17  2  0  0  0  0
 19 20  1  0  0  0  0
 19 17  1  0  0  0  0
 21 22  1  0  0  0  0
 22 30  1  0  0  0  0
 23 22  2  0  0  0  0
 23 24  1  0  0  0  0
 24 26  2  0  0  0  0
 25 24  1  0  0  0  0
 26 28  1  0  0  0  0
 26 27  1  0  0  0  0
 28 29  1  0  0  0  0
 30 31  1  0  0  0  0
 30 28  2  0  0  0  0
M  END
>  <minimizedAffinity>
2.2341907

>  <minimizedRMSD>
1.51632285

$$$$
