
 OpenBabel03272509313D

 40 42  0  0  1  0  0  0  0  0999 V2000
   36.0100   30.5880   48.7900 C   0  0  2  0  0  0  0  0  0  0  0  0
   36.8670   31.4220   49.6970 C   0  0  0  0  0  0  0  0  0  0  0  0
   37.6410   30.5900   50.6990 C   0  0  0  0  0  0  0  0  0  0  0  0
   36.6970   29.7240   51.5320 C   0  0  0  0  0  0  0  0  0  0  0  0
   35.5120   29.1980   50.7540 C   0  0  0  0  0  0  0  0  0  0  0  0
   35.8900   29.1780   49.2650 C   0  0  1  0  0  0  0  0  0  0  0  0
   34.9520   30.9600   48.7110 H   0  0  0  0  0  0  0  0  0  0  0  0
   36.1180   31.9860   50.3500 H   0  0  0  0  0  0  0  0  0  0  0  0
   37.4700   32.1830   49.2480 H   0  0  0  0  0  0  0  0  0  0  0  0
   38.1560   31.2680   51.3740 H   0  0  0  0  0  0  0  0  0  0  0  0
   38.3360   29.8870   50.2040 H   0  0  0  0  0  0  0  0  0  0  0  0
   37.2930   28.8540   51.9070 H   0  0  0  0  0  0  0  0  0  0  0  0
   36.3730   30.3200   52.3920 H   0  0  0  0  0  0  0  0  0  0  0  0
   34.6700   29.8800   50.8460 H   0  0  0  0  0  0  0  0  0  0  0  0
   35.1970   28.1890   51.0730 H   0  0  0  0  0  0  0  0  0  0  0  0
   36.8380   28.7030   49.3070 H   0  0  0  0  0  0  0  0  0  0  0  0
   36.5400   30.5890   47.4030 C   0  0  0  0  0  0  0  0  0  0  0  0
   37.9210   30.8760   47.2790 C   0  0  0  0  0  0  0  0  0  0  0  0
   38.4390   30.8740   45.9770 C   0  0  0  0  0  0  0  0  0  0  0  0
   37.5950   30.6000   44.9230 N   0  0  0  0  0  0  0  0  0  0  0  0
   36.2690   30.3290   45.1020 C   0  0  0  0  0  0  0  0  0  0  0  0
   35.7670   30.3300   46.3500 N   0  0  0  0  0  0  0  0  0  0  0  0
   38.6760   31.0920   48.0070 H   0  0  0  0  0  0  0  0  0  0  0  0
   39.4550   31.0720   45.7240 H   0  0  0  0  0  0  0  0  0  0  0  0
   35.6640   30.1200   44.2310 H   0  0  0  0  0  0  0  0  0  0  0  0
   33.7630   27.9630   48.6520 C   0  0  0  0  0  0  0  0  0  0  0  0
   32.8770   28.3990   49.4940 O   0  0  0  0  0  0  0  0  0  0  0  0
   35.1060   28.3320   48.4430 N   0  0  0  0  0  0  0  0  0  0  0  0
   35.4430   27.8630   47.5450 H   0  0  0  0  0  0  0  0  0  0  0  0
   30.7400   28.1990   47.8670 Cl  0  0  0  0  0  0  0  0  0  0  0  0
   31.7330   26.8450   47.4730 C   0  0  0  0  0  0  0  0  0  0  0  0
   33.0240   26.9150   47.9040 C   0  0  0  0  0  0  0  0  0  0  0  0
   33.7810   25.7830   47.5510 C   0  0  0  0  0  0  0  0  0  0  0  0
   34.8420   25.7380   47.8500 H   0  0  0  0  0  0  0  0  0  0  0  0
   33.3390   24.6800   46.8490 C   0  0  0  0  0  0  0  0  0  0  0  0
   34.0080   23.8600   46.6300 H   0  0  0  0  0  0  0  0  0  0  0  0
   32.0270   24.7070   46.4640 C   0  0  0  0  0  0  0  0  0  0  0  0
   31.6300   23.8630   45.9110 H   0  0  0  0  0  0  0  0  0  0  0  0
   31.2350   25.7820   46.7760 C   0  0  0  0  0  0  0  0  0  0  0  0
   29.5450   25.8600   46.2980 Cl  0  0  0  0  0  0  0  0  0  0  0  0
  1  7  1  6  0  0  0
  1  6  1  0  0  0  0
  1  2  1  0  0  0  0
  2  8  1  0  0  0  0
  2  3  1  0  0  0  0
  3 10  1  0  0  0  0
  3  4  1  0  0  0  0
  4 12  1  0  0  0  0
  4 13  1  0  0  0  0
  5 14  1  0  0  0  0
  5 15  1  0  0  0  0
  5  4  1  0  0  0  0
  6 16  1  6  0  0  0
  6  5  1  0  0  0  0
  9  2  1  0  0  0  0
 11  3  1  0  0  0  0
 17  1  1  0  0  0  0
 18 17  1  0  0  0  0
 18 23  1  0  0  0  0
 19 18  2  0  0  0  0
 20 21  2  0  0  0  0
 20 19  1  0  0  0  0
 21 22  1  0  0  0  0
 22 17  2  0  0  0  0
 24 19  1  0  0  0  0
 25 21  1  0  0  0  0
 26 27  2  0  0  0  0
 28 26  1  0  0  0  0
 28  6  1  0  0  0  0
 29 28  1  0  0  0  0
 31 30  1  0  0  0  0
 31 32  1  0  0  0  0
 32 26  1  0  0  0  0
 33 34  1  0  0  0  0
 33 32  2  0  0  0  0
 35 33  1  0  0  0  0
 36 35  1  0  0  0  0
 37 39  1  0  0  0  0
 37 35  2  0  0  0  0
 38 37  1  0  0  0  0
 39 31  2  0  0  0  0
 40 39  1  0  0  0  0
M  END
>  <minimizedAffinity>
-6.09673262

>  <minimizedRMSD>
0.837399065

$$$$
