
 OpenBabel03272502023D

 44 48  0  0  0  0  0  0  0  0999 V2000
   34.3560   28.0790   48.1390 C   0  0  0  0  0  0  0  0  0  0  0  0
   34.7560   27.0770   47.9220 H   0  0  0  0  0  0  0  0  0  0  0  0
   34.8370   28.9030   47.5710 H   0  0  0  0  0  0  0  0  0  0  0  0
   32.8790   28.1640   47.8110 C   0  0  0  0  0  0  0  0  0  0  0  0
   31.8540   27.3790   48.2820 C   0  0  0  0  0  0  0  0  0  0  0  0
   30.6640   27.8120   47.7100 C   0  0  0  0  0  0  0  0  0  0  0  0
   31.0120   28.8470   46.9090 N   0  0  0  0  0  0  0  0  0  0  0  0
   32.3080   29.0410   46.9770 N   0  0  0  0  0  0  0  0  0  0  0  0
   28.6500   29.2970   46.2030 N   0  0  0  0  0  0  0  0  0  0  0  0
   29.9800   29.5010   46.1800 C   0  0  0  0  0  0  0  0  0  0  0  0
   30.2030   30.5050   45.2810 N   0  0  0  0  0  0  0  0  0  0  0  0
   29.0430   30.9140   44.7600 C   0  0  0  0  0  0  0  0  0  0  0  0
   28.7710   31.8920   43.8260 C   0  0  0  0  0  0  0  0  0  0  0  0
   27.4910   32.1020   43.4710 N   0  0  0  0  0  0  0  0  0  0  0  0
   26.5050   31.3630   44.0290 C   0  0  0  0  0  0  0  0  0  0  0  0
   26.7810   30.4020   44.9510 N   0  0  0  0  0  0  0  0  0  0  0  0
   28.0490   30.1570   45.3360 C   0  0  0  0  0  0  0  0  0  0  0  0
   31.9810   26.5710   48.9780 H   0  0  0  0  0  0  0  0  0  0  0  0
   29.7110   27.3350   47.9380 H   0  0  0  0  0  0  0  0  0  0  0  0
   28.1540   28.5910   46.7910 H   0  0  0  0  0  0  0  0  0  0  0  0
   29.5460   32.5000   43.3610 H   0  0  0  0  0  0  0  0  0  0  0  0
   25.4760   31.5400   43.7380 H   0  0  0  0  0  0  0  0  0  0  0  0
   34.4510   28.3250   49.6150 C   0  0  0  0  0  0  0  0  0  0  0  0
   34.4470   27.3710   50.2060 H   0  0  0  0  0  0  0  0  0  0  0  0
   33.5790   28.9100   49.9940 H   0  0  0  0  0  0  0  0  0  0  0  0
   37.1980   29.9930   51.4610 C   0  0  0  0  0  0  0  0  0  0  0  0
   37.8830   30.6230   50.4100 C   0  0  0  0  0  0  0  0  0  0  0  0
   37.4080   30.4740   49.0720 C   0  0  0  0  0  0  0  0  0  0  0  0
   36.3040   29.7250   48.8710 N   0  0  0  0  0  0  0  0  0  0  0  0
   35.6660   29.1290   49.9250 C   0  0  0  0  0  0  0  0  0  0  0  0
   36.1070   29.2630   51.1780 N   0  0  0  0  0  0  0  0  0  0  0  0
   37.4350   30.0150   52.4940 H   0  0  0  0  0  0  0  0  0  0  0  0
   38.7100   31.1440   50.8210 H   0  0  0  0  0  0  0  0  0  0  0  0
   38.5670   33.2640   49.7270 Cl  0  0  0  0  0  0  0  0  0  0  0  0
   38.7930   32.3830   48.2550 C   0  0  0  0  0  0  0  0  0  0  0  0
   38.2250   31.1500   48.0840 C   0  0  0  0  0  0  0  0  0  0  0  0
   38.4990   30.6130   46.8480 C   0  0  0  0  0  0  0  0  0  0  0  0
   38.1370   29.6470   46.5400 H   0  0  0  0  0  0  0  0  0  0  0  0
   39.2420   31.2160   45.8910 C   0  0  0  0  0  0  0  0  0  0  0  0
   39.4440   30.7800   44.9250 H   0  0  0  0  0  0  0  0  0  0  0  0
   39.7960   32.4560   46.0990 C   0  0  0  0  0  0  0  0  0  0  0  0
   40.3910   32.9460   45.3400 H   0  0  0  0  0  0  0  0  0  0  0  0
   39.5580   33.0520   47.3250 C   0  0  0  0  0  0  0  0  0  0  0  0
   40.2660   34.6360   47.5940 Cl  0  0  0  0  0  0  0  0  0  0  0  0
  1 23  1  0  0  0  0
  2  1  1  0  0  0  0
  3  1  1  0  0  0  0
  4  1  1  0  0  0  0
  4  5  1  0  0  0  0
  5 18  1  0  0  0  0
  6 19  1  0  0  0  0
  6  5  2  0  0  0  0
  7  8  1  0  0  0  0
  7  6  1  0  0  0  0
  8  4  2  0  0  0  0
  9 20  1  0  0  0  0
 10  9  1  0  0  0  0
 10  7  1  0  0  0  0
 11 10  2  0  0  0  0
 12 11  1  0  0  0  0
 12 17  1  0  0  0  0
 13 12  2  0  0  0  0
 14 13  1  0  0  0  0
 14 15  2  0  0  0  0
 15 16  1  0  0  0  0
 16 17  2  0  0  0  0
 17  9  1  0  0  0  0
 21 13  1  0  0  0  0
 22 15  1  0  0  0  0
 23 30  1  0  0  0  0
 23 25  1  0  0  0  0
 23 24  1  0  0  0  0
 26 32  1  0  0  0  0
 27 33  1  0  0  0  0
 27 26  2  0  0  0  0
 28 27  1  0  0  0  0
 29 28  2  0  0  0  0
 29 30  1  0  0  0  0
 30 31  2  0  0  0  0
 31 26  1  0  0  0  0
 35 34  1  0  0  0  0
 36 35  1  0  0  0  0
 36 28  1  0  0  0  0
 37 36  2  0  0  0  0
 38 37  1  0  0  0  0
 39 41  2  0  0  0  0
 39 37  1  0  0  0  0
 40 39  1  0  0  0  0
 41 43  1  0  0  0  0
 42 41  1  0  0  0  0
 43 44  1  0  0  0  0
 43 35  2  0  0  0  0
M  END
>  <minimizedAffinity>
-7.56846809

>  <minimizedRMSD>
0.407399446

$$$$
