REMARK  Name = 
REMARK  2 active torsions:
REMARK  status: ('A' for Active; 'I' for Inactive)
REMARK    1  A    between atoms: C_5  and  C_7
REMARK    2  A    between atoms: C_11  and  C_21
REMARK                            x       y       z     vdW  Elec       q    Type
REMARK                         _______ _______ _______ _____ _____    ______ ____
ROOT
ATOM      1  C   UNL     1      35.927  30.258  48.574  0.00  0.00    +0.000 A 
ATOM      2  C   UNL     1      35.928  29.305  49.586  0.00  0.00    +0.000 A 
ATOM      3  C   UNL     1      34.940  28.343  49.654  0.00  0.00    +0.000 A 
ATOM      4  C   UNL     1      33.970  28.380  48.683  0.00  0.00    +0.000 A 
ATOM      5  C   UNL     1      33.954  29.323  47.669  0.00  0.00    +0.000 A 
ATOM      6  N   UNL     1      34.953  30.265  47.631  0.00  0.00    +0.000 NA
ATOM      7  H   UNL     1      36.744  29.354  50.317  0.00  0.00    +0.000 HD
ATOM      8  H   UNL     1      34.978  27.625  50.452  0.00  0.00    +0.000 HD
ATOM      9  H   UNL     1      33.204  27.626  48.746  0.00  0.00    +0.000 HD
ENDROOT
BRANCH   5  12
ATOM     10 CL   UNL     1      34.968  29.715  44.858  0.00  0.00    +0.000 Cl
ATOM     11  C   UNL     1      33.267  29.534  45.317  0.00  0.00    +0.000 A 
ATOM     12  C   UNL     1      32.923  29.359  46.640  0.00  0.00    +0.000 A 
ATOM     13  C   UNL     1      31.576  29.228  46.893  0.00  0.00    +0.000 A 
ATOM     14  H   UNL     1      31.237  29.089  47.898  0.00  0.00    +0.000 HD
ATOM     15  C   UNL     1      30.594  29.261  45.929  0.00  0.00    +0.000 A 
ATOM     16  H   UNL     1      29.539  29.153  46.167  0.00  0.00    +0.000 HD
ATOM     17  C   UNL     1      30.977  29.439  44.603  0.00  0.00    +0.000 A 
ATOM     18  H   UNL     1      30.293  29.478  43.783  0.00  0.00    +0.000 HD
ATOM     19  C   UNL     1      32.318  29.575  44.306  0.00  0.00    +0.000 A 
ATOM     20 CL   UNL     1      32.843  29.802  42.635  0.00  0.00    +0.000 Cl
ENDBRANCH   5  12
BRANCH   1  25
ATOM     21  C   UNL     1      38.062  33.081  49.504  0.00  0.00    +0.000 A 
ATOM     22  C   UNL     1      38.971  33.150  48.423  0.00  0.00    +0.000 A 
ATOM     23  C   UNL     1      38.833  32.213  47.380  0.00  0.00    +0.000 A 
ATOM     24  N   UNL     1      37.826  31.314  47.506  0.00  0.00    +0.000 NA
ATOM     25  C   UNL     1      36.976  31.260  48.530  0.00  0.00    +0.000 A 
ATOM     26  N   UNL     1      37.113  32.148  49.510  0.00  0.00    +0.000 NA
ATOM     27  H   UNL     1      38.165  33.811  50.322  0.00  0.00    +0.000 HD
ATOM     28  H   UNL     1      39.758  33.886  48.370  0.00  0.00    +0.000 HD
ATOM     29  H   UNL     1      39.507  32.251  46.562  0.00  0.00    +0.000 HD
ENDBRANCH   1  25
TORSDOF 2
