
 OpenBabel03272503203D

 37 40  0  0  0  0  0  0  0  0999 V2000
   35.7840   29.0330   50.3400 C   0  0  0  0  0  0  0  0  0  0  0  0
   36.5490   29.7940   49.4390 C   0  0  0  0  0  0  0  0  0  0  0  0
   36.0640   29.9380   48.1240 C   0  0  0  0  0  0  0  0  0  0  0  0
   34.9130   29.3570   47.7870 N   0  0  0  0  0  0  0  0  0  0  0  0
   34.2050   28.6310   48.6840 C   0  0  0  0  0  0  0  0  0  0  0  0
   34.6340   28.4750   49.9340 N   0  0  0  0  0  0  0  0  0  0  0  0
   36.2290   28.9740   51.3250 H   0  0  0  0  0  0  0  0  0  0  0  0
   37.4740   30.2900   49.6250 H   0  0  0  0  0  0  0  0  0  0  0  0
   34.1140   27.5540   45.8280 Cl  0  0  0  0  0  0  0  0  0  0  0  0
   32.8060   27.5030   46.9830 C   0  0  0  0  0  0  0  0  0  0  0  0
   32.9520   28.0190   48.2530 C   0  0  0  0  0  0  0  0  0  0  0  0
   31.8840   27.9510   49.1230 C   0  0  0  0  0  0  0  0  0  0  0  0
   32.0250   28.3650   50.1170 H   0  0  0  0  0  0  0  0  0  0  0  0
   30.6590   27.3890   48.8000 C   0  0  0  0  0  0  0  0  0  0  0  0
   29.8410   27.3440   49.4900 H   0  0  0  0  0  0  0  0  0  0  0  0
   30.5800   26.8880   47.5090 C   0  0  0  0  0  0  0  0  0  0  0  0
   29.6090   26.4400   47.2510 H   0  0  0  0  0  0  0  0  0  0  0  0
   31.6170   26.9260   46.5870 C   0  0  0  0  0  0  0  0  0  0  0  0
   31.3400   26.2440   44.9980 Cl  0  0  0  0  0  0  0  0  0  0  0  0
   36.8120   30.7200   47.1340 C   0  0  0  0  0  0  0  0  0  0  0  0
   37.7410   31.6680   47.2540 C   0  0  0  0  0  0  0  0  0  0  0  0
   38.2690   32.2250   46.1570 C   0  0  0  0  0  0  0  0  0  0  0  0
   37.8160   31.7810   44.9300 C   0  0  0  0  0  0  0  0  0  0  0  0
   36.5890   30.5180   45.4030 S   0  0  0  0  0  0  0  0  0  0  0  0
   38.0400   31.9580   48.2570 H   0  0  0  0  0  0  0  0  0  0  0  0
   39.0250   32.9990   46.1010 H   0  0  0  0  0  0  0  0  0  0  0  0
   40.6220   31.0060   44.0080 Cl  0  0  0  0  0  0  0  0  0  0  0  0
   39.3730   31.8100   43.0830 C   0  0  0  0  0  0  0  0  0  0  0  0
   38.1340   32.1270   43.5630 C   0  0  0  0  0  0  0  0  0  0  0  0
   37.1540   32.7430   42.8780 C   0  0  0  0  0  0  0  0  0  0  0  0
   37.3900   33.1080   41.5510 C   0  0  0  0  0  0  0  0  0  0  0  0
   38.6150   32.8200   41.0010 C   0  0  0  0  0  0  0  0  0  0  0  0
   38.9700   33.2540   39.3370 Cl  0  0  0  0  0  0  0  0  0  0  0  0
   39.6130   32.1740   41.7520 C   0  0  0  0  0  0  0  0  0  0  0  0
   36.1700   32.9950   43.2630 H   0  0  0  0  0  0  0  0  0  0  0  0
   36.6400   33.6050   40.9530 H   0  0  0  0  0  0  0  0  0  0  0  0
   40.5820   31.9430   41.3280 H   0  0  0  0  0  0  0  0  0  0  0  0
  1  7  1  0  0  0  0
  2  8  1  0  0  0  0
  2  1  2  0  0  0  0
  3  2  1  0  0  0  0
  4  3  2  0  0  0  0
  4  5  1  0  0  0  0
  5  6  2  0  0  0  0
  6  1  1  0  0  0  0
  9 10  1  0  0  0  0
 10 11  1  0  0  0  0
 11  5  1  0  0  0  0
 11 12  2  0  0  0  0
 12 13  1  0  0  0  0
 14 12  1  0  0  0  0
 14 15  1  0  0  0  0
 16 14  2  0  0  0  0
 17 16  1  0  0  0  0
 18 10  2  0  0  0  0
 18 16  1  0  0  0  0
 19 18  1  0  0  0  0
 20 21  2  0  0  0  0
 20  3  1  0  0  0  0
 21 25  1  0  0  0  0
 22 21  1  0  0  0  0
 23 24  1  0  0  0  0
 23 22  2  0  0  0  0
 24 20  1  0  0  0  0
 26 22  1  0  0  0  0
 28 29  1  0  0  0  0
 28 27  1  0  0  0  0
 29 23  1  0  0  0  0
 30 35  1  0  0  0  0
 30 29  2  0  0  0  0
 31 30  1  0  0  0  0
 32 31  2  0  0  0  0
 32 34  1  0  0  0  0
 33 32  1  0  0  0  0
 34 28  2  0  0  0  0
 36 31  1  0  0  0  0
 37 34  1  0  0  0  0
M  END
>  <minimizedAffinity>
-5.8085165

>  <minimizedRMSD>
1.88895738

$$$$
