REMARK  Name = 
REMARK  3 active torsions:
REMARK  status: ('A' for Active; 'I' for Inactive)
REMARK    1  A    between atoms: C_1  and  C_7
REMARK    2  A    between atoms: C_8  and  O_10
REMARK    3  A    between atoms: O_10  and  C_20
REMARK                            x       y       z     vdW  Elec       q    Type
REMARK                         _______ _______ _______ _____ _____    ______ ____
ROOT
ATOM      1  C   UNL     1      36.642  31.033  50.496  0.00  0.00    +0.000 C 
ATOM      2  C   UNL     1      36.140  29.689  50.660  0.00  0.00    +0.000 C 
ATOM      3  C   UNL     1      37.340  30.097  51.484  0.00  0.00    +0.000 C 
ATOM      4  H   UNL     1      36.169  31.936  50.939  0.00  0.00    +0.000 HD
ATOM      5  H   UNL     1      35.188  29.555  51.208  0.00  0.00    +0.000 HD
ATOM      6  H   UNL     1      38.336  29.700  51.255  0.00  0.00    +0.000 HD
ATOM      7  H   UNL     1      37.136  30.341  52.542  0.00  0.00    +0.000 HD
ENDROOT
BRANCH   1   8
ATOM      8  C   UNL     1      37.524  31.406  49.329  0.00  0.00    +0.000 A 
ATOM      9  C   UNL     1      38.160  32.655  49.397  0.00  0.00    +0.000 A 
ATOM     10  C   UNL     1      38.939  32.975  48.301  0.00  0.00    +0.000 A 
ATOM     11  N   UNL     1      39.060  32.119  47.250  0.00  0.00    +0.000 NA
ATOM     12  C   UNL     1      38.431  30.924  47.221  0.00  0.00    +0.000 A 
ATOM     13  N   UNL     1      37.648  30.554  48.277  0.00  0.00    +0.000 NA
ATOM     14  H   UNL     1      38.009  33.272  50.268  0.00  0.00    +0.000 HD
ATOM     15  H   UNL     1      39.447  33.940  48.324  0.00  0.00    +0.000 HD
ATOM     16  H   UNL     1      38.571  30.292  46.354  0.00  0.00    +0.000 HD
ENDBRANCH   1   8
BRANCH   2  17
ATOM     17  O   UNL     1      36.392  28.735  49.664  0.00  0.00    +0.000 OA
BRANCH  17  20
ATOM     18 CL   UNL     1      34.546  29.575  47.583  0.00  0.00    +0.000 Cl
ATOM     19  C   UNL     1      34.660  27.988  48.315  0.00  0.00    +0.000 A 
ATOM     20  C   UNL     1      35.588  27.680  49.317  0.00  0.00    +0.000 A 
ATOM     21  C   UNL     1      35.611  26.407  49.839  0.00  0.00    +0.000 A 
ATOM     22  H   UNL     1      36.346  26.220  50.610  0.00  0.00    +0.000 HD
ATOM     23  C   UNL     1      34.763  25.402  49.430  0.00  0.00    +0.000 A 
ATOM     24  H   UNL     1      34.791  24.419  49.843  0.00  0.00    +0.000 HD
ATOM     25  C   UNL     1      33.849  25.740  48.431  0.00  0.00    +0.000 A 
ATOM     26  H   UNL     1      33.139  25.026  48.039  0.00  0.00    +0.000 HD
ATOM     27  C   UNL     1      33.793  26.997  47.883  0.00  0.00    +0.000 A 
ATOM     28 CL   UNL     1      32.622  27.379  46.622  0.00  0.00    +0.000 Cl
ENDBRANCH  17  20
ENDBRANCH   2  17
TORSDOF 3
