
 OpenBabel03272500513D

 47 52  0  0  1  0  0  0  0  0999 V2000
   32.7540   28.4290   46.5110 C   0  0  0  0  0  0  0  0  0  0  0  0
   33.6040   28.5780   45.4210 C   0  0  0  0  0  0  0  0  0  0  0  0
   34.7830   29.0720   45.8890 N   0  0  0  0  0  0  0  0  0  0  0  0
   34.6830   29.2350   47.2460 C   0  0  0  0  0  0  0  0  0  0  0  0
   33.4530   28.8430   47.6020 N   0  0  0  0  0  0  0  0  0  0  0  0
   33.4200   28.3570   44.3780 H   0  0  0  0  0  0  0  0  0  0  0  0
   35.6680   29.3200   45.3990 H   0  0  0  0  0  0  0  0  0  0  0  0
   30.7500   27.2720   47.6040 C   0  0  1  0  0  0  0  0  0  0  0  0
   31.1030   26.4550   46.3060 C   0  0  0  0  0  0  0  0  0  0  0  0
   31.3410   27.9270   46.4400 C   0  0  2  0  0  0  0  0  0  0  0  0
   31.4080   27.0100   48.4580 H   0  0  0  0  0  0  0  0  0  0  0  0
   30.2360   26.1620   45.6980 H   0  0  0  0  0  0  0  0  0  0  0  0
   32.0080   25.8360   46.3480 H   0  0  0  0  0  0  0  0  0  0  0  0
   30.6960   28.5860   45.8230 H   0  0  0  0  0  0  0  0  0  0  0  0
   27.4210   28.4300   48.3150 C   0  0  0  0  0  0  0  0  0  0  0  0
   27.2310   27.0700   48.3960 C   0  0  0  0  0  0  0  0  0  0  0  0
   28.4700   26.4380   48.1370 C   0  0  0  0  0  0  0  0  0  0  0  0
   29.3480   27.4340   47.9140 N   0  0  0  0  0  0  0  0  0  0  0  0
   28.7020   28.5680   48.0260 N   0  0  0  0  0  0  0  0  0  0  0  0
   26.3480   26.4500   48.6110 H   0  0  0  0  0  0  0  0  0  0  0  0
   28.6560   25.3740   48.1250 H   0  0  0  0  0  0  0  0  0  0  0  0
   25.1050   29.0270   49.0850 C   0  0  0  0  0  0  0  0  0  0  0  0
   26.3730   29.3960   48.5230 C   0  0  0  0  0  0  0  0  0  0  0  0
   26.5520   30.7130   48.1900 C   0  0  0  0  0  0  0  0  0  0  0  0
   25.5410   31.6020   48.3990 N   0  0  0  0  0  0  0  0  0  0  0  0
   24.3550   31.2090   48.9330 C   0  0  0  0  0  0  0  0  0  0  0  0
   24.1270   29.9230   49.2790 N   0  0  0  0  0  0  0  0  0  0  0  0
   25.0520   27.9730   49.3170 H   0  0  0  0  0  0  0  0  0  0  0  0
   27.4550   31.1010   47.7660 H   0  0  0  0  0  0  0  0  0  0  0  0
   23.5300   31.8710   49.1160 H   0  0  0  0  0  0  0  0  0  0  0  0
   35.7470   29.7600   48.1380 C   0  0  0  0  0  0  0  0  0  0  0  0
   35.9680   29.1780   49.4040 C   0  0  0  0  0  0  0  0  0  0  0  0
   37.3540   30.1750   50.0730 S   0  0  0  0  0  0  0  0  0  0  0  0
   37.3910   31.2160   48.5020 C   0  0  0  0  0  0  0  0  0  0  0  0
   36.5590   30.7560   47.8830 N   0  0  0  0  0  0  0  0  0  0  0  0
   35.4140   28.3370   49.8290 H   0  0  0  0  0  0  0  0  0  0  0  0
   38.6920   31.1450   45.9000 Cl  0  0  0  0  0  0  0  0  0  0  0  0
   39.0270   32.3510   47.1020 C   0  0  0  0  0  0  0  0  0  0  0  0
   38.3830   32.3460   48.3280 C   0  0  0  0  0  0  0  0  0  0  0  0
   38.5690   33.2430   49.3400 C   0  0  0  0  0  0  0  0  0  0  0  0
   38.0330   33.1840   50.2780 H   0  0  0  0  0  0  0  0  0  0  0  0
   39.4920   34.2370   49.0900 C   0  0  0  0  0  0  0  0  0  0  0  0
   39.7180   35.0040   49.8280 H   0  0  0  0  0  0  0  0  0  0  0  0
   40.2040   34.3460   47.8910 C   0  0  0  0  0  0  0  0  0  0  0  0
   40.9190   35.1400   47.7340 H   0  0  0  0  0  0  0  0  0  0  0  0
   39.9300   33.3820   46.9440 C   0  0  0  0  0  0  0  0  0  0  0  0
   40.7620   33.4100   45.3930 Cl  0  0  0  0  0  0  0  0  0  0  0  0
  1  5  1  0  0  0  0
  2  3  1  0  0  0  0
  2  1  2  0  0  0  0
  3  4  1  0  0  0  0
  4  5  2  0  0  0  0
  4 31  1  0  0  0  0
  6  2  1  0  0  0  0
  7  3  1  0  0  0  0
  8 18  1  0  0  0  0
  8 11  1  1  0  0  0
  9 13  1  0  0  0  0
  9 10  1  0  0  0  0
  9  8  1  0  0  0  0
 10 14  1  6  0  0  0
 10  1  1  0  0  0  0
 10  8  1  0  0  0  0
 12  9  1  0  0  0  0
 15 16  1  0  0  0  0
 15 23  1  0  0  0  0
 16 20  1  0  0  0  0
 17 16  2  0  0  0  0
 18 19  1  0  0  0  0
 18 17  1  0  0  0  0
 19 15  2  0  0  0  0
 21 17  1  0  0  0  0
 22 27  1  0  0  0  0
 22 28  1  0  0  0  0
 23 22  2  0  0  0  0
 24 25  2  0  0  0  0
 24 23  1  0  0  0  0
 25 26  1  0  0  0  0
 26 30  1  0  0  0  0
 26 27  2  0  0  0  0
 29 24  1  0  0  0  0
 31 32  2  0  0  0  0
 32 36  1  0  0  0  0
 32 33  1  0  0  0  0
 34 33  1  0  0  0  0
 35 31  1  0  0  0  0
 35 34  2  0  0  0  0
 37 38  1  0  0  0  0
 38 39  1  0  0  0  0
 39 34  1  0  0  0  0
 39 40  2  0  0  0  0
 40 41  1  0  0  0  0
 42 40  1  0  0  0  0
 42 43  1  0  0  0  0
 44 42  2  0  0  0  0
 45 44  1  0  0  0  0
 46 38  2  0  0  0  0
 46 44  1  0  0  0  0
 47 46  1  0  0  0  0
M  END
>  <minimizedAffinity>
-7.05202198

>  <minimizedRMSD>
1.88251042

$$$$
