
 OpenBabel03272508453D

 29 31  0  0  0  0  0  0  0  0999 V2000
   35.8080   30.1420   49.9160 C   0  0  0  0  0  0  0  0  0  0  0  0
   36.7130   29.8230   50.9200 C   0  0  0  0  0  0  0  0  0  0  0  0
   37.8010   30.6390   50.6020 C   0  0  0  0  0  0  0  0  0  0  0  0
   37.5330   31.3830   49.4800 C   0  0  0  0  0  0  0  0  0  0  0  0
   36.3290   31.0590   49.0950 O   0  0  0  0  0  0  0  0  0  0  0  0
   36.5630   29.1130   51.7220 H   0  0  0  0  0  0  0  0  0  0  0  0
   38.7230   30.6580   51.1870 H   0  0  0  0  0  0  0  0  0  0  0  0
   38.5090   30.6920   46.6710 Cl  0  0  0  0  0  0  0  0  0  0  0  0
   38.9230   32.1170   47.5820 C   0  0  0  0  0  0  0  0  0  0  0  0
   38.4320   32.3450   48.8510 C   0  0  0  0  0  0  0  0  0  0  0  0
   38.7940   33.4910   49.5240 C   0  0  0  0  0  0  0  0  0  0  0  0
   38.3850   33.6380   50.5250 H   0  0  0  0  0  0  0  0  0  0  0  0
   39.6400   34.4570   49.0050 C   0  0  0  0  0  0  0  0  0  0  0  0
   39.8580   35.3190   49.6210 H   0  0  0  0  0  0  0  0  0  0  0  0
   40.1350   34.2250   47.7270 C   0  0  0  0  0  0  0  0  0  0  0  0
   40.7940   34.9780   47.3220 H   0  0  0  0  0  0  0  0  0  0  0  0
   39.7790   33.0730   47.0310 C   0  0  0  0  0  0  0  0  0  0  0  0
   40.4630   32.8840   45.4250 Cl  0  0  0  0  0  0  0  0  0  0  0  0
   34.4760   29.5530   49.7830 C   0  0  0  0  0  0  0  0  0  0  0  0
   33.6790   29.6920   50.7520 O   0  0  0  0  0  0  0  0  0  0  0  0
   33.7910   26.7940   47.5300 C   0  0  0  0  0  0  0  0  0  0  0  0
   33.4330   27.4300   46.3360 C   0  0  0  0  0  0  0  0  0  0  0  0
   33.4270   28.8120   46.3010 C   0  0  0  0  0  0  0  0  0  0  0  0
   33.7700   29.4750   47.4390 N   0  0  0  0  0  0  0  0  0  0  0  0
   34.1100   28.8440   48.5740 C   0  0  0  0  0  0  0  0  0  0  0  0
   34.1200   27.4950   48.6190 N   0  0  0  0  0  0  0  0  0  0  0  0
   33.8190   25.7060   47.6320 H   0  0  0  0  0  0  0  0  0  0  0  0
   33.1870   26.7950   45.5190 H   0  0  0  0  0  0  0  0  0  0  0  0
   33.1510   29.3060   45.3790 H   0  0  0  0  0  0  0  0  0  0  0  0
  1  2  2  0  0  0  0
  2  6  1  0  0  0  0
  3  2  1  0  0  0  0
  3  7  1  0  0  0  0
  4  3  2  0  0  0  0
  5  4  1  0  0  0  0
  5  1  1  0  0  0  0
  8  9  1  0  0  0  0
  9 10  1  0  0  0  0
 10  4  1  0  0  0  0
 10 11  2  0  0  0  0
 11 12  1  0  0  0  0
 13 11  1  0  0  0  0
 13 14  1  0  0  0  0
 15 13  2  0  0  0  0
 16 15  1  0  0  0  0
 17  9  2  0  0  0  0
 17 15  1  0  0  0  0
 18 17  1  0  0  0  0
 19  1  1  0  0  0  0
 19 20  2  0  0  0  0
 21 27  1  0  0  0  0
 21 26  1  0  0  0  0
 22 21  2  0  0  0  0
 23 22  1  0  0  0  0
 23 24  2  0  0  0  0
 24 25  1  0  0  0  0
 25 26  2  0  0  0  0
 25 19  1  0  0  0  0
 28 22  1  0  0  0  0
 29 23  1  0  0  0  0
M  END
>  <minimizedAffinity>
-6.66690207

>  <minimizedRMSD>
2.37919545

$$$$
