
     RDKit          3D

 43 46  0  0  0  0  0  0  0  0999 V2000
   38.4983   31.1336   45.9676 C   0  0  0  0  0  0  0  0  0  0  0  0
   39.8215   31.1835   46.3110 C   0  0  0  0  0  0  0  0  0  0  0  0
   40.4687   31.5092   45.1191 C   0  0  0  0  0  0  0  0  0  0  0  0
   39.5746   31.6423   44.1340 N   0  0  0  0  0  0  0  0  0  0  0  0
   38.3648   31.4123   44.6522 N   0  0  0  0  0  0  0  0  0  0  0  0
   36.4361   30.6273   49.0598 C   0  0  0  0  0  0  0  0  0  0  0  0
   37.5177   30.9306   48.2464 C   0  0  0  0  0  0  0  0  0  0  0  0
   37.3955   30.8279   46.8732 C   0  0  0  0  0  0  0  0  0  0  0  0
   36.2085   30.4299   46.3719 N   0  0  0  0  0  0  0  0  0  0  0  0
   35.1620   30.1379   47.1902 C   0  0  0  0  0  0  0  0  0  0  0  0
   35.2711   30.2339   48.5090 N   0  0  0  0  0  0  0  0  0  0  0  0
   36.7147   30.7786   50.4181 O   0  0  0  0  0  0  0  0  0  0  0  0
   36.7829   29.7040   51.3176 C   0  0  0  0  0  0  0  0  0  0  0  0
   35.5385   29.1955   51.6332 F   0  0  0  0  0  0  0  0  0  0  0  0
   37.4598   30.1027   52.4443 F   0  0  0  0  0  0  0  0  0  0  0  0
   37.5422   28.6961   50.7277 F   0  0  0  0  0  0  0  0  0  0  0  0
   39.9217   30.7171   41.8922 C   0  0  2  0  0  0  0  0  0  0  0  0
   39.9261   31.9753   42.7821 C   0  0  1  0  0  0  0  0  0  0  0  0
   38.8578   32.7621   42.0681 C   0  0  0  0  0  0  0  0  0  0  0  0
   38.9831   32.4983   40.7247 O   0  0  0  0  0  0  0  0  0  0  0  0
   39.8120   31.4350   40.5404 C   0  0  0  0  0  0  0  0  0  0  0  0
   38.7374   30.0638   42.1601 O   0  0  0  0  0  0  0  0  0  0  0  0
   40.2827   31.0101   47.2921 H   0  0  0  0  0  0  0  0  0  0  0  0
   41.5622   31.6149   45.1121 H   0  0  0  0  0  0  0  0  0  0  0  0
   38.4994   31.2556   48.5741 H   0  0  0  0  0  0  0  0  0  0  0  0
   34.2216   29.8212   46.7619 H   0  0  0  0  0  0  0  0  0  0  0  0
   40.8475   30.1537   41.9803 H   0  0  0  0  0  0  0  0  0  0  0  0
   40.8711   32.5131   42.7386 H   0  0  0  0  0  0  0  0  0  0  0  0
   37.8756   32.4304   42.4557 H   0  0  0  0  0  0  0  0  0  0  0  0
   38.9566   33.8553   42.2070 H   0  0  0  0  0  0  0  0  0  0  0  0
   39.5808   30.7585   39.7203 H   0  0  0  0  0  0  0  0  0  0  0  0
   40.8370   31.8552   40.3414 H   0  0  0  0  0  0  0  0  0  0  0  0
   36.3443   29.6436   43.8970 Cl  0  0  0  0  0  0  0  0  0  0  0  0
   37.5208   28.4571   43.3469 C   0  0  0  0  0  0  0  0  0  0  0  0
   38.6114   28.7557   42.5320 C   0  0  0  0  0  0  0  0  0  0  0  0
   39.4492   27.7179   42.1822 C   0  0  0  0  0  0  0  0  0  0  0  0
   40.2898   27.9560   41.5524 H   0  0  0  0  0  0  0  0  0  0  0  0
   39.2534   26.4091   42.6022 C   0  0  0  0  0  0  0  0  0  0  0  0
   39.9413   25.6411   42.2965 H   0  0  0  0  0  0  0  0  0  0  0  0
   38.1556   26.1394   43.4157 C   0  0  0  0  0  0  0  0  0  0  0  0
   38.0211   25.1057   43.7335 H   0  0  0  0  0  0  0  0  0  0  0  0
   37.2961   27.1674   43.7825 C   0  0  0  0  0  0  0  0  0  0  0  0
   35.9673   26.6740   44.8036 Cl  0  0  0  0  0  0  0  0  0  0  0  0
  1  2  1  0
  1  8  1  0
  3  2  2  0
  4  5  1  0
  4  3  1  0
  5  1  2  0
  6 12  1  0
  7  6  2  0
  8  7  1  0
  9  8  2  0
  9 10  1  0
 10 11  2  0
 11  6  1  0
 12 13  1  0
 13 14  1  0
 13 15  1  0
 16 13  1  0
 17 22  1  0
 17 18  1  0
 18  4  1  0
 19 18  1  0
 20 19  1  0
 21 20  1  0
 21 17  1  0
  2 23  1  0
  3 24  1  0
  7 25  1  0
 10 26  1  0
 17 27  1  6
 18 28  1  1
 19 29  1  0
 19 30  1  0
 21 31  1  0
 21 32  1  0
 33 34  1  0
 34 35  2  0
 35 36  1  0
 36 37  1  0
 36 38  2  0
 38 39  1  0
 38 40  1  0
 40 41  1  0
 40 42  2  0
 42 43  1  0
 42 34  1  0
 22 35  1  0
M  ISO  8  23  14  24  14  25  14  26  14  27  13  28  13  29  13  30  13
M  ISO  5  31  13  32  13  37  15  39  15  41  15
M  END
>  <DihAtoms>  (1) 
16,21,34,33

>  <DihDeg>  (1) 
-179.9979903834765

$$$$
