
     RDKit          3D

 42 46  0  0  0  0  0  0  0  0999 V2000
   35.8495   29.1313   49.8080 C   0  0  0  0  0  0  0  0  0  0  0  0
   34.8212   29.6235   50.5455 C   0  0  0  0  0  0  0  0  0  0  0  0
   33.6542   29.0396   50.0501 C   0  0  0  0  0  0  0  0  0  0  0  0
   34.0679   28.2014   49.0066 C   0  0  0  0  0  0  0  0  0  0  0  0
   35.3587   28.3079   48.9254 O   0  0  0  0  0  0  0  0  0  0  0  0
   33.5317   26.4294   47.3426 C   0  0  0  0  0  0  0  0  0  0  0  0
   33.1238   27.3983   48.2205 C   0  0  0  0  0  0  0  0  0  0  0  0
   31.7788   27.6820   48.4295 C   0  0  0  0  0  0  0  0  0  0  0  0
   30.8573   26.9369   47.7069 C   0  0  0  0  0  0  0  0  0  0  0  0
   29.5203   26.9952   47.7131 N   0  0  0  0  0  0  0  0  0  0  0  0
   29.0881   26.0735   46.8510 N   0  0  0  0  0  0  0  0  0  0  0  0
   30.1344   25.4464   46.3116 C   0  0  0  0  0  0  0  0  0  0  0  0
   31.3109   25.9707   46.8341 C   0  0  0  0  0  0  0  0  0  0  0  0
   32.6536   25.6919   46.6285 C   0  0  0  0  0  0  0  0  0  0  0  0
   37.2286   29.5282   50.0518 C   0  0  0  0  0  0  0  0  0  0  0  0
   37.8736   28.9563   50.9714 O   0  0  0  0  0  0  0  0  0  0  0  0
   37.7810   30.5667   49.2141 C   0  0  0  0  0  0  0  0  0  0  0  0
   38.1260   31.7584   49.8276 C   0  0  0  0  0  0  0  0  0  0  0  0
   38.6612   32.7838   49.0567 C   0  0  0  0  0  0  0  0  0  0  0  0
   38.8136   32.5435   47.7238 N   0  0  0  0  0  0  0  0  0  0  0  0
   38.4736   31.3839   47.1503 C   0  0  0  0  0  0  0  0  0  0  0  0
   37.9610   30.4094   47.9042 N   0  0  0  0  0  0  0  0  0  0  0  0
   34.8593   30.3345   51.3688 H   0  0  0  0  0  0  0  0  0  0  0  0
   32.6862   29.2558   50.4562 H   0  0  0  0  0  0  0  0  0  0  0  0
   34.6170   26.2879   47.2540 H   0  0  0  0  0  0  0  0  0  0  0  0
   31.3879   28.4388   49.1114 H   0  0  0  0  0  0  0  0  0  0  0  0
   28.8762   27.6144   48.2590 H   0  0  0  0  0  0  0  0  0  0  0  0
   30.1456   24.6353   45.5670 H   0  0  0  0  0  0  0  0  0  0  0  0
   32.9654   24.9239   45.9320 H   0  0  0  0  0  0  0  0  0  0  0  0
   38.0281   31.9989   50.8637 H   0  0  0  0  0  0  0  0  0  0  0  0
   38.9506   33.7455   49.4914 H   0  0  0  0  0  0  0  0  0  0  0  0
   38.9465   33.8665   45.6552 Cl  0  0  0  0  0  0  0  0  0  0  0  0
   38.8915   32.2740   44.8962 C   0  0  0  0  0  0  0  0  0  0  0  0
   38.6606   31.1850   45.7151 C   0  0  0  0  0  0  0  0  0  0  0  0
   38.6086   29.9201   45.1704 C   0  0  0  0  0  0  0  0  0  0  0  0
   38.4304   29.0393   45.7726 H   0  0  0  0  0  0  0  0  0  0  0  0
   38.7895   29.7450   43.7941 C   0  0  0  0  0  0  0  0  0  0  0  0
   38.7612   28.7703   43.2925 H   0  0  0  0  0  0  0  0  0  0  0  0
   39.0167   30.8642   43.0229 C   0  0  0  0  0  0  0  0  0  0  0  0
   39.1576   30.7402   41.9597 H   0  0  0  0  0  0  0  0  0  0  0  0
   39.0714   32.1287   43.5482 C   0  0  0  0  0  0  0  0  0  0  0  0
   39.3608   33.5737   42.5806 Cl  0  0  0  0  0  0  0  0  0  0  0  0
  1 15  1  0
  1  2  2  0
  3  2  1  0
  4  3  2  0
  5  4  1  0
  5  1  1  0
  6  7  2  0
  7  8  1  0
  7  4  1  0
  9  8  2  0
 10  9  1  0
 11 10  1  0
 12 13  1  0
 12 11  2  0
 13  9  1  0
 14 13  2  0
 14  6  1  0
 15 16  2  0
 17 18  2  0
 17 15  1  0
 19 18  1  0
 20 19  2  0
 21 20  1  0
 21 22  2  0
 22 17  1  0
  2 23  1  0
  3 24  1  0
  6 25  1  0
  8 26  1  0
 10 27  1  0
 12 28  1  0
 14 29  1  0
 18 30  1  0
 19 31  1  0
 32 33  1  0
 33 34  2  0
 34 35  1  0
 35 36  1  0
 35 37  2  0
 37 38  1  0
 37 39  1  0
 39 40  1  0
 39 41  2  0
 41 42  1  0
 41 33  1  0
 21 34  1  0
M  ISO  8  23  14  24  14  25  14  26  14  27   9  28  14  29  14  30  14
M  ISO  4  31  14  36  15  38  15  40  15
M  END
>  <DihAtoms>  (1) 
19,20,33,32

>  <DihDeg>  (1) 
-179.9995786026796

$$$$
