
 OpenBabel03272507143D

 42 46  0  0  0  0  0  0  0  0999 V2000
   35.8720   29.2130   49.8180 C   0  0  0  0  0  0  0  0  0  0  0  0
   34.8700   29.5690   50.6610 C   0  0  0  0  0  0  0  0  0  0  0  0
   33.7100   28.9510   50.1930 C   0  0  0  0  0  0  0  0  0  0  0  0
   34.1020   28.2340   49.0540 C   0  0  0  0  0  0  0  0  0  0  0  0
   35.3740   28.4370   48.8980 O   0  0  0  0  0  0  0  0  0  0  0  0
   34.9210   30.2080   51.5410 H   0  0  0  0  0  0  0  0  0  0  0  0
   32.7620   29.0640   50.6780 H   0  0  0  0  0  0  0  0  0  0  0  0
   33.5640   26.4820   47.3700 C   0  0  0  0  0  0  0  0  0  0  0  0
   33.1570   27.4380   48.2620 C   0  0  0  0  0  0  0  0  0  0  0  0
   31.8120   27.7140   48.4800 C   0  0  0  0  0  0  0  0  0  0  0  0
   30.8890   26.9750   47.7520 C   0  0  0  0  0  0  0  0  0  0  0  0
   29.5520   27.0280   47.7650 N   0  0  0  0  0  0  0  0  0  0  0  0
   29.1200   26.1160   46.8940 N   0  0  0  0  0  0  0  0  0  0  0  0
   30.1650   25.4990   46.3420 C   0  0  0  0  0  0  0  0  0  0  0  0
   31.3430   26.0220   46.8650 C   0  0  0  0  0  0  0  0  0  0  0  0
   32.6860   25.7510   46.6500 C   0  0  0  0  0  0  0  0  0  0  0  0
   34.6500   26.3460   47.2740 H   0  0  0  0  0  0  0  0  0  0  0  0
   31.4210   28.4610   49.1730 H   0  0  0  0  0  0  0  0  0  0  0  0
   28.9080   27.6370   48.3220 H   0  0  0  0  0  0  0  0  0  0  0  0
   30.1770   24.6980   45.5860 H   0  0  0  0  0  0  0  0  0  0  0  0
   32.9970   24.9930   45.9420 H   0  0  0  0  0  0  0  0  0  0  0  0
   37.2380   29.6820   50.0070 C   0  0  0  0  0  0  0  0  0  0  0  0
   37.9110   29.2290   50.9710 O   0  0  0  0  0  0  0  0  0  0  0  0
   37.7460   30.6520   49.0640 C   0  0  0  0  0  0  0  0  0  0  0  0
   38.2520   31.8320   49.5800 C   0  0  0  0  0  0  0  0  0  0  0  0
   38.7510   32.7910   48.7060 C   0  0  0  0  0  0  0  0  0  0  0  0
   38.7080   32.5010   47.3750 N   0  0  0  0  0  0  0  0  0  0  0  0
   38.2140   31.3530   46.8960 C   0  0  0  0  0  0  0  0  0  0  0  0
   37.7390   30.4420   47.7490 N   0  0  0  0  0  0  0  0  0  0  0  0
   38.3100   32.1100   50.6100 H   0  0  0  0  0  0  0  0  0  0  0  0
   39.1620   33.7400   49.0600 H   0  0  0  0  0  0  0  0  0  0  0  0
   40.8710   30.9190   45.7270 Cl  0  0  0  0  0  0  0  0  0  0  0  0
   39.3800   30.8780   44.7850 C   0  0  0  0  0  0  0  0  0  0  0  0
   38.1940   31.0980   45.4580 C   0  0  0  0  0  0  0  0  0  0  0  0
   37.0020   31.0760   44.7670 C   0  0  0  0  0  0  0  0  0  0  0  0
   36.0500   31.2430   45.2520 H   0  0  0  0  0  0  0  0  0  0  0  0
   36.9980   30.8310   43.3900 C   0  0  0  0  0  0  0  0  0  0  0  0
   36.0900   30.7980   42.7760 H   0  0  0  0  0  0  0  0  0  0  0  0
   38.2090   30.6170   42.7670 C   0  0  0  0  0  0  0  0  0  0  0  0
   38.2180   30.4270   41.7040 H   0  0  0  0  0  0  0  0  0  0  0  0
   39.4030   30.6350   43.4380 C   0  0  0  0  0  0  0  0  0  0  0  0
   40.9630   30.3640   42.6620 Cl  0  0  0  0  0  0  0  0  0  0  0  0
  1 22  1  0  0  0  0
  1  2  2  0  0  0  0
  2  6  1  0  0  0  0
  3  2  1  0  0  0  0
  3  7  1  0  0  0  0
  4  3  2  0  0  0  0
  5  4  1  0  0  0  0
  5  1  1  0  0  0  0
  8  9  1  0  0  0  0
  9 10  2  0  0  0  0
  9  4  1  0  0  0  0
 10 18  1  0  0  0  0
 11 12  1  0  0  0  0
 11 10  1  0  0  0  0
 12 19  1  0  0  0  0
 13 12  1  0  0  0  0
 14 15  1  0  0  0  0
 14 13  2  0  0  0  0
 15 11  2  0  0  0  0
 16 15  1  0  0  0  0
 16  8  2  0  0  0  0
 17  8  1  0  0  0  0
 20 14  1  0  0  0  0
 21 16  1  0  0  0  0
 22 23  2  0  0  0  0
 24 25  1  0  0  0  0
 24 22  1  0  0  0  0
 25 30  1  0  0  0  0
 26 31  1  0  0  0  0
 26 25  2  0  0  0  0
 27 26  1  0  0  0  0
 28 27  2  0  0  0  0
 28 29  1  0  0  0  0
 29 24  2  0  0  0  0
 33 34  1  0  0  0  0
 33 32  1  0  0  0  0
 34 28  1  0  0  0  0
 35 36  1  0  0  0  0
 35 34  2  0  0  0  0
 37 35  1  0  0  0  0
 38 37  1  0  0  0  0
 39 37  2  0  0  0  0
 39 41  1  0  0  0  0
 40 39  1  0  0  0  0
 41 33  2  0  0  0  0
 42 41  1  0  0  0  0
M  END
>  <minimizedAffinity>
-7.13670206

>  <minimizedRMSD>
0.490778089

$$$$
