
 OpenBabel03272508353D

 33 35  0  0  0  0  0  0  0  0999 V2000
   39.3060   33.2240   44.0200 C   0  0  0  0  0  0  0  0  0  0  0  0
   38.7690   34.1540   44.2340 H   0  0  0  0  0  0  0  0  0  0  0  0
   40.3910   33.4460   44.0750 H   0  0  0  0  0  0  0  0  0  0  0  0
   38.4580   31.2000   46.8760 C   0  0  0  0  0  0  0  0  0  0  0  0
   39.1380   30.2890   46.1110 C   0  0  0  0  0  0  0  0  0  0  0  0
   39.5530   30.9010   44.9420 C   0  0  0  0  0  0  0  0  0  0  0  0
   39.0960   32.1930   45.0490 N   0  0  0  0  0  0  0  0  0  0  0  0
   38.4420   32.3670   46.2050 N   0  0  0  0  0  0  0  0  0  0  0  0
   39.3590   29.2340   46.3140 H   0  0  0  0  0  0  0  0  0  0  0  0
   40.1120   30.4870   44.1130 H   0  0  0  0  0  0  0  0  0  0  0  0
   37.6920   31.0570   50.5560 C   0  0  0  0  0  0  0  0  0  0  0  0
   38.3010   31.4480   49.3750 C   0  0  0  0  0  0  0  0  0  0  0  0
   37.8890   30.8640   48.1720 C   0  0  0  0  0  0  0  0  0  0  0  0
   36.8980   29.9300   48.2390 N   0  0  0  0  0  0  0  0  0  0  0  0
   36.3290   29.5760   49.4170 C   0  0  0  0  0  0  0  0  0  0  0  0
   36.7230   30.1350   50.5630 N   0  0  0  0  0  0  0  0  0  0  0  0
   38.1270   31.6060   51.3960 H   0  0  0  0  0  0  0  0  0  0  0  0
   39.0860   32.1780   49.2490 H   0  0  0  0  0  0  0  0  0  0  0  0
   35.5410   28.8280   49.4410 H   0  0  0  0  0  0  0  0  0  0  0  0
   38.9350   32.6210   42.6710 C   0  0  0  0  0  0  0  0  0  0  0  0
   39.5490   33.1910   41.9190 H   0  0  0  0  0  0  0  0  0  0  0  0
   39.2340   31.5810   42.5790 H   0  0  0  0  0  0  0  0  0  0  0  0
   38.6420   34.0280   40.0990 Cl  0  0  0  0  0  0  0  0  0  0  0  0
   37.2700   33.5820   41.1120 C   0  0  0  0  0  0  0  0  0  0  0  0
   37.5290   32.9140   42.3160 C   0  0  0  0  0  0  0  0  0  0  0  0
   36.4180   32.5980   43.0520 C   0  0  0  0  0  0  0  0  0  0  0  0
   36.5990   32.0760   43.9930 H   0  0  0  0  0  0  0  0  0  0  0  0
   35.1300   32.8960   42.6710 C   0  0  0  0  0  0  0  0  0  0  0  0
   34.3030   32.6150   43.3060 H   0  0  0  0  0  0  0  0  0  0  0  0
   34.9490   33.5540   41.4740 C   0  0  0  0  0  0  0  0  0  0  0  0
   33.9560   33.8170   41.1220 H   0  0  0  0  0  0  0  0  0  0  0  0
   36.0140   33.9160   40.6590 C   0  0  0  0  0  0  0  0  0  0  0  0
   35.8120   34.7500   39.1390 Cl  0  0  0  0  0  0  0  0  0  0  0  0
  1  3  1  0  0  0  0
  1  2  1  0  0  0  0
  1  7  1  0  0  0  0
  4 13  1  0  0  0  0
  5  9  1  0  0  0  0
  5  4  1  0  0  0  0
  6  7  1  0  0  0  0
  6  5  2  0  0  0  0
  7  8  1  0  0  0  0
  8  4  2  0  0  0  0
 10  6  1  0  0  0  0
 11 16  1  0  0  0  0
 11 17  1  0  0  0  0
 12 11  2  0  0  0  0
 13 14  2  0  0  0  0
 13 12  1  0  0  0  0
 14 15  1  0  0  0  0
 15 19  1  0  0  0  0
 15 16  2  0  0  0  0
 18 12  1  0  0  0  0
 20  1  1  0  0  0  0
 21 20  1  0  0  0  0
 22 20  1  0  0  0  0
 23 24  1  0  0  0  0
 24 25  1  0  0  0  0
 25 20  1  0  0  0  0
 25 26  2  0  0  0  0
 26 27  1  0  0  0  0
 28 26  1  0  0  0  0
 28 29  1  0  0  0  0
 30 28  2  0  0  0  0
 31 30  1  0  0  0  0
 32 24  2  0  0  0  0
 32 30  1  0  0  0  0
 33 32  1  0  0  0  0
M  END
>  <minimizedAffinity>
-4.59452343

>  <minimizedRMSD>
4.59924364

$$$$
