
 OpenBabel03272502543D

 29 31  0  0  0  0  0  0  0  0999 V2000
   36.7280   27.8010   33.5770 C   0  0  0  0  0  0  0  0  0  0  0  0
   36.8180   28.1960   32.2470 C   0  0  0  0  0  0  0  0  0  0  0  0
   36.3090   29.4110   31.8330 C   0  0  0  0  0  0  0  0  0  0  0  0
   35.7170   30.1950   32.7920 C   0  0  0  0  0  0  0  0  0  0  0  0
   35.6190   29.8160   34.1210 C   0  0  0  0  0  0  0  0  0  0  0  0
   36.1360   28.6010   34.4980 N   0  0  0  0  0  0  0  0  0  0  0  0
   37.3080   27.5030   31.5530 H   0  0  0  0  0  0  0  0  0  0  0  0
   36.3990   29.6780   30.7970 H   0  0  0  0  0  0  0  0  0  0  0  0
   35.3230   31.1400   32.4580 H   0  0  0  0  0  0  0  0  0  0  0  0
   32.6710   29.3340   34.5240 Cl  0  0  0  0  0  0  0  0  0  0  0  0
   33.6460   30.5200   35.4070 C   0  0  0  0  0  0  0  0  0  0  0  0
   34.9900   30.6510   35.1360 C   0  0  0  0  0  0  0  0  0  0  0  0
   35.6580   31.6000   35.8770 C   0  0  0  0  0  0  0  0  0  0  0  0
   36.7040   31.7560   35.7170 H   0  0  0  0  0  0  0  0  0  0  0  0
   35.0730   32.3940   36.8370 C   0  0  0  0  0  0  0  0  0  0  0  0
   35.6340   33.1330   37.4030 H   0  0  0  0  0  0  0  0  0  0  0  0
   33.7140   32.2350   37.0860 C   0  0  0  0  0  0  0  0  0  0  0  0
   33.1690   32.8010   37.8100 H   0  0  0  0  0  0  0  0  0  0  0  0
   33.0060   31.2950   36.3660 C   0  0  0  0  0  0  0  0  0  0  0  0
   31.2790   31.0650   36.6530 Cl  0  0  0  0  0  0  0  0  0  0  0  0
   38.0820   24.4050   33.4140 C   0  0  0  0  0  0  0  0  0  0  0  0
   38.2870   24.0880   34.7760 C   0  0  0  0  0  0  0  0  0  0  0  0
   37.9520   25.0600   35.7400 C   0  0  0  0  0  0  0  0  0  0  0  0
   37.4560   26.2310   35.2700 N   0  0  0  0  0  0  0  0  0  0  0  0
   37.2670   26.5160   33.9830 C   0  0  0  0  0  0  0  0  0  0  0  0
   37.5860   25.5940   33.0790 N   0  0  0  0  0  0  0  0  0  0  0  0
   38.3420   23.6490   32.6560 H   0  0  0  0  0  0  0  0  0  0  0  0
   38.6870   23.1400   35.1000 H   0  0  0  0  0  0  0  0  0  0  0  0
   38.1010   24.8380   36.7670 H   0  0  0  0  0  0  0  0  0  0  0  0
  1 25  1  0  0  0  0
  1  6  1  0  0  0  0
  2  1  2  0  0  0  0
  3  2  1  0  0  0  0
  3  4  2  0  0  0  0
  4  5  1  0  0  0  0
  5  6  2  0  0  0  0
  5 12  1  0  0  0  0
  7  2  1  0  0  0  0
  8  3  1  0  0  0  0
  9  4  1  0  0  0  0
 10 11  1  0  0  0  0
 11 19  1  0  0  0  0
 12 11  2  0  0  0  0
 12 13  1  0  0  0  0
 13 15  2  0  0  0  0
 14 13  1  0  0  0  0
 15 17  1  0  0  0  0
 15 16  1  0  0  0  0
 17 18  1  0  0  0  0
 19 20  1  0  0  0  0
 19 17  2  0  0  0  0
 21 22  1  0  0  0  0
 22 28  1  0  0  0  0
 22 23  2  0  0  0  0
 23 29  1  0  0  0  0
 24 23  1  0  0  0  0
 25 24  2  0  0  0  0
 26 21  2  0  0  0  0
 26 25  1  0  0  0  0
 27 21  1  0  0  0  0
M  END
>  <minimizedAffinity>
-5.5865283

$$$$

 OpenBabel03272502543D

 29 31  0  0  0  0  0  0  0  0999 V2000
   35.9840   28.1990   32.0130 C   0  0  0  0  0  0  0  0  0  0  0  0
   36.2570   28.9820   30.8970 C   0  0  0  0  0  0  0  0  0  0  0  0
   36.1220   30.3560   30.9460 C   0  0  0  0  0  0  0  0  0  0  0  0
   35.7080   30.8970   32.1380 C   0  0  0  0  0  0  0  0  0  0  0  0
   35.4320   30.1310   33.2580 C   0  0  0  0  0  0  0  0  0  0  0  0
   35.5770   28.7670   33.1740 N   0  0  0  0  0  0  0  0  0  0  0  0
   36.5820   28.4610   29.9890 H   0  0  0  0  0  0  0  0  0  0  0  0
   36.3430   30.9240   30.0610 H   0  0  0  0  0  0  0  0  0  0  0  0
   35.6060   31.9680   32.1640 H   0  0  0  0  0  0  0  0  0  0  0  0
   32.5480   29.6130   33.9650 Cl  0  0  0  0  0  0  0  0  0  0  0  0
   33.6940   30.5380   34.9490 C   0  0  0  0  0  0  0  0  0  0  0  0
   34.9930   30.7090   34.5210 C   0  0  0  0  0  0  0  0  0  0  0  0
   35.8040   31.4430   35.3580 C   0  0  0  0  0  0  0  0  0  0  0  0
   36.8250   31.6150   35.0870 H   0  0  0  0  0  0  0  0  0  0  0  0
   35.3990   31.9930   36.5520 C   0  0  0  0  0  0  0  0  0  0  0  0
   36.0690   32.5670   37.1870 H   0  0  0  0  0  0  0  0  0  0  0  0
   34.0820   31.8010   36.9540 C   0  0  0  0  0  0  0  0  0  0  0  0
   33.6710   32.1860   37.8620 H   0  0  0  0  0  0  0  0  0  0  0  0
   33.2340   31.0710   36.1460 C   0  0  0  0  0  0  0  0  0  0  0  0
   31.5540   30.8060   36.6210 Cl  0  0  0  0  0  0  0  0  0  0  0  0
   35.4470   24.7130   31.0390 C   0  0  0  0  0  0  0  0  0  0  0  0
   36.4260   24.0270   31.7950 C   0  0  0  0  0  0  0  0  0  0  0  0
   37.2640   24.7840   32.6370 C   0  0  0  0  0  0  0  0  0  0  0  0
   37.0560   26.1240   32.6490 N   0  0  0  0  0  0  0  0  0  0  0  0
   36.1300   26.7580   31.9310 C   0  0  0  0  0  0  0  0  0  0  0  0
   35.3430   26.0360   31.1390 N   0  0  0  0  0  0  0  0  0  0  0  0
   34.7890   24.1260   30.3790 H   0  0  0  0  0  0  0  0  0  0  0  0
   36.5520   22.9560   31.7500 H   0  0  0  0  0  0  0  0  0  0  0  0
   38.0030   24.2850   33.2110 H   0  0  0  0  0  0  0  0  0  0  0  0
  1  6  1  0  0  0  0
  2  3  1  0  0  0  0
  2  1  2  0  0  0  0
  3  4  2  0  0  0  0
  4  9  1  0  0  0  0
  4  5  1  0  0  0  0
  5 12  1  0  0  0  0
  6  5  2  0  0  0  0
  7  2  1  0  0  0  0
  8  3  1  0  0  0  0
 10 11  1  0  0  0  0
 11 19  1  0  0  0  0
 12 11  2  0  0  0  0
 12 13  1  0  0  0  0
 13 15  2  0  0  0  0
 14 13  1  0  0  0  0
 15 17  1  0  0  0  0
 15 16  1  0  0  0  0
 17 18  1  0  0  0  0
 19 20  1  0  0  0  0
 19 17  2  0  0  0  0
 21 26  2  0  0  0  0
 21 22  1  0  0  0  0
 22 23  2  0  0  0  0
 23 24  1  0  0  0  0
 23 29  1  0  0  0  0
 25  1  1  0  0  0  0
 25 24  2  0  0  0  0
 26 25  1  0  0  0  0
 27 21  1  0  0  0  0
 28 22  1  0  0  0  0
M  END
>  <minimizedAffinity>
-5.54834318

$$$$

 OpenBabel03272502543D

 29 31  0  0  0  0  0  0  0  0999 V2000
   37.1910   26.6510   33.4400 C   0  0  0  0  0  0  0  0  0  0  0  0
   37.5620   26.0130   32.2620 C   0  0  0  0  0  0  0  0  0  0  0  0
   38.2390   24.8100   32.2900 C   0  0  0  0  0  0  0  0  0  0  0  0
   38.5220   24.2860   33.5280 C   0  0  0  0  0  0  0  0  0  0  0  0
   38.1610   24.9090   34.7110 C   0  0  0  0  0  0  0  0  0  0  0  0
   37.4880   26.1050   34.6450 N   0  0  0  0  0  0  0  0  0  0  0  0
   37.2920   26.5070   31.3210 H   0  0  0  0  0  0  0  0  0  0  0  0
   38.5070   24.3510   31.3570 H   0  0  0  0  0  0  0  0  0  0  0  0
   39.0510   23.3480   33.5380 H   0  0  0  0  0  0  0  0  0  0  0  0
   40.4220   22.9170   34.7580 Cl  0  0  0  0  0  0  0  0  0  0  0  0
   39.4770   23.4290   36.1670 C   0  0  0  0  0  0  0  0  0  0  0  0
   38.4630   24.3500   36.0220 C   0  0  0  0  0  0  0  0  0  0  0  0
   37.7900   24.6820   37.1770 C   0  0  0  0  0  0  0  0  0  0  0  0
   36.9900   25.3910   37.1370 H   0  0  0  0  0  0  0  0  0  0  0  0
   38.0680   24.1590   38.4190 C   0  0  0  0  0  0  0  0  0  0  0  0
   37.5140   24.4470   39.3090 H   0  0  0  0  0  0  0  0  0  0  0  0
   39.0980   23.2320   38.5300 C   0  0  0  0  0  0  0  0  0  0  0  0
   39.3910   22.7700   39.4470 H   0  0  0  0  0  0  0  0  0  0  0  0
   39.7990   22.8710   37.3980 C   0  0  0  0  0  0  0  0  0  0  0  0
   41.1130   21.6960   37.4970 Cl  0  0  0  0  0  0  0  0  0  0  0  0
   35.7050   29.8400   34.4480 C   0  0  0  0  0  0  0  0  0  0  0  0
   35.1400   30.3120   33.2410 C   0  0  0  0  0  0  0  0  0  0  0  0
   35.2810   29.5160   32.0870 C   0  0  0  0  0  0  0  0  0  0  0  0
   35.9570   28.3500   32.2370 N   0  0  0  0  0  0  0  0  0  0  0  0
   36.4850   27.9170   33.3800 C   0  0  0  0  0  0  0  0  0  0  0  0
   36.3470   28.6730   34.4650 N   0  0  0  0  0  0  0  0  0  0  0  0
   35.5980   30.4570   35.3530 H   0  0  0  0  0  0  0  0  0  0  0  0
   34.6110   31.2500   33.1740 H   0  0  0  0  0  0  0  0  0  0  0  0
   34.8630   29.8560   31.1730 H   0  0  0  0  0  0  0  0  0  0  0  0
  1  6  1  0  0  0  0
  2  3  1  0  0  0  0
  2  1  2  0  0  0  0
  3  4  2  0  0  0  0
  4  9  1  0  0  0  0
  4  5  1  0  0  0  0
  5 12  1  0  0  0  0
  6  5  2  0  0  0  0
  7  2  1  0  0  0  0
  8  3  1  0  0  0  0
 10 11  1  0  0  0  0
 11 19  1  0  0  0  0
 12 11  2  0  0  0  0
 12 13  1  0  0  0  0
 13 15  2  0  0  0  0
 14 13  1  0  0  0  0
 15 17  1  0  0  0  0
 15 16  1  0  0  0  0
 17 18  1  0  0  0  0
 19 20  1  0  0  0  0
 19 17  2  0  0  0  0
 21 26  1  0  0  0  0
 21 27  1  0  0  0  0
 22 21  2  0  0  0  0
 23 24  2  0  0  0  0
 23 22  1  0  0  0  0
 24 25  1  0  0  0  0
 25  1  1  0  0  0  0
 25 26  2  0  0  0  0
 28 22  1  0  0  0  0
 29 23  1  0  0  0  0
M  END
>  <minimizedAffinity>
-5.50008154

$$$$

 OpenBabel03272502543D

 29 31  0  0  0  0  0  0  0  0999 V2000
   40.1310   23.1680   36.8730 C   0  0  0  0  0  0  0  0  0  0  0  0
   39.4420   22.8900   38.0480 C   0  0  0  0  0  0  0  0  0  0  0  0
   38.2260   23.4880   38.3150 C   0  0  0  0  0  0  0  0  0  0  0  0
   37.7440   24.3600   37.3700 C   0  0  0  0  0  0  0  0  0  0  0  0
   38.4180   24.6480   36.1950 C   0  0  0  0  0  0  0  0  0  0  0  0
   39.6240   24.0340   35.9620 N   0  0  0  0  0  0  0  0  0  0  0  0
   39.9060   22.1800   38.7430 H   0  0  0  0  0  0  0  0  0  0  0  0
   37.7270   23.2460   39.2340 H   0  0  0  0  0  0  0  0  0  0  0  0
   36.7960   24.8220   37.5890 H   0  0  0  0  0  0  0  0  0  0  0  0
   37.8110   23.4190   33.5110 Cl  0  0  0  0  0  0  0  0  0  0  0  0
   37.5890   25.1260   33.9310 C   0  0  0  0  0  0  0  0  0  0  0  0
   37.9020   25.5740   35.1950 C   0  0  0  0  0  0  0  0  0  0  0  0
   37.6940   26.9170   35.4210 C   0  0  0  0  0  0  0  0  0  0  0  0
   37.9160   27.3320   36.3810 H   0  0  0  0  0  0  0  0  0  0  0  0
   37.2080   27.7990   34.4830 C   0  0  0  0  0  0  0  0  0  0  0  0
   37.0560   28.8530   34.6980 H   0  0  0  0  0  0  0  0  0  0  0  0
   36.9010   27.3130   33.2160 C   0  0  0  0  0  0  0  0  0  0  0  0
   36.5200   27.9160   32.4210 H   0  0  0  0  0  0  0  0  0  0  0  0
   37.0950   25.9740   32.9470 C   0  0  0  0  0  0  0  0  0  0  0  0
   36.7190   25.3190   31.3510 Cl  0  0  0  0  0  0  0  0  0  0  0  0
   42.8120   20.6770   36.8470 C   0  0  0  0  0  0  0  0  0  0  0  0
   43.8390   21.3360   36.1340 C   0  0  0  0  0  0  0  0  0  0  0  0
   43.5900   22.6420   35.6670 C   0  0  0  0  0  0  0  0  0  0  0  0
   42.3680   23.1590   35.9480 N   0  0  0  0  0  0  0  0  0  0  0  0
   41.4090   22.5270   36.6220 C   0  0  0  0  0  0  0  0  0  0  0  0
   41.6520   21.2950   37.0580 N   0  0  0  0  0  0  0  0  0  0  0  0
   43.0010   19.6560   37.2140 H   0  0  0  0  0  0  0  0  0  0  0  0
   44.7960   20.8790   35.9350 H   0  0  0  0  0  0  0  0  0  0  0  0
   44.3500   23.1500   35.1300 H   0  0  0  0  0  0  0  0  0  0  0  0
  1  2  1  0  0  0  0
  2  3  2  0  0  0  0
  2  7  1  0  0  0  0
  3  8  1  0  0  0  0
  4  9  1  0  0  0  0
  4  3  1  0  0  0  0
  5  4  2  0  0  0  0
  6  5  1  0  0  0  0
  6  1  2  0  0  0  0
 10 11  1  0  0  0  0
 11 12  1  0  0  0  0
 12 13  2  0  0  0  0
 12  5  1  0  0  0  0
 13 14  1  0  0  0  0
 15 16  1  0  0  0  0
 15 13  1  0  0  0  0
 17 15  2  0  0  0  0
 18 17  1  0  0  0  0
 19 17  1  0  0  0  0
 19 11  2  0  0  0  0
 20 19  1  0  0  0  0
 21 26  1  0  0  0  0
 21 27  1  0  0  0  0
 22 21  2  0  0  0  0
 23 24  2  0  0  0  0
 23 22  1  0  0  0  0
 24 25  1  0  0  0  0
 25  1  1  0  0  0  0
 25 26  2  0  0  0  0
 28 22  1  0  0  0  0
 29 23  1  0  0  0  0
M  END
>  <minimizedAffinity>
-5.43114519

$$$$

 OpenBabel03272502543D

 29 31  0  0  0  0  0  0  0  0999 V2000
   36.0060   23.4080   31.6140 C   0  0  0  0  0  0  0  0  0  0  0  0
   35.1880   24.1600   30.7790 C   0  0  0  0  0  0  0  0  0  0  0  0
   35.1880   25.5390   30.8410 C   0  0  0  0  0  0  0  0  0  0  0  0
   36.0280   26.1180   31.7610 C   0  0  0  0  0  0  0  0  0  0  0  0
   36.8480   25.3840   32.6000 C   0  0  0  0  0  0  0  0  0  0  0  0
   36.8230   24.0130   32.5110 N   0  0  0  0  0  0  0  0  0  0  0  0
   34.5510   23.6090   30.0760 H   0  0  0  0  0  0  0  0  0  0  0  0
   34.5410   26.0820   30.1780 H   0  0  0  0  0  0  0  0  0  0  0  0
   36.0200   27.1940   31.8010 H   0  0  0  0  0  0  0  0  0  0  0  0
   39.6130   26.0170   31.5830 Cl  0  0  0  0  0  0  0  0  0  0  0  0
   39.0270   26.3360   33.2240 C   0  0  0  0  0  0  0  0  0  0  0  0
   37.7380   26.0020   33.5750 C   0  0  0  0  0  0  0  0  0  0  0  0
   37.3790   26.2910   34.8730 C   0  0  0  0  0  0  0  0  0  0  0  0
   36.3930   26.0580   35.2140 H   0  0  0  0  0  0  0  0  0  0  0  0
   38.2130   26.8740   35.8000 C   0  0  0  0  0  0  0  0  0  0  0  0
   37.8930   27.0880   36.8170 H   0  0  0  0  0  0  0  0  0  0  0  0
   39.5080   27.1990   35.4120 C   0  0  0  0  0  0  0  0  0  0  0  0
   40.2290   27.6540   36.0560 H   0  0  0  0  0  0  0  0  0  0  0  0
   39.9080   26.9270   34.1200 C   0  0  0  0  0  0  0  0  0  0  0  0
   41.5450   27.3230   33.5890 Cl  0  0  0  0  0  0  0  0  0  0  0  0
   36.9430   19.9700   30.7790 C   0  0  0  0  0  0  0  0  0  0  0  0
   35.9110   19.2140   31.3820 C   0  0  0  0  0  0  0  0  0  0  0  0
   34.8980   19.9070   32.0740 C   0  0  0  0  0  0  0  0  0  0  0  0
   35.0030   21.2580   32.1020 N   0  0  0  0  0  0  0  0  0  0  0  0
   35.9810   21.9590   31.5290 C   0  0  0  0  0  0  0  0  0  0  0  0
   36.9320   21.2970   30.8780 N   0  0  0  0  0  0  0  0  0  0  0  0
   37.7370   19.4330   30.2370 H   0  0  0  0  0  0  0  0  0  0  0  0
   35.8730   18.1370   31.3320 H   0  0  0  0  0  0  0  0  0  0  0  0
   34.1170   19.3550   32.5320 H   0  0  0  0  0  0  0  0  0  0  0  0
  1  6  1  0  0  0  0
  2  3  1  0  0  0  0
  2  1  2  0  0  0  0
  3  4  2  0  0  0  0
  4  9  1  0  0  0  0
  4  5  1  0  0  0  0
  5 12  1  0  0  0  0
  6  5  2  0  0  0  0
  7  2  1  0  0  0  0
  8  3  1  0  0  0  0
 10 11  1  0  0  0  0
 11 12  2  0  0  0  0
 11 19  1  0  0  0  0
 12 13  1  0  0  0  0
 13 14  1  0  0  0  0
 13 15  2  0  0  0  0
 15 16  1  0  0  0  0
 17 15  1  0  0  0  0
 17 18  1  0  0  0  0
 19 17  2  0  0  0  0
 20 19  1  0  0  0  0
 21 26  2  0  0  0  0
 21 22  1  0  0  0  0
 22 23  2  0  0  0  0
 23 24  1  0  0  0  0
 23 29  1  0  0  0  0
 25  1  1  0  0  0  0
 25 24  2  0  0  0  0
 26 25  1  0  0  0  0
 27 21  1  0  0  0  0
 28 22  1  0  0  0  0
M  END
>  <minimizedAffinity>
-5.4011817

$$$$

 OpenBabel03272502543D

 29 31  0  0  0  0  0  0  0  0999 V2000
   36.8560   25.3140   32.6940 C   0  0  0  0  0  0  0  0  0  0  0  0
   36.1260   26.1090   31.8190 C   0  0  0  0  0  0  0  0  0  0  0  0
   35.3270   25.5420   30.8450 C   0  0  0  0  0  0  0  0  0  0  0  0
   35.2960   24.1710   30.7900 C   0  0  0  0  0  0  0  0  0  0  0  0
   36.0180   23.3640   31.6540 C   0  0  0  0  0  0  0  0  0  0  0  0
   36.8020   23.9620   32.6110 N   0  0  0  0  0  0  0  0  0  0  0  0
   36.2140   27.1950   31.9400 H   0  0  0  0  0  0  0  0  0  0  0  0
   34.7800   26.1930   30.1890 H   0  0  0  0  0  0  0  0  0  0  0  0
   34.6710   23.7390   30.0270 H   0  0  0  0  0  0  0  0  0  0  0  0
   38.3740   22.0870   30.2740 Cl  0  0  0  0  0  0  0  0  0  0  0  0
   37.0050   21.2140   30.9840 C   0  0  0  0  0  0  0  0  0  0  0  0
   35.9820   21.9090   31.5920 C   0  0  0  0  0  0  0  0  0  0  0  0
   34.9660   21.1390   32.1120 C   0  0  0  0  0  0  0  0  0  0  0  0
   34.1390   21.6130   32.5980 H   0  0  0  0  0  0  0  0  0  0  0  0
   34.9230   19.7640   32.0580 C   0  0  0  0  0  0  0  0  0  0  0  0
   34.1030   19.1900   32.4810 H   0  0  0  0  0  0  0  0  0  0  0  0
   35.9730   19.0950   31.4380 C   0  0  0  0  0  0  0  0  0  0  0  0
   36.0320   18.0320   31.3450 H   0  0  0  0  0  0  0  0  0  0  0  0
   37.0110   19.8280   30.9020 C   0  0  0  0  0  0  0  0  0  0  0  0
   38.3610   19.0150   30.1060 Cl  0  0  0  0  0  0  0  0  0  0  0  0
   37.9310   27.4560   35.4600 C   0  0  0  0  0  0  0  0  0  0  0  0
   39.2930   27.1060   35.6110 C   0  0  0  0  0  0  0  0  0  0  0  0
   39.8250   26.1270   34.7480 C   0  0  0  0  0  0  0  0  0  0  0  0
   38.9720   25.5980   33.8360 N   0  0  0  0  0  0  0  0  0  0  0  0
   37.6910   25.9370   33.7050 C   0  0  0  0  0  0  0  0  0  0  0  0
   37.1970   26.8620   34.5220 N   0  0  0  0  0  0  0  0  0  0  0  0
   37.5100   28.2200   36.1310 H   0  0  0  0  0  0  0  0  0  0  0  0
   39.9310   27.5560   36.3550 H   0  0  0  0  0  0  0  0  0  0  0  0
   40.8440   25.8520   34.8490 H   0  0  0  0  0  0  0  0  0  0  0  0
  1 25  1  0  0  0  0
  2  7  1  0  0  0  0
  2  1  2  0  0  0  0
  3  2  1  0  0  0  0
  4  3  2  0  0  0  0
  4  5  1  0  0  0  0
  5  6  2  0  0  0  0
  6  1  1  0  0  0  0
  8  3  1  0  0  0  0
  9  4  1  0  0  0  0
 10 11  1  0  0  0  0
 11 12  1  0  0  0  0
 12  5  1  0  0  0  0
 12 13  2  0  0  0  0
 13 14  1  0  0  0  0
 15 13  1  0  0  0  0
 15 16  1  0  0  0  0
 17 15  2  0  0  0  0
 18 17  1  0  0  0  0
 19 11  2  0  0  0  0
 19 17  1  0  0  0  0
 20 19  1  0  0  0  0
 21 22  1  0  0  0  0
 21 27  1  0  0  0  0
 22 28  1  0  0  0  0
 23 29  1  0  0  0  0
 23 22  2  0  0  0  0
 24 23  1  0  0  0  0
 25 24  2  0  0  0  0
 25 26  1  0  0  0  0
 26 21  2  0  0  0  0
M  END
>  <minimizedAffinity>
-5.32824564

$$$$

 OpenBabel03272502543D

 29 31  0  0  0  0  0  0  0  0999 V2000
   36.5930   27.8560   33.7510 C   0  0  0  0  0  0  0  0  0  0  0  0
   36.8490   28.3280   32.4690 C   0  0  0  0  0  0  0  0  0  0  0  0
   36.2350   29.4710   31.9990 C   0  0  0  0  0  0  0  0  0  0  0  0
   35.3690   30.1060   32.8530 C   0  0  0  0  0  0  0  0  0  0  0  0
   35.1020   29.6490   34.1330 C   0  0  0  0  0  0  0  0  0  0  0  0
   35.7310   28.5090   34.5690 N   0  0  0  0  0  0  0  0  0  0  0  0
   37.5570   27.7540   31.8580 H   0  0  0  0  0  0  0  0  0  0  0  0
   36.4610   29.8020   31.0020 H   0  0  0  0  0  0  0  0  0  0  0  0
   34.8950   30.9970   32.4770 H   0  0  0  0  0  0  0  0  0  0  0  0
   36.3010   31.9220   35.7080 Cl  0  0  0  0  0  0  0  0  0  0  0  0
   34.6170   31.3810   35.8100 C   0  0  0  0  0  0  0  0  0  0  0  0
   34.1820   30.3260   35.0380 C   0  0  0  0  0  0  0  0  0  0  0  0
   32.8560   29.9830   35.1900 C   0  0  0  0  0  0  0  0  0  0  0  0
   32.4510   29.1730   34.6220 H   0  0  0  0  0  0  0  0  0  0  0  0
   31.9800   30.6160   36.0420 C   0  0  0  0  0  0  0  0  0  0  0  0
   30.9400   30.3160   36.1350 H   0  0  0  0  0  0  0  0  0  0  0  0
   32.4530   31.6770   36.8070 C   0  0  0  0  0  0  0  0  0  0  0  0
   31.8530   32.2310   37.4960 H   0  0  0  0  0  0  0  0  0  0  0  0
   33.7740   32.0540   36.6850 C   0  0  0  0  0  0  0  0  0  0  0  0
   34.4130   33.3950   37.6390 Cl  0  0  0  0  0  0  0  0  0  0  0  0
   38.2700   25.4480   35.9380 C   0  0  0  0  0  0  0  0  0  0  0  0
   38.4940   24.3510   35.0750 C   0  0  0  0  0  0  0  0  0  0  0  0
   38.0590   24.4580   33.7390 C   0  0  0  0  0  0  0  0  0  0  0  0
   37.4540   25.6220   33.3930 N   0  0  0  0  0  0  0  0  0  0  0  0
   37.2500   26.6490   34.2170 C   0  0  0  0  0  0  0  0  0  0  0  0
   37.6640   26.5390   35.4750 N   0  0  0  0  0  0  0  0  0  0  0  0
   38.6080   25.3700   36.9830 H   0  0  0  0  0  0  0  0  0  0  0  0
   38.9790   23.4440   35.4000 H   0  0  0  0  0  0  0  0  0  0  0  0
   38.2190   23.6440   33.0790 H   0  0  0  0  0  0  0  0  0  0  0  0
  1 25  1  0  0  0  0
  1  6  1  0  0  0  0
  2  1  2  0  0  0  0
  3  2  1  0  0  0  0
  3  4  2  0  0  0  0
  4  5  1  0  0  0  0
  5  6  2  0  0  0  0
  5 12  1  0  0  0  0
  7  2  1  0  0  0  0
  8  3  1  0  0  0  0
  9  4  1  0  0  0  0
 10 11  1  0  0  0  0
 11 19  1  0  0  0  0
 12 13  1  0  0  0  0
 12 11  2  0  0  0  0
 13 15  2  0  0  0  0
 14 13  1  0  0  0  0
 15 16  1  0  0  0  0
 15 17  1  0  0  0  0
 17 18  1  0  0  0  0
 19 17  2  0  0  0  0
 19 20  1  0  0  0  0
 21 27  1  0  0  0  0
 22 28  1  0  0  0  0
 22 21  2  0  0  0  0
 23 22  1  0  0  0  0
 24 23  2  0  0  0  0
 24 25  1  0  0  0  0
 25 26  2  0  0  0  0
 26 21  1  0  0  0  0
 29 23  1  0  0  0  0
M  END
>  <minimizedAffinity>
-5.20364714

$$$$

 OpenBabel03272502543D

 29 31  0  0  0  0  0  0  0  0999 V2000
   35.4970   30.0000   33.2120 C   0  0  0  0  0  0  0  0  0  0  0  0
   35.8990   30.8330   32.1740 C   0  0  0  0  0  0  0  0  0  0  0  0
   36.3740   30.3100   30.9890 C   0  0  0  0  0  0  0  0  0  0  0  0
   36.4300   28.9410   30.8930 C   0  0  0  0  0  0  0  0  0  0  0  0
   36.0350   28.0970   31.9170 C   0  0  0  0  0  0  0  0  0  0  0  0
   35.5660   28.6520   33.0830 N   0  0  0  0  0  0  0  0  0  0  0  0
   35.8170   31.9140   32.3420 H   0  0  0  0  0  0  0  0  0  0  0  0
   36.6740   30.9890   30.2120 H   0  0  0  0  0  0  0  0  0  0  0  0
   36.8030   28.5440   29.9640 H   0  0  0  0  0  0  0  0  0  0  0  0
   38.4310   26.8210   33.2270 Cl  0  0  0  0  0  0  0  0  0  0  0  0
   37.1450   25.9510   32.3720 C   0  0  0  0  0  0  0  0  0  0  0  0
   36.0950   26.6450   31.8120 C   0  0  0  0  0  0  0  0  0  0  0  0
   35.1490   25.8780   31.1700 C   0  0  0  0  0  0  0  0  0  0  0  0
   34.3060   26.3510   30.7110 H   0  0  0  0  0  0  0  0  0  0  0  0
   35.1970   24.5060   31.0650 C   0  0  0  0  0  0  0  0  0  0  0  0
   34.4300   23.9340   30.5500 H   0  0  0  0  0  0  0  0  0  0  0  0
   36.2710   23.8370   31.6430 C   0  0  0  0  0  0  0  0  0  0  0  0
   36.3990   22.7770   31.6160 H   0  0  0  0  0  0  0  0  0  0  0  0
   37.2420   24.5680   32.2950 C   0  0  0  0  0  0  0  0  0  0  0  0
   38.6210   23.7560   33.0410 Cl  0  0  0  0  0  0  0  0  0  0  0  0
   33.2580   30.9180   35.9570 C   0  0  0  0  0  0  0  0  0  0  0  0
   34.0970   31.6860   36.7960 C   0  0  0  0  0  0  0  0  0  0  0  0
   35.4350   31.8780   36.4000 C   0  0  0  0  0  0  0  0  0  0  0  0
   35.8070   31.3000   35.2310 N   0  0  0  0  0  0  0  0  0  0  0  0
   35.0050   30.5780   34.4490 C   0  0  0  0  0  0  0  0  0  0  0  0
   33.7440   30.4030   34.8300 N   0  0  0  0  0  0  0  0  0  0  0  0
   32.2100   30.7650   36.2610 H   0  0  0  0  0  0  0  0  0  0  0  0
   33.7520   32.1250   37.7200 H   0  0  0  0  0  0  0  0  0  0  0  0
   36.0780   32.4510   37.0190 H   0  0  0  0  0  0  0  0  0  0  0  0
  1 25  1  0  0  0  0
  2  7  1  0  0  0  0
  2  1  2  0  0  0  0
  3  2  1  0  0  0  0
  4  3  2  0  0  0  0
  4  5  1  0  0  0  0
  5  6  2  0  0  0  0
  6  1  1  0  0  0  0
  8  3  1  0  0  0  0
  9  4  1  0  0  0  0
 11 10  1  0  0  0  0
 12  5  1  0  0  0  0
 12 11  2  0  0  0  0
 13 12  1  0  0  0  0
 14 13  1  0  0  0  0
 15 13  2  0  0  0  0
 15 17  1  0  0  0  0
 16 15  1  0  0  0  0
 17 19  2  0  0  0  0
 18 17  1  0  0  0  0
 19 11  1  0  0  0  0
 19 20  1  0  0  0  0
 21 27  1  0  0  0  0
 21 22  1  0  0  0  0
 22 28  1  0  0  0  0
 23 22  2  0  0  0  0
 23 29  1  0  0  0  0
 24 23  1  0  0  0  0
 25 26  1  0  0  0  0
 25 24  2  0  0  0  0
 26 21  2  0  0  0  0
M  END
>  <minimizedAffinity>
-5.18250084

$$$$

 OpenBabel03272502543D

 29 31  0  0  0  0  0  0  0  0999 V2000
   37.8490   25.8490   33.6900 C   0  0  0  0  0  0  0  0  0  0  0  0
   37.6330   27.0620   34.3340 C   0  0  0  0  0  0  0  0  0  0  0  0
   38.5010   27.5090   35.3110 C   0  0  0  0  0  0  0  0  0  0  0  0
   39.5710   26.7020   35.6080 C   0  0  0  0  0  0  0  0  0  0  0  0
   39.7990   25.4900   34.9760 C   0  0  0  0  0  0  0  0  0  0  0  0
   38.9160   25.0760   34.0090 N   0  0  0  0  0  0  0  0  0  0  0  0
   36.7520   27.6390   34.0290 H   0  0  0  0  0  0  0  0  0  0  0  0
   38.2980   28.4520   35.7830 H   0  0  0  0  0  0  0  0  0  0  0  0
   40.2400   27.0590   36.3710 H   0  0  0  0  0  0  0  0  0  0  0  0
   39.1900   23.1930   36.8300 Cl  0  0  0  0  0  0  0  0  0  0  0  0
   40.7780   23.5540   36.1320 C   0  0  0  0  0  0  0  0  0  0  0  0
   40.9360   24.6360   35.2940 C   0  0  0  0  0  0  0  0  0  0  0  0
   42.2080   24.8300   34.8040 C   0  0  0  0  0  0  0  0  0  0  0  0
   42.4030   25.6520   34.1480 H   0  0  0  0  0  0  0  0  0  0  0  0
   43.2880   24.0290   35.0990 C   0  0  0  0  0  0  0  0  0  0  0  0
   44.2780   24.2140   34.6920 H   0  0  0  0  0  0  0  0  0  0  0  0
   43.0930   22.9450   35.9480 C   0  0  0  0  0  0  0  0  0  0  0  0
   43.8660   22.2660   36.2370 H   0  0  0  0  0  0  0  0  0  0  0  0
   41.8340   22.7140   36.4620 C   0  0  0  0  0  0  0  0  0  0  0  0
   41.5470   21.3490   37.5440 Cl  0  0  0  0  0  0  0  0  0  0  0  0
   35.9420   23.6630   31.4590 C   0  0  0  0  0  0  0  0  0  0  0  0
   35.1480   24.5800   30.7320 C   0  0  0  0  0  0  0  0  0  0  0  0
   35.2840   25.9520   31.0240 C   0  0  0  0  0  0  0  0  0  0  0  0
   36.1770   26.2770   31.9920 N   0  0  0  0  0  0  0  0  0  0  0  0
   36.9180   25.4020   32.6700 C   0  0  0  0  0  0  0  0  0  0  0  0
   36.7840   24.1100   32.3880 N   0  0  0  0  0  0  0  0  0  0  0  0
   35.8400   22.5900   31.2350 H   0  0  0  0  0  0  0  0  0  0  0  0
   34.4500   24.2700   29.9700 H   0  0  0  0  0  0  0  0  0  0  0  0
   34.6960   26.6530   30.4880 H   0  0  0  0  0  0  0  0  0  0  0  0
  1  6  2  0  0  0  0
  1  2  1  0  0  0  0
  2  3  2  0  0  0  0
  3  4  1  0  0  0  0
  3  8  1  0  0  0  0
  4  9  1  0  0  0  0
  5 12  1  0  0  0  0
  5  4  2  0  0  0  0
  6  5  1  0  0  0  0
  7  2  1  0  0  0  0
 11 19  1  0  0  0  0
 11 10  1  0  0  0  0
 12 11  2  0  0  0  0
 13 15  2  0  0  0  0
 13 12  1  0  0  0  0
 14 13  1  0  0  0  0
 15 17  1  0  0  0  0
 16 15  1  0  0  0  0
 17 18  1  0  0  0  0
 17 19  2  0  0  0  0
 19 20  1  0  0  0  0
 21 26  1  0  0  0  0
 22 23  1  0  0  0  0
 22 21  2  0  0  0  0
 23 24  2  0  0  0  0
 24 25  1  0  0  0  0
 25  1  1  0  0  0  0
 26 25  2  0  0  0  0
 27 21  1  0  0  0  0
 28 22  1  0  0  0  0
 29 23  1  0  0  0  0
M  END
>  <minimizedAffinity>
-5.14140177

$$$$
