
 OpenBabel03272508543D

 40 43  0  0  1  0  0  0  0  0999 V2000
   38.3820   31.8850   44.4990 C   0  0  0  0  0  0  0  0  0  0  0  0
   37.2530   32.4400   44.3870 O   0  0  0  0  0  0  0  0  0  0  0  0
   38.9410   31.6290   45.7960 N   0  0  0  0  0  0  0  0  0  0  0  0
   39.9210   31.3560   45.9470 H   0  0  0  0  0  0  0  0  0  0  0  0
   39.1610   31.4840   43.3100 C   0  0  0  0  0  0  0  0  0  0  0  0
   40.1610   30.5610   43.4610 C   0  0  0  0  0  0  0  0  0  0  0  0
   40.8690   30.2080   42.3240 C   0  0  0  0  0  0  0  0  0  0  0  0
   40.5400   30.7840   41.1380 C   0  0  0  0  0  0  0  0  0  0  0  0
   39.5320   31.7170   40.9750 C   0  0  0  0  0  0  0  0  0  0  0  0
   38.8820   32.0200   42.1060 N   0  0  0  0  0  0  0  0  0  0  0  0
   40.4350   30.0930   44.3960 H   0  0  0  0  0  0  0  0  0  0  0  0
   41.6860   29.4710   42.3820 H   0  0  0  0  0  0  0  0  0  0  0  0
   41.1200   30.4780   40.2770 H   0  0  0  0  0  0  0  0  0  0  0  0
   37.2640   33.5720   41.1520 Cl  0  0  0  0  0  0  0  0  0  0  0  0
   38.1440   33.2130   39.6620 C   0  0  0  0  0  0  0  0  0  0  0  0
   39.1890   32.3270   39.7040 C   0  0  0  0  0  0  0  0  0  0  0  0
   39.8430   32.0730   38.5420 C   0  0  0  0  0  0  0  0  0  0  0  0
   40.6700   31.3890   38.5110 H   0  0  0  0  0  0  0  0  0  0  0  0
   39.4760   32.6840   37.3490 C   0  0  0  0  0  0  0  0  0  0  0  0
   39.9860   32.4970   36.3970 H   0  0  0  0  0  0  0  0  0  0  0  0
   38.4160   33.5670   37.3680 C   0  0  0  0  0  0  0  0  0  0  0  0
   38.0830   34.0750   36.4670 H   0  0  0  0  0  0  0  0  0  0  0  0
   37.7170   33.8590   38.5220 C   0  0  0  0  0  0  0  0  0  0  0  0
   36.3610   34.9820   38.5790 Cl  0  0  0  0  0  0  0  0  0  0  0  0
   38.4310   31.1310   48.1830 C   0  0  2  0  0  0  0  0  0  0  0  0
   38.7080   32.5740   48.1030 C   0  0  0  0  0  0  0  0  0  0  0  0
   38.0650   31.7670   46.9430 C   0  0  1  0  0  0  0  0  0  0  0  0
   39.3510   30.5110   48.2600 H   0  0  0  0  0  0  0  0  0  0  0  0
   38.0440   33.2960   48.6220 H   0  0  0  0  0  0  0  0  0  0  0  0
   39.7270   32.9300   47.9680 H   0  0  0  0  0  0  0  0  0  0  0  0
   37.0100   32.0480   46.7440 H   0  0  0  0  0  0  0  0  0  0  0  0
   35.0910   30.2390   49.5020 C   0  0  0  0  0  0  0  0  0  0  0  0
   35.4100   29.5570   50.7080 C   0  0  0  0  0  0  0  0  0  0  0  0
   36.7990   29.4250   51.0480 C   0  0  0  0  0  0  0  0  0  0  0  0
   37.7460   29.9480   50.2150 N   0  0  0  0  0  0  0  0  0  0  0  0
   37.3530   30.5910   49.0720 C   0  0  0  0  0  0  0  0  0  0  0  0
   36.0370   30.7550   48.6850 N   0  0  0  0  0  0  0  0  0  0  0  0
   34.0670   30.3650   49.2050 H   0  0  0  0  0  0  0  0  0  0  0  0
   34.6360   29.1630   51.3300 H   0  0  0  0  0  0  0  0  0  0  0  0
   37.0560   28.9100   51.9610 H   0  0  0  0  0  0  0  0  0  0  0  0
  1  3  1  0  0  0  0
  2  1  2  0  0  0  0
  3  4  1  0  0  0  0
  3 27  1  0  0  0  0
  5  6  1  0  0  0  0
  5  1  1  0  0  0  0
  6 11  1  0  0  0  0
  7 12  1  0  0  0  0
  7  6  2  0  0  0  0
  8  7  1  0  0  0  0
  9  8  2  0  0  0  0
  9 10  1  0  0  0  0
 10  5  2  0  0  0  0
 13  8  1  0  0  0  0
 15 16  1  0  0  0  0
 15 14  1  0  0  0  0
 16  9  1  0  0  0  0
 17 16  2  0  0  0  0
 18 17  1  0  0  0  0
 19 21  2  0  0  0  0
 19 17  1  0  0  0  0
 20 19  1  0  0  0  0
 21 23  1  0  0  0  0
 22 21  1  0  0  0  0
 23 24  1  0  0  0  0
 23 15  2  0  0  0  0
 25 28  1  6  0  0  0
 25 36  1  0  0  0  0
 26 25  1  0  0  0  0
 26 29  1  0  0  0  0
 27 31  1  6  0  0  0
 27 26  1  0  0  0  0
 27 25  1  0  0  0  0
 30 26  1  0  0  0  0
 32 33  1  0  0  0  0
 33 34  2  0  0  0  0
 33 39  1  0  0  0  0
 34 40  1  0  0  0  0
 35 34  1  0  0  0  0
 36 35  2  0  0  0  0
 37 36  1  0  0  0  0
 37 32  2  0  0  0  0
 38 32  1  0  0  0  0
M  END
>  <minimizedAffinity>
-5.41995192

>  <minimizedRMSD>
0.113995433

$$$$
