
 OpenBabel03272507143D

 42 46  0  0  0  0  0  0  0  0999 V2000
   35.7750   29.1380   49.8790 C   0  0  0  0  0  0  0  0  0  0  0  0
   34.7300   29.6200   50.5990 C   0  0  0  0  0  0  0  0  0  0  0  0
   33.5770   29.0290   50.0830 C   0  0  0  0  0  0  0  0  0  0  0  0
   34.0160   28.1950   49.0460 C   0  0  0  0  0  0  0  0  0  0  0  0
   35.3070   28.3130   48.9860 O   0  0  0  0  0  0  0  0  0  0  0  0
   34.7480   30.3300   51.4250 H   0  0  0  0  0  0  0  0  0  0  0  0
   32.6000   29.2370   50.4720 H   0  0  0  0  0  0  0  0  0  0  0  0
   33.5230   26.4230   47.3690 C   0  0  0  0  0  0  0  0  0  0  0  0
   33.0920   27.3870   48.2420 C   0  0  0  0  0  0  0  0  0  0  0  0
   31.7410   27.6590   48.4270 C   0  0  0  0  0  0  0  0  0  0  0  0
   30.8380   26.9090   47.6870 C   0  0  0  0  0  0  0  0  0  0  0  0
   29.5010   26.9560   47.6700 N   0  0  0  0  0  0  0  0  0  0  0  0
   29.0910   26.0320   46.7990 N   0  0  0  0  0  0  0  0  0  0  0  0
   30.1510   25.4150   46.2770 C   0  0  0  0  0  0  0  0  0  0  0  0
   31.3150   25.9480   46.8210 C   0  0  0  0  0  0  0  0  0  0  0  0
   32.6630   25.6800   46.6380 C   0  0  0  0  0  0  0  0  0  0  0  0
   34.6100   26.2910   47.2980 H   0  0  0  0  0  0  0  0  0  0  0  0
   31.3320   28.4120   49.1040 H   0  0  0  0  0  0  0  0  0  0  0  0
   28.8420   27.5690   48.2060 H   0  0  0  0  0  0  0  0  0  0  0  0
   30.1830   24.6060   45.5310 H   0  0  0  0  0  0  0  0  0  0  0  0
   32.9920   24.9160   45.9450 H   0  0  0  0  0  0  0  0  0  0  0  0
   37.1470   29.5450   50.1480 C   0  0  0  0  0  0  0  0  0  0  0  0
   37.7910   28.9560   51.0580 O   0  0  0  0  0  0  0  0  0  0  0  0
   37.6940   30.6140   49.3450 C   0  0  0  0  0  0  0  0  0  0  0  0
   37.7750   31.8660   49.9280 C   0  0  0  0  0  0  0  0  0  0  0  0
   38.2960   32.9220   49.1890 C   0  0  0  0  0  0  0  0  0  0  0  0
   38.7000   32.6490   47.9160 N   0  0  0  0  0  0  0  0  0  0  0  0
   38.6140   31.4300   47.3710 C   0  0  0  0  0  0  0  0  0  0  0  0
   38.1110   30.4260   48.0940 N   0  0  0  0  0  0  0  0  0  0  0  0
   37.4740   32.1340   50.9170 H   0  0  0  0  0  0  0  0  0  0  0  0
   38.3830   33.9310   49.6010 H   0  0  0  0  0  0  0  0  0  0  0  0
   36.4800   30.5680   45.5470 Cl  0  0  0  0  0  0  0  0  0  0  0  0
   38.1560   30.7880   45.0420 C   0  0  0  0  0  0  0  0  0  0  0  0
   39.0640   31.1980   46.0010 C   0  0  0  0  0  0  0  0  0  0  0  0
   40.3840   31.3830   45.6560 C   0  0  0  0  0  0  0  0  0  0  0  0
   41.1280   31.7040   46.3720 H   0  0  0  0  0  0  0  0  0  0  0  0
   40.8010   31.1580   44.3390 C   0  0  0  0  0  0  0  0  0  0  0  0
   41.8340   31.2850   43.9940 H   0  0  0  0  0  0  0  0  0  0  0  0
   39.8560   30.7500   43.4220 C   0  0  0  0  0  0  0  0  0  0  0  0
   40.1670   30.5730   42.4030 H   0  0  0  0  0  0  0  0  0  0  0  0
   38.5390   30.5600   43.7480 C   0  0  0  0  0  0  0  0  0  0  0  0
   37.3150   30.0400   42.5920 Cl  0  0  0  0  0  0  0  0  0  0  0  0
  1 22  1  0  0  0  0
  1  2  2  0  0  0  0
  2  6  1  0  0  0  0
  3  7  1  0  0  0  0
  3  2  1  0  0  0  0
  4  3  2  0  0  0  0
  5  4  1  0  0  0  0
  5  1  1  0  0  0  0
  8  9  1  0  0  0  0
  9 10  2  0  0  0  0
  9  4  1  0  0  0  0
 10 18  1  0  0  0  0
 11 10  1  0  0  0  0
 12 11  1  0  0  0  0
 12 19  1  0  0  0  0
 13 12  1  0  0  0  0
 14 13  2  0  0  0  0
 14 15  1  0  0  0  0
 15 11  2  0  0  0  0
 16 15  1  0  0  0  0
 16  8  2  0  0  0  0
 17  8  1  0  0  0  0
 20 14  1  0  0  0  0
 21 16  1  0  0  0  0
 22 23  2  0  0  0  0
 24 25  1  0  0  0  0
 24 22  1  0  0  0  0
 25 30  1  0  0  0  0
 26 31  1  0  0  0  0
 26 25  2  0  0  0  0
 27 26  1  0  0  0  0
 28 27  2  0  0  0  0
 28 29  1  0  0  0  0
 29 24  2  0  0  0  0
 33 32  1  0  0  0  0
 33 34  1  0  0  0  0
 34 28  1  0  0  0  0
 35 34  2  0  0  0  0
 35 36  1  0  0  0  0
 37 35  1  0  0  0  0
 38 37  1  0  0  0  0
 39 41  1  0  0  0  0
 39 37  2  0  0  0  0
 40 39  1  0  0  0  0
 41 33  2  0  0  0  0
 42 41  1  0  0  0  0
M  END
>  <minimizedAffinity>
-7.42227268

>  <minimizedRMSD>
0.652453601

$$$$
