REMARK  Name = 
REMARK  1 active torsions:
REMARK  status: ('A' for Active; 'I' for Inactive)
REMARK    1  A    between atoms: C_12  and  C_27
REMARK                            x       y       z     vdW  Elec       q    Type
REMARK                         _______ _______ _______ _____ _____    ______ ____
ROOT
ATOM      1  C   UNL     1      37.095  29.809  51.643  0.00  0.00    +0.000 A 
ATOM      2  C   UNL     1      37.736  30.578  50.672  0.00  0.00    +0.000 A 
ATOM      3  C   UNL     1      37.077  30.826  49.457  0.00  0.00    +0.000 A 
ATOM      4  N   UNL     1      35.839  30.306  49.277  0.00  0.00    +0.000 NA
ATOM      5  C   UNL     1      35.249  29.562  50.249  0.00  0.00    +0.000 A 
ATOM      6  N   UNL     1      35.866  29.307  51.434  0.00  0.00    +0.000 NA
ATOM      7  N   UNL     1      37.571  31.576  48.369  0.00  0.00    +0.000 N 
ATOM      8  C   UNL     1      38.220  32.858  48.500  0.00  0.00    +0.000 C 
ATOM      9  C   UNL     1      39.448  33.072  47.709  0.00  0.00    +0.000 C 
ATOM     10  C   UNL     1      39.504  32.437  46.365  0.00  0.00    +0.000 C 
ATOM     11  C   UNL     1      38.930  31.050  46.443  0.00  0.00    +0.000 C 
ATOM     12  C   UNL     1      37.514  31.201  46.995  0.00  0.00    +0.000 C 
ATOM     13  H   UNL     1      37.744  29.723  52.503  0.00  0.00    +0.000 HD
ATOM     14  H   UNL     1      38.700  31.032  50.706  0.00  0.00    +0.000 HD
ATOM     15  H   UNL     1      34.261  29.131  50.140  0.00  0.00    +0.000 HD
ATOM     16  H   UNL     1      37.462  33.620  48.173  0.00  0.00    +0.000 HD
ATOM     17  H   UNL     1      38.417  33.095  49.559  0.00  0.00    +0.000 HD
ATOM     18  H   UNL     1      40.354  32.773  48.276  0.00  0.00    +0.000 HD
ATOM     19  H   UNL     1      39.568  34.180  47.537  0.00  0.00    +0.000 HD
ATOM     20  H   UNL     1      40.578  32.402  46.045  0.00  0.00    +0.000 HD
ATOM     21  H   UNL     1      38.962  32.990  45.580  0.00  0.00    +0.000 HD
ATOM     22  H   UNL     1      39.545  30.484  47.176  0.00  0.00    +0.000 HD
ATOM     23  H   UNL     1      38.931  30.544  45.461  0.00  0.00    +0.000 HD
ATOM     24  H   UNL     1      37.100  32.048  46.356  0.00  0.00    +0.000 HD
ENDROOT
BRANCH  12  27
ATOM     25 CL   UNL     1      34.684  31.186  48.082  0.00  0.00    +0.000 Cl
ATOM     26  C   UNL     1      35.348  29.892  47.066  0.00  0.00    +0.000 A 
ATOM     27  C   UNL     1      36.680  30.042  46.654  0.00  0.00    +0.000 A 
ATOM     28  C   UNL     1      37.074  28.964  45.867  0.00  0.00    +0.000 A 
ATOM     29  H   UNL     1      38.093  28.966  45.474  0.00  0.00    +0.000 HD
ATOM     30  C   UNL     1      36.321  27.888  45.512  0.00  0.00    +0.000 A 
ATOM     31  H   UNL     1      36.700  27.096  44.900  0.00  0.00    +0.000 HD
ATOM     32  C   UNL     1      35.022  27.844  45.973  0.00  0.00    +0.000 A 
ATOM     33  H   UNL     1      34.410  26.997  45.701  0.00  0.00    +0.000 HD
ATOM     34  C   UNL     1      34.508  28.846  46.760  0.00  0.00    +0.000 A 
ATOM     35 CL   UNL     1      32.877  28.811  47.352  0.00  0.00    +0.000 Cl
ENDBRANCH  12  27
TORSDOF 1
