
     RDKit          3D

 41 44  0  0  0  0  0  0  0  0999 V2000
   34.3215   30.4546   47.6051 F   0  0  0  0  0  0  0  0  0  0  0  0
   34.7474   29.9862   46.3876 C   0  0  0  0  0  0  0  0  0  0  0  0
   33.8826   29.3569   45.4980 C   0  0  0  0  0  0  0  0  0  0  0  0
   34.3703   28.9300   44.2873 C   0  0  0  0  0  0  0  0  0  0  0  0
   35.7158   29.1237   43.9504 C   0  0  0  0  0  0  0  0  0  0  0  0
   36.5194   29.7541   44.8786 C   0  0  0  0  0  0  0  0  0  0  0  0
   36.0862   30.1877   46.0750 C   0  0  0  0  0  0  0  0  0  0  0  0
   37.9801   32.4266   44.9736 Br  0  0  0  0  0  0  0  0  0  0  0  0
   37.8825   31.8447   46.7792 C   0  0  0  0  0  0  0  0  0  0  0  0
   36.9926   30.8284   47.0051 C   0  0  0  0  0  0  0  0  0  0  0  0
   36.8976   30.3197   48.3114 C   0  0  0  0  0  0  0  0  0  0  0  0
   37.6661   30.8249   49.3170 C   0  0  0  0  0  0  0  0  0  0  0  0
   38.5330   31.8422   49.0202 C   0  0  0  0  0  0  0  0  0  0  0  0
   38.6595   32.3761   47.7384 C   0  0  0  0  0  0  0  0  0  0  0  0
   39.4976   33.3911   47.3617 O   0  0  0  0  0  0  0  0  0  0  0  0
   32.2617   28.1883   46.8424 C   0  0  0  0  0  0  0  0  0  0  0  0
   32.5257   29.2213   45.9591 C   0  0  0  0  0  0  0  0  0  0  0  0
   31.4774   30.0746   45.5958 C   0  0  0  0  0  0  0  0  0  0  0  0
   30.2360   29.8805   46.1095 N   0  0  0  0  0  0  0  0  0  0  0  0
   30.0267   28.8616   46.9690 C   0  0  0  0  0  0  0  0  0  0  0  0
   30.9953   28.0387   47.3287 N   0  0  0  0  0  0  0  0  0  0  0  0
   33.6567   28.4515   43.6430 H   0  0  0  0  0  0  0  0  0  0  0  0
   36.0595   28.7766   42.9945 H   0  0  0  0  0  0  0  0  0  0  0  0
   37.5431   29.8641   44.5403 H   0  0  0  0  0  0  0  0  0  0  0  0
   36.2245   29.5167   48.5866 H   0  0  0  0  0  0  0  0  0  0  0  0
   37.6250   30.4619   50.3381 H   0  0  0  0  0  0  0  0  0  0  0  0
   39.1719   32.2842   49.7906 H   0  0  0  0  0  0  0  0  0  0  0  0
   39.4966   34.2522   47.9219 H   0  0  0  0  0  0  0  0  0  0  0  0
   32.9557   27.4490   47.2168 H   0  0  0  0  0  0  0  0  0  0  0  0
   31.7151   30.8746   44.8997 H   0  0  0  0  0  0  0  0  0  0  0  0
   29.7221   29.0238   49.9979 Cl  0  0  0  0  0  0  0  0  0  0  0  0
   28.4093   28.7212   48.8643 C   0  0  0  0  0  0  0  0  0  0  0  0
   28.6830   28.6722   47.5123 C   0  0  0  0  0  0  0  0  0  0  0  0
   27.6006   28.4300   46.6807 C   0  0  0  0  0  0  0  0  0  0  0  0
   27.8237   28.3931   45.6225 H   0  0  0  0  0  0  0  0  0  0  0  0
   26.2985   28.2406   47.1241 C   0  0  0  0  0  0  0  0  0  0  0  0
   25.4949   28.0568   46.4495 H   0  0  0  0  0  0  0  0  0  0  0  0
   26.1484   28.3117   48.4927 C   0  0  0  0  0  0  0  0  0  0  0  0
   25.1212   28.1637   48.8614 H   0  0  0  0  0  0  0  0  0  0  0  0
   27.1527   28.5467   49.4096 C   0  0  0  0  0  0  0  0  0  0  0  0
   26.8411   28.6154   51.1315 Cl  0  0  0  0  0  0  0  0  0  0  0  0
  2  1  1  0
  3 17  1  0
  3  2  2  0
  4  3  1  0
  5  4  2  0
  5  6  1  0
  6  7  2  0
  7  2  1  0
  7 10  1  0
  8  9  1  0
  9 10  2  0
  9 14  1  0
 10 11  1  0
 11 12  2  0
 13 12  1  0
 14 13  2  0
 15 14  1  0
 16 21  2  0
 17 16  1  0
 18 17  2  0
 18 19  1  0
 19 20  2  0
 20 21  1  0
  4 22  1  0
  5 23  1  0
  6 24  1  0
 11 25  1  0
 12 26  1  0
 13 27  1  0
 15 28  1  0
 16 29  1  0
 18 30  1  0
 31 32  1  0
 32 33  2  0
 33 34  1  0
 34 35  1  0
 34 36  2  0
 36 37  1  0
 36 38  1  0
 38 39  1  0
 38 40  2  0
 40 41  1  0
 40 32  1  0
 20 33  1  0
M  ISO  8  22  14  23  14  24  14  25  14  26  14  27  14  28   3  29  14
M  ISO  4  30  14  35  15  37  15  39  15
M  END
>  <DihAtoms>  (1) 
18,19,32,31

>  <DihDeg>  (1) 
0.00012223452332498394

$$$$
