
     RDKit          3D

 35 37  0  0  0  0  0  0  0  0999 V2000
   37.8150   30.4907   50.1727 C   0  0  0  0  0  0  0  0  0  0  0  0
   37.3232   30.6883   48.8937 C   0  0  0  0  0  0  0  0  0  0  0  0
   36.0003   30.2846   48.5798 C   0  0  0  0  0  0  0  0  0  0  0  0
   35.2684   29.7145   49.5627 N   0  0  0  0  0  0  0  0  0  0  0  0
   35.8017   29.5372   50.8272 C   0  0  0  0  0  0  0  0  0  0  0  0
   37.0744   29.9286   51.1218 N   0  0  0  0  0  0  0  0  0  0  0  0
   34.9647   28.9258   51.8174 N   0  0  0  0  0  0  0  0  0  0  0  0
   38.2227   33.5770   49.2030 Cl  0  0  0  0  0  0  0  0  0  0  0  0
   38.7113   32.5888   47.8600 C   0  0  0  0  0  0  0  0  0  0  0  0
   38.2145   31.3239   47.9034 C   0  0  0  0  0  0  0  0  0  0  0  0
   38.5700   30.4497   46.8576 C   0  0  0  0  0  0  0  0  0  0  0  0
   39.3715   30.8310   45.8380 C   0  0  0  0  0  0  0  0  0  0  0  0
   39.8647   32.1309   45.8189 C   0  0  0  0  0  0  0  0  0  0  0  0
   40.9024   32.6715   44.5304 Cl  0  0  0  0  0  0  0  0  0  0  0  0
   39.5301   32.9892   46.8255 C   0  0  0  0  0  0  0  0  0  0  0  0
   35.5041   30.5073   47.2350 C   0  0  0  0  0  0  0  0  0  0  0  0
   38.8280   30.8033   50.4040 H   0  0  0  0  0  0  0  0  0  0  0  0
   34.3042   29.5798   52.2938 H   0  0  0  0  0  0  0  0  0  0  0  0
   34.9554   27.9243   52.0947 H   0  0  0  0  0  0  0  0  0  0  0  0
   38.2594   29.4170   46.7783 H   0  0  0  0  0  0  0  0  0  0  0  0
   39.6778   30.2050   45.0083 H   0  0  0  0  0  0  0  0  0  0  0  0
   39.8914   34.0167   46.8537 H   0  0  0  0  0  0  0  0  0  0  0  0
   35.7474   31.5762   46.9631 H   0  0  0  0  0  0  0  0  0  0  0  0
   36.0124   29.8862   46.4983 H   0  0  0  0  0  0  0  0  0  0  0  0
   34.0720   27.9113   48.0139 Cl  0  0  0  0  0  0  0  0  0  0  0  0
   33.2322   29.3488   47.4060 C   0  0  0  0  0  0  0  0  0  0  0  0
   34.0214   30.4329   47.0981 C   0  0  0  0  0  0  0  0  0  0  0  0
   33.3223   31.5472   46.6218 C   0  0  0  0  0  0  0  0  0  0  0  0
   33.9190   32.4238   46.3701 H   0  0  0  0  0  0  0  0  0  0  0  0
   31.9473   31.6496   46.4396 C   0  0  0  0  0  0  0  0  0  0  0  0
   31.5138   32.5526   46.0703 H   0  0  0  0  0  0  0  0  0  0  0  0
   31.2557   30.4880   46.7863 C   0  0  0  0  0  0  0  0  0  0  0  0
   30.1813   30.5496   46.6501 H   0  0  0  0  0  0  0  0  0  0  0  0
   31.8610   29.3458   47.2625 C   0  0  0  0  0  0  0  0  0  0  0  0
   30.9287   27.9239   47.6728 Cl  0  0  0  0  0  0  0  0  0  0  0  0
  1  6  2  0
  2  1  1  0
  3  2  2  0
  3  4  1  0
  4  5  2  0
  5  6  1  0
  5  7  1  0
  9 10  2  0
  9  8  1  0
 10  2  1  0
 11 10  1  0
 12 11  2  0
 13 12  1  0
 13 15  2  0
 14 13  1  0
 15  9  1  0
 16  3  1  0
  1 17  1  0
  7 18  1  0
  7 19  1  0
 11 20  1  0
 12 21  1  0
 15 22  1  0
 16 23  1  0
 16 24  1  0
 25 26  1  0
 26 27  2  0
 27 28  1  0
 28 29  1  0
 28 30  2  0
 30 31  1  0
 30 32  1  0
 32 33  1  0
 32 34  2  0
 34 35  1  0
 34 26  1  0
 16 27  1  0
M  ISO  8  17  14  20  14  21  14  22  14  23   8  24   8  29  15  31  15
M  ISO  1  33  15
M  END
>  <DihAtoms>  (1) 
2,15,26,25

>  <DihDeg>  (1) 
76.0217088261121

$$$$
