
 OpenBabel03272507143D

 42 46  0  0  0  0  0  0  0  0999 V2000
   35.8720   29.2130   49.8180 C   0  0  0  0  0  0  0  0  0  0  0  0
   34.8690   29.5690   50.6610 C   0  0  0  0  0  0  0  0  0  0  0  0
   33.7100   28.9510   50.1920 C   0  0  0  0  0  0  0  0  0  0  0  0
   34.1010   28.2340   49.0540 C   0  0  0  0  0  0  0  0  0  0  0  0
   35.3740   28.4360   48.8990 O   0  0  0  0  0  0  0  0  0  0  0  0
   34.9200   30.2090   51.5410 H   0  0  0  0  0  0  0  0  0  0  0  0
   32.7610   29.0650   50.6780 H   0  0  0  0  0  0  0  0  0  0  0  0
   33.5640   26.4810   47.3700 C   0  0  0  0  0  0  0  0  0  0  0  0
   33.1570   27.4380   48.2620 C   0  0  0  0  0  0  0  0  0  0  0  0
   31.8120   27.7140   48.4790 C   0  0  0  0  0  0  0  0  0  0  0  0
   30.8890   26.9750   47.7520 C   0  0  0  0  0  0  0  0  0  0  0  0
   29.5520   27.0270   47.7650 N   0  0  0  0  0  0  0  0  0  0  0  0
   29.1200   26.1150   46.8930 N   0  0  0  0  0  0  0  0  0  0  0  0
   30.1660   25.4980   46.3420 C   0  0  0  0  0  0  0  0  0  0  0  0
   31.3430   26.0210   46.8650 C   0  0  0  0  0  0  0  0  0  0  0  0
   32.6860   25.7500   46.6510 C   0  0  0  0  0  0  0  0  0  0  0  0
   34.6500   26.3450   47.2750 H   0  0  0  0  0  0  0  0  0  0  0  0
   31.4210   28.4610   49.1730 H   0  0  0  0  0  0  0  0  0  0  0  0
   28.9080   27.6370   48.3210 H   0  0  0  0  0  0  0  0  0  0  0  0
   30.1770   24.6970   45.5870 H   0  0  0  0  0  0  0  0  0  0  0  0
   32.9970   24.9920   45.9430 H   0  0  0  0  0  0  0  0  0  0  0  0
   37.2380   29.6830   50.0070 C   0  0  0  0  0  0  0  0  0  0  0  0
   37.9100   29.2290   50.9710 O   0  0  0  0  0  0  0  0  0  0  0  0
   37.7450   30.6520   49.0640 C   0  0  0  0  0  0  0  0  0  0  0  0
   38.2520   31.8320   49.5800 C   0  0  0  0  0  0  0  0  0  0  0  0
   38.7500   32.7910   48.7060 C   0  0  0  0  0  0  0  0  0  0  0  0
   38.7080   32.5010   47.3750 N   0  0  0  0  0  0  0  0  0  0  0  0
   38.2140   31.3530   46.8960 C   0  0  0  0  0  0  0  0  0  0  0  0
   37.7380   30.4420   47.7490 N   0  0  0  0  0  0  0  0  0  0  0  0
   38.3090   32.1100   50.6100 H   0  0  0  0  0  0  0  0  0  0  0  0
   39.1620   33.7400   49.0610 H   0  0  0  0  0  0  0  0  0  0  0  0
   40.8720   30.9190   45.7270 Cl  0  0  0  0  0  0  0  0  0  0  0  0
   39.3810   30.8770   44.7850 C   0  0  0  0  0  0  0  0  0  0  0  0
   38.1940   31.0980   45.4580 C   0  0  0  0  0  0  0  0  0  0  0  0
   37.0020   31.0750   44.7680 C   0  0  0  0  0  0  0  0  0  0  0  0
   36.0490   31.2420   45.2530 H   0  0  0  0  0  0  0  0  0  0  0  0
   36.9980   30.8300   43.3900 C   0  0  0  0  0  0  0  0  0  0  0  0
   36.0900   30.7970   42.7760 H   0  0  0  0  0  0  0  0  0  0  0  0
   38.2090   30.6170   42.7670 C   0  0  0  0  0  0  0  0  0  0  0  0
   38.2170   30.4260   41.7040 H   0  0  0  0  0  0  0  0  0  0  0  0
   39.4030   30.6350   43.4390 C   0  0  0  0  0  0  0  0  0  0  0  0
   40.9620   30.3640   42.6620 Cl  0  0  0  0  0  0  0  0  0  0  0  0
  1 22  1  0  0  0  0
  1  2  2  0  0  0  0
  2  6  1  0  0  0  0
  3  2  1  0  0  0  0
  3  7  1  0  0  0  0
  4  3  2  0  0  0  0
  5  4  1  0  0  0  0
  5  1  1  0  0  0  0
  8  9  1  0  0  0  0
  9 10  2  0  0  0  0
  9  4  1  0  0  0  0
 10 18  1  0  0  0  0
 11 12  1  0  0  0  0
 11 10  1  0  0  0  0
 12 19  1  0  0  0  0
 13 12  1  0  0  0  0
 14 15  1  0  0  0  0
 14 13  2  0  0  0  0
 15 11  2  0  0  0  0
 16 15  1  0  0  0  0
 16  8  2  0  0  0  0
 17  8  1  0  0  0  0
 20 14  1  0  0  0  0
 21 16  1  0  0  0  0
 22 23  2  0  0  0  0
 24 25  1  0  0  0  0
 24 22  1  0  0  0  0
 25 30  1  0  0  0  0
 26 31  1  0  0  0  0
 26 25  2  0  0  0  0
 27 26  1  0  0  0  0
 28 27  2  0  0  0  0
 28 29  1  0  0  0  0
 29 24  2  0  0  0  0
 33 34  1  0  0  0  0
 33 32  1  0  0  0  0
 34 28  1  0  0  0  0
 35 36  1  0  0  0  0
 35 34  2  0  0  0  0
 37 35  1  0  0  0  0
 38 37  1  0  0  0  0
 39 37  2  0  0  0  0
 39 41  1  0  0  0  0
 40 39  1  0  0  0  0
 41 33  2  0  0  0  0
 42 41  1  0  0  0  0
M  END
>  <minimizedAffinity>
-7.1369195

>  <minimizedRMSD>
0.717513084

$$$$
