
 OpenBabel03272507143D

 42 46  0  0  0  0  0  0  0  0999 V2000
   35.7740   29.1370   49.8790 C   0  0  0  0  0  0  0  0  0  0  0  0
   34.7300   29.6210   50.5980 C   0  0  0  0  0  0  0  0  0  0  0  0
   33.5760   29.0300   50.0820 C   0  0  0  0  0  0  0  0  0  0  0  0
   34.0150   28.1950   49.0450 C   0  0  0  0  0  0  0  0  0  0  0  0
   35.3070   28.3120   48.9870 O   0  0  0  0  0  0  0  0  0  0  0  0
   34.7470   30.3310   51.4230 H   0  0  0  0  0  0  0  0  0  0  0  0
   32.5990   29.2380   50.4700 H   0  0  0  0  0  0  0  0  0  0  0  0
   33.5230   26.4210   47.3700 C   0  0  0  0  0  0  0  0  0  0  0  0
   33.0920   27.3860   48.2420 C   0  0  0  0  0  0  0  0  0  0  0  0
   31.7410   27.6590   48.4260 C   0  0  0  0  0  0  0  0  0  0  0  0
   30.8380   26.9080   47.6870 C   0  0  0  0  0  0  0  0  0  0  0  0
   29.5000   26.9560   47.6690 N   0  0  0  0  0  0  0  0  0  0  0  0
   29.0910   26.0320   46.7980 N   0  0  0  0  0  0  0  0  0  0  0  0
   30.1510   25.4130   46.2780 C   0  0  0  0  0  0  0  0  0  0  0  0
   31.3150   25.9460   46.8210 C   0  0  0  0  0  0  0  0  0  0  0  0
   32.6630   25.6780   46.6400 C   0  0  0  0  0  0  0  0  0  0  0  0
   34.6100   26.2880   47.3010 H   0  0  0  0  0  0  0  0  0  0  0  0
   31.3320   28.4130   49.1010 H   0  0  0  0  0  0  0  0  0  0  0  0
   28.8420   27.5700   48.2030 H   0  0  0  0  0  0  0  0  0  0  0  0
   30.1830   24.6030   45.5320 H   0  0  0  0  0  0  0  0  0  0  0  0
   32.9920   24.9130   45.9480 H   0  0  0  0  0  0  0  0  0  0  0  0
   37.1470   29.5450   50.1480 C   0  0  0  0  0  0  0  0  0  0  0  0
   37.7900   28.9550   51.0580 O   0  0  0  0  0  0  0  0  0  0  0  0
   37.6940   30.6130   49.3450 C   0  0  0  0  0  0  0  0  0  0  0  0
   37.7750   31.8650   49.9280 C   0  0  0  0  0  0  0  0  0  0  0  0
   38.2960   32.9210   49.1890 C   0  0  0  0  0  0  0  0  0  0  0  0
   38.7010   32.6480   47.9170 N   0  0  0  0  0  0  0  0  0  0  0  0
   38.6140   31.4290   47.3710 C   0  0  0  0  0  0  0  0  0  0  0  0
   38.1110   30.4260   48.0940 N   0  0  0  0  0  0  0  0  0  0  0  0
   37.4740   32.1340   50.9170 H   0  0  0  0  0  0  0  0  0  0  0  0
   38.3830   33.9310   49.6010 H   0  0  0  0  0  0  0  0  0  0  0  0
   36.4800   30.5680   45.5470 Cl  0  0  0  0  0  0  0  0  0  0  0  0
   38.1570   30.7880   45.0420 C   0  0  0  0  0  0  0  0  0  0  0  0
   39.0640   31.1970   46.0010 C   0  0  0  0  0  0  0  0  0  0  0  0
   40.3840   31.3840   45.6560 C   0  0  0  0  0  0  0  0  0  0  0  0
   41.1290   31.7040   46.3730 H   0  0  0  0  0  0  0  0  0  0  0  0
   40.8010   31.1580   44.3400 C   0  0  0  0  0  0  0  0  0  0  0  0
   41.8340   31.2860   43.9950 H   0  0  0  0  0  0  0  0  0  0  0  0
   39.8570   30.7500   43.4230 C   0  0  0  0  0  0  0  0  0  0  0  0
   40.1680   30.5730   42.4040 H   0  0  0  0  0  0  0  0  0  0  0  0
   38.5390   30.5600   43.7480 C   0  0  0  0  0  0  0  0  0  0  0  0
   37.3150   30.0400   42.5910 Cl  0  0  0  0  0  0  0  0  0  0  0  0
  1 22  1  0  0  0  0
  1  2  2  0  0  0  0
  2  6  1  0  0  0  0
  3  7  1  0  0  0  0
  3  2  1  0  0  0  0
  4  3  2  0  0  0  0
  5  4  1  0  0  0  0
  5  1  1  0  0  0  0
  8  9  1  0  0  0  0
  9 10  2  0  0  0  0
  9  4  1  0  0  0  0
 10 18  1  0  0  0  0
 11 10  1  0  0  0  0
 12 11  1  0  0  0  0
 12 19  1  0  0  0  0
 13 12  1  0  0  0  0
 14 13  2  0  0  0  0
 14 15  1  0  0  0  0
 15 11  2  0  0  0  0
 16 15  1  0  0  0  0
 16  8  2  0  0  0  0
 17  8  1  0  0  0  0
 20 14  1  0  0  0  0
 21 16  1  0  0  0  0
 22 23  2  0  0  0  0
 24 25  1  0  0  0  0
 24 22  1  0  0  0  0
 25 30  1  0  0  0  0
 26 31  1  0  0  0  0
 26 25  2  0  0  0  0
 27 26  1  0  0  0  0
 28 27  2  0  0  0  0
 28 29  1  0  0  0  0
 29 24  2  0  0  0  0
 33 32  1  0  0  0  0
 33 34  1  0  0  0  0
 34 28  1  0  0  0  0
 35 34  2  0  0  0  0
 35 36  1  0  0  0  0
 37 35  1  0  0  0  0
 38 37  1  0  0  0  0
 39 41  1  0  0  0  0
 39 37  2  0  0  0  0
 40 39  1  0  0  0  0
 41 33  2  0  0  0  0
 42 41  1  0  0  0  0
M  END
>  <minimizedAffinity>
-7.42266703

>  <minimizedRMSD>
0.636722445

$$$$
