
 OpenBabel03262521143D

 33 35  0  0  0  0  0  0  0  0999 V2000
   37.5000   25.4120   32.7500 C   0  0  0  0  0  0  0  0  0  0  0  0
   36.4360   25.7310   31.9490 C   0  0  0  0  0  0  0  0  0  0  0  0
   35.8860   24.6090   31.5100 N   0  0  0  0  0  0  0  0  0  0  0  0
   36.5600   23.5500   32.0010 C   0  0  0  0  0  0  0  0  0  0  0  0
   37.5520   24.0530   32.7630 N   0  0  0  0  0  0  0  0  0  0  0  0
   36.1150   26.7460   31.7240 H   0  0  0  0  0  0  0  0  0  0  0  0
   35.0520   24.5860   30.8770 H   0  0  0  0  0  0  0  0  0  0  0  0
   38.4690   21.9620   30.2230 Cl  0  0  0  0  0  0  0  0  0  0  0  0
   37.0360   21.3060   30.9780 C   0  0  0  0  0  0  0  0  0  0  0  0
   36.2720   22.1520   31.7570 C   0  0  0  0  0  0  0  0  0  0  0  0
   35.1550   21.5740   32.3260 C   0  0  0  0  0  0  0  0  0  0  0  0
   34.5220   22.2130   32.9500 H   0  0  0  0  0  0  0  0  0  0  0  0
   34.7500   20.2610   32.1870 C   0  0  0  0  0  0  0  0  0  0  0  0
   33.8460   19.9220   32.6870 H   0  0  0  0  0  0  0  0  0  0  0  0
   35.5390   19.4470   31.4020 C   0  0  0  0  0  0  0  0  0  0  0  0
   35.2650   18.4070   31.2610 H   0  0  0  0  0  0  0  0  0  0  0  0
   36.6840   19.9810   30.8000 C   0  0  0  0  0  0  0  0  0  0  0  0
   37.6930   18.9450   29.7990 Cl  0  0  0  0  0  0  0  0  0  0  0  0
   38.3930   26.2560   33.4440 O   0  0  0  0  0  0  0  0  0  0  0  0
   36.9460   27.8850   34.8130 O   0  0  0  0  0  0  0  0  0  0  0  0
   37.9430   26.7530   34.9890 P   0  0  2  0  0  0  0  0  0  0  0  0
   39.3130   27.2860   35.8590 O   0  0  0  0  0  0  0  0  0  0  0  0
   39.0720   27.3210   36.8070 H   0  0  0  0  0  0  0  0  0  0  0  0
   37.3040   25.4470   35.8700 O   0  0  0  0  0  0  0  0  0  0  0  0
   38.1010   24.5860   36.6160 C   0  0  0  0  0  0  0  0  0  0  0  0
   37.8810   24.2020   37.9410 C   0  0  0  0  0  0  0  0  0  0  0  0
   38.7820   23.3350   38.5170 C   0  0  0  0  0  0  0  0  0  0  0  0
   39.8390   22.8810   37.8110 N   0  0  0  0  0  0  0  0  0  0  0  0
   40.0310   23.2740   36.5100 C   0  0  0  0  0  0  0  0  0  0  0  0
   39.1500   24.1280   35.9280 N   0  0  0  0  0  0  0  0  0  0  0  0
   37.0200   24.6220   38.3950 H   0  0  0  0  0  0  0  0  0  0  0  0
   38.6030   23.0400   39.5540 H   0  0  0  0  0  0  0  0  0  0  0  0
   40.8920   22.8760   36.0020 H   0  0  0  0  0  0  0  0  0  0  0  0
  1  5  1  0  0  0  0
  1 19  1  0  0  0  0
  2  1  2  0  0  0  0
  3  2  1  0  0  0  0
  3  4  1  0  0  0  0
  4  5  2  0  0  0  0
  6  2  1  0  0  0  0
  7  3  1  0  0  0  0
  8  9  1  0  0  0  0
  9 10  1  0  0  0  0
 10  4  1  0  0  0  0
 10 11  2  0  0  0  0
 11 12  1  0  0  0  0
 13 11  1  0  0  0  0
 13 14  1  0  0  0  0
 15 13  2  0  0  0  0
 16 15  1  0  0  0  0
 17  9  2  0  0  0  0
 17 15  1  0  0  0  0
 18 17  1  0  0  0  0
 19 21  1  0  0  0  0
 21 20  2  6  0  0  0
 21 22  1  0  0  0  0
 21 24  1  0  0  0  0
 22 23  1  0  0  0  0
 24 25  1  0  0  0  0
 25 26  1  0  0  0  0
 26 31  1  0  0  0  0
 26 27  2  0  0  0  0
 27 32  1  0  0  0  0
 28 27  1  0  0  0  0
 29 28  2  0  0  0  0
 30 29  1  0  0  0  0
 30 25  2  0  0  0  0
 33 29  1  0  0  0  0
M  END
>  <minimizedAffinity>
-5.95941162

$$$$

 OpenBabel03262521143D

 33 35  0  0  0  0  0  0  0  0999 V2000
   38.0740   26.5350   32.7070 C   0  0  0  0  0  0  0  0  0  0  0  0
   38.3980   25.3390   32.1220 C   0  0  0  0  0  0  0  0  0  0  0  0
   38.6440   24.4550   33.0780 N   0  0  0  0  0  0  0  0  0  0  0  0
   38.4910   25.0370   34.2840 C   0  0  0  0  0  0  0  0  0  0  0  0
   38.1400   26.3160   34.0470 N   0  0  0  0  0  0  0  0  0  0  0  0
   38.4410   25.1670   31.0490 H   0  0  0  0  0  0  0  0  0  0  0  0
   38.9140   23.4620   32.8870 H   0  0  0  0  0  0  0  0  0  0  0  0
   40.8320   23.1090   34.6550 Cl  0  0  0  0  0  0  0  0  0  0  0  0
   39.6730   23.5160   35.8980 C   0  0  0  0  0  0  0  0  0  0  0  0
   38.6680   24.4070   35.5770 C   0  0  0  0  0  0  0  0  0  0  0  0
   37.7860   24.6880   36.6020 C   0  0  0  0  0  0  0  0  0  0  0  0
   36.9730   25.3900   36.3850 H   0  0  0  0  0  0  0  0  0  0  0  0
   37.8240   24.1710   37.8810 C   0  0  0  0  0  0  0  0  0  0  0  0
   37.0680   24.4700   38.6040 H   0  0  0  0  0  0  0  0  0  0  0  0
   38.8420   23.2850   38.1640 C   0  0  0  0  0  0  0  0  0  0  0  0
   38.9160   22.8500   39.1550 H   0  0  0  0  0  0  0  0  0  0  0  0
   39.7650   22.9640   37.1620 C   0  0  0  0  0  0  0  0  0  0  0  0
   41.0650   21.8350   37.5190 Cl  0  0  0  0  0  0  0  0  0  0  0  0
   37.7350   27.7690   32.1100 O   0  0  0  0  0  0  0  0  0  0  0  0
   35.4850   26.6180   31.6220 O   0  0  0  0  0  0  0  0  0  0  0  0
   36.3110   27.8260   31.2130 P   0  0  2  0  0  0  0  0  0  0  0  0
   36.6650   27.7760   29.5420 O   0  0  0  0  0  0  0  0  0  0  0  0
   35.8650   28.0640   29.0560 H   0  0  0  0  0  0  0  0  0  0  0  0
   35.5000   29.2960   31.4780 O   0  0  0  0  0  0  0  0  0  0  0  0
   34.9160   29.6190   32.6980 C   0  0  0  0  0  0  0  0  0  0  0  0
   35.5510   30.2440   33.7730 C   0  0  0  0  0  0  0  0  0  0  0  0
   34.8070   30.4860   34.9070 C   0  0  0  0  0  0  0  0  0  0  0  0
   33.5080   30.1240   34.9600 N   0  0  0  0  0  0  0  0  0  0  0  0
   32.9090   29.5110   33.8890 C   0  0  0  0  0  0  0  0  0  0  0  0
   33.6300   29.2660   32.7640 N   0  0  0  0  0  0  0  0  0  0  0  0
   36.5720   30.4820   33.6180 H   0  0  0  0  0  0  0  0  0  0  0  0
   35.3120   30.9750   35.7440 H   0  0  0  0  0  0  0  0  0  0  0  0
   31.8710   29.2470   33.9940 H   0  0  0  0  0  0  0  0  0  0  0  0
  1  5  1  0  0  0  0
  2  1  2  0  0  0  0
  2  3  1  0  0  0  0
  3  4  1  0  0  0  0
  4 10  1  0  0  0  0
  5  4  2  0  0  0  0
  6  2  1  0  0  0  0
  7  3  1  0  0  0  0
  8  9  1  0  0  0  0
  9 17  1  0  0  0  0
 10  9  2  0  0  0  0
 10 11  1  0  0  0  0
 11 13  2  0  0  0  0
 12 11  1  0  0  0  0
 13 15  1  0  0  0  0
 13 14  1  0  0  0  0
 15 16  1  0  0  0  0
 17 18  1  0  0  0  0
 17 15  2  0  0  0  0
 19  1  1  0  0  0  0
 21 24  1  0  0  0  0
 21 20  2  1  0  0  0
 21 19  1  0  0  0  0
 22 21  1  0  0  0  0
 23 22  1  0  0  0  0
 24 25  1  0  0  0  0
 25 30  2  0  0  0  0
 25 26  1  0  0  0  0
 26 27  2  0  0  0  0
 27 28  1  0  0  0  0
 27 32  1  0  0  0  0
 29 33  1  0  0  0  0
 29 28  2  0  0  0  0
 30 29  1  0  0  0  0
 31 26  1  0  0  0  0
M  END
>  <minimizedAffinity>
-5.67377043

$$$$

 OpenBabel03262521143D

 33 35  0  0  0  0  0  0  0  0999 V2000
   36.8080   26.1180   32.5790 C   0  0  0  0  0  0  0  0  0  0  0  0
   36.0960   26.2560   31.4180 C   0  0  0  0  0  0  0  0  0  0  0  0
   36.2410   25.1520   30.7000 N   0  0  0  0  0  0  0  0  0  0  0  0
   37.0330   24.2840   31.3580 C   0  0  0  0  0  0  0  0  0  0  0  0
   37.3780   24.8850   32.5140 N   0  0  0  0  0  0  0  0  0  0  0  0
   35.5150   27.1360   31.1500 H   0  0  0  0  0  0  0  0  0  0  0  0
   35.7910   25.0110   29.7650 H   0  0  0  0  0  0  0  0  0  0  0  0
   35.2410   21.9080   32.0490 Cl  0  0  0  0  0  0  0  0  0  0  0  0
   36.7320   21.7980   31.1420 C   0  0  0  0  0  0  0  0  0  0  0  0
   37.4320   22.9650   30.9090 C   0  0  0  0  0  0  0  0  0  0  0  0
   38.5990   22.8120   30.1880 C   0  0  0  0  0  0  0  0  0  0  0  0
   39.1850   23.7160   29.9840 H   0  0  0  0  0  0  0  0  0  0  0  0
   39.1090   21.6280   29.6950 C   0  0  0  0  0  0  0  0  0  0  0  0
   40.0440   21.6360   29.1390 H   0  0  0  0  0  0  0  0  0  0  0  0
   38.3820   20.4850   29.9470 C   0  0  0  0  0  0  0  0  0  0  0  0
   38.7390   19.5280   29.5810 H   0  0  0  0  0  0  0  0  0  0  0  0
   37.1900   20.5810   30.6740 C   0  0  0  0  0  0  0  0  0  0  0  0
   36.2580   19.1250   30.9980 Cl  0  0  0  0  0  0  0  0  0  0  0  0
   36.9630   27.0180   33.6560 O   0  0  0  0  0  0  0  0  0  0  0  0
   38.2240   27.7950   35.7610 O   0  0  0  0  0  0  0  0  0  0  0  0
   38.0050   26.5640   34.8980 P   0  0  2  0  0  0  0  0  0  0  0  0
   39.4870   26.0110   34.2510 O   0  0  0  0  0  0  0  0  0  0  0  0
   39.9610   25.5250   34.9560 H   0  0  0  0  0  0  0  0  0  0  0  0
   37.3570   25.2580   35.7710 O   0  0  0  0  0  0  0  0  0  0  0  0
   38.1320   24.4490   36.5940 C   0  0  0  0  0  0  0  0  0  0  0  0
   37.9780   24.2910   37.9730 C   0  0  0  0  0  0  0  0  0  0  0  0
   38.8450   23.4410   38.6230 C   0  0  0  0  0  0  0  0  0  0  0  0
   39.8060   22.7890   37.9350 N   0  0  0  0  0  0  0  0  0  0  0  0
   39.9350   22.9630   36.5810 C   0  0  0  0  0  0  0  0  0  0  0  0
   39.0870   23.7980   35.9250 N   0  0  0  0  0  0  0  0  0  0  0  0
   37.1900   24.8520   38.4070 H   0  0  0  0  0  0  0  0  0  0  0  0
   38.7180   23.3230   39.7020 H   0  0  0  0  0  0  0  0  0  0  0  0
   40.7200   22.4150   36.0900 H   0  0  0  0  0  0  0  0  0  0  0  0
  1 19  1  0  0  0  0
  2  1  2  0  0  0  0
  3  4  1  0  0  0  0
  3  2  1  0  0  0  0
  4  5  2  0  0  0  0
  5  1  1  0  0  0  0
  6  2  1  0  0  0  0
  7  3  1  0  0  0  0
  9  8  1  0  0  0  0
 10  9  1  0  0  0  0
 10  4  1  0  0  0  0
 11 10  2  0  0  0  0
 12 11  1  0  0  0  0
 13 15  2  0  0  0  0
 13 11  1  0  0  0  0
 14 13  1  0  0  0  0
 15 17  1  0  0  0  0
 16 15  1  0  0  0  0
 17 18  1  0  0  0  0
 17  9  2  0  0  0  0
 19 21  1  0  0  0  0
 21 20  2  1  0  0  0
 21 24  1  0  0  0  0
 22 21  1  0  0  0  0
 22 23  1  0  0  0  0
 24 25  1  0  0  0  0
 25 26  1  0  0  0  0
 26 31  1  0  0  0  0
 26 27  2  0  0  0  0
 27 32  1  0  0  0  0
 28 27  1  0  0  0  0
 29 28  2  0  0  0  0
 30 29  1  0  0  0  0
 30 25  2  0  0  0  0
 33 29  1  0  0  0  0
M  END
>  <minimizedAffinity>
-5.51535225

$$$$

 OpenBabel03262521143D

 33 35  0  0  0  0  0  0  0  0999 V2000
   37.5150   24.3290   32.1260 C   0  0  0  0  0  0  0  0  0  0  0  0
   37.0550   23.0400   32.1840 C   0  0  0  0  0  0  0  0  0  0  0  0
   37.3600   22.5370   33.3720 N   0  0  0  0  0  0  0  0  0  0  0  0
   38.0110   23.4620   34.1030 C   0  0  0  0  0  0  0  0  0  0  0  0
   38.1030   24.5620   33.3290 N   0  0  0  0  0  0  0  0  0  0  0  0
   36.5300   22.5340   31.3770 H   0  0  0  0  0  0  0  0  0  0  0  0
   37.1140   21.5620   33.6630 H   0  0  0  0  0  0  0  0  0  0  0  0
   40.5630   21.8370   34.5260 Cl  0  0  0  0  0  0  0  0  0  0  0  0
   39.6460   22.5990   35.8040 C   0  0  0  0  0  0  0  0  0  0  0  0
   38.5110   23.3030   35.4530 C   0  0  0  0  0  0  0  0  0  0  0  0
   37.8330   23.8810   36.5070 C   0  0  0  0  0  0  0  0  0  0  0  0
   36.9260   24.4480   36.2700 H   0  0  0  0  0  0  0  0  0  0  0  0
   38.1830   23.8190   37.8410 C   0  0  0  0  0  0  0  0  0  0  0  0
   37.5640   24.3180   38.5840 H   0  0  0  0  0  0  0  0  0  0  0  0
   39.3220   23.1080   38.1520 C   0  0  0  0  0  0  0  0  0  0  0  0
   39.6410   23.0280   39.1860 H   0  0  0  0  0  0  0  0  0  0  0  0
   40.0490   22.5000   37.1230 C   0  0  0  0  0  0  0  0  0  0  0  0
   41.5040   21.5920   37.5150 Cl  0  0  0  0  0  0  0  0  0  0  0  0
   37.4330   25.2700   31.0760 O   0  0  0  0  0  0  0  0  0  0  0  0
   34.8940   25.6770   31.1860 O   0  0  0  0  0  0  0  0  0  0  0  0
   36.2140   26.4280   31.1730 P   0  0  2  0  0  0  0  0  0  0  0  0
   36.2950   27.4820   29.8300 O   0  0  0  0  0  0  0  0  0  0  0  0
   35.7600   28.2750   30.0370 H   0  0  0  0  0  0  0  0  0  0  0  0
   36.4280   27.4030   32.5490 O   0  0  0  0  0  0  0  0  0  0  0  0
   35.9760   28.7160   32.6140 C   0  0  0  0  0  0  0  0  0  0  0  0
   34.9950   29.2060   33.4800 C   0  0  0  0  0  0  0  0  0  0  0  0
   34.6770   30.5430   33.3990 C   0  0  0  0  0  0  0  0  0  0  0  0
   35.3020   31.3410   32.5080 N   0  0  0  0  0  0  0  0  0  0  0  0
   36.2620   30.8330   31.6690 C   0  0  0  0  0  0  0  0  0  0  0  0
   36.5870   29.5160   31.7370 N   0  0  0  0  0  0  0  0  0  0  0  0
   34.5730   28.4890   34.1360 H   0  0  0  0  0  0  0  0  0  0  0  0
   33.9090   30.9190   34.0800 H   0  0  0  0  0  0  0  0  0  0  0  0
   36.7230   31.5200   30.9810 H   0  0  0  0  0  0  0  0  0  0  0  0
  1  2  2  0  0  0  0
  1  5  1  0  0  0  0
  2  3  1  0  0  0  0
  3  7  1  0  0  0  0
  3  4  1  0  0  0  0
  4 10  1  0  0  0  0
  5  4  2  0  0  0  0
  6  2  1  0  0  0  0
  8  9  1  0  0  0  0
  9 17  1  0  0  0  0
 10  9  2  0  0  0  0
 10 11  1  0  0  0  0
 11 13  2  0  0  0  0
 12 11  1  0  0  0  0
 13 15  1  0  0  0  0
 13 14  1  0  0  0  0
 15 16  1  0  0  0  0
 17 18  1  0  0  0  0
 17 15  2  0  0  0  0
 19 21  1  0  0  0  0
 19  1  1  0  0  0  0
 21 20  2  1  0  0  0
 21 24  1  0  0  0  0
 22 23  1  0  0  0  0
 22 21  1  0  0  0  0
 24 25  1  0  0  0  0
 25 26  1  0  0  0  0
 26 31  1  0  0  0  0
 27 26  2  0  0  0  0
 27 32  1  0  0  0  0
 28 27  1  0  0  0  0
 29 30  1  0  0  0  0
 29 28  2  0  0  0  0
 30 25  2  0  0  0  0
 33 29  1  0  0  0  0
M  END
>  <minimizedAffinity>
-5.44348478

$$$$

 OpenBabel03262521143D

 33 35  0  0  0  0  0  0  0  0999 V2000
   36.3560   24.7440   31.8810 C   0  0  0  0  0  0  0  0  0  0  0  0
   35.4320   24.7870   30.8700 C   0  0  0  0  0  0  0  0  0  0  0  0
   35.3830   26.0230   30.3960 N   0  0  0  0  0  0  0  0  0  0  0  0
   36.2520   26.8030   31.0680 C   0  0  0  0  0  0  0  0  0  0  0  0
   36.8470   26.0080   31.9800 N   0  0  0  0  0  0  0  0  0  0  0  0
   34.8470   23.9350   30.5310 H   0  0  0  0  0  0  0  0  0  0  0  0
   34.7500   26.3140   29.6140 H   0  0  0  0  0  0  0  0  0  0  0  0
   35.4190   28.7770   33.2460 Cl  0  0  0  0  0  0  0  0  0  0  0  0
   36.1780   29.2240   31.7360 C   0  0  0  0  0  0  0  0  0  0  0  0
   36.4970   28.2140   30.8500 C   0  0  0  0  0  0  0  0  0  0  0  0
   37.0940   28.6320   29.6780 C   0  0  0  0  0  0  0  0  0  0  0  0
   37.3610   27.8600   28.9480 H   0  0  0  0  0  0  0  0  0  0  0  0
   37.3900   29.9330   29.3270 C   0  0  0  0  0  0  0  0  0  0  0  0
   37.8630   30.1380   28.3690 H   0  0  0  0  0  0  0  0  0  0  0  0
   37.0570   30.9140   30.2370 C   0  0  0  0  0  0  0  0  0  0  0  0
   37.2690   31.9530   30.0100 H   0  0  0  0  0  0  0  0  0  0  0  0
   36.4490   30.5470   31.4430 C   0  0  0  0  0  0  0  0  0  0  0  0
   36.0230   31.7950   32.6070 Cl  0  0  0  0  0  0  0  0  0  0  0  0
   36.7610   23.6590   32.6880 O   0  0  0  0  0  0  0  0  0  0  0  0
   39.1850   23.9120   31.8600 O   0  0  0  0  0  0  0  0  0  0  0  0
   38.3890   23.5780   33.1110 P   0  0  2  0  0  0  0  0  0  0  0  0
   38.7760   22.0110   33.6710 O   0  0  0  0  0  0  0  0  0  0  0  0
   39.6330   22.0620   34.1390 H   0  0  0  0  0  0  0  0  0  0  0  0
   38.7210   24.6340   34.4010 O   0  0  0  0  0  0  0  0  0  0  0  0
   38.7340   24.2150   35.7260 C   0  0  0  0  0  0  0  0  0  0  0  0
   37.8410   24.6150   36.7230 C   0  0  0  0  0  0  0  0  0  0  0  0
   38.0100   24.0910   37.9850 C   0  0  0  0  0  0  0  0  0  0  0  0
   39.0110   23.2210   38.2340 N   0  0  0  0  0  0  0  0  0  0  0  0
   39.8740   22.8450   37.2360 C   0  0  0  0  0  0  0  0  0  0  0  0
   39.7200   23.3530   35.9860 N   0  0  0  0  0  0  0  0  0  0  0  0
   37.0950   25.3020   36.4130 H   0  0  0  0  0  0  0  0  0  0  0  0
   37.3070   24.4090   38.7590 H   0  0  0  0  0  0  0  0  0  0  0  0
   40.6510   22.1480   37.4990 H   0  0  0  0  0  0  0  0  0  0  0  0
  1  5  1  0  0  0  0
  1 19  1  0  0  0  0
  2  1  2  0  0  0  0
  3  2  1  0  0  0  0
  3  4  1  0  0  0  0
  4  5  2  0  0  0  0
  6  2  1  0  0  0  0
  7  3  1  0  0  0  0
  9  8  1  0  0  0  0
 10  4  1  0  0  0  0
 10  9  2  0  0  0  0
 11 10  1  0  0  0  0
 12 11  1  0  0  0  0
 13 11  2  0  0  0  0
 13 15  1  0  0  0  0
 14 13  1  0  0  0  0
 15 17  2  0  0  0  0
 16 15  1  0  0  0  0
 17  9  1  0  0  0  0
 17 18  1  0  0  0  0
 19 21  1  0  0  0  0
 21 20  2  6  0  0  0
 21 22  1  0  0  0  0
 21 24  1  0  0  0  0
 22 23  1  0  0  0  0
 24 25  1  0  0  0  0
 25 30  2  0  0  0  0
 25 26  1  0  0  0  0
 26 27  2  0  0  0  0
 27 28  1  0  0  0  0
 27 32  1  0  0  0  0
 29 33  1  0  0  0  0
 29 28  2  0  0  0  0
 30 29  1  0  0  0  0
 31 26  1  0  0  0  0
M  END
>  <minimizedAffinity>
-5.44182444

$$$$

 OpenBabel03262521143D

 33 35  0  0  0  0  0  0  0  0999 V2000
   38.9400   26.4380   32.6410 C   0  0  0  0  0  0  0  0  0  0  0  0
   39.9040   27.1660   33.2860 C   0  0  0  0  0  0  0  0  0  0  0  0
   40.0990   26.6390   34.4860 N   0  0  0  0  0  0  0  0  0  0  0  0
   39.2870   25.5770   34.6530 C   0  0  0  0  0  0  0  0  0  0  0  0
   38.5760   25.4600   33.5130 N   0  0  0  0  0  0  0  0  0  0  0  0
   40.4110   28.0310   32.8640 H   0  0  0  0  0  0  0  0  0  0  0  0
   40.7910   27.0180   35.1750 H   0  0  0  0  0  0  0  0  0  0  0  0
   41.3390   23.3390   34.9910 Cl  0  0  0  0  0  0  0  0  0  0  0  0
   40.0480   23.6820   36.1170 C   0  0  0  0  0  0  0  0  0  0  0  0
   39.1980   24.7310   35.8250 C   0  0  0  0  0  0  0  0  0  0  0  0
   38.2010   24.9510   36.7540 C   0  0  0  0  0  0  0  0  0  0  0  0
   37.5050   25.7740   36.5570 H   0  0  0  0  0  0  0  0  0  0  0  0
   37.9880   24.2340   37.9140 C   0  0  0  0  0  0  0  0  0  0  0  0
   37.1630   24.5050   38.5700 H   0  0  0  0  0  0  0  0  0  0  0  0
   38.8560   23.1960   38.1720 C   0  0  0  0  0  0  0  0  0  0  0  0
   38.7330   22.6010   39.0710 H   0  0  0  0  0  0  0  0  0  0  0  0
   39.8870   22.9270   37.2640 C   0  0  0  0  0  0  0  0  0  0  0  0
   40.9980   21.6020   37.5890 Cl  0  0  0  0  0  0  0  0  0  0  0  0
   38.3920   26.6080   31.3510 O   0  0  0  0  0  0  0  0  0  0  0  0
   36.6210   28.0970   30.2220 O   0  0  0  0  0  0  0  0  0  0  0  0
   36.7540   26.9870   31.2520 P   0  0  2  0  0  0  0  0  0  0  0  0
   36.1750   27.5050   32.7740 O   0  0  0  0  0  0  0  0  0  0  0  0
   35.1980   27.4700   32.7520 H   0  0  0  0  0  0  0  0  0  0  0  0
   35.8480   25.6070   30.8490 O   0  0  0  0  0  0  0  0  0  0  0  0
   36.3560   24.3180   30.9610 C   0  0  0  0  0  0  0  0  0  0  0  0
   37.5760   23.8680   30.4500 C   0  0  0  0  0  0  0  0  0  0  0  0
   37.9140   22.5500   30.6630 C   0  0  0  0  0  0  0  0  0  0  0  0
   37.0840   21.7340   31.3450 N   0  0  0  0  0  0  0  0  0  0  0  0
   35.8920   22.2020   31.8360 C   0  0  0  0  0  0  0  0  0  0  0  0
   35.5440   23.5000   31.6350 N   0  0  0  0  0  0  0  0  0  0  0  0
   38.1450   24.5970   29.9320 H   0  0  0  0  0  0  0  0  0  0  0  0
   38.8700   22.2060   30.2590 H   0  0  0  0  0  0  0  0  0  0  0  0
   35.2740   21.5020   32.3710 H   0  0  0  0  0  0  0  0  0  0  0  0
  1  2  2  0  0  0  0
  1  5  1  0  0  0  0
  2  3  1  0  0  0  0
  3  4  1  0  0  0  0
  3  7  1  0  0  0  0
  4 10  1  0  0  0  0
  5  4  2  0  0  0  0
  6  2  1  0  0  0  0
  8  9  1  0  0  0  0
  9 17  1  0  0  0  0
 10  9  2  0  0  0  0
 10 11  1  0  0  0  0
 11 13  2  0  0  0  0
 12 11  1  0  0  0  0
 13 15  1  0  0  0  0
 13 14  1  0  0  0  0
 15 16  1  0  0  0  0
 17 18  1  0  0  0  0
 17 15  2  0  0  0  0
 19  1  1  0  0  0  0
 21 20  2  6  0  0  0
 21 19  1  0  0  0  0
 21 22  1  0  0  0  0
 23 22  1  0  0  0  0
 24 25  1  0  0  0  0
 24 21  1  0  0  0  0
 25 30  1  0  0  0  0
 26 27  1  0  0  0  0
 26 25  2  0  0  0  0
 27 28  2  0  0  0  0
 28 29  1  0  0  0  0
 29 33  1  0  0  0  0
 30 29  2  0  0  0  0
 31 26  1  0  0  0  0
 32 27  1  0  0  0  0
M  END
>  <minimizedAffinity>
-5.41529846

$$$$

 OpenBabel03262521143D

 33 35  0  0  0  0  0  0  0  0999 V2000
   38.5480   27.1120   32.0730 C   0  0  0  0  0  0  0  0  0  0  0  0
   39.5830   26.2620   31.7850 C   0  0  0  0  0  0  0  0  0  0  0  0
   39.6250   25.3180   32.7130 N   0  0  0  0  0  0  0  0  0  0  0  0
   38.6410   25.5210   33.6120 C   0  0  0  0  0  0  0  0  0  0  0  0
   37.9830   26.6270   33.2110 N   0  0  0  0  0  0  0  0  0  0  0  0
   40.2470   26.3650   30.9300 H   0  0  0  0  0  0  0  0  0  0  0  0
   40.3310   24.5450   32.7150 H   0  0  0  0  0  0  0  0  0  0  0  0
   38.5170   26.8850   36.3420 Cl  0  0  0  0  0  0  0  0  0  0  0  0
   38.2640   25.1770   36.0720 C   0  0  0  0  0  0  0  0  0  0  0  0
   38.3520   24.7090   34.7760 C   0  0  0  0  0  0  0  0  0  0  0  0
   38.1420   23.3520   34.6290 C   0  0  0  0  0  0  0  0  0  0  0  0
   38.2050   22.9420   33.6160 H   0  0  0  0  0  0  0  0  0  0  0  0
   37.8580   22.4530   35.6370 C   0  0  0  0  0  0  0  0  0  0  0  0
   37.7120   21.4020   35.3950 H   0  0  0  0  0  0  0  0  0  0  0  0
   37.7780   22.9580   36.9170 C   0  0  0  0  0  0  0  0  0  0  0  0
   37.5570   22.2920   37.7450 H   0  0  0  0  0  0  0  0  0  0  0  0
   37.9820   24.3260   37.1250 C   0  0  0  0  0  0  0  0  0  0  0  0
   37.8800   24.9750   38.7560 Cl  0  0  0  0  0  0  0  0  0  0  0  0
   38.1050   28.2610   31.3840 O   0  0  0  0  0  0  0  0  0  0  0  0
   36.0990   26.7580   30.7990 O   0  0  0  0  0  0  0  0  0  0  0  0
   36.6840   28.1260   30.4910 P   0  0  2  0  0  0  0  0  0  0  0  0
   37.0190   28.2760   28.8230 O   0  0  0  0  0  0  0  0  0  0  0  0
   36.1740   28.4500   28.3600 H   0  0  0  0  0  0  0  0  0  0  0  0
   35.6190   29.3950   30.8730 O   0  0  0  0  0  0  0  0  0  0  0  0
   35.5910   29.9980   32.1250 C   0  0  0  0  0  0  0  0  0  0  0  0
   35.8260   31.3490   32.3930 C   0  0  0  0  0  0  0  0  0  0  0  0
   35.7540   31.7660   33.7030 C   0  0  0  0  0  0  0  0  0  0  0  0
   35.4650   30.8860   34.6850 N   0  0  0  0  0  0  0  0  0  0  0  0
   35.2390   29.5650   34.3940 C   0  0  0  0  0  0  0  0  0  0  0  0
   35.3060   29.1380   33.1060 N   0  0  0  0  0  0  0  0  0  0  0  0
   36.0440   31.9460   31.5450 H   0  0  0  0  0  0  0  0  0  0  0  0
   35.9390   32.8240   33.9040 H   0  0  0  0  0  0  0  0  0  0  0  0
   35.0130   28.9140   35.2200 H   0  0  0  0  0  0  0  0  0  0  0  0
  1  5  1  0  0  0  0
  2  1  2  0  0  0  0
  2  3  1  0  0  0  0
  3  7  1  0  0  0  0
  3  4  1  0  0  0  0
  4 10  1  0  0  0  0
  5  4  2  0  0  0  0
  6  2  1  0  0  0  0
  9  8  1  0  0  0  0
  9 17  1  0  0  0  0
 10  9  2  0  0  0  0
 11 10  1  0  0  0  0
 11 13  2  0  0  0  0
 12 11  1  0  0  0  0
 13 15  1  0  0  0  0
 14 13  1  0  0  0  0
 15 17  2  0  0  0  0
 15 16  1  0  0  0  0
 17 18  1  0  0  0  0
 19  1  1  0  0  0  0
 21 20  2  1  0  0  0
 21 24  1  0  0  0  0
 21 19  1  0  0  0  0
 22 21  1  0  0  0  0
 23 22  1  0  0  0  0
 24 25  1  0  0  0  0
 25 26  2  0  0  0  0
 25 30  1  0  0  0  0
 26 27  1  0  0  0  0
 27 32  1  0  0  0  0
 27 28  2  0  0  0  0
 29 28  1  0  0  0  0
 29 33  1  0  0  0  0
 30 29  2  0  0  0  0
 31 26  1  0  0  0  0
M  END
>  <minimizedAffinity>
-5.4101162

$$$$

 OpenBabel03262521143D

 33 35  0  0  0  0  0  0  0  0999 V2000
   37.8270   25.6120   35.9100 C   0  0  0  0  0  0  0  0  0  0  0  0
   38.4070   26.7380   36.4310 C   0  0  0  0  0  0  0  0  0  0  0  0
   38.0550   27.7760   35.6870 N   0  0  0  0  0  0  0  0  0  0  0  0
   37.2550   27.3650   34.6830 C   0  0  0  0  0  0  0  0  0  0  0  0
   37.1190   26.0320   34.8280 N   0  0  0  0  0  0  0  0  0  0  0  0
   39.0460   26.7530   37.3100 H   0  0  0  0  0  0  0  0  0  0  0  0
   38.3710   28.7550   35.8800 H   0  0  0  0  0  0  0  0  0  0  0  0
   38.3950   27.2170   31.8530 Cl  0  0  0  0  0  0  0  0  0  0  0  0
   37.0630   28.2410   32.3360 C   0  0  0  0  0  0  0  0  0  0  0  0
   36.6600   28.1950   33.6560 C   0  0  0  0  0  0  0  0  0  0  0  0
   35.6040   29.0260   33.9730 C   0  0  0  0  0  0  0  0  0  0  0  0
   35.2550   29.0200   35.0120 H   0  0  0  0  0  0  0  0  0  0  0  0
   34.9360   29.8710   33.1100 C   0  0  0  0  0  0  0  0  0  0  0  0
   34.1150   30.4800   33.4800 H   0  0  0  0  0  0  0  0  0  0  0  0
   35.3670   29.8880   31.8000 C   0  0  0  0  0  0  0  0  0  0  0  0
   34.8760   30.5340   31.0810 H   0  0  0  0  0  0  0  0  0  0  0  0
   36.4350   29.0660   31.4220 C   0  0  0  0  0  0  0  0  0  0  0  0
   36.9870   29.0840   29.7520 Cl  0  0  0  0  0  0  0  0  0  0  0  0
   37.9020   24.2720   36.3490 O   0  0  0  0  0  0  0  0  0  0  0  0
   40.1010   22.9930   36.7420 O   0  0  0  0  0  0  0  0  0  0  0  0
   39.0860   23.2980   35.6530 P   0  0  2  0  0  0  0  0  0  0  0  0
   39.8290   24.1130   34.3480 O   0  0  0  0  0  0  0  0  0  0  0  0
   40.3140   23.4500   33.8150 H   0  0  0  0  0  0  0  0  0  0  0  0
   38.3900   21.8930   34.9950 O   0  0  0  0  0  0  0  0  0  0  0  0
   37.4050   21.9350   34.0150 C   0  0  0  0  0  0  0  0  0  0  0  0
   36.3370   21.0440   33.8840 C   0  0  0  0  0  0  0  0  0  0  0  0
   35.4560   21.2450   32.8450 C   0  0  0  0  0  0  0  0  0  0  0  0
   35.6330   22.2740   31.9900 N   0  0  0  0  0  0  0  0  0  0  0  0
   36.6910   23.1340   32.1410 C   0  0  0  0  0  0  0  0  0  0  0  0
   37.5680   22.9490   33.1620 N   0  0  0  0  0  0  0  0  0  0  0  0
   36.2990   20.2750   34.6120 H   0  0  0  0  0  0  0  0  0  0  0  0
   34.6230   20.5440   32.7500 H   0  0  0  0  0  0  0  0  0  0  0  0
   36.7770   23.9340   31.4270 H   0  0  0  0  0  0  0  0  0  0  0  0
  1 19  1  0  0  0  0
  1  2  2  0  0  0  0
  2  6  1  0  0  0  0
  3  7  1  0  0  0  0
  3  2  1  0  0  0  0
  4  5  2  0  0  0  0
  4  3  1  0  0  0  0
  5  1  1  0  0  0  0
  8  9  1  0  0  0  0
  9 10  1  0  0  0  0
 10 11  2  0  0  0  0
 10  4  1  0  0  0  0
 11 12  1  0  0  0  0
 13 14  1  0  0  0  0
 13 11  1  0  0  0  0
 15 13  2  0  0  0  0
 16 15  1  0  0  0  0
 17 15  1  0  0  0  0
 17  9  2  0  0  0  0
 18 17  1  0  0  0  0
 21 19  1  0  0  0  0
 21 20  2  1  0  0  0
 22 21  1  0  0  0  0
 23 22  1  0  0  0  0
 24 21  1  0  0  0  0
 25 24  1  0  0  0  0
 26 25  1  0  0  0  0
 26 31  1  0  0  0  0
 27 26  2  0  0  0  0
 28 29  2  0  0  0  0
 28 27  1  0  0  0  0
 29 30  1  0  0  0  0
 30 25  2  0  0  0  0
 32 27  1  0  0  0  0
 33 29  1  0  0  0  0
M  END
>  <minimizedAffinity>
-5.3917079

$$$$

 OpenBabel03262521143D

 33 35  0  0  0  0  0  0  0  0999 V2000
   36.3750   27.7290   32.6610 C   0  0  0  0  0  0  0  0  0  0  0  0
   35.8450   28.6000   31.7460 C   0  0  0  0  0  0  0  0  0  0  0  0
   35.3120   29.6230   32.3980 N   0  0  0  0  0  0  0  0  0  0  0  0
   35.4760   29.4520   33.7250 C   0  0  0  0  0  0  0  0  0  0  0  0
   36.1310   28.2830   33.8780 N   0  0  0  0  0  0  0  0  0  0  0  0
   35.8690   28.4560   30.6690 H   0  0  0  0  0  0  0  0  0  0  0  0
   34.8420   30.4280   31.9200 H   0  0  0  0  0  0  0  0  0  0  0  0
   32.5690   29.2900   34.6480 Cl  0  0  0  0  0  0  0  0  0  0  0  0
   33.7580   30.3950   35.2960 C   0  0  0  0  0  0  0  0  0  0  0  0
   35.0350   30.3470   34.7740 C   0  0  0  0  0  0  0  0  0  0  0  0
   35.9270   31.2440   35.3280 C   0  0  0  0  0  0  0  0  0  0  0  0
   36.9510   31.2380   34.9400 H   0  0  0  0  0  0  0  0  0  0  0  0
   35.6580   32.1560   36.3290 C   0  0  0  0  0  0  0  0  0  0  0  0
   36.4480   32.8130   36.6840 H   0  0  0  0  0  0  0  0  0  0  0  0
   34.3720   32.1730   36.8250 C   0  0  0  0  0  0  0  0  0  0  0  0
   34.1080   32.8710   37.6130 H   0  0  0  0  0  0  0  0  0  0  0  0
   33.4260   31.2860   36.3000 C   0  0  0  0  0  0  0  0  0  0  0  0
   31.7840   31.3050   36.9300 Cl  0  0  0  0  0  0  0  0  0  0  0  0
   37.0440   26.5020   32.4570 O   0  0  0  0  0  0  0  0  0  0  0  0
   39.2280   27.6270   31.6900 O   0  0  0  0  0  0  0  0  0  0  0  0
   38.7220   26.5080   32.5840 P   0  0  2  0  0  0  0  0  0  0  0  0
   39.3570   25.0030   32.0840 O   0  0  0  0  0  0  0  0  0  0  0  0
   40.2800   24.9440   32.4040 H   0  0  0  0  0  0  0  0  0  0  0  0
   39.1940   26.7020   34.2060 O   0  0  0  0  0  0  0  0  0  0  0  0
   39.0360   25.7000   35.1560 C   0  0  0  0  0  0  0  0  0  0  0  0
   38.0560   25.6570   36.1510 C   0  0  0  0  0  0  0  0  0  0  0  0
   38.0550   24.5780   37.0070 C   0  0  0  0  0  0  0  0  0  0  0  0
   38.9780   23.6020   36.8750 N   0  0  0  0  0  0  0  0  0  0  0  0
   39.9300   23.6690   35.8890 C   0  0  0  0  0  0  0  0  0  0  0  0
   39.9430   24.7270   35.0370 N   0  0  0  0  0  0  0  0  0  0  0  0
   37.3850   26.4780   36.1590 H   0  0  0  0  0  0  0  0  0  0  0  0
   37.2850   24.5530   37.7820 H   0  0  0  0  0  0  0  0  0  0  0  0
   40.6370   22.8600   35.8370 H   0  0  0  0  0  0  0  0  0  0  0  0
  1  5  1  0  0  0  0
  2  3  1  0  0  0  0
  2  1  2  0  0  0  0
  3  4  1  0  0  0  0
  4  5  2  0  0  0  0
  4 10  1  0  0  0  0
  6  2  1  0  0  0  0
  7  3  1  0  0  0  0
  8  9  1  0  0  0  0
  9 17  1  0  0  0  0
 10  9  2  0  0  0  0
 10 11  1  0  0  0  0
 11 13  2  0  0  0  0
 12 11  1  0  0  0  0
 13 14  1  0  0  0  0
 13 15  1  0  0  0  0
 15 16  1  0  0  0  0
 17 15  2  0  0  0  0
 17 18  1  0  0  0  0
 19 21  1  0  0  0  0
 19  1  1  0  0  0  0
 21 20  2  6  0  0  0
 21 24  1  0  0  0  0
 22 23  1  0  0  0  0
 22 21  1  0  0  0  0
 24 25  1  0  0  0  0
 25 26  1  0  0  0  0
 26 31  1  0  0  0  0
 26 27  2  0  0  0  0
 27 32  1  0  0  0  0
 28 27  1  0  0  0  0
 29 28  2  0  0  0  0
 30 25  2  0  0  0  0
 30 29  1  0  0  0  0
 33 29  1  0  0  0  0
M  END
>  <minimizedAffinity>
-5.34187889

$$$$
