
 OpenBabel03272504093D

 35 37  0  0  0  0  0  0  0  0999 V2000
   37.3040   30.6250   50.1550 C   0  0  0  0  0  0  0  0  0  0  0  0
   36.9730   30.5900   48.8110 C   0  0  0  0  0  0  0  0  0  0  0  0
   35.7440   30.0130   48.4040 C   0  0  0  0  0  0  0  0  0  0  0  0
   34.9370   29.5120   49.3670 N   0  0  0  0  0  0  0  0  0  0  0  0
   35.3100   29.5670   50.6980 C   0  0  0  0  0  0  0  0  0  0  0  0
   36.4930   30.1260   51.0810 N   0  0  0  0  0  0  0  0  0  0  0  0
   34.4030   29.0160   51.6610 N   0  0  0  0  0  0  0  0  0  0  0  0
   38.2470   31.0690   50.4560 H   0  0  0  0  0  0  0  0  0  0  0  0
   33.6310   29.6580   51.9510 H   0  0  0  0  0  0  0  0  0  0  0  0
   34.4410   28.0670   52.0840 H   0  0  0  0  0  0  0  0  0  0  0  0
   38.0460   33.4150   49.1610 Cl  0  0  0  0  0  0  0  0  0  0  0  0
   38.5090   32.4020   47.8280 C   0  0  0  0  0  0  0  0  0  0  0  0
   37.9330   31.1710   47.8500 C   0  0  0  0  0  0  0  0  0  0  0  0
   38.2630   30.2800   46.8110 C   0  0  0  0  0  0  0  0  0  0  0  0
   39.1160   30.6130   45.8170 C   0  0  0  0  0  0  0  0  0  0  0  0
   39.6920   31.8790   45.8190 C   0  0  0  0  0  0  0  0  0  0  0  0
   40.7990   32.3570   44.5640 Cl  0  0  0  0  0  0  0  0  0  0  0  0
   39.3820   32.7530   46.8190 C   0  0  0  0  0  0  0  0  0  0  0  0
   37.8890   29.2690   46.7170 H   0  0  0  0  0  0  0  0  0  0  0  0
   39.4070   29.9710   44.9930 H   0  0  0  0  0  0  0  0  0  0  0  0
   39.8070   33.7560   46.8640 H   0  0  0  0  0  0  0  0  0  0  0  0
   35.4150   29.9930   46.9910 C   0  0  0  0  0  0  0  0  0  0  0  0
   35.6170   31.0290   46.5890 H   0  0  0  0  0  0  0  0  0  0  0  0
   36.0590   29.3200   46.4260 H   0  0  0  0  0  0  0  0  0  0  0  0
   34.2560   27.1750   47.3190 Cl  0  0  0  0  0  0  0  0  0  0  0  0
   33.3010   28.5710   46.7890 C   0  0  0  0  0  0  0  0  0  0  0  0
   33.9720   29.7680   46.6900 C   0  0  0  0  0  0  0  0  0  0  0  0
   33.1860   30.8460   46.2700 C   0  0  0  0  0  0  0  0  0  0  0  0
   33.6890   31.8090   46.1820 H   0  0  0  0  0  0  0  0  0  0  0  0
   31.8320   30.8130   45.9550 C   0  0  0  0  0  0  0  0  0  0  0  0
   31.3240   31.6990   45.6450 H   0  0  0  0  0  0  0  0  0  0  0  0
   31.2630   29.5460   46.0940 C   0  0  0  0  0  0  0  0  0  0  0  0
   30.2070   29.5010   45.8520 H   0  0  0  0  0  0  0  0  0  0  0  0
   31.9600   28.4300   46.5020 C   0  0  0  0  0  0  0  0  0  0  0  0
   31.1800   26.8720   46.6490 Cl  0  0  0  0  0  0  0  0  0  0  0  0
  1  8  1  0  0  0  0
  1  6  1  0  0  0  0
  2  1  2  0  0  0  0
  3  2  1  0  0  0  0
  3  4  2  0  0  0  0
  4  5  1  0  0  0  0
  5  6  2  0  0  0  0
  5  7  1  0  0  0  0
  7  9  1  0  0  0  0
  7 10  1  0  0  0  0
 12 13  1  0  0  0  0
 12 11  1  0  0  0  0
 13  2  1  0  0  0  0
 14 13  2  0  0  0  0
 15 16  2  0  0  0  0
 15 14  1  0  0  0  0
 16 18  1  0  0  0  0
 17 16  1  0  0  0  0
 18 21  1  0  0  0  0
 18 12  2  0  0  0  0
 19 14  1  0  0  0  0
 20 15  1  0  0  0  0
 22  3  1  0  0  0  0
 23 22  1  0  0  0  0
 24 22  1  0  0  0  0
 26 25  1  0  0  0  0
 27 26  1  0  0  0  0
 27 22  1  0  0  0  0
 28 27  2  0  0  0  0
 29 28  1  0  0  0  0
 30 32  2  0  0  0  0
 30 28  1  0  0  0  0
 31 30  1  0  0  0  0
 32 34  1  0  0  0  0
 33 32  1  0  0  0  0
 34 35  1  0  0  0  0
 34 26  2  0  0  0  0
M  END
>  <minimizedAffinity>
-5.89603281

>  <minimizedRMSD>
0.997786105

$$$$
