
 OpenBabel03272500513D

 47 52  0  0  1  0  0  0  0  0999 V2000
   31.9500   28.3760   46.7100 C   0  0  0  0  0  0  0  0  0  0  0  0
   32.8310   27.6020   45.9640 C   0  0  0  0  0  0  0  0  0  0  0  0
   34.0740   27.7790   46.4890 N   0  0  0  0  0  0  0  0  0  0  0  0
   33.9840   28.6470   47.5460 C   0  0  0  0  0  0  0  0  0  0  0  0
   32.6960   28.9960   47.6620 N   0  0  0  0  0  0  0  0  0  0  0  0
   32.6260   26.9610   45.1170 H   0  0  0  0  0  0  0  0  0  0  0  0
   34.9980   27.3800   46.2220 H   0  0  0  0  0  0  0  0  0  0  0  0
   29.5430   28.3900   47.5780 C   0  0  1  0  0  0  0  0  0  0  0  0
   29.6380   27.2470   46.5000 C   0  0  0  0  0  0  0  0  0  0  0  0
   30.4750   28.4880   46.4570 C   0  0  2  0  0  0  0  0  0  0  0  0
   29.9310   28.0700   48.5660 H   0  0  0  0  0  0  0  0  0  0  0  0
   28.7970   27.2110   45.7930 H   0  0  0  0  0  0  0  0  0  0  0  0
   30.1760   26.3380   46.7960 H   0  0  0  0  0  0  0  0  0  0  0  0
   30.2450   29.2060   45.6430 H   0  0  0  0  0  0  0  0  0  0  0  0
   26.8830   30.7660   47.1120 C   0  0  0  0  0  0  0  0  0  0  0  0
   26.3050   29.9260   48.0340 C   0  0  0  0  0  0  0  0  0  0  0  0
   27.2330   28.9040   48.3420 C   0  0  0  0  0  0  0  0  0  0  0  0
   28.3250   29.1680   47.5990 N   0  0  0  0  0  0  0  0  0  0  0  0
   28.0820   30.2520   46.9030 N   0  0  0  0  0  0  0  0  0  0  0  0
   25.3210   29.9210   48.5280 H   0  0  0  0  0  0  0  0  0  0  0  0
   27.0830   28.0870   49.0320 H   0  0  0  0  0  0  0  0  0  0  0  0
   25.5050   32.8470   47.3980 C   0  0  0  0  0  0  0  0  0  0  0  0
   26.2280   31.9260   46.5660 C   0  0  0  0  0  0  0  0  0  0  0  0
   26.2710   32.1940   45.2240 C   0  0  0  0  0  0  0  0  0  0  0  0
   25.6400   33.3000   44.7380 N   0  0  0  0  0  0  0  0  0  0  0  0
   24.9670   34.1460   45.5620 C   0  0  0  0  0  0  0  0  0  0  0  0
   24.8940   33.9280   46.8930 N   0  0  0  0  0  0  0  0  0  0  0  0
   25.5230   32.5590   48.4380 H   0  0  0  0  0  0  0  0  0  0  0  0
   26.7790   31.5790   44.5110 H   0  0  0  0  0  0  0  0  0  0  0  0
   24.4550   35.0280   45.2280 H   0  0  0  0  0  0  0  0  0  0  0  0
   35.1160   29.1110   48.3880 C   0  0  0  0  0  0  0  0  0  0  0  0
   35.4680   28.4090   49.5600 C   0  0  0  0  0  0  0  0  0  0  0  0
   36.8880   29.3750   50.2000 S   0  0  0  0  0  0  0  0  0  0  0  0
   36.7540   30.5740   48.7510 C   0  0  0  0  0  0  0  0  0  0  0  0
   35.8780   30.1530   48.1660 N   0  0  0  0  0  0  0  0  0  0  0  0
   34.9750   27.5110   49.9420 H   0  0  0  0  0  0  0  0  0  0  0  0
   38.2570   30.4730   46.2630 Cl  0  0  0  0  0  0  0  0  0  0  0  0
   38.4370   31.7400   47.4360 C   0  0  0  0  0  0  0  0  0  0  0  0
   37.6990   31.7470   48.6080 C   0  0  0  0  0  0  0  0  0  0  0  0
   37.7610   32.6890   49.5950 C   0  0  0  0  0  0  0  0  0  0  0  0
   37.1570   32.6370   50.4890 H   0  0  0  0  0  0  0  0  0  0  0  0
   38.6510   33.7190   49.3750 C   0  0  0  0  0  0  0  0  0  0  0  0
   38.7810   34.5240   50.0970 H   0  0  0  0  0  0  0  0  0  0  0  0
   39.4500   33.8210   48.2310 C   0  0  0  0  0  0  0  0  0  0  0  0
   40.1360   34.6440   48.0970 H   0  0  0  0  0  0  0  0  0  0  0  0
   39.2990   32.8090   47.3060 C   0  0  0  0  0  0  0  0  0  0  0  0
   40.2470   32.8220   45.8240 Cl  0  0  0  0  0  0  0  0  0  0  0  0
  1  5  1  0  0  0  0
  2  3  1  0  0  0  0
  2  1  2  0  0  0  0
  3  4  1  0  0  0  0
  4  5  2  0  0  0  0
  4 31  1  0  0  0  0
  6  2  1  0  0  0  0
  7  3  1  0  0  0  0
  8 18  1  0  0  0  0
  8 11  1  1  0  0  0
  9 13  1  0  0  0  0
  9  8  1  0  0  0  0
 10 14  1  6  0  0  0
 10  9  1  0  0  0  0
 10  1  1  0  0  0  0
 10  8  1  0  0  0  0
 12  9  1  0  0  0  0
 15 16  1  0  0  0  0
 16 17  2  0  0  0  0
 16 20  1  0  0  0  0
 17 21  1  0  0  0  0
 18 17  1  0  0  0  0
 19 15  2  0  0  0  0
 19 18  1  0  0  0  0
 22 28  1  0  0  0  0
 23 15  1  0  0  0  0
 23 22  2  0  0  0  0
 24 23  1  0  0  0  0
 25 24  2  0  0  0  0
 25 26  1  0  0  0  0
 26 27  2  0  0  0  0
 27 22  1  0  0  0  0
 29 24  1  0  0  0  0
 30 26  1  0  0  0  0
 31 32  2  0  0  0  0
 32 36  1  0  0  0  0
 32 33  1  0  0  0  0
 34 33  1  0  0  0  0
 35 31  1  0  0  0  0
 35 34  2  0  0  0  0
 37 38  1  0  0  0  0
 38 39  1  0  0  0  0
 39 34  1  0  0  0  0
 39 40  2  0  0  0  0
 40 41  1  0  0  0  0
 42 40  1  0  0  0  0
 42 43  1  0  0  0  0
 44 42  2  0  0  0  0
 45 44  1  0  0  0  0
 46 38  2  0  0  0  0
 46 44  1  0  0  0  0
 47 46  1  0  0  0  0
M  END
>  <minimizedAffinity>
-7.42328644

>  <minimizedRMSD>
3.33524203

$$$$
