
 OpenBabel03272508543D

 40 43  0  0  1  0  0  0  0  0999 V2000
   38.4390   31.8180   44.5060 C   0  0  0  0  0  0  0  0  0  0  0  0
   37.3550   32.4550   44.3880 O   0  0  0  0  0  0  0  0  0  0  0  0
   38.9540   31.4910   45.8050 N   0  0  0  0  0  0  0  0  0  0  0  0
   39.9090   31.1450   45.9660 H   0  0  0  0  0  0  0  0  0  0  0  0
   39.2100   31.3900   43.3200 C   0  0  0  0  0  0  0  0  0  0  0  0
   40.2070   30.4660   43.4840 C   0  0  0  0  0  0  0  0  0  0  0  0
   40.9070   30.0860   42.3510 C   0  0  0  0  0  0  0  0  0  0  0  0
   40.5740   30.6410   41.1550 C   0  0  0  0  0  0  0  0  0  0  0  0
   39.5690   31.5740   40.9790 C   0  0  0  0  0  0  0  0  0  0  0  0
   38.9270   31.9030   42.1070 N   0  0  0  0  0  0  0  0  0  0  0  0
   40.4840   30.0150   44.4270 H   0  0  0  0  0  0  0  0  0  0  0  0
   41.7210   29.3470   42.4190 H   0  0  0  0  0  0  0  0  0  0  0  0
   41.1480   30.3150   40.2970 H   0  0  0  0  0  0  0  0  0  0  0  0
   41.5350   31.0110   38.8740 Cl  0  0  0  0  0  0  0  0  0  0  0  0
   40.0660   31.9660   38.6370 C   0  0  0  0  0  0  0  0  0  0  0  0
   39.2220   32.1610   39.6980 C   0  0  0  0  0  0  0  0  0  0  0  0
   38.1020   32.8980   39.4820 C   0  0  0  0  0  0  0  0  0  0  0  0
   37.4030   33.0860   40.2750 H   0  0  0  0  0  0  0  0  0  0  0  0
   37.8140   33.4380   38.2350 C   0  0  0  0  0  0  0  0  0  0  0  0
   36.9180   34.0370   38.0330 H   0  0  0  0  0  0  0  0  0  0  0  0
   38.7010   33.2090   37.2050 C   0  0  0  0  0  0  0  0  0  0  0  0
   38.5290   33.6060   36.2070 H   0  0  0  0  0  0  0  0  0  0  0  0
   39.8530   32.4660   37.3710 C   0  0  0  0  0  0  0  0  0  0  0  0
   41.0040   32.1560   36.0740 Cl  0  0  0  0  0  0  0  0  0  0  0  0
   38.4250   31.0700   48.2030 C   0  0  2  0  0  0  0  0  0  0  0  0
   38.7000   32.5110   48.0780 C   0  0  0  0  0  0  0  0  0  0  0  0
   38.0680   31.6650   46.9400 C   0  0  1  0  0  0  0  0  0  0  0  0
   39.3450   30.4550   48.3080 H   0  0  0  0  0  0  0  0  0  0  0  0
   38.0310   33.2480   48.5680 H   0  0  0  0  0  0  0  0  0  0  0  0
   39.7200   32.8640   47.9400 H   0  0  0  0  0  0  0  0  0  0  0  0
   37.0140   31.9380   46.7230 H   0  0  0  0  0  0  0  0  0  0  0  0
   35.0740   30.2400   49.5360 C   0  0  0  0  0  0  0  0  0  0  0  0
   35.3850   29.5740   50.7530 C   0  0  0  0  0  0  0  0  0  0  0  0
   36.7720   29.4310   51.0940 C   0  0  0  0  0  0  0  0  0  0  0  0
   37.7260   29.9290   50.2540 N   0  0  0  0  0  0  0  0  0  0  0  0
   37.3400   30.5580   49.1000 C   0  0  0  0  0  0  0  0  0  0  0  0
   36.0270   30.7310   48.7100 N   0  0  0  0  0  0  0  0  0  0  0  0
   34.0520   30.3730   49.2360 H   0  0  0  0  0  0  0  0  0  0  0  0
   34.6060   29.2000   51.3800 H   0  0  0  0  0  0  0  0  0  0  0  0
   37.0230   28.9270   52.0160 H   0  0  0  0  0  0  0  0  0  0  0  0
  1  3  1  0  0  0  0
  2  1  2  0  0  0  0
  3  4  1  0  0  0  0
  3 27  1  0  0  0  0
  5  6  1  0  0  0  0
  5  1  1  0  0  0  0
  6 11  1  0  0  0  0
  7 12  1  0  0  0  0
  7  6  2  0  0  0  0
  8  7  1  0  0  0  0
  9  8  2  0  0  0  0
  9 10  1  0  0  0  0
 10  5  2  0  0  0  0
 13  8  1  0  0  0  0
 15 14  1  0  0  0  0
 15 16  1  0  0  0  0
 16  9  1  0  0  0  0
 17 16  2  0  0  0  0
 17 18  1  0  0  0  0
 19 17  1  0  0  0  0
 20 19  1  0  0  0  0
 21 23  1  0  0  0  0
 21 19  2  0  0  0  0
 22 21  1  0  0  0  0
 23 15  2  0  0  0  0
 24 23  1  0  0  0  0
 25 28  1  6  0  0  0
 25 36  1  0  0  0  0
 26 25  1  0  0  0  0
 26 29  1  0  0  0  0
 27 31  1  6  0  0  0
 27 26  1  0  0  0  0
 27 25  1  0  0  0  0
 30 26  1  0  0  0  0
 32 33  1  0  0  0  0
 33 34  2  0  0  0  0
 33 39  1  0  0  0  0
 34 40  1  0  0  0  0
 35 34  1  0  0  0  0
 36 35  2  0  0  0  0
 37 36  1  0  0  0  0
 37 32  2  0  0  0  0
 38 32  1  0  0  0  0
M  END
>  <minimizedAffinity>
-5.27137232

>  <minimizedRMSD>
0.369472861

$$$$
