
 OpenBabel03272507133D

 42 46  0  0  0  0  0  0  0  0999 V2000
   35.7780   29.1360   49.8760 C   0  0  0  0  0  0  0  0  0  0  0  0
   34.7340   29.6200   50.5960 C   0  0  0  0  0  0  0  0  0  0  0  0
   33.5800   29.0290   50.0800 C   0  0  0  0  0  0  0  0  0  0  0  0
   34.0180   28.1940   49.0440 C   0  0  0  0  0  0  0  0  0  0  0  0
   35.3100   28.3110   48.9840 O   0  0  0  0  0  0  0  0  0  0  0  0
   34.7530   30.3310   51.4210 H   0  0  0  0  0  0  0  0  0  0  0  0
   32.6040   29.2380   50.4690 H   0  0  0  0  0  0  0  0  0  0  0  0
   33.5240   26.4200   47.3690 C   0  0  0  0  0  0  0  0  0  0  0  0
   33.0940   27.3850   48.2410 C   0  0  0  0  0  0  0  0  0  0  0  0
   31.7430   27.6590   48.4260 C   0  0  0  0  0  0  0  0  0  0  0  0
   30.8390   26.9090   47.6870 C   0  0  0  0  0  0  0  0  0  0  0  0
   29.5020   26.9570   47.6700 N   0  0  0  0  0  0  0  0  0  0  0  0
   29.0920   26.0330   46.8000 N   0  0  0  0  0  0  0  0  0  0  0  0
   30.1510   25.4140   46.2790 C   0  0  0  0  0  0  0  0  0  0  0  0
   31.3150   25.9470   46.8210 C   0  0  0  0  0  0  0  0  0  0  0  0
   32.6640   25.6780   46.6390 C   0  0  0  0  0  0  0  0  0  0  0  0
   34.6110   26.2870   47.2990 H   0  0  0  0  0  0  0  0  0  0  0  0
   31.3350   28.4130   49.1020 H   0  0  0  0  0  0  0  0  0  0  0  0
   28.8440   27.5710   48.2060 H   0  0  0  0  0  0  0  0  0  0  0  0
   30.1820   24.6040   45.5330 H   0  0  0  0  0  0  0  0  0  0  0  0
   32.9920   24.9130   45.9470 H   0  0  0  0  0  0  0  0  0  0  0  0
   37.1510   29.5430   50.1450 C   0  0  0  0  0  0  0  0  0  0  0  0
   37.7940   28.9530   51.0540 O   0  0  0  0  0  0  0  0  0  0  0  0
   37.6980   30.6120   49.3410 C   0  0  0  0  0  0  0  0  0  0  0  0
   37.7800   31.8630   49.9250 C   0  0  0  0  0  0  0  0  0  0  0  0
   38.3010   32.9190   49.1860 C   0  0  0  0  0  0  0  0  0  0  0  0
   38.7040   32.6470   47.9130 N   0  0  0  0  0  0  0  0  0  0  0  0
   38.6160   31.4280   47.3670 C   0  0  0  0  0  0  0  0  0  0  0  0
   38.1130   30.4250   48.0900 N   0  0  0  0  0  0  0  0  0  0  0  0
   37.4810   32.1320   50.9150 H   0  0  0  0  0  0  0  0  0  0  0  0
   38.3890   33.9280   49.5980 H   0  0  0  0  0  0  0  0  0  0  0  0
   36.4800   30.5680   45.5450 Cl  0  0  0  0  0  0  0  0  0  0  0  0
   38.1560   30.7880   45.0380 C   0  0  0  0  0  0  0  0  0  0  0  0
   39.0640   31.1960   45.9960 C   0  0  0  0  0  0  0  0  0  0  0  0
   40.3850   31.3830   45.6500 C   0  0  0  0  0  0  0  0  0  0  0  0
   41.1300   31.7020   46.3670 H   0  0  0  0  0  0  0  0  0  0  0  0
   40.7990   31.1570   44.3330 C   0  0  0  0  0  0  0  0  0  0  0  0
   41.8320   31.2840   43.9860 H   0  0  0  0  0  0  0  0  0  0  0  0
   39.8530   30.7500   43.4170 C   0  0  0  0  0  0  0  0  0  0  0  0
   40.1640   30.5730   42.3980 H   0  0  0  0  0  0  0  0  0  0  0  0
   38.5370   30.5610   43.7440 C   0  0  0  0  0  0  0  0  0  0  0  0
   37.3110   30.0410   42.5880 Cl  0  0  0  0  0  0  0  0  0  0  0  0
  1 22  1  0  0  0  0
  1  2  2  0  0  0  0
  2  6  1  0  0  0  0
  3  7  1  0  0  0  0
  3  2  1  0  0  0  0
  4  3  2  0  0  0  0
  5  4  1  0  0  0  0
  5  1  1  0  0  0  0
  8  9  1  0  0  0  0
  9 10  2  0  0  0  0
  9  4  1  0  0  0  0
 10 18  1  0  0  0  0
 11 10  1  0  0  0  0
 12 11  1  0  0  0  0
 12 19  1  0  0  0  0
 13 12  1  0  0  0  0
 14 13  2  0  0  0  0
 14 15  1  0  0  0  0
 15 11  2  0  0  0  0
 16 15  1  0  0  0  0
 16  8  2  0  0  0  0
 17  8  1  0  0  0  0
 20 14  1  0  0  0  0
 21 16  1  0  0  0  0
 22 23  2  0  0  0  0
 24 25  1  0  0  0  0
 24 22  1  0  0  0  0
 25 30  1  0  0  0  0
 26 31  1  0  0  0  0
 26 25  2  0  0  0  0
 27 26  1  0  0  0  0
 28 27  2  0  0  0  0
 28 29  1  0  0  0  0
 29 24  2  0  0  0  0
 33 32  1  0  0  0  0
 33 34  1  0  0  0  0
 34 28  1  0  0  0  0
 35 34  2  0  0  0  0
 35 36  1  0  0  0  0
 37 35  1  0  0  0  0
 38 37  1  0  0  0  0
 39 41  1  0  0  0  0
 39 37  2  0  0  0  0
 40 39  1  0  0  0  0
 41 33  2  0  0  0  0
 42 41  1  0  0  0  0
M  END
>  <minimizedAffinity>
-7.42383957

>  <minimizedRMSD>
0.437739253

$$$$
