
 OpenBabel03272503433D

 43 46  0  0  1  0  0  0  0  0999 V2000
   34.8070   29.3250   32.2750 C   0  0  2  0  0  0  0  0  0  0  0  0
   35.8680   28.7070   31.3430 C   0  0  1  0  0  0  0  0  0  0  0  0
   36.8940   29.8090   31.4060 C   0  0  0  0  0  0  0  0  0  0  0  0
   36.2130   31.0000   31.4790 O   0  0  0  0  0  0  0  0  0  0  0  0
   34.9010   30.7640   31.7490 C   0  0  0  0  0  0  0  0  0  0  0  0
   33.8230   28.8960   32.1110 H   0  0  0  0  0  0  0  0  0  0  0  0
   35.5110   28.5940   30.3220 H   0  0  0  0  0  0  0  0  0  0  0  0
   37.5160   29.6420   32.3060 H   0  0  0  0  0  0  0  0  0  0  0  0
   37.5460   29.8470   30.5120 H   0  0  0  0  0  0  0  0  0  0  0  0
   34.3860   31.4810   32.3850 H   0  0  0  0  0  0  0  0  0  0  0  0
   34.3630   30.7560   30.7600 H   0  0  0  0  0  0  0  0  0  0  0  0
   37.4220   25.9160   32.9830 C   0  0  0  0  0  0  0  0  0  0  0  0
   36.5240   25.2520   32.1920 C   0  0  0  0  0  0  0  0  0  0  0  0
   35.8620   26.2690   31.5040 C   0  0  0  0  0  0  0  0  0  0  0  0
   36.3440   27.4600   31.8720 N   0  0  0  0  0  0  0  0  0  0  0  0
   37.3000   27.2460   32.7800 N   0  0  0  0  0  0  0  0  0  0  0  0
   36.3540   24.1710   32.1060 H   0  0  0  0  0  0  0  0  0  0  0  0
   35.0740   26.0070   30.7850 H   0  0  0  0  0  0  0  0  0  0  0  0
   38.8920   23.9300   35.8050 C   0  0  0  0  0  0  0  0  0  0  0  0
   37.9510   24.4960   34.9570 C   0  0  0  0  0  0  0  0  0  0  0  0
   38.3650   25.2940   33.9070 C   0  0  0  0  0  0  0  0  0  0  0  0
   39.6880   25.4930   33.7470 N   0  0  0  0  0  0  0  0  0  0  0  0
   40.5920   24.9270   34.5910 C   0  0  0  0  0  0  0  0  0  0  0  0
   40.2040   24.1590   35.6020 N   0  0  0  0  0  0  0  0  0  0  0  0
   36.8750   24.3820   35.0220 H   0  0  0  0  0  0  0  0  0  0  0  0
   41.6470   25.1030   34.4400 H   0  0  0  0  0  0  0  0  0  0  0  0
   38.3210   23.1530   36.8130 O   0  0  0  0  0  0  0  0  0  0  0  0
   38.3210   23.5220   38.1670 C   0  0  0  0  0  0  0  0  0  0  0  0
   37.4200   22.7910   38.9170 F   0  0  0  0  0  0  0  0  0  0  0  0
   38.0780   24.8690   38.2660 F   0  0  0  0  0  0  0  0  0  0  0  0
   39.6010   23.3060   38.6720 F   0  0  0  0  0  0  0  0  0  0  0  0
   35.3370   29.2690   33.5470 O   0  0  0  0  0  0  0  0  0  0  0  0
   32.4680   29.0900   34.3570 Cl  0  0  0  0  0  0  0  0  0  0  0  0
   33.7320   30.1160   35.0220 C   0  0  0  0  0  0  0  0  0  0  0  0
   35.0510   30.1250   34.5710 C   0  0  0  0  0  0  0  0  0  0  0  0
   35.9320   30.9860   35.1930 C   0  0  0  0  0  0  0  0  0  0  0  0
   36.9490   30.9880   34.8390 H   0  0  0  0  0  0  0  0  0  0  0  0
   35.5640   31.8300   36.2320 C   0  0  0  0  0  0  0  0  0  0  0  0
   36.2940   32.4800   36.6780 H   0  0  0  0  0  0  0  0  0  0  0  0
   34.2390   31.8000   36.6620 C   0  0  0  0  0  0  0  0  0  0  0  0
   33.9720   32.4690   37.4790 H   0  0  0  0  0  0  0  0  0  0  0  0
   33.3320   30.9410   36.0530 C   0  0  0  0  0  0  0  0  0  0  0  0
   31.7120   31.0170   36.7010 Cl  0  0  0  0  0  0  0  0  0  0  0  0
  1  6  1  6  0  0  0
  1 32  1  0  0  0  0
  2  7  1  6  0  0  0
  2  3  1  0  0  0  0
  2 15  1  0  0  0  0
  2  1  1  0  0  0  0
  3  4  1  0  0  0  0
  3  8  1  0  0  0  0
  4  5  1  0  0  0  0
  5  1  1  0  0  0  0
  5 10  1  0  0  0  0
  9  3  1  0  0  0  0
 11  5  1  0  0  0  0
 12 21  1  0  0  0  0
 13 12  1  0  0  0  0
 14 15  1  0  0  0  0
 14 13  2  0  0  0  0
 15 16  1  0  0  0  0
 16 12  2  0  0  0  0
 17 13  1  0  0  0  0
 18 14  1  0  0  0  0
 19 27  1  0  0  0  0
 20 25  1  0  0  0  0
 20 19  2  0  0  0  0
 21 20  1  0  0  0  0
 22 21  2  0  0  0  0
 22 23  1  0  0  0  0
 23 24  2  0  0  0  0
 24 19  1  0  0  0  0
 26 23  1  0  0  0  0
 27 28  1  0  0  0  0
 28 30  1  0  0  0  0
 28 31  1  0  0  0  0
 28 29  1  0  0  0  0
 32 35  1  0  0  0  0
 33 34  1  0  0  0  0
 34 42  1  0  0  0  0
 35 34  2  0  0  0  0
 35 36  1  0  0  0  0
 36 38  2  0  0  0  0
 37 36  1  0  0  0  0
 38 40  1  0  0  0  0
 38 39  1  0  0  0  0
 40 41  1  0  0  0  0
 42 40  2  0  0  0  0
 42 43  1  0  0  0  0
M  END
>  <minimizedAffinity>
-6.45948935

$$$$

 OpenBabel03272503433D

 43 46  0  0  1  0  0  0  0  0999 V2000
   37.7020   26.2740   34.6820 C   0  0  2  0  0  0  0  0  0  0  0  0
   37.8410   26.4310   33.1550 C   0  0  1  0  0  0  0  0  0  0  0  0
   39.3320   26.2490   33.0430 C   0  0  0  0  0  0  0  0  0  0  0  0
   39.9000   26.8250   34.1550 O   0  0  0  0  0  0  0  0  0  0  0  0
   38.9370   27.0960   35.0760 C   0  0  0  0  0  0  0  0  0  0  0  0
   36.7820   26.7170   35.0540 H   0  0  0  0  0  0  0  0  0  0  0  0
   37.5650   27.4260   32.8120 H   0  0  0  0  0  0  0  0  0  0  0  0
   39.5390   25.1630   33.0000 H   0  0  0  0  0  0  0  0  0  0  0  0
   39.7650   26.7410   32.1520 H   0  0  0  0  0  0  0  0  0  0  0  0
   39.2030   26.9820   36.1250 H   0  0  0  0  0  0  0  0  0  0  0  0
   38.6390   28.1710   34.9270 H   0  0  0  0  0  0  0  0  0  0  0  0
   36.3070   23.5120   31.7340 C   0  0  0  0  0  0  0  0  0  0  0  0
   35.5850   24.4870   31.1010 C   0  0  0  0  0  0  0  0  0  0  0  0
   36.1170   25.6770   31.5960 C   0  0  0  0  0  0  0  0  0  0  0  0
   37.0940   25.4150   32.4700 N   0  0  0  0  0  0  0  0  0  0  0  0
   37.2130   24.0870   32.5570 N   0  0  0  0  0  0  0  0  0  0  0  0
   34.7740   24.3740   30.3710 H   0  0  0  0  0  0  0  0  0  0  0  0
   35.7100   26.6350   31.2440 H   0  0  0  0  0  0  0  0  0  0  0  0
   36.7970   19.9470   30.6730 C   0  0  0  0  0  0  0  0  0  0  0  0
   37.0100   21.3120   30.8080 C   0  0  0  0  0  0  0  0  0  0  0  0
   36.1340   22.0740   31.5580 C   0  0  0  0  0  0  0  0  0  0  0  0
   35.0890   21.4500   32.1370 N   0  0  0  0  0  0  0  0  0  0  0  0
   34.9010   20.1100   31.9910 C   0  0  0  0  0  0  0  0  0  0  0  0
   35.7370   19.3710   31.2740 N   0  0  0  0  0  0  0  0  0  0  0  0
   37.8240   21.8820   30.3740 H   0  0  0  0  0  0  0  0  0  0  0  0
   34.0550   19.6350   32.4670 H   0  0  0  0  0  0  0  0  0  0  0  0
   37.7640   19.3180   29.8900 O   0  0  0  0  0  0  0  0  0  0  0  0
   37.7110   19.2690   28.4880 C   0  0  0  0  0  0  0  0  0  0  0  0
   36.4190   19.3330   28.0030 F   0  0  0  0  0  0  0  0  0  0  0  0
   38.3520   18.1350   28.0540 F   0  0  0  0  0  0  0  0  0  0  0  0
   38.4300   20.3530   27.9910 F   0  0  0  0  0  0  0  0  0  0  0  0
   37.9350   24.9410   34.9510 O   0  0  0  0  0  0  0  0  0  0  0  0
   40.2260   23.0360   34.7560 Cl  0  0  0  0  0  0  0  0  0  0  0  0
   39.3160   23.5120   36.1840 C   0  0  0  0  0  0  0  0  0  0  0  0
   38.2550   24.4160   36.1700 C   0  0  0  0  0  0  0  0  0  0  0  0
   37.6370   24.6920   37.3720 C   0  0  0  0  0  0  0  0  0  0  0  0
   36.8180   25.3910   37.3540 H   0  0  0  0  0  0  0  0  0  0  0  0
   38.0220   24.1150   38.5740 C   0  0  0  0  0  0  0  0  0  0  0  0
   37.5020   24.3680   39.4800 H   0  0  0  0  0  0  0  0  0  0  0  0
   39.0850   23.2150   38.5580 C   0  0  0  0  0  0  0  0  0  0  0  0
   39.3720   22.7740   39.5120 H   0  0  0  0  0  0  0  0  0  0  0  0
   39.7250   22.9200   37.3610 C   0  0  0  0  0  0  0  0  0  0  0  0
   41.0380   21.7760   37.5000 Cl  0  0  0  0  0  0  0  0  0  0  0  0
  1 32  1  0  0  0  0
  1  6  1  1  0  0  0
  1  5  1  0  0  0  0
  2  7  1  6  0  0  0
  2  1  1  0  0  0  0
  3  2  1  0  0  0  0
  3  4  1  0  0  0  0
  4  5  1  0  0  0  0
  5 10  1  0  0  0  0
  8  3  1  0  0  0  0
  9  3  1  0  0  0  0
 11  5  1  0  0  0  0
 12 16  2  0  0  0  0
 13 14  2  0  0  0  0
 13 12  1  0  0  0  0
 14 15  1  0  0  0  0
 15 16  1  0  0  0  0
 15  2  1  0  0  0  0
 17 13  1  0  0  0  0
 18 14  1  0  0  0  0
 19 20  2  0  0  0  0
 19 24  1  0  0  0  0
 20 21  1  0  0  0  0
 21 12  1  0  0  0  0
 21 22  2  0  0  0  0
 23 22  1  0  0  0  0
 23 26  1  0  0  0  0
 24 23  2  0  0  0  0
 25 20  1  0  0  0  0
 27 19  1  0  0  0  0
 28 27  1  0  0  0  0
 29 28  1  0  0  0  0
 30 28  1  0  0  0  0
 31 28  1  0  0  0  0
 32 35  1  0  0  0  0
 33 34  1  0  0  0  0
 34 42  1  0  0  0  0
 35 34  2  0  0  0  0
 35 36  1  0  0  0  0
 36 38  2  0  0  0  0
 37 36  1  0  0  0  0
 38 39  1  0  0  0  0
 40 38  1  0  0  0  0
 40 41  1  0  0  0  0
 42 43  1  0  0  0  0
 42 40  2  0  0  0  0
M  END
>  <minimizedAffinity>
-6.29703856

$$$$

 OpenBabel03272503433D

 43 46  0  0  1  0  0  0  0  0999 V2000
   34.7080   29.4920   33.1040 C   0  0  2  0  0  0  0  0  0  0  0  0
   35.2840   28.7110   31.9070 C   0  0  1  0  0  0  0  0  0  0  0  0
   35.4920   29.8650   30.9610 C   0  0  0  0  0  0  0  0  0  0  0  0
   34.4600   30.7500   31.1620 O   0  0  0  0  0  0  0  0  0  0  0  0
   33.7920   30.4280   32.3030 C   0  0  0  0  0  0  0  0  0  0  0  0
   34.1450   28.8490   33.7750 H   0  0  0  0  0  0  0  0  0  0  0  0
   34.5680   28.0100   31.4820 H   0  0  0  0  0  0  0  0  0  0  0  0
   36.4710   30.3240   31.1960 H   0  0  0  0  0  0  0  0  0  0  0  0
   35.4740   29.5630   29.8970 H   0  0  0  0  0  0  0  0  0  0  0  0
   33.4000   31.2480   32.9000 H   0  0  0  0  0  0  0  0  0  0  0  0
   32.9140   29.7950   31.9960 H   0  0  0  0  0  0  0  0  0  0  0  0
   38.0260   26.8160   33.2450 C   0  0  0  0  0  0  0  0  0  0  0  0
   38.6620   27.4510   32.2130 C   0  0  0  0  0  0  0  0  0  0  0  0
   37.6630   28.2250   31.6230 C   0  0  0  0  0  0  0  0  0  0  0  0
   36.5060   28.0510   32.2720 N   0  0  0  0  0  0  0  0  0  0  0  0
   36.7260   27.1870   33.2670 N   0  0  0  0  0  0  0  0  0  0  0  0
   39.7140   27.3800   31.9090 H   0  0  0  0  0  0  0  0  0  0  0  0
   37.9080   28.8490   30.7540 H   0  0  0  0  0  0  0  0  0  0  0  0
   38.5680   24.3970   36.0600 C   0  0  0  0  0  0  0  0  0  0  0  0
   37.9300   25.2790   35.1990 C   0  0  0  0  0  0  0  0  0  0  0  0
   38.6430   25.8800   34.1790 C   0  0  0  0  0  0  0  0  0  0  0  0
   39.9510   25.5800   34.0590 N   0  0  0  0  0  0  0  0  0  0  0  0
   40.5550   24.7120   34.9140 C   0  0  0  0  0  0  0  0  0  0  0  0
   39.8790   24.1300   35.8970 N   0  0  0  0  0  0  0  0  0  0  0  0
   36.8860   25.5680   35.2320 H   0  0  0  0  0  0  0  0  0  0  0  0
   41.6060   24.4890   34.7960 H   0  0  0  0  0  0  0  0  0  0  0  0
   37.7180   23.8730   37.0330 O   0  0  0  0  0  0  0  0  0  0  0  0
   38.0990   23.6860   38.3710 C   0  0  0  0  0  0  0  0  0  0  0  0
   39.4140   23.2830   38.4980 F   0  0  0  0  0  0  0  0  0  0  0  0
   37.2420   22.7890   38.9610 F   0  0  0  0  0  0  0  0  0  0  0  0
   37.9350   24.8970   39.0390 F   0  0  0  0  0  0  0  0  0  0  0  0
   35.7580   30.2170   33.6270 O   0  0  0  0  0  0  0  0  0  0  0  0
   36.8000   32.7910   32.5270 Cl  0  0  0  0  0  0  0  0  0  0  0  0
   36.1170   32.4760   34.1170 C   0  0  0  0  0  0  0  0  0  0  0  0
   35.6550   31.2300   34.5370 C   0  0  0  0  0  0  0  0  0  0  0  0
   35.1440   31.1370   35.8160 C   0  0  0  0  0  0  0  0  0  0  0  0
   34.7890   30.1710   36.1340 H   0  0  0  0  0  0  0  0  0  0  0  0
   35.0720   32.2160   36.6850 C   0  0  0  0  0  0  0  0  0  0  0  0
   34.6640   32.0830   37.6710 H   0  0  0  0  0  0  0  0  0  0  0  0
   35.5420   33.4490   36.2390 C   0  0  0  0  0  0  0  0  0  0  0  0
   35.4760   34.2830   36.9370 H   0  0  0  0  0  0  0  0  0  0  0  0
   36.0610   33.5700   34.9560 C   0  0  0  0  0  0  0  0  0  0  0  0
   36.6080   35.1760   34.5410 Cl  0  0  0  0  0  0  0  0  0  0  0  0
  1 32  1  0  0  0  0
  1  6  1  1  0  0  0
  2  7  1  6  0  0  0
  2 15  1  0  0  0  0
  2  1  1  0  0  0  0
  3  4  1  0  0  0  0
  3  8  1  0  0  0  0
  3  2  1  0  0  0  0
  4  5  1  0  0  0  0
  5 10  1  0  0  0  0
  5  1  1  0  0  0  0
  9  3  1  0  0  0  0
 11  5  1  0  0  0  0
 12 16  2  0  0  0  0
 12 21  1  0  0  0  0
 13 12  1  0  0  0  0
 14 13  2  0  0  0  0
 14 15  1  0  0  0  0
 15 16  1  0  0  0  0
 17 13  1  0  0  0  0
 18 14  1  0  0  0  0
 19 27  1  0  0  0  0
 20 25  1  0  0  0  0
 20 19  2  0  0  0  0
 21 20  1  0  0  0  0
 22 21  2  0  0  0  0
 22 23  1  0  0  0  0
 23 24  2  0  0  0  0
 24 19  1  0  0  0  0
 26 23  1  0  0  0  0
 27 28  1  0  0  0  0
 28 29  1  0  0  0  0
 28 30  1  0  0  0  0
 28 31  1  0  0  0  0
 32 35  1  0  0  0  0
 33 34  1  0  0  0  0
 34 35  2  0  0  0  0
 34 42  1  0  0  0  0
 35 36  1  0  0  0  0
 36 37  1  0  0  0  0
 36 38  2  0  0  0  0
 38 39  1  0  0  0  0
 40 38  1  0  0  0  0
 40 41  1  0  0  0  0
 42 40  2  0  0  0  0
 43 42  1  0  0  0  0
M  END
>  <minimizedAffinity>
-6.26387596

$$$$

 OpenBabel03272503433D

 43 46  0  0  1  0  0  0  0  0999 V2000
   38.8030   23.2840   32.2090 C   0  0  2  0  0  0  0  0  0  0  0  0
   37.8930   23.2970   30.9660 C   0  0  1  0  0  0  0  0  0  0  0  0
   37.2000   21.9760   31.1770 C   0  0  0  0  0  0  0  0  0  0  0  0
   38.1210   21.1130   31.7220 O   0  0  0  0  0  0  0  0  0  0  0  0
   39.2160   21.8080   32.1330 C   0  0  0  0  0  0  0  0  0  0  0  0
   39.6540   23.9510   32.0980 H   0  0  0  0  0  0  0  0  0  0  0  0
   38.4580   23.2720   30.0360 H   0  0  0  0  0  0  0  0  0  0  0  0
   36.3490   22.1460   31.8630 H   0  0  0  0  0  0  0  0  0  0  0  0
   36.8300   21.5240   30.2370 H   0  0  0  0  0  0  0  0  0  0  0  0
   39.7170   21.4620   33.0340 H   0  0  0  0  0  0  0  0  0  0  0  0
   39.9670   21.7510   31.2970 H   0  0  0  0  0  0  0  0  0  0  0  0
   36.1370   26.4270   31.0960 C   0  0  0  0  0  0  0  0  0  0  0  0
   35.0760   25.5670   31.0090 C   0  0  0  0  0  0  0  0  0  0  0  0
   35.6670   24.3040   30.9530 C   0  0  0  0  0  0  0  0  0  0  0  0
   36.9980   24.4190   31.0030 N   0  0  0  0  0  0  0  0  0  0  0  0
   37.2890   25.7200   31.0910 N   0  0  0  0  0  0  0  0  0  0  0  0
   34.0030   25.8000   30.9890 H   0  0  0  0  0  0  0  0  0  0  0  0
   35.0280   23.4140   30.8800 H   0  0  0  0  0  0  0  0  0  0  0  0
   35.3760   29.9080   32.2650 C   0  0  0  0  0  0  0  0  0  0  0  0
   35.4300   28.5220   32.2370 C   0  0  0  0  0  0  0  0  0  0  0  0
   36.0490   27.8810   31.1800 C   0  0  0  0  0  0  0  0  0  0  0  0
   36.5830   28.6410   30.2040 N   0  0  0  0  0  0  0  0  0  0  0  0
   36.5180   29.9990   30.2540 C   0  0  0  0  0  0  0  0  0  0  0  0
   35.9260   30.6230   31.2640 N   0  0  0  0  0  0  0  0  0  0  0  0
   35.0250   27.8460   32.9820 H   0  0  0  0  0  0  0  0  0  0  0  0
   36.9540   30.5840   29.4580 H   0  0  0  0  0  0  0  0  0  0  0  0
   34.7210   30.4060   33.3920 O   0  0  0  0  0  0  0  0  0  0  0  0
   35.3890   30.7980   34.5630 C   0  0  0  0  0  0  0  0  0  0  0  0
   36.2140   29.8090   35.0620 F   0  0  0  0  0  0  0  0  0  0  0  0
   34.4630   31.1960   35.4960 F   0  0  0  0  0  0  0  0  0  0  0  0
   36.1630   31.9160   34.2620 F   0  0  0  0  0  0  0  0  0  0  0  0
   37.9710   23.4700   33.2930 O   0  0  0  0  0  0  0  0  0  0  0  0
   37.6570   22.2730   36.0120 Cl  0  0  0  0  0  0  0  0  0  0  0  0
   38.0040   23.9440   35.5830 C   0  0  0  0  0  0  0  0  0  0  0  0
   38.1320   24.4060   34.2740 C   0  0  0  0  0  0  0  0  0  0  0  0
   38.4060   25.7460   34.0940 C   0  0  0  0  0  0  0  0  0  0  0  0
   38.5030   26.0960   33.0800 H   0  0  0  0  0  0  0  0  0  0  0  0
   38.5570   26.6380   35.1470 C   0  0  0  0  0  0  0  0  0  0  0  0
   38.7690   27.6730   34.9460 H   0  0  0  0  0  0  0  0  0  0  0  0
   38.4230   26.1490   36.4440 C   0  0  0  0  0  0  0  0  0  0  0  0
   38.5460   26.8660   37.2560 H   0  0  0  0  0  0  0  0  0  0  0  0
   38.1480   24.8030   36.6530 C   0  0  0  0  0  0  0  0  0  0  0  0
   38.0100   24.3410   38.3320 Cl  0  0  0  0  0  0  0  0  0  0  0  0
  1  6  1  6  0  0  0
  1 32  1  0  0  0  0
  2  7  1  6  0  0  0
  2 15  1  0  0  0  0
  2  3  1  0  0  0  0
  2  1  1  0  0  0  0
  3  4  1  0  0  0  0
  3  8  1  0  0  0  0
  4  5  1  0  0  0  0
  5  1  1  0  0  0  0
  5 10  1  0  0  0  0
  9  3  1  0  0  0  0
 11  5  1  0  0  0  0
 12 21  1  0  0  0  0
 13 12  1  0  0  0  0
 14 15  1  0  0  0  0
 14 13  2  0  0  0  0
 15 16  1  0  0  0  0
 16 12  2  0  0  0  0
 17 13  1  0  0  0  0
 18 14  1  0  0  0  0
 19 27  1  0  0  0  0
 20 19  1  0  0  0  0
 20 25  1  0  0  0  0
 21 20  2  0  0  0  0
 22 23  2  0  0  0  0
 22 21  1  0  0  0  0
 23 24  1  0  0  0  0
 24 19  2  0  0  0  0
 26 23  1  0  0  0  0
 27 28  1  0  0  0  0
 28 29  1  0  0  0  0
 28 30  1  0  0  0  0
 31 28  1  0  0  0  0
 32 35  1  0  0  0  0
 34 33  1  0  0  0  0
 34 42  1  0  0  0  0
 35 34  2  0  0  0  0
 36 35  1  0  0  0  0
 36 38  2  0  0  0  0
 37 36  1  0  0  0  0
 38 40  1  0  0  0  0
 39 38  1  0  0  0  0
 40 42  2  0  0  0  0
 40 41  1  0  0  0  0
 42 43  1  0  0  0  0
M  END
>  <minimizedAffinity>
-6.0876627

$$$$

 OpenBabel03272503433D

 43 46  0  0  1  0  0  0  0  0999 V2000
   39.1100   26.3290   30.7540 C   0  0  2  0  0  0  0  0  0  0  0  0
   38.8680   27.4640   31.7660 C   0  0  1  0  0  0  0  0  0  0  0  0
   37.8150   28.2270   31.0050 C   0  0  0  0  0  0  0  0  0  0  0  0
   38.1320   28.1410   29.6700 O   0  0  0  0  0  0  0  0  0  0  0  0
   39.0880   27.1910   29.4840 C   0  0  0  0  0  0  0  0  0  0  0  0
   40.0740   25.8490   30.9040 H   0  0  0  0  0  0  0  0  0  0  0  0
   39.7460   28.0910   31.9090 H   0  0  0  0  0  0  0  0  0  0  0  0
   36.8360   27.7600   31.2190 H   0  0  0  0  0  0  0  0  0  0  0  0
   37.7760   29.3000   31.2730 H   0  0  0  0  0  0  0  0  0  0  0  0
   39.0350   26.6010   28.5730 H   0  0  0  0  0  0  0  0  0  0  0  0
   40.0780   27.7270   29.4710 H   0  0  0  0  0  0  0  0  0  0  0  0
   38.1610   25.8190   34.8790 C   0  0  0  0  0  0  0  0  0  0  0  0
   37.0700   26.6410   34.7970 C   0  0  0  0  0  0  0  0  0  0  0  0
   37.2570   27.3330   33.6000 C   0  0  0  0  0  0  0  0  0  0  0  0
   38.3930   26.9390   33.0150 N   0  0  0  0  0  0  0  0  0  0  0  0
   38.9490   26.0100   33.7980 N   0  0  0  0  0  0  0  0  0  0  0  0
   36.2340   26.7440   35.5000 H   0  0  0  0  0  0  0  0  0  0  0  0
   36.5100   28.0730   33.2840 H   0  0  0  0  0  0  0  0  0  0  0  0
   39.4830   22.9150   36.8520 C   0  0  0  0  0  0  0  0  0  0  0  0
   39.2520   23.7760   35.7880 C   0  0  0  0  0  0  0  0  0  0  0  0
   38.4390   24.8800   35.9610 C   0  0  0  0  0  0  0  0  0  0  0  0
   37.8940   25.0800   37.1770 N   0  0  0  0  0  0  0  0  0  0  0  0
   38.1350   24.2230   38.2060 C   0  0  0  0  0  0  0  0  0  0  0  0
   38.9140   23.1600   38.0480 N   0  0  0  0  0  0  0  0  0  0  0  0
   39.6530   23.6810   34.7850 H   0  0  0  0  0  0  0  0  0  0  0  0
   37.6850   24.4060   39.1710 H   0  0  0  0  0  0  0  0  0  0  0  0
   40.3220   21.8510   36.5210 O   0  0  0  0  0  0  0  0  0  0  0  0
   41.6520   21.7520   36.9580 C   0  0  0  0  0  0  0  0  0  0  0  0
   41.7790   20.9930   38.1060 F   0  0  0  0  0  0  0  0  0  0  0  0
   42.1630   23.0140   37.1340 F   0  0  0  0  0  0  0  0  0  0  0  0
   42.3950   21.1540   35.9430 F   0  0  0  0  0  0  0  0  0  0  0  0
   37.9800   25.5390   30.7880 O   0  0  0  0  0  0  0  0  0  0  0  0
   35.2720   24.4920   31.4920 Cl  0  0  0  0  0  0  0  0  0  0  0  0
   36.7350   23.5870   31.1230 C   0  0  0  0  0  0  0  0  0  0  0  0
   37.9590   24.1730   30.8030 C   0  0  0  0  0  0  0  0  0  0  0  0
   39.0190   23.3320   30.5360 C   0  0  0  0  0  0  0  0  0  0  0  0
   39.9610   23.7920   30.2910 H   0  0  0  0  0  0  0  0  0  0  0  0
   38.9180   21.9480   30.5720 C   0  0  0  0  0  0  0  0  0  0  0  0
   39.7790   21.3430   30.3550 H   0  0  0  0  0  0  0  0  0  0  0  0
   37.6830   21.3900   30.8940 C   0  0  0  0  0  0  0  0  0  0  0  0
   37.6250   20.3020   30.9150 H   0  0  0  0  0  0  0  0  0  0  0  0
   36.5990   22.2150   31.1660 C   0  0  0  0  0  0  0  0  0  0  0  0
   35.1200   21.3690   31.5530 Cl  0  0  0  0  0  0  0  0  0  0  0  0
  1 32  1  0  0  0  0
  1  6  1  1  0  0  0
  1  2  1  0  0  0  0
  2  7  1  1  0  0  0
  2 15  1  0  0  0  0
  3  8  1  0  0  0  0
  3  9  1  0  0  0  0
  3  2  1  0  0  0  0
  4  3  1  0  0  0  0
  5  4  1  0  0  0  0
  5  1  1  0  0  0  0
 10  5  1  0  0  0  0
 11  5  1  0  0  0  0
 12 21  1  0  0  0  0
 13 12  1  0  0  0  0
 13 17  1  0  0  0  0
 14 13  2  0  0  0  0
 15 14  1  0  0  0  0
 15 16  1  0  0  0  0
 16 12  2  0  0  0  0
 18 14  1  0  0  0  0
 19 24  1  0  0  0  0
 20 21  1  0  0  0  0
 20 19  2  0  0  0  0
 21 22  2  0  0  0  0
 22 23  1  0  0  0  0
 23 26  1  0  0  0  0
 24 23  2  0  0  0  0
 25 20  1  0  0  0  0
 27 19  1  0  0  0  0
 27 28  1  0  0  0  0
 28 30  1  0  0  0  0
 28 29  1  0  0  0  0
 31 28  1  0  0  0  0
 32 35  1  0  0  0  0
 34 42  1  0  0  0  0
 34 33  1  0  0  0  0
 35 34  2  0  0  0  0
 36 38  2  0  0  0  0
 36 35  1  0  0  0  0
 37 36  1  0  0  0  0
 38 40  1  0  0  0  0
 39 38  1  0  0  0  0
 40 41  1  0  0  0  0
 40 42  2  0  0  0  0
 42 43  1  0  0  0  0
M  END
>  <minimizedAffinity>
-6.08441401

$$$$

 OpenBabel03272503433D

 43 46  0  0  1  0  0  0  0  0999 V2000
   34.2580   29.8390   32.2850 C   0  0  2  0  0  0  0  0  0  0  0  0
   35.4610   29.4620   31.3990 C   0  0  1  0  0  0  0  0  0  0  0  0
   36.2900   30.7030   31.6010 C   0  0  0  0  0  0  0  0  0  0  0  0
   35.4220   31.7650   31.6940 O   0  0  0  0  0  0  0  0  0  0  0  0
   34.1510   31.3080   31.8540 C   0  0  0  0  0  0  0  0  0  0  0  0
   33.3690   29.2720   32.0250 H   0  0  0  0  0  0  0  0  0  0  0  0
   35.1920   29.3660   30.3490 H   0  0  0  0  0  0  0  0  0  0  0  0
   36.8730   30.5740   32.5330 H   0  0  0  0  0  0  0  0  0  0  0  0
   36.9810   30.9060   30.7610 H   0  0  0  0  0  0  0  0  0  0  0  0
   33.4880   31.8880   32.4920 H   0  0  0  0  0  0  0  0  0  0  0  0
   33.6850   31.2850   30.8300 H   0  0  0  0  0  0  0  0  0  0  0  0
   37.4110   26.8470   32.9020 C   0  0  0  0  0  0  0  0  0  0  0  0
   36.5190   26.0930   32.1890 C   0  0  0  0  0  0  0  0  0  0  0  0
   35.7060   27.0350   31.5590 C   0  0  0  0  0  0  0  0  0  0  0  0
   36.0980   28.2710   31.8860 N   0  0  0  0  0  0  0  0  0  0  0  0
   37.1440   28.1580   32.7100 N   0  0  0  0  0  0  0  0  0  0  0  0
   36.4480   25.0000   32.1180 H   0  0  0  0  0  0  0  0  0  0  0  0
   34.8890   26.6930   30.9090 H   0  0  0  0  0  0  0  0  0  0  0  0
   39.3590   24.7890   35.3590 C   0  0  0  0  0  0  0  0  0  0  0  0
   38.3040   25.2420   34.5800 C   0  0  0  0  0  0  0  0  0  0  0  0
   38.4840   26.3270   33.7430 C   0  0  0  0  0  0  0  0  0  0  0  0
   39.6980   26.9120   33.7170 N   0  0  0  0  0  0  0  0  0  0  0  0
   40.7180   26.4500   34.4890 C   0  0  0  0  0  0  0  0  0  0  0  0
   40.5540   25.4090   35.2960 N   0  0  0  0  0  0  0  0  0  0  0  0
   37.3030   24.8260   34.5480 H   0  0  0  0  0  0  0  0  0  0  0  0
   41.6810   26.9370   34.4490 H   0  0  0  0  0  0  0  0  0  0  0  0
   39.0230   23.6900   36.1480 O   0  0  0  0  0  0  0  0  0  0  0  0
   38.4010   23.8000   37.4020 C   0  0  0  0  0  0  0  0  0  0  0  0
   38.1500   25.1110   37.7580 F   0  0  0  0  0  0  0  0  0  0  0  0
   39.1740   23.1650   38.3440 F   0  0  0  0  0  0  0  0  0  0  0  0
   37.1910   23.1120   37.3440 F   0  0  0  0  0  0  0  0  0  0  0  0
   34.7100   29.7770   33.5870 O   0  0  0  0  0  0  0  0  0  0  0  0
   36.0020   32.0650   35.0060 Cl  0  0  0  0  0  0  0  0  0  0  0  0
   34.5270   31.2050   35.4300 C   0  0  0  0  0  0  0  0  0  0  0  0
   34.0030   30.1420   34.6970 C   0  0  0  0  0  0  0  0  0  0  0  0
   32.8360   29.5660   35.1540 C   0  0  0  0  0  0  0  0  0  0  0  0
   32.4370   28.7440   34.5830 H   0  0  0  0  0  0  0  0  0  0  0  0
   32.1730   29.9950   36.2950 C   0  0  0  0  0  0  0  0  0  0  0  0
   31.2660   29.5060   36.6040 H   0  0  0  0  0  0  0  0  0  0  0  0
   32.7200   31.0600   37.0080 C   0  0  0  0  0  0  0  0  0  0  0  0
   32.1830   31.3810   37.9010 H   0  0  0  0  0  0  0  0  0  0  0  0
   33.8940   31.6580   36.5690 C   0  0  0  0  0  0  0  0  0  0  0  0
   34.4550   32.9780   37.5660 Cl  0  0  0  0  0  0  0  0  0  0  0  0
  1  6  1  6  0  0  0
  1 32  1  0  0  0  0
  2  7  1  6  0  0  0
  2  3  1  0  0  0  0
  2 15  1  0  0  0  0
  2  1  1  0  0  0  0
  3  4  1  0  0  0  0
  3  8  1  0  0  0  0
  4  5  1  0  0  0  0
  5  1  1  0  0  0  0
  5 10  1  0  0  0  0
  9  3  1  0  0  0  0
 11  5  1  0  0  0  0
 12 21  1  0  0  0  0
 13 12  1  0  0  0  0
 14 15  1  0  0  0  0
 14 13  2  0  0  0  0
 15 16  1  0  0  0  0
 16 12  2  0  0  0  0
 17 13  1  0  0  0  0
 18 14  1  0  0  0  0
 19 27  1  0  0  0  0
 20 19  2  0  0  0  0
 21 20  1  0  0  0  0
 22 21  2  0  0  0  0
 22 23  1  0  0  0  0
 23 24  2  0  0  0  0
 24 19  1  0  0  0  0
 25 20  1  0  0  0  0
 26 23  1  0  0  0  0
 27 28  1  0  0  0  0
 28 29  1  0  0  0  0
 28 30  1  0  0  0  0
 31 28  1  0  0  0  0
 32 35  1  0  0  0  0
 33 34  1  0  0  0  0
 34 42  1  0  0  0  0
 35 36  1  0  0  0  0
 35 34  2  0  0  0  0
 36 38  2  0  0  0  0
 37 36  1  0  0  0  0
 38 39  1  0  0  0  0
 38 40  1  0  0  0  0
 40 41  1  0  0  0  0
 42 40  2  0  0  0  0
 42 43  1  0  0  0  0
M  END
>  <minimizedAffinity>
-6.02543402

$$$$

 OpenBabel03272503433D

 43 46  0  0  1  0  0  0  0  0999 V2000
   37.2120   25.6480   31.6210 C   0  0  2  0  0  0  0  0  0  0  0  0
   36.1980   26.4480   30.7790 C   0  0  1  0  0  0  0  0  0  0  0  0
   35.0890   25.4300   30.7310 C   0  0  0  0  0  0  0  0  0  0  0  0
   35.6740   24.1880   30.6620 O   0  0  0  0  0  0  0  0  0  0  0  0
   37.0030   24.2890   30.9390 C   0  0  0  0  0  0  0  0  0  0  0  0
   38.2260   26.0160   31.4930 H   0  0  0  0  0  0  0  0  0  0  0  0
   36.5590   26.6470   29.7710 H   0  0  0  0  0  0  0  0  0  0  0  0
   34.4870   25.5420   31.6530 H   0  0  0  0  0  0  0  0  0  0  0  0
   34.4320   25.5420   29.8480 H   0  0  0  0  0  0  0  0  0  0  0  0
   37.4620   23.4680   31.4840 H   0  0  0  0  0  0  0  0  0  0  0  0
   37.5350   24.3660   29.9510 H   0  0  0  0  0  0  0  0  0  0  0  0
   34.7690   29.2020   32.5870 C   0  0  0  0  0  0  0  0  0  0  0  0
   35.9660   29.7570   32.2240 C   0  0  0  0  0  0  0  0  0  0  0  0
   36.6040   28.7460   31.5040 C   0  0  0  0  0  0  0  0  0  0  0  0
   35.8250   27.6610   31.4500 N   0  0  0  0  0  0  0  0  0  0  0  0
   34.6990   27.9380   32.1140 N   0  0  0  0  0  0  0  0  0  0  0  0
   36.3490   30.7620   32.4400 H   0  0  0  0  0  0  0  0  0  0  0  0
   37.6030   28.9310   31.0880 H   0  0  0  0  0  0  0  0  0  0  0  0
   32.9760   31.4530   34.9930 C   0  0  0  0  0  0  0  0  0  0  0  0
   34.0080   30.8590   34.2790 C   0  0  0  0  0  0  0  0  0  0  0  0
   33.7260   29.8620   33.3640 C   0  0  0  0  0  0  0  0  0  0  0  0
   32.4380   29.5010   33.1990 N   0  0  0  0  0  0  0  0  0  0  0  0
   31.4430   30.0980   33.9090 C   0  0  0  0  0  0  0  0  0  0  0  0
   31.7050   31.0560   34.7900 N   0  0  0  0  0  0  0  0  0  0  0  0
   35.0630   31.0940   34.3580 H   0  0  0  0  0  0  0  0  0  0  0  0
   30.4190   29.7890   33.7570 H   0  0  0  0  0  0  0  0  0  0  0  0
   33.4190   32.4380   35.8740 O   0  0  0  0  0  0  0  0  0  0  0  0
   33.7480   32.1850   37.2150 C   0  0  0  0  0  0  0  0  0  0  0  0
   32.9680   31.1920   37.7750 F   0  0  0  0  0  0  0  0  0  0  0  0
   33.6580   33.3550   37.9280 F   0  0  0  0  0  0  0  0  0  0  0  0
   35.0820   31.7860   37.2620 F   0  0  0  0  0  0  0  0  0  0  0  0
   36.6940   25.6030   32.8990 O   0  0  0  0  0  0  0  0  0  0  0  0
   37.8460   23.1630   34.1800 Cl  0  0  0  0  0  0  0  0  0  0  0  0
   37.9440   24.8350   34.7200 C   0  0  0  0  0  0  0  0  0  0  0  0
   37.3680   25.9100   34.0460 C   0  0  0  0  0  0  0  0  0  0  0  0
   37.5300   27.1660   34.5930 C   0  0  0  0  0  0  0  0  0  0  0  0
   37.0820   27.9920   34.0670 H   0  0  0  0  0  0  0  0  0  0  0  0
   38.2320   27.3990   35.7670 C   0  0  0  0  0  0  0  0  0  0  0  0
   38.3240   28.4000   36.1460 H   0  0  0  0  0  0  0  0  0  0  0  0
   38.7970   26.3050   36.4200 C   0  0  0  0  0  0  0  0  0  0  0  0
   39.3440   26.5100   37.3400 H   0  0  0  0  0  0  0  0  0  0  0  0
   38.6490   25.0300   35.8900 C   0  0  0  0  0  0  0  0  0  0  0  0
   39.4120   23.7630   36.8190 Cl  0  0  0  0  0  0  0  0  0  0  0  0
  1  6  1  6  0  0  0
  1 32  1  0  0  0  0
  2  7  1  6  0  0  0
  2 15  1  0  0  0  0
  2  1  1  0  0  0  0
  3  2  1  0  0  0  0
  3  8  1  0  0  0  0
  4  3  1  0  0  0  0
  4  5  1  0  0  0  0
  5 10  1  0  0  0  0
  5  1  1  0  0  0  0
  9  3  1  0  0  0  0
 11  5  1  0  0  0  0
 12 21  1  0  0  0  0
 13 17  1  0  0  0  0
 13 12  1  0  0  0  0
 14 13  2  0  0  0  0
 15 14  1  0  0  0  0
 15 16  1  0  0  0  0
 16 12  2  0  0  0  0
 18 14  1  0  0  0  0
 19 27  1  0  0  0  0
 20 25  1  0  0  0  0
 20 19  2  0  0  0  0
 21 20  1  0  0  0  0
 22 21  2  0  0  0  0
 22 23  1  0  0  0  0
 23 24  2  0  0  0  0
 24 19  1  0  0  0  0
 26 23  1  0  0  0  0
 27 28  1  0  0  0  0
 28 31  1  0  0  0  0
 28 29  1  0  0  0  0
 28 30  1  0  0  0  0
 32 35  1  0  0  0  0
 33 34  1  0  0  0  0
 34 42  1  0  0  0  0
 35 36  1  0  0  0  0
 35 34  2  0  0  0  0
 36 38  2  0  0  0  0
 37 36  1  0  0  0  0
 38 39  1  0  0  0  0
 38 40  1  0  0  0  0
 40 41  1  0  0  0  0
 42 40  2  0  0  0  0
 42 43  1  0  0  0  0
M  END
>  <minimizedAffinity>
-5.94472313

$$$$

 OpenBabel03272503433D

 43 46  0  0  1  0  0  0  0  0999 V2000
   39.6130   26.0760   33.3480 C   0  0  2  0  0  0  0  0  0  0  0  0
   39.4060   26.6990   31.9540 C   0  0  1  0  0  0  0  0  0  0  0  0
   39.4620   25.4390   31.1310 C   0  0  0  0  0  0  0  0  0  0  0  0
   40.3850   24.6070   31.7170 O   0  0  0  0  0  0  0  0  0  0  0  0
   40.7070   25.0750   32.9530 C   0  0  0  0  0  0  0  0  0  0  0  0
   39.9700   26.8050   34.0700 H   0  0  0  0  0  0  0  0  0  0  0  0
   40.2210   27.3620   31.6690 H   0  0  0  0  0  0  0  0  0  0  0  0
   38.4510   24.9870   31.1340 H   0  0  0  0  0  0  0  0  0  0  0  0
   39.7820   25.6150   30.0870 H   0  0  0  0  0  0  0  0  0  0  0  0
   40.9070   24.3390   33.7290 H   0  0  0  0  0  0  0  0  0  0  0  0
   41.6440   25.6880   32.8330 H   0  0  0  0  0  0  0  0  0  0  0  0
   36.2900   28.4410   32.3460 C   0  0  0  0  0  0  0  0  0  0  0  0
   36.2650   28.2190   30.9960 C   0  0  0  0  0  0  0  0  0  0  0  0
   37.4550   27.5360   30.7430 C   0  0  0  0  0  0  0  0  0  0  0  0
   38.1370   27.3680   31.8800 N   0  0  0  0  0  0  0  0  0  0  0  0
   37.4250   27.9230   32.8650 N   0  0  0  0  0  0  0  0  0  0  0  0
   35.4950   28.5050   30.2680 H   0  0  0  0  0  0  0  0  0  0  0  0
   37.6910   27.2290   29.7150 H   0  0  0  0  0  0  0  0  0  0  0  0
   34.5280   30.4890   34.9480 C   0  0  0  0  0  0  0  0  0  0  0  0
   35.5490   29.8530   34.2560 C   0  0  0  0  0  0  0  0  0  0  0  0
   35.2580   29.1300   33.1140 C   0  0  0  0  0  0  0  0  0  0  0  0
   33.9730   29.0710   32.7130 N   0  0  0  0  0  0  0  0  0  0  0  0
   32.9890   29.7030   33.4080 C   0  0  0  0  0  0  0  0  0  0  0  0
   33.2590   30.3990   34.5050 N   0  0  0  0  0  0  0  0  0  0  0  0
   36.6020   29.8550   34.5160 H   0  0  0  0  0  0  0  0  0  0  0  0
   31.9670   29.6390   33.0640 H   0  0  0  0  0  0  0  0  0  0  0  0
   34.9790   31.1760   36.0750 O   0  0  0  0  0  0  0  0  0  0  0  0
   35.4820   32.4860   36.0320 C   0  0  0  0  0  0  0  0  0  0  0  0
   36.8330   32.5270   35.7450 F   0  0  0  0  0  0  0  0  0  0  0  0
   35.2030   33.1140   37.2200 F   0  0  0  0  0  0  0  0  0  0  0  0
   34.7930   33.1790   35.0390 F   0  0  0  0  0  0  0  0  0  0  0  0
   38.4510   25.3920   33.6370 O   0  0  0  0  0  0  0  0  0  0  0  0
   38.2870   26.7940   36.2690 Cl  0  0  0  0  0  0  0  0  0  0  0  0
   38.1880   25.0690   35.9380 C   0  0  0  0  0  0  0  0  0  0  0  0
   38.2760   24.5100   34.6650 C   0  0  0  0  0  0  0  0  0  0  0  0
   38.1800   23.1370   34.5630 C   0  0  0  0  0  0  0  0  0  0  0  0
   38.2500   22.7120   33.5750 H   0  0  0  0  0  0  0  0  0  0  0  0
   38.0020   22.3050   35.6590 C   0  0  0  0  0  0  0  0  0  0  0  0
   37.9340   21.2410   35.5180 H   0  0  0  0  0  0  0  0  0  0  0  0
   37.9170   22.8910   36.9190 C   0  0  0  0  0  0  0  0  0  0  0  0
   37.7770   22.2200   37.7660 H   0  0  0  0  0  0  0  0  0  0  0  0
   38.0100   24.2710   37.0490 C   0  0  0  0  0  0  0  0  0  0  0  0
   37.8860   24.8570   38.6910 Cl  0  0  0  0  0  0  0  0  0  0  0  0
  1 32  1  0  0  0  0
  1  6  1  1  0  0  0
  2  7  1  6  0  0  0
  2  1  1  0  0  0  0
  3  8  1  0  0  0  0
  3  4  1  0  0  0  0
  3  2  1  0  0  0  0
  4  5  1  0  0  0  0
  5  1  1  0  0  0  0
  5 10  1  0  0  0  0
  9  3  1  0  0  0  0
 11  5  1  0  0  0  0
 12 16  2  0  0  0  0
 12 21  1  0  0  0  0
 13 12  1  0  0  0  0
 14 13  2  0  0  0  0
 14 15  1  0  0  0  0
 15  2  1  0  0  0  0
 15 16  1  0  0  0  0
 17 13  1  0  0  0  0
 18 14  1  0  0  0  0
 19 27  1  0  0  0  0
 20 25  1  0  0  0  0
 20 19  2  0  0  0  0
 21 20  1  0  0  0  0
 22 21  2  0  0  0  0
 22 23  1  0  0  0  0
 23 24  2  0  0  0  0
 24 19  1  0  0  0  0
 26 23  1  0  0  0  0
 28 27  1  0  0  0  0
 28 30  1  0  0  0  0
 29 28  1  0  0  0  0
 31 28  1  0  0  0  0
 32 35  1  0  0  0  0
 34 33  1  0  0  0  0
 34 42  1  0  0  0  0
 35 34  2  0  0  0  0
 36 35  1  0  0  0  0
 36 38  2  0  0  0  0
 37 36  1  0  0  0  0
 38 40  1  0  0  0  0
 39 38  1  0  0  0  0
 40 42  2  0  0  0  0
 40 41  1  0  0  0  0
 42 43  1  0  0  0  0
M  END
>  <minimizedAffinity>
-5.92691612

$$$$

 OpenBabel03272503433D

 43 46  0  0  1  0  0  0  0  0999 V2000
   38.1440   23.2770   34.8370 C   0  0  2  0  0  0  0  0  0  0  0  0
   39.1370   24.4420   34.6600 C   0  0  1  0  0  0  0  0  0  0  0  0
   40.2400   23.6970   33.9540 C   0  0  0  0  0  0  0  0  0  0  0  0
   40.2830   22.4300   34.4860 O   0  0  0  0  0  0  0  0  0  0  0  0
   39.1700   22.2060   35.2350 C   0  0  0  0  0  0  0  0  0  0  0  0
   37.4280   23.4700   35.6310 H   0  0  0  0  0  0  0  0  0  0  0  0
   39.5020   24.8270   35.6110 H   0  0  0  0  0  0  0  0  0  0  0  0
   39.9970   23.6750   32.8750 H   0  0  0  0  0  0  0  0  0  0  0  0
   41.2360   24.1570   34.0970 H   0  0  0  0  0  0  0  0  0  0  0  0
   38.7560   21.2010   35.2250 H   0  0  0  0  0  0  0  0  0  0  0  0
   39.4450   22.4380   36.3010 H   0  0  0  0  0  0  0  0  0  0  0  0
   37.3730   27.1760   33.1380 C   0  0  0  0  0  0  0  0  0  0  0  0
   38.1650   26.7960   32.0890 C   0  0  0  0  0  0  0  0  0  0  0  0
   38.9000   25.7210   32.5910 C   0  0  0  0  0  0  0  0  0  0  0  0
   38.5580   25.4860   33.8620 N   0  0  0  0  0  0  0  0  0  0  0  0
   37.6220   26.3770   34.2000 N   0  0  0  0  0  0  0  0  0  0  0  0
   38.2210   27.2250   31.0810 H   0  0  0  0  0  0  0  0  0  0  0  0
   39.6270   25.2170   31.9410 H   0  0  0  0  0  0  0  0  0  0  0  0
   35.0570   29.9230   34.2120 C   0  0  0  0  0  0  0  0  0  0  0  0
   35.9750   28.8860   34.2840 C   0  0  0  0  0  0  0  0  0  0  0  0
   36.4090   28.2710   33.1240 C   0  0  0  0  0  0  0  0  0  0  0  0
   35.9150   28.7120   31.9510 N   0  0  0  0  0  0  0  0  0  0  0  0
   35.0150   29.7320   31.9050 C   0  0  0  0  0  0  0  0  0  0  0  0
   34.5930   30.3280   33.0130 N   0  0  0  0  0  0  0  0  0  0  0  0
   36.4160   28.4780   35.1860 H   0  0  0  0  0  0  0  0  0  0  0  0
   34.6350   30.0660   30.9510 H   0  0  0  0  0  0  0  0  0  0  0  0
   34.7170   30.4400   35.4620 O   0  0  0  0  0  0  0  0  0  0  0  0
   35.2920   31.6020   36.0000 C   0  0  0  0  0  0  0  0  0  0  0  0
   34.8350   31.8800   37.2740 F   0  0  0  0  0  0  0  0  0  0  0  0
   35.0650   32.6530   35.1460 F   0  0  0  0  0  0  0  0  0  0  0  0
   36.6720   31.4160   36.0510 F   0  0  0  0  0  0  0  0  0  0  0  0
   37.6570   22.9970   33.5770 O   0  0  0  0  0  0  0  0  0  0  0  0
   38.2510   22.2150   30.7560 Cl  0  0  0  0  0  0  0  0  0  0  0  0
   37.1870   21.4230   31.9120 C   0  0  0  0  0  0  0  0  0  0  0  0
   36.9760   21.8690   33.2150 C   0  0  0  0  0  0  0  0  0  0  0  0
   36.1120   21.1420   34.0070 C   0  0  0  0  0  0  0  0  0  0  0  0
   35.9530   21.4930   35.0130 H   0  0  0  0  0  0  0  0  0  0  0  0
   35.4550   20.0010   33.5650 C   0  0  0  0  0  0  0  0  0  0  0  0
   34.7920   19.4750   34.2280 H   0  0  0  0  0  0  0  0  0  0  0  0
   35.6850   19.5780   32.2580 C   0  0  0  0  0  0  0  0  0  0  0  0
   35.1600   18.6810   31.9320 H   0  0  0  0  0  0  0  0  0  0  0  0
   36.5510   20.2930   31.4410 C   0  0  0  0  0  0  0  0  0  0  0  0
   36.7380   19.6400   29.8310 Cl  0  0  0  0  0  0  0  0  0  0  0  0
  1  5  1  0  0  0  0
  1  6  1  1  0  0  0
  2  1  1  0  0  0  0
  2  7  1  1  0  0  0
  3  9  1  0  0  0  0
  3  4  1  0  0  0  0
  3  2  1  0  0  0  0
  4  5  1  0  0  0  0
  5 11  1  0  0  0  0
  8  3  1  0  0  0  0
 10  5  1  0  0  0  0
 12 16  2  0  0  0  0
 13 14  2  0  0  0  0
 13 12  1  0  0  0  0
 14 15  1  0  0  0  0
 15 16  1  0  0  0  0
 15  2  1  0  0  0  0
 17 13  1  0  0  0  0
 18 14  1  0  0  0  0
 19 20  1  0  0  0  0
 19 27  1  0  0  0  0
 20 25  1  0  0  0  0
 21 12  1  0  0  0  0
 21 20  2  0  0  0  0
 22 21  1  0  0  0  0
 23 22  2  0  0  0  0
 23 24  1  0  0  0  0
 24 19  2  0  0  0  0
 26 23  1  0  0  0  0
 27 28  1  0  0  0  0
 28 31  1  0  0  0  0
 28 29  1  0  0  0  0
 30 28  1  0  0  0  0
 32  1  1  0  0  0  0
 33 34  1  0  0  0  0
 34 35  1  0  0  0  0
 35 32  1  0  0  0  0
 35 36  2  0  0  0  0
 36 37  1  0  0  0  0
 38 36  1  0  0  0  0
 38 39  1  0  0  0  0
 40 38  2  0  0  0  0
 41 40  1  0  0  0  0
 42 34  2  0  0  0  0
 42 40  1  0  0  0  0
 43 42  1  0  0  0  0
M  END
>  <minimizedAffinity>
-5.8763051

$$$$
