
 OpenBabel03272507133D

 42 46  0  0  0  0  0  0  0  0999 V2000
   36.2380   29.7010   49.3650 C   0  0  0  0  0  0  0  0  0  0  0  0
   35.2760   30.0460   50.2580 C   0  0  0  0  0  0  0  0  0  0  0  0
   34.1270   29.3370   49.9070 C   0  0  0  0  0  0  0  0  0  0  0  0
   34.4820   28.5810   48.7830 C   0  0  0  0  0  0  0  0  0  0  0  0
   35.7260   28.8460   48.5250 O   0  0  0  0  0  0  0  0  0  0  0  0
   35.3490   30.7360   51.0970 H   0  0  0  0  0  0  0  0  0  0  0  0
   33.2080   29.4240   50.4530 H   0  0  0  0  0  0  0  0  0  0  0  0
   33.9400   26.6770   47.2720 C   0  0  0  0  0  0  0  0  0  0  0  0
   33.5350   27.6880   48.1040 C   0  0  0  0  0  0  0  0  0  0  0  0
   32.1910   27.9320   48.3630 C   0  0  0  0  0  0  0  0  0  0  0  0
   31.2670   27.1030   47.7430 C   0  0  0  0  0  0  0  0  0  0  0  0
   29.9310   27.1080   47.8160 N   0  0  0  0  0  0  0  0  0  0  0  0
   29.4970   26.1120   47.0420 N   0  0  0  0  0  0  0  0  0  0  0  0
   30.5400   25.4910   46.4920 C   0  0  0  0  0  0  0  0  0  0  0  0
   31.7180   26.0970   46.9140 C   0  0  0  0  0  0  0  0  0  0  0  0
   33.0600   25.8580   46.6570 C   0  0  0  0  0  0  0  0  0  0  0  0
   35.0240   26.5740   47.1360 H   0  0  0  0  0  0  0  0  0  0  0  0
   31.8030   28.7190   49.0120 H   0  0  0  0  0  0  0  0  0  0  0  0
   29.2890   27.7370   48.3520 H   0  0  0  0  0  0  0  0  0  0  0  0
   30.5500   24.6310   45.8030 H   0  0  0  0  0  0  0  0  0  0  0  0
   33.3690   25.0570   45.9980 H   0  0  0  0  0  0  0  0  0  0  0  0
   37.5830   30.2570   49.4300 C   0  0  0  0  0  0  0  0  0  0  0  0
   38.2450   30.1260   50.4940 O   0  0  0  0  0  0  0  0  0  0  0  0
   38.0820   30.9320   48.2540 C   0  0  0  0  0  0  0  0  0  0  0  0
   38.6200   32.1940   48.4310 C   0  0  0  0  0  0  0  0  0  0  0  0
   39.1110   32.8790   47.3250 C   0  0  0  0  0  0  0  0  0  0  0  0
   39.0300   32.2500   46.1190 N   0  0  0  0  0  0  0  0  0  0  0  0
   38.5060   31.0280   45.9700 C   0  0  0  0  0  0  0  0  0  0  0  0
   38.0370   30.3840   47.0410 N   0  0  0  0  0  0  0  0  0  0  0  0
   38.7080   32.7330   49.3490 H   0  0  0  0  0  0  0  0  0  0  0  0
   39.5480   33.8780   47.4080 H   0  0  0  0  0  0  0  0  0  0  0  0
   36.6850   32.3730   44.0990 Cl  0  0  0  0  0  0  0  0  0  0  0  0
   37.6250   30.9400   43.6750 C   0  0  0  0  0  0  0  0  0  0  0  0
   38.4450   30.4040   44.6500 C   0  0  0  0  0  0  0  0  0  0  0  0
   39.1990   29.2840   44.3700 C   0  0  0  0  0  0  0  0  0  0  0  0
   39.8540   28.8320   45.1010 H   0  0  0  0  0  0  0  0  0  0  0  0
   39.1300   28.6980   43.1000 C   0  0  0  0  0  0  0  0  0  0  0  0
   39.7000   27.8090   42.8070 H   0  0  0  0  0  0  0  0  0  0  0  0
   38.2960   29.2720   42.1660 C   0  0  0  0  0  0  0  0  0  0  0  0
   38.2360   28.8270   41.1840 H   0  0  0  0  0  0  0  0  0  0  0  0
   37.5410   30.3840   42.4280 C   0  0  0  0  0  0  0  0  0  0  0  0
   36.4680   31.1350   41.2480 Cl  0  0  0  0  0  0  0  0  0  0  0  0
  1 22  1  0  0  0  0
  1  2  2  0  0  0  0
  2  6  1  0  0  0  0
  3  2  1  0  0  0  0
  3  7  1  0  0  0  0
  4  3  2  0  0  0  0
  5  4  1  0  0  0  0
  5  1  1  0  0  0  0
  8  9  1  0  0  0  0
  9 10  2  0  0  0  0
  9  4  1  0  0  0  0
 10 18  1  0  0  0  0
 11 12  1  0  0  0  0
 11 10  1  0  0  0  0
 12 19  1  0  0  0  0
 13 12  1  0  0  0  0
 14 15  1  0  0  0  0
 14 13  2  0  0  0  0
 15 11  2  0  0  0  0
 16 15  1  0  0  0  0
 16  8  2  0  0  0  0
 17  8  1  0  0  0  0
 20 14  1  0  0  0  0
 21 16  1  0  0  0  0
 22 23  2  0  0  0  0
 24 25  1  0  0  0  0
 24 22  1  0  0  0  0
 25 30  1  0  0  0  0
 26 31  1  0  0  0  0
 26 25  2  0  0  0  0
 27 26  1  0  0  0  0
 28 27  2  0  0  0  0
 28 29  1  0  0  0  0
 29 24  2  0  0  0  0
 33 32  1  0  0  0  0
 33 34  1  0  0  0  0
 34 28  1  0  0  0  0
 35 34  2  0  0  0  0
 35 36  1  0  0  0  0
 37 35  1  0  0  0  0
 38 37  1  0  0  0  0
 39 41  1  0  0  0  0
 39 37  2  0  0  0  0
 40 39  1  0  0  0  0
 41 33  2  0  0  0  0
 42 41  1  0  0  0  0
M  END
>  <minimizedAffinity>
-6.29534721

>  <minimizedRMSD>
1.26929128

$$$$
