
 OpenBabel03272501173D

 37 40  0  0  1  0  0  0  0  0999 V2000
   37.6100   26.7710   33.3710 C   0  0  0  0  0  0  0  0  0  0  0  0
   37.0870   25.9230   32.8810 H   0  0  0  0  0  0  0  0  0  0  0  0
   38.4170   27.0830   32.6470 H   0  0  0  0  0  0  0  0  0  0  0  0
   38.8850   25.0980   34.7790 C   0  0  1  0  0  0  0  0  0  0  0  0
   38.2930   26.3920   34.6540 C   0  0  1  0  0  0  0  0  0  0  0  0
   39.7840   26.3480   34.7900 C   0  0  0  0  0  0  0  0  0  0  0  0
   39.0620   24.4200   33.8940 H   0  0  0  0  0  0  0  0  0  0  0  0
   37.7500   26.7980   35.5500 H   0  0  0  0  0  0  0  0  0  0  0  0
   40.3590   26.5110   33.8680 H   0  0  0  0  0  0  0  0  0  0  0  0
   40.2690   26.6480   35.7300 H   0  0  0  0  0  0  0  0  0  0  0  0
   38.9340   24.3660   36.1000 C   0  0  0  0  0  0  0  0  0  0  0  0
   37.9700   24.7150   37.0310 C   0  0  0  0  0  0  0  0  0  0  0  0
   38.0410   24.0430   38.2620 C   0  0  0  0  0  0  0  0  0  0  0  0
   39.0150   23.1140   38.4780 N   0  0  0  0  0  0  0  0  0  0  0  0
   39.9520   22.7970   37.5280 C   0  0  0  0  0  0  0  0  0  0  0  0
   39.9010   23.4430   36.3180 N   0  0  0  0  0  0  0  0  0  0  0  0
   37.2140   25.4520   36.8310 H   0  0  0  0  0  0  0  0  0  0  0  0
   37.3300   24.2520   39.0420 H   0  0  0  0  0  0  0  0  0  0  0  0
   40.7070   22.0740   37.7050 H   0  0  0  0  0  0  0  0  0  0  0  0
   36.7480   27.9830   33.5090 C   0  0  0  0  0  0  0  0  0  0  0  0
   36.2670   28.6790   32.4110 C   0  0  0  0  0  0  0  0  0  0  0  0
   35.5270   29.7090   32.8050 N   0  0  0  0  0  0  0  0  0  0  0  0
   35.5250   29.6880   34.1320 C   0  0  0  0  0  0  0  0  0  0  0  0
   36.2620   28.6460   34.5590 N   0  0  0  0  0  0  0  0  0  0  0  0
   36.4670   28.4180   31.3590 H   0  0  0  0  0  0  0  0  0  0  0  0
   35.0710   30.3630   32.1730 H   0  0  0  0  0  0  0  0  0  0  0  0
   32.4370   29.5020   34.6180 Cl  0  0  0  0  0  0  0  0  0  0  0  0
   33.5590   30.5660   35.4180 C   0  0  0  0  0  0  0  0  0  0  0  0
   34.8970   30.5520   35.1150 C   0  0  0  0  0  0  0  0  0  0  0  0
   35.6040   31.4680   35.8610 C   0  0  0  0  0  0  0  0  0  0  0  0
   36.6930   31.5630   35.7170 H   0  0  0  0  0  0  0  0  0  0  0  0
   35.0710   32.3130   36.8030 C   0  0  0  0  0  0  0  0  0  0  0  0
   35.7000   33.0010   37.3410 H   0  0  0  0  0  0  0  0  0  0  0  0
   33.7210   32.2790   37.0630 C   0  0  0  0  0  0  0  0  0  0  0  0
   33.3480   32.9600   37.8110 H   0  0  0  0  0  0  0  0  0  0  0  0
   32.9590   31.3830   36.3480 C   0  0  0  0  0  0  0  0  0  0  0  0
   31.2490   31.3680   36.7040 Cl  0  0  0  0  0  0  0  0  0  0  0  0
  1 20  1  0  0  0  0
  1  5  1  0  0  0  0
  2  1  1  0  0  0  0
  3  1  1  0  0  0  0
  4  7  1  6  0  0  0
  4  6  1  0  0  0  0
  4 11  1  0  0  0  0
  5  4  1  0  0  0  0
  5  6  1  0  0  0  0
  5  8  1  1  0  0  0
  6 10  1  0  0  0  0
  9  6  1  0  0  0  0
 11 16  2  0  0  0  0
 11 12  1  0  0  0  0
 12 13  2  0  0  0  0
 13 14  1  0  0  0  0
 13 18  1  0  0  0  0
 15 19  1  0  0  0  0
 15 14  2  0  0  0  0
 16 15  1  0  0  0  0
 17 12  1  0  0  0  0
 20 24  1  0  0  0  0
 21 22  1  0  0  0  0
 21 20  2  0  0  0  0
 22 23  1  0  0  0  0
 23 24  2  0  0  0  0
 23 29  1  0  0  0  0
 25 21  1  0  0  0  0
 26 22  1  0  0  0  0
 27 28  1  0  0  0  0
 28 36  1  0  0  0  0
 29 28  2  0  0  0  0
 29 30  1  0  0  0  0
 30 32  2  0  0  0  0
 31 30  1  0  0  0  0
 32 34  1  0  0  0  0
 32 33  1  0  0  0  0
 34 35  1  0  0  0  0
 36 37  1  0  0  0  0
 36 34  2  0  0  0  0
M  END
>  <minimizedAffinity>
-6.1577692

$$$$

 OpenBabel03272501173D

 37 40  0  0  1  0  0  0  0  0999 V2000
   37.7670   27.1420   33.2760 C   0  0  0  0  0  0  0  0  0  0  0  0
   37.5310   26.2980   32.5950 H   0  0  0  0  0  0  0  0  0  0  0  0
   38.5780   27.7290   32.7550 H   0  0  0  0  0  0  0  0  0  0  0  0
   39.0270   25.4640   34.6920 C   0  0  1  0  0  0  0  0  0  0  0  0
   38.3240   26.7040   34.6010 C   0  0  1  0  0  0  0  0  0  0  0  0
   39.7840   26.7860   34.9270 C   0  0  0  0  0  0  0  0  0  0  0  0
   39.3800   24.8950   33.7830 H   0  0  0  0  0  0  0  0  0  0  0  0
   37.6360   26.9700   35.4480 H   0  0  0  0  0  0  0  0  0  0  0  0
   40.4470   27.0900   34.1050 H   0  0  0  0  0  0  0  0  0  0  0  0
   40.1160   27.0360   35.9440 H   0  0  0  0  0  0  0  0  0  0  0  0
   38.9900   24.6150   35.9410 C   0  0  0  0  0  0  0  0  0  0  0  0
   38.0010   24.9200   36.8610 C   0  0  0  0  0  0  0  0  0  0  0  0
   37.9920   24.1370   38.0280 C   0  0  0  0  0  0  0  0  0  0  0  0
   38.9180   23.1520   38.1950 N   0  0  0  0  0  0  0  0  0  0  0  0
   39.8830   22.8820   37.2580 C   0  0  0  0  0  0  0  0  0  0  0  0
   39.9100   23.6350   36.1110 N   0  0  0  0  0  0  0  0  0  0  0  0
   37.2840   25.7050   36.7000 H   0  0  0  0  0  0  0  0  0  0  0  0
   37.2570   24.3060   38.7940 H   0  0  0  0  0  0  0  0  0  0  0  0
   40.6010   22.1140   37.3980 H   0  0  0  0  0  0  0  0  0  0  0  0
   36.6380   28.1110   33.4120 C   0  0  0  0  0  0  0  0  0  0  0  0
   36.0060   28.6710   32.3140 C   0  0  0  0  0  0  0  0  0  0  0  0
   35.0400   29.4930   32.7070 N   0  0  0  0  0  0  0  0  0  0  0  0
   35.0400   29.4720   34.0340 C   0  0  0  0  0  0  0  0  0  0  0  0
   36.0050   28.6370   34.4620 N   0  0  0  0  0  0  0  0  0  0  0  0
   36.2650   28.4670   31.2630 H   0  0  0  0  0  0  0  0  0  0  0  0
   34.4410   30.0180   32.0750 H   0  0  0  0  0  0  0  0  0  0  0  0
   36.1810   31.9720   35.5360 Cl  0  0  0  0  0  0  0  0  0  0  0  0
   34.6060   31.2600   35.7380 C   0  0  0  0  0  0  0  0  0  0  0  0
   34.2220   30.1580   35.0150 C   0  0  0  0  0  0  0  0  0  0  0  0
   32.9410   29.7590   35.3270 C   0  0  0  0  0  0  0  0  0  0  0  0
   32.5050   28.8820   34.8190 H   0  0  0  0  0  0  0  0  0  0  0  0
   32.1170   30.3620   36.2440 C   0  0  0  0  0  0  0  0  0  0  0  0
   31.1260   29.9810   36.4260 H   0  0  0  0  0  0  0  0  0  0  0  0
   32.5600   31.4650   36.9360 C   0  0  0  0  0  0  0  0  0  0  0  0
   31.8770   31.9060   37.6460 H   0  0  0  0  0  0  0  0  0  0  0  0
   33.8330   31.9130   36.6700 C   0  0  0  0  0  0  0  0  0  0  0  0
   34.3620   33.3150   37.5680 Cl  0  0  0  0  0  0  0  0  0  0  0  0
  1 20  1  0  0  0  0
  1  5  1  0  0  0  0
  2  1  1  0  0  0  0
  3  1  1  0  0  0  0
  4  7  1  6  0  0  0
  4  6  1  0  0  0  0
  4 11  1  0  0  0  0
  5  4  1  0  0  0  0
  5  6  1  0  0  0  0
  5  8  1  1  0  0  0
  6 10  1  0  0  0  0
  9  6  1  0  0  0  0
 11 16  2  0  0  0  0
 11 12  1  0  0  0  0
 12 13  2  0  0  0  0
 13 14  1  0  0  0  0
 13 18  1  0  0  0  0
 15 19  1  0  0  0  0
 15 14  2  0  0  0  0
 16 15  1  0  0  0  0
 17 12  1  0  0  0  0
 20 24  1  0  0  0  0
 21 22  1  0  0  0  0
 21 20  2  0  0  0  0
 22 23  1  0  0  0  0
 23 24  2  0  0  0  0
 23 29  1  0  0  0  0
 25 21  1  0  0  0  0
 26 22  1  0  0  0  0
 27 28  1  0  0  0  0
 28 36  1  0  0  0  0
 29 30  1  0  0  0  0
 29 28  2  0  0  0  0
 30 32  2  0  0  0  0
 31 30  1  0  0  0  0
 32 33  1  0  0  0  0
 32 34  1  0  0  0  0
 34 35  1  0  0  0  0
 36 34  2  0  0  0  0
 36 37  1  0  0  0  0
M  END
>  <minimizedAffinity>
-6.0965085

$$$$

 OpenBabel03272501173D

 37 40  0  0  1  0  0  0  0  0999 V2000
   37.4200   27.1110   33.3070 C   0  0  0  0  0  0  0  0  0  0  0  0
   38.2510   27.6520   32.8090 H   0  0  0  0  0  0  0  0  0  0  0  0
   36.5730   27.8540   33.3680 H   0  0  0  0  0  0  0  0  0  0  0  0
   38.8600   25.8390   34.9550 C   0  0  1  0  0  0  0  0  0  0  0  0
   37.7380   26.6890   34.7130 C   0  0  1  0  0  0  0  0  0  0  0  0
   38.8690   27.2820   35.4950 C   0  0  0  0  0  0  0  0  0  0  0  0
   39.6540   25.6410   34.1770 H   0  0  0  0  0  0  0  0  0  0  0  0
   36.8060   26.4920   35.3090 H   0  0  0  0  0  0  0  0  0  0  0  0
   39.5240   27.9750   34.9480 H   0  0  0  0  0  0  0  0  0  0  0  0
   38.7760   27.4460   36.5780 H   0  0  0  0  0  0  0  0  0  0  0  0
   38.8680   24.8260   36.0760 C   0  0  0  0  0  0  0  0  0  0  0  0
   39.8360   23.8380   36.0010 C   0  0  0  0  0  0  0  0  0  0  0  0
   39.8190   22.8890   37.0380 C   0  0  0  0  0  0  0  0  0  0  0  0
   38.8900   22.9810   38.0300 N   0  0  0  0  0  0  0  0  0  0  0  0
   37.9480   23.9770   38.0670 C   0  0  0  0  0  0  0  0  0  0  0  0
   37.9470   24.9130   37.0640 N   0  0  0  0  0  0  0  0  0  0  0  0
   40.5560   23.7930   35.2040 H   0  0  0  0  0  0  0  0  0  0  0  0
   40.5360   22.0880   37.0580 H   0  0  0  0  0  0  0  0  0  0  0  0
   37.2280   24.0390   38.8440 H   0  0  0  0  0  0  0  0  0  0  0  0
   36.8740   25.9960   32.4760 C   0  0  0  0  0  0  0  0  0  0  0  0
   36.1320   26.2220   31.3270 C   0  0  0  0  0  0  0  0  0  0  0  0
   35.7710   25.0690   30.7760 N   0  0  0  0  0  0  0  0  0  0  0  0
   36.2640   24.1090   31.5480 C   0  0  0  0  0  0  0  0  0  0  0  0
   36.9310   24.6670   32.5750 N   0  0  0  0  0  0  0  0  0  0  0  0
   35.8760   27.2160   30.9250 H   0  0  0  0  0  0  0  0  0  0  0  0
   35.2190   24.9880   29.9250 H   0  0  0  0  0  0  0  0  0  0  0  0
   38.5860   22.5310   30.1600 Cl  0  0  0  0  0  0  0  0  0  0  0  0
   37.1490   21.8610   30.8770 C   0  0  0  0  0  0  0  0  0  0  0  0
   36.1990   22.6630   31.4580 C   0  0  0  0  0  0  0  0  0  0  0  0
   35.1470   21.9320   31.9620 C   0  0  0  0  0  0  0  0  0  0  0  0
   34.3100   22.4530   32.4580 H   0  0  0  0  0  0  0  0  0  0  0  0
   35.0240   20.5660   31.9090 C   0  0  0  0  0  0  0  0  0  0  0  0
   34.1630   20.0750   32.3310 H   0  0  0  0  0  0  0  0  0  0  0  0
   36.0110   19.8160   31.3130 C   0  0  0  0  0  0  0  0  0  0  0  0
   35.8720   18.7460   31.2950 H   0  0  0  0  0  0  0  0  0  0  0  0
   37.0900   20.4890   30.7890 C   0  0  0  0  0  0  0  0  0  0  0  0
   38.3230   19.5050   30.0390 Cl  0  0  0  0  0  0  0  0  0  0  0  0
  1  3  1  0  0  0  0
  1  5  1  0  0  0  0
  2  1  1  0  0  0  0
  4  7  1  6  0  0  0
  4  6  1  0  0  0  0
  4 11  1  0  0  0  0
  5  4  1  0  0  0  0
  5  8  1  1  0  0  0
  5  6  1  0  0  0  0
  6 10  1  0  0  0  0
  9  6  1  0  0  0  0
 11 16  1  0  0  0  0
 12 11  2  0  0  0  0
 12 13  1  0  0  0  0
 13 18  1  0  0  0  0
 13 14  2  0  0  0  0
 14 15  1  0  0  0  0
 15 19  1  0  0  0  0
 16 15  2  0  0  0  0
 17 12  1  0  0  0  0
 20 24  1  0  0  0  0
 20  1  1  0  0  0  0
 21 20  2  0  0  0  0
 22 21  1  0  0  0  0
 22 23  1  0  0  0  0
 23 24  2  0  0  0  0
 25 21  1  0  0  0  0
 26 22  1  0  0  0  0
 27 28  1  0  0  0  0
 28 29  1  0  0  0  0
 29 23  1  0  0  0  0
 29 30  2  0  0  0  0
 30 31  1  0  0  0  0
 32 30  1  0  0  0  0
 32 33  1  0  0  0  0
 34 32  2  0  0  0  0
 35 34  1  0  0  0  0
 36 28  2  0  0  0  0
 36 34  1  0  0  0  0
 37 36  1  0  0  0  0
M  END
>  <minimizedAffinity>
-6.04548645

$$$$

 OpenBabel03272501173D

 37 40  0  0  1  0  0  0  0  0999 V2000
   37.1480   27.8270   32.6330 C   0  0  0  0  0  0  0  0  0  0  0  0
   38.0550   28.4160   32.3800 H   0  0  0  0  0  0  0  0  0  0  0  0
   36.7020   27.5240   31.6420 H   0  0  0  0  0  0  0  0  0  0  0  0
   35.8760   29.9840   32.9990 C   0  0  1  0  0  0  0  0  0  0  0  0
   36.1030   28.6220   33.3620 C   0  0  1  0  0  0  0  0  0  0  0  0
   34.7690   28.9400   32.7600 C   0  0  0  0  0  0  0  0  0  0  0  0
   36.2840   30.4390   32.0500 H   0  0  0  0  0  0  0  0  0  0  0  0
   36.0780   28.3690   34.4560 H   0  0  0  0  0  0  0  0  0  0  0  0
   34.6290   28.6480   31.7090 H   0  0  0  0  0  0  0  0  0  0  0  0
   33.8650   28.9680   33.3850 H   0  0  0  0  0  0  0  0  0  0  0  0
   35.4520   31.0210   34.0140 C   0  0  0  0  0  0  0  0  0  0  0  0
   35.8580   30.8030   35.3190 C   0  0  0  0  0  0  0  0  0  0  0  0
   35.4390   31.7630   36.2560 C   0  0  0  0  0  0  0  0  0  0  0  0
   34.6830   32.8230   35.8540 N   0  0  0  0  0  0  0  0  0  0  0  0
   34.3030   33.0030   34.5480 C   0  0  0  0  0  0  0  0  0  0  0  0
   34.7010   32.0770   33.6170 N   0  0  0  0  0  0  0  0  0  0  0  0
   36.4540   29.9550   35.6060 H   0  0  0  0  0  0  0  0  0  0  0  0
   35.7090   31.6710   37.2920 H   0  0  0  0  0  0  0  0  0  0  0  0
   33.7140   33.8310   34.2450 H   0  0  0  0  0  0  0  0  0  0  0  0
   37.4680   26.5330   33.3060 C   0  0  0  0  0  0  0  0  0  0  0  0
   37.4530   25.3230   32.6310 C   0  0  0  0  0  0  0  0  0  0  0  0
   37.7750   24.3300   33.4530 N   0  0  0  0  0  0  0  0  0  0  0  0
   37.9950   24.8800   34.6410 C   0  0  0  0  0  0  0  0  0  0  0  0
   37.8100   26.2100   34.5540 N   0  0  0  0  0  0  0  0  0  0  0  0
   37.2090   25.1960   31.5640 H   0  0  0  0  0  0  0  0  0  0  0  0
   37.8270   23.3520   33.1790 H   0  0  0  0  0  0  0  0  0  0  0  0
   40.4200   22.9040   34.8010 Cl  0  0  0  0  0  0  0  0  0  0  0  0
   39.4140   23.4330   36.1190 C   0  0  0  0  0  0  0  0  0  0  0  0
   38.3750   24.3070   35.9190 C   0  0  0  0  0  0  0  0  0  0  0  0
   37.7110   24.5940   37.0910 C   0  0  0  0  0  0  0  0  0  0  0  0
   36.8510   25.2850   37.0750 H   0  0  0  0  0  0  0  0  0  0  0  0
   38.0190   24.0870   38.3290 C   0  0  0  0  0  0  0  0  0  0  0  0
   37.4430   24.3650   39.1950 H   0  0  0  0  0  0  0  0  0  0  0  0
   39.0730   23.2140   38.4640 C   0  0  0  0  0  0  0  0  0  0  0  0
   39.2780   22.8420   39.4560 H   0  0  0  0  0  0  0  0  0  0  0  0
   39.7770   22.8870   37.3280 C   0  0  0  0  0  0  0  0  0  0  0  0
   41.1090   21.7770   37.5380 Cl  0  0  0  0  0  0  0  0  0  0  0  0
  1 20  1  0  0  0  0
  1  5  1  0  0  0  0
  2  1  1  0  0  0  0
  3  1  1  0  0  0  0
  4  7  1  6  0  0  0
  4  5  1  0  0  0  0
  4 11  1  0  0  0  0
  5  8  1  1  0  0  0
  6  4  1  0  0  0  0
  6  5  1  0  0  0  0
  6 10  1  0  0  0  0
  9  6  1  0  0  0  0
 11 12  1  0  0  0  0
 12 17  1  0  0  0  0
 12 13  2  0  0  0  0
 13 18  1  0  0  0  0
 14 13  1  0  0  0  0
 15 14  2  0  0  0  0
 16 11  2  0  0  0  0
 16 15  1  0  0  0  0
 19 15  1  0  0  0  0
 20 24  1  0  0  0  0
 21 20  2  0  0  0  0
 21 22  1  0  0  0  0
 22 23  1  0  0  0  0
 23 29  1  0  0  0  0
 24 23  2  0  0  0  0
 25 21  1  0  0  0  0
 26 22  1  0  0  0  0
 27 28  1  0  0  0  0
 28 36  1  0  0  0  0
 29 28  2  0  0  0  0
 29 30  1  0  0  0  0
 30 32  2  0  0  0  0
 31 30  1  0  0  0  0
 32 34  1  0  0  0  0
 32 33  1  0  0  0  0
 34 35  1  0  0  0  0
 36 37  1  0  0  0  0
 36 34  2  0  0  0  0
M  END
>  <minimizedAffinity>
-5.86286449

$$$$

 OpenBabel03272501173D

 37 40  0  0  1  0  0  0  0  0999 V2000
   36.9590   27.1620   33.6290 C   0  0  0  0  0  0  0  0  0  0  0  0
   36.2900   26.3880   33.1970 H   0  0  0  0  0  0  0  0  0  0  0  0
   37.7730   27.3140   32.8630 H   0  0  0  0  0  0  0  0  0  0  0  0
   38.5900   25.6770   34.8710 C   0  0  1  0  0  0  0  0  0  0  0  0
   37.6270   26.7310   34.9030 C   0  0  1  0  0  0  0  0  0  0  0  0
   39.0380   27.1050   35.2380 C   0  0  0  0  0  0  0  0  0  0  0  0
   39.0420   25.2940   33.9090 H   0  0  0  0  0  0  0  0  0  0  0  0
   36.9150   26.7510   35.7720 H   0  0  0  0  0  0  0  0  0  0  0  0
   39.5990   27.6290   34.4520 H   0  0  0  0  0  0  0  0  0  0  0  0
   39.3280   27.3220   36.2760 H   0  0  0  0  0  0  0  0  0  0  0  0
   38.7700   24.7220   36.0280 C   0  0  0  0  0  0  0  0  0  0  0  0
   37.8770   24.8570   37.0780 C   0  0  0  0  0  0  0  0  0  0  0  0
   38.0690   23.9780   38.1570 C   0  0  0  0  0  0  0  0  0  0  0  0
   39.0830   23.0690   38.1230 N   0  0  0  0  0  0  0  0  0  0  0  0
   39.9470   22.9680   37.0620 C   0  0  0  0  0  0  0  0  0  0  0  0
   39.7770   23.8180   35.9980 N   0  0  0  0  0  0  0  0  0  0  0  0
   37.0860   25.5850   37.0740 H   0  0  0  0  0  0  0  0  0  0  0  0
   37.4200   24.0130   39.0130 H   0  0  0  0  0  0  0  0  0  0  0  0
   40.7340   22.2580   37.0460 H   0  0  0  0  0  0  0  0  0  0  0  0
   36.3010   28.4990   33.7400 C   0  0  0  0  0  0  0  0  0  0  0  0
   35.7550   29.1490   32.6460 C   0  0  0  0  0  0  0  0  0  0  0  0
   35.2330   30.3140   33.0140 N   0  0  0  0  0  0  0  0  0  0  0  0
   35.4350   30.4230   34.3210 C   0  0  0  0  0  0  0  0  0  0  0  0
   36.0800   29.3270   34.7610 N   0  0  0  0  0  0  0  0  0  0  0  0
   35.7510   28.7600   31.6150 H   0  0  0  0  0  0  0  0  0  0  0  0
   34.7770   30.9650   32.3790 H   0  0  0  0  0  0  0  0  0  0  0  0
   36.8150   33.2270   34.1250 Cl  0  0  0  0  0  0  0  0  0  0  0  0
   35.6240   32.7280   35.2910 C   0  0  0  0  0  0  0  0  0  0  0  0
   35.0910   31.4630   35.2720 C   0  0  0  0  0  0  0  0  0  0  0  0
   34.1690   31.2780   36.2780 C   0  0  0  0  0  0  0  0  0  0  0  0
   33.6620   30.3040   36.3800 H   0  0  0  0  0  0  0  0  0  0  0  0
   33.8010   32.2190   37.2080 C   0  0  0  0  0  0  0  0  0  0  0  0
   33.0690   31.9870   37.9630 H   0  0  0  0  0  0  0  0  0  0  0  0
   34.3710   33.4690   37.1740 C   0  0  0  0  0  0  0  0  0  0  0  0
   34.0500   34.1760   37.9240 H   0  0  0  0  0  0  0  0  0  0  0  0
   35.3010   33.7170   36.1910 C   0  0  0  0  0  0  0  0  0  0  0  0
   36.0050   35.3160   36.1790 Cl  0  0  0  0  0  0  0  0  0  0  0  0
  1 20  1  0  0  0  0
  1  5  1  0  0  0  0
  2  1  1  0  0  0  0
  3  1  1  0  0  0  0
  4  7  1  6  0  0  0
  4  5  1  0  0  0  0
  4  6  1  0  0  0  0
  4 11  1  0  0  0  0
  5  6  1  0  0  0  0
  5  8  1  1  0  0  0
  6 10  1  0  0  0  0
  9  6  1  0  0  0  0
 11 12  1  0  0  0  0
 12 13  2  0  0  0  0
 13 18  1  0  0  0  0
 14 13  1  0  0  0  0
 15 14  2  0  0  0  0
 16 11  2  0  0  0  0
 16 15  1  0  0  0  0
 17 12  1  0  0  0  0
 19 15  1  0  0  0  0
 20 24  1  0  0  0  0
 21 22  1  0  0  0  0
 21 20  2  0  0  0  0
 22 23  1  0  0  0  0
 23 24  2  0  0  0  0
 23 29  1  0  0  0  0
 25 21  1  0  0  0  0
 26 22  1  0  0  0  0
 27 28  1  0  0  0  0
 28 36  1  0  0  0  0
 29 28  2  0  0  0  0
 29 30  1  0  0  0  0
 30 31  1  0  0  0  0
 30 32  2  0  0  0  0
 32 33  1  0  0  0  0
 34 32  1  0  0  0  0
 34 35  1  0  0  0  0
 36 34  2  0  0  0  0
 37 36  1  0  0  0  0
M  END
>  <minimizedAffinity>
-5.78673983

$$$$

 OpenBabel03272501173D

 37 40  0  0  1  0  0  0  0  0999 V2000
   37.9780   27.4610   31.9700 C   0  0  0  0  0  0  0  0  0  0  0  0
   38.7550   28.1930   32.2730 H   0  0  0  0  0  0  0  0  0  0  0  0
   38.2920   27.0990   30.9480 H   0  0  0  0  0  0  0  0  0  0  0  0
   36.3670   29.3820   32.3170 C   0  0  1  0  0  0  0  0  0  0  0  0
   36.6110   28.0650   31.8220 C   0  0  1  0  0  0  0  0  0  0  0  0
   36.3010   29.1160   30.8010 C   0  0  0  0  0  0  0  0  0  0  0  0
   37.1990   30.0840   32.6180 H   0  0  0  0  0  0  0  0  0  0  0  0
   35.8010   27.3010   31.9730 H   0  0  0  0  0  0  0  0  0  0  0  0
   37.1550   29.5000   30.2270 H   0  0  0  0  0  0  0  0  0  0  0  0
   35.3230   29.1360   30.2990 H   0  0  0  0  0  0  0  0  0  0  0  0
   35.0220   29.7930   32.8690 C   0  0  0  0  0  0  0  0  0  0  0  0
   34.9820   30.9970   33.5520 C   0  0  0  0  0  0  0  0  0  0  0  0
   33.7300   31.3570   34.0790 C   0  0  0  0  0  0  0  0  0  0  0  0
   32.6550   30.5390   33.9020 N   0  0  0  0  0  0  0  0  0  0  0  0
   32.7370   29.3520   33.2170 C   0  0  0  0  0  0  0  0  0  0  0  0
   33.9510   28.9820   32.6950 N   0  0  0  0  0  0  0  0  0  0  0  0
   35.8490   31.6210   33.6760 H   0  0  0  0  0  0  0  0  0  0  0  0
   33.6090   32.2760   34.6240 H   0  0  0  0  0  0  0  0  0  0  0  0
   31.8950   28.7220   33.0850 H   0  0  0  0  0  0  0  0  0  0  0  0
   37.9810   26.2290   32.8150 C   0  0  0  0  0  0  0  0  0  0  0  0
   37.5760   24.9960   32.3300 C   0  0  0  0  0  0  0  0  0  0  0  0
   37.6770   24.0710   33.2780 N   0  0  0  0  0  0  0  0  0  0  0  0
   38.1370   24.6860   34.3600 C   0  0  0  0  0  0  0  0  0  0  0  0
   38.3210   25.9900   34.0820 N   0  0  0  0  0  0  0  0  0  0  0  0
   37.2200   24.8050   31.3050 H   0  0  0  0  0  0  0  0  0  0  0  0
   37.4340   23.0910   33.1510 H   0  0  0  0  0  0  0  0  0  0  0  0
   40.5130   22.6890   34.7760 Cl  0  0  0  0  0  0  0  0  0  0  0  0
   39.4580   23.3290   36.0030 C   0  0  0  0  0  0  0  0  0  0  0  0
   38.4470   24.2030   35.6920 C   0  0  0  0  0  0  0  0  0  0  0  0
   37.7350   24.5850   36.8070 C   0  0  0  0  0  0  0  0  0  0  0  0
   36.8910   25.2860   36.7010 H   0  0  0  0  0  0  0  0  0  0  0  0
   37.9760   24.1650   38.0920 C   0  0  0  0  0  0  0  0  0  0  0  0
   37.3670   24.5150   38.9070 H   0  0  0  0  0  0  0  0  0  0  0  0
   39.0060   23.2880   38.3400 C   0  0  0  0  0  0  0  0  0  0  0  0
   39.1590   22.9860   39.3650 H   0  0  0  0  0  0  0  0  0  0  0  0
   39.7550   22.8670   37.2650 C   0  0  0  0  0  0  0  0  0  0  0  0
   41.0540   21.7540   37.6170 Cl  0  0  0  0  0  0  0  0  0  0  0  0
  1  2  1  0  0  0  0
  1 20  1  0  0  0  0
  3  1  1  0  0  0  0
  4  7  1  1  0  0  0
  4 11  1  0  0  0  0
  5  1  1  0  0  0  0
  5  8  1  1  0  0  0
  5  4  1  0  0  0  0
  6  5  1  0  0  0  0
  6  4  1  0  0  0  0
  9  6  1  0  0  0  0
 10  6  1  0  0  0  0
 11 12  1  0  0  0  0
 12 17  1  0  0  0  0
 12 13  2  0  0  0  0
 13 18  1  0  0  0  0
 14 13  1  0  0  0  0
 15 14  2  0  0  0  0
 16 11  2  0  0  0  0
 16 15  1  0  0  0  0
 19 15  1  0  0  0  0
 20 24  1  0  0  0  0
 21 20  2  0  0  0  0
 21 22  1  0  0  0  0
 22 23  1  0  0  0  0
 23 29  1  0  0  0  0
 24 23  2  0  0  0  0
 25 21  1  0  0  0  0
 26 22  1  0  0  0  0
 27 28  1  0  0  0  0
 28 36  1  0  0  0  0
 29 28  2  0  0  0  0
 29 30  1  0  0  0  0
 30 32  2  0  0  0  0
 31 30  1  0  0  0  0
 32 34  1  0  0  0  0
 32 33  1  0  0  0  0
 34 35  1  0  0  0  0
 36 37  1  0  0  0  0
 36 34  2  0  0  0  0
M  END
>  <minimizedAffinity>
-5.52133226

$$$$

 OpenBabel03272501173D

 37 40  0  0  1  0  0  0  0  0999 V2000
   36.9640   27.7840   30.7820 C   0  0  0  0  0  0  0  0  0  0  0  0
   37.6340   28.2820   30.0500 H   0  0  0  0  0  0  0  0  0  0  0  0
   36.4440   26.9670   30.2020 H   0  0  0  0  0  0  0  0  0  0  0  0
   36.1810   29.5160   32.4530 C   0  0  1  0  0  0  0  0  0  0  0  0
   35.8940   28.6860   31.3260 C   0  0  1  0  0  0  0  0  0  0  0  0
   35.8890   30.1650   31.0860 C   0  0  0  0  0  0  0  0  0  0  0  0
   37.2310   29.6960   32.8250 H   0  0  0  0  0  0  0  0  0  0  0  0
   34.8820   28.2000   31.2900 H   0  0  0  0  0  0  0  0  0  0  0  0
   36.7700   30.5750   30.5720 H   0  0  0  0  0  0  0  0  0  0  0  0
   34.9430   30.7050   30.9440 H   0  0  0  0  0  0  0  0  0  0  0  0
   35.1250   29.8710   33.4730 C   0  0  0  0  0  0  0  0  0  0  0  0
   35.5050   30.7600   34.4650 C   0  0  0  0  0  0  0  0  0  0  0  0
   34.5210   31.0650   35.4200 C   0  0  0  0  0  0  0  0  0  0  0  0
   33.2860   30.4960   35.3320 N   0  0  0  0  0  0  0  0  0  0  0  0
   32.9490   29.6190   34.3320 C   0  0  0  0  0  0  0  0  0  0  0  0
   33.8960   29.3080   33.3890 N   0  0  0  0  0  0  0  0  0  0  0  0
   36.4890   31.1920   34.5080 H   0  0  0  0  0  0  0  0  0  0  0  0
   34.7310   31.7460   36.2240 H   0  0  0  0  0  0  0  0  0  0  0  0
   31.9850   29.1810   34.2720 H   0  0  0  0  0  0  0  0  0  0  0  0
   37.7120   27.0590   31.8520 C   0  0  0  0  0  0  0  0  0  0  0  0
   39.0710   27.2360   32.0560 C   0  0  0  0  0  0  0  0  0  0  0  0
   39.4890   26.4810   33.0660 N   0  0  0  0  0  0  0  0  0  0  0  0
   38.4260   25.8230   33.5120 C   0  0  0  0  0  0  0  0  0  0  0  0
   37.3520   26.1710   32.7800 N   0  0  0  0  0  0  0  0  0  0  0  0
   39.7170   27.9060   31.4670 H   0  0  0  0  0  0  0  0  0  0  0  0
   40.4500   26.4450   33.3960 H   0  0  0  0  0  0  0  0  0  0  0  0
   38.3140   26.8110   36.4810 Cl  0  0  0  0  0  0  0  0  0  0  0  0
   38.1980   25.1680   35.9220 C   0  0  0  0  0  0  0  0  0  0  0  0
   38.2610   24.8610   34.5860 C   0  0  0  0  0  0  0  0  0  0  0  0
   38.1490   23.5070   34.3620 C   0  0  0  0  0  0  0  0  0  0  0  0
   38.1840   23.1210   33.3290 H   0  0  0  0  0  0  0  0  0  0  0  0
   37.9910   22.5470   35.3310 C   0  0  0  0  0  0  0  0  0  0  0  0
   37.9120   21.5070   35.0650 H   0  0  0  0  0  0  0  0  0  0  0  0
   37.9340   22.9180   36.6540 C   0  0  0  0  0  0  0  0  0  0  0  0
   37.8100   22.1300   37.3800 H   0  0  0  0  0  0  0  0  0  0  0  0
   38.0420   24.2590   36.9430 C   0  0  0  0  0  0  0  0  0  0  0  0
   37.9650   24.6930   38.6330 Cl  0  0  0  0  0  0  0  0  0  0  0  0
  1  5  1  0  0  0  0
  1 20  1  0  0  0  0
  2  1  1  0  0  0  0
  3  1  1  0  0  0  0
  4  7  1  1  0  0  0
  4 11  1  0  0  0  0
  5  8  1  1  0  0  0
  5  4  1  0  0  0  0
  6  5  1  0  0  0  0
  6  4  1  0  0  0  0
  9  6  1  0  0  0  0
 10  6  1  0  0  0  0
 11 12  1  0  0  0  0
 12 17  1  0  0  0  0
 12 13  2  0  0  0  0
 13 18  1  0  0  0  0
 14 13  1  0  0  0  0
 15 14  2  0  0  0  0
 16 11  2  0  0  0  0
 16 15  1  0  0  0  0
 19 15  1  0  0  0  0
 20 21  2  0  0  0  0
 20 24  1  0  0  0  0
 21 22  1  0  0  0  0
 22 26  1  0  0  0  0
 22 23  1  0  0  0  0
 23 29  1  0  0  0  0
 24 23  2  0  0  0  0
 25 21  1  0  0  0  0
 28 27  1  0  0  0  0
 28 36  1  0  0  0  0
 29 28  2  0  0  0  0
 30 29  1  0  0  0  0
 30 32  2  0  0  0  0
 31 30  1  0  0  0  0
 32 34  1  0  0  0  0
 33 32  1  0  0  0  0
 34 36  2  0  0  0  0
 34 35  1  0  0  0  0
 36 37  1  0  0  0  0
M  END
>  <minimizedAffinity>
-5.36361837

$$$$

 OpenBabel03272501173D

 37 40  0  0  1  0  0  0  0  0999 V2000
   36.8700   27.5430   34.6070 C   0  0  0  0  0  0  0  0  0  0  0  0
   36.7410   28.6280   34.8030 H   0  0  0  0  0  0  0  0  0  0  0  0
   35.8690   27.0760   34.8340 H   0  0  0  0  0  0  0  0  0  0  0  0
   38.5110   25.6780   35.0930 C   0  0  1  0  0  0  0  0  0  0  0  0
   37.8770   26.8880   35.5090 C   0  0  1  0  0  0  0  0  0  0  0  0
   39.3510   26.9580   35.2560 C   0  0  0  0  0  0  0  0  0  0  0  0
   38.4630   25.2990   34.0300 H   0  0  0  0  0  0  0  0  0  0  0  0
   37.5800   26.9680   36.5900 H   0  0  0  0  0  0  0  0  0  0  0  0
   39.6580   27.4320   34.3120 H   0  0  0  0  0  0  0  0  0  0  0  0
   40.0600   27.0280   36.0930 H   0  0  0  0  0  0  0  0  0  0  0  0
   38.9250   24.6120   36.0810 C   0  0  0  0  0  0  0  0  0  0  0  0
   38.1400   24.4880   37.2140 C   0  0  0  0  0  0  0  0  0  0  0  0
   38.5480   23.5080   38.1350 C   0  0  0  0  0  0  0  0  0  0  0  0
   39.6530   22.7530   37.8810 N   0  0  0  0  0  0  0  0  0  0  0  0
   40.4050   22.9070   36.7430 C   0  0  0  0  0  0  0  0  0  0  0  0
   40.0230   23.8590   35.8310 N   0  0  0  0  0  0  0  0  0  0  0  0
   37.2720   25.1000   37.3860 H   0  0  0  0  0  0  0  0  0  0  0  0
   37.9950   23.3450   39.0420 H   0  0  0  0  0  0  0  0  0  0  0  0
   41.2640   22.3160   36.5550 H   0  0  0  0  0  0  0  0  0  0  0  0
   37.1010   27.2390   33.1630 C   0  0  0  0  0  0  0  0  0  0  0  0
   36.5720   26.1150   32.5480 C   0  0  0  0  0  0  0  0  0  0  0  0
   36.9210   26.0810   31.2670 N   0  0  0  0  0  0  0  0  0  0  0  0
   37.6640   27.1600   31.0490 C   0  0  0  0  0  0  0  0  0  0  0  0
   37.7730   27.8600   32.1930 N   0  0  0  0  0  0  0  0  0  0  0  0
   35.9500   25.3550   33.0470 H   0  0  0  0  0  0  0  0  0  0  0  0
   36.6490   25.3480   30.6180 H   0  0  0  0  0  0  0  0  0  0  0  0
   36.7200   29.8530   29.7600 Cl  0  0  0  0  0  0  0  0  0  0  0  0
   38.0030   28.8200   29.2000 C   0  0  0  0  0  0  0  0  0  0  0  0
   38.3230   27.6580   29.8560 C   0  0  0  0  0  0  0  0  0  0  0  0
   39.3650   26.9940   29.2480 C   0  0  0  0  0  0  0  0  0  0  0  0
   39.7250   26.0410   29.6730 H   0  0  0  0  0  0  0  0  0  0  0  0
   40.0290   27.4100   28.1210 C   0  0  0  0  0  0  0  0  0  0  0  0
   40.8350   26.8250   27.7120 H   0  0  0  0  0  0  0  0  0  0  0  0
   39.6610   28.5850   27.5090 C   0  0  0  0  0  0  0  0  0  0  0  0
   40.2120   28.8720   26.6260 H   0  0  0  0  0  0  0  0  0  0  0  0
   38.6250   29.2950   28.0680 C   0  0  0  0  0  0  0  0  0  0  0  0
   38.1850   30.7820   27.2640 Cl  0  0  0  0  0  0  0  0  0  0  0  0
  1  2  1  0  0  0  0
  1  3  1  0  0  0  0
  1  5  1  0  0  0  0
  4  7  1  6  0  0  0
  4  6  1  0  0  0  0
  4  5  1  0  0  0  0
  4 11  1  0  0  0  0
  5  8  1  1  0  0  0
  6  5  1  0  0  0  0
  6 10  1  0  0  0  0
  9  6  1  0  0  0  0
 11 12  1  0  0  0  0
 12 17  1  0  0  0  0
 12 13  2  0  0  0  0
 13 18  1  0  0  0  0
 14 13  1  0  0  0  0
 15 14  2  0  0  0  0
 16 11  2  0  0  0  0
 16 15  1  0  0  0  0
 19 15  1  0  0  0  0
 20  1  1  0  0  0  0
 21 25  1  0  0  0  0
 21 20  2  0  0  0  0
 22 21  1  0  0  0  0
 23 22  1  0  0  0  0
 23 24  2  0  0  0  0
 24 20  1  0  0  0  0
 26 22  1  0  0  0  0
 28 27  1  0  0  0  0
 28 29  1  0  0  0  0
 29 23  1  0  0  0  0
 30 31  1  0  0  0  0
 30 29  2  0  0  0  0
 32 30  1  0  0  0  0
 33 32  1  0  0  0  0
 34 36  1  0  0  0  0
 34 32  2  0  0  0  0
 35 34  1  0  0  0  0
 36 28  2  0  0  0  0
 37 36  1  0  0  0  0
M  END
>  <minimizedAffinity>
-5.36227512

$$$$

 OpenBabel03272501173D

 37 40  0  0  1  0  0  0  0  0999 V2000
   35.5360   29.4730   31.6830 C   0  0  0  0  0  0  0  0  0  0  0  0
   35.7870   30.2360   30.9160 H   0  0  0  0  0  0  0  0  0  0  0  0
   34.4220   29.3180   31.5970 H   0  0  0  0  0  0  0  0  0  0  0  0
   34.7210   30.0920   33.9980 C   0  0  1  0  0  0  0  0  0  0  0  0
   35.8090   29.9260   33.0890 C   0  0  1  0  0  0  0  0  0  0  0  0
   35.7660   28.9910   34.2580 C   0  0  0  0  0  0  0  0  0  0  0  0
   33.6850   29.6940   33.7890 H   0  0  0  0  0  0  0  0  0  0  0  0
   36.6320   30.6900   33.1270 H   0  0  0  0  0  0  0  0  0  0  0  0
   35.4210   27.9690   34.0480 H   0  0  0  0  0  0  0  0  0  0  0  0
   36.4680   29.1100   35.0960 H   0  0  0  0  0  0  0  0  0  0  0  0
   34.7380   31.1440   35.0830 C   0  0  0  0  0  0  0  0  0  0  0  0
   35.7350   32.1010   34.9920 C   0  0  0  0  0  0  0  0  0  0  0  0
   35.7540   33.0600   36.0190 C   0  0  0  0  0  0  0  0  0  0  0  0
   34.8280   33.0080   37.0180 N   0  0  0  0  0  0  0  0  0  0  0  0
   33.8560   32.0410   37.0710 C   0  0  0  0  0  0  0  0  0  0  0  0
   33.8200   31.0950   36.0770 N   0  0  0  0  0  0  0  0  0  0  0  0
   36.4520   32.1150   34.1910 H   0  0  0  0  0  0  0  0  0  0  0  0
   36.4940   33.8400   36.0260 H   0  0  0  0  0  0  0  0  0  0  0  0
   33.1400   32.0090   37.8520 H   0  0  0  0  0  0  0  0  0  0  0  0
   36.1210   28.1330   31.3800 C   0  0  0  0  0  0  0  0  0  0  0  0
   37.1260   27.9570   30.4430 C   0  0  0  0  0  0  0  0  0  0  0  0
   37.4690   26.6760   30.3660 N   0  0  0  0  0  0  0  0  0  0  0  0
   36.7030   26.0270   31.2350 C   0  0  0  0  0  0  0  0  0  0  0  0
   35.8890   26.9060   31.8480 N   0  0  0  0  0  0  0  0  0  0  0  0
   37.5800   28.7630   29.8430 H   0  0  0  0  0  0  0  0  0  0  0  0
   38.1850   26.3100   29.7440 H   0  0  0  0  0  0  0  0  0  0  0  0
   38.5230   24.8960   33.5190 Cl  0  0  0  0  0  0  0  0  0  0  0  0
   37.3600   24.0110   32.5730 C   0  0  0  0  0  0  0  0  0  0  0  0
   36.6190   24.6240   31.5950 C   0  0  0  0  0  0  0  0  0  0  0  0
   35.7630   23.7450   30.9710 C   0  0  0  0  0  0  0  0  0  0  0  0
   35.1060   24.1070   30.1610 H   0  0  0  0  0  0  0  0  0  0  0  0
   35.6350   22.4100   31.2620 C   0  0  0  0  0  0  0  0  0  0  0  0
   34.9380   21.7940   30.7220 H   0  0  0  0  0  0  0  0  0  0  0  0
   36.4070   21.8540   32.2560 C   0  0  0  0  0  0  0  0  0  0  0  0
   36.2720   20.8010   32.4500 H   0  0  0  0  0  0  0  0  0  0  0  0
   37.2840   22.6810   32.9170 C   0  0  0  0  0  0  0  0  0  0  0  0
   38.2480   21.9400   34.1720 Cl  0  0  0  0  0  0  0  0  0  0  0  0
  1  5  1  0  0  0  0
  2  1  1  0  0  0  0
  3  1  1  0  0  0  0
  4  7  1  6  0  0  0
  4  6  1  0  0  0  0
  4 11  1  0  0  0  0
  5  8  1  1  0  0  0
  5  4  1  0  0  0  0
  5  6  1  0  0  0  0
  6 10  1  0  0  0  0
  9  6  1  0  0  0  0
 11 16  1  0  0  0  0
 12 11  2  0  0  0  0
 12 13  1  0  0  0  0
 13 18  1  0  0  0  0
 13 14  2  0  0  0  0
 14 15  1  0  0  0  0
 15 19  1  0  0  0  0
 16 15  2  0  0  0  0
 17 12  1  0  0  0  0
 20  1  1  0  0  0  0
 20 24  1  0  0  0  0
 21 20  2  0  0  0  0
 22 21  1  0  0  0  0
 22 23  1  0  0  0  0
 23 29  1  0  0  0  0
 23 24  2  0  0  0  0
 25 21  1  0  0  0  0
 26 22  1  0  0  0  0
 28 36  1  0  0  0  0
 28 27  1  0  0  0  0
 29 28  2  0  0  0  0
 30 32  2  0  0  0  0
 30 29  1  0  0  0  0
 31 30  1  0  0  0  0
 32 34  1  0  0  0  0
 33 32  1  0  0  0  0
 34 35  1  0  0  0  0
 34 36  2  0  0  0  0
 36 37  1  0  0  0  0
M  END
>  <minimizedAffinity>
-5.36000347

$$$$
