
 OpenBabel03272508553D

 40 43  0  0  1  0  0  0  0  0999 V2000
   38.4350   31.8200   44.5120 C   0  0  0  0  0  0  0  0  0  0  0  0
   37.3510   32.4560   44.3940 O   0  0  0  0  0  0  0  0  0  0  0  0
   38.9490   31.4930   45.8120 N   0  0  0  0  0  0  0  0  0  0  0  0
   39.9040   31.1480   45.9740 H   0  0  0  0  0  0  0  0  0  0  0  0
   39.2070   31.3920   43.3270 C   0  0  0  0  0  0  0  0  0  0  0  0
   40.2060   30.4700   43.4930 C   0  0  0  0  0  0  0  0  0  0  0  0
   40.9080   30.0910   42.3600 C   0  0  0  0  0  0  0  0  0  0  0  0
   40.5740   30.6440   41.1630 C   0  0  0  0  0  0  0  0  0  0  0  0
   39.5670   31.5750   40.9860 C   0  0  0  0  0  0  0  0  0  0  0  0
   38.9230   31.9030   42.1140 N   0  0  0  0  0  0  0  0  0  0  0  0
   40.4840   30.0210   44.4360 H   0  0  0  0  0  0  0  0  0  0  0  0
   41.7230   29.3530   42.4290 H   0  0  0  0  0  0  0  0  0  0  0  0
   41.1480   30.3180   40.3060 H   0  0  0  0  0  0  0  0  0  0  0  0
   41.5320   31.0090   38.8810 Cl  0  0  0  0  0  0  0  0  0  0  0  0
   40.0630   31.9630   38.6430 C   0  0  0  0  0  0  0  0  0  0  0  0
   39.2190   32.1600   39.7040 C   0  0  0  0  0  0  0  0  0  0  0  0
   38.0990   32.8950   39.4880 C   0  0  0  0  0  0  0  0  0  0  0  0
   37.3990   33.0840   40.2810 H   0  0  0  0  0  0  0  0  0  0  0  0
   37.8100   33.4340   38.2400 C   0  0  0  0  0  0  0  0  0  0  0  0
   36.9130   34.0320   38.0370 H   0  0  0  0  0  0  0  0  0  0  0  0
   38.6960   33.2020   37.2090 C   0  0  0  0  0  0  0  0  0  0  0  0
   38.5250   33.5980   36.2120 H   0  0  0  0  0  0  0  0  0  0  0  0
   39.8490   32.4610   37.3760 C   0  0  0  0  0  0  0  0  0  0  0  0
   40.9990   32.1490   36.0800 Cl  0  0  0  0  0  0  0  0  0  0  0  0
   38.4210   31.0760   48.2110 C   0  0  2  0  0  0  0  0  0  0  0  0
   38.6910   32.5170   48.0830 C   0  0  0  0  0  0  0  0  0  0  0  0
   38.0630   31.6670   46.9470 C   0  0  1  0  0  0  0  0  0  0  0  0
   39.3440   30.4650   48.3170 H   0  0  0  0  0  0  0  0  0  0  0  0
   38.0190   33.2530   48.5710 H   0  0  0  0  0  0  0  0  0  0  0  0
   39.7090   32.8740   47.9440 H   0  0  0  0  0  0  0  0  0  0  0  0
   37.0080   31.9350   46.7290 H   0  0  0  0  0  0  0  0  0  0  0  0
   35.0730   30.2330   49.5420 C   0  0  0  0  0  0  0  0  0  0  0  0
   35.3860   29.5760   50.7630 C   0  0  0  0  0  0  0  0  0  0  0  0
   36.7730   29.4430   51.1080 C   0  0  0  0  0  0  0  0  0  0  0  0
   37.7250   29.9420   50.2670 N   0  0  0  0  0  0  0  0  0  0  0  0
   37.3380   30.5620   49.1090 C   0  0  0  0  0  0  0  0  0  0  0  0
   36.0240   30.7250   48.7160 N   0  0  0  0  0  0  0  0  0  0  0  0
   34.0510   30.3580   49.2400 H   0  0  0  0  0  0  0  0  0  0  0  0
   34.6080   29.2000   51.3920 H   0  0  0  0  0  0  0  0  0  0  0  0
   37.0260   28.9460   52.0330 H   0  0  0  0  0  0  0  0  0  0  0  0
  1  3  1  0  0  0  0
  2  1  2  0  0  0  0
  3  4  1  0  0  0  0
  3 27  1  0  0  0  0
  5  6  1  0  0  0  0
  5  1  1  0  0  0  0
  6 11  1  0  0  0  0
  7 12  1  0  0  0  0
  7  6  2  0  0  0  0
  8  7  1  0  0  0  0
  9  8  2  0  0  0  0
  9 10  1  0  0  0  0
 10  5  2  0  0  0  0
 13  8  1  0  0  0  0
 15 14  1  0  0  0  0
 15 16  1  0  0  0  0
 16  9  1  0  0  0  0
 17 16  2  0  0  0  0
 17 18  1  0  0  0  0
 19 17  1  0  0  0  0
 20 19  1  0  0  0  0
 21 23  1  0  0  0  0
 21 19  2  0  0  0  0
 22 21  1  0  0  0  0
 23 15  2  0  0  0  0
 24 23  1  0  0  0  0
 25 28  1  6  0  0  0
 25 36  1  0  0  0  0
 26 25  1  0  0  0  0
 26 29  1  0  0  0  0
 27 31  1  6  0  0  0
 27 26  1  0  0  0  0
 27 25  1  0  0  0  0
 30 26  1  0  0  0  0
 32 33  1  0  0  0  0
 33 34  2  0  0  0  0
 33 39  1  0  0  0  0
 34 40  1  0  0  0  0
 35 34  1  0  0  0  0
 36 35  2  0  0  0  0
 37 36  1  0  0  0  0
 37 32  2  0  0  0  0
 38 32  1  0  0  0  0
M  END
>  <minimizedAffinity>
-5.26953316

>  <minimizedRMSD>
0.170082539

$$$$
