
     RDKit          3D

 35 37  0  0  0  0  0  0  0  0999 V2000
   37.0947   29.8095   51.6428 C   0  0  0  0  0  0  0  0  0  0  0  0
   37.7358   30.5781   50.6716 C   0  0  0  0  0  0  0  0  0  0  0  0
   37.0771   30.8261   49.4573 C   0  0  0  0  0  0  0  0  0  0  0  0
   35.8386   30.3059   49.2771 N   0  0  0  0  0  0  0  0  0  0  0  0
   35.2490   29.5621   50.2487 C   0  0  0  0  0  0  0  0  0  0  0  0
   35.8659   29.3073   51.4341 N   0  0  0  0  0  0  0  0  0  0  0  0
   37.5712   31.5759   48.3690 N   0  0  0  0  0  0  0  0  0  0  0  0
   38.2196   32.8585   48.5003 C   0  0  0  0  0  0  0  0  0  0  0  0
   39.4477   33.0721   47.7094 C   0  0  0  0  0  0  0  0  0  0  0  0
   39.5042   32.4365   46.3655 C   0  0  0  0  0  0  0  0  0  0  0  0
   38.9297   31.0504   46.4425 C   0  0  0  0  0  0  0  0  0  0  0  0
   37.5135   31.2005   46.9947 C   0  0  1  0  0  0  0  0  0  0  0  0
   37.7439   29.7230   52.5031 H   0  0  0  0  0  0  0  0  0  0  0  0
   38.6996   31.0323   50.7064 H   0  0  0  0  0  0  0  0  0  0  0  0
   34.2605   29.1305   50.1396 H   0  0  0  0  0  0  0  0  0  0  0  0
   37.4617   33.6204   48.1733 H   0  0  0  0  0  0  0  0  0  0  0  0
   38.4169   33.0954   49.5592 H   0  0  0  0  0  0  0  0  0  0  0  0
   40.3539   32.7735   48.2762 H   0  0  0  0  0  0  0  0  0  0  0  0
   39.5680   34.1799   47.5369 H   0  0  0  0  0  0  0  0  0  0  0  0
   40.5778   32.4017   46.0452 H   0  0  0  0  0  0  0  0  0  0  0  0
   38.9623   32.9898   45.5804 H   0  0  0  0  0  0  0  0  0  0  0  0
   39.5452   30.4836   47.1765 H   0  0  0  0  0  0  0  0  0  0  0  0
   38.9312   30.5445   45.4609 H   0  0  0  0  0  0  0  0  0  0  0  0
   37.0996   32.0481   46.3560 H   0  0  0  0  0  0  0  0  0  0  0  0
   38.4973   29.4229   44.7458 Cl  0  0  0  0  0  0  0  0  0  0  0  0
   37.0039   29.1171   45.6519 C   0  0  0  0  0  0  0  0  0  0  0  0
   36.6801   30.0417   46.6544 C   0  0  0  0  0  0  0  0  0  0  0  0
   35.4916   29.6855   47.2843 C   0  0  0  0  0  0  0  0  0  0  0  0
   35.1337   30.3242   48.0950 H   0  0  0  0  0  0  0  0  0  0  0  0
   34.7087   28.6070   47.0122 C   0  0  0  0  0  0  0  0  0  0  0  0
   33.8039   28.4023   47.5454 H   0  0  0  0  0  0  0  0  0  0  0  0
   35.1232   27.7622   46.0043 C   0  0  0  0  0  0  0  0  0  0  0  0
   34.5138   26.9008   45.7745 H   0  0  0  0  0  0  0  0  0  0  0  0
   36.2801   27.9989   45.3021 C   0  0  0  0  0  0  0  0  0  0  0  0
   36.8211   26.9496   44.0302 Cl  0  0  0  0  0  0  0  0  0  0  0  0
  2  1  2  0
  3  2  1  0
  4  3  2  0
  4  5  1  0
  5  6  2  0
  6  1  1  0
  7  8  1  0
  7  3  1  0
  9  8  1  0
 10 11  1  0
 10  9  1  0
 11 12  1  0
 12  7  1  0
  1 13  1  0
  2 14  1  0
  5 15  1  0
  8 16  1  0
  8 17  1  0
  9 18  1  0
  9 19  1  0
 10 20  1  0
 10 21  1  0
 11 22  1  0
 11 23  1  0
 12 24  1  6
 25 26  1  0
 26 27  2  0
 27 28  1  0
 28 29  1  0
 28 30  2  0
 30 31  1  0
 30 32  1  0
 32 33  1  0
 32 34  2  0
 34 35  1  0
 34 26  1  0
 12 27  1  0
M  ISO  8  13  14  14  14  15  14  16  13  17  13  18  13  19  13  20  13
M  ISO  7  21  13  22  13  23  13  24  13  29  15  31  15  33  15
M  END
>  <DihAtoms>  (1) 
10,11,26,25

>  <DihDeg>  (1) 
-106.94628292079256

$$$$
