
 OpenBabel03272507143D

 42 46  0  0  0  0  0  0  0  0999 V2000
   35.7760   29.1370   49.8780 C   0  0  0  0  0  0  0  0  0  0  0  0
   34.7320   29.6200   50.5980 C   0  0  0  0  0  0  0  0  0  0  0  0
   33.5780   29.0290   50.0820 C   0  0  0  0  0  0  0  0  0  0  0  0
   34.0170   28.1950   49.0450 C   0  0  0  0  0  0  0  0  0  0  0  0
   35.3080   28.3120   48.9860 O   0  0  0  0  0  0  0  0  0  0  0  0
   34.7500   30.3300   51.4240 H   0  0  0  0  0  0  0  0  0  0  0  0
   32.6020   29.2360   50.4720 H   0  0  0  0  0  0  0  0  0  0  0  0
   33.5240   26.4210   47.3700 C   0  0  0  0  0  0  0  0  0  0  0  0
   33.0930   27.3860   48.2420 C   0  0  0  0  0  0  0  0  0  0  0  0
   31.7420   27.6600   48.4260 C   0  0  0  0  0  0  0  0  0  0  0  0
   30.8390   26.9090   47.6870 C   0  0  0  0  0  0  0  0  0  0  0  0
   29.5020   26.9570   47.6690 N   0  0  0  0  0  0  0  0  0  0  0  0
   29.0920   26.0330   46.7990 N   0  0  0  0  0  0  0  0  0  0  0  0
   30.1520   25.4140   46.2780 C   0  0  0  0  0  0  0  0  0  0  0  0
   31.3150   25.9470   46.8210 C   0  0  0  0  0  0  0  0  0  0  0  0
   32.6640   25.6780   46.6400 C   0  0  0  0  0  0  0  0  0  0  0  0
   34.6110   26.2880   47.3000 H   0  0  0  0  0  0  0  0  0  0  0  0
   31.3340   28.4130   49.1020 H   0  0  0  0  0  0  0  0  0  0  0  0
   28.8440   27.5700   48.2050 H   0  0  0  0  0  0  0  0  0  0  0  0
   30.1830   24.6040   45.5320 H   0  0  0  0  0  0  0  0  0  0  0  0
   32.9930   24.9130   45.9480 H   0  0  0  0  0  0  0  0  0  0  0  0
   37.1490   29.5450   50.1470 C   0  0  0  0  0  0  0  0  0  0  0  0
   37.7920   28.9560   51.0560 O   0  0  0  0  0  0  0  0  0  0  0  0
   37.6960   30.6130   49.3430 C   0  0  0  0  0  0  0  0  0  0  0  0
   37.7770   31.8650   49.9270 C   0  0  0  0  0  0  0  0  0  0  0  0
   38.2970   32.9210   49.1870 C   0  0  0  0  0  0  0  0  0  0  0  0
   38.7010   32.6480   47.9140 N   0  0  0  0  0  0  0  0  0  0  0  0
   38.6140   31.4290   47.3690 C   0  0  0  0  0  0  0  0  0  0  0  0
   38.1120   30.4260   48.0920 N   0  0  0  0  0  0  0  0  0  0  0  0
   37.4760   32.1340   50.9160 H   0  0  0  0  0  0  0  0  0  0  0  0
   38.3840   33.9310   49.5990 H   0  0  0  0  0  0  0  0  0  0  0  0
   36.4800   30.5670   45.5460 Cl  0  0  0  0  0  0  0  0  0  0  0  0
   38.1560   30.7880   45.0400 C   0  0  0  0  0  0  0  0  0  0  0  0
   39.0630   31.1970   45.9990 C   0  0  0  0  0  0  0  0  0  0  0  0
   40.3840   31.3840   45.6530 C   0  0  0  0  0  0  0  0  0  0  0  0
   41.1280   31.7040   46.3700 H   0  0  0  0  0  0  0  0  0  0  0  0
   40.8000   31.1580   44.3360 C   0  0  0  0  0  0  0  0  0  0  0  0
   41.8320   31.2860   43.9910 H   0  0  0  0  0  0  0  0  0  0  0  0
   39.8550   30.7500   43.4190 C   0  0  0  0  0  0  0  0  0  0  0  0
   40.1650   30.5730   42.4010 H   0  0  0  0  0  0  0  0  0  0  0  0
   38.5380   30.5600   43.7470 C   0  0  0  0  0  0  0  0  0  0  0  0
   37.3130   30.0390   42.5900 Cl  0  0  0  0  0  0  0  0  0  0  0  0
  1 22  1  0  0  0  0
  1  2  2  0  0  0  0
  2  6  1  0  0  0  0
  3  7  1  0  0  0  0
  3  2  1  0  0  0  0
  4  3  2  0  0  0  0
  5  4  1  0  0  0  0
  5  1  1  0  0  0  0
  8  9  1  0  0  0  0
  9 10  2  0  0  0  0
  9  4  1  0  0  0  0
 10 18  1  0  0  0  0
 11 10  1  0  0  0  0
 12 11  1  0  0  0  0
 12 19  1  0  0  0  0
 13 12  1  0  0  0  0
 14 13  2  0  0  0  0
 14 15  1  0  0  0  0
 15 11  2  0  0  0  0
 16 15  1  0  0  0  0
 16  8  2  0  0  0  0
 17  8  1  0  0  0  0
 20 14  1  0  0  0  0
 21 16  1  0  0  0  0
 22 23  2  0  0  0  0
 24 25  1  0  0  0  0
 24 22  1  0  0  0  0
 25 30  1  0  0  0  0
 26 31  1  0  0  0  0
 26 25  2  0  0  0  0
 27 26  1  0  0  0  0
 28 27  2  0  0  0  0
 28 29  1  0  0  0  0
 29 24  2  0  0  0  0
 33 32  1  0  0  0  0
 33 34  1  0  0  0  0
 34 28  1  0  0  0  0
 35 34  2  0  0  0  0
 35 36  1  0  0  0  0
 37 35  1  0  0  0  0
 38 37  1  0  0  0  0
 39 41  1  0  0  0  0
 39 37  2  0  0  0  0
 40 39  1  0  0  0  0
 41 33  2  0  0  0  0
 42 41  1  0  0  0  0
M  END
>  <minimizedAffinity>
-7.4227705

>  <minimizedRMSD>
0.510408103

$$$$
