
 OpenBabel03272502073D

 41 44  0  0  0  0  0  0  0  0999 V2000
   34.3920   30.1230   47.8470 F   0  0  0  0  0  0  0  0  0  0  0  0
   34.5230   29.6430   46.5690 C   0  0  0  0  0  0  0  0  0  0  0  0
   33.5100   28.9250   45.9440 C   0  0  0  0  0  0  0  0  0  0  0  0
   33.6990   28.4910   44.6550 C   0  0  0  0  0  0  0  0  0  0  0  0
   34.8930   28.7680   43.9760 C   0  0  0  0  0  0  0  0  0  0  0  0
   35.8580   29.4840   44.6550 C   0  0  0  0  0  0  0  0  0  0  0  0
   35.7160   29.9280   45.9150 C   0  0  0  0  0  0  0  0  0  0  0  0
   32.8820   27.9410   44.2260 H   0  0  0  0  0  0  0  0  0  0  0  0
   35.0030   28.4130   42.9700 H   0  0  0  0  0  0  0  0  0  0  0  0
   36.7480   29.6540   44.0590 H   0  0  0  0  0  0  0  0  0  0  0  0
   37.2920   32.0430   44.2250 Br  0  0  0  0  0  0  0  0  0  0  0  0
   37.5820   31.6510   46.0600 C   0  0  0  0  0  0  0  0  0  0  0  0
   36.7810   30.6620   46.5680 C   0  0  0  0  0  0  0  0  0  0  0  0
   36.9680   30.2920   47.9100 C   0  0  0  0  0  0  0  0  0  0  0  0
   37.9150   30.8990   48.6780 C   0  0  0  0  0  0  0  0  0  0  0  0
   38.6800   31.8810   48.1070 C   0  0  0  0  0  0  0  0  0  0  0  0
   38.5280   32.2790   46.7790 C   0  0  0  0  0  0  0  0  0  0  0  0
   36.3840   29.5210   48.3990 H   0  0  0  0  0  0  0  0  0  0  0  0
   38.0940   30.6440   49.7170 H   0  0  0  0  0  0  0  0  0  0  0  0
   39.4540   32.4010   48.6800 H   0  0  0  0  0  0  0  0  0  0  0  0
   39.2470   33.2510   46.1360 O   0  0  0  0  0  0  0  0  0  0  0  0
   39.3420   34.1650   46.5940 H   0  0  0  0  0  0  0  0  0  0  0  0
   32.4890   27.9800   47.9100 C   0  0  0  0  0  0  0  0  0  0  0  0
   32.3320   28.7100   46.7440 C   0  0  0  0  0  0  0  0  0  0  0  0
   31.0620   29.2110   46.4340 C   0  0  0  0  0  0  0  0  0  0  0  0
   30.0190   28.9780   47.2700 N   0  0  0  0  0  0  0  0  0  0  0  0
   30.2200   28.2640   48.3970 C   0  0  0  0  0  0  0  0  0  0  0  0
   31.4050   27.7760   48.7160 N   0  0  0  0  0  0  0  0  0  0  0  0
   33.3950   27.5280   48.2870 H   0  0  0  0  0  0  0  0  0  0  0  0
   30.9710   29.7790   45.5120 H   0  0  0  0  0  0  0  0  0  0  0  0
   27.5390   29.4480   47.5600 Cl  0  0  0  0  0  0  0  0  0  0  0  0
   27.8160   28.5080   49.0230 C   0  0  0  0  0  0  0  0  0  0  0  0
   29.0830   28.0260   49.2850 C   0  0  0  0  0  0  0  0  0  0  0  0
   29.2240   27.2950   50.4530 C   0  0  0  0  0  0  0  0  0  0  0  0
   30.2210   26.9210   50.6520 H   0  0  0  0  0  0  0  0  0  0  0  0
   28.1930   27.0300   51.3440 C   0  0  0  0  0  0  0  0  0  0  0  0
   28.3460   26.4620   52.2320 H   0  0  0  0  0  0  0  0  0  0  0  0
   26.9750   27.5610   50.9750 C   0  0  0  0  0  0  0  0  0  0  0  0
   26.1450   27.3610   51.6700 H   0  0  0  0  0  0  0  0  0  0  0  0
   26.7210   28.3020   49.8380 C   0  0  0  0  0  0  0  0  0  0  0  0
   25.1270   28.9280   49.4740 Cl  0  0  0  0  0  0  0  0  0  0  0  0
  2  1  1  0  0  0  0
  3  2  1  0  0  0  0
  3 24  1  0  0  0  0
  4  3  2  0  0  0  0
  5  4  1  0  0  0  0
  5  6  2  0  0  0  0
  6  7  1  0  0  0  0
  7 13  1  0  0  0  0
  7  2  2  0  0  0  0
  8  4  1  0  0  0  0
  9  5  1  0  0  0  0
 10  6  1  0  0  0  0
 11 12  1  0  0  0  0
 12 13  2  0  0  0  0
 12 17  1  0  0  0  0
 13 14  1  0  0  0  0
 14 18  1  0  0  0  0
 14 15  2  0  0  0  0
 15 19  1  0  0  0  0
 16 15  1  0  0  0  0
 16 20  1  0  0  0  0
 17 16  2  0  0  0  0
 21 22  1  0  0  0  0
 21 17  1  0  0  0  0
 23 29  1  0  0  0  0
 23 28  1  0  0  0  0
 24 23  2  0  0  0  0
 25 24  1  0  0  0  0
 25 26  2  0  0  0  0
 26 27  1  0  0  0  0
 27 28  2  0  0  0  0
 27 33  1  0  0  0  0
 30 25  1  0  0  0  0
 31 32  1  0  0  0  0
 32 33  2  0  0  0  0
 32 40  1  0  0  0  0
 33 34  1  0  0  0  0
 34 35  1  0  0  0  0
 34 36  2  0  0  0  0
 36 37  1  0  0  0  0
 38 36  1  0  0  0  0
 38 39  1  0  0  0  0
 40 38  2  0  0  0  0
 41 40  1  0  0  0  0
M  END
>  <minimizedAffinity>
-7.61662292

>  <minimizedRMSD>
1.50498235

$$$$
