
 OpenBabel03272502533D

 29 31  0  0  0  0  0  0  0  0999 V2000
   36.0590   30.3080   48.6300 C   0  0  0  0  0  0  0  0  0  0  0  0
   36.0920   29.3550   49.6410 C   0  0  0  0  0  0  0  0  0  0  0  0
   35.1320   28.3640   49.7110 C   0  0  0  0  0  0  0  0  0  0  0  0
   34.1580   28.3740   48.7440 C   0  0  0  0  0  0  0  0  0  0  0  0
   34.1110   29.3170   47.7310 C   0  0  0  0  0  0  0  0  0  0  0  0
   35.0820   30.2880   47.6900 N   0  0  0  0  0  0  0  0  0  0  0  0
   36.9080   29.4270   50.3690 H   0  0  0  0  0  0  0  0  0  0  0  0
   35.1940   27.6470   50.5090 H   0  0  0  0  0  0  0  0  0  0  0  0
   33.4150   27.5980   48.8090 H   0  0  0  0  0  0  0  0  0  0  0  0
   31.6340   27.7350   48.4040 Cl  0  0  0  0  0  0  0  0  0  0  0  0
   31.8980   28.6350   46.9020 C   0  0  0  0  0  0  0  0  0  0  0  0
   33.0760   29.3240   46.7050 C   0  0  0  0  0  0  0  0  0  0  0  0
   33.1830   29.9900   45.5060 C   0  0  0  0  0  0  0  0  0  0  0  0
   34.0700   30.5460   45.2870 H   0  0  0  0  0  0  0  0  0  0  0  0
   32.2110   30.0050   44.5310 C   0  0  0  0  0  0  0  0  0  0  0  0
   32.3330   30.5430   43.5950 H   0  0  0  0  0  0  0  0  0  0  0  0
   31.0360   29.2980   44.7610 C   0  0  0  0  0  0  0  0  0  0  0  0
   30.2230   29.2470   44.0690 H   0  0  0  0  0  0  0  0  0  0  0  0
   30.8870   28.6160   45.9510 C   0  0  0  0  0  0  0  0  0  0  0  0
   29.4080   27.7080   46.2820 Cl  0  0  0  0  0  0  0  0  0  0  0  0
   38.1000   33.2050   49.5440 C   0  0  0  0  0  0  0  0  0  0  0  0
   39.0170   33.2880   48.4710 C   0  0  0  0  0  0  0  0  0  0  0  0
   38.9170   32.3340   47.4380 C   0  0  0  0  0  0  0  0  0  0  0  0
   37.9360   31.4070   47.5660 N   0  0  0  0  0  0  0  0  0  0  0  0
   37.0780   31.3410   48.5830 C   0  0  0  0  0  0  0  0  0  0  0  0
   37.1790   32.2440   49.5530 N   0  0  0  0  0  0  0  0  0  0  0  0
   38.1740   33.9480   50.3540 H   0  0  0  0  0  0  0  0  0  0  0  0
   39.7830   34.0460   48.4160 H   0  0  0  0  0  0  0  0  0  0  0  0
   39.5980   32.3820   46.6260 H   0  0  0  0  0  0  0  0  0  0  0  0
  1  2  1  0  0  0  0
  2  3  2  0  0  0  0
  2  7  1  0  0  0  0
  3  8  1  0  0  0  0
  4  9  1  0  0  0  0
  4  3  1  0  0  0  0
  5  4  2  0  0  0  0
  6  5  1  0  0  0  0
  6  1  2  0  0  0  0
 11 10  1  0  0  0  0
 12 11  1  0  0  0  0
 12  5  1  0  0  0  0
 13 12  2  0  0  0  0
 14 13  1  0  0  0  0
 15 17  2  0  0  0  0
 15 13  1  0  0  0  0
 16 15  1  0  0  0  0
 17 19  1  0  0  0  0
 18 17  1  0  0  0  0
 19 20  1  0  0  0  0
 19 11  2  0  0  0  0
 21 26  1  0  0  0  0
 21 27  1  0  0  0  0
 22 21  2  0  0  0  0
 23 24  2  0  0  0  0
 23 22  1  0  0  0  0
 24 25  1  0  0  0  0
 25  1  1  0  0  0  0
 25 26  2  0  0  0  0
 28 22  1  0  0  0  0
 29 23  1  0  0  0  0
M  END
>  <minimizedAffinity>
-5.58774328

>  <minimizedRMSD>
0.328163594

$$$$
