
 OpenBabel03272504513D

 44 47  0  0  1  0  0  0  0  0999 V2000
   36.6070   28.8230   32.4780 N   0  0  0  0  0  0  0  0  0  0  0  0
   36.9120   28.4800   31.1010 C   0  0  0  0  0  0  0  0  0  0  0  0
   36.5010   29.5230   30.1150 C   0  0  0  0  0  0  0  0  0  0  0  0
   36.7610   30.9080   30.7000 C   0  0  0  0  0  0  0  0  0  0  0  0
   35.7860   31.0450   31.8290 C   0  0  0  0  0  0  0  0  0  0  0  0
   35.9730   30.0200   32.9130 C   0  0  1  0  0  0  0  0  0  0  0  0
   38.0420   28.4620   31.0680 H   0  0  0  0  0  0  0  0  0  0  0  0
   36.6110   27.4830   30.7890 H   0  0  0  0  0  0  0  0  0  0  0  0
   37.1110   29.3810   29.2020 H   0  0  0  0  0  0  0  0  0  0  0  0
   35.4170   29.4530   29.9170 H   0  0  0  0  0  0  0  0  0  0  0  0
   36.5770   31.6790   29.9510 H   0  0  0  0  0  0  0  0  0  0  0  0
   37.8050   30.9450   31.0760 H   0  0  0  0  0  0  0  0  0  0  0  0
   35.9000   32.0600   32.2620 H   0  0  0  0  0  0  0  0  0  0  0  0
   34.7490   30.9660   31.4130 H   0  0  0  0  0  0  0  0  0  0  0  0
   36.6760   30.4840   33.6690 H   0  0  0  0  0  0  0  0  0  0  0  0
   35.5010   31.1700   35.7600 Cl  0  0  0  0  0  0  0  0  0  0  0  0
   34.3170   30.3120   34.8380 C   0  0  0  0  0  0  0  0  0  0  0  0
   34.6800   29.8710   33.5920 C   0  0  0  0  0  0  0  0  0  0  0  0
   33.6310   29.1900   32.9520 C   0  0  0  0  0  0  0  0  0  0  0  0
   33.8150   28.7920   31.9410 H   0  0  0  0  0  0  0  0  0  0  0  0
   32.3780   28.9770   33.4850 C   0  0  0  0  0  0  0  0  0  0  0  0
   31.6430   28.4360   32.8990 H   0  0  0  0  0  0  0  0  0  0  0  0
   32.1050   29.4540   34.7390 C   0  0  0  0  0  0  0  0  0  0  0  0
   31.1190   29.2610   35.1040 H   0  0  0  0  0  0  0  0  0  0  0  0
   33.0950   30.1310   35.4180 C   0  0  0  0  0  0  0  0  0  0  0  0
   32.7360   30.7370   37.0170 Cl  0  0  0  0  0  0  0  0  0  0  0  0
   37.0600   26.5180   33.1610 C   0  0  0  0  0  0  0  0  0  0  0  0
   36.9960   27.8740   33.4550 C   0  0  0  0  0  0  0  0  0  0  0  0
   37.3360   28.2300   34.7450 C   0  0  0  0  0  0  0  0  0  0  0  0
   37.7060   27.2750   35.6380 N   0  0  0  0  0  0  0  0  0  0  0  0
   37.7540   25.9720   35.3100 C   0  0  0  0  0  0  0  0  0  0  0  0
   37.4290   25.6090   34.0680 N   0  0  0  0  0  0  0  0  0  0  0  0
   36.8210   26.1110   32.1910 H   0  0  0  0  0  0  0  0  0  0  0  0
   37.3290   29.2310   35.0830 H   0  0  0  0  0  0  0  0  0  0  0  0
   38.1530   24.9740   36.2810 C   0  0  0  0  0  0  0  0  0  0  0  0
   37.7290   25.0450   37.5730 C   0  0  0  0  0  0  0  0  0  0  0  0
   38.0880   24.1150   38.5230 C   0  0  0  0  0  0  0  0  0  0  0  0
   38.8990   23.1080   38.0940 C   0  0  0  0  0  0  0  0  0  0  0  0
   39.3700   22.9810   36.7680 C   0  0  0  0  0  0  0  0  0  0  0  0
   38.9600   23.9530   35.8960 N   0  0  0  0  0  0  0  0  0  0  0  0
   37.0880   25.8780   37.8310 H   0  0  0  0  0  0  0  0  0  0  0  0
   37.7430   24.1960   39.5260 H   0  0  0  0  0  0  0  0  0  0  0  0
   39.2130   22.3480   38.7960 H   0  0  0  0  0  0  0  0  0  0  0  0
   40.0130   22.1690   36.4560 H   0  0  0  0  0  0  0  0  0  0  0  0
  1  6  1  0  0  0  0
  1 28  1  0  0  0  0
  2  1  1  0  0  0  0
  3  4  1  0  0  0  0
  3  2  1  0  0  0  0
  4 12  1  0  0  0  0
  4  5  1  0  0  0  0
  5 13  1  0  0  0  0
  5  6  1  0  0  0  0
  6 18  1  0  0  0  0
  6 15  1  1  0  0  0
  7  2  1  0  0  0  0
  8  2  1  0  0  0  0
  9  3  1  0  0  0  0
 10  3  1  0  0  0  0
 11  4  1  0  0  0  0
 14  5  1  0  0  0  0
 17 25  1  0  0  0  0
 17 16  1  0  0  0  0
 18 17  2  0  0  0  0
 19 21  2  0  0  0  0
 19 18  1  0  0  0  0
 20 19  1  0  0  0  0
 21 23  1  0  0  0  0
 22 21  1  0  0  0  0
 23 24  1  0  0  0  0
 23 25  2  0  0  0  0
 25 26  1  0  0  0  0
 27 28  2  0  0  0  0
 27 32  1  0  0  0  0
 28 29  1  0  0  0  0
 29 34  1  0  0  0  0
 29 30  2  0  0  0  0
 31 30  1  0  0  0  0
 31 35  1  0  0  0  0
 32 31  2  0  0  0  0
 33 27  1  0  0  0  0
 35 36  1  0  0  0  0
 36 41  1  0  0  0  0
 36 37  2  0  0  0  0
 37 42  1  0  0  0  0
 38 37  1  0  0  0  0
 38 43  1  0  0  0  0
 39 38  2  0  0  0  0
 40 35  2  0  0  0  0
 40 39  1  0  0  0  0
 44 39  1  0  0  0  0
M  END
>  <minimizedAffinity>
-6.15135574

$$$$

 OpenBabel03272504513D

 44 47  0  0  1  0  0  0  0  0999 V2000
   37.3940   26.4540   30.8330 N   0  0  0  0  0  0  0  0  0  0  0  0
   36.2730   27.3050   30.4800 C   0  0  0  0  0  0  0  0  0  0  0  0
   36.6460   28.7340   30.2630 C   0  0  0  0  0  0  0  0  0  0  0  0
   37.9950   28.8070   29.5530 C   0  0  0  0  0  0  0  0  0  0  0  0
   38.9900   28.3010   30.5530 C   0  0  0  0  0  0  0  0  0  0  0  0
   38.7430   26.8800   30.9800 C   0  0  1  0  0  0  0  0  0  0  0  0
   35.9460   26.9210   29.4680 H   0  0  0  0  0  0  0  0  0  0  0  0
   35.3920   27.2050   31.1100 H   0  0  0  0  0  0  0  0  0  0  0  0
   35.8630   29.1930   29.6280 H   0  0  0  0  0  0  0  0  0  0  0  0
   36.7620   29.2480   31.2320 H   0  0  0  0  0  0  0  0  0  0  0  0
   38.2290   29.8370   29.2820 H   0  0  0  0  0  0  0  0  0  0  0  0
   37.9640   28.1470   28.6620 H   0  0  0  0  0  0  0  0  0  0  0  0
   40.0000   28.3770   30.1030 H   0  0  0  0  0  0  0  0  0  0  0  0
   38.9640   28.9710   31.4490 H   0  0  0  0  0  0  0  0  0  0  0  0
   39.3500   26.2300   30.2790 H   0  0  0  0  0  0  0  0  0  0  0  0
   37.2090   27.6970   33.5550 Cl  0  0  0  0  0  0  0  0  0  0  0  0
   38.8060   27.0350   33.5300 C   0  0  0  0  0  0  0  0  0  0  0  0
   39.3440   26.7200   32.3100 C   0  0  0  0  0  0  0  0  0  0  0  0
   40.6420   26.1950   32.4300 C   0  0  0  0  0  0  0  0  0  0  0  0
   41.1700   25.9070   31.5060 H   0  0  0  0  0  0  0  0  0  0  0  0
   41.3170   26.0050   33.6160 C   0  0  0  0  0  0  0  0  0  0  0  0
   42.3190   25.5910   33.5900 H   0  0  0  0  0  0  0  0  0  0  0  0
   40.6990   26.3490   34.7890 C   0  0  0  0  0  0  0  0  0  0  0  0
   41.2670   26.1810   35.6790 H   0  0  0  0  0  0  0  0  0  0  0  0
   39.4240   26.8700   34.7360 C   0  0  0  0  0  0  0  0  0  0  0  0
   38.6450   27.3050   36.2370 Cl  0  0  0  0  0  0  0  0  0  0  0  0
   37.9470   24.0850   30.5760 C   0  0  0  0  0  0  0  0  0  0  0  0
   37.0950   25.0840   31.0300 C   0  0  0  0  0  0  0  0  0  0  0  0
   35.9550   24.6560   31.6810 C   0  0  0  0  0  0  0  0  0  0  0  0
   35.7240   23.3270   31.8450 N   0  0  0  0  0  0  0  0  0  0  0  0
   36.5770   22.3930   31.3880 C   0  0  0  0  0  0  0  0  0  0  0  0
   37.6840   22.7880   30.7560 N   0  0  0  0  0  0  0  0  0  0  0  0
   38.8690   24.2870   30.0540 H   0  0  0  0  0  0  0  0  0  0  0  0
   35.2360   25.3240   32.0750 H   0  0  0  0  0  0  0  0  0  0  0  0
   36.3090   20.9830   31.5780 C   0  0  0  0  0  0  0  0  0  0  0  0
   35.7200   20.5300   32.7190 C   0  0  0  0  0  0  0  0  0  0  0  0
   35.4490   19.1970   32.9340 C   0  0  0  0  0  0  0  0  0  0  0  0
   35.8050   18.3470   31.9310 C   0  0  0  0  0  0  0  0  0  0  0  0
   36.4160   18.7580   30.7250 C   0  0  0  0  0  0  0  0  0  0  0  0
   36.6460   20.1010   30.6020 N   0  0  0  0  0  0  0  0  0  0  0  0
   35.4700   21.2710   33.4670 H   0  0  0  0  0  0  0  0  0  0  0  0
   34.9890   18.8710   33.8370 H   0  0  0  0  0  0  0  0  0  0  0  0
   35.6150   17.2890   32.0430 H   0  0  0  0  0  0  0  0  0  0  0  0
   36.6870   18.0600   29.9450 H   0  0  0  0  0  0  0  0  0  0  0  0
  1  6  1  0  0  0  0
  1 28  1  0  0  0  0
  2  1  1  0  0  0  0
  2  8  1  0  0  0  0
  3  2  1  0  0  0  0
  3 10  1  0  0  0  0
  4  3  1  0  0  0  0
  4  5  1  0  0  0  0
  5  6  1  0  0  0  0
  5 14  1  0  0  0  0
  6 15  1  6  0  0  0
  6 18  1  0  0  0  0
  7  2  1  0  0  0  0
  9  3  1  0  0  0  0
 11  4  1  0  0  0  0
 12  4  1  0  0  0  0
 13  5  1  0  0  0  0
 17 16  1  0  0  0  0
 17 25  1  0  0  0  0
 18 19  1  0  0  0  0
 18 17  2  0  0  0  0
 19 21  2  0  0  0  0
 20 19  1  0  0  0  0
 21 23  1  0  0  0  0
 22 21  1  0  0  0  0
 23 24  1  0  0  0  0
 25 23  2  0  0  0  0
 25 26  1  0  0  0  0
 27 32  2  0  0  0  0
 27 28  1  0  0  0  0
 28 29  2  0  0  0  0
 29 30  1  0  0  0  0
 29 34  1  0  0  0  0
 31 35  1  0  0  0  0
 31 30  2  0  0  0  0
 32 31  1  0  0  0  0
 33 27  1  0  0  0  0
 35 36  1  0  0  0  0
 36 37  2  0  0  0  0
 36 41  1  0  0  0  0
 37 42  1  0  0  0  0
 38 43  1  0  0  0  0
 38 37  1  0  0  0  0
 39 38  2  0  0  0  0
 40 39  1  0  0  0  0
 40 35  2  0  0  0  0
 44 39  1  0  0  0  0
M  END
>  <minimizedAffinity>
-6.10111141

$$$$

 OpenBabel03272504513D

 44 47  0  0  1  0  0  0  0  0999 V2000
   38.6180   24.0830   35.8770 N   0  0  0  0  0  0  0  0  0  0  0  0
   38.5710   24.4590   37.2780 C   0  0  0  0  0  0  0  0  0  0  0  0
   39.0070   23.3750   38.2070 C   0  0  0  0  0  0  0  0  0  0  0  0
   40.1810   22.6180   37.5920 C   0  0  0  0  0  0  0  0  0  0  0  0
   39.6060   21.8980   36.4120 C   0  0  0  0  0  0  0  0  0  0  0  0
   39.0250   22.8160   35.3720 C   0  0  1  0  0  0  0  0  0  0  0  0
   39.3550   25.2690   37.3690 H   0  0  0  0  0  0  0  0  0  0  0  0
   37.6480   24.9300   37.6060 H   0  0  0  0  0  0  0  0  0  0  0  0
   39.3250   23.8530   39.1550 H   0  0  0  0  0  0  0  0  0  0  0  0
   38.1920   22.6460   38.3520 H   0  0  0  0  0  0  0  0  0  0  0  0
   40.5880   21.9000   38.3060 H   0  0  0  0  0  0  0  0  0  0  0  0
   40.9480   23.3520   37.2700 H   0  0  0  0  0  0  0  0  0  0  0  0
   40.4110   21.2900   35.9530 H   0  0  0  0  0  0  0  0  0  0  0  0
   38.8130   21.1960   36.7760 H   0  0  0  0  0  0  0  0  0  0  0  0
   39.8590   23.0310   34.6380 H   0  0  0  0  0  0  0  0  0  0  0  0
   39.4060   22.1200   32.3680 Cl  0  0  0  0  0  0  0  0  0  0  0  0
   38.0330   21.6660   33.3160 C   0  0  0  0  0  0  0  0  0  0  0  0
   38.0170   22.0460   34.6330 C   0  0  0  0  0  0  0  0  0  0  0  0
   36.8500   21.6170   35.2870 C   0  0  0  0  0  0  0  0  0  0  0  0
   36.7340   21.8710   36.3540 H   0  0  0  0  0  0  0  0  0  0  0  0
   35.8280   20.8990   34.7040 C   0  0  0  0  0  0  0  0  0  0  0  0
   34.9720   20.6200   35.3070 H   0  0  0  0  0  0  0  0  0  0  0  0
   35.9310   20.5620   33.3810 C   0  0  0  0  0  0  0  0  0  0  0  0
   35.1120   20.0060   32.9780 H   0  0  0  0  0  0  0  0  0  0  0  0
   37.0540   20.9550   32.6840 C   0  0  0  0  0  0  0  0  0  0  0  0
   37.1750   20.5210   30.9970 Cl  0  0  0  0  0  0  0  0  0  0  0  0
   37.2160   25.9840   35.2430 C   0  0  0  0  0  0  0  0  0  0  0  0
   38.2320   25.0830   34.9520 C   0  0  0  0  0  0  0  0  0  0  0  0
   38.8350   25.2290   33.7180 C   0  0  0  0  0  0  0  0  0  0  0  0
   38.4260   26.2130   32.8740 N   0  0  0  0  0  0  0  0  0  0  0  0
   37.4360   27.0640   33.1970 C   0  0  0  0  0  0  0  0  0  0  0  0
   36.8410   26.9370   34.3850 N   0  0  0  0  0  0  0  0  0  0  0  0
   36.6670   25.9770   36.1720 H   0  0  0  0  0  0  0  0  0  0  0  0
   39.6230   24.6070   33.3890 H   0  0  0  0  0  0  0  0  0  0  0  0
   37.0200   28.1040   32.2800 C   0  0  0  0  0  0  0  0  0  0  0  0
   37.6400   28.2680   31.0790 C   0  0  0  0  0  0  0  0  0  0  0  0
   37.2720   29.2450   30.1810 C   0  0  0  0  0  0  0  0  0  0  0  0
   36.2400   30.0470   30.5640 C   0  0  0  0  0  0  0  0  0  0  0  0
   35.5570   29.9250   31.7950 C   0  0  0  0  0  0  0  0  0  0  0  0
   35.9940   28.9250   32.6210 N   0  0  0  0  0  0  0  0  0  0  0  0
   38.4520   27.5890   30.8530 H   0  0  0  0  0  0  0  0  0  0  0  0
   37.7760   29.3500   29.2500 H   0  0  0  0  0  0  0  0  0  0  0  0
   35.9070   30.8310   29.9000 H   0  0  0  0  0  0  0  0  0  0  0  0
   34.7400   30.5770   32.0720 H   0  0  0  0  0  0  0  0  0  0  0  0
  1  2  1  0  0  0  0
  2  7  1  0  0  0  0
  2  8  1  0  0  0  0
  2  3  1  0  0  0  0
  3 10  1  0  0  0  0
  3  9  1  0  0  0  0
  4  3  1  0  0  0  0
  4 11  1  0  0  0  0
  5 14  1  0  0  0  0
  5  4  1  0  0  0  0
  6 15  1  6  0  0  0
  6  1  1  0  0  0  0
  6  5  1  0  0  0  0
 12  4  1  0  0  0  0
 13  5  1  0  0  0  0
 16 17  1  0  0  0  0
 17 18  1  0  0  0  0
 18 19  2  0  0  0  0
 18  6  1  0  0  0  0
 19 20  1  0  0  0  0
 21 19  1  0  0  0  0
 21 22  1  0  0  0  0
 23 21  2  0  0  0  0
 24 23  1  0  0  0  0
 25 17  2  0  0  0  0
 25 23  1  0  0  0  0
 26 25  1  0  0  0  0
 27 33  1  0  0  0  0
 28 27  1  0  0  0  0
 28  1  1  0  0  0  0
 29 28  2  0  0  0  0
 30 31  2  0  0  0  0
 30 29  1  0  0  0  0
 31 32  1  0  0  0  0
 32 27  2  0  0  0  0
 34 29  1  0  0  0  0
 35 40  1  0  0  0  0
 35 31  1  0  0  0  0
 36 35  2  0  0  0  0
 37 38  2  0  0  0  0
 37 36  1  0  0  0  0
 38 39  1  0  0  0  0
 39 44  1  0  0  0  0
 39 40  2  0  0  0  0
 41 36  1  0  0  0  0
 42 37  1  0  0  0  0
 43 38  1  0  0  0  0
M  END
>  <minimizedAffinity>
-5.93440819

$$$$

 OpenBabel03272504513D

 44 47  0  0  1  0  0  0  0  0999 V2000
   38.6300   23.0510   35.3430 N   0  0  0  0  0  0  0  0  0  0  0  0
   39.2050   22.2920   36.4380 C   0  0  0  0  0  0  0  0  0  0  0  0
   39.2950   23.0560   37.7180 C   0  0  0  0  0  0  0  0  0  0  0  0
   38.0550   23.9310   37.8780 C   0  0  0  0  0  0  0  0  0  0  0  0
   38.1700   24.9700   36.8060 C   0  0  0  0  0  0  0  0  0  0  0  0
   38.1820   24.3990   35.4140 C   0  0  1  0  0  0  0  0  0  0  0  0
   38.4480   21.4720   36.6290 H   0  0  0  0  0  0  0  0  0  0  0  0
   40.1290   21.7670   36.2110 H   0  0  0  0  0  0  0  0  0  0  0  0
   39.3440   22.3200   38.5450 H   0  0  0  0  0  0  0  0  0  0  0  0
   40.1680   23.7310   37.6970 H   0  0  0  0  0  0  0  0  0  0  0  0
   38.0480   24.4070   38.8600 H   0  0  0  0  0  0  0  0  0  0  0  0
   37.1540   23.3030   37.7230 H   0  0  0  0  0  0  0  0  0  0  0  0
   37.3130   25.6670   36.9070 H   0  0  0  0  0  0  0  0  0  0  0  0
   39.1080   25.5560   36.9780 H   0  0  0  0  0  0  0  0  0  0  0  0
   37.1050   24.3850   35.0690 H   0  0  0  0  0  0  0  0  0  0  0  0
   36.8990   25.4330   32.7800 Cl  0  0  0  0  0  0  0  0  0  0  0  0
   38.4510   25.9140   33.3730 C   0  0  0  0  0  0  0  0  0  0  0  0
   38.8740   25.3700   34.5570 C   0  0  0  0  0  0  0  0  0  0  0  0
   40.1460   25.8410   34.9240 C   0  0  0  0  0  0  0  0  0  0  0  0
   40.5840   25.4660   35.8630 H   0  0  0  0  0  0  0  0  0  0  0  0
   40.9000   26.7420   34.2030 C   0  0  0  0  0  0  0  0  0  0  0  0
   41.8720   27.0360   34.5830 H   0  0  0  0  0  0  0  0  0  0  0  0
   40.3950   27.2340   33.0290 C   0  0  0  0  0  0  0  0  0  0  0  0
   41.0190   27.9290   32.5100 H   0  0  0  0  0  0  0  0  0  0  0  0
   39.1500   26.8090   32.6160 C   0  0  0  0  0  0  0  0  0  0  0  0
   38.5140   27.4430   31.1180 Cl  0  0  0  0  0  0  0  0  0  0  0  0
   37.2680   21.9310   33.6480 C   0  0  0  0  0  0  0  0  0  0  0  0
   38.5040   22.3640   34.1110 C   0  0  0  0  0  0  0  0  0  0  0  0
   39.5860   22.0860   33.2990 C   0  0  0  0  0  0  0  0  0  0  0  0
   39.4020   21.4280   32.1240 N   0  0  0  0  0  0  0  0  0  0  0  0
   38.1860   21.0260   31.7150 C   0  0  0  0  0  0  0  0  0  0  0  0
   37.1290   21.2850   32.4870 N   0  0  0  0  0  0  0  0  0  0  0  0
   36.3470   22.0860   34.1870 H   0  0  0  0  0  0  0  0  0  0  0  0
   40.5740   22.3710   33.5440 H   0  0  0  0  0  0  0  0  0  0  0  0
   38.0170   20.3270   30.4570 C   0  0  0  0  0  0  0  0  0  0  0  0
   36.8820   19.6220   30.1950 C   0  0  0  0  0  0  0  0  0  0  0  0
   36.6860   18.9460   29.0110 C   0  0  0  0  0  0  0  0  0  0  0  0
   37.7020   19.0230   28.1060 C   0  0  0  0  0  0  0  0  0  0  0  0
   38.9010   19.7390   28.3210 C   0  0  0  0  0  0  0  0  0  0  0  0
   39.0040   20.3790   29.5270 N   0  0  0  0  0  0  0  0  0  0  0  0
   36.1250   19.6110   30.9680 H   0  0  0  0  0  0  0  0  0  0  0  0
   35.7890   18.4020   28.8340 H   0  0  0  0  0  0  0  0  0  0  0  0
   37.6040   18.5130   27.1590 H   0  0  0  0  0  0  0  0  0  0  0  0
   39.6900   19.7840   27.5830 H   0  0  0  0  0  0  0  0  0  0  0  0
  1  6  1  0  0  0  0
  1  2  1  0  0  0  0
  2  7  1  0  0  0  0
  2  3  1  0  0  0  0
  3  4  1  0  0  0  0
  3  9  1  0  0  0  0
  4 11  1  0  0  0  0
  5 13  1  0  0  0  0
  5 14  1  0  0  0  0
  5  4  1  0  0  0  0
  6 15  1  6  0  0  0
  6  5  1  0  0  0  0
  8  2  1  0  0  0  0
 10  3  1  0  0  0  0
 12  4  1  0  0  0  0
 16 17  1  0  0  0  0
 17 18  1  0  0  0  0
 18 19  2  0  0  0  0
 18  6  1  0  0  0  0
 19 20  1  0  0  0  0
 21 22  1  0  0  0  0
 21 19  1  0  0  0  0
 23 21  2  0  0  0  0
 24 23  1  0  0  0  0
 25 23  1  0  0  0  0
 25 17  2  0  0  0  0
 26 25  1  0  0  0  0
 27 28  1  0  0  0  0
 27 33  1  0  0  0  0
 28  1  1  0  0  0  0
 29 34  1  0  0  0  0
 29 28  2  0  0  0  0
 30 29  1  0  0  0  0
 31 30  2  0  0  0  0
 31 32  1  0  0  0  0
 32 27  2  0  0  0  0
 35 31  1  0  0  0  0
 36 35  1  0  0  0  0
 36 41  1  0  0  0  0
 37 36  2  0  0  0  0
 38 39  2  0  0  0  0
 38 37  1  0  0  0  0
 39 40  1  0  0  0  0
 40 35  2  0  0  0  0
 42 37  1  0  0  0  0
 43 38  1  0  0  0  0
 44 39  1  0  0  0  0
M  END
>  <minimizedAffinity>
-5.73444271

$$$$

 OpenBabel03272504513D

 44 47  0  0  1  0  0  0  0  0999 V2000
   36.2880   30.4980   31.7950 N   0  0  0  0  0  0  0  0  0  0  0  0
   36.5970   31.1020   30.5120 C   0  0  0  0  0  0  0  0  0  0  0  0
   36.5320   32.5940   30.5170 C   0  0  0  0  0  0  0  0  0  0  0  0
   37.0850   33.1240   31.8370 C   0  0  0  0  0  0  0  0  0  0  0  0
   36.0950   32.6960   32.8760 C   0  0  0  0  0  0  0  0  0  0  0  0
   35.9420   31.2040   32.9810 C   0  0  1  0  0  0  0  0  0  0  0  0
   37.6870   30.8490   30.3470 H   0  0  0  0  0  0  0  0  0  0  0  0
   36.0820   30.6740   29.6560 H   0  0  0  0  0  0  0  0  0  0  0  0
   37.1520   32.9600   29.6760 H   0  0  0  0  0  0  0  0  0  0  0  0
   35.4820   32.9280   30.4480 H   0  0  0  0  0  0  0  0  0  0  0  0
   37.1540   34.2130   31.8110 H   0  0  0  0  0  0  0  0  0  0  0  0
   38.0750   32.6580   32.0200 H   0  0  0  0  0  0  0  0  0  0  0  0
   36.4260   33.1000   33.8540 H   0  0  0  0  0  0  0  0  0  0  0  0
   35.1040   33.1590   32.6330 H   0  0  0  0  0  0  0  0  0  0  0  0
   36.6800   30.8650   33.7680 H   0  0  0  0  0  0  0  0  0  0  0  0
   35.4200   31.2740   36.0430 Cl  0  0  0  0  0  0  0  0  0  0  0  0
   34.2170   30.9350   34.8480 C   0  0  0  0  0  0  0  0  0  0  0  0
   34.6060   30.9470   33.5340 C   0  0  0  0  0  0  0  0  0  0  0  0
   33.5380   30.6550   32.6700 C   0  0  0  0  0  0  0  0  0  0  0  0
   33.7410   30.6380   31.5860 H   0  0  0  0  0  0  0  0  0  0  0  0
   32.2450   30.3870   33.0640 C   0  0  0  0  0  0  0  0  0  0  0  0
   31.4980   30.1740   32.3070 H   0  0  0  0  0  0  0  0  0  0  0  0
   31.9470   30.3980   34.4000 C   0  0  0  0  0  0  0  0  0  0  0  0
   30.9300   30.1840   34.6510 H   0  0  0  0  0  0  0  0  0  0  0  0
   32.9540   30.6780   35.2990 C   0  0  0  0  0  0  0  0  0  0  0  0
   32.5650   30.6890   37.0020 Cl  0  0  0  0  0  0  0  0  0  0  0  0
   36.5770   28.4160   33.0460 C   0  0  0  0  0  0  0  0  0  0  0  0
   36.3560   29.0850   31.8490 C   0  0  0  0  0  0  0  0  0  0  0  0
   36.2070   28.2890   30.7290 C   0  0  0  0  0  0  0  0  0  0  0  0
   36.2770   26.9370   30.8440 N   0  0  0  0  0  0  0  0  0  0  0  0
   36.4930   26.3310   32.0240 C   0  0  0  0  0  0  0  0  0  0  0  0
   36.6400   27.0840   33.1160 N   0  0  0  0  0  0  0  0  0  0  0  0
   36.7080   28.9210   33.9900 H   0  0  0  0  0  0  0  0  0  0  0  0
   36.0300   28.6850   29.7660 H   0  0  0  0  0  0  0  0  0  0  0  0
   36.5620   24.8870   32.1180 C   0  0  0  0  0  0  0  0  0  0  0  0
   35.6850   24.0990   31.4380 C   0  0  0  0  0  0  0  0  0  0  0  0
   35.7200   22.7240   31.5020 C   0  0  0  0  0  0  0  0  0  0  0  0
   36.6920   22.1890   32.2930 C   0  0  0  0  0  0  0  0  0  0  0  0
   37.6300   22.9550   33.0220 C   0  0  0  0  0  0  0  0  0  0  0  0
   37.5160   24.3130   32.8940 N   0  0  0  0  0  0  0  0  0  0  0  0
   34.9420   24.6040   30.8330 H   0  0  0  0  0  0  0  0  0  0  0  0
   35.0200   22.1320   30.9600 H   0  0  0  0  0  0  0  0  0  0  0  0
   36.7680   21.1150   32.3820 H   0  0  0  0  0  0  0  0  0  0  0  0
   38.3920   22.5020   33.6410 H   0  0  0  0  0  0  0  0  0  0  0  0
  1 28  1  0  0  0  0
  1  6  1  0  0  0  0
  2  3  1  0  0  0  0
  2  1  1  0  0  0  0
  3  4  1  0  0  0  0
  4 12  1  0  0  0  0
  4  5  1  0  0  0  0
  5  6  1  0  0  0  0
  5 13  1  0  0  0  0
  6 18  1  0  0  0  0
  6 15  1  1  0  0  0
  7  2  1  0  0  0  0
  8  2  1  0  0  0  0
  9  3  1  0  0  0  0
 10  3  1  0  0  0  0
 11  4  1  0  0  0  0
 14  5  1  0  0  0  0
 17 25  1  0  0  0  0
 17 16  1  0  0  0  0
 18 17  2  0  0  0  0
 19 21  2  0  0  0  0
 19 18  1  0  0  0  0
 20 19  1  0  0  0  0
 21 23  1  0  0  0  0
 22 21  1  0  0  0  0
 23 24  1  0  0  0  0
 23 25  2  0  0  0  0
 25 26  1  0  0  0  0
 27 32  1  0  0  0  0
 27 33  1  0  0  0  0
 28 27  2  0  0  0  0
 29 30  2  0  0  0  0
 29 28  1  0  0  0  0
 30 31  1  0  0  0  0
 31 35  1  0  0  0  0
 31 32  2  0  0  0  0
 34 29  1  0  0  0  0
 35 40  1  0  0  0  0
 36 37  1  0  0  0  0
 36 35  2  0  0  0  0
 37 38  2  0  0  0  0
 38 43  1  0  0  0  0
 38 39  1  0  0  0  0
 39 44  1  0  0  0  0
 40 39  2  0  0  0  0
 41 36  1  0  0  0  0
 42 37  1  0  0  0  0
M  END
>  <minimizedAffinity>
-5.67557383

$$$$

 OpenBabel03272504513D

 44 47  0  0  1  0  0  0  0  0999 V2000
   37.4220   26.3710   30.8890 N   0  0  0  0  0  0  0  0  0  0  0  0
   36.2900   27.1730   30.4650 C   0  0  0  0  0  0  0  0  0  0  0  0
   36.6130   28.6180   30.2740 C   0  0  0  0  0  0  0  0  0  0  0  0
   38.0010   28.7530   29.6540 C   0  0  0  0  0  0  0  0  0  0  0  0
   38.9490   28.2870   30.7160 C   0  0  0  0  0  0  0  0  0  0  0  0
   38.7390   26.8560   31.1240 C   0  0  1  0  0  0  0  0  0  0  0  0
   36.0470   26.7790   29.4330 H   0  0  0  0  0  0  0  0  0  0  0  0
   35.3750   27.0330   31.0350 H   0  0  0  0  0  0  0  0  0  0  0  0
   35.8540   29.0440   29.5890 H   0  0  0  0  0  0  0  0  0  0  0  0
   36.6420   29.1340   31.2490 H   0  0  0  0  0  0  0  0  0  0  0  0
   38.2060   29.7930   29.3990 H   0  0  0  0  0  0  0  0  0  0  0  0
   38.0570   28.0960   28.7620 H   0  0  0  0  0  0  0  0  0  0  0  0
   39.9830   28.4100   30.3330 H   0  0  0  0  0  0  0  0  0  0  0  0
   38.8360   28.9530   31.6090 H   0  0  0  0  0  0  0  0  0  0  0  0
   39.4180   26.2360   30.4650 H   0  0  0  0  0  0  0  0  0  0  0  0
   41.5000   25.5430   31.6810 Cl  0  0  0  0  0  0  0  0  0  0  0  0
   40.4420   26.1630   32.9000 C   0  0  0  0  0  0  0  0  0  0  0  0
   39.2580   26.7180   32.4910 C   0  0  0  0  0  0  0  0  0  0  0  0
   38.4940   27.1790   33.5770 C   0  0  0  0  0  0  0  0  0  0  0  0
   37.5180   27.6450   33.3600 H   0  0  0  0  0  0  0  0  0  0  0  0
   38.8640   27.1000   34.9020 C   0  0  0  0  0  0  0  0  0  0  0  0
   38.1930   27.4890   35.6580 H   0  0  0  0  0  0  0  0  0  0  0  0
   40.0680   26.5280   35.2170 C   0  0  0  0  0  0  0  0  0  0  0  0
   40.3060   26.4920   36.2580 H   0  0  0  0  0  0  0  0  0  0  0  0
   40.8630   26.0560   34.1950 C   0  0  0  0  0  0  0  0  0  0  0  0
   42.3970   25.3290   34.6070 Cl  0  0  0  0  0  0  0  0  0  0  0  0
   36.0190   24.5360   31.6930 C   0  0  0  0  0  0  0  0  0  0  0  0
   37.1720   24.9890   31.0650 C   0  0  0  0  0  0  0  0  0  0  0  0
   38.0460   24.0120   30.6280 C   0  0  0  0  0  0  0  0  0  0  0  0
   37.7490   22.7000   30.8210 N   0  0  0  0  0  0  0  0  0  0  0  0
   36.6190   22.3070   31.4340 C   0  0  0  0  0  0  0  0  0  0  0  0
   35.7640   23.2360   31.8640 N   0  0  0  0  0  0  0  0  0  0  0  0
   35.2570   25.1960   32.0780 H   0  0  0  0  0  0  0  0  0  0  0  0
   38.9520   24.2350   30.1330 H   0  0  0  0  0  0  0  0  0  0  0  0
   36.3270   20.9010   31.6260 C   0  0  0  0  0  0  0  0  0  0  0  0
   35.7390   20.4580   32.7710 C   0  0  0  0  0  0  0  0  0  0  0  0
   35.4450   19.1300   32.9880 C   0  0  0  0  0  0  0  0  0  0  0  0
   35.7780   18.2750   31.9820 C   0  0  0  0  0  0  0  0  0  0  0  0
   36.3880   18.6740   30.7720 C   0  0  0  0  0  0  0  0  0  0  0  0
   36.6410   20.0140   30.6480 N   0  0  0  0  0  0  0  0  0  0  0  0
   35.5080   21.2040   33.5210 H   0  0  0  0  0  0  0  0  0  0  0  0
   34.9860   18.8120   33.8940 H   0  0  0  0  0  0  0  0  0  0  0  0
   35.5710   17.2200   32.0960 H   0  0  0  0  0  0  0  0  0  0  0  0
   36.6410   17.9720   29.9900 H   0  0  0  0  0  0  0  0  0  0  0  0
  1 28  1  0  0  0  0
  1  6  1  0  0  0  0
  2  1  1  0  0  0  0
  2  8  1  0  0  0  0
  3  2  1  0  0  0  0
  3 10  1  0  0  0  0
  4  3  1  0  0  0  0
  4  5  1  0  0  0  0
  5  6  1  0  0  0  0
  5 14  1  0  0  0  0
  6 15  1  6  0  0  0
  6 18  1  0  0  0  0
  7  2  1  0  0  0  0
  9  3  1  0  0  0  0
 11  4  1  0  0  0  0
 12  4  1  0  0  0  0
 13  5  1  0  0  0  0
 16 17  1  0  0  0  0
 17 25  1  0  0  0  0
 18 17  2  0  0  0  0
 18 19  1  0  0  0  0
 19 21  2  0  0  0  0
 20 19  1  0  0  0  0
 21 23  1  0  0  0  0
 21 22  1  0  0  0  0
 23 24  1  0  0  0  0
 25 26  1  0  0  0  0
 25 23  2  0  0  0  0
 27 32  1  0  0  0  0
 27 33  1  0  0  0  0
 28 27  2  0  0  0  0
 29 30  2  0  0  0  0
 29 28  1  0  0  0  0
 30 31  1  0  0  0  0
 31 35  1  0  0  0  0
 31 32  2  0  0  0  0
 34 29  1  0  0  0  0
 35 36  1  0  0  0  0
 36 37  2  0  0  0  0
 36 41  1  0  0  0  0
 37 42  1  0  0  0  0
 38 43  1  0  0  0  0
 38 37  1  0  0  0  0
 39 38  2  0  0  0  0
 40 39  1  0  0  0  0
 40 35  2  0  0  0  0
 44 39  1  0  0  0  0
M  END
>  <minimizedAffinity>
-5.65812492

$$$$

 OpenBabel03272504513D

 44 47  0  0  1  0  0  0  0  0999 V2000
   37.1650   21.9220   32.8710 N   0  0  0  0  0  0  0  0  0  0  0  0
   36.3550   21.0340   33.6840 C   0  0  0  0  0  0  0  0  0  0  0  0
   35.1480   20.5070   32.9810 C   0  0  0  0  0  0  0  0  0  0  0  0
   35.4950   20.2100   31.5250 C   0  0  0  0  0  0  0  0  0  0  0  0
   35.7440   21.5490   30.9020 C   0  0  0  0  0  0  0  0  0  0  0  0
   36.8860   22.3000   31.5280 C   0  0  1  0  0  0  0  0  0  0  0  0
   37.0220   20.1360   33.8540 H   0  0  0  0  0  0  0  0  0  0  0  0
   36.1200   21.3950   34.6820 H   0  0  0  0  0  0  0  0  0  0  0  0
   34.8430   19.5720   33.4920 H   0  0  0  0  0  0  0  0  0  0  0  0
   34.3480   21.2670   32.9750 H   0  0  0  0  0  0  0  0  0  0  0  0
   34.6600   19.7150   31.0270 H   0  0  0  0  0  0  0  0  0  0  0  0
   36.4120   19.5870   31.4980 H   0  0  0  0  0  0  0  0  0  0  0  0
   35.9540   21.3940   29.8250 H   0  0  0  0  0  0  0  0  0  0  0  0
   34.8070   22.1570   30.9830 H   0  0  0  0  0  0  0  0  0  0  0  0
   37.8090   22.0250   30.9330 H   0  0  0  0  0  0  0  0  0  0  0  0
   39.1990   24.2020   30.6980 Cl  0  0  0  0  0  0  0  0  0  0  0  0
   37.5550   24.6910   30.9170 C   0  0  0  0  0  0  0  0  0  0  0  0
   36.6500   23.7280   31.2810 C   0  0  0  0  0  0  0  0  0  0  0  0
   35.3550   24.2550   31.4270 C   0  0  0  0  0  0  0  0  0  0  0  0
   34.5470   23.5650   31.7180 H   0  0  0  0  0  0  0  0  0  0  0  0
   35.0070   25.5740   31.2330 C   0  0  0  0  0  0  0  0  0  0  0  0
   33.9740   25.8700   31.3750 H   0  0  0  0  0  0  0  0  0  0  0  0
   35.9790   26.4670   30.8700 C   0  0  0  0  0  0  0  0  0  0  0  0
   35.6550   27.4760   30.7330 H   0  0  0  0  0  0  0  0  0  0  0  0
   37.2700   26.0100   30.7120 C   0  0  0  0  0  0  0  0  0  0  0  0
   38.5040   27.1560   30.2480 Cl  0  0  0  0  0  0  0  0  0  0  0  0
   39.5870   21.9010   33.2140 C   0  0  0  0  0  0  0  0  0  0  0  0
   38.3330   22.4340   33.4860 C   0  0  0  0  0  0  0  0  0  0  0  0
   38.3040   23.4840   34.3820 C   0  0  0  0  0  0  0  0  0  0  0  0
   39.4600   23.9360   34.9370 N   0  0  0  0  0  0  0  0  0  0  0  0
   40.6530   23.3890   34.6440 C   0  0  0  0  0  0  0  0  0  0  0  0
   40.7000   22.3730   33.7800 N   0  0  0  0  0  0  0  0  0  0  0  0
   39.7440   21.0800   32.5320 H   0  0  0  0  0  0  0  0  0  0  0  0
   37.4100   23.9730   34.6630 H   0  0  0  0  0  0  0  0  0  0  0  0
   41.8700   23.8910   35.2480 C   0  0  0  0  0  0  0  0  0  0  0  0
   42.5010   23.1940   36.2340 C   0  0  0  0  0  0  0  0  0  0  0  0
   43.6590   23.6390   36.8300 C   0  0  0  0  0  0  0  0  0  0  0  0
   44.1450   24.8280   36.3750 C   0  0  0  0  0  0  0  0  0  0  0  0
   43.5360   25.5940   35.3560 C   0  0  0  0  0  0  0  0  0  0  0  0
   42.3890   25.0710   34.8240 N   0  0  0  0  0  0  0  0  0  0  0  0
   42.0470   22.2600   36.5380 H   0  0  0  0  0  0  0  0  0  0  0  0
   44.1300   23.0740   37.6000 H   0  0  0  0  0  0  0  0  0  0  0  0
   45.0520   25.2270   36.8060 H   0  0  0  0  0  0  0  0  0  0  0  0
   43.9460   26.5350   35.0140 H   0  0  0  0  0  0  0  0  0  0  0  0
  1 28  1  0  0  0  0
  1  2  1  0  0  0  0
  2  7  1  0  0  0  0
  2  8  1  0  0  0  0
  3  9  1  0  0  0  0
  3  2  1  0  0  0  0
  4  3  1  0  0  0  0
  5 14  1  0  0  0  0
  5  4  1  0  0  0  0
  5  6  1  0  0  0  0
  6 15  1  6  0  0  0
  6  1  1  0  0  0  0
 10  3  1  0  0  0  0
 11  4  1  0  0  0  0
 12  4  1  0  0  0  0
 13  5  1  0  0  0  0
 16 17  1  0  0  0  0
 17 18  1  0  0  0  0
 18 19  2  0  0  0  0
 18  6  1  0  0  0  0
 19 20  1  0  0  0  0
 21 22  1  0  0  0  0
 21 19  1  0  0  0  0
 23 21  2  0  0  0  0
 24 23  1  0  0  0  0
 25 23  1  0  0  0  0
 25 17  2  0  0  0  0
 26 25  1  0  0  0  0
 27 28  2  0  0  0  0
 27 32  1  0  0  0  0
 28 29  1  0  0  0  0
 29 34  1  0  0  0  0
 29 30  2  0  0  0  0
 31 30  1  0  0  0  0
 31 35  1  0  0  0  0
 32 31  2  0  0  0  0
 33 27  1  0  0  0  0
 35 36  1  0  0  0  0
 36 41  1  0  0  0  0
 36 37  2  0  0  0  0
 37 42  1  0  0  0  0
 38 43  1  0  0  0  0
 38 37  1  0  0  0  0
 39 38  2  0  0  0  0
 40 35  2  0  0  0  0
 40 39  1  0  0  0  0
 44 39  1  0  0  0  0
M  END
>  <minimizedAffinity>
-5.59553385

$$$$

 OpenBabel03272504513D

 44 47  0  0  1  0  0  0  0  0999 V2000
   38.6090   24.3790   35.2350 N   0  0  0  0  0  0  0  0  0  0  0  0
   38.1200   24.6800   36.5670 C   0  0  0  0  0  0  0  0  0  0  0  0
   38.3870   23.6030   37.5660 C   0  0  0  0  0  0  0  0  0  0  0  0
   39.7650   22.9980   37.3070 C   0  0  0  0  0  0  0  0  0  0  0  0
   39.6370   22.2820   35.9980 C   0  0  0  0  0  0  0  0  0  0  0  0
   39.2820   23.1860   34.8500 C   0  0  1  0  0  0  0  0  0  0  0  0
   38.7500   25.5600   36.8970 H   0  0  0  0  0  0  0  0  0  0  0  0
   37.0950   25.0390   36.6200 H   0  0  0  0  0  0  0  0  0  0  0  0
   38.3630   24.0640   38.5720 H   0  0  0  0  0  0  0  0  0  0  0  0
   37.6500   22.7890   37.4540 H   0  0  0  0  0  0  0  0  0  0  0  0
   40.0260   22.2920   38.0960 H   0  0  0  0  0  0  0  0  0  0  0  0
   40.5060   23.8210   37.2340 H   0  0  0  0  0  0  0  0  0  0  0  0
   40.6030   21.7810   35.7840 H   0  0  0  0  0  0  0  0  0  0  0  0
   38.8560   21.4860   36.1040 H   0  0  0  0  0  0  0  0  0  0  0  0
   40.2630   23.5190   34.3950 H   0  0  0  0  0  0  0  0  0  0  0  0
   36.7000   21.5870   35.5030 Cl  0  0  0  0  0  0  0  0  0  0  0  0
   37.4910   21.5910   33.9650 C   0  0  0  0  0  0  0  0  0  0  0  0
   38.6220   22.3550   33.8360 C   0  0  0  0  0  0  0  0  0  0  0  0
   39.1650   22.2680   32.5430 C   0  0  0  0  0  0  0  0  0  0  0  0
   40.0800   22.8450   32.3280 H   0  0  0  0  0  0  0  0  0  0  0  0
   38.6470   21.5180   31.5090 C   0  0  0  0  0  0  0  0  0  0  0  0
   39.1520   21.5260   30.5500 H   0  0  0  0  0  0  0  0  0  0  0  0
   37.5120   20.7850   31.7310 C   0  0  0  0  0  0  0  0  0  0  0  0
   37.1530   20.2220   30.8970 H   0  0  0  0  0  0  0  0  0  0  0  0
   36.9310   20.8290   32.9810 C   0  0  0  0  0  0  0  0  0  0  0  0
   35.4830   19.8920   33.2540 Cl  0  0  0  0  0  0  0  0  0  0  0  0
   37.1230   25.6890   33.8000 C   0  0  0  0  0  0  0  0  0  0  0  0
   38.3980   25.3790   34.2550 C   0  0  0  0  0  0  0  0  0  0  0  0
   39.4320   26.1050   33.6970 C   0  0  0  0  0  0  0  0  0  0  0  0
   39.1670   27.0570   32.7630 N   0  0  0  0  0  0  0  0  0  0  0  0
   37.9150   27.3230   32.3520 C   0  0  0  0  0  0  0  0  0  0  0  0
   36.9030   26.6310   32.8800 N   0  0  0  0  0  0  0  0  0  0  0  0
   36.2320   25.1950   34.1570 H   0  0  0  0  0  0  0  0  0  0  0  0
   40.4430   25.9620   33.9680 H   0  0  0  0  0  0  0  0  0  0  0  0
   37.6600   28.3440   31.3570 C   0  0  0  0  0  0  0  0  0  0  0  0
   36.6100   29.2020   31.4870 C   0  0  0  0  0  0  0  0  0  0  0  0
   36.3380   30.1850   30.5620 C   0  0  0  0  0  0  0  0  0  0  0  0
   37.1850   30.2530   29.4980 C   0  0  0  0  0  0  0  0  0  0  0  0
   38.2900   29.3930   29.3090 C   0  0  0  0  0  0  0  0  0  0  0  0
   38.4810   28.4480   30.2810 N   0  0  0  0  0  0  0  0  0  0  0  0
   35.9850   29.0780   32.3610 H   0  0  0  0  0  0  0  0  0  0  0  0
   35.5090   30.8400   30.6890 H   0  0  0  0  0  0  0  0  0  0  0  0
   37.0200   31.0050   28.7400 H   0  0  0  0  0  0  0  0  0  0  0  0
   38.9470   29.4710   28.4540 H   0  0  0  0  0  0  0  0  0  0  0  0
  1  2  1  0  0  0  0
  2  8  1  0  0  0  0
  2  7  1  0  0  0  0
  2  3  1  0  0  0  0
  3  9  1  0  0  0  0
  4  3  1  0  0  0  0
  4 11  1  0  0  0  0
  5 14  1  0  0  0  0
  5  4  1  0  0  0  0
  6 15  1  6  0  0  0
  6  1  1  0  0  0  0
  6  5  1  0  0  0  0
 10  3  1  0  0  0  0
 12  4  1  0  0  0  0
 13  5  1  0  0  0  0
 17 16  1  0  0  0  0
 18 17  1  0  0  0  0
 18  6  1  0  0  0  0
 19 18  2  0  0  0  0
 20 19  1  0  0  0  0
 21 23  2  0  0  0  0
 21 19  1  0  0  0  0
 22 21  1  0  0  0  0
 23 25  1  0  0  0  0
 24 23  1  0  0  0  0
 25 26  1  0  0  0  0
 25 17  2  0  0  0  0
 27 33  1  0  0  0  0
 27 28  1  0  0  0  0
 28  1  1  0  0  0  0
 29 34  1  0  0  0  0
 29 28  2  0  0  0  0
 30 29  1  0  0  0  0
 31 30  2  0  0  0  0
 31 32  1  0  0  0  0
 32 27  2  0  0  0  0
 35 36  1  0  0  0  0
 35 31  1  0  0  0  0
 36 41  1  0  0  0  0
 37 42  1  0  0  0  0
 37 36  2  0  0  0  0
 38 37  1  0  0  0  0
 39 38  2  0  0  0  0
 39 40  1  0  0  0  0
 40 35  2  0  0  0  0
 43 38  1  0  0  0  0
 44 39  1  0  0  0  0
M  END
>  <minimizedAffinity>
-5.52573109

$$$$

 OpenBabel03272504513D

 44 47  0  0  1  0  0  0  0  0999 V2000
   39.5900   23.9490   34.4390 N   0  0  0  0  0  0  0  0  0  0  0  0
   40.6550   24.1720   35.3990 C   0  0  0  0  0  0  0  0  0  0  0  0
   41.5360   22.9850   35.6080 C   0  0  0  0  0  0  0  0  0  0  0  0
   41.7580   22.2730   34.2760 C   0  0  0  0  0  0  0  0  0  0  0  0
   40.4240   21.6980   33.9140 C   0  0  0  0  0  0  0  0  0  0  0  0
   39.3500   22.7360   33.7350 C   0  0  1  0  0  0  0  0  0  0  0  0
   41.3100   24.9500   34.9040 H   0  0  0  0  0  0  0  0  0  0  0  0
   40.3520   24.6250   36.3400 H   0  0  0  0  0  0  0  0  0  0  0  0
   42.5040   23.3510   36.0030 H   0  0  0  0  0  0  0  0  0  0  0  0
   41.0470   22.2620   36.2840 H   0  0  0  0  0  0  0  0  0  0  0  0
   42.4920   21.4740   34.3880 H   0  0  0  0  0  0  0  0  0  0  0  0
   42.0810   23.0210   33.5230 H   0  0  0  0  0  0  0  0  0  0  0  0
   40.5400   21.1260   32.9720 H   0  0  0  0  0  0  0  0  0  0  0  0
   40.1190   20.9780   34.7150 H   0  0  0  0  0  0  0  0  0  0  0  0
   39.3560   23.0100   32.6370 H   0  0  0  0  0  0  0  0  0  0  0  0
   37.5200   21.8260   31.3950 Cl  0  0  0  0  0  0  0  0  0  0  0  0
   37.1480   21.6200   33.0710 C   0  0  0  0  0  0  0  0  0  0  0  0
   38.0650   22.0720   33.9840 C   0  0  0  0  0  0  0  0  0  0  0  0
   37.6410   21.8460   35.3050 C   0  0  0  0  0  0  0  0  0  0  0  0
   38.3060   22.1730   36.1220 H   0  0  0  0  0  0  0  0  0  0  0  0
   36.4570   21.2440   35.6700 C   0  0  0  0  0  0  0  0  0  0  0  0
   36.2330   21.1210   36.7230 H   0  0  0  0  0  0  0  0  0  0  0  0
   35.6010   20.8230   34.6870 C   0  0  0  0  0  0  0  0  0  0  0  0
   34.6970   20.3630   35.0240 H   0  0  0  0  0  0  0  0  0  0  0  0
   35.9600   21.0170   33.3710 C   0  0  0  0  0  0  0  0  0  0  0  0
   34.8630   20.4760   32.1240 Cl  0  0  0  0  0  0  0  0  0  0  0  0
   38.6340   25.6150   32.9250 C   0  0  0  0  0  0  0  0  0  0  0  0
   38.7380   25.0510   34.1900 C   0  0  0  0  0  0  0  0  0  0  0  0
   37.9610   25.6300   35.1750 C   0  0  0  0  0  0  0  0  0  0  0  0
   37.1580   26.6840   34.8750 N   0  0  0  0  0  0  0  0  0  0  0  0
   37.0890   27.1980   33.6340 C   0  0  0  0  0  0  0  0  0  0  0  0
   37.8330   26.6520   32.6700 N   0  0  0  0  0  0  0  0  0  0  0  0
   39.1860   25.2550   32.0700 H   0  0  0  0  0  0  0  0  0  0  0  0
   37.9530   25.2850   36.1740 H   0  0  0  0  0  0  0  0  0  0  0  0
   36.2230   28.3210   33.3400 C   0  0  0  0  0  0  0  0  0  0  0  0
   35.6030   29.0070   34.3400 C   0  0  0  0  0  0  0  0  0  0  0  0
   34.7740   30.0800   34.0990 C   0  0  0  0  0  0  0  0  0  0  0  0
   34.6070   30.4220   32.7910 C   0  0  0  0  0  0  0  0  0  0  0  0
   35.2230   29.7500   31.7120 C   0  0  0  0  0  0  0  0  0  0  0  0
   36.0300   28.6970   32.0510 N   0  0  0  0  0  0  0  0  0  0  0  0
   35.7890   28.6700   35.3510 H   0  0  0  0  0  0  0  0  0  0  0  0
   34.3010   30.5970   34.9010 H   0  0  0  0  0  0  0  0  0  0  0  0
   33.9670   31.2560   32.5420 H   0  0  0  0  0  0  0  0  0  0  0  0
   35.0730   30.0440   30.6830 H   0  0  0  0  0  0  0  0  0  0  0  0
  1  2  1  0  0  0  0
  2  3  1  0  0  0  0
  2  8  1  0  0  0  0
  3  9  1  0  0  0  0
  3 10  1  0  0  0  0
  4 11  1  0  0  0  0
  4  3  1  0  0  0  0
  5  4  1  0  0  0  0
  5 14  1  0  0  0  0
  6 15  1  6  0  0  0
  6  5  1  0  0  0  0
  6 18  1  0  0  0  0
  6  1  1  0  0  0  0
  7  2  1  0  0  0  0
 12  4  1  0  0  0  0
 13  5  1  0  0  0  0
 16 17  1  0  0  0  0
 17 25  2  0  0  0  0
 17 18  1  0  0  0  0
 18 19  2  0  0  0  0
 19 21  1  0  0  0  0
 19 20  1  0  0  0  0
 21 22  1  0  0  0  0
 23 24  1  0  0  0  0
 23 21  2  0  0  0  0
 25 23  1  0  0  0  0
 26 25  1  0  0  0  0
 27 28  1  0  0  0  0
 28  1  1  0  0  0  0
 28 29  2  0  0  0  0
 29 34  1  0  0  0  0
 30 29  1  0  0  0  0
 31 30  2  0  0  0  0
 32 27  2  0  0  0  0
 32 31  1  0  0  0  0
 33 27  1  0  0  0  0
 35 31  1  0  0  0  0
 35 36  1  0  0  0  0
 36 41  1  0  0  0  0
 37 36  2  0  0  0  0
 37 42  1  0  0  0  0
 38 37  1  0  0  0  0
 39 40  1  0  0  0  0
 39 38  2  0  0  0  0
 40 35  2  0  0  0  0
 43 38  1  0  0  0  0
 44 39  1  0  0  0  0
M  END
>  <minimizedAffinity>
-5.5241456

$$$$
