REMARK  Name = 
REMARK  4 active torsions:
REMARK  status: ('A' for Active; 'I' for Inactive)
REMARK    1  A    between atoms: C_1  and  C_6
REMARK    2  A    between atoms: N_4  and  C_16
REMARK    3  A    between atoms: C_8  and  C_12
REMARK    4  A    between atoms: C_19  and  C_29
REMARK                            x       y       z     vdW  Elec       q    Type
REMARK                         _______ _______ _______ _____ _____    ______ ____
ROOT
ATOM      1  C   UNL     1      38.930  30.896  45.781  0.00  0.00    +0.000 A 
ATOM      2  C   UNL     1      40.128  31.511  46.028  0.00  0.00    +0.000 A 
ATOM      3  C   UNL     1      40.961  31.447  44.916  0.00  0.00    +0.000 A 
ATOM      4  N   UNL     1      40.194  30.769  44.015  0.00  0.00    +0.000 N 
ATOM      5  N   UNL     1      39.020  30.447  44.505  0.00  0.00    +0.000 NA
ATOM      6  H   UNL     1      40.414  31.990  46.956  0.00  0.00    +0.000 HD
ATOM      7  H   UNL     1      41.945  31.811  44.752  0.00  0.00    +0.000 HD
ENDROOT
BRANCH   1   8
ATOM      8  C   UNL     1      37.785  30.742  46.671  0.00  0.00    +0.000 A 
ATOM      9  C   UNL     1      38.001  30.984  48.053  0.00  0.00    +0.000 A 
ATOM     10  C   UNL     1      36.914  30.837  48.910  0.00  0.00    +0.000 A 
ATOM     11  N   UNL     1      35.716  30.473  48.376  0.00  0.00    +0.000 NA
ATOM     12  C   UNL     1      35.548  30.251  47.061  0.00  0.00    +0.000 A 
ATOM     13  N   UNL     1      36.586  30.388  46.218  0.00  0.00    +0.000 NA
ATOM     14  H   UNL     1      38.977  31.275  48.442  0.00  0.00    +0.000 HD
ATOM     15  H   UNL     1      34.560  29.958  46.677  0.00  0.00    +0.000 HD
BRANCH  10  16
ATOM     16  C   UNL     1      37.125  31.088  50.370  0.00  0.00    +0.000 C 
ATOM     17  F   UNL     1      36.600  32.321  50.618  0.00  0.00    +0.000 F 
ATOM     18  F   UNL     1      36.463  30.137  51.158  0.00  0.00    +0.000 F 
ATOM     19  F   UNL     1      38.469  31.072  50.704  0.00  0.00    +0.000 F 
ENDBRANCH  10  16
ENDBRANCH   1   8
BRANCH   4  20
ATOM     20  C   UNL     1      40.546  30.410  42.646  0.00  0.00    +0.000 A 
ATOM     21  C   UNL     1      40.185  31.218  41.556  0.00  0.00    +0.000 A 
ATOM     22  C   UNL     1      40.555  30.844  40.300  0.00  0.00    +0.000 A 
ATOM     23  C   UNL     1      41.292  29.654  40.105  0.00  0.00    +0.000 A 
ATOM     24  S   UNL     1      41.444  29.064  41.843  0.00  0.00    +0.000 S 
ATOM     25  H   UNL     1      39.608  32.144  41.723  0.00  0.00    +0.000 HD
ATOM     26  H   UNL     1      40.295  31.442  39.445  0.00  0.00    +0.000 HD
BRANCH  23  29
ATOM     27 CL   UNL     1      44.321  29.739  39.689  0.00  0.00    +0.000 Cl
ATOM     28  C   UNL     1      43.177  28.852  38.708  0.00  0.00    +0.000 A 
ATOM     29  C   UNL     1      41.847  28.933  39.049  0.00  0.00    +0.000 A 
ATOM     30  C   UNL     1      41.038  28.198  38.212  0.00  0.00    +0.000 A 
ATOM     31  H   UNL     1      39.960  28.147  38.333  0.00  0.00    +0.000 HD
ATOM     32  C   UNL     1      41.495  27.458  37.148  0.00  0.00    +0.000 A 
ATOM     33  H   UNL     1      40.838  26.890  36.507  0.00  0.00    +0.000 HD
ATOM     34  C   UNL     1      42.845  27.438  36.885  0.00  0.00    +0.000 A 
ATOM     35  H   UNL     1      43.209  26.867  36.063  0.00  0.00    +0.000 HD
ATOM     36  C   UNL     1      43.731  28.142  37.667  0.00  0.00    +0.000 A 
ATOM     37 CL   UNL     1      45.439  28.130  37.353  0.00  0.00    +0.000 Cl
ENDBRANCH  23  29
ENDBRANCH   4  20
TORSDOF 4
