
 OpenBabel03262523163D

 41 44  0  0  0  0  0  0  0  0999 V2000
   37.4250   29.9290   51.0920 C   0  0  0  0  0  0  0  0  0  0  0  0
   38.2210   30.8950   50.4680 C   0  0  0  0  0  0  0  0  0  0  0  0
   37.8980   31.2540   49.1770 C   0  0  0  0  0  0  0  0  0  0  0  0
   36.8380   30.6530   48.6010 N   0  0  0  0  0  0  0  0  0  0  0  0
   36.0830   29.7370   49.1940 C   0  0  0  0  0  0  0  0  0  0  0  0
   36.3950   29.3820   50.4560 N   0  0  0  0  0  0  0  0  0  0  0  0
   39.0390   31.3190   50.9940 H   0  0  0  0  0  0  0  0  0  0  0  0
   38.6870   30.4630   46.3820 Cl  0  0  0  0  0  0  0  0  0  0  0  0
   39.0710   31.9870   47.1530 C   0  0  0  0  0  0  0  0  0  0  0  0
   38.6590   32.2440   48.4410 C   0  0  0  0  0  0  0  0  0  0  0  0
   39.0140   33.4710   48.9520 C   0  0  0  0  0  0  0  0  0  0  0  0
   38.7330   33.7460   49.9400 H   0  0  0  0  0  0  0  0  0  0  0  0
   39.7400   34.4280   48.2610 C   0  0  0  0  0  0  0  0  0  0  0  0
   39.9970   35.3810   48.7040 H   0  0  0  0  0  0  0  0  0  0  0  0
   40.1330   34.1190   46.9630 C   0  0  0  0  0  0  0  0  0  0  0  0
   40.7020   34.8390   46.3900 H   0  0  0  0  0  0  0  0  0  0  0  0
   39.8000   32.8890   46.3960 C   0  0  0  0  0  0  0  0  0  0  0  0
   40.3240   32.5720   44.7730 Cl  0  0  0  0  0  0  0  0  0  0  0  0
   34.9430   29.1270   48.4950 C   0  0  0  0  0  0  0  0  0  0  0  0
   34.4250   27.9390   48.9740 C   0  0  0  0  0  0  0  0  0  0  0  0
   33.3680   27.4570   48.2440 C   0  0  0  0  0  0  0  0  0  0  0  0
   32.8650   28.0950   47.1350 C   0  0  0  0  0  0  0  0  0  0  0  0
   33.4410   29.2690   46.7330 C   0  0  0  0  0  0  0  0  0  0  0  0
   34.4780   29.7720   47.4220 N   0  0  0  0  0  0  0  0  0  0  0  0
   34.8200   27.4330   49.8500 H   0  0  0  0  0  0  0  0  0  0  0  0
   32.9190   26.5110   48.5860 H   0  0  0  0  0  0  0  0  0  0  0  0
   32.0370   27.6120   46.6450 H   0  0  0  0  0  0  0  0  0  0  0  0
   30.4400   29.5620   46.4970 Cl  0  0  0  0  0  0  0  0  0  0  0  0
   31.6040   30.1780   45.3690 C   0  0  0  0  0  0  0  0  0  0  0  0
   32.9500   29.9880   45.5720 C   0  0  0  0  0  0  0  0  0  0  0  0
   33.7630   30.5360   44.5890 C   0  0  0  0  0  0  0  0  0  0  0  0
   33.3050   31.2160   43.4940 C   0  0  0  0  0  0  0  0  0  0  0  0
   31.9400   31.3870   43.3230 C   0  0  0  0  0  0  0  0  0  0  0  0
   31.3100   32.2440   41.9470 Cl  0  0  0  0  0  0  0  0  0  0  0  0
   31.1170   30.8620   44.2680 C   0  0  0  0  0  0  0  0  0  0  0  0
   34.8330   30.4220   44.6890 H   0  0  0  0  0  0  0  0  0  0  0  0
   33.9720   31.6270   42.7520 H   0  0  0  0  0  0  0  0  0  0  0  0
   30.0550   30.9990   44.1300 H   0  0  0  0  0  0  0  0  0  0  0  0
   37.6720   29.4780   52.4410 N   0  0  0  0  0  0  0  0  0  0  0  0
   37.5040   28.4650   52.6660 H   0  0  0  0  0  0  0  0  0  0  0  0
   38.0090   30.2280   53.1050 H   0  0  0  0  0  0  0  0  0  0  0  0
  1 39  1  0  0  0  0
  2  7  1  0  0  0  0
  2  1  1  0  0  0  0
  3  2  2  0  0  0  0
  4  3  1  0  0  0  0
  4  5  2  0  0  0  0
  5  6  1  0  0  0  0
  6  1  2  0  0  0  0
  8  9  1  0  0  0  0
  9 10  1  0  0  0  0
 10 11  2  0  0  0  0
 10  3  1  0  0  0  0
 11 12  1  0  0  0  0
 13 14  1  0  0  0  0
 13 11  1  0  0  0  0
 15 13  2  0  0  0  0
 16 15  1  0  0  0  0
 17 15  1  0  0  0  0
 17  9  2  0  0  0  0
 18 17  1  0  0  0  0
 19 20  1  0  0  0  0
 19  5  1  0  0  0  0
 20 25  1  0  0  0  0
 21 26  1  0  0  0  0
 21 20  2  0  0  0  0
 22 21  1  0  0  0  0
 23 22  2  0  0  0  0
 23 24  1  0  0  0  0
 24 19  2  0  0  0  0
 27 22  1  0  0  0  0
 29 30  1  0  0  0  0
 29 28  1  0  0  0  0
 30 23  1  0  0  0  0
 31 36  1  0  0  0  0
 31 30  2  0  0  0  0
 32 31  1  0  0  0  0
 33 32  2  0  0  0  0
 33 35  1  0  0  0  0
 34 33  1  0  0  0  0
 35 29  2  0  0  0  0
 37 32  1  0  0  0  0
 38 35  1  0  0  0  0
 39 40  1  0  0  0  0
 39 41  1  0  0  0  0
M  END
>  <minimizedAffinity>
-7.61865759

>  <minimizedRMSD>
1.15191257

$$$$
