
 OpenBabel03272502533D

 29 31  0  0  0  0  0  0  0  0999 V2000
   35.8050   30.1720   48.2360 C   0  0  0  0  0  0  0  0  0  0  0  0
   35.7160   29.1590   49.1830 C   0  0  0  0  0  0  0  0  0  0  0  0
   34.7100   28.2150   49.1190 C   0  0  0  0  0  0  0  0  0  0  0  0
   33.8150   28.3320   48.0850 C   0  0  0  0  0  0  0  0  0  0  0  0
   33.8880   29.3360   47.1340 C   0  0  0  0  0  0  0  0  0  0  0  0
   34.9030   30.2580   47.2270 N   0  0  0  0  0  0  0  0  0  0  0  0
   36.4770   29.1460   49.9730 H   0  0  0  0  0  0  0  0  0  0  0  0
   34.6780   27.4490   49.8700 H   0  0  0  0  0  0  0  0  0  0  0  0
   33.0340   27.5920   48.0450 H   0  0  0  0  0  0  0  0  0  0  0  0
   34.4590   27.5870   44.7470 Cl  0  0  0  0  0  0  0  0  0  0  0  0
   33.0940   28.7070   44.8940 C   0  0  0  0  0  0  0  0  0  0  0  0
   32.9360   29.4570   46.0380 C   0  0  0  0  0  0  0  0  0  0  0  0
   31.8440   30.2970   46.0530 C   0  0  0  0  0  0  0  0  0  0  0  0
   31.6600   30.9090   46.9110 H   0  0  0  0  0  0  0  0  0  0  0  0
   30.9390   30.4190   45.0230 C   0  0  0  0  0  0  0  0  0  0  0  0
   30.0880   31.0930   45.0720 H   0  0  0  0  0  0  0  0  0  0  0  0
   31.1290   29.6470   43.8830 C   0  0  0  0  0  0  0  0  0  0  0  0
   30.4850   29.6690   43.0310 H   0  0  0  0  0  0  0  0  0  0  0  0
   32.2120   28.7910   43.8260 C   0  0  0  0  0  0  0  0  0  0  0  0
   32.4870   27.7940   42.3940 Cl  0  0  0  0  0  0  0  0  0  0  0  0
   37.9860   32.8010   49.5490 C   0  0  0  0  0  0  0  0  0  0  0  0
   38.8970   33.0060   48.4860 C   0  0  0  0  0  0  0  0  0  0  0  0
   38.7430   32.2270   47.3230 C   0  0  0  0  0  0  0  0  0  0  0  0
   37.7220   31.3360   47.3230 N   0  0  0  0  0  0  0  0  0  0  0  0
   36.8700   31.1530   48.3310 C   0  0  0  0  0  0  0  0  0  0  0  0
   37.0220   31.8930   49.4250 N   0  0  0  0  0  0  0  0  0  0  0  0
   38.1010   33.4080   50.4610 H   0  0  0  0  0  0  0  0  0  0  0  0
   39.6960   33.7290   48.5360 H   0  0  0  0  0  0  0  0  0  0  0  0
   39.4180   32.3680   46.5170 H   0  0  0  0  0  0  0  0  0  0  0  0
  1 25  1  0  0  0  0
  1  2  1  0  0  0  0
  2  7  1  0  0  0  0
  3  2  2  0  0  0  0
  3  8  1  0  0  0  0
  4  3  1  0  0  0  0
  5  6  1  0  0  0  0
  5  4  2  0  0  0  0
  6  1  2  0  0  0  0
  9  4  1  0  0  0  0
 10 11  1  0  0  0  0
 11 12  1  0  0  0  0
 12 13  2  0  0  0  0
 12  5  1  0  0  0  0
 13 14  1  0  0  0  0
 15 16  1  0  0  0  0
 15 13  1  0  0  0  0
 17 15  2  0  0  0  0
 18 17  1  0  0  0  0
 19 17  1  0  0  0  0
 19 11  2  0  0  0  0
 20 19  1  0  0  0  0
 21 27  1  0  0  0  0
 22 28  1  0  0  0  0
 22 21  2  0  0  0  0
 23 24  2  0  0  0  0
 23 22  1  0  0  0  0
 24 25  1  0  0  0  0
 25 26  2  0  0  0  0
 26 21  1  0  0  0  0
 29 23  1  0  0  0  0
M  END
>  <minimizedAffinity>
-5.04971647

>  <minimizedRMSD>
0.52300328

$$$$
