
     RDKit          3D

 29 31  0  0  0  0  0  0  0  0999 V2000
   38.0619   33.0807   49.5037 C   0  0  0  0  0  0  0  0  0  0  0  0
   38.9707   33.1496   48.4234 C   0  0  0  0  0  0  0  0  0  0  0  0
   38.8332   32.2128   47.3800 C   0  0  0  0  0  0  0  0  0  0  0  0
   37.8256   31.3136   47.5060 N   0  0  0  0  0  0  0  0  0  0  0  0
   36.9758   31.2597   48.5297 C   0  0  0  0  0  0  0  0  0  0  0  0
   37.1130   32.1476   49.5097 N   0  0  0  0  0  0  0  0  0  0  0  0
   35.9270   30.2582   48.5744 C   0  0  0  0  0  0  0  0  0  0  0  0
   35.9285   29.3046   49.5860 C   0  0  0  0  0  0  0  0  0  0  0  0
   34.9397   28.3434   49.6538 C   0  0  0  0  0  0  0  0  0  0  0  0
   33.9698   28.3801   48.6831 C   0  0  0  0  0  0  0  0  0  0  0  0
   33.9538   29.3226   47.6693 C   0  0  0  0  0  0  0  0  0  0  0  0
   34.9531   30.2650   47.6309 N   0  0  0  0  0  0  0  0  0  0  0  0
   38.1652   33.8106   50.3217 H   0  0  0  0  0  0  0  0  0  0  0  0
   39.7579   33.8864   48.3697 H   0  0  0  0  0  0  0  0  0  0  0  0
   39.5073   32.2512   46.5618 H   0  0  0  0  0  0  0  0  0  0  0  0
   36.7436   29.3540   50.3172 H   0  0  0  0  0  0  0  0  0  0  0  0
   34.9782   27.6246   50.4521 H   0  0  0  0  0  0  0  0  0  0  0  0
   33.2036   27.6261   48.7457 H   0  0  0  0  0  0  0  0  0  0  0  0
   33.8297   31.8778   46.0754 Cl  0  0  0  0  0  0  0  0  0  0  0  0
   32.7708   30.4763   45.8479 C   0  0  0  0  0  0  0  0  0  0  0  0
   32.9226   29.3591   46.6400 C   0  0  0  0  0  0  0  0  0  0  0  0
   32.0512   28.3243   46.3842 C   0  0  0  0  0  0  0  0  0  0  0  0
   32.1125   27.4261   46.9616 H   0  0  0  0  0  0  0  0  0  0  0  0
   31.0743   28.3485   45.4151 C   0  0  0  0  0  0  0  0  0  0  0  0
   30.4036   27.5108   45.2420 H   0  0  0  0  0  0  0  0  0  0  0  0
   30.9487   29.4919   44.6334 C   0  0  0  0  0  0  0  0  0  0  0  0
   30.2240   29.6093   43.8573 H   0  0  0  0  0  0  0  0  0  0  0  0
   31.8022   30.5532   44.8565 C   0  0  0  0  0  0  0  0  0  0  0  0
   31.6745   32.0224   43.8852 Cl  0  0  0  0  0  0  0  0  0  0  0  0
  1  6  2  0
  2  1  1  0
  3  4  1  0
  3  2  2  0
  4  5  2  0
  5  7  1  0
  5  6  1  0
  7  8  2  0
  8  9  1  0
 10  9  2  0
 11 10  1  0
 12 11  2  0
 12  7  1  0
  1 13  1  0
  2 14  1  0
  3 15  1  0
  8 16  1  0
  9 17  1  0
 10 18  1  0
 19 20  1  0
 20 21  2  0
 21 22  1  0
 22 23  1  0
 22 24  2  0
 24 25  1  0
 24 26  1  0
 26 27  1  0
 26 28  2  0
 28 29  1  0
 28 20  1  0
 11 21  1  0
M  ISO  8  13  14  14  14  15  14  16  14  17  14  18  14  23  15  25  15
M  ISO  1  27  15
M  END
>  <DihAtoms>  (1) 
9,10,20,19

>  <DihDeg>  (1) 
-179.9942578001183

$$$$
