
 OpenBabel03272507163D

 28 30  0  0  1  0  0  0  0  0999 V2000
   36.4880   30.4330   50.3900 C   0  0  1  0  0  0  0  0  0  0  0  0
   35.6700   29.2610   50.1790 C   0  0  2  0  0  0  0  0  0  0  0  0
   37.0020   29.0740   50.8700 C   0  0  0  0  0  0  0  0  0  0  0  0
   36.3070   31.1880   51.1850 H   0  0  0  0  0  0  0  0  0  0  0  0
   34.7670   29.1400   50.8080 H   0  0  0  0  0  0  0  0  0  0  0  0
   37.8360   28.5880   50.3510 H   0  0  0  0  0  0  0  0  0  0  0  0
   36.9610   28.9500   51.9670 H   0  0  0  0  0  0  0  0  0  0  0  0
   37.3310   31.0120   49.2800 C   0  0  0  0  0  0  0  0  0  0  0  0
   37.7840   32.3290   49.4580 C   0  0  0  0  0  0  0  0  0  0  0  0
   38.5310   32.8360   48.4120 C   0  0  0  0  0  0  0  0  0  0  0  0
   38.7920   32.0880   47.3060 N   0  0  0  0  0  0  0  0  0  0  0  0
   38.3380   30.8230   47.1710 C   0  0  0  0  0  0  0  0  0  0  0  0
   37.5950   30.2680   48.1730 N   0  0  0  0  0  0  0  0  0  0  0  0
   37.5300   32.8510   50.3670 H   0  0  0  0  0  0  0  0  0  0  0  0
   38.8980   33.8580   48.5200 H   0  0  0  0  0  0  0  0  0  0  0  0
   38.5830   30.2840   46.2650 H   0  0  0  0  0  0  0  0  0  0  0  0
   35.5770   28.7100   48.8940 O   0  0  0  0  0  0  0  0  0  0  0  0
   34.1970   30.7670   47.3770 Cl  0  0  0  0  0  0  0  0  0  0  0  0
   33.7230   29.0910   47.5540 C   0  0  0  0  0  0  0  0  0  0  0  0
   34.4590   28.1720   48.3110 C   0  0  0  0  0  0  0  0  0  0  0  0
   34.0160   26.8720   48.3990 C   0  0  0  0  0  0  0  0  0  0  0  0
   34.6190   26.2010   48.9950 H   0  0  0  0  0  0  0  0  0  0  0  0
   32.8750   26.4120   47.7780 C   0  0  0  0  0  0  0  0  0  0  0  0
   32.5420   25.4020   47.8550 H   0  0  0  0  0  0  0  0  0  0  0  0
   32.1640   27.3540   47.0320 C   0  0  0  0  0  0  0  0  0  0  0  0
   31.2550   27.0980   46.5050 H   0  0  0  0  0  0  0  0  0  0  0  0
   32.5700   28.6590   46.9170 C   0  0  0  0  0  0  0  0  0  0  0  0
   31.6400   29.8120   45.9640 Cl  0  0  0  0  0  0  0  0  0  0  0  0
  1  3  1  0  0  0  0
  1  4  1  1  0  0  0
  2  1  1  0  0  0  0
  2  5  1  1  0  0  0
  2  3  1  0  0  0  0
  3  7  1  0  0  0  0
  6  3  1  0  0  0  0
  8  9  1  0  0  0  0
  8  1  1  0  0  0  0
  9 14  1  0  0  0  0
 10 15  1  0  0  0  0
 10  9  2  0  0  0  0
 11 10  1  0  0  0  0
 12 11  2  0  0  0  0
 12 13  1  0  0  0  0
 13  8  2  0  0  0  0
 16 12  1  0  0  0  0
 17  2  1  0  0  0  0
 18 19  1  0  0  0  0
 19 20  1  0  0  0  0
 20 21  2  0  0  0  0
 20 17  1  0  0  0  0
 21 22  1  0  0  0  0
 23 24  1  0  0  0  0
 23 21  1  0  0  0  0
 25 23  2  0  0  0  0
 26 25  1  0  0  0  0
 27 25  1  0  0  0  0
 27 19  2  0  0  0  0
 28 27  1  0  0  0  0
M  END
>  <minimizedAffinity>
-4.84242153

>  <minimizedRMSD>
1.62925422

$$$$
