
 OpenBabel03272503203D

 37 40  0  0  0  0  0  0  0  0999 V2000
   37.1370   29.5790   50.4290 C   0  0  0  0  0  0  0  0  0  0  0  0
   37.7710   30.2990   49.4010 C   0  0  0  0  0  0  0  0  0  0  0  0
   37.1700   30.2930   48.1270 C   0  0  0  0  0  0  0  0  0  0  0  0
   36.0380   29.6160   47.9440 N   0  0  0  0  0  0  0  0  0  0  0  0
   35.4570   28.9330   48.9600 C   0  0  0  0  0  0  0  0  0  0  0  0
   35.9980   28.9190   50.1760 N   0  0  0  0  0  0  0  0  0  0  0  0
   37.6650   29.6370   51.3720 H   0  0  0  0  0  0  0  0  0  0  0  0
   38.6740   30.8640   49.4610 H   0  0  0  0  0  0  0  0  0  0  0  0
   33.0220   29.7280   50.6250 Cl  0  0  0  0  0  0  0  0  0  0  0  0
   33.0610   28.4930   49.3920 C   0  0  0  0  0  0  0  0  0  0  0  0
   34.2160   28.2110   48.6960 C   0  0  0  0  0  0  0  0  0  0  0  0
   34.1870   27.2240   47.7330 C   0  0  0  0  0  0  0  0  0  0  0  0
   35.1120   27.0220   47.2000 H   0  0  0  0  0  0  0  0  0  0  0  0
   33.0570   26.4870   47.4140 C   0  0  0  0  0  0  0  0  0  0  0  0
   33.0530   25.7250   46.6630 H   0  0  0  0  0  0  0  0  0  0  0  0
   31.9290   26.8210   48.1520 C   0  0  0  0  0  0  0  0  0  0  0  0
   31.0300   26.2370   47.9010 H   0  0  0  0  0  0  0  0  0  0  0  0
   31.8940   27.8030   49.1330 C   0  0  0  0  0  0  0  0  0  0  0  0
   30.3800   28.0900   49.9640 Cl  0  0  0  0  0  0  0  0  0  0  0  0
   37.7790   31.0240   47.0110 C   0  0  0  0  0  0  0  0  0  0  0  0
   38.6620   32.0210   46.9660 C   0  0  0  0  0  0  0  0  0  0  0  0
   39.0540   32.5100   45.7820 C   0  0  0  0  0  0  0  0  0  0  0  0
   38.5140   31.9450   44.6440 C   0  0  0  0  0  0  0  0  0  0  0  0
   37.4070   30.6690   45.3310 S   0  0  0  0  0  0  0  0  0  0  0  0
   39.0370   32.4070   47.9090 H   0  0  0  0  0  0  0  0  0  0  0  0
   39.7590   33.3110   45.5930 H   0  0  0  0  0  0  0  0  0  0  0  0
   40.8020   30.4160   43.3210 Cl  0  0  0  0  0  0  0  0  0  0  0  0
   39.6890   31.5400   42.5730 C   0  0  0  0  0  0  0  0  0  0  0  0
   38.6830   32.1900   43.2290 C   0  0  0  0  0  0  0  0  0  0  0  0
   37.8130   33.0580   42.6830 C   0  0  0  0  0  0  0  0  0  0  0  0
   37.9180   33.3440   41.3210 C   0  0  0  0  0  0  0  0  0  0  0  0
   38.9060   32.7260   40.5950 C   0  0  0  0  0  0  0  0  0  0  0  0
   39.0860   33.0460   38.8780 Cl  0  0  0  0  0  0  0  0  0  0  0  0
   39.7960   31.8250   41.2060 C   0  0  0  0  0  0  0  0  0  0  0  0
   37.0150   33.5740   43.2080 H   0  0  0  0  0  0  0  0  0  0  0  0
   37.2460   34.0330   40.8290 H   0  0  0  0  0  0  0  0  0  0  0  0
   40.5790   31.3320   40.6430 H   0  0  0  0  0  0  0  0  0  0  0  0
  1  7  1  0  0  0  0
  2  8  1  0  0  0  0
  2  1  2  0  0  0  0
  3  2  1  0  0  0  0
  4  3  2  0  0  0  0
  4  5  1  0  0  0  0
  5  6  2  0  0  0  0
  6  1  1  0  0  0  0
 10  9  1  0  0  0  0
 11  5  1  0  0  0  0
 11 10  2  0  0  0  0
 12 11  1  0  0  0  0
 13 12  1  0  0  0  0
 14 12  2  0  0  0  0
 14 16  1  0  0  0  0
 15 14  1  0  0  0  0
 16 18  2  0  0  0  0
 17 16  1  0  0  0  0
 18 10  1  0  0  0  0
 18 19  1  0  0  0  0
 20  3  1  0  0  0  0
 21 20  2  0  0  0  0
 21 25  1  0  0  0  0
 22 21  1  0  0  0  0
 23 24  1  0  0  0  0
 23 22  2  0  0  0  0
 24 20  1  0  0  0  0
 26 22  1  0  0  0  0
 28 29  1  0  0  0  0
 28 27  1  0  0  0  0
 29 23  1  0  0  0  0
 30 35  1  0  0  0  0
 30 29  2  0  0  0  0
 31 30  1  0  0  0  0
 32 34  1  0  0  0  0
 32 31  2  0  0  0  0
 33 32  1  0  0  0  0
 34 28  2  0  0  0  0
 36 31  1  0  0  0  0
 37 34  1  0  0  0  0
M  END
>  <minimizedAffinity>
-6.05410385

>  <minimizedRMSD>
1.66253984

$$$$
