
 OpenBabel03272508543D

 40 43  0  0  1  0  0  0  0  0999 V2000
   38.3680   31.8730   44.4630 C   0  0  0  0  0  0  0  0  0  0  0  0
   37.2600   32.4730   44.3720 O   0  0  0  0  0  0  0  0  0  0  0  0
   38.9280   31.5720   45.7500 N   0  0  0  0  0  0  0  0  0  0  0  0
   39.8980   31.2580   45.8860 H   0  0  0  0  0  0  0  0  0  0  0  0
   39.1190   31.4630   43.2590 C   0  0  0  0  0  0  0  0  0  0  0  0
   40.2390   30.6910   43.4160 C   0  0  0  0  0  0  0  0  0  0  0  0
   40.9180   30.3240   42.2660 C   0  0  0  0  0  0  0  0  0  0  0  0
   40.4460   30.7420   41.0610 C   0  0  0  0  0  0  0  0  0  0  0  0
   39.3160   31.5210   40.8920 C   0  0  0  0  0  0  0  0  0  0  0  0
   38.7010   31.8450   42.0370 N   0  0  0  0  0  0  0  0  0  0  0  0
   40.6280   30.3500   44.3650 H   0  0  0  0  0  0  0  0  0  0  0  0
   41.8260   29.7040   42.3270 H   0  0  0  0  0  0  0  0  0  0  0  0
   41.0080   30.4310   40.1900 H   0  0  0  0  0  0  0  0  0  0  0  0
   37.4030   29.6520   39.6840 Cl  0  0  0  0  0  0  0  0  0  0  0  0
   37.9190   31.1690   38.9400 C   0  0  0  0  0  0  0  0  0  0  0  0
   38.8200   31.9620   39.6020 C   0  0  0  0  0  0  0  0  0  0  0  0
   39.1950   33.1210   39.0030 C   0  0  0  0  0  0  0  0  0  0  0  0
   39.8970   33.7830   39.4730 H   0  0  0  0  0  0  0  0  0  0  0  0
   38.6900   33.4990   37.7650 C   0  0  0  0  0  0  0  0  0  0  0  0
   38.9750   34.4290   37.2580 H   0  0  0  0  0  0  0  0  0  0  0  0
   37.7860   32.6600   37.1460 C   0  0  0  0  0  0  0  0  0  0  0  0
   37.3580   32.9020   36.1770 H   0  0  0  0  0  0  0  0  0  0  0  0
   37.3730   31.4710   37.7120 C   0  0  0  0  0  0  0  0  0  0  0  0
   36.2210   30.3800   36.9460 Cl  0  0  0  0  0  0  0  0  0  0  0  0
   38.4360   31.0750   48.1410 C   0  0  2  0  0  0  0  0  0  0  0  0
   38.7410   32.5130   48.0630 C   0  0  0  0  0  0  0  0  0  0  0  0
   38.0690   31.7240   46.9080 C   0  0  1  0  0  0  0  0  0  0  0  0
   39.3440   30.4370   48.2050 H   0  0  0  0  0  0  0  0  0  0  0  0
   38.0980   33.2460   48.5920 H   0  0  0  0  0  0  0  0  0  0  0  0
   39.7650   32.8490   47.9170 H   0  0  0  0  0  0  0  0  0  0  0  0
   37.0170   32.0260   46.7220 H   0  0  0  0  0  0  0  0  0  0  0  0
   35.0950   30.2310   49.4870 C   0  0  0  0  0  0  0  0  0  0  0  0
   35.4140   29.5540   50.6960 C   0  0  0  0  0  0  0  0  0  0  0  0
   36.8030   29.4100   51.0280 C   0  0  0  0  0  0  0  0  0  0  0  0
   37.7510   29.9150   50.1860 N   0  0  0  0  0  0  0  0  0  0  0  0
   37.3570   30.5540   49.0400 C   0  0  0  0  0  0  0  0  0  0  0  0
   36.0410   30.7300   48.6600 N   0  0  0  0  0  0  0  0  0  0  0  0
   34.0700   30.3660   49.1950 H   0  0  0  0  0  0  0  0  0  0  0  0
   34.6380   29.1740   51.3260 H   0  0  0  0  0  0  0  0  0  0  0  0
   37.0600   28.8980   51.9430 H   0  0  0  0  0  0  0  0  0  0  0  0
  1  3  1  0  0  0  0
  2  1  2  0  0  0  0
  3  4  1  0  0  0  0
  3 27  1  0  0  0  0
  5  6  1  0  0  0  0
  5  1  1  0  0  0  0
  6 11  1  0  0  0  0
  7 12  1  0  0  0  0
  7  6  2  0  0  0  0
  8  7  1  0  0  0  0
  9  8  2  0  0  0  0
  9 10  1  0  0  0  0
 10  5  2  0  0  0  0
 13  8  1  0  0  0  0
 15 16  1  0  0  0  0
 15 14  1  0  0  0  0
 16  9  1  0  0  0  0
 17 18  1  0  0  0  0
 17 16  2  0  0  0  0
 19 17  1  0  0  0  0
 20 19  1  0  0  0  0
 21 23  1  0  0  0  0
 21 19  2  0  0  0  0
 22 21  1  0  0  0  0
 23 15  2  0  0  0  0
 24 23  1  0  0  0  0
 25 28  1  6  0  0  0
 25 36  1  0  0  0  0
 26 25  1  0  0  0  0
 26 29  1  0  0  0  0
 27 31  1  6  0  0  0
 27 26  1  0  0  0  0
 27 25  1  0  0  0  0
 30 26  1  0  0  0  0
 32 33  1  0  0  0  0
 33 34  2  0  0  0  0
 33 39  1  0  0  0  0
 34 40  1  0  0  0  0
 35 34  1  0  0  0  0
 36 35  2  0  0  0  0
 37 36  1  0  0  0  0
 37 32  2  0  0  0  0
 38 32  1  0  0  0  0
M  END
>  <minimizedAffinity>
-5.04585361

>  <minimizedRMSD>
0.522449791

$$$$
