REMARK  Name = 
REMARK  2 active torsions:
REMARK  status: ('A' for Active; 'I' for Inactive)
REMARK    1  A    between atoms: C_1  and  C_17
REMARK    2  A    between atoms: C_15  and  C_36
REMARK                            x       y       z     vdW  Elec       q    Type
REMARK                         _______ _______ _______ _____ _____    ______ ____
ROOT
ATOM      1  C   UNL     1      35.996  30.310  48.636  0.00  0.00    +0.000 A 
ATOM      2  C   UNL     1      36.055  29.335  49.639  0.00  0.00    +0.000 A 
ATOM      3  C   UNL     1      35.100  28.340  49.710  0.00  0.00    +0.000 A 
ATOM      4  C   UNL     1      34.106  28.378  48.739  0.00  0.00    +0.000 A 
ATOM      5  C   UNL     1      34.040  29.333  47.750  0.00  0.00    +0.000 A 
ATOM      6  N   UNL     1      35.004  30.281  47.733  0.00  0.00    +0.000 NA
ATOM      7  N   UNL     1      32.988  29.271  46.821  0.00  0.00    +0.000 N 
ATOM      8  C   UNL     1      31.851  28.431  47.122  0.00  0.00    +0.000 C 
ATOM      9  C   UNL     1      30.961  28.449  45.885  0.00  0.00    +0.000 C 
ATOM     10  C   UNL     1      30.512  29.886  45.632  0.00  0.00    +0.000 C 
ATOM     11  C   UNL     1      31.684  30.804  45.508  0.00  0.00    +0.000 C 
ATOM     12  C   UNL     1      32.975  30.004  45.571  0.00  0.00    +0.000 C 
ATOM     13  H   UNL     1      36.849  29.340  50.380  0.00  0.00    +0.000 HD
ATOM     14  H   UNL     1      35.143  27.592  50.477  0.00  0.00    +0.000 HD
ATOM     15  H   UNL     1      33.378  27.586  48.825  0.00  0.00    +0.000 HD
ATOM     16  H   UNL     1      32.136  27.347  47.231  0.00  0.00    +0.000 HD
ATOM     17  H   UNL     1      31.333  28.842  47.997  0.00  0.00    +0.000 HD
ATOM     18  H   UNL     1      30.076  27.810  46.024  0.00  0.00    +0.000 HD
ATOM     19  H   UNL     1      31.587  28.122  45.034  0.00  0.00    +0.000 HD
ATOM     20  H   UNL     1      29.962  30.185  46.556  0.00  0.00    +0.000 HD
ATOM     21  H   UNL     1      29.788  29.921  44.809  0.00  0.00    +0.000 HD
ATOM     22  H   UNL     1      31.649  31.385  44.564  0.00  0.00    +0.000 HD
ATOM     23  H   UNL     1      31.748  31.566  46.321  0.00  0.00    +0.000 HD
ATOM     24  H   UNL     1      33.802  30.760  45.629  0.00  0.00    +0.000 HD
ATOM     25  H   UNL     1      33.160  29.397  44.683  0.00  0.00    +0.000 HD
ENDROOT
BRANCH   1  30
ATOM     26  C   UNL     1      38.123  33.160  49.480  0.00  0.00    +0.000 A 
ATOM     27  C   UNL     1      39.034  33.188  48.427  0.00  0.00    +0.000 A 
ATOM     28  C   UNL     1      38.915  32.247  47.440  0.00  0.00    +0.000 A 
ATOM     29  N   UNL     1      37.898  31.361  47.593  0.00  0.00    +0.000 NA
ATOM     30  C   UNL     1      37.023  31.328  48.600  0.00  0.00    +0.000 A 
ATOM     31  N   UNL     1      37.151  32.240  49.537  0.00  0.00    +0.000 NA
ATOM     32  H   UNL     1      38.239  33.924  50.255  0.00  0.00    +0.000 HD
ATOM     33  H   UNL     1      39.811  33.899  48.372  0.00  0.00    +0.000 HD
BRANCH  28  36
ATOM     34 CL   UNL     1      39.605  29.368  46.434  0.00  0.00    +0.000 Cl
ATOM     35  C   UNL     1      40.103  30.854  45.683  0.00  0.00    +0.000 A 
ATOM     36  C   UNL     1      39.716  32.033  46.256  0.00  0.00    +0.000 A 
ATOM     37  C   UNL     1      40.201  33.118  45.566  0.00  0.00    +0.000 A 
ATOM     38  H   UNL     1      40.002  34.156  45.866  0.00  0.00    +0.000 HD
ATOM     39  C   UNL     1      40.981  33.034  44.435  0.00  0.00    +0.000 A 
ATOM     40  H   UNL     1      41.341  33.913  43.923  0.00  0.00    +0.000 HD
ATOM     41  C   UNL     1      41.334  31.813  43.911  0.00  0.00    +0.000 A 
ATOM     42  H   UNL     1      41.945  31.772  43.024  0.00  0.00    +0.000 HD
ATOM     43  C   UNL     1      40.876  30.689  44.562  0.00  0.00    +0.000 A 
ATOM     44 CL   UNL     1      41.310  29.145  43.915  0.00  0.00    +0.000 Cl
ENDBRANCH  28  36
ENDBRANCH   1  30
TORSDOF 2
