REMARK  Name = 
REMARK  4 active torsions:
REMARK  status: ('A' for Active; 'I' for Inactive)
REMARK    1  A    between atoms: C_3  and  C_17
REMARK    2  A    between atoms: C_7  and  C_10
REMARK    3  A    between atoms: C_14  and  O_15
REMARK    4  A    between atoms: C_20  and  C_33
REMARK                            x       y       z     vdW  Elec       q    Type
REMARK                         _______ _______ _______ _____ _____    ______ ____
ROOT
ATOM      1  F   UNL     1      34.322  30.455  47.605  0.00  0.00    +0.000 F 
ATOM      2  C   UNL     1      34.747  29.986  46.388  0.00  0.00    +0.000 A 
ATOM      3  C   UNL     1      33.883  29.357  45.498  0.00  0.00    +0.000 A 
ATOM      4  C   UNL     1      34.370  28.930  44.287  0.00  0.00    +0.000 A 
ATOM      5  C   UNL     1      35.716  29.124  43.950  0.00  0.00    +0.000 A 
ATOM      6  C   UNL     1      36.519  29.754  44.879  0.00  0.00    +0.000 A 
ATOM      7  C   UNL     1      36.086  30.188  46.075  0.00  0.00    +0.000 A 
ATOM      8  H   UNL     1      33.657  28.451  43.643  0.00  0.00    +0.000 HD
ATOM      9  H   UNL     1      36.059  28.777  42.995  0.00  0.00    +0.000 HD
ATOM     10  H   UNL     1      37.543  29.864  44.540  0.00  0.00    +0.000 HD
ENDROOT
BRANCH   7  13
ATOM     11 BR   UNL     1      37.980  32.427  44.974  0.00  0.00    +0.000 Br
ATOM     12  C   UNL     1      37.883  31.845  46.779  0.00  0.00    +0.000 A 
ATOM     13  C   UNL     1      36.993  30.828  47.005  0.00  0.00    +0.000 A 
ATOM     14  C   UNL     1      36.898  30.320  48.311  0.00  0.00    +0.000 A 
ATOM     15  C   UNL     1      37.666  30.825  49.317  0.00  0.00    +0.000 A 
ATOM     16  C   UNL     1      38.533  31.842  49.020  0.00  0.00    +0.000 A 
ATOM     17  C   UNL     1      38.660  32.376  47.738  0.00  0.00    +0.000 A 
ATOM     18  H   UNL     1      36.224  29.517  48.587  0.00  0.00    +0.000 HD
ATOM     19  H   UNL     1      37.625  30.462  50.338  0.00  0.00    +0.000 HD
ATOM     20  H   UNL     1      39.172  32.284  49.791  0.00  0.00    +0.000 HD
BRANCH  17  21
ATOM     21  O   UNL     1      39.498  33.391  47.362  0.00  0.00    +0.000 OA
ATOM     22  H   UNL     1      39.497  34.252  47.922  0.00  0.00    +0.000 HD
ENDBRANCH  17  21
ENDBRANCH   7  13
BRANCH   3  24
ATOM     23  C   UNL     1      32.262  28.188  46.842  0.00  0.00    +0.000 A 
ATOM     24  C   UNL     1      32.526  29.221  45.959  0.00  0.00    +0.000 A 
ATOM     25  C   UNL     1      31.477  30.075  45.596  0.00  0.00    +0.000 A 
ATOM     26  N   UNL     1      30.236  29.881  46.109  0.00  0.00    +0.000 NA
ATOM     27  C   UNL     1      30.027  28.862  46.969  0.00  0.00    +0.000 A 
ATOM     28  N   UNL     1      30.995  28.039  47.329  0.00  0.00    +0.000 NA
ATOM     29  H   UNL     1      32.956  27.449  47.217  0.00  0.00    +0.000 HD
ATOM     30  H   UNL     1      31.715  30.875  44.900  0.00  0.00    +0.000 HD
BRANCH  27  33
ATOM     31 CL   UNL     1      29.572  29.703  49.863  0.00  0.00    +0.000 Cl
ATOM     32  C   UNL     1      28.345  29.012  48.807  0.00  0.00    +0.000 A 
ATOM     33  C   UNL     1      28.683  28.672  47.512  0.00  0.00    +0.000 A 
ATOM     34  C   UNL     1      27.666  28.133  46.739  0.00  0.00    +0.000 A 
ATOM     35  H   UNL     1      27.939  27.870  45.726  0.00  0.00    +0.000 HD
ATOM     36  C   UNL     1      26.368  27.924  47.187  0.00  0.00    +0.000 A 
ATOM     37  H   UNL     1      25.616  27.507  46.558  0.00  0.00    +0.000 HD
ATOM     38  C   UNL     1      26.151  28.301  48.495  0.00  0.00    +0.000 A 
ATOM     39  H   UNL     1      25.126  28.142  48.866  0.00  0.00    +0.000 HD
ATOM     40  C   UNL     1      27.087  28.846  49.350  0.00  0.00    +0.000 A 
ATOM     41 CL   UNL     1      26.692  29.288  50.998  0.00  0.00    +0.000 Cl
ENDBRANCH  27  33
ENDBRANCH   3  24
TORSDOF 4
