
 OpenBabel03272500523D

 47 52  0  0  1  0  0  0  0  0999 V2000
   36.2120   28.3770   32.4170 C   0  0  0  0  0  0  0  0  0  0  0  0
   36.3820   28.0340   31.0810 C   0  0  0  0  0  0  0  0  0  0  0  0
   36.7890   26.7360   31.0420 N   0  0  0  0  0  0  0  0  0  0  0  0
   36.8780   26.2660   32.3270 C   0  0  0  0  0  0  0  0  0  0  0  0
   36.5270   27.2700   33.1410 N   0  0  0  0  0  0  0  0  0  0  0  0
   36.2320   28.6400   30.1970 H   0  0  0  0  0  0  0  0  0  0  0  0
   37.0210   26.1100   30.2430 H   0  0  0  0  0  0  0  0  0  0  0  0
   34.7330   29.8260   33.9210 C   0  0  1  0  0  0  0  0  0  0  0  0
   34.4820   30.2930   32.4390 C   0  0  0  0  0  0  0  0  0  0  0  0
   35.7860   29.7280   32.9120 C   0  0  2  0  0  0  0  0  0  0  0  0
   34.1560   28.9150   34.1790 H   0  0  0  0  0  0  0  0  0  0  0  0
   34.4530   31.3830   32.2990 H   0  0  0  0  0  0  0  0  0  0  0  0
   33.8890   29.6190   31.8070 H   0  0  0  0  0  0  0  0  0  0  0  0
   36.6350   30.4390   32.9690 H   0  0  0  0  0  0  0  0  0  0  0  0
   34.0740   32.4720   36.2660 C   0  0  0  0  0  0  0  0  0  0  0  0
   35.4100   32.2550   36.5080 C   0  0  0  0  0  0  0  0  0  0  0  0
   35.8490   31.2190   35.6520 C   0  0  0  0  0  0  0  0  0  0  0  0
   34.7700   30.8570   34.9340 N   0  0  0  0  0  0  0  0  0  0  0  0
   33.7650   31.6050   35.3180 N   0  0  0  0  0  0  0  0  0  0  0  0
   36.1290   32.7180   37.2010 H   0  0  0  0  0  0  0  0  0  0  0  0
   36.8490   30.8130   35.5970 H   0  0  0  0  0  0  0  0  0  0  0  0
   33.8710   34.3610   37.9090 C   0  0  0  0  0  0  0  0  0  0  0  0
   33.2860   33.4600   36.9570 C   0  0  0  0  0  0  0  0  0  0  0  0
   31.9410   33.5770   36.7270 C   0  0  0  0  0  0  0  0  0  0  0  0
   31.2240   34.5230   37.3970 N   0  0  0  0  0  0  0  0  0  0  0  0
   31.8180   35.3560   38.2910 C   0  0  0  0  0  0  0  0  0  0  0  0
   33.1420   35.2830   38.5550 N   0  0  0  0  0  0  0  0  0  0  0  0
   34.9320   34.1990   38.0280 H   0  0  0  0  0  0  0  0  0  0  0  0
   31.4000   32.9610   36.0390 H   0  0  0  0  0  0  0  0  0  0  0  0
   31.2970   36.1150   38.8430 H   0  0  0  0  0  0  0  0  0  0  0  0
   37.2970   24.8980   32.7230 C   0  0  0  0  0  0  0  0  0  0  0  0
   36.8650   23.7770   31.9840 C   0  0  0  0  0  0  0  0  0  0  0  0
   37.6460   22.3770   32.8740 S   0  0  0  0  0  0  0  0  0  0  0  0
   38.4300   23.5710   34.1060 C   0  0  0  0  0  0  0  0  0  0  0  0
   38.0650   24.5790   33.7360 N   0  0  0  0  0  0  0  0  0  0  0  0
   36.2200   23.8000   31.1020 H   0  0  0  0  0  0  0  0  0  0  0  0
   37.4380   24.4150   36.7080 Cl  0  0  0  0  0  0  0  0  0  0  0  0
   38.8670   23.4530   36.4970 C   0  0  0  0  0  0  0  0  0  0  0  0
   39.3020   23.0750   35.2390 C   0  0  0  0  0  0  0  0  0  0  0  0
   40.4070   22.3220   34.9590 C   0  0  0  0  0  0  0  0  0  0  0  0
   40.6940   22.0590   33.9500 H   0  0  0  0  0  0  0  0  0  0  0  0
   41.1400   21.9160   36.0550 C   0  0  0  0  0  0  0  0  0  0  0  0
   42.0390   21.3120   35.9460 H   0  0  0  0  0  0  0  0  0  0  0  0
   40.8010   22.2350   37.3740 C   0  0  0  0  0  0  0  0  0  0  0  0
   41.4020   21.8980   38.2050 H   0  0  0  0  0  0  0  0  0  0  0  0
   39.6640   23.0000   37.5270 C   0  0  0  0  0  0  0  0  0  0  0  0
   39.1310   23.4690   39.1390 Cl  0  0  0  0  0  0  0  0  0  0  0  0
  1 10  1  0  0  0  0
  1  5  1  0  0  0  0
  2  1  2  0  0  0  0
  3  2  1  0  0  0  0
  3  4  1  0  0  0  0
  4 31  1  0  0  0  0
  4  5  2  0  0  0  0
  6  2  1  0  0  0  0
  7  3  1  0  0  0  0
  8 11  1  1  0  0  0
  8 18  1  0  0  0  0
  9 10  1  0  0  0  0
  9  8  1  0  0  0  0
 10 14  1  1  0  0  0
 10  8  1  0  0  0  0
 12  9  1  0  0  0  0
 13  9  1  0  0  0  0
 15 16  1  0  0  0  0
 15 23  1  0  0  0  0
 16 20  1  0  0  0  0
 17 16  2  0  0  0  0
 18 19  1  0  0  0  0
 18 17  1  0  0  0  0
 19 15  2  0  0  0  0
 21 17  1  0  0  0  0
 22 28  1  0  0  0  0
 22 27  1  0  0  0  0
 23 22  2  0  0  0  0
 24 23  1  0  0  0  0
 24 25  2  0  0  0  0
 25 26  1  0  0  0  0
 26 27  2  0  0  0  0
 26 30  1  0  0  0  0
 29 24  1  0  0  0  0
 31 35  1  0  0  0  0
 32 31  2  0  0  0  0
 32 33  1  0  0  0  0
 33 34  1  0  0  0  0
 34 39  1  0  0  0  0
 35 34  2  0  0  0  0
 36 32  1  0  0  0  0
 38 37  1  0  0  0  0
 38 46  1  0  0  0  0
 39 38  2  0  0  0  0
 40 39  1  0  0  0  0
 40 42  2  0  0  0  0
 41 40  1  0  0  0  0
 42 44  1  0  0  0  0
 43 42  1  0  0  0  0
 44 46  2  0  0  0  0
 44 45  1  0  0  0  0
 46 47  1  0  0  0  0
M  END
>  <minimizedAffinity>
-6.62654448

$$$$

 OpenBabel03272500523D

 47 52  0  0  1  0  0  0  0  0999 V2000
   37.8490   24.9290   33.9440 C   0  0  0  0  0  0  0  0  0  0  0  0
   37.9000   24.9150   32.5550 C   0  0  0  0  0  0  0  0  0  0  0  0
   37.4120   26.1080   32.1170 N   0  0  0  0  0  0  0  0  0  0  0  0
   37.0570   26.8620   33.2050 C   0  0  0  0  0  0  0  0  0  0  0  0
   37.3270   26.1340   34.2960 N   0  0  0  0  0  0  0  0  0  0  0  0
   38.2530   24.1350   31.8940 H   0  0  0  0  0  0  0  0  0  0  0  0
   37.2840   26.4890   31.1560 H   0  0  0  0  0  0  0  0  0  0  0  0
   39.3950   22.9490   34.4310 C   0  0  1  0  0  0  0  0  0  0  0  0
   37.9210   22.3960   34.4420 C   0  0  0  0  0  0  0  0  0  0  0  0
   38.2760   23.7980   34.8330 C   0  0  2  0  0  0  0  0  0  0  0  0
   39.7980   23.0510   33.4030 H   0  0  0  0  0  0  0  0  0  0  0  0
   37.6940   21.7100   35.2700 H   0  0  0  0  0  0  0  0  0  0  0  0
   37.4270   22.3010   33.4680 H   0  0  0  0  0  0  0  0  0  0  0  0
   38.1680   24.0500   35.9080 H   0  0  0  0  0  0  0  0  0  0  0  0
   42.0290   21.3170   36.2570 C   0  0  0  0  0  0  0  0  0  0  0  0
   41.3050   21.8540   37.2950 C   0  0  0  0  0  0  0  0  0  0  0  0
   40.2020   22.5500   36.7480 C   0  0  0  0  0  0  0  0  0  0  0  0
   40.3050   22.4050   35.4140 N   0  0  0  0  0  0  0  0  0  0  0  0
   41.3730   21.6860   35.1710 N   0  0  0  0  0  0  0  0  0  0  0  0
   41.4350   21.8310   38.3880 H   0  0  0  0  0  0  0  0  0  0  0  0
   39.4420   23.0830   37.3010 H   0  0  0  0  0  0  0  0  0  0  0  0
   44.5100   21.0130   36.0060 C   0  0  0  0  0  0  0  0  0  0  0  0
   43.2260   20.5370   36.4360 C   0  0  0  0  0  0  0  0  0  0  0  0
   43.1820   19.3020   37.0280 C   0  0  0  0  0  0  0  0  0  0  0  0
   44.3320   18.5890   37.1830 N   0  0  0  0  0  0  0  0  0  0  0  0
   45.5270   19.0780   36.7610 C   0  0  0  0  0  0  0  0  0  0  0  0
   45.6270   20.2900   36.1710 N   0  0  0  0  0  0  0  0  0  0  0  0
   44.4520   21.9910   35.5510 H   0  0  0  0  0  0  0  0  0  0  0  0
   42.2820   18.8480   37.3870 H   0  0  0  0  0  0  0  0  0  0  0  0
   46.4590   18.5550   36.8600 H   0  0  0  0  0  0  0  0  0  0  0  0
   36.4740   28.2270   33.1620 C   0  0  0  0  0  0  0  0  0  0  0  0
   36.4480   28.9540   31.9540 C   0  0  0  0  0  0  0  0  0  0  0  0
   35.6450   30.5280   32.4450 S   0  0  0  0  0  0  0  0  0  0  0  0
   35.4840   29.9160   34.2210 C   0  0  0  0  0  0  0  0  0  0  0  0
   35.9460   28.8820   34.1670 N   0  0  0  0  0  0  0  0  0  0  0  0
   36.8290   28.6090   30.9900 H   0  0  0  0  0  0  0  0  0  0  0  0
   32.6260   29.4280   34.4790 Cl  0  0  0  0  0  0  0  0  0  0  0  0
   33.4910   30.5750   35.4540 C   0  0  0  0  0  0  0  0  0  0  0  0
   34.8520   30.7740   35.2950 C   0  0  0  0  0  0  0  0  0  0  0  0
   35.6280   31.6460   36.0050 C   0  0  0  0  0  0  0  0  0  0  0  0
   36.6900   31.7550   35.8330 H   0  0  0  0  0  0  0  0  0  0  0  0
   34.9650   32.3850   36.9630 C   0  0  0  0  0  0  0  0  0  0  0  0
   35.4860   33.1090   37.5860 H   0  0  0  0  0  0  0  0  0  0  0  0
   33.5930   32.2720   37.2150 C   0  0  0  0  0  0  0  0  0  0  0  0
   33.1110   32.8690   37.9740 H   0  0  0  0  0  0  0  0  0  0  0  0
   32.9180   31.3580   36.4340 C   0  0  0  0  0  0  0  0  0  0  0  0
   31.1870   31.1220   36.6540 Cl  0  0  0  0  0  0  0  0  0  0  0  0
  1  5  1  0  0  0  0
  1 10  1  0  0  0  0
  2  1  2  0  0  0  0
  3  2  1  0  0  0  0
  3  4  1  0  0  0  0
  4  5  2  0  0  0  0
  6  2  1  0  0  0  0
  7  3  1  0  0  0  0
  8 11  1  6  0  0  0
  8  9  1  0  0  0  0
  8 10  1  0  0  0  0
  8 18  1  0  0  0  0
  9 10  1  0  0  0  0
  9 12  1  0  0  0  0
 10 14  1  1  0  0  0
 13  9  1  0  0  0  0
 15 23  1  0  0  0  0
 15 16  1  0  0  0  0
 16 20  1  0  0  0  0
 17 16  2  0  0  0  0
 17 21  1  0  0  0  0
 18 17  1  0  0  0  0
 19 18  1  0  0  0  0
 19 15  2  0  0  0  0
 22 27  2  0  0  0  0
 22 23  1  0  0  0  0
 23 24  2  0  0  0  0
 24 25  1  0  0  0  0
 24 29  1  0  0  0  0
 26 30  1  0  0  0  0
 26 25  2  0  0  0  0
 27 26  1  0  0  0  0
 28 22  1  0  0  0  0
 31  4  1  0  0  0  0
 31 35  1  0  0  0  0
 32 33  1  0  0  0  0
 32 31  2  0  0  0  0
 33 34  1  0  0  0  0
 34 39  1  0  0  0  0
 35 34  2  0  0  0  0
 36 32  1  0  0  0  0
 37 38  1  0  0  0  0
 38 46  1  0  0  0  0
 39 38  2  0  0  0  0
 39 40  1  0  0  0  0
 40 42  2  0  0  0  0
 41 40  1  0  0  0  0
 42 44  1  0  0  0  0
 42 43  1  0  0  0  0
 44 45  1  0  0  0  0
 46 47  1  0  0  0  0
 46 44  2  0  0  0  0
M  END
>  <minimizedAffinity>
-6.58783722

$$$$

 OpenBabel03272500523D

 47 52  0  0  1  0  0  0  0  0999 V2000
   37.8780   26.2280   35.0490 C   0  0  0  0  0  0  0  0  0  0  0  0
   37.6200   25.8690   33.7310 C   0  0  0  0  0  0  0  0  0  0  0  0
   36.8500   26.8490   33.1850 N   0  0  0  0  0  0  0  0  0  0  0  0
   36.6230   27.8090   34.1360 C   0  0  0  0  0  0  0  0  0  0  0  0
   37.2500   27.4170   35.2520 N   0  0  0  0  0  0  0  0  0  0  0  0
   37.9450   24.9910   33.1880 H   0  0  0  0  0  0  0  0  0  0  0  0
   36.4480   26.9570   32.2300 H   0  0  0  0  0  0  0  0  0  0  0  0
   38.8460   23.9810   35.7990 C   0  0  1  0  0  0  0  0  0  0  0  0
   37.9610   24.5210   36.9840 C   0  0  0  0  0  0  0  0  0  0  0  0
   38.6810   25.4160   36.0220 C   0  0  2  0  0  0  0  0  0  0  0  0
   38.2390   23.4920   35.0090 H   0  0  0  0  0  0  0  0  0  0  0  0
   38.4150   24.4210   37.9790 H   0  0  0  0  0  0  0  0  0  0  0  0
   36.8730   24.4730   36.8430 H   0  0  0  0  0  0  0  0  0  0  0  0
   39.5390   25.9860   36.4330 H   0  0  0  0  0  0  0  0  0  0  0  0
   42.2410   22.9390   36.3670 C   0  0  0  0  0  0  0  0  0  0  0  0
   41.5620   21.8750   36.9120 C   0  0  0  0  0  0  0  0  0  0  0  0
   40.1760   22.1200   36.7720 C   0  0  0  0  0  0  0  0  0  0  0  0
   40.0760   23.3120   36.1550 N   0  0  0  0  0  0  0  0  0  0  0  0
   41.2910   23.7520   35.9380 N   0  0  0  0  0  0  0  0  0  0  0  0
   41.8950   20.9440   37.3950 H   0  0  0  0  0  0  0  0  0  0  0  0
   39.3740   21.4730   37.1000 H   0  0  0  0  0  0  0  0  0  0  0  0
   44.4910   21.9800   35.7980 C   0  0  0  0  0  0  0  0  0  0  0  0
   43.6770   23.0360   36.3290 C   0  0  0  0  0  0  0  0  0  0  0  0
   44.3220   24.1480   36.8010 C   0  0  0  0  0  0  0  0  0  0  0  0
   45.6830   24.2090   36.7500 N   0  0  0  0  0  0  0  0  0  0  0  0
   46.4150   23.1850   36.2390 C   0  0  0  0  0  0  0  0  0  0  0  0
   45.8290   22.0660   35.7600 N   0  0  0  0  0  0  0  0  0  0  0  0
   43.9010   21.1450   35.4500 H   0  0  0  0  0  0  0  0  0  0  0  0
   43.8180   24.9960   37.2170 H   0  0  0  0  0  0  0  0  0  0  0  0
   47.4870   23.1850   36.1780 H   0  0  0  0  0  0  0  0  0  0  0  0
   35.8200   29.0440   33.9480 C   0  0  0  0  0  0  0  0  0  0  0  0
   35.1450   29.2780   32.7320 C   0  0  0  0  0  0  0  0  0  0  0  0
   34.3310   30.8950   33.0240 S   0  0  0  0  0  0  0  0  0  0  0  0
   35.0570   30.9710   34.7620 C   0  0  0  0  0  0  0  0  0  0  0  0
   35.6480   30.0040   34.8230 N   0  0  0  0  0  0  0  0  0  0  0  0
   35.1440   28.6180   31.8620 H   0  0  0  0  0  0  0  0  0  0  0  0
   36.7920   33.2390   34.2040 Cl  0  0  0  0  0  0  0  0  0  0  0  0
   35.5850   33.2450   35.4520 C   0  0  0  0  0  0  0  0  0  0  0  0
   34.7820   32.1410   35.6820 C   0  0  0  0  0  0  0  0  0  0  0  0
   33.8070   32.0370   36.6320 C   0  0  0  0  0  0  0  0  0  0  0  0
   33.2110   31.1440   36.7620 H   0  0  0  0  0  0  0  0  0  0  0  0
   33.6280   33.1530   37.4230 C   0  0  0  0  0  0  0  0  0  0  0  0
   32.8780   33.1790   38.2110 H   0  0  0  0  0  0  0  0  0  0  0  0
   34.3780   34.3260   37.2860 C   0  0  0  0  0  0  0  0  0  0  0  0
   34.2080   35.1790   37.9260 H   0  0  0  0  0  0  0  0  0  0  0  0
   35.3330   34.3090   36.2910 C   0  0  0  0  0  0  0  0  0  0  0  0
   36.3430   35.7250   36.0180 Cl  0  0  0  0  0  0  0  0  0  0  0  0
  1  5  1  0  0  0  0
  1 10  1  0  0  0  0
  2  1  2  0  0  0  0
  3  2  1  0  0  0  0
  3  4  1  0  0  0  0
  4  5  2  0  0  0  0
  6  2  1  0  0  0  0
  7  3  1  0  0  0  0
  8 11  1  6  0  0  0
  8 10  1  0  0  0  0
  8 18  1  0  0  0  0
  8  9  1  0  0  0  0
  9 12  1  0  0  0  0
 10 14  1  1  0  0  0
 10  9  1  0  0  0  0
 13  9  1  0  0  0  0
 15 16  1  0  0  0  0
 16 20  1  0  0  0  0
 17 16  2  0  0  0  0
 17 21  1  0  0  0  0
 18 17  1  0  0  0  0
 19 18  1  0  0  0  0
 19 15  2  0  0  0  0
 22 23  1  0  0  0  0
 23 15  1  0  0  0  0
 23 24  2  0  0  0  0
 24 29  1  0  0  0  0
 25 24  1  0  0  0  0
 26 25  2  0  0  0  0
 27 22  2  0  0  0  0
 27 26  1  0  0  0  0
 28 22  1  0  0  0  0
 30 26  1  0  0  0  0
 31  4  1  0  0  0  0
 31 35  1  0  0  0  0
 32 33  1  0  0  0  0
 32 31  2  0  0  0  0
 33 34  1  0  0  0  0
 34 35  2  0  0  0  0
 34 39  1  0  0  0  0
 36 32  1  0  0  0  0
 37 38  1  0  0  0  0
 38 39  2  0  0  0  0
 38 46  1  0  0  0  0
 39 40  1  0  0  0  0
 40 41  1  0  0  0  0
 40 42  2  0  0  0  0
 42 43  1  0  0  0  0
 44 42  1  0  0  0  0
 44 45  1  0  0  0  0
 46 44  2  0  0  0  0
 47 46  1  0  0  0  0
M  END
>  <minimizedAffinity>
-6.58325243

$$$$

 OpenBabel03272500523D

 47 52  0  0  1  0  0  0  0  0999 V2000
   38.0340   25.1600   34.2150 C   0  0  0  0  0  0  0  0  0  0  0  0
   37.4770   24.8270   32.9860 C   0  0  0  0  0  0  0  0  0  0  0  0
   36.7940   25.9160   32.5380 N   0  0  0  0  0  0  0  0  0  0  0  0
   36.9150   26.9190   33.4640 C   0  0  0  0  0  0  0  0  0  0  0  0
   37.6650   26.4450   34.4670 N   0  0  0  0  0  0  0  0  0  0  0  0
   37.5400   23.8950   32.4390 H   0  0  0  0  0  0  0  0  0  0  0  0
   36.2440   26.0750   31.6690 H   0  0  0  0  0  0  0  0  0  0  0  0
   39.8820   23.4050   34.4440 C   0  0  1  0  0  0  0  0  0  0  0  0
   38.5670   22.7690   35.0300 C   0  0  0  0  0  0  0  0  0  0  0  0
   38.8560   24.2380   35.0670 C   0  0  2  0  0  0  0  0  0  0  0  0
   39.9210   23.3470   33.3370 H   0  0  0  0  0  0  0  0  0  0  0  0
   38.7000   22.2300   35.9780 H   0  0  0  0  0  0  0  0  0  0  0  0
   37.8030   22.4680   34.3020 H   0  0  0  0  0  0  0  0  0  0  0  0
   39.0660   24.6710   36.0660 H   0  0  0  0  0  0  0  0  0  0  0  0
   43.0520   23.4320   36.1420 C   0  0  0  0  0  0  0  0  0  0  0  0
   42.7870   22.0830   36.1370 C   0  0  0  0  0  0  0  0  0  0  0  0
   41.5450   21.8820   35.4900 C   0  0  0  0  0  0  0  0  0  0  0  0
   41.1160   23.1070   35.1360 N   0  0  0  0  0  0  0  0  0  0  0  0
   42.0150   23.9750   35.5300 N   0  0  0  0  0  0  0  0  0  0  0  0
   43.3380   21.2110   36.5200 H   0  0  0  0  0  0  0  0  0  0  0  0
   41.0550   20.9330   35.3240 H   0  0  0  0  0  0  0  0  0  0  0  0
   44.1720   25.1200   37.6290 C   0  0  0  0  0  0  0  0  0  0  0  0
   44.2380   24.0110   36.7190 C   0  0  0  0  0  0  0  0  0  0  0  0
   45.4810   23.5210   36.4170 C   0  0  0  0  0  0  0  0  0  0  0  0
   46.5830   24.0920   36.9800 N   0  0  0  0  0  0  0  0  0  0  0  0
   46.4750   25.1400   37.8360 C   0  0  0  0  0  0  0  0  0  0  0  0
   45.2730   25.6620   38.1680 N   0  0  0  0  0  0  0  0  0  0  0  0
   43.1560   25.4400   37.8090 H   0  0  0  0  0  0  0  0  0  0  0  0
   45.6500   22.6990   35.7530 H   0  0  0  0  0  0  0  0  0  0  0  0
   47.3120   25.6230   38.3040 H   0  0  0  0  0  0  0  0  0  0  0  0
   36.3110   28.2720   33.3620 C   0  0  0  0  0  0  0  0  0  0  0  0
   36.2330   28.9260   32.1140 C   0  0  0  0  0  0  0  0  0  0  0  0
   35.4250   30.5160   32.5400 S   0  0  0  0  0  0  0  0  0  0  0  0
   35.3350   30.0100   34.3530 C   0  0  0  0  0  0  0  0  0  0  0  0
   35.8100   28.9800   34.3440 N   0  0  0  0  0  0  0  0  0  0  0  0
   36.5850   28.5290   31.1590 H   0  0  0  0  0  0  0  0  0  0  0  0
   32.4510   29.6820   34.5610 Cl  0  0  0  0  0  0  0  0  0  0  0  0
   33.3570   30.8000   35.5320 C   0  0  0  0  0  0  0  0  0  0  0  0
   34.7300   30.9220   35.3980 C   0  0  0  0  0  0  0  0  0  0  0  0
   35.5380   31.7650   36.1060 C   0  0  0  0  0  0  0  0  0  0  0  0
   36.6070   31.8140   35.9550 H   0  0  0  0  0  0  0  0  0  0  0  0
   34.8970   32.5590   37.0350 C   0  0  0  0  0  0  0  0  0  0  0  0
   35.4450   33.2670   37.6550 H   0  0  0  0  0  0  0  0  0  0  0  0
   33.5160   32.5250   37.2610 C   0  0  0  0  0  0  0  0  0  0  0  0
   33.0520   33.1630   37.9980 H   0  0  0  0  0  0  0  0  0  0  0  0
   32.8080   31.6330   36.4830 C   0  0  0  0  0  0  0  0  0  0  0  0
   31.0630   31.4960   36.6720 Cl  0  0  0  0  0  0  0  0  0  0  0  0
  1  5  1  0  0  0  0
  1 10  1  0  0  0  0
  2  1  2  0  0  0  0
  3  2  1  0  0  0  0
  3  4  1  0  0  0  0
  4  5  2  0  0  0  0
  6  2  1  0  0  0  0
  7  3  1  0  0  0  0
  8 11  1  6  0  0  0
  8  9  1  0  0  0  0
  8 10  1  0  0  0  0
  8 18  1  0  0  0  0
  9 10  1  0  0  0  0
  9 12  1  0  0  0  0
 10 14  1  1  0  0  0
 13  9  1  0  0  0  0
 15 23  1  0  0  0  0
 16 15  1  0  0  0  0
 16 20  1  0  0  0  0
 17 16  2  0  0  0  0
 18 17  1  0  0  0  0
 18 19  1  0  0  0  0
 19 15  2  0  0  0  0
 21 17  1  0  0  0  0
 22 28  1  0  0  0  0
 22 27  1  0  0  0  0
 23 22  2  0  0  0  0
 24 23  1  0  0  0  0
 24 25  2  0  0  0  0
 25 26  1  0  0  0  0
 26 27  2  0  0  0  0
 26 30  1  0  0  0  0
 29 24  1  0  0  0  0
 31  4  1  0  0  0  0
 31 35  1  0  0  0  0
 32 33  1  0  0  0  0
 32 31  2  0  0  0  0
 33 34  1  0  0  0  0
 34 39  1  0  0  0  0
 35 34  2  0  0  0  0
 36 32  1  0  0  0  0
 37 38  1  0  0  0  0
 38 46  1  0  0  0  0
 39 38  2  0  0  0  0
 39 40  1  0  0  0  0
 40 42  2  0  0  0  0
 41 40  1  0  0  0  0
 42 44  1  0  0  0  0
 42 43  1  0  0  0  0
 44 45  1  0  0  0  0
 46 47  1  0  0  0  0
 46 44  2  0  0  0  0
M  END
>  <minimizedAffinity>
-6.50378609

$$$$

 OpenBabel03272500523D

 47 52  0  0  1  0  0  0  0  0999 V2000
   36.2630   28.1530   32.2770 C   0  0  0  0  0  0  0  0  0  0  0  0
   36.2930   27.7700   30.9410 C   0  0  0  0  0  0  0  0  0  0  0  0
   36.7310   26.4820   30.8960 N   0  0  0  0  0  0  0  0  0  0  0  0
   36.9740   26.0570   32.1760 C   0  0  0  0  0  0  0  0  0  0  0  0
   36.6870   27.0780   32.9940 N   0  0  0  0  0  0  0  0  0  0  0  0
   36.0290   28.3430   30.0620 H   0  0  0  0  0  0  0  0  0  0  0  0
   36.8910   25.8370   30.0950 H   0  0  0  0  0  0  0  0  0  0  0  0
   34.7990   29.6190   33.7790 C   0  0  1  0  0  0  0  0  0  0  0  0
   34.5630   30.0960   32.2980 C   0  0  0  0  0  0  0  0  0  0  0  0
   35.8550   29.5080   32.7760 C   0  0  2  0  0  0  0  0  0  0  0  0
   34.2060   28.7150   34.0290 H   0  0  0  0  0  0  0  0  0  0  0  0
   34.5530   31.1870   32.1630 H   0  0  0  0  0  0  0  0  0  0  0  0
   33.9640   29.4350   31.6600 H   0  0  0  0  0  0  0  0  0  0  0  0
   36.7160   30.2050   32.8410 H   0  0  0  0  0  0  0  0  0  0  0  0
   34.1680   32.2610   36.1360 C   0  0  0  0  0  0  0  0  0  0  0  0
   35.5010   32.0270   36.3790 C   0  0  0  0  0  0  0  0  0  0  0  0
   35.9290   30.9900   35.5180 C   0  0  0  0  0  0  0  0  0  0  0  0
   34.8460   30.6440   34.7970 N   0  0  0  0  0  0  0  0  0  0  0  0
   33.8500   31.4020   35.1840 N   0  0  0  0  0  0  0  0  0  0  0  0
   36.2240   32.4780   37.0750 H   0  0  0  0  0  0  0  0  0  0  0  0
   36.9240   30.5720   35.4630 H   0  0  0  0  0  0  0  0  0  0  0  0
   33.9830   34.1370   37.7970 C   0  0  0  0  0  0  0  0  0  0  0  0
   33.3910   33.2560   36.8300 C   0  0  0  0  0  0  0  0  0  0  0  0
   32.0500   33.3980   36.5900 C   0  0  0  0  0  0  0  0  0  0  0  0
   31.3440   34.3480   37.2640 N   0  0  0  0  0  0  0  0  0  0  0  0
   31.9440   35.1620   38.1720 C   0  0  0  0  0  0  0  0  0  0  0  0
   33.2640   35.0640   38.4460 N   0  0  0  0  0  0  0  0  0  0  0  0
   35.0400   33.9550   37.9220 H   0  0  0  0  0  0  0  0  0  0  0  0
   31.5050   32.7980   35.8920 H   0  0  0  0  0  0  0  0  0  0  0  0
   31.4310   35.9240   38.7270 H   0  0  0  0  0  0  0  0  0  0  0  0
   37.4730   24.7130   32.5650 C   0  0  0  0  0  0  0  0  0  0  0  0
   38.7010   24.5770   33.2440 C   0  0  0  0  0  0  0  0  0  0  0  0
   38.8370   22.7640   33.4770 S   0  0  0  0  0  0  0  0  0  0  0  0
   37.1880   22.5060   32.6030 C   0  0  0  0  0  0  0  0  0  0  0  0
   36.8800   23.5670   32.3430 N   0  0  0  0  0  0  0  0  0  0  0  0
   39.3670   25.3930   33.5350 H   0  0  0  0  0  0  0  0  0  0  0  0
   38.1820   21.2260   30.1850 Cl  0  0  0  0  0  0  0  0  0  0  0  0
   37.0520   20.4740   31.2680 C   0  0  0  0  0  0  0  0  0  0  0  0
   36.6060   21.1230   32.4070 C   0  0  0  0  0  0  0  0  0  0  0  0
   35.7230   20.6270   33.3240 C   0  0  0  0  0  0  0  0  0  0  0  0
   35.4130   21.1850   34.1970 H   0  0  0  0  0  0  0  0  0  0  0  0
   35.2460   19.3590   33.0620 C   0  0  0  0  0  0  0  0  0  0  0  0
   34.5370   18.8690   33.7270 H   0  0  0  0  0  0  0  0  0  0  0  0
   35.6230   18.6060   31.9450 C   0  0  0  0  0  0  0  0  0  0  0  0
   35.2260   17.6160   31.7750 H   0  0  0  0  0  0  0  0  0  0  0  0
   36.5200   19.2150   31.0930 C   0  0  0  0  0  0  0  0  0  0  0  0
   37.0720   18.3710   29.6500 Cl  0  0  0  0  0  0  0  0  0  0  0  0
  1 10  1  0  0  0  0
  1  5  1  0  0  0  0
  2  1  2  0  0  0  0
  3  2  1  0  0  0  0
  3  4  1  0  0  0  0
  4 31  1  0  0  0  0
  4  5  2  0  0  0  0
  6  2  1  0  0  0  0
  7  3  1  0  0  0  0
  8 11  1  1  0  0  0
  8 18  1  0  0  0  0
  9 10  1  0  0  0  0
  9  8  1  0  0  0  0
 10 14  1  1  0  0  0
 10  8  1  0  0  0  0
 12  9  1  0  0  0  0
 13  9  1  0  0  0  0
 15 16  1  0  0  0  0
 15 23  1  0  0  0  0
 16 20  1  0  0  0  0
 17 16  2  0  0  0  0
 18 19  1  0  0  0  0
 18 17  1  0  0  0  0
 19 15  2  0  0  0  0
 21 17  1  0  0  0  0
 22 28  1  0  0  0  0
 22 27  1  0  0  0  0
 23 22  2  0  0  0  0
 24 23  1  0  0  0  0
 24 25  2  0  0  0  0
 25 26  1  0  0  0  0
 26 27  2  0  0  0  0
 26 30  1  0  0  0  0
 29 24  1  0  0  0  0
 31 32  2  0  0  0  0
 32 33  1  0  0  0  0
 32 36  1  0  0  0  0
 34 33  1  0  0  0  0
 35 31  1  0  0  0  0
 35 34  2  0  0  0  0
 37 38  1  0  0  0  0
 38 39  1  0  0  0  0
 39 34  1  0  0  0  0
 39 40  2  0  0  0  0
 40 41  1  0  0  0  0
 42 40  1  0  0  0  0
 42 43  1  0  0  0  0
 44 42  2  0  0  0  0
 45 44  1  0  0  0  0
 46 38  2  0  0  0  0
 46 44  1  0  0  0  0
 47 46  1  0  0  0  0
M  END
>  <minimizedAffinity>
-6.37354517

$$$$

 OpenBabel03272500523D

 47 52  0  0  1  0  0  0  0  0999 V2000
   36.1220   28.4140   32.5700 C   0  0  0  0  0  0  0  0  0  0  0  0
   36.1360   28.0000   31.2430 C   0  0  0  0  0  0  0  0  0  0  0  0
   36.5910   26.7170   31.2210 N   0  0  0  0  0  0  0  0  0  0  0  0
   36.8630   26.3270   32.5060 C   0  0  0  0  0  0  0  0  0  0  0  0
   36.5740   27.3630   33.3040 N   0  0  0  0  0  0  0  0  0  0  0  0
   35.8480   28.5480   30.3550 H   0  0  0  0  0  0  0  0  0  0  0  0
   36.7470   26.0560   30.4320 H   0  0  0  0  0  0  0  0  0  0  0  0
   34.6470   29.8950   34.0470 C   0  0  1  0  0  0  0  0  0  0  0  0
   34.4050   30.3420   32.5570 C   0  0  0  0  0  0  0  0  0  0  0  0
   35.7030   29.7750   33.0440 C   0  0  2  0  0  0  0  0  0  0  0  0
   34.0630   28.9910   34.3150 H   0  0  0  0  0  0  0  0  0  0  0  0
   34.3850   31.4300   32.4010 H   0  0  0  0  0  0  0  0  0  0  0  0
   33.8110   29.6630   31.9320 H   0  0  0  0  0  0  0  0  0  0  0  0
   36.5580   30.4800   33.0940 H   0  0  0  0  0  0  0  0  0  0  0  0
   33.9930   32.5670   36.3630 C   0  0  0  0  0  0  0  0  0  0  0  0
   35.3340   32.3650   36.5910 C   0  0  0  0  0  0  0  0  0  0  0  0
   35.7720   31.3220   35.7430 C   0  0  0  0  0  0  0  0  0  0  0  0
   34.6870   30.9400   35.0440 N   0  0  0  0  0  0  0  0  0  0  0  0
   33.6800   31.6840   35.4310 N   0  0  0  0  0  0  0  0  0  0  0  0
   36.0570   32.8440   37.2680 H   0  0  0  0  0  0  0  0  0  0  0  0
   36.7750   30.9240   35.6820 H   0  0  0  0  0  0  0  0  0  0  0  0
   31.7940   33.6910   36.8230 C   0  0  0  0  0  0  0  0  0  0  0  0
   33.2050   33.5580   37.0500 C   0  0  0  0  0  0  0  0  0  0  0  0
   33.7790   34.4150   37.9510 C   0  0  0  0  0  0  0  0  0  0  0  0
   33.0060   35.3410   38.5840 N   0  0  0  0  0  0  0  0  0  0  0  0
   31.6730   35.4330   38.3390 C   0  0  0  0  0  0  0  0  0  0  0  0
   31.0570   34.6120   37.4600 N   0  0  0  0  0  0  0  0  0  0  0  0
   31.4270   32.9780   36.0990 H   0  0  0  0  0  0  0  0  0  0  0  0
   34.8200   34.4060   38.1990 H   0  0  0  0  0  0  0  0  0  0  0  0
   31.0230   36.1450   38.8110 H   0  0  0  0  0  0  0  0  0  0  0  0
   37.3880   25.0000   32.9180 C   0  0  0  0  0  0  0  0  0  0  0  0
   37.1210   23.8540   32.1390 C   0  0  0  0  0  0  0  0  0  0  0  0
   37.9760   22.5250   33.0670 S   0  0  0  0  0  0  0  0  0  0  0  0
   38.5510   23.7690   34.3620 C   0  0  0  0  0  0  0  0  0  0  0  0
   38.1130   24.7420   33.9770 N   0  0  0  0  0  0  0  0  0  0  0  0
   36.5390   23.8290   31.2140 H   0  0  0  0  0  0  0  0  0  0  0  0
   41.3800   23.5980   33.7030 Cl  0  0  0  0  0  0  0  0  0  0  0  0
   40.7440   23.2480   35.2810 C   0  0  0  0  0  0  0  0  0  0  0  0
   39.3890   23.3420   35.5480 C   0  0  0  0  0  0  0  0  0  0  0  0
   38.7830   23.0920   36.7460 C   0  0  0  0  0  0  0  0  0  0  0  0
   37.7160   23.1840   36.8910 H   0  0  0  0  0  0  0  0  0  0  0  0
   39.6270   22.7090   37.7680 C   0  0  0  0  0  0  0  0  0  0  0  0
   39.2510   22.4850   38.7640 H   0  0  0  0  0  0  0  0  0  0  0  0
   41.0120   22.5790   37.6200 C   0  0  0  0  0  0  0  0  0  0  0  0
   41.6390   22.2760   38.4450 H   0  0  0  0  0  0  0  0  0  0  0  0
   41.5050   22.8590   36.3620 C   0  0  0  0  0  0  0  0  0  0  0  0
   43.2320   22.7310   36.0470 Cl  0  0  0  0  0  0  0  0  0  0  0  0
  1 10  1  0  0  0  0
  1  5  1  0  0  0  0
  2  1  2  0  0  0  0
  3  2  1  0  0  0  0
  3  4  1  0  0  0  0
  4 31  1  0  0  0  0
  4  5  2  0  0  0  0
  6  2  1  0  0  0  0
  7  3  1  0  0  0  0
  8 11  1  1  0  0  0
  8 18  1  0  0  0  0
  9 10  1  0  0  0  0
  9  8  1  0  0  0  0
 10 14  1  1  0  0  0
 10  8  1  0  0  0  0
 12  9  1  0  0  0  0
 13  9  1  0  0  0  0
 15 16  1  0  0  0  0
 15 23  1  0  0  0  0
 16 20  1  0  0  0  0
 17 16  2  0  0  0  0
 18 19  1  0  0  0  0
 18 17  1  0  0  0  0
 19 15  2  0  0  0  0
 21 17  1  0  0  0  0
 22 23  2  0  0  0  0
 22 27  1  0  0  0  0
 23 24  1  0  0  0  0
 24 29  1  0  0  0  0
 24 25  2  0  0  0  0
 26 25  1  0  0  0  0
 26 30  1  0  0  0  0
 27 26  2  0  0  0  0
 28 22  1  0  0  0  0
 31 35  1  0  0  0  0
 32 31  2  0  0  0  0
 32 33  1  0  0  0  0
 33 34  1  0  0  0  0
 34 39  1  0  0  0  0
 35 34  2  0  0  0  0
 36 32  1  0  0  0  0
 37 38  1  0  0  0  0
 38 39  2  0  0  0  0
 38 46  1  0  0  0  0
 39 40  1  0  0  0  0
 40 41  1  0  0  0  0
 40 42  2  0  0  0  0
 42 43  1  0  0  0  0
 44 42  1  0  0  0  0
 44 45  1  0  0  0  0
 46 44  2  0  0  0  0
 47 46  1  0  0  0  0
M  END
>  <minimizedAffinity>
-6.36810112

$$$$

 OpenBabel03272500523D

 47 52  0  0  1  0  0  0  0  0999 V2000
   37.2640   27.1190   33.5000 C   0  0  0  0  0  0  0  0  0  0  0  0
   36.9520   26.5910   32.2530 C   0  0  0  0  0  0  0  0  0  0  0  0
   35.9980   27.3890   31.6990 N   0  0  0  0  0  0  0  0  0  0  0  0
   35.7100   28.4010   32.5780 C   0  0  0  0  0  0  0  0  0  0  0  0
   36.4820   28.2210   33.6570 N   0  0  0  0  0  0  0  0  0  0  0  0
   37.3580   25.7170   31.7620 H   0  0  0  0  0  0  0  0  0  0  0  0
   35.5040   27.3390   30.7840 H   0  0  0  0  0  0  0  0  0  0  0  0
   37.8010   26.0050   35.7400 C   0  0  1  0  0  0  0  0  0  0  0  0
   38.6510   27.3280   35.6680 C   0  0  0  0  0  0  0  0  0  0  0  0
   38.2600   26.5350   34.4590 C   0  0  2  0  0  0  0  0  0  0  0  0
   36.7540   26.1940   36.0500 H   0  0  0  0  0  0  0  0  0  0  0  0
   39.6950   27.2220   35.9940 H   0  0  0  0  0  0  0  0  0  0  0  0
   38.1030   28.2690   35.7990 H   0  0  0  0  0  0  0  0  0  0  0  0
   39.0810   26.0060   33.9340 H   0  0  0  0  0  0  0  0  0  0  0  0
   39.8400   23.1680   36.5960 C   0  0  0  0  0  0  0  0  0  0  0  0
   38.9860   23.1920   37.6730 C   0  0  0  0  0  0  0  0  0  0  0  0
   38.0900   24.2720   37.5000 C   0  0  0  0  0  0  0  0  0  0  0  0
   38.4380   24.8520   36.3360 N   0  0  0  0  0  0  0  0  0  0  0  0
   39.4530   24.1840   35.8450 N   0  0  0  0  0  0  0  0  0  0  0  0
   38.8950   22.5590   38.5690 H   0  0  0  0  0  0  0  0  0  0  0  0
   37.2960   24.5610   38.1730 H   0  0  0  0  0  0  0  0  0  0  0  0
   41.4060   21.8560   35.1340 C   0  0  0  0  0  0  0  0  0  0  0  0
   40.8900   22.1970   36.4300 C   0  0  0  0  0  0  0  0  0  0  0  0
   41.4400   21.5600   37.5110 C   0  0  0  0  0  0  0  0  0  0  0  0
   42.4330   20.6460   37.3200 N   0  0  0  0  0  0  0  0  0  0  0  0
   42.8910   20.3530   36.0750 C   0  0  0  0  0  0  0  0  0  0  0  0
   42.3830   20.9520   34.9750 N   0  0  0  0  0  0  0  0  0  0  0  0
   40.9160   22.4040   34.3420 H   0  0  0  0  0  0  0  0  0  0  0  0
   41.1350   21.7360   38.5220 H   0  0  0  0  0  0  0  0  0  0  0  0
   43.6690   19.6410   35.8730 H   0  0  0  0  0  0  0  0  0  0  0  0
   34.7160   29.4830   32.3600 C   0  0  0  0  0  0  0  0  0  0  0  0
   34.9040   30.4280   31.3290 C   0  0  0  0  0  0  0  0  0  0  0  0
   33.4310   31.5060   31.4940 S   0  0  0  0  0  0  0  0  0  0  0  0
   32.8130   30.4760   32.9470 C   0  0  0  0  0  0  0  0  0  0  0  0
   33.6180   29.6830   33.0450 N   0  0  0  0  0  0  0  0  0  0  0  0
   35.7450   30.4570   30.6320 H   0  0  0  0  0  0  0  0  0  0  0  0
   33.2190   32.3670   35.1220 Cl  0  0  0  0  0  0  0  0  0  0  0  0
   31.6660   31.7120   34.7040 C   0  0  0  0  0  0  0  0  0  0  0  0
   31.5210   30.8140   33.6600 C   0  0  0  0  0  0  0  0  0  0  0  0
   30.3530   30.2390   33.2470 C   0  0  0  0  0  0  0  0  0  0  0  0
   30.3050   29.5420   32.4210 H   0  0  0  0  0  0  0  0  0  0  0  0
   29.2280   30.6060   33.9570 C   0  0  0  0  0  0  0  0  0  0  0  0
   28.2450   30.2080   33.7120 H   0  0  0  0  0  0  0  0  0  0  0  0
   29.2490   31.5030   35.0300 C   0  0  0  0  0  0  0  0  0  0  0  0
   28.3460   31.7650   35.5600 H   0  0  0  0  0  0  0  0  0  0  0  0
   30.4880   32.0170   35.3520 C   0  0  0  0  0  0  0  0  0  0  0  0
   30.6470   33.1570   36.6840 Cl  0  0  0  0  0  0  0  0  0  0  0  0
  1  5  1  0  0  0  0
  1 10  1  0  0  0  0
  2  1  2  0  0  0  0
  3  2  1  0  0  0  0
  3  4  1  0  0  0  0
  4  5  2  0  0  0  0
  6  2  1  0  0  0  0
  7  3  1  0  0  0  0
  8 11  1  1  0  0  0
  8 18  1  0  0  0  0
  9  8  1  0  0  0  0
  9 13  1  0  0  0  0
  9 12  1  0  0  0  0
 10 14  1  6  0  0  0
 10  9  1  0  0  0  0
 10  8  1  0  0  0  0
 15 16  1  0  0  0  0
 16 20  1  0  0  0  0
 17 16  2  0  0  0  0
 17 21  1  0  0  0  0
 18 17  1  0  0  0  0
 19 18  1  0  0  0  0
 19 15  2  0  0  0  0
 22 23  1  0  0  0  0
 23 15  1  0  0  0  0
 23 24  2  0  0  0  0
 24 29  1  0  0  0  0
 25 24  1  0  0  0  0
 26 25  2  0  0  0  0
 27 22  2  0  0  0  0
 27 26  1  0  0  0  0
 28 22  1  0  0  0  0
 30 26  1  0  0  0  0
 31  4  1  0  0  0  0
 31 35  1  0  0  0  0
 32 33  1  0  0  0  0
 32 31  2  0  0  0  0
 33 34  1  0  0  0  0
 34 35  2  0  0  0  0
 34 39  1  0  0  0  0
 36 32  1  0  0  0  0
 38 37  1  0  0  0  0
 38 46  1  0  0  0  0
 39 38  2  0  0  0  0
 40 39  1  0  0  0  0
 40 42  2  0  0  0  0
 41 40  1  0  0  0  0
 42 44  1  0  0  0  0
 43 42  1  0  0  0  0
 44 46  2  0  0  0  0
 44 45  1  0  0  0  0
 46 47  1  0  0  0  0
M  END
>  <minimizedAffinity>
-6.36803102

$$$$

 OpenBabel03272500523D

 47 52  0  0  1  0  0  0  0  0999 V2000
   38.9290   26.1760   33.0540 C   0  0  0  0  0  0  0  0  0  0  0  0
   38.6120   25.9700   31.7170 C   0  0  0  0  0  0  0  0  0  0  0  0
   37.5870   26.8100   31.4070 N   0  0  0  0  0  0  0  0  0  0  0  0
   37.2590   27.5320   32.5240 C   0  0  0  0  0  0  0  0  0  0  0  0
   38.0790   27.1360   33.5060 N   0  0  0  0  0  0  0  0  0  0  0  0
   39.0610   25.2880   31.0070 H   0  0  0  0  0  0  0  0  0  0  0  0
   37.0660   26.9620   30.5180 H   0  0  0  0  0  0  0  0  0  0  0  0
   39.8170   25.1770   35.2360 C   0  0  1  0  0  0  0  0  0  0  0  0
   40.8930   26.2100   34.7310 C   0  0  0  0  0  0  0  0  0  0  0  0
   39.9960   25.4400   33.8100 C   0  0  2  0  0  0  0  0  0  0  0  0
   38.9780   25.6700   35.7670 H   0  0  0  0  0  0  0  0  0  0  0  0
   41.9320   25.8590   34.7930 H   0  0  0  0  0  0  0  0  0  0  0  0
   40.6400   27.2720   34.8390 H   0  0  0  0  0  0  0  0  0  0  0  0
   40.4840   24.6610   33.1890 H   0  0  0  0  0  0  0  0  0  0  0  0
   41.6860   22.2960   36.3060 C   0  0  0  0  0  0  0  0  0  0  0  0
   40.5200   22.1090   37.0090 C   0  0  0  0  0  0  0  0  0  0  0  0
   39.6450   23.1770   36.7030 C   0  0  0  0  0  0  0  0  0  0  0  0
   40.3130   23.9580   35.8340 N   0  0  0  0  0  0  0  0  0  0  0  0
   41.4880   23.4140   35.6300 N   0  0  0  0  0  0  0  0  0  0  0  0
   40.1870   21.3290   37.7110 H   0  0  0  0  0  0  0  0  0  0  0  0
   38.6480   23.3220   37.0940 H   0  0  0  0  0  0  0  0  0  0  0  0
   44.0660   21.7160   35.7480 C   0  0  0  0  0  0  0  0  0  0  0  0
   42.8110   21.3990   36.3690 C   0  0  0  0  0  0  0  0  0  0  0  0
   42.7230   20.2030   37.0300 C   0  0  0  0  0  0  0  0  0  0  0  0
   43.8060   19.3770   37.0720 N   0  0  0  0  0  0  0  0  0  0  0  0
   44.9750   19.7160   36.4690 C   0  0  0  0  0  0  0  0  0  0  0  0
   45.1160   20.8840   35.8040 N   0  0  0  0  0  0  0  0  0  0  0  0
   44.0450   22.6750   35.2510 H   0  0  0  0  0  0  0  0  0  0  0  0
   41.8400   19.8640   37.5300 H   0  0  0  0  0  0  0  0  0  0  0  0
   45.8550   19.1000   36.4740 H   0  0  0  0  0  0  0  0  0  0  0  0
   36.1860   28.5540   32.6130 C   0  0  0  0  0  0  0  0  0  0  0  0
   35.7490   29.2330   31.4570 C   0  0  0  0  0  0  0  0  0  0  0  0
   34.4490   30.3500   32.1080 S   0  0  0  0  0  0  0  0  0  0  0  0
   34.7280   29.6930   33.8520 C   0  0  0  0  0  0  0  0  0  0  0  0
   35.5520   28.9280   33.6970 N   0  0  0  0  0  0  0  0  0  0  0  0
   36.1320   29.0860   30.4440 H   0  0  0  0  0  0  0  0  0  0  0  0
   35.9740   32.0100   35.0980 Cl  0  0  0  0  0  0  0  0  0  0  0  0
   34.4820   31.3140   35.6520 C   0  0  0  0  0  0  0  0  0  0  0  0
   33.9270   30.2100   35.0270 C   0  0  0  0  0  0  0  0  0  0  0  0
   32.7650   29.5840   35.3780 C   0  0  0  0  0  0  0  0  0  0  0  0
   32.3820   28.7230   34.8480 H   0  0  0  0  0  0  0  0  0  0  0  0
   32.1040   30.1260   36.4610 C   0  0  0  0  0  0  0  0  0  0  0  0
   31.1680   29.7060   36.8250 H   0  0  0  0  0  0  0  0  0  0  0  0
   32.5650   31.2390   37.1720 C   0  0  0  0  0  0  0  0  0  0  0  0
   32.0180   31.6320   38.0160 H   0  0  0  0  0  0  0  0  0  0  0  0
   33.7510   31.7820   36.7220 C   0  0  0  0  0  0  0  0  0  0  0  0
   34.4380   33.1860   37.5330 Cl  0  0  0  0  0  0  0  0  0  0  0  0
  1  5  1  0  0  0  0
  1 10  1  0  0  0  0
  2  1  2  0  0  0  0
  3  2  1  0  0  0  0
  3  4  1  0  0  0  0
  4 31  1  0  0  0  0
  4  5  2  0  0  0  0
  6  2  1  0  0  0  0
  7  3  1  0  0  0  0
  8 11  1  1  0  0  0
  8 18  1  0  0  0  0
  9 12  1  0  0  0  0
  9 13  1  0  0  0  0
  9  8  1  0  0  0  0
 10 14  1  6  0  0  0
 10  9  1  0  0  0  0
 10  8  1  0  0  0  0
 15 23  1  0  0  0  0
 15 16  1  0  0  0  0
 16 20  1  0  0  0  0
 17 16  2  0  0  0  0
 17 21  1  0  0  0  0
 18 17  1  0  0  0  0
 19 18  1  0  0  0  0
 19 15  2  0  0  0  0
 22 27  2  0  0  0  0
 22 23  1  0  0  0  0
 23 24  2  0  0  0  0
 24 25  1  0  0  0  0
 24 29  1  0  0  0  0
 26 30  1  0  0  0  0
 26 25  2  0  0  0  0
 27 26  1  0  0  0  0
 28 22  1  0  0  0  0
 31 35  1  0  0  0  0
 32 33  1  0  0  0  0
 32 31  2  0  0  0  0
 33 34  1  0  0  0  0
 34 39  1  0  0  0  0
 35 34  2  0  0  0  0
 36 32  1  0  0  0  0
 37 38  1  0  0  0  0
 38 46  1  0  0  0  0
 39 40  1  0  0  0  0
 39 38  2  0  0  0  0
 40 42  2  0  0  0  0
 41 40  1  0  0  0  0
 42 43  1  0  0  0  0
 42 44  1  0  0  0  0
 44 45  1  0  0  0  0
 46 44  2  0  0  0  0
 46 47  1  0  0  0  0
M  END
>  <minimizedAffinity>
-6.36060762

$$$$

 OpenBabel03272500523D

 47 52  0  0  1  0  0  0  0  0999 V2000
   36.2930   27.9220   32.2530 C   0  0  0  0  0  0  0  0  0  0  0  0
   36.1310   27.4950   30.9400 C   0  0  0  0  0  0  0  0  0  0  0  0
   36.5200   26.1920   30.8850 N   0  0  0  0  0  0  0  0  0  0  0  0
   36.9220   25.8010   32.1350 C   0  0  0  0  0  0  0  0  0  0  0  0
   36.7780   26.8570   32.9460 N   0  0  0  0  0  0  0  0  0  0  0  0
   35.7670   28.0470   30.0840 H   0  0  0  0  0  0  0  0  0  0  0  0
   36.5510   25.5160   30.0930 H   0  0  0  0  0  0  0  0  0  0  0  0
   34.8210   29.5340   33.5880 C   0  0  1  0  0  0  0  0  0  0  0  0
   34.8870   30.0830   32.1140 C   0  0  0  0  0  0  0  0  0  0  0  0
   35.9970   29.3060   32.7520 C   0  0  2  0  0  0  0  0  0  0  0  0
   34.0810   28.7160   33.6990 H   0  0  0  0  0  0  0  0  0  0  0  0
   35.0440   31.1670   32.0340 H   0  0  0  0  0  0  0  0  0  0  0  0
   34.3120   29.5310   31.3600 H   0  0  0  0  0  0  0  0  0  0  0  0
   36.9230   29.8730   32.9820 H   0  0  0  0  0  0  0  0  0  0  0  0
   34.1490   32.1020   36.0140 C   0  0  0  0  0  0  0  0  0  0  0  0
   35.4510   31.7970   36.3320 C   0  0  0  0  0  0  0  0  0  0  0  0
   35.8910   30.7780   35.4550 C   0  0  0  0  0  0  0  0  0  0  0  0
   34.8450   30.5130   34.6510 N   0  0  0  0  0  0  0  0  0  0  0  0
   33.8580   31.2990   35.0060 N   0  0  0  0  0  0  0  0  0  0  0  0
   36.1460   32.1850   37.0930 H   0  0  0  0  0  0  0  0  0  0  0  0
   36.8680   30.3180   35.4460 H   0  0  0  0  0  0  0  0  0  0  0  0
   31.9450   33.1820   36.5530 C   0  0  0  0  0  0  0  0  0  0  0  0
   33.3710   33.1010   36.7010 C   0  0  0  0  0  0  0  0  0  0  0  0
   33.9690   34.0170   37.5250 C   0  0  0  0  0  0  0  0  0  0  0  0
   33.2050   34.9490   38.1610 N   0  0  0  0  0  0  0  0  0  0  0  0
   31.8570   34.9900   37.9920 C   0  0  0  0  0  0  0  0  0  0  0  0
   31.2180   34.1100   37.1900 N   0  0  0  0  0  0  0  0  0  0  0  0
   31.5600   32.4240   35.8870 H   0  0  0  0  0  0  0  0  0  0  0  0
   35.0230   34.0510   37.7110 H   0  0  0  0  0  0  0  0  0  0  0  0
   31.2140   35.7050   38.4690 H   0  0  0  0  0  0  0  0  0  0  0  0
   37.4290   24.4540   32.5020 C   0  0  0  0  0  0  0  0  0  0  0  0
   38.3190   24.2970   33.5850 C   0  0  0  0  0  0  0  0  0  0  0  0
   38.6200   22.4890   33.6050 S   0  0  0  0  0  0  0  0  0  0  0  0
   37.4740   22.2600   32.1250 C   0  0  0  0  0  0  0  0  0  0  0  0
   37.1350   23.3220   31.9120 N   0  0  0  0  0  0  0  0  0  0  0  0
   38.7010   25.0990   34.2220 H   0  0  0  0  0  0  0  0  0  0  0  0
   35.7230   20.6480   33.8000 Cl  0  0  0  0  0  0  0  0  0  0  0  0
   36.3860   20.0900   32.2950 C   0  0  0  0  0  0  0  0  0  0  0  0
   37.2150   20.8930   31.5320 C   0  0  0  0  0  0  0  0  0  0  0  0
   37.7890   20.5570   30.3390 C   0  0  0  0  0  0  0  0  0  0  0  0
   38.4300   21.2310   29.7880 H   0  0  0  0  0  0  0  0  0  0  0  0
   37.4970   19.2900   29.8770 C   0  0  0  0  0  0  0  0  0  0  0  0
   37.9010   18.9190   28.9360 H   0  0  0  0  0  0  0  0  0  0  0  0
   36.6720   18.3880   30.5590 C   0  0  0  0  0  0  0  0  0  0  0  0
   36.4680   17.4050   30.1630 H   0  0  0  0  0  0  0  0  0  0  0  0
   36.1530   18.8440   31.7520 C   0  0  0  0  0  0  0  0  0  0  0  0
   35.1000   17.8040   32.7060 Cl  0  0  0  0  0  0  0  0  0  0  0  0
  1 10  1  0  0  0  0
  1  5  1  0  0  0  0
  2  1  2  0  0  0  0
  3  2  1  0  0  0  0
  3  4  1  0  0  0  0
  4 31  1  0  0  0  0
  4  5  2  0  0  0  0
  6  2  1  0  0  0  0
  7  3  1  0  0  0  0
  8 11  1  1  0  0  0
  8 18  1  0  0  0  0
  9 10  1  0  0  0  0
  9  8  1  0  0  0  0
 10 14  1  1  0  0  0
 10  8  1  0  0  0  0
 12  9  1  0  0  0  0
 13  9  1  0  0  0  0
 15 16  1  0  0  0  0
 15 23  1  0  0  0  0
 16 20  1  0  0  0  0
 17 16  2  0  0  0  0
 18 19  1  0  0  0  0
 18 17  1  0  0  0  0
 19 15  2  0  0  0  0
 21 17  1  0  0  0  0
 22 23  2  0  0  0  0
 22 27  1  0  0  0  0
 23 24  1  0  0  0  0
 24 29  1  0  0  0  0
 24 25  2  0  0  0  0
 26 25  1  0  0  0  0
 26 30  1  0  0  0  0
 27 26  2  0  0  0  0
 28 22  1  0  0  0  0
 31 32  2  0  0  0  0
 32 33  1  0  0  0  0
 32 36  1  0  0  0  0
 34 33  1  0  0  0  0
 35 34  2  0  0  0  0
 35 31  1  0  0  0  0
 38 37  1  0  0  0  0
 39 34  1  0  0  0  0
 39 38  2  0  0  0  0
 40 39  1  0  0  0  0
 41 40  1  0  0  0  0
 42 40  2  0  0  0  0
 42 44  1  0  0  0  0
 43 42  1  0  0  0  0
 44 46  2  0  0  0  0
 45 44  1  0  0  0  0
 46 38  1  0  0  0  0
 46 47  1  0  0  0  0
M  END
>  <minimizedAffinity>
-6.35553408

$$$$
