
 OpenBabel03262520233D

 34 36  0  0  0  0  0  0  0  0999 V2000
   39.9550   24.5950   34.9960 C   0  0  0  0  0  0  0  0  0  0  0  0
   40.6220   25.8150   34.9930 C   0  0  0  0  0  0  0  0  0  0  0  0
   40.3270   26.9030   34.2370 C   0  0  0  0  0  0  0  0  0  0  0  0
   39.2850   26.8420   33.3820 C   0  0  0  0  0  0  0  0  0  0  0  0
   38.6190   25.6770   33.3570 C   0  0  0  0  0  0  0  0  0  0  0  0
   38.9810   24.6820   34.1280 N   0  0  0  0  0  0  0  0  0  0  0  0
   41.5140   25.9540   35.6840 H   0  0  0  0  0  0  0  0  0  0  0  0
   40.9470   27.8380   34.3280 H   0  0  0  0  0  0  0  0  0  0  0  0
   39.0270   27.6670   32.8060 H   0  0  0  0  0  0  0  0  0  0  0  0
   37.8730   22.7230   32.6680 Cl  0  0  0  0  0  0  0  0  0  0  0  0
   37.0000   24.1130   32.1570 C   0  0  0  0  0  0  0  0  0  0  0  0
   37.4260   25.3540   32.5300 C   0  0  0  0  0  0  0  0  0  0  0  0
   36.5970   26.3550   32.0710 C   0  0  0  0  0  0  0  0  0  0  0  0
   36.8210   27.4010   32.2990 H   0  0  0  0  0  0  0  0  0  0  0  0
   35.4620   26.1550   31.3210 C   0  0  0  0  0  0  0  0  0  0  0  0
   34.8660   26.9950   30.9990 H   0  0  0  0  0  0  0  0  0  0  0  0
   35.0870   24.8810   30.9760 C   0  0  0  0  0  0  0  0  0  0  0  0
   34.2060   24.7570   30.3950 H   0  0  0  0  0  0  0  0  0  0  0  0
   35.8950   23.8610   31.4210 C   0  0  0  0  0  0  0  0  0  0  0  0
   35.3920   22.2440   30.9670 Cl  0  0  0  0  0  0  0  0  0  0  0  0
   41.6230   22.9970   35.4860 C   0  0  0  0  0  0  0  0  0  0  0  0
   40.3620   23.5340   35.8980 C   0  0  0  0  0  0  0  0  0  0  0  0
   39.7960   22.9910   37.0200 C   0  0  0  0  0  0  0  0  0  0  0  0
   40.4860   21.9840   37.6480 N   0  0  0  0  0  0  0  0  0  0  0  0
   41.6530   21.4950   37.2570 C   0  0  0  0  0  0  0  0  0  0  0  0
   42.2130   22.0170   36.1640 N   0  0  0  0  0  0  0  0  0  0  0  0
   42.2030   20.4620   38.0360 N   0  0  0  0  0  0  0  0  0  0  0  0
   42.1870   23.3230   34.6230 H   0  0  0  0  0  0  0  0  0  0  0  0
   42.9490   20.6490   38.7430 H   0  0  0  0  0  0  0  0  0  0  0  0
   41.7300   19.5670   37.7590 H   0  0  0  0  0  0  0  0  0  0  0  0
   38.5090   23.5000   37.4930 C   0  0  0  0  0  0  0  0  0  0  0  0
   38.2670   22.9980   38.6900 F   0  0  0  0  0  0  0  0  0  0  0  0
   38.4300   24.8790   37.5290 F   0  0  0  0  0  0  0  0  0  0  0  0
   37.4470   23.0890   36.6370 F   0  0  0  0  0  0  0  0  0  0  0  0
  1 22  1  0  0  0  0
  2  1  1  0  0  0  0
  2  7  1  0  0  0  0
  3  8  1  0  0  0  0
  3  2  2  0  0  0  0
  4  3  1  0  0  0  0
  5  4  2  0  0  0  0
  5  6  1  0  0  0  0
  6  1  2  0  0  0  0
  9  4  1  0  0  0  0
 11 12  1  0  0  0  0
 11 10  1  0  0  0  0
 12  5  1  0  0  0  0
 13 14  1  0  0  0  0
 13 12  2  0  0  0  0
 15 13  1  0  0  0  0
 16 15  1  0  0  0  0
 17 15  2  0  0  0  0
 17 19  1  0  0  0  0
 18 17  1  0  0  0  0
 19 11  2  0  0  0  0
 20 19  1  0  0  0  0
 21 22  2  0  0  0  0
 21 26  1  0  0  0  0
 22 23  1  0  0  0  0
 23 31  1  0  0  0  0
 23 24  2  0  0  0  0
 25 24  1  0  0  0  0
 25 27  1  0  0  0  0
 26 25  2  0  0  0  0
 27 29  1  0  0  0  0
 28 21  1  0  0  0  0
 30 27  1  0  0  0  0
 31 33  1  0  0  0  0
 31 32  1  0  0  0  0
 34 31  1  0  0  0  0
M  END
>  <minimizedAffinity>
-6.94186497

$$$$

 OpenBabel03262520233D

 34 36  0  0  0  0  0  0  0  0999 V2000
   37.3740   22.5740   32.2090 C   0  0  0  0  0  0  0  0  0  0  0  0
   37.3540   23.8410   31.6370 C   0  0  0  0  0  0  0  0  0  0  0  0
   37.7050   25.0080   32.2330 C   0  0  0  0  0  0  0  0  0  0  0  0
   38.1250   24.9880   33.5140 C   0  0  0  0  0  0  0  0  0  0  0  0
   38.1550   23.7810   34.0990 C   0  0  0  0  0  0  0  0  0  0  0  0
   37.7960   22.7090   33.4400 N   0  0  0  0  0  0  0  0  0  0  0  0
   37.0130   23.9500   30.5580 H   0  0  0  0  0  0  0  0  0  0  0  0
   37.6450   25.9750   31.6580 H   0  0  0  0  0  0  0  0  0  0  0  0
   38.4160   25.8660   33.9870 H   0  0  0  0  0  0  0  0  0  0  0  0
   40.7160   22.0800   34.6530 Cl  0  0  0  0  0  0  0  0  0  0  0  0
   39.6850   22.7460   35.8570 C   0  0  0  0  0  0  0  0  0  0  0  0
   38.5960   23.4780   35.4870 C   0  0  0  0  0  0  0  0  0  0  0  0
   37.8990   23.9700   36.5700 C   0  0  0  0  0  0  0  0  0  0  0  0
   37.0020   24.5770   36.4150 H   0  0  0  0  0  0  0  0  0  0  0  0
   38.2400   23.7640   37.8850 C   0  0  0  0  0  0  0  0  0  0  0  0
   37.6400   24.1840   38.6770 H   0  0  0  0  0  0  0  0  0  0  0  0
   39.3480   23.0160   38.1940 C   0  0  0  0  0  0  0  0  0  0  0  0
   39.5870   22.8720   39.2190 H   0  0  0  0  0  0  0  0  0  0  0  0
   40.0640   22.5120   37.1340 C   0  0  0  0  0  0  0  0  0  0  0  0
   41.4750   21.5610   37.5570 Cl  0  0  0  0  0  0  0  0  0  0  0  0
   38.0570   21.0860   30.5060 C   0  0  0  0  0  0  0  0  0  0  0  0
   37.0100   21.4060   31.4280 C   0  0  0  0  0  0  0  0  0  0  0  0
   35.9090   20.5900   31.4220 C   0  0  0  0  0  0  0  0  0  0  0  0
   35.9100   19.5410   30.5360 N   0  0  0  0  0  0  0  0  0  0  0  0
   36.8860   19.2550   29.6880 C   0  0  0  0  0  0  0  0  0  0  0  0
   37.9620   20.0440   29.6850 N   0  0  0  0  0  0  0  0  0  0  0  0
   36.7000   18.1350   28.8600 N   0  0  0  0  0  0  0  0  0  0  0  0
   38.9800   21.6380   30.3970 H   0  0  0  0  0  0  0  0  0  0  0  0
   37.1380   17.2120   29.0820 H   0  0  0  0  0  0  0  0  0  0  0  0
   36.0850   18.4260   28.0610 H   0  0  0  0  0  0  0  0  0  0  0  0
   34.8070   20.8640   32.3430 C   0  0  0  0  0  0  0  0  0  0  0  0
   35.1560   20.4690   33.5530 F   0  0  0  0  0  0  0  0  0  0  0  0
   34.4130   22.1890   32.3680 F   0  0  0  0  0  0  0  0  0  0  0  0
   33.6380   20.1360   31.9770 F   0  0  0  0  0  0  0  0  0  0  0  0
  1  6  1  0  0  0  0
  2  1  2  0  0  0  0
  2  3  1  0  0  0  0
  3  4  2  0  0  0  0
  4  9  1  0  0  0  0
  4  5  1  0  0  0  0
  5 12  1  0  0  0  0
  6  5  2  0  0  0  0
  7  2  1  0  0  0  0
  8  3  1  0  0  0  0
 10 11  1  0  0  0  0
 11 19  1  0  0  0  0
 12 11  2  0  0  0  0
 12 13  1  0  0  0  0
 13 15  2  0  0  0  0
 14 13  1  0  0  0  0
 15 17  1  0  0  0  0
 15 16  1  0  0  0  0
 17 18  1  0  0  0  0
 19 20  1  0  0  0  0
 19 17  2  0  0  0  0
 21 22  1  0  0  0  0
 22  1  1  0  0  0  0
 23 22  2  0  0  0  0
 23 31  1  0  0  0  0
 24 23  1  0  0  0  0
 25 24  2  0  0  0  0
 26 25  1  0  0  0  0
 26 21  2  0  0  0  0
 27 29  1  0  0  0  0
 27 25  1  0  0  0  0
 28 21  1  0  0  0  0
 30 27  1  0  0  0  0
 31 33  1  0  0  0  0
 31 32  1  0  0  0  0
 34 31  1  0  0  0  0
M  END
>  <minimizedAffinity>
-6.32859707

$$$$

 OpenBabel03262520233D

 34 36  0  0  0  0  0  0  0  0999 V2000
   37.7320   25.4660   32.3680 C   0  0  0  0  0  0  0  0  0  0  0  0
   36.7810   26.3150   31.8130 C   0  0  0  0  0  0  0  0  0  0  0  0
   35.6270   25.9530   31.1970 C   0  0  0  0  0  0  0  0  0  0  0  0
   35.3270   24.6430   31.0890 C   0  0  0  0  0  0  0  0  0  0  0  0
   36.2240   23.7940   31.6120 C   0  0  0  0  0  0  0  0  0  0  0  0
   37.3120   24.2410   32.1880 N   0  0  0  0  0  0  0  0  0  0  0  0
   36.9540   27.4380   31.8600 H   0  0  0  0  0  0  0  0  0  0  0  0
   34.9350   26.7420   30.7870 H   0  0  0  0  0  0  0  0  0  0  0  0
   34.4410   24.3410   30.6380 H   0  0  0  0  0  0  0  0  0  0  0  0
   38.3730   21.9930   30.2340 Cl  0  0  0  0  0  0  0  0  0  0  0  0
   36.9930   21.4200   31.0830 C   0  0  0  0  0  0  0  0  0  0  0  0
   36.1280   22.3100   31.6480 C   0  0  0  0  0  0  0  0  0  0  0  0
   35.0990   21.6890   32.3230 C   0  0  0  0  0  0  0  0  0  0  0  0
   34.3320   22.2870   32.8250 H   0  0  0  0  0  0  0  0  0  0  0  0
   34.9370   20.3290   32.4310 C   0  0  0  0  0  0  0  0  0  0  0  0
   34.1010   19.9200   32.9780 H   0  0  0  0  0  0  0  0  0  0  0  0
   35.8410   19.4830   31.8390 C   0  0  0  0  0  0  0  0  0  0  0  0
   35.6900   18.4370   31.9390 H   0  0  0  0  0  0  0  0  0  0  0  0
   36.8800   20.0750   31.1590 C   0  0  0  0  0  0  0  0  0  0  0  0
   38.0210   18.9720   30.4130 Cl  0  0  0  0  0  0  0  0  0  0  0  0
   40.0590   25.8390   32.2100 C   0  0  0  0  0  0  0  0  0  0  0  0
   38.9020   26.0060   33.0360 C   0  0  0  0  0  0  0  0  0  0  0  0
   39.0880   26.6250   34.2430 C   0  0  0  0  0  0  0  0  0  0  0  0
   40.3630   27.0290   34.5530 N   0  0  0  0  0  0  0  0  0  0  0  0
   41.4260   26.8700   33.7800 C   0  0  0  0  0  0  0  0  0  0  0  0
   41.2560   26.2670   32.6010 N   0  0  0  0  0  0  0  0  0  0  0  0
   42.6490   27.3550   34.2730 N   0  0  0  0  0  0  0  0  0  0  0  0
   40.0660   25.3700   31.2360 H   0  0  0  0  0  0  0  0  0  0  0  0
   43.0370   28.2750   33.9650 H   0  0  0  0  0  0  0  0  0  0  0  0
   43.0260   26.6440   34.9460 H   0  0  0  0  0  0  0  0  0  0  0  0
   37.9430   26.8260   35.1310 C   0  0  0  0  0  0  0  0  0  0  0  0
   37.1980   27.8040   34.6480 F   0  0  0  0  0  0  0  0  0  0  0  0
   37.1760   25.6930   35.3230 F   0  0  0  0  0  0  0  0  0  0  0  0
   38.3650   27.2150   36.4350 F   0  0  0  0  0  0  0  0  0  0  0  0
  1 22  1  0  0  0  0
  2  7  1  0  0  0  0
  2  1  2  0  0  0  0
  3  2  1  0  0  0  0
  4  3  2  0  0  0  0
  4  5  1  0  0  0  0
  5 12  1  0  0  0  0
  5  6  2  0  0  0  0
  6  1  1  0  0  0  0
  8  3  1  0  0  0  0
  9  4  1  0  0  0  0
 10 11  1  0  0  0  0
 11 19  2  0  0  0  0
 11 12  1  0  0  0  0
 12 13  2  0  0  0  0
 13 15  1  0  0  0  0
 13 14  1  0  0  0  0
 15 16  1  0  0  0  0
 17 18  1  0  0  0  0
 17 15  2  0  0  0  0
 19 17  1  0  0  0  0
 20 19  1  0  0  0  0
 21 26  2  0  0  0  0
 21 22  1  0  0  0  0
 22 23  2  0  0  0  0
 23 24  1  0  0  0  0
 23 31  1  0  0  0  0
 25 27  1  0  0  0  0
 25 24  2  0  0  0  0
 26 25  1  0  0  0  0
 27 30  1  0  0  0  0
 28 21  1  0  0  0  0
 29 27  1  0  0  0  0
 31 33  1  0  0  0  0
 31 34  1  0  0  0  0
 32 31  1  0  0  0  0
M  END
>  <minimizedAffinity>
-6.32049179

$$$$

 OpenBabel03262520233D

 34 36  0  0  0  0  0  0  0  0999 V2000
   36.5990   27.8160   32.8810 C   0  0  0  0  0  0  0  0  0  0  0  0
   36.8420   28.4670   31.6770 C   0  0  0  0  0  0  0  0  0  0  0  0
   36.5220   29.7480   31.3660 C   0  0  0  0  0  0  0  0  0  0  0  0
   35.9010   30.5100   32.2900 C   0  0  0  0  0  0  0  0  0  0  0  0
   35.6480   29.9130   33.4640 C   0  0  0  0  0  0  0  0  0  0  0  0
   35.9970   28.6680   33.6700 N   0  0  0  0  0  0  0  0  0  0  0  0
   37.3620   27.8980   30.8410 H   0  0  0  0  0  0  0  0  0  0  0  0
   36.7750   30.1630   30.3490 H   0  0  0  0  0  0  0  0  0  0  0  0
   35.6620   31.5000   32.0820 H   0  0  0  0  0  0  0  0  0  0  0  0
   32.6450   29.3770   34.1370 Cl  0  0  0  0  0  0  0  0  0  0  0  0
   33.7040   30.3780   35.0480 C   0  0  0  0  0  0  0  0  0  0  0  0
   35.0010   30.5280   34.6530 C   0  0  0  0  0  0  0  0  0  0  0  0
   35.7240   31.3290   35.5110 C   0  0  0  0  0  0  0  0  0  0  0  0
   36.7800   31.5330   35.3130 H   0  0  0  0  0  0  0  0  0  0  0  0
   35.2210   31.9230   36.6440 C   0  0  0  0  0  0  0  0  0  0  0  0
   35.8540   32.5380   37.2640 H   0  0  0  0  0  0  0  0  0  0  0  0
   33.9060   31.7350   36.9890 C   0  0  0  0  0  0  0  0  0  0  0  0
   33.5460   32.2070   37.8690 H   0  0  0  0  0  0  0  0  0  0  0  0
   33.1600   30.9390   36.1510 C   0  0  0  0  0  0  0  0  0  0  0  0
   31.4840   30.7150   36.6150 Cl  0  0  0  0  0  0  0  0  0  0  0  0
   36.4130   25.5830   32.1320 C   0  0  0  0  0  0  0  0  0  0  0  0
   37.0420   26.4490   33.0820 C   0  0  0  0  0  0  0  0  0  0  0  0
   37.9170   25.8680   33.9620 C   0  0  0  0  0  0  0  0  0  0  0  0
   38.1120   24.5140   33.8530 N   0  0  0  0  0  0  0  0  0  0  0  0
   37.5240   23.7230   32.9680 C   0  0  0  0  0  0  0  0  0  0  0  0
   36.6690   24.2790   32.1070 N   0  0  0  0  0  0  0  0  0  0  0  0
   37.8560   22.3590   33.0140 N   0  0  0  0  0  0  0  0  0  0  0  0
   35.7010   25.8970   31.3800 H   0  0  0  0  0  0  0  0  0  0  0  0
   38.5510   21.9430   32.3540 H   0  0  0  0  0  0  0  0  0  0  0  0
   37.2970   21.9190   33.7850 H   0  0  0  0  0  0  0  0  0  0  0  0
   38.5940   26.7000   34.9550 C   0  0  0  0  0  0  0  0  0  0  0  0
   39.3460   27.5850   34.3280 F   0  0  0  0  0  0  0  0  0  0  0  0
   37.7360   27.3390   35.8310 F   0  0  0  0  0  0  0  0  0  0  0  0
   39.4530   25.9190   35.7810 F   0  0  0  0  0  0  0  0  0  0  0  0
  1 22  1  0  0  0  0
  1  6  1  0  0  0  0
  2  1  2  0  0  0  0
  3  2  1  0  0  0  0
  3  4  2  0  0  0  0
  4  5  1  0  0  0  0
  5  6  2  0  0  0  0
  5 12  1  0  0  0  0
  7  2  1  0  0  0  0
  8  3  1  0  0  0  0
  9  4  1  0  0  0  0
 10 11  1  0  0  0  0
 11 19  1  0  0  0  0
 12 11  2  0  0  0  0
 12 13  1  0  0  0  0
 13 15  2  0  0  0  0
 14 13  1  0  0  0  0
 15 17  1  0  0  0  0
 15 16  1  0  0  0  0
 17 18  1  0  0  0  0
 19 20  1  0  0  0  0
 19 17  2  0  0  0  0
 21 22  1  0  0  0  0
 22 23  2  0  0  0  0
 23 31  1  0  0  0  0
 24 23  1  0  0  0  0
 25 27  1  0  0  0  0
 25 24  2  0  0  0  0
 26 21  2  0  0  0  0
 26 25  1  0  0  0  0
 27 30  1  0  0  0  0
 28 21  1  0  0  0  0
 29 27  1  0  0  0  0
 31 34  1  0  0  0  0
 31 33  1  0  0  0  0
 32 31  1  0  0  0  0
M  END
>  <minimizedAffinity>
-6.30743504

$$$$

 OpenBabel03262520233D

 34 36  0  0  0  0  0  0  0  0999 V2000
   36.5810   27.9720   33.1740 C   0  0  0  0  0  0  0  0  0  0  0  0
   36.8300   28.6260   31.9730 C   0  0  0  0  0  0  0  0  0  0  0  0
   36.4580   29.8880   31.6410 C   0  0  0  0  0  0  0  0  0  0  0  0
   35.7730   30.6250   32.5400 C   0  0  0  0  0  0  0  0  0  0  0  0
   35.5130   30.0240   33.7100 C   0  0  0  0  0  0  0  0  0  0  0  0
   35.9150   28.7990   33.9380 N   0  0  0  0  0  0  0  0  0  0  0  0
   37.4020   28.0770   31.1580 H   0  0  0  0  0  0  0  0  0  0  0  0
   36.7230   30.3070   30.6300 H   0  0  0  0  0  0  0  0  0  0  0  0
   35.4930   31.6010   32.3160 H   0  0  0  0  0  0  0  0  0  0  0  0
   32.5030   29.3950   34.2620 Cl  0  0  0  0  0  0  0  0  0  0  0  0
   33.4940   30.4250   35.2170 C   0  0  0  0  0  0  0  0  0  0  0  0
   34.8000   30.6160   34.8730 C   0  0  0  0  0  0  0  0  0  0  0  0
   35.4640   31.4360   35.7610 C   0  0  0  0  0  0  0  0  0  0  0  0
   36.5200   31.6730   35.6050 H   0  0  0  0  0  0  0  0  0  0  0  0
   34.8990   32.0110   36.8750 C   0  0  0  0  0  0  0  0  0  0  0  0
   35.4870   32.6430   37.5210 H   0  0  0  0  0  0  0  0  0  0  0  0
   33.5770   31.7810   37.1660 C   0  0  0  0  0  0  0  0  0  0  0  0
   33.1680   32.2390   38.0330 H   0  0  0  0  0  0  0  0  0  0  0  0
   32.8900   30.9660   36.2990 C   0  0  0  0  0  0  0  0  0  0  0  0
   31.2050   30.6890   36.6950 Cl  0  0  0  0  0  0  0  0  0  0  0  0
   37.7520   26.5610   34.6640 C   0  0  0  0  0  0  0  0  0  0  0  0
   37.0830   26.6290   33.4010 C   0  0  0  0  0  0  0  0  0  0  0  0
   37.0250   25.4720   32.6690 C   0  0  0  0  0  0  0  0  0  0  0  0
   37.6100   24.3560   33.2110 N   0  0  0  0  0  0  0  0  0  0  0  0
   38.2260   24.3050   34.3830 C   0  0  0  0  0  0  0  0  0  0  0  0
   38.2890   25.4270   35.1030 N   0  0  0  0  0  0  0  0  0  0  0  0
   38.7620   23.0640   34.7670 N   0  0  0  0  0  0  0  0  0  0  0  0
   37.8760   27.3900   35.3470 H   0  0  0  0  0  0  0  0  0  0  0  0
   38.2600   22.4350   35.4330 H   0  0  0  0  0  0  0  0  0  0  0  0
   39.6810   22.9460   34.2740 H   0  0  0  0  0  0  0  0  0  0  0  0
   36.3530   25.4770   31.3700 C   0  0  0  0  0  0  0  0  0  0  0  0
   35.1130   25.9020   31.5350 F   0  0  0  0  0  0  0  0  0  0  0  0
   36.9940   26.2360   30.4090 F   0  0  0  0  0  0  0  0  0  0  0  0
   36.2840   24.1640   30.8220 F   0  0  0  0  0  0  0  0  0  0  0  0
  1 22  1  0  0  0  0
  1  6  1  0  0  0  0
  2  1  2  0  0  0  0
  3  2  1  0  0  0  0
  3  4  2  0  0  0  0
  4  5  1  0  0  0  0
  5  6  2  0  0  0  0
  5 12  1  0  0  0  0
  7  2  1  0  0  0  0
  8  3  1  0  0  0  0
  9  4  1  0  0  0  0
 10 11  1  0  0  0  0
 11 19  1  0  0  0  0
 12 11  2  0  0  0  0
 12 13  1  0  0  0  0
 13 15  2  0  0  0  0
 14 13  1  0  0  0  0
 15 17  1  0  0  0  0
 15 16  1  0  0  0  0
 17 18  1  0  0  0  0
 19 20  1  0  0  0  0
 19 17  2  0  0  0  0
 21 26  1  0  0  0  0
 21 28  1  0  0  0  0
 22 21  2  0  0  0  0
 23 24  2  0  0  0  0
 23 22  1  0  0  0  0
 24 25  1  0  0  0  0
 25 27  1  0  0  0  0
 25 26  2  0  0  0  0
 27 29  1  0  0  0  0
 30 27  1  0  0  0  0
 31 32  1  0  0  0  0
 31 23  1  0  0  0  0
 33 31  1  0  0  0  0
 34 31  1  0  0  0  0
M  END
>  <minimizedAffinity>
-6.21657467

$$$$

 OpenBabel03262520233D

 34 36  0  0  0  0  0  0  0  0999 V2000
   37.8950   24.8410   33.6910 C   0  0  0  0  0  0  0  0  0  0  0  0
   37.5450   24.1430   32.5410 C   0  0  0  0  0  0  0  0  0  0  0  0
   36.8310   24.6150   31.4880 C   0  0  0  0  0  0  0  0  0  0  0  0
   36.3920   25.8900   31.5150 C   0  0  0  0  0  0  0  0  0  0  0  0
   36.7100   26.5930   32.6120 C   0  0  0  0  0  0  0  0  0  0  0  0
   37.4060   26.0480   33.5780 N   0  0  0  0  0  0  0  0  0  0  0  0
   37.8750   23.0600   32.4350 H   0  0  0  0  0  0  0  0  0  0  0  0
   36.6130   23.9460   30.6080 H   0  0  0  0  0  0  0  0  0  0  0  0
   35.8590   26.2810   30.7130 H   0  0  0  0  0  0  0  0  0  0  0  0
   36.6750   28.7200   30.3240 Cl  0  0  0  0  0  0  0  0  0  0  0  0
   36.3290   29.0340   31.9780 C   0  0  0  0  0  0  0  0  0  0  0  0
   36.3730   28.0160   32.8840 C   0  0  0  0  0  0  0  0  0  0  0  0
   36.0340   28.4280   34.1560 C   0  0  0  0  0  0  0  0  0  0  0  0
   36.0270   27.7100   34.9810 H   0  0  0  0  0  0  0  0  0  0  0  0
   35.6860   29.7120   34.5010 C   0  0  0  0  0  0  0  0  0  0  0  0
   35.4340   29.9530   35.5210 H   0  0  0  0  0  0  0  0  0  0  0  0
   35.6620   30.6940   33.5430 C   0  0  0  0  0  0  0  0  0  0  0  0
   35.3910   31.6770   33.8390 H   0  0  0  0  0  0  0  0  0  0  0  0
   35.9960   30.3130   32.2640 C   0  0  0  0  0  0  0  0  0  0  0  0
   35.9560   31.5870   31.0600 Cl  0  0  0  0  0  0  0  0  0  0  0  0
   38.0340   23.0570   35.2330 C   0  0  0  0  0  0  0  0  0  0  0  0
   38.7050   24.2110   34.7170 C   0  0  0  0  0  0  0  0  0  0  0  0
   39.9360   24.4980   35.2460 C   0  0  0  0  0  0  0  0  0  0  0  0
   40.4140   23.6550   36.2180 N   0  0  0  0  0  0  0  0  0  0  0  0
   39.7840   22.5890   36.6870 C   0  0  0  0  0  0  0  0  0  0  0  0
   38.5830   22.3010   36.1800 N   0  0  0  0  0  0  0  0  0  0  0  0
   40.4410   21.8490   37.6840 N   0  0  0  0  0  0  0  0  0  0  0  0
   37.0610   22.7090   34.9150 H   0  0  0  0  0  0  0  0  0  0  0  0
   40.9610   20.9710   37.4600 H   0  0  0  0  0  0  0  0  0  0  0  0
   40.2940   22.3430   38.5980 H   0  0  0  0  0  0  0  0  0  0  0  0
   40.6720   25.6630   34.7580 C   0  0  0  0  0  0  0  0  0  0  0  0
   41.8930   25.6350   35.2600 F   0  0  0  0  0  0  0  0  0  0  0  0
   40.7250   25.7560   33.3800 F   0  0  0  0  0  0  0  0  0  0  0  0
   40.0610   26.8750   35.1890 F   0  0  0  0  0  0  0  0  0  0  0  0
  1 22  1  0  0  0  0
  2  1  2  0  0  0  0
  3  4  2  0  0  0  0
  3  2  1  0  0  0  0
  4  5  1  0  0  0  0
  5 12  1  0  0  0  0
  5  6  2  0  0  0  0
  6  1  1  0  0  0  0
  7  2  1  0  0  0  0
  8  3  1  0  0  0  0
  9  4  1  0  0  0  0
 10 11  1  0  0  0  0
 11 19  2  0  0  0  0
 11 12  1  0  0  0  0
 12 13  2  0  0  0  0
 13 15  1  0  0  0  0
 13 14  1  0  0  0  0
 15 16  1  0  0  0  0
 17 18  1  0  0  0  0
 17 15  2  0  0  0  0
 19 17  1  0  0  0  0
 20 19  1  0  0  0  0
 21 26  1  0  0  0  0
 22 21  2  0  0  0  0
 22 23  1  0  0  0  0
 23 24  2  0  0  0  0
 24 25  1  0  0  0  0
 25 27  1  0  0  0  0
 26 25  2  0  0  0  0
 27 30  1  0  0  0  0
 28 21  1  0  0  0  0
 29 27  1  0  0  0  0
 31 34  1  0  0  0  0
 31 23  1  0  0  0  0
 31 32  1  0  0  0  0
 33 31  1  0  0  0  0
M  END
>  <minimizedAffinity>
-6.20864725

$$$$

 OpenBabel03262520233D

 34 36  0  0  0  0  0  0  0  0999 V2000
   34.9270   29.4930   33.1280 C   0  0  0  0  0  0  0  0  0  0  0  0
   35.1720   30.2550   31.9910 C   0  0  0  0  0  0  0  0  0  0  0  0
   35.9050   29.8900   30.9090 C   0  0  0  0  0  0  0  0  0  0  0  0
   36.4770   28.6680   30.8890 C   0  0  0  0  0  0  0  0  0  0  0  0
   36.2630   27.9060   31.9720 C   0  0  0  0  0  0  0  0  0  0  0  0
   35.5380   28.3480   32.9690 N   0  0  0  0  0  0  0  0  0  0  0  0
   34.7270   31.2990   31.9240 H   0  0  0  0  0  0  0  0  0  0  0  0
   36.0300   30.6010   30.0450 H   0  0  0  0  0  0  0  0  0  0  0  0
   37.0280   28.3580   30.0650 H   0  0  0  0  0  0  0  0  0  0  0  0
   34.7440   25.4370   30.8080 Cl  0  0  0  0  0  0  0  0  0  0  0  0
   36.1820   25.3670   31.7470 C   0  0  0  0  0  0  0  0  0  0  0  0
   36.7550   26.5210   32.1950 C   0  0  0  0  0  0  0  0  0  0  0  0
   37.9190   26.2920   32.8970 C   0  0  0  0  0  0  0  0  0  0  0  0
   38.4830   27.1330   33.3130 H   0  0  0  0  0  0  0  0  0  0  0  0
   38.4650   25.0540   33.1350 C   0  0  0  0  0  0  0  0  0  0  0  0
   39.3820   24.9600   33.6960 H   0  0  0  0  0  0  0  0  0  0  0  0
   37.8400   23.9290   32.6590 C   0  0  0  0  0  0  0  0  0  0  0  0
   38.2840   22.9850   32.8590 H   0  0  0  0  0  0  0  0  0  0  0  0
   36.6760   24.1250   31.9530 C   0  0  0  0  0  0  0  0  0  0  0  0
   35.8990   22.6720   31.3560 Cl  0  0  0  0  0  0  0  0  0  0  0  0
   32.7250   29.6010   33.9760 C   0  0  0  0  0  0  0  0  0  0  0  0
   34.0810   30.0060   34.1900 C   0  0  0  0  0  0  0  0  0  0  0  0
   34.3330   30.7560   35.3080 C   0  0  0  0  0  0  0  0  0  0  0  0
   33.2660   31.0500   36.1210 N   0  0  0  0  0  0  0  0  0  0  0  0
   32.0160   30.6690   35.9120 C   0  0  0  0  0  0  0  0  0  0  0  0
   31.7590   29.9380   34.8250 N   0  0  0  0  0  0  0  0  0  0  0  0
   31.0610   31.0700   36.8630 N   0  0  0  0  0  0  0  0  0  0  0  0
   32.3760   29.0100   33.1400 H   0  0  0  0  0  0  0  0  0  0  0  0
   30.7310   30.4220   37.6130 H   0  0  0  0  0  0  0  0  0  0  0  0
   30.7990   32.0640   36.6520 H   0  0  0  0  0  0  0  0  0  0  0  0
   35.6990   31.1980   35.5830 C   0  0  0  0  0  0  0  0  0  0  0  0
   35.7020   31.9040   36.6990 F   0  0  0  0  0  0  0  0  0  0  0  0
   36.6160   30.1660   35.6700 F   0  0  0  0  0  0  0  0  0  0  0  0
   36.1860   32.0410   34.5440 F   0  0  0  0  0  0  0  0  0  0  0  0
  1 22  1  0  0  0  0
  2  1  2  0  0  0  0
  3  2  1  0  0  0  0
  4  3  2  0  0  0  0
  4  5  1  0  0  0  0
  5 12  1  0  0  0  0
  5  6  2  0  0  0  0
  6  1  1  0  0  0  0
  7  2  1  0  0  0  0
  8  3  1  0  0  0  0
  9  4  1  0  0  0  0
 10 11  1  0  0  0  0
 11 19  2  0  0  0  0
 11 12  1  0  0  0  0
 12 13  2  0  0  0  0
 13 15  1  0  0  0  0
 13 14  1  0  0  0  0
 15 16  1  0  0  0  0
 17 18  1  0  0  0  0
 17 15  2  0  0  0  0
 19 17  1  0  0  0  0
 20 19  1  0  0  0  0
 21 22  2  0  0  0  0
 21 26  1  0  0  0  0
 22 23  1  0  0  0  0
 23 31  1  0  0  0  0
 23 24  2  0  0  0  0
 25 24  1  0  0  0  0
 25 27  1  0  0  0  0
 26 25  2  0  0  0  0
 27 29  1  0  0  0  0
 28 21  1  0  0  0  0
 30 27  1  0  0  0  0
 31 33  1  0  0  0  0
 31 32  1  0  0  0  0
 34 31  1  0  0  0  0
M  END
>  <minimizedAffinity>
-6.1790328

$$$$

 OpenBabel03262520233D

 34 36  0  0  0  0  0  0  0  0999 V2000
   34.7670   29.7330   33.0070 C   0  0  0  0  0  0  0  0  0  0  0  0
   35.1990   30.5800   31.9940 C   0  0  0  0  0  0  0  0  0  0  0  0
   35.9260   30.2370   30.9010 C   0  0  0  0  0  0  0  0  0  0  0  0
   36.2910   28.9490   30.7360 C   0  0  0  0  0  0  0  0  0  0  0  0
   35.8920   28.1030   31.6970 C   0  0  0  0  0  0  0  0  0  0  0  0
   35.1910   28.5300   32.7170 N   0  0  0  0  0  0  0  0  0  0  0  0
   34.9350   31.6850   32.0530 H   0  0  0  0  0  0  0  0  0  0  0  0
   36.2150   31.0220   30.1460 H   0  0  0  0  0  0  0  0  0  0  0  0
   36.8320   28.6580   29.8980 H   0  0  0  0  0  0  0  0  0  0  0  0
   38.2160   26.9040   33.4070 Cl  0  0  0  0  0  0  0  0  0  0  0  0
   37.1170   25.9950   32.4480 C   0  0  0  0  0  0  0  0  0  0  0  0
   36.1380   26.6370   31.7480 C   0  0  0  0  0  0  0  0  0  0  0  0
   35.3200   25.7630   31.0630 C   0  0  0  0  0  0  0  0  0  0  0  0
   34.4920   26.1450   30.4610 H   0  0  0  0  0  0  0  0  0  0  0  0
   35.4530   24.3950   31.0670 C   0  0  0  0  0  0  0  0  0  0  0  0
   34.7700   23.7790   30.5020 H   0  0  0  0  0  0  0  0  0  0  0  0
   36.4600   23.8080   31.7900 C   0  0  0  0  0  0  0  0  0  0  0  0
   36.5390   22.7480   31.7730 H   0  0  0  0  0  0  0  0  0  0  0  0
   37.2920   24.6550   32.4840 C   0  0  0  0  0  0  0  0  0  0  0  0
   38.5690   23.8780   33.4000 Cl  0  0  0  0  0  0  0  0  0  0  0  0
   32.5720   29.9650   33.8500 C   0  0  0  0  0  0  0  0  0  0  0  0
   33.9540   30.2410   34.0970 C   0  0  0  0  0  0  0  0  0  0  0  0
   34.2550   30.8920   35.2640 C   0  0  0  0  0  0  0  0  0  0  0  0
   33.2080   31.2180   36.0900 N   0  0  0  0  0  0  0  0  0  0  0  0
   31.9320   30.9560   35.8490 C   0  0  0  0  0  0  0  0  0  0  0  0
   31.6280   30.3240   34.7150 N   0  0  0  0  0  0  0  0  0  0  0  0
   31.0040   31.3710   36.8200 N   0  0  0  0  0  0  0  0  0  0  0  0
   32.1850   29.4610   32.9740 H   0  0  0  0  0  0  0  0  0  0  0  0
   30.6140   30.7030   37.5230 H   0  0  0  0  0  0  0  0  0  0  0  0
   30.8260   32.3940   36.6750 H   0  0  0  0  0  0  0  0  0  0  0  0
   35.6500   31.2000   35.5760 C   0  0  0  0  0  0  0  0  0  0  0  0
   35.7020   31.7880   36.7560 F   0  0  0  0  0  0  0  0  0  0  0  0
   36.4860   30.0990   35.5530 F   0  0  0  0  0  0  0  0  0  0  0  0
   36.2010   32.1050   34.6240 F   0  0  0  0  0  0  0  0  0  0  0  0
  1 22  1  0  0  0  0
  2  7  1  0  0  0  0
  2  1  2  0  0  0  0
  3  2  1  0  0  0  0
  4  3  2  0  0  0  0
  4  5  1  0  0  0  0
  5 12  1  0  0  0  0
  5  6  2  0  0  0  0
  6  1  1  0  0  0  0
  8  3  1  0  0  0  0
  9  4  1  0  0  0  0
 11 19  1  0  0  0  0
 11 10  1  0  0  0  0
 12 11  2  0  0  0  0
 13 15  2  0  0  0  0
 13 12  1  0  0  0  0
 14 13  1  0  0  0  0
 15 17  1  0  0  0  0
 16 15  1  0  0  0  0
 17 19  2  0  0  0  0
 18 17  1  0  0  0  0
 19 20  1  0  0  0  0
 21 22  2  0  0  0  0
 21 26  1  0  0  0  0
 22 23  1  0  0  0  0
 23 31  1  0  0  0  0
 23 24  2  0  0  0  0
 25 24  1  0  0  0  0
 25 27  1  0  0  0  0
 26 25  2  0  0  0  0
 27 29  1  0  0  0  0
 28 21  1  0  0  0  0
 30 27  1  0  0  0  0
 31 32  1  0  0  0  0
 33 31  1  0  0  0  0
 34 31  1  0  0  0  0
M  END
>  <minimizedAffinity>
-6.17554569

$$$$

 OpenBabel03262520233D

 34 36  0  0  0  0  0  0  0  0999 V2000
   37.7400   24.1970   33.3490 C   0  0  0  0  0  0  0  0  0  0  0  0
   37.0330   23.2130   32.6670 C   0  0  0  0  0  0  0  0  0  0  0  0
   36.5180   23.3000   31.4150 C   0  0  0  0  0  0  0  0  0  0  0  0
   36.6840   24.4430   30.7180 C   0  0  0  0  0  0  0  0  0  0  0  0
   37.3610   25.4160   31.3470 C   0  0  0  0  0  0  0  0  0  0  0  0
   37.8210   25.2360   32.5590 N   0  0  0  0  0  0  0  0  0  0  0  0
   36.8470   22.2150   33.1810 H   0  0  0  0  0  0  0  0  0  0  0  0
   35.9630   22.4270   30.9710 H   0  0  0  0  0  0  0  0  0  0  0  0
   36.3150   24.5290   29.7510 H   0  0  0  0  0  0  0  0  0  0  0  0
   35.5620   27.9070   31.9140 Cl  0  0  0  0  0  0  0  0  0  0  0  0
   36.9990   27.9130   30.9710 C   0  0  0  0  0  0  0  0  0  0  0  0
   37.7020   26.7560   30.8000 C   0  0  0  0  0  0  0  0  0  0  0  0
   38.8450   26.9410   30.0530 C   0  0  0  0  0  0  0  0  0  0  0  0
   39.5040   26.0940   29.8400 H   0  0  0  0  0  0  0  0  0  0  0  0
   39.2560   28.1420   29.5250 C   0  0  0  0  0  0  0  0  0  0  0  0
   40.1660   28.2020   28.9490 H   0  0  0  0  0  0  0  0  0  0  0  0
   38.5030   29.2710   29.7310 C   0  0  0  0  0  0  0  0  0  0  0  0
   38.8450   30.1850   29.3100 H   0  0  0  0  0  0  0  0  0  0  0  0
   37.3570   29.1180   30.4740 C   0  0  0  0  0  0  0  0  0  0  0  0
   36.4150   30.5760   30.7210 Cl  0  0  0  0  0  0  0  0  0  0  0  0
   38.6270   22.5580   34.8020 C   0  0  0  0  0  0  0  0  0  0  0  0
   38.2700   23.9390   34.6750 C   0  0  0  0  0  0  0  0  0  0  0  0
   38.4910   24.7370   35.7660 C   0  0  0  0  0  0  0  0  0  0  0  0
   39.0340   24.1440   36.8790 N   0  0  0  0  0  0  0  0  0  0  0  0
   39.3610   22.8650   36.9830 C   0  0  0  0  0  0  0  0  0  0  0  0
   39.1490   22.0780   35.9260 N   0  0  0  0  0  0  0  0  0  0  0  0
   39.9080   22.4460   38.2080 N   0  0  0  0  0  0  0  0  0  0  0  0
   38.5090   21.8120   34.0280 H   0  0  0  0  0  0  0  0  0  0  0  0
   40.9380   22.3260   38.3340 H   0  0  0  0  0  0  0  0  0  0  0  0
   39.1150   22.3030   38.8800 H   0  0  0  0  0  0  0  0  0  0  0  0
   38.1500   26.1570   35.6980 C   0  0  0  0  0  0  0  0  0  0  0  0
   38.2630   26.6800   36.9050 F   0  0  0  0  0  0  0  0  0  0  0  0
   38.9110   26.8740   34.7940 F   0  0  0  0  0  0  0  0  0  0  0  0
   36.8010   26.3420   35.2770 F   0  0  0  0  0  0  0  0  0  0  0  0
  1 22  1  0  0  0  0
  2  7  1  0  0  0  0
  2  1  1  0  0  0  0
  3  2  2  0  0  0  0
  4  5  2  0  0  0  0
  4  3  1  0  0  0  0
  5  6  1  0  0  0  0
  6  1  2  0  0  0  0
  8  3  1  0  0  0  0
  9  4  1  0  0  0  0
 11 10  1  0  0  0  0
 12 11  1  0  0  0  0
 12  5  1  0  0  0  0
 13 12  2  0  0  0  0
 14 13  1  0  0  0  0
 15 17  2  0  0  0  0
 15 13  1  0  0  0  0
 16 15  1  0  0  0  0
 17 19  1  0  0  0  0
 18 17  1  0  0  0  0
 19 20  1  0  0  0  0
 19 11  2  0  0  0  0
 21 26  1  0  0  0  0
 22 21  2  0  0  0  0
 22 23  1  0  0  0  0
 23 24  2  0  0  0  0
 24 25  1  0  0  0  0
 25 27  1  0  0  0  0
 26 25  2  0  0  0  0
 27 29  1  0  0  0  0
 27 30  1  0  0  0  0
 28 21  1  0  0  0  0
 31 23  1  0  0  0  0
 31 32  1  0  0  0  0
 33 31  1  0  0  0  0
 34 31  1  0  0  0  0
M  END
>  <minimizedAffinity>
-6.10966349

$$$$
