
 OpenBabel03272507143D

 42 46  0  0  0  0  0  0  0  0999 V2000
   35.7290   29.0760   49.8250 C   0  0  0  0  0  0  0  0  0  0  0  0
   34.7120   29.5490   50.5900 C   0  0  0  0  0  0  0  0  0  0  0  0
   33.5400   28.9640   50.1090 C   0  0  0  0  0  0  0  0  0  0  0  0
   33.9390   28.1450   49.0450 C   0  0  0  0  0  0  0  0  0  0  0  0
   35.2270   28.2630   48.9390 O   0  0  0  0  0  0  0  0  0  0  0  0
   34.7610   30.2470   51.4240 H   0  0  0  0  0  0  0  0  0  0  0  0
   32.5780   29.1670   50.5380 H   0  0  0  0  0  0  0  0  0  0  0  0
   33.3790   26.3310   47.4350 C   0  0  0  0  0  0  0  0  0  0  0  0
   32.9860   27.3470   48.2660 C   0  0  0  0  0  0  0  0  0  0  0  0
   31.6470   27.6870   48.4280 C   0  0  0  0  0  0  0  0  0  0  0  0
   30.7170   26.9480   47.7110 C   0  0  0  0  0  0  0  0  0  0  0  0
   29.3830   27.0540   47.6800 N   0  0  0  0  0  0  0  0  0  0  0  0
   28.9380   26.1160   46.8420 N   0  0  0  0  0  0  0  0  0  0  0  0
   29.9730   25.4310   46.3540 C   0  0  0  0  0  0  0  0  0  0  0  0
   31.1560   25.9340   46.8870 C   0  0  0  0  0  0  0  0  0  0  0  0
   32.4920   25.5990   46.7270 C   0  0  0  0  0  0  0  0  0  0  0  0
   34.4600   26.1470   47.3800 H   0  0  0  0  0  0  0  0  0  0  0  0
   31.2680   28.4830   49.0710 H   0  0  0  0  0  0  0  0  0  0  0  0
   28.7490   27.7160   48.1860 H   0  0  0  0  0  0  0  0  0  0  0  0
   29.9740   24.5930   45.6410 H   0  0  0  0  0  0  0  0  0  0  0  0
   32.7920   24.7940   46.0680 H   0  0  0  0  0  0  0  0  0  0  0  0
   37.1100   29.4800   50.0480 C   0  0  0  0  0  0  0  0  0  0  0  0
   37.7890   28.8740   50.9200 O   0  0  0  0  0  0  0  0  0  0  0  0
   37.6240   30.5650   49.2450 C   0  0  0  0  0  0  0  0  0  0  0  0
   38.2940   31.5800   49.9070 C   0  0  0  0  0  0  0  0  0  0  0  0
   38.8050   32.6430   49.1710 C   0  0  0  0  0  0  0  0  0  0  0  0
   38.6100   32.6150   47.8220 N   0  0  0  0  0  0  0  0  0  0  0  0
   37.9600   31.6230   47.2010 C   0  0  0  0  0  0  0  0  0  0  0  0
   37.4750   30.6100   47.9230 N   0  0  0  0  0  0  0  0  0  0  0  0
   38.4740   31.6520   50.9570 H   0  0  0  0  0  0  0  0  0  0  0  0
   39.3420   33.4700   49.6430 H   0  0  0  0  0  0  0  0  0  0  0  0
   39.8970   33.3210   45.7920 Cl  0  0  0  0  0  0  0  0  0  0  0  0
   38.6290   32.4100   44.9700 C   0  0  0  0  0  0  0  0  0  0  0  0
   37.7810   31.6480   45.7520 C   0  0  0  0  0  0  0  0  0  0  0  0
   36.7750   30.9180   45.1570 C   0  0  0  0  0  0  0  0  0  0  0  0
   36.0880   30.3080   45.7300 H   0  0  0  0  0  0  0  0  0  0  0  0
   36.6160   30.9520   43.7680 C   0  0  0  0  0  0  0  0  0  0  0  0
   35.8390   30.3980   43.2260 H   0  0  0  0  0  0  0  0  0  0  0  0
   37.4880   31.7270   43.0340 C   0  0  0  0  0  0  0  0  0  0  0  0
   37.3740   31.7600   41.9610 H   0  0  0  0  0  0  0  0  0  0  0  0
   38.4930   32.4590   43.6100 C   0  0  0  0  0  0  0  0  0  0  0  0
   39.6200   33.4570   42.6920 Cl  0  0  0  0  0  0  0  0  0  0  0  0
  1 22  1  0  0  0  0
  1  2  2  0  0  0  0
  2  6  1  0  0  0  0
  3  7  1  0  0  0  0
  3  2  1  0  0  0  0
  4  3  2  0  0  0  0
  5  4  1  0  0  0  0
  5  1  1  0  0  0  0
  8  9  1  0  0  0  0
  9 10  2  0  0  0  0
  9  4  1  0  0  0  0
 10 18  1  0  0  0  0
 11 10  1  0  0  0  0
 12 11  1  0  0  0  0
 12 19  1  0  0  0  0
 13 12  1  0  0  0  0
 14 13  2  0  0  0  0
 14 15  1  0  0  0  0
 15 11  2  0  0  0  0
 16 15  1  0  0  0  0
 16  8  2  0  0  0  0
 17  8  1  0  0  0  0
 20 14  1  0  0  0  0
 21 16  1  0  0  0  0
 22 23  2  0  0  0  0
 24 25  1  0  0  0  0
 24 22  1  0  0  0  0
 25 30  1  0  0  0  0
 26 31  1  0  0  0  0
 26 25  2  0  0  0  0
 27 26  1  0  0  0  0
 28 27  2  0  0  0  0
 28 29  1  0  0  0  0
 29 24  2  0  0  0  0
 33 34  1  0  0  0  0
 33 32  1  0  0  0  0
 34 28  1  0  0  0  0
 35 36  1  0  0  0  0
 35 34  2  0  0  0  0
 37 35  1  0  0  0  0
 38 37  1  0  0  0  0
 39 41  1  0  0  0  0
 39 37  2  0  0  0  0
 40 39  1  0  0  0  0
 41 33  2  0  0  0  0
 42 41  1  0  0  0  0
M  END
>  <minimizedAffinity>
-7.18201256

>  <minimizedRMSD>
0.76704675

$$$$
