
 OpenBabel03272502533D

 29 31  0  0  0  0  0  0  0  0999 V2000
   35.9520   30.4110   48.7820 C   0  0  0  0  0  0  0  0  0  0  0  0
   35.5260   30.0850   50.0640 C   0  0  0  0  0  0  0  0  0  0  0  0
   34.4970   29.1860   50.2610 C   0  0  0  0  0  0  0  0  0  0  0  0
   33.9260   28.6400   49.1380 C   0  0  0  0  0  0  0  0  0  0  0  0
   34.3390   28.9550   47.8540 C   0  0  0  0  0  0  0  0  0  0  0  0
   35.3660   29.8530   47.6940 N   0  0  0  0  0  0  0  0  0  0  0  0
   36.0420   30.5710   50.9000 H   0  0  0  0  0  0  0  0  0  0  0  0
   34.1980   28.9610   51.2680 H   0  0  0  0  0  0  0  0  0  0  0  0
   33.1250   27.9400   49.3020 H   0  0  0  0  0  0  0  0  0  0  0  0
   32.6330   30.8440   46.2400 Cl  0  0  0  0  0  0  0  0  0  0  0  0
   32.9300   29.1420   45.8480 C   0  0  0  0  0  0  0  0  0  0  0  0
   33.7310   28.3740   46.6640 C   0  0  0  0  0  0  0  0  0  0  0  0
   33.8980   27.0640   46.2720 C   0  0  0  0  0  0  0  0  0  0  0  0
   34.5080   26.4100   46.8590 H   0  0  0  0  0  0  0  0  0  0  0  0
   33.3290   26.5060   45.1500 C   0  0  0  0  0  0  0  0  0  0  0  0
   33.4850   25.4670   44.8730 H   0  0  0  0  0  0  0  0  0  0  0  0
   32.5260   27.3100   44.3490 C   0  0  0  0  0  0  0  0  0  0  0  0
   32.0400   26.9720   43.4600 H   0  0  0  0  0  0  0  0  0  0  0  0
   32.3310   28.6300   44.7050 C   0  0  0  0  0  0  0  0  0  0  0  0
   31.3180   29.6820   43.7130 Cl  0  0  0  0  0  0  0  0  0  0  0  0
   38.2470   33.1980   49.3840 C   0  0  0  0  0  0  0  0  0  0  0  0
   39.0860   33.1590   48.2460 C   0  0  0  0  0  0  0  0  0  0  0  0
   38.8460   32.1620   47.2800 C   0  0  0  0  0  0  0  0  0  0  0  0
   37.8160   31.3160   47.5290 N   0  0  0  0  0  0  0  0  0  0  0  0
   37.0330   31.3640   48.6050 C   0  0  0  0  0  0  0  0  0  0  0  0
   37.2660   32.3080   49.5120 N   0  0  0  0  0  0  0  0  0  0  0  0
   38.4290   33.9750   50.1430 H   0  0  0  0  0  0  0  0  0  0  0  0
   39.8950   33.8560   48.0950 H   0  0  0  0  0  0  0  0  0  0  0  0
   39.4660   32.1190   46.4210 H   0  0  0  0  0  0  0  0  0  0  0  0
  1  2  1  0  0  0  0
  2  3  2  0  0  0  0
  2  7  1  0  0  0  0
  3  8  1  0  0  0  0
  4  9  1  0  0  0  0
  4  3  1  0  0  0  0
  5  4  2  0  0  0  0
  6  5  1  0  0  0  0
  6  1  2  0  0  0  0
 11 10  1  0  0  0  0
 11 12  1  0  0  0  0
 12  5  1  0  0  0  0
 13 12  2  0  0  0  0
 13 14  1  0  0  0  0
 15 13  1  0  0  0  0
 16 15  1  0  0  0  0
 17 19  1  0  0  0  0
 17 15  2  0  0  0  0
 18 17  1  0  0  0  0
 19 11  2  0  0  0  0
 20 19  1  0  0  0  0
 21 26  1  0  0  0  0
 21 27  1  0  0  0  0
 22 21  2  0  0  0  0
 23 24  2  0  0  0  0
 23 22  1  0  0  0  0
 24 25  1  0  0  0  0
 25  1  1  0  0  0  0
 25 26  2  0  0  0  0
 28 22  1  0  0  0  0
 29 23  1  0  0  0  0
M  END
>  <minimizedAffinity>
-5.31071711

>  <minimizedRMSD>
1.43066466

$$$$
