
     RDKit          3D

 31 33  0  0  0  0  0  0  0  0999 V2000
   37.2825   29.4527   51.1179 Br  0  0  0  0  0  0  0  0  0  0  0  0
   35.9976   29.3259   49.7062 C   0  0  0  0  0  0  0  0  0  0  0  0
   36.0182   30.2040   48.6343 C   0  0  0  0  0  0  0  0  0  0  0  0
   35.0575   30.0382   47.6650 C   0  0  0  0  0  0  0  0  0  0  0  0
   34.0923   29.0476   47.7210 C   0  0  0  0  0  0  0  0  0  0  0  0
   34.1020   28.1938   48.7997 C   0  0  0  0  0  0  0  0  0  0  0  0
   35.0652   28.3386   49.7982 C   0  0  0  0  0  0  0  0  0  0  0  0
   37.8640   33.2443   49.4642 C   0  0  0  0  0  0  0  0  0  0  0  0
   38.8945   33.2755   48.5102 C   0  0  0  0  0  0  0  0  0  0  0  0
   38.9445   32.2528   47.5872 C   0  0  0  0  0  0  0  0  0  0  0  0
   38.0005   31.2488   47.6280 N   0  0  0  0  0  0  0  0  0  0  0  0
   37.0262   31.2522   48.5595 C   0  0  0  0  0  0  0  0  0  0  0  0
   36.9453   32.2543   49.4929 N   0  0  0  0  0  0  0  0  0  0  0  0
   39.7948   34.2954   48.5297 O   0  0  0  0  0  0  0  0  0  0  0  0
   35.0704   30.7215   46.8270 H   0  0  0  0  0  0  0  0  0  0  0  0
   33.3882   28.9929   46.9271 H   0  0  0  0  0  0  0  0  0  0  0  0
   33.3474   27.4376   48.8208 H   0  0  0  0  0  0  0  0  0  0  0  0
   34.9889   27.6173   50.6062 H   0  0  0  0  0  0  0  0  0  0  0  0
   37.7190   33.9924   50.2319 H   0  0  0  0  0  0  0  0  0  0  0  0
   39.7276   32.2399   46.8298 H   0  0  0  0  0  0  0  0  0  0  0  0
   40.3714   33.2024   51.3053 Cl  0  0  0  0  0  0  0  0  0  0  0  0
   40.1462   34.8441   50.7387 C   0  0  0  0  0  0  0  0  0  0  0  0
   39.8859   35.2952   49.4395 C   0  0  0  0  0  0  0  0  0  0  0  0
   39.7590   36.6560   49.2476 C   0  0  0  0  0  0  0  0  0  0  0  0
   39.5582   36.9145   48.2092 H   0  0  0  0  0  0  0  0  0  0  0  0
   39.8716   37.5927   50.2491 C   0  0  0  0  0  0  0  0  0  0  0  0
   39.7477   38.6270   49.9471 H   0  0  0  0  0  0  0  0  0  0  0  0
   40.1278   37.1384   51.5254 C   0  0  0  0  0  0  0  0  0  0  0  0
   40.2082   37.9076   52.2802 H   0  0  0  0  0  0  0  0  0  0  0  0
   40.2630   35.7867   51.7669 C   0  0  0  0  0  0  0  0  0  0  0  0
   40.5853   35.3944   53.4423 Cl  0  0  0  0  0  0  0  0  0  0  0  0
  2  7  2  0
  2  1  1  0
  3  2  1  0
  4  5  1  0
  4  3  2  0
  5  6  2  0
  6  7  1  0
  8 13  2  0
  9 14  1  0
  9  8  1  0
 10 11  1  0
 10  9  2  0
 11 12  2  0
 12  3  1  0
 12 13  1  0
  4 15  1  0
  5 16  1  0
  6 17  1  0
  7 18  1  0
  8 19  1  0
 10 20  1  0
 21 22  1  0
 22 23  2  0
 23 24  1  0
 24 25  1  0
 24 26  2  0
 26 27  1  0
 26 28  1  0
 28 29  1  0
 28 30  2  0
 30 31  1  0
 30 22  1  0
 14 23  1  0
M  ISO  8  15  14  16  14  17  14  18  14  19  14  20  14  25  15  27  15
M  ISO  1  29  15
M  END
>  <DihAtoms>  (1) 
8,13,22,21

>  <DihDeg>  (1) 
61.577406444286886

$$$$
