
 OpenBabel03272507343D

 38 41  0  0  1  0  0  0  0  0999 V2000
   33.0180   27.7080   48.3810 C   0  0  0  0  0  0  0  0  0  0  0  0
   31.8640   27.4950   48.8710 O   0  0  0  0  0  0  0  0  0  0  0  0
   35.9030   29.2260   49.8530 C   0  0  0  0  0  0  0  0  0  0  0  0
   34.9450   29.7230   50.7070 C   0  0  0  0  0  0  0  0  0  0  0  0
   33.7040   29.2260   50.2820 C   0  0  0  0  0  0  0  0  0  0  0  0
   33.9920   28.4490   49.1800 C   0  0  0  0  0  0  0  0  0  0  0  0
   35.2900   28.4790   48.9670 O   0  0  0  0  0  0  0  0  0  0  0  0
   35.0210   30.3810   51.5800 H   0  0  0  0  0  0  0  0  0  0  0  0
   32.7420   29.4230   50.7320 H   0  0  0  0  0  0  0  0  0  0  0  0
   37.3170   29.5380   49.9990 C   0  0  0  0  0  0  0  0  0  0  0  0
   37.9940   28.9050   50.8200 O   0  0  0  0  0  0  0  0  0  0  0  0
   37.8430   30.5840   49.1670 C   0  0  0  0  0  0  0  0  0  0  0  0
   38.2020   31.7660   49.7870 C   0  0  0  0  0  0  0  0  0  0  0  0
   38.7150   32.8060   49.0070 C   0  0  0  0  0  0  0  0  0  0  0  0
   38.8350   32.5940   47.6560 N   0  0  0  0  0  0  0  0  0  0  0  0
   38.4790   31.4400   47.0870 C   0  0  0  0  0  0  0  0  0  0  0  0
   37.9860   30.4380   47.8300 N   0  0  0  0  0  0  0  0  0  0  0  0
   38.1140   31.9550   50.8570 H   0  0  0  0  0  0  0  0  0  0  0  0
   39.0180   33.7600   49.4140 H   0  0  0  0  0  0  0  0  0  0  0  0
   38.5570   31.2330   46.0320 H   0  0  0  0  0  0  0  0  0  0  0  0
   33.3870   27.2090   47.0140 C   0  0  1  0  0  0  0  0  0  0  0  0
   33.1120   25.6600   46.9310 C   0  0  0  0  0  0  0  0  0  0  0  0
   32.3780   26.6520   46.1110 C   0  0  1  0  0  0  0  0  0  0  0  0
   34.4690   27.3570   46.7630 H   0  0  0  0  0  0  0  0  0  0  0  0
   33.8610   25.0370   46.4470 H   0  0  0  0  0  0  0  0  0  0  0  0
   32.5130   25.2130   47.7370 H   0  0  0  0  0  0  0  0  0  0  0  0
   32.5900   26.6320   45.0330 H   0  0  0  0  0  0  0  0  0  0  0  0
   31.7400   29.3120   45.0180 Cl  0  0  0  0  0  0  0  0  0  0  0  0
   30.6190   28.2840   45.9200 C   0  0  0  0  0  0  0  0  0  0  0  0
   30.9790   27.0250   46.4170 C   0  0  0  0  0  0  0  0  0  0  0  0
   29.9990   26.3320   47.1040 C   0  0  0  0  0  0  0  0  0  0  0  0
   30.3590   25.3650   47.4570 H   0  0  0  0  0  0  0  0  0  0  0  0
   28.7550   26.8590   47.2770 C   0  0  0  0  0  0  0  0  0  0  0  0
   28.0500   26.2440   47.8290 H   0  0  0  0  0  0  0  0  0  0  0  0
   28.4010   28.0990   46.7860 C   0  0  0  0  0  0  0  0  0  0  0  0
   27.4100   28.5070   46.9310 H   0  0  0  0  0  0  0  0  0  0  0  0
   29.3610   28.8130   46.0970 C   0  0  0  0  0  0  0  0  0  0  0  0
   28.9020   30.3870   45.4770 Cl  0  0  0  0  0  0  0  0  0  0  0  0
  1  2  2  0  0  0  0
  1  6  1  0  0  0  0
  3 10  1  0  0  0  0
  3  4  2  0  0  0  0
  4  8  1  0  0  0  0
  5  4  1  0  0  0  0
  5  9  1  0  0  0  0
  6  5  2  0  0  0  0
  7  6  1  0  0  0  0
  7  3  1  0  0  0  0
 10 11  2  0  0  0  0
 12 13  1  0  0  0  0
 12 10  1  0  0  0  0
 13 18  1  0  0  0  0
 14 19  1  0  0  0  0
 14 13  2  0  0  0  0
 15 14  1  0  0  0  0
 16 15  2  0  0  0  0
 16 17  1  0  0  0  0
 17 12  2  0  0  0  0
 20 16  1  0  0  0  0
 21 24  1  6  0  0  0
 21  1  1  0  0  0  0
 22 21  1  0  0  0  0
 22 26  1  0  0  0  0
 23 27  1  6  0  0  0
 23 30  1  0  0  0  0
 23 22  1  0  0  0  0
 23 21  1  0  0  0  0
 25 22  1  0  0  0  0
 28 29  1  0  0  0  0
 29 37  2  0  0  0  0
 29 30  1  0  0  0  0
 30 31  2  0  0  0  0
 31 33  1  0  0  0  0
 31 32  1  0  0  0  0
 33 34  1  0  0  0  0
 35 36  1  0  0  0  0
 35 33  2  0  0  0  0
 37 35  1  0  0  0  0
 38 37  1  0  0  0  0
M  END
>  <minimizedAffinity>
-5.52590418

>  <minimizedRMSD>
0.940635622

$$$$
