
     RDKit          3D

 38 41  0  0  0  0  0  0  0  0999 V2000
   35.8224   29.1395   49.8036 C   0  0  0  0  0  0  0  0  0  0  0  0
   34.8021   29.6615   50.5672 C   0  0  0  0  0  0  0  0  0  0  0  0
   33.5991   29.1227   50.0867 C   0  0  0  0  0  0  0  0  0  0  0  0
   33.9705   28.2960   49.0481 C   0  0  0  0  0  0  0  0  0  0  0  0
   35.2790   28.3385   48.9195 O   0  0  0  0  0  0  0  0  0  0  0  0
   37.2177   29.4842   50.0265 C   0  0  0  0  0  0  0  0  0  0  0  0
   37.8610   28.8742   50.8897 O   0  0  0  0  0  0  0  0  0  0  0  0
   37.7676   30.5315   49.2128 C   0  0  0  0  0  0  0  0  0  0  0  0
   38.1186   31.7082   49.8493 C   0  0  0  0  0  0  0  0  0  0  0  0
   38.6548   32.7509   49.0880 C   0  0  0  0  0  0  0  0  0  0  0  0
   38.8046   32.5475   47.7385 N   0  0  0  0  0  0  0  0  0  0  0  0
   38.4559   31.3991   47.1542 C   0  0  0  0  0  0  0  0  0  0  0  0
   37.9413   30.3953   47.8787 N   0  0  0  0  0  0  0  0  0  0  0  0
   33.0617   27.4993   48.2263 C   0  0  0  0  0  0  0  0  0  0  0  0
   31.8433   27.4092   48.5768 O   0  0  0  0  0  0  0  0  0  0  0  0
   33.5717   26.8000   46.9988 C   0  0  1  0  0  0  0  0  0  0  0  0
   33.7714   25.2687   47.3140 C   0  0  0  0  0  0  0  0  0  0  0  0
   32.7803   25.7657   46.3314 C   0  0  1  0  0  0  0  0  0  0  0  0
   34.8112   30.3651   51.4077 H   0  0  0  0  0  0  0  0  0  0  0  0
   32.6070   29.3245   50.4627 H   0  0  0  0  0  0  0  0  0  0  0  0
   38.0083   31.8908   50.9179 H   0  0  0  0  0  0  0  0  0  0  0  0
   38.9536   33.6995   49.5076 H   0  0  0  0  0  0  0  0  0  0  0  0
   38.5572   31.1990   46.0987 H   0  0  0  0  0  0  0  0  0  0  0  0
   34.5626   27.1871   46.6463 H   0  0  0  0  0  0  0  0  0  0  0  0
   34.6752   24.7892   46.9446 H   0  0  0  0  0  0  0  0  0  0  0  0
   33.3266   24.8871   48.2440 H   0  0  0  0  0  0  0  0  0  0  0  0
   32.9960   25.5369   45.2775 H   0  0  0  0  0  0  0  0  0  0  0  0
   31.7853   23.0407   46.8453 Cl  0  0  0  0  0  0  0  0  0  0  0  0
   30.8033   24.5119   46.8872 C   0  0  0  0  0  0  0  0  0  0  0  0
   31.3321   25.7828   46.6332 C   0  0  0  0  0  0  0  0  0  0  0  0
   30.4453   26.8429   46.7011 C   0  0  0  0  0  0  0  0  0  0  0  0
   30.9360   27.7941   46.4910 H   0  0  0  0  0  0  0  0  0  0  0  0
   29.1323   26.6425   47.0004 C   0  0  0  0  0  0  0  0  0  0  0  0
   28.5103   27.5325   47.0317 H   0  0  0  0  0  0  0  0  0  0  0  0
   28.6121   25.3891   47.2507 C   0  0  0  0  0  0  0  0  0  0  0  0
   27.5663   25.2445   47.4874 H   0  0  0  0  0  0  0  0  0  0  0  0
   29.4744   24.3136   47.1896 C   0  0  0  0  0  0  0  0  0  0  0  0
   28.8047   22.7257   47.5089 Cl  0  0  0  0  0  0  0  0  0  0  0  0
  1  6  1  0
  1  2  2  0
  3  2  1  0
  4  3  2  0
  5  4  1  0
  5  1  1  0
  6  7  2  0
  8  9  2  0
  8  6  1  0
 10  9  1  0
 11 10  2  0
 12 11  1  0
 12 13  2  0
 13  8  1  0
 14 15  2  0
 14  4  1  0
 16 17  1  0
 16 14  1  0
 18 16  1  0
 18 17  1  0
  2 19  1  0
  3 20  1  0
  9 21  1  0
 10 22  1  0
 12 23  1  0
 16 24  1  6
 17 25  1  0
 17 26  1  0
 18 27  1  6
 28 29  1  0
 29 30  2  0
 30 31  1  0
 31 32  1  0
 31 33  2  0
 33 34  1  0
 33 35  1  0
 35 36  1  0
 35 37  2  0
 37 38  1  0
 37 29  1  0
 18 30  1  0
M  ISO  8  19  14  20  14  21  14  22  14  23  14  24  13  25  13  26  13
M  ISO  4  27  13  32  15  34  15  36  15
M  END
>  <DihAtoms>  (1) 
15,17,29,28

>  <DihDeg>  (1) 
89.32525928505667

$$$$
