
 OpenBabel03272501273D

 41 44  0  0  1  0  0  0  0  0999 V2000
   34.9890   30.0040   47.1700 C   0  0  0  0  0  0  0  0  0  0  0  0
   35.6620   30.0850   45.9380 C   0  0  0  0  0  0  0  0  0  0  0  0
   36.8650   30.7590   46.1760 C   0  0  0  0  0  0  0  0  0  0  0  0
   36.8760   31.0510   47.4840 N   0  0  0  0  0  0  0  0  0  0  0  0
   35.7620   30.5940   48.0420 N   0  0  0  0  0  0  0  0  0  0  0  0
   35.3720   29.7180   44.9470 H   0  0  0  0  0  0  0  0  0  0  0  0
   37.6400   31.0110   45.4880 H   0  0  0  0  0  0  0  0  0  0  0  0
   38.5860   32.7450   47.4830 N   0  0  0  0  0  0  0  0  0  0  0  0
   39.2290   33.5740   48.4900 C   0  0  0  0  0  0  0  0  0  0  0  0
   38.5470   33.2920   49.8070 C   0  0  0  0  0  0  0  0  0  0  0  0
   37.3000   32.5350   49.3510 C   0  0  0  0  0  0  0  0  0  0  0  0
   37.8760   31.7320   48.2290 C   0  0  1  0  0  0  0  0  0  0  0  0
   39.2520   32.3750   46.7880 H   0  0  0  0  0  0  0  0  0  0  0  0
   39.2480   34.6400   48.2420 H   0  0  0  0  0  0  0  0  0  0  0  0
   40.2860   33.1870   48.5980 H   0  0  0  0  0  0  0  0  0  0  0  0
   39.1320   32.5650   50.4350 H   0  0  0  0  0  0  0  0  0  0  0  0
   38.2720   34.2010   50.3530 H   0  0  0  0  0  0  0  0  0  0  0  0
   36.6140   33.3110   48.9310 H   0  0  0  0  0  0  0  0  0  0  0  0
   36.8410   31.9540   50.1530 H   0  0  0  0  0  0  0  0  0  0  0  0
   38.7880   30.7470   48.7910 N   0  0  0  0  0  0  0  0  0  0  0  0
   38.3690   30.2980   49.6370 H   0  0  0  0  0  0  0  0  0  0  0  0
   39.0360   30.0080   48.1010 H   0  0  0  0  0  0  0  0  0  0  0  0
   33.4460   28.3060   48.1630 C   0  0  0  0  0  0  0  0  0  0  0  0
   33.6970   29.3580   47.2790 C   0  0  0  0  0  0  0  0  0  0  0  0
   32.6340   29.7760   46.4850 C   0  0  0  0  0  0  0  0  0  0  0  0
   31.4400   29.1470   46.6140 N   0  0  0  0  0  0  0  0  0  0  0  0
   31.2390   28.1360   47.4810 C   0  0  0  0  0  0  0  0  0  0  0  0
   32.2800   27.7050   48.2800 N   0  0  0  0  0  0  0  0  0  0  0  0
   34.2680   27.9750   48.7860 H   0  0  0  0  0  0  0  0  0  0  0  0
   32.7490   30.5880   45.7710 H   0  0  0  0  0  0  0  0  0  0  0  0
   30.0070   28.3140   50.1540 Cl  0  0  0  0  0  0  0  0  0  0  0  0
   29.2630   27.5040   48.7820 C   0  0  0  0  0  0  0  0  0  0  0  0
   29.9390   27.4890   47.5870 C   0  0  0  0  0  0  0  0  0  0  0  0
   29.4430   26.8830   46.4580 C   0  0  0  0  0  0  0  0  0  0  0  0
   29.9140   26.8360   45.5020 H   0  0  0  0  0  0  0  0  0  0  0  0
   28.1980   26.2540   46.5210 C   0  0  0  0  0  0  0  0  0  0  0  0
   27.6600   25.7340   45.7430 H   0  0  0  0  0  0  0  0  0  0  0  0
   27.5180   26.2730   47.7430 C   0  0  0  0  0  0  0  0  0  0  0  0
   26.5400   25.8110   47.8980 H   0  0  0  0  0  0  0  0  0  0  0  0
   28.0340   26.8870   48.8610 C   0  0  0  0  0  0  0  0  0  0  0  0
   27.2250   26.9380   50.4050 Cl  0  0  0  0  0  0  0  0  0  0  0  0
  1 24  1  0  0  0  0
  1  5  2  0  0  0  0
  2  3  2  0  0  0  0
  2  1  1  0  0  0  0
  3  4  1  0  0  0  0
  4  5  1  0  0  0  0
  4 12  1  0  0  0  0
  6  2  1  0  0  0  0
  7  3  1  0  0  0  0
  8 12  1  0  0  0  0
  8  9  1  0  0  0  0
  9 15  1  0  0  0  0
  9 10  1  0  0  0  0
 10 17  1  0  0  0  0
 10 16  1  0  0  0  0
 11 10  1  0  0  0  0
 11 19  1  0  0  0  0
 12 20  1  1  0  0  0
 12 11  1  0  0  0  0
 13  8  1  0  0  0  0
 14  9  1  0  0  0  0
 18 11  1  0  0  0  0
 20 21  1  0  0  0  0
 22 20  1  0  0  0  0
 23 28  1  0  0  0  0
 23 29  1  0  0  0  0
 24 23  2  0  0  0  0
 25 26  2  0  0  0  0
 25 24  1  0  0  0  0
 26 27  1  0  0  0  0
 27 33  1  0  0  0  0
 27 28  2  0  0  0  0
 30 25  1  0  0  0  0
 32 40  1  0  0  0  0
 32 31  1  0  0  0  0
 33 32  2  0  0  0  0
 34 36  2  0  0  0  0
 34 33  1  0  0  0  0
 35 34  1  0  0  0  0
 36 38  1  0  0  0  0
 37 36  1  0  0  0  0
 38 39  1  0  0  0  0
 38 40  2  0  0  0  0
 40 41  1  0  0  0  0
M  END
>  <minimizedAffinity>
-6.19655085

>  <minimizedRMSD>
0.64753288

$$$$
