
     RDKit          3D

 37 40  0  0  0  0  0  0  0  0999 V2000
   37.5789   31.2697   48.4025 C   0  0  0  0  0  0  0  0  0  0  0  0
   38.4741   32.2536   48.3196 C   0  0  0  0  0  0  0  0  0  0  0  0
   38.8494   32.7133   47.1193 C   0  0  0  0  0  0  0  0  0  0  0  0
   38.2782   32.1328   46.0041 C   0  0  0  0  0  0  0  0  0  0  0  0
   37.1678   30.8867   46.7393 S   0  0  0  0  0  0  0  0  0  0  0  0
   41.1554   32.2341   44.9864 Cl  0  0  0  0  0  0  0  0  0  0  0  0
   39.6817   32.4047   44.0569 C   0  0  0  0  0  0  0  0  0  0  0  0
   38.4224   32.3484   44.5807 C   0  0  0  0  0  0  0  0  0  0  0  0
   37.2733   32.4754   43.8950 C   0  0  0  0  0  0  0  0  0  0  0  0
   37.3347   32.6859   42.5155 C   0  0  0  0  0  0  0  0  0  0  0  0
   38.5689   32.7538   41.9194 C   0  0  0  0  0  0  0  0  0  0  0  0
   38.7106   33.0166   40.1881 Cl  0  0  0  0  0  0  0  0  0  0  0  0
   39.7475   32.6156   42.6738 C   0  0  0  0  0  0  0  0  0  0  0  0
   37.0539   29.7802   51.8218 C   0  0  0  0  0  0  0  0  0  0  0  0
   37.6809   30.4627   50.7652 C   0  0  0  0  0  0  0  0  0  0  0  0
   36.9830   30.5705   49.5461 C   0  0  0  0  0  0  0  0  0  0  0  0
   35.7697   30.0288   49.4399 N   0  0  0  0  0  0  0  0  0  0  0  0
   35.1987   29.3783   50.4821 C   0  0  0  0  0  0  0  0  0  0  0  0
   35.8306   29.2586   51.6471 N   0  0  0  0  0  0  0  0  0  0  0  0
   38.8728   32.6527   49.2481 H   0  0  0  0  0  0  0  0  0  0  0  0
   39.5597   33.5002   46.8996 H   0  0  0  0  0  0  0  0  0  0  0  0
   36.2724   32.4301   44.3150 H   0  0  0  0  0  0  0  0  0  0  0  0
   36.4442   32.7951   41.9136 H   0  0  0  0  0  0  0  0  0  0  0  0
   40.7264   32.6677   42.2126 H   0  0  0  0  0  0  0  0  0  0  0  0
   37.6594   29.7450   52.7186 H   0  0  0  0  0  0  0  0  0  0  0  0
   38.6433   30.9233   50.7641 H   0  0  0  0  0  0  0  0  0  0  0  0
   34.8927   27.2698   48.2940 Cl  0  0  0  0  0  0  0  0  0  0  0  0
   33.6229   27.8485   49.3433 C   0  0  0  0  0  0  0  0  0  0  0  0
   33.8685   28.8072   50.3029 C   0  0  0  0  0  0  0  0  0  0  0  0
   32.8256   29.2261   51.1034 C   0  0  0  0  0  0  0  0  0  0  0  0
   33.0458   29.9823   51.8517 H   0  0  0  0  0  0  0  0  0  0  0  0
   31.5311   28.7399   51.0047 C   0  0  0  0  0  0  0  0  0  0  0  0
   30.7349   29.0776   51.6353 H   0  0  0  0  0  0  0  0  0  0  0  0
   31.3539   27.7784   50.0195 C   0  0  0  0  0  0  0  0  0  0  0  0
   30.3271   27.3915   49.9396 H   0  0  0  0  0  0  0  0  0  0  0  0
   32.3605   27.3159   49.1835 C   0  0  0  0  0  0  0  0  0  0  0  0
   31.9543   26.0959   47.9935 Cl  0  0  0  0  0  0  0  0  0  0  0  0
  1 16  1  0
  2  1  2  0
  3  2  1  0
  4  5  1  0
  4  3  2  0
  5  1  1  0
  7  8  2  0
  7  6  1  0
  8  4  1  0
  9  8  1  0
 10  9  2  0
 11 10  1  0
 11 13  2  0
 12 11  1  0
 13  7  1  0
 15 14  2  0
 16 15  1  0
 17 16  2  0
 17 18  1  0
 18 19  2  0
 19 14  1  0
  2 20  1  0
  3 21  1  0
  9 22  1  0
 10 23  1  0
 13 24  1  0
 14 25  1  0
 15 26  1  0
 27 28  1  0
 28 29  2  0
 29 30  1  0
 30 31  1  0
 30 32  2  0
 32 33  1  0
 32 34  1  0
 34 35  1  0
 34 36  2  0
 36 37  1  0
 36 28  1  0
 18 29  1  0
M  ISO  8  20  14  21  14  22  14  23  14  24  14  25  14  26  14  31  15
M  ISO  2  33  15  35  15
M  END
>  <DihAtoms>  (1) 
16,17,28,27

>  <DihDeg>  (1) 
-0.0002530374269969511

$$$$
