
     RDKit          3D

 29 31  0  0  0  0  0  0  0  0999 V2000
   38.0619   33.0807   49.5037 C   0  0  0  0  0  0  0  0  0  0  0  0
   38.9707   33.1496   48.4234 C   0  0  0  0  0  0  0  0  0  0  0  0
   38.8332   32.2128   47.3800 C   0  0  0  0  0  0  0  0  0  0  0  0
   37.8256   31.3136   47.5060 N   0  0  0  0  0  0  0  0  0  0  0  0
   36.9758   31.2597   48.5297 C   0  0  0  0  0  0  0  0  0  0  0  0
   37.1130   32.1476   49.5097 N   0  0  0  0  0  0  0  0  0  0  0  0
   35.9270   30.2582   48.5744 C   0  0  0  0  0  0  0  0  0  0  0  0
   35.9285   29.3046   49.5860 C   0  0  0  0  0  0  0  0  0  0  0  0
   34.9397   28.3434   49.6538 C   0  0  0  0  0  0  0  0  0  0  0  0
   33.9698   28.3801   48.6831 C   0  0  0  0  0  0  0  0  0  0  0  0
   33.9538   29.3226   47.6693 C   0  0  0  0  0  0  0  0  0  0  0  0
   34.9531   30.2650   47.6309 N   0  0  0  0  0  0  0  0  0  0  0  0
   38.1652   33.8106   50.3217 H   0  0  0  0  0  0  0  0  0  0  0  0
   39.7579   33.8864   48.3697 H   0  0  0  0  0  0  0  0  0  0  0  0
   39.5073   32.2512   46.5618 H   0  0  0  0  0  0  0  0  0  0  0  0
   36.7436   29.3540   50.3172 H   0  0  0  0  0  0  0  0  0  0  0  0
   34.9782   27.6246   50.4521 H   0  0  0  0  0  0  0  0  0  0  0  0
   33.2036   27.6261   48.7457 H   0  0  0  0  0  0  0  0  0  0  0  0
   31.8401   27.1865   47.9023 Cl  0  0  0  0  0  0  0  0  0  0  0  0
   31.9037   28.4315   46.6441 C   0  0  0  0  0  0  0  0  0  0  0  0
   32.9226   29.3591   46.6400 C   0  0  0  0  0  0  0  0  0  0  0  0
   32.8823   30.2841   45.6211 C   0  0  0  0  0  0  0  0  0  0  0  0
   33.6423   31.0339   45.5569 H   0  0  0  0  0  0  0  0  0  0  0  0
   31.9135   30.3275   44.6446 C   0  0  0  0  0  0  0  0  0  0  0  0
   31.9147   31.0741   43.8545 H   0  0  0  0  0  0  0  0  0  0  0  0
   30.8996   29.3762   44.6785 C   0  0  0  0  0  0  0  0  0  0  0  0
   30.1034   29.3248   43.9680 H   0  0  0  0  0  0  0  0  0  0  0  0
   30.9019   28.4300   45.6832 C   0  0  0  0  0  0  0  0  0  0  0  0
   29.6320   27.2054   45.7607 Cl  0  0  0  0  0  0  0  0  0  0  0  0
  1  6  2  0
  2  1  1  0
  3  4  1  0
  3  2  2  0
  4  5  2  0
  5  7  1  0
  5  6  1  0
  7  8  2  0
  8  9  1  0
 10  9  2  0
 11 10  1  0
 12 11  2  0
 12  7  1  0
  1 13  1  0
  2 14  1  0
  3 15  1  0
  8 16  1  0
  9 17  1  0
 10 18  1  0
 19 20  1  0
 20 21  2  0
 21 22  1  0
 22 23  1  0
 22 24  2  0
 24 25  1  0
 24 26  1  0
 26 27  1  0
 26 28  2  0
 28 29  1  0
 28 20  1  0
 11 21  1  0
M  ISO  8  13  14  14  14  15  14  16  14  17  14  18  14  23  15  25  15
M  ISO  1  27  15
M  END
>  <DihAtoms>  (1) 
9,10,20,19

>  <DihDeg>  (1) 
-179.9942578001183

$$$$
