
     RDKit          3D

 29 31  0  0  0  0  0  0  0  0999 V2000
   35.1963   30.4382   48.9745 C   0  0  0  0  0  0  0  0  0  0  0  0
   34.3304   30.1946   49.8600 O   0  0  0  0  0  0  0  0  0  0  0  0
   33.3215   30.0853   45.8894 C   0  0  0  0  0  0  0  0  0  0  0  0
   34.3190   30.0039   44.9098 C   0  0  0  0  0  0  0  0  0  0  0  0
   35.6405   30.0701   45.3077 C   0  0  0  0  0  0  0  0  0  0  0  0
   35.8937   30.2116   46.6383 N   0  0  0  0  0  0  0  0  0  0  0  0
   34.9225   30.2877   47.5605 C   0  0  0  0  0  0  0  0  0  0  0  0
   33.6276   30.2240   47.1820 N   0  0  0  0  0  0  0  0  0  0  0  0
   36.5125   30.8863   49.4247 C   0  0  0  0  0  0  0  0  0  0  0  0
   37.3110   30.2002   50.3305 C   0  0  0  0  0  0  0  0  0  0  0  0
   38.4318   31.0285   50.4189 C   0  0  0  0  0  0  0  0  0  0  0  0
   38.2827   32.1265   49.6092 C   0  0  0  0  0  0  0  0  0  0  0  0
   37.1215   32.0093   49.0284 O   0  0  0  0  0  0  0  0  0  0  0  0
   32.2560   30.0402   45.6489 H   0  0  0  0  0  0  0  0  0  0  0  0
   33.9859   29.8944   43.9063 H   0  0  0  0  0  0  0  0  0  0  0  0
   36.4135   30.0073   44.5526 H   0  0  0  0  0  0  0  0  0  0  0  0
   37.0759   29.2628   50.8163 H   0  0  0  0  0  0  0  0  0  0  0  0
   39.2907   30.8043   51.0539 H   0  0  0  0  0  0  0  0  0  0  0  0
   40.7466   31.4992   47.9179 Cl  0  0  0  0  0  0  0  0  0  0  0  0
   40.3908   33.0166   48.6932 C   0  0  0  0  0  0  0  0  0  0  0  0
   39.2475   33.2091   49.4413 C   0  0  0  0  0  0  0  0  0  0  0  0
   39.0197   34.4334   50.0318 C   0  0  0  0  0  0  0  0  0  0  0  0
   38.1050   34.5470   50.6153 H   0  0  0  0  0  0  0  0  0  0  0  0
   39.8784   35.5136   49.9259 C   0  0  0  0  0  0  0  0  0  0  0  0
   39.6015   36.4292   50.4305 H   0  0  0  0  0  0  0  0  0  0  0  0
   41.0303   35.3187   49.1719 C   0  0  0  0  0  0  0  0  0  0  0  0
   41.7003   36.1609   49.0890 H   0  0  0  0  0  0  0  0  0  0  0  0
   41.2775   34.0892   48.5679 C   0  0  0  0  0  0  0  0  0  0  0  0
   42.7625   33.9555   47.6396 Cl  0  0  0  0  0  0  0  0  0  0  0  0
  1  9  1  0
  1  2  2  0
  3  8  2  0
  4  5  2  0
  4  3  1  0
  5  6  1  0
  6  7  2  0
  7  1  1  0
  8  7  1  0
  9 10  2  0
 10 11  1  0
 12 11  2  0
 13  9  1  0
 13 12  1  0
  3 14  1  0
  4 15  1  0
  5 16  1  0
 10 17  1  0
 11 18  1  0
 19 20  1  0
 20 21  2  0
 21 22  1  0
 22 23  1  0
 22 24  2  0
 24 25  1  0
 24 26  1  0
 26 27  1  0
 26 28  2  0
 28 29  1  0
 28 20  1  0
 12 21  1  0
M  ISO  8  14  14  15  14  16  14  17  14  18  14  23  15  25  15  27  15
M  END
>  <DihAtoms>  (1) 
10,11,20,19

>  <DihDeg>  (1) 
179.99939819571492

$$$$
