
 OpenBabel03272502563D

 44 47  0  0  0  0  0  0  0  0999 V2000
   35.7560   30.0730   48.6930 C   0  0  0  0  0  0  0  0  0  0  0  0
   35.8340   29.2100   49.7920 C   0  0  0  0  0  0  0  0  0  0  0  0
   34.8680   28.2440   49.9980 C   0  0  0  0  0  0  0  0  0  0  0  0
   33.8450   28.1950   49.0590 C   0  0  0  0  0  0  0  0  0  0  0  0
   33.7600   29.0400   47.9760 C   0  0  0  0  0  0  0  0  0  0  0  0
   34.7360   29.9650   47.8290 N   0  0  0  0  0  0  0  0  0  0  0  0
   32.6790   28.8970   47.0910 N   0  0  0  0  0  0  0  0  0  0  0  0
   31.5410   28.1130   47.5140 C   0  0  0  0  0  0  0  0  0  0  0  0
   30.6120   28.0140   46.3090 C   0  0  0  0  0  0  0  0  0  0  0  0
   30.1750   29.4230   45.9180 C   0  0  0  0  0  0  0  0  0  0  0  0
   31.3540   30.3030   45.6620 C   0  0  0  0  0  0  0  0  0  0  0  0
   32.6360   29.4930   45.7710 C   0  0  0  0  0  0  0  0  0  0  0  0
   36.6510   29.2800   50.5050 H   0  0  0  0  0  0  0  0  0  0  0  0
   34.9260   27.5810   50.8390 H   0  0  0  0  0  0  0  0  0  0  0  0
   33.1090   27.4290   49.2510 H   0  0  0  0  0  0  0  0  0  0  0  0
   31.8150   27.0420   47.7290 H   0  0  0  0  0  0  0  0  0  0  0  0
   31.0560   28.6230   48.3550 H   0  0  0  0  0  0  0  0  0  0  0  0
   29.7240   27.4080   46.5420 H   0  0  0  0  0  0  0  0  0  0  0  0
   31.2070   27.5880   45.4800 H   0  0  0  0  0  0  0  0  0  0  0  0
   29.6580   29.8280   46.8210 H   0  0  0  0  0  0  0  0  0  0  0  0
   29.4250   29.3830   45.1180 H   0  0  0  0  0  0  0  0  0  0  0  0
   31.2970   30.7810   44.6620 H   0  0  0  0  0  0  0  0  0  0  0  0
   31.4540   31.1460   46.3860 H   0  0  0  0  0  0  0  0  0  0  0  0
   33.4740   30.2370   45.7230 H   0  0  0  0  0  0  0  0  0  0  0  0
   32.7850   28.7920   44.9470 H   0  0  0  0  0  0  0  0  0  0  0  0
   38.0520   32.8640   49.2400 C   0  0  0  0  0  0  0  0  0  0  0  0
   38.8110   32.8730   48.0730 C   0  0  0  0  0  0  0  0  0  0  0  0
   38.5350   31.9390   47.1110 C   0  0  0  0  0  0  0  0  0  0  0  0
   37.5250   31.0790   47.4010 N   0  0  0  0  0  0  0  0  0  0  0  0
   36.7950   31.0650   48.5180 C   0  0  0  0  0  0  0  0  0  0  0  0
   37.0730   31.9690   49.4290 N   0  0  0  0  0  0  0  0  0  0  0  0
   38.2920   33.6220   49.9930 H   0  0  0  0  0  0  0  0  0  0  0  0
   39.5920   33.5630   47.9130 H   0  0  0  0  0  0  0  0  0  0  0  0
   36.9750   32.3570   44.4340 Cl  0  0  0  0  0  0  0  0  0  0  0  0
   38.6300   31.8470   44.5770 C   0  0  0  0  0  0  0  0  0  0  0  0
   39.1610   31.7090   45.8290 C   0  0  0  0  0  0  0  0  0  0  0  0
   40.4660   31.2800   45.7840 C   0  0  0  0  0  0  0  0  0  0  0  0
   41.0710   31.1080   46.6850 H   0  0  0  0  0  0  0  0  0  0  0  0
   41.1590   31.0200   44.6240 C   0  0  0  0  0  0  0  0  0  0  0  0
   42.1850   30.6860   44.6340 H   0  0  0  0  0  0  0  0  0  0  0  0
   40.5620   31.1800   43.3950 C   0  0  0  0  0  0  0  0  0  0  0  0
   41.1250   30.9710   42.5000 H   0  0  0  0  0  0  0  0  0  0  0  0
   39.2540   31.6080   43.3800 C   0  0  0  0  0  0  0  0  0  0  0  0
   38.4880   31.8150   41.8430 Cl  0  0  0  0  0  0  0  0  0  0  0  0
  1  2  1  0  0  0  0
  2  3  2  0  0  0  0
  2 13  1  0  0  0  0
  3 14  1  0  0  0  0
  4 15  1  0  0  0  0
  4  3  1  0  0  0  0
  5  4  2  0  0  0  0
  6  5  1  0  0  0  0
  6  1  2  0  0  0  0
  7  8  1  0  0  0  0
  7  5  1  0  0  0  0
  8 16  1  0  0  0  0
  8 17  1  0  0  0  0
  9 18  1  0  0  0  0
  9  8  1  0  0  0  0
 10  9  1  0  0  0  0
 10 20  1  0  0  0  0
 11 12  1  0  0  0  0
 11 10  1  0  0  0  0
 11 23  1  0  0  0  0
 12  7  1  0  0  0  0
 19  9  1  0  0  0  0
 21 10  1  0  0  0  0
 22 11  1  0  0  0  0
 24 12  1  0  0  0  0
 25 12  1  0  0  0  0
 26 31  1  0  0  0  0
 26 32  1  0  0  0  0
 27 26  2  0  0  0  0
 28 29  2  0  0  0  0
 28 27  1  0  0  0  0
 29 30  1  0  0  0  0
 30  1  1  0  0  0  0
 30 31  2  0  0  0  0
 33 27  1  0  0  0  0
 34 35  1  0  0  0  0
 35 36  1  0  0  0  0
 36 28  1  0  0  0  0
 37 36  2  0  0  0  0
 37 38  1  0  0  0  0
 39 40  1  0  0  0  0
 39 37  1  0  0  0  0
 41 39  2  0  0  0  0
 42 41  1  0  0  0  0
 43 41  1  0  0  0  0
 43 35  2  0  0  0  0
 44 43  1  0  0  0  0
M  END
>  <minimizedAffinity>
-6.72319412

>  <minimizedRMSD>
0.69594866

$$$$
