
 OpenBabel03272505353D

 37 39  0  0  1  0  0  0  0  0999 V2000
   36.8220   21.2250   33.0300 C   0  0  0  0  0  0  0  0  0  0  0  0
   37.6740   20.5090   32.2010 C   0  0  0  0  0  0  0  0  0  0  0  0
   38.7540   21.2010   31.6190 C   0  0  0  0  0  0  0  0  0  0  0  0
   38.8850   22.5330   31.9130 N   0  0  0  0  0  0  0  0  0  0  0  0
   38.0360   23.1840   32.7210 C   0  0  0  0  0  0  0  0  0  0  0  0
   37.0310   22.5230   33.2570 N   0  0  0  0  0  0  0  0  0  0  0  0
   38.2800   24.5560   32.9460 N   0  0  0  0  0  0  0  0  0  0  0  0
   37.6630   25.5370   32.0520 C   0  0  0  0  0  0  0  0  0  0  0  0
   38.6460   26.6280   31.6710 C   0  0  0  0  0  0  0  0  0  0  0  0
   39.3600   27.1440   32.8060 N   0  0  0  0  0  0  0  0  0  0  0  0
   39.0050   26.5450   34.0480 C   0  0  0  0  0  0  0  0  0  0  0  0
   39.1130   25.0390   34.0100 C   0  0  1  0  0  0  0  0  0  0  0  0
   37.5460   19.4630   31.9890 H   0  0  0  0  0  0  0  0  0  0  0  0
   39.4480   20.6860   30.9640 H   0  0  0  0  0  0  0  0  0  0  0  0
   36.7590   25.9490   32.5200 H   0  0  0  0  0  0  0  0  0  0  0  0
   37.3530   25.0360   31.1190 H   0  0  0  0  0  0  0  0  0  0  0  0
   39.3830   26.1670   30.9870 H   0  0  0  0  0  0  0  0  0  0  0  0
   38.0850   27.3880   31.1130 H   0  0  0  0  0  0  0  0  0  0  0  0
   39.1560   28.1710   32.8670 H   0  0  0  0  0  0  0  0  0  0  0  0
   37.9730   26.8850   34.2780 H   0  0  0  0  0  0  0  0  0  0  0  0
   39.6990   26.9080   34.8250 H   0  0  0  0  0  0  0  0  0  0  0  0
   40.1680   24.8630   33.6160 H   0  0  0  0  0  0  0  0  0  0  0  0
   41.2240   22.9670   34.8680 Cl  0  0  0  0  0  0  0  0  0  0  0  0
   39.8820   23.4930   35.8460 C   0  0  0  0  0  0  0  0  0  0  0  0
   39.0060   24.4150   35.3160 C   0  0  0  0  0  0  0  0  0  0  0  0
   37.9600   24.7300   36.1990 C   0  0  0  0  0  0  0  0  0  0  0  0
   37.1970   25.4580   35.8830 H   0  0  0  0  0  0  0  0  0  0  0  0
   37.8120   24.1940   37.4490 C   0  0  0  0  0  0  0  0  0  0  0  0
   36.9830   24.4780   38.0850 H   0  0  0  0  0  0  0  0  0  0  0  0
   38.7240   23.2880   37.8980 C   0  0  0  0  0  0  0  0  0  0  0  0
   38.6210   22.8570   38.8800 H   0  0  0  0  0  0  0  0  0  0  0  0
   39.7920   22.9150   37.0940 C   0  0  0  0  0  0  0  0  0  0  0  0
   40.9650   21.7490   37.6740 Cl  0  0  0  0  0  0  0  0  0  0  0  0
   35.6590   20.5160   33.6680 C   0  0  0  0  0  0  0  0  0  0  0  0
   35.7930   19.1420   33.4630 F   0  0  0  0  0  0  0  0  0  0  0  0
   35.5800   20.8800   34.9620 F   0  0  0  0  0  0  0  0  0  0  0  0
   34.5250   20.8990   32.9420 F   0  0  0  0  0  0  0  0  0  0  0  0
  1  6  1  0  0  0  0
  1 34  1  0  0  0  0
  2  1  2  0  0  0  0
  3  4  2  0  0  0  0
  3  2  1  0  0  0  0
  4  5  1  0  0  0  0
  5  7  1  0  0  0  0
  5  6  2  0  0  0  0
  7 12  1  0  0  0  0
  8 15  1  0  0  0  0
  8  7  1  0  0  0  0
  9  8  1  0  0  0  0
  9 10  1  0  0  0  0
 10 19  1  0  0  0  0
 10 11  1  0  0  0  0
 11 20  1  0  0  0  0
 11 21  1  0  0  0  0
 12 22  1  6  0  0  0
 12 11  1  0  0  0  0
 12 25  1  0  0  0  0
 13  2  1  0  0  0  0
 14  3  1  0  0  0  0
 16  8  1  0  0  0  0
 17  9  1  0  0  0  0
 18  9  1  0  0  0  0
 23 24  1  0  0  0  0
 24 32  1  0  0  0  0
 25 24  2  0  0  0  0
 25 26  1  0  0  0  0
 26 28  2  0  0  0  0
 27 26  1  0  0  0  0
 28 30  1  0  0  0  0
 28 29  1  0  0  0  0
 30 31  1  0  0  0  0
 32 33  1  0  0  0  0
 32 30  2  0  0  0  0
 34 36  1  0  0  0  0
 35 34  1  0  0  0  0
 37 34  1  0  0  0  0
M  END
>  <minimizedAffinity>
-6.07305241

$$$$

 OpenBabel03272505353D

 37 39  0  0  1  0  0  0  0  0999 V2000
   38.0710   22.5210   34.6120 C   0  0  0  0  0  0  0  0  0  0  0  0
   37.7300   22.3480   35.9460 C   0  0  0  0  0  0  0  0  0  0  0  0
   38.5220   22.9980   36.9130 C   0  0  0  0  0  0  0  0  0  0  0  0
   39.5730   23.7540   36.4660 N   0  0  0  0  0  0  0  0  0  0  0  0
   39.8660   23.8930   35.1650 C   0  0  0  0  0  0  0  0  0  0  0  0
   39.1160   23.2790   34.2730 N   0  0  0  0  0  0  0  0  0  0  0  0
   40.9740   24.7020   34.8330 N   0  0  0  0  0  0  0  0  0  0  0  0
   42.2930   24.0770   34.7240 C   0  0  0  0  0  0  0  0  0  0  0  0
   43.3610   24.9270   35.3870 C   0  0  0  0  0  0  0  0  0  0  0  0
   43.2670   26.3120   35.0160 N   0  0  0  0  0  0  0  0  0  0  0  0
   42.2120   26.6090   34.1080 C   0  0  0  0  0  0  0  0  0  0  0  0
   40.8730   26.1140   34.6030 C   0  0  1  0  0  0  0  0  0  0  0  0
   36.8980   21.7480   36.2670 H   0  0  0  0  0  0  0  0  0  0  0  0
   38.2960   22.8940   37.9680 H   0  0  0  0  0  0  0  0  0  0  0  0
   42.5250   23.8810   33.6680 H   0  0  0  0  0  0  0  0  0  0  0  0
   42.2810   23.1040   35.2450 H   0  0  0  0  0  0  0  0  0  0  0  0
   43.1930   24.8550   36.4770 H   0  0  0  0  0  0  0  0  0  0  0  0
   44.3300   24.4670   35.1550 H   0  0  0  0  0  0  0  0  0  0  0  0
   44.1740   26.5790   34.5640 H   0  0  0  0  0  0  0  0  0  0  0  0
   42.4940   26.1510   33.1370 H   0  0  0  0  0  0  0  0  0  0  0  0
   42.1400   27.7050   33.9970 H   0  0  0  0  0  0  0  0  0  0  0  0
   40.8070   26.5460   35.6550 H   0  0  0  0  0  0  0  0  0  0  0  0
   38.4080   27.2140   36.0840 Cl  0  0  0  0  0  0  0  0  0  0  0  0
   38.5920   27.1570   34.3530 C   0  0  0  0  0  0  0  0  0  0  0  0
   39.7470   26.6150   33.8340 C   0  0  0  0  0  0  0  0  0  0  0  0
   39.7530   26.6070   32.4300 C   0  0  0  0  0  0  0  0  0  0  0  0
   40.6280   26.1970   31.9030 H   0  0  0  0  0  0  0  0  0  0  0  0
   38.7350   27.0810   31.6480 C   0  0  0  0  0  0  0  0  0  0  0  0
   38.7980   27.0490   30.5680 H   0  0  0  0  0  0  0  0  0  0  0  0
   37.6250   27.6020   32.2410 C   0  0  0  0  0  0  0  0  0  0  0  0
   36.8160   27.9790   31.6380 H   0  0  0  0  0  0  0  0  0  0  0  0
   37.5310   27.6510   33.6250 C   0  0  0  0  0  0  0  0  0  0  0  0
   36.1030   28.3210   34.3860 Cl  0  0  0  0  0  0  0  0  0  0  0  0
   37.2460   21.8420   33.5540 C   0  0  0  0  0  0  0  0  0  0  0  0
   36.1950   21.1550   34.1640 F   0  0  0  0  0  0  0  0  0  0  0  0
   36.8590   22.7560   32.6450 F   0  0  0  0  0  0  0  0  0  0  0  0
   38.0680   20.8560   32.9940 F   0  0  0  0  0  0  0  0  0  0  0  0
  1  2  1  0  0  0  0
  2 13  1  0  0  0  0
  2  3  2  0  0  0  0
  3 14  1  0  0  0  0
  4  3  1  0  0  0  0
  5  4  2  0  0  0  0
  6  1  2  0  0  0  0
  6  5  1  0  0  0  0
  7  5  1  0  0  0  0
  8  7  1  0  0  0  0
  8 16  1  0  0  0  0
  8  9  1  0  0  0  0
  9 17  1  0  0  0  0
 10  9  1  0  0  0  0
 11 12  1  0  0  0  0
 11 10  1  0  0  0  0
 12  7  1  0  0  0  0
 12 22  1  1  0  0  0
 15  8  1  0  0  0  0
 18  9  1  0  0  0  0
 19 10  1  0  0  0  0
 20 11  1  0  0  0  0
 21 11  1  0  0  0  0
 24 23  1  0  0  0  0
 25 24  1  0  0  0  0
 25 12  1  0  0  0  0
 26 25  2  0  0  0  0
 27 26  1  0  0  0  0
 28 30  2  0  0  0  0
 28 26  1  0  0  0  0
 29 28  1  0  0  0  0
 30 32  1  0  0  0  0
 31 30  1  0  0  0  0
 32 24  2  0  0  0  0
 32 33  1  0  0  0  0
 34 35  1  0  0  0  0
 34  1  1  0  0  0  0
 36 34  1  0  0  0  0
 37 34  1  0  0  0  0
M  END
>  <minimizedAffinity>
-5.88365078

$$$$

 OpenBabel03272505353D

 37 39  0  0  1  0  0  0  0  0999 V2000
   38.4360   24.6580   36.9440 C   0  0  0  0  0  0  0  0  0  0  0  0
   38.1370   25.9860   36.6740 C   0  0  0  0  0  0  0  0  0  0  0  0
   38.4000   26.4630   35.3740 C   0  0  0  0  0  0  0  0  0  0  0  0
   38.9330   25.5820   34.4710 N   0  0  0  0  0  0  0  0  0  0  0  0
   39.2070   24.3060   34.7790 C   0  0  0  0  0  0  0  0  0  0  0  0
   38.9560   23.8750   35.9980 N   0  0  0  0  0  0  0  0  0  0  0  0
   39.7530   23.4970   33.7590 N   0  0  0  0  0  0  0  0  0  0  0  0
   41.2080   23.4300   33.6190 C   0  0  0  0  0  0  0  0  0  0  0  0
   41.6240   23.5070   32.1610 C   0  0  0  0  0  0  0  0  0  0  0  0
   40.8510   22.6320   31.3240 N   0  0  0  0  0  0  0  0  0  0  0  0
   39.8670   21.8710   32.0160 C   0  0  0  0  0  0  0  0  0  0  0  0
   38.9490   22.7390   32.8450 C   0  0  1  0  0  0  0  0  0  0  0  0
   37.7180   26.6550   37.4030 H   0  0  0  0  0  0  0  0  0  0  0  0
   38.1820   27.4930   35.1130 H   0  0  0  0  0  0  0  0  0  0  0  0
   41.5870   22.5190   34.1020 H   0  0  0  0  0  0  0  0  0  0  0  0
   41.6660   24.2920   34.1340 H   0  0  0  0  0  0  0  0  0  0  0  0
   41.4370   24.5460   31.8320 H   0  0  0  0  0  0  0  0  0  0  0  0
   42.7050   23.3210   32.1230 H   0  0  0  0  0  0  0  0  0  0  0  0
   41.5170   21.9660   30.8640 H   0  0  0  0  0  0  0  0  0  0  0  0
   40.4180   21.1330   32.6360 H   0  0  0  0  0  0  0  0  0  0  0  0
   39.2440   21.3430   31.2740 H   0  0  0  0  0  0  0  0  0  0  0  0
   38.5890   23.5240   32.1010 H   0  0  0  0  0  0  0  0  0  0  0  0
   36.7030   21.9190   30.9040 Cl  0  0  0  0  0  0  0  0  0  0  0  0
   36.7210   21.5830   32.6130 C   0  0  0  0  0  0  0  0  0  0  0  0
   37.7880   22.0330   33.3590 C   0  0  0  0  0  0  0  0  0  0  0  0
   37.6630   21.7180   34.7210 C   0  0  0  0  0  0  0  0  0  0  0  0
   38.4580   22.0280   35.4160 H   0  0  0  0  0  0  0  0  0  0  0  0
   36.6070   21.0400   35.2660 C   0  0  0  0  0  0  0  0  0  0  0  0
   36.5660   20.8250   36.3260 H   0  0  0  0  0  0  0  0  0  0  0  0
   35.5900   20.6280   34.4580 C   0  0  0  0  0  0  0  0  0  0  0  0
   34.7520   20.0930   34.8730 H   0  0  0  0  0  0  0  0  0  0  0  0
   35.6290   20.8960   33.0960 C   0  0  0  0  0  0  0  0  0  0  0  0
   34.3200   20.3670   32.0590 Cl  0  0  0  0  0  0  0  0  0  0  0  0
   38.1680   24.1170   38.3220 C   0  0  0  0  0  0  0  0  0  0  0  0
   39.3130   23.4720   38.7920 F   0  0  0  0  0  0  0  0  0  0  0  0
   37.7290   25.1180   39.1080 F   0  0  0  0  0  0  0  0  0  0  0  0
   37.2050   23.1110   38.1620 F   0  0  0  0  0  0  0  0  0  0  0  0
  1 34  1  0  0  0  0
  2  1  1  0  0  0  0
  2 13  1  0  0  0  0
  3  2  2  0  0  0  0
  4  5  2  0  0  0  0
  4  3  1  0  0  0  0
  5  6  1  0  0  0  0
  6  1  2  0  0  0  0
  7  5  1  0  0  0  0
  8  7  1  0  0  0  0
  8 15  1  0  0  0  0
  8 16  1  0  0  0  0
  9  8  1  0  0  0  0
 10 11  1  0  0  0  0
 10  9  1  0  0  0  0
 11 20  1  0  0  0  0
 11 12  1  0  0  0  0
 12 22  1  6  0  0  0
 12 25  1  0  0  0  0
 12  7  1  0  0  0  0
 14  3  1  0  0  0  0
 17  9  1  0  0  0  0
 18  9  1  0  0  0  0
 19 10  1  0  0  0  0
 21 11  1  0  0  0  0
 23 24  1  0  0  0  0
 24 32  2  0  0  0  0
 24 25  1  0  0  0  0
 25 26  2  0  0  0  0
 26 28  1  0  0  0  0
 26 27  1  0  0  0  0
 28 29  1  0  0  0  0
 30 31  1  0  0  0  0
 30 28  2  0  0  0  0
 32 30  1  0  0  0  0
 33 32  1  0  0  0  0
 34 35  1  0  0  0  0
 34 36  1  0  0  0  0
 37 34  1  0  0  0  0
M  END
>  <minimizedAffinity>
-5.84389591

$$$$

 OpenBabel03272505353D

 37 39  0  0  1  0  0  0  0  0999 V2000
   38.7950   23.3100   37.1680 C   0  0  0  0  0  0  0  0  0  0  0  0
   40.0060   22.6450   37.3070 C   0  0  0  0  0  0  0  0  0  0  0  0
   40.4620   21.8850   36.2110 C   0  0  0  0  0  0  0  0  0  0  0  0
   39.6780   21.8580   35.0880 N   0  0  0  0  0  0  0  0  0  0  0  0
   38.5140   22.5180   35.0000 C   0  0  0  0  0  0  0  0  0  0  0  0
   38.1010   23.2230   36.0330 N   0  0  0  0  0  0  0  0  0  0  0  0
   37.7990   22.4110   33.7870 N   0  0  0  0  0  0  0  0  0  0  0  0
   36.8210   21.3330   33.6400 C   0  0  0  0  0  0  0  0  0  0  0  0
   36.9250   20.6790   32.2750 C   0  0  0  0  0  0  0  0  0  0  0  0
   36.9950   21.6410   31.2100 N   0  0  0  0  0  0  0  0  0  0  0  0
   36.9460   22.9980   31.6380 C   0  0  0  0  0  0  0  0  0  0  0  0
   37.9900   23.3070   32.6840 C   0  0  1  0  0  0  0  0  0  0  0  0
   40.6000   22.6850   38.2000 H   0  0  0  0  0  0  0  0  0  0  0  0
   41.4020   21.3470   36.2690 H   0  0  0  0  0  0  0  0  0  0  0  0
   35.8110   21.7200   33.8310 H   0  0  0  0  0  0  0  0  0  0  0  0
   37.0220   20.5510   34.3930 H   0  0  0  0  0  0  0  0  0  0  0  0
   37.8660   20.0990   32.2710 H   0  0  0  0  0  0  0  0  0  0  0  0
   36.0860   19.9770   32.1890 H   0  0  0  0  0  0  0  0  0  0  0  0
   36.1790   21.4680   30.5750 H   0  0  0  0  0  0  0  0  0  0  0  0
   35.9150   23.1740   32.0110 H   0  0  0  0  0  0  0  0  0  0  0  0
   37.1440   23.6490   30.7680 H   0  0  0  0  0  0  0  0  0  0  0  0
   38.9560   22.9340   32.2080 H   0  0  0  0  0  0  0  0  0  0  0  0
   40.8130   24.4900   33.0320 Cl  0  0  0  0  0  0  0  0  0  0  0  0
   39.3300   25.4000   33.1120 C   0  0  0  0  0  0  0  0  0  0  0  0
   38.1380   24.7260   32.9570 C   0  0  0  0  0  0  0  0  0  0  0  0
   37.0240   25.5730   33.0700 C   0  0  0  0  0  0  0  0  0  0  0  0
   36.0150   25.1460   32.9640 H   0  0  0  0  0  0  0  0  0  0  0  0
   37.0940   26.9190   33.3070 C   0  0  0  0  0  0  0  0  0  0  0  0
   36.1980   27.5220   33.3830 H   0  0  0  0  0  0  0  0  0  0  0  0
   38.3140   27.5090   33.4480 C   0  0  0  0  0  0  0  0  0  0  0  0
   38.3850   28.5670   33.6340 H   0  0  0  0  0  0  0  0  0  0  0  0
   39.4720   26.7490   33.3520 C   0  0  0  0  0  0  0  0  0  0  0  0
   41.0400   27.5090   33.5340 Cl  0  0  0  0  0  0  0  0  0  0  0  0
   38.2790   24.1310   38.3180 C   0  0  0  0  0  0  0  0  0  0  0  0
   39.1170   23.9510   39.4200 F   0  0  0  0  0  0  0  0  0  0  0  0
   38.1490   25.4100   37.9210 F   0  0  0  0  0  0  0  0  0  0  0  0
   37.0510   23.5620   38.6800 F   0  0  0  0  0  0  0  0  0  0  0  0
  1  2  1  0  0  0  0
  1 34  1  0  0  0  0
  2 13  1  0  0  0  0
  3 14  1  0  0  0  0
  3  2  2  0  0  0  0
  4  3  1  0  0  0  0
  5  4  2  0  0  0  0
  5  6  1  0  0  0  0
  6  1  2  0  0  0  0
  7  5  1  0  0  0  0
  8  7  1  0  0  0  0
  8 15  1  0  0  0  0
  8 16  1  0  0  0  0
  9  8  1  0  0  0  0
 10 11  1  0  0  0  0
 10  9  1  0  0  0  0
 11 20  1  0  0  0  0
 11 12  1  0  0  0  0
 12 22  1  6  0  0  0
 12 25  1  0  0  0  0
 12  7  1  0  0  0  0
 17  9  1  0  0  0  0
 18  9  1  0  0  0  0
 19 10  1  0  0  0  0
 21 11  1  0  0  0  0
 23 24  1  0  0  0  0
 24 32  1  0  0  0  0
 25 26  1  0  0  0  0
 25 24  2  0  0  0  0
 26 28  2  0  0  0  0
 27 26  1  0  0  0  0
 28 29  1  0  0  0  0
 28 30  1  0  0  0  0
 30 31  1  0  0  0  0
 32 30  2  0  0  0  0
 32 33  1  0  0  0  0
 34 37  1  0  0  0  0
 34 35  1  0  0  0  0
 36 34  1  0  0  0  0
M  END
>  <minimizedAffinity>
-5.81935549

$$$$

 OpenBabel03272505353D

 37 39  0  0  1  0  0  0  0  0999 V2000
   37.2270   26.0970   33.4610 C   0  0  0  0  0  0  0  0  0  0  0  0
   37.3930   27.3970   33.9180 C   0  0  0  0  0  0  0  0  0  0  0  0
   38.0130   27.5740   35.1720 C   0  0  0  0  0  0  0  0  0  0  0  0
   38.4050   26.4500   35.8490 N   0  0  0  0  0  0  0  0  0  0  0  0
   38.2230   25.2120   35.3670 C   0  0  0  0  0  0  0  0  0  0  0  0
   37.6420   25.0620   34.1940 N   0  0  0  0  0  0  0  0  0  0  0  0
   38.6730   24.1350   36.1610 N   0  0  0  0  0  0  0  0  0  0  0  0
   37.7500   23.5390   37.1270 C   0  0  0  0  0  0  0  0  0  0  0  0
   38.4390   23.2700   38.4520 C   0  0  0  0  0  0  0  0  0  0  0  0
   39.7110   22.6240   38.2880 N   0  0  0  0  0  0  0  0  0  0  0  0
   40.0680   22.3590   36.9350 C   0  0  0  0  0  0  0  0  0  0  0  0
   40.0000   23.5970   36.0720 C   0  0  1  0  0  0  0  0  0  0  0  0
   37.0760   28.2600   33.3640 H   0  0  0  0  0  0  0  0  0  0  0  0
   38.1660   28.5690   35.5730 H   0  0  0  0  0  0  0  0  0  0  0  0
   37.3090   22.6250   36.7050 H   0  0  0  0  0  0  0  0  0  0  0  0
   36.9230   24.2430   37.3250 H   0  0  0  0  0  0  0  0  0  0  0  0
   38.6150   24.2550   38.9240 H   0  0  0  0  0  0  0  0  0  0  0  0
   37.7300   22.7110   39.0760 H   0  0  0  0  0  0  0  0  0  0  0  0
   39.6690   21.7100   38.8000 H   0  0  0  0  0  0  0  0  0  0  0  0
   39.3810   21.5630   36.5790 H   0  0  0  0  0  0  0  0  0  0  0  0
   41.1080   21.9930   36.9100 H   0  0  0  0  0  0  0  0  0  0  0  0
   40.6280   24.3530   36.6500 H   0  0  0  0  0  0  0  0  0  0  0  0
   41.8090   25.8130   34.9310 Cl  0  0  0  0  0  0  0  0  0  0  0  0
   41.4400   24.3110   34.1290 C   0  0  0  0  0  0  0  0  0  0  0  0
   40.5940   23.4230   34.7580 C   0  0  0  0  0  0  0  0  0  0  0  0
   40.3620   22.2700   33.9930 C   0  0  0  0  0  0  0  0  0  0  0  0
   39.7010   21.4870   34.3940 H   0  0  0  0  0  0  0  0  0  0  0  0
   40.9050   22.0350   32.7590 C   0  0  0  0  0  0  0  0  0  0  0  0
   40.6890   21.1240   32.2160 H   0  0  0  0  0  0  0  0  0  0  0  0
   41.7320   22.9660   32.2060 C   0  0  0  0  0  0  0  0  0  0  0  0
   42.1670   22.7950   31.2360 H   0  0  0  0  0  0  0  0  0  0  0  0
   42.0190   24.1380   32.8920 C   0  0  0  0  0  0  0  0  0  0  0  0
   43.0840   25.3340   32.1800 Cl  0  0  0  0  0  0  0  0  0  0  0  0
   36.5700   25.8720   32.1270 C   0  0  0  0  0  0  0  0  0  0  0  0
   37.5220   26.0210   31.1170 F   0  0  0  0  0  0  0  0  0  0  0  0
   35.9530   24.6760   32.1380 F   0  0  0  0  0  0  0  0  0  0  0  0
   35.6670   26.9300   31.9560 F   0  0  0  0  0  0  0  0  0  0  0  0
  1  2  2  0  0  0  0
  1  6  1  0  0  0  0
  2  3  1  0  0  0  0
  3 14  1  0  0  0  0
  3  4  2  0  0  0  0
  5  4  1  0  0  0  0
  5  7  1  0  0  0  0
  6  5  2  0  0  0  0
  7  8  1  0  0  0  0
  8 16  1  0  0  0  0
  8  9  1  0  0  0  0
  9 17  1  0  0  0  0
  9 18  1  0  0  0  0
 10  9  1  0  0  0  0
 10 19  1  0  0  0  0
 11 10  1  0  0  0  0
 12  7  1  0  0  0  0
 12 22  1  1  0  0  0
 12 11  1  0  0  0  0
 13  2  1  0  0  0  0
 15  8  1  0  0  0  0
 20 11  1  0  0  0  0
 21 11  1  0  0  0  0
 24 25  1  0  0  0  0
 24 23  1  0  0  0  0
 25 12  1  0  0  0  0
 26 27  1  0  0  0  0
 26 25  2  0  0  0  0
 28 26  1  0  0  0  0
 29 28  1  0  0  0  0
 30 28  2  0  0  0  0
 30 32  1  0  0  0  0
 31 30  1  0  0  0  0
 32 24  2  0  0  0  0
 33 32  1  0  0  0  0
 34 36  1  0  0  0  0
 34  1  1  0  0  0  0
 35 34  1  0  0  0  0
 37 34  1  0  0  0  0
M  END
>  <minimizedAffinity>
-5.72183228

$$$$

 OpenBabel03272505353D

 37 39  0  0  1  0  0  0  0  0999 V2000
   37.3450   22.7390   32.7600 C   0  0  0  0  0  0  0  0  0  0  0  0
   37.0570   21.9210   33.8440 C   0  0  0  0  0  0  0  0  0  0  0  0
   37.8430   22.0730   35.0040 C   0  0  0  0  0  0  0  0  0  0  0  0
   38.8350   23.0170   34.9770 N   0  0  0  0  0  0  0  0  0  0  0  0
   39.0780   23.7850   33.9050 C   0  0  0  0  0  0  0  0  0  0  0  0
   38.3350   23.6310   32.8290 N   0  0  0  0  0  0  0  0  0  0  0  0
   40.1290   24.7220   34.0040 N   0  0  0  0  0  0  0  0  0  0  0  0
   41.4760   24.3130   33.6050 C   0  0  0  0  0  0  0  0  0  0  0  0
   42.5160   24.8040   34.5950 C   0  0  0  0  0  0  0  0  0  0  0  0
   42.3340   26.1860   34.9410 N   0  0  0  0  0  0  0  0  0  0  0  0
   41.2350   26.8170   34.2910 C   0  0  0  0  0  0  0  0  0  0  0  0
   39.9430   26.0600   34.4860 C   0  0  1  0  0  0  0  0  0  0  0  0
   36.2700   21.1900   33.8360 H   0  0  0  0  0  0  0  0  0  0  0  0
   37.6570   21.4580   35.8770 H   0  0  0  0  0  0  0  0  0  0  0  0
   41.6850   24.6660   32.5860 H   0  0  0  0  0  0  0  0  0  0  0  0
   41.5340   23.2110   33.5900 H   0  0  0  0  0  0  0  0  0  0  0  0
   42.3870   24.2030   35.5140 H   0  0  0  0  0  0  0  0  0  0  0  0
   43.5010   24.5760   34.1680 H   0  0  0  0  0  0  0  0  0  0  0  0
   43.2100   26.6960   34.6730 H   0  0  0  0  0  0  0  0  0  0  0  0
   41.5110   26.9040   33.2190 H   0  0  0  0  0  0  0  0  0  0  0  0
   41.1000   27.8230   34.7240 H   0  0  0  0  0  0  0  0  0  0  0  0
   39.8870   25.9250   35.6170 H   0  0  0  0  0  0  0  0  0  0  0  0
   39.6100   26.7660   31.5070 Cl  0  0  0  0  0  0  0  0  0  0  0  0
   38.4690   27.1610   32.7630 C   0  0  0  0  0  0  0  0  0  0  0  0
   38.7670   26.7970   34.0580 C   0  0  0  0  0  0  0  0  0  0  0  0
   37.7770   27.1980   34.9690 C   0  0  0  0  0  0  0  0  0  0  0  0
   37.9070   26.9610   36.0360 H   0  0  0  0  0  0  0  0  0  0  0  0
   36.6390   27.8770   34.6290 C   0  0  0  0  0  0  0  0  0  0  0  0
   35.9100   28.1590   35.3790 H   0  0  0  0  0  0  0  0  0  0  0  0
   36.4190   28.2000   33.3240 C   0  0  0  0  0  0  0  0  0  0  0  0
   35.5270   28.7330   33.0410 H   0  0  0  0  0  0  0  0  0  0  0  0
   37.3440   27.8430   32.3520 C   0  0  0  0  0  0  0  0  0  0  0  0
   37.0600   28.2600   30.6740 Cl  0  0  0  0  0  0  0  0  0  0  0  0
   36.5250   22.6040   31.5060 C   0  0  0  0  0  0  0  0  0  0  0  0
   36.5140   23.8260   30.8320 F   0  0  0  0  0  0  0  0  0  0  0  0
   36.9980   21.5720   30.7820 F   0  0  0  0  0  0  0  0  0  0  0  0
   35.2060   22.3910   31.9270 F   0  0  0  0  0  0  0  0  0  0  0  0
  1  6  2  0  0  0  0
  1  2  1  0  0  0  0
  2  3  2  0  0  0  0
  3 14  1  0  0  0  0
  4  3  1  0  0  0  0
  5  7  1  0  0  0  0
  5  4  2  0  0  0  0
  6  5  1  0  0  0  0
  7 12  1  0  0  0  0
  8  7  1  0  0  0  0
  8  9  1  0  0  0  0
  9 10  1  0  0  0  0
  9 17  1  0  0  0  0
 11 12  1  0  0  0  0
 11 21  1  0  0  0  0
 11 10  1  0  0  0  0
 12 22  1  1  0  0  0
 13  2  1  0  0  0  0
 15  8  1  0  0  0  0
 16  8  1  0  0  0  0
 18  9  1  0  0  0  0
 19 10  1  0  0  0  0
 20 11  1  0  0  0  0
 23 24  1  0  0  0  0
 24 25  1  0  0  0  0
 25 12  1  0  0  0  0
 25 26  2  0  0  0  0
 26 27  1  0  0  0  0
 28 26  1  0  0  0  0
 28 29  1  0  0  0  0
 30 28  2  0  0  0  0
 31 30  1  0  0  0  0
 32 24  2  0  0  0  0
 32 30  1  0  0  0  0
 33 32  1  0  0  0  0
 34 37  1  0  0  0  0
 34  1  1  0  0  0  0
 35 34  1  0  0  0  0
 36 34  1  0  0  0  0
M  END
>  <minimizedAffinity>
-5.72130203

$$$$

 OpenBabel03272505353D

 37 39  0  0  1  0  0  0  0  0999 V2000
   36.1500   21.2350   33.2790 C   0  0  0  0  0  0  0  0  0  0  0  0
   35.5740   20.8030   34.4650 C   0  0  0  0  0  0  0  0  0  0  0  0
   36.2760   21.0550   35.6610 C   0  0  0  0  0  0  0  0  0  0  0  0
   37.4760   21.7070   35.5660 N   0  0  0  0  0  0  0  0  0  0  0  0
   37.9940   22.1060   34.3950 C   0  0  0  0  0  0  0  0  0  0  0  0
   37.3260   21.8640   33.2860 N   0  0  0  0  0  0  0  0  0  0  0  0
   39.2390   22.7700   34.4310 N   0  0  0  0  0  0  0  0  0  0  0  0
   40.4630   21.9760   34.3250 C   0  0  0  0  0  0  0  0  0  0  0  0
   41.5110   22.4460   35.3180 C   0  0  0  0  0  0  0  0  0  0  0  0
   41.6630   23.8750   35.3190 N   0  0  0  0  0  0  0  0  0  0  0  0
   40.8200   24.5580   34.3980 C   0  0  0  0  0  0  0  0  0  0  0  0
   39.3650   24.1920   34.5730 C   0  0  1  0  0  0  0  0  0  0  0  0
   34.6290   20.2940   34.5090 H   0  0  0  0  0  0  0  0  0  0  0  0
   35.8680   20.7370   36.6140 H   0  0  0  0  0  0  0  0  0  0  0  0
   40.8380   22.0060   33.2930 H   0  0  0  0  0  0  0  0  0  0  0  0
   40.2370   20.9220   34.5640 H   0  0  0  0  0  0  0  0  0  0  0  0
   41.1580   22.1400   36.3200 H   0  0  0  0  0  0  0  0  0  0  0  0
   42.4350   21.8980   35.0950 H   0  0  0  0  0  0  0  0  0  0  0  0
   42.6590   24.0850   35.0700 H   0  0  0  0  0  0  0  0  0  0  0  0
   41.1950   24.3090   33.3830 H   0  0  0  0  0  0  0  0  0  0  0  0
   40.9130   25.6440   34.5740 H   0  0  0  0  0  0  0  0  0  0  0  0
   39.1850   24.3610   35.6850 H   0  0  0  0  0  0  0  0  0  0  0  0
   38.0490   26.5850   35.9960 Cl  0  0  0  0  0  0  0  0  0  0  0  0
   37.8150   26.1640   34.3220 C   0  0  0  0  0  0  0  0  0  0  0  0
   38.4570   25.0490   33.8300 C   0  0  0  0  0  0  0  0  0  0  0  0
   38.1610   24.8110   32.4790 C   0  0  0  0  0  0  0  0  0  0  0  0
   38.6180   23.9450   31.9770 H   0  0  0  0  0  0  0  0  0  0  0  0
   37.3300   25.5880   31.7180 C   0  0  0  0  0  0  0  0  0  0  0  0
   37.1410   25.3550   30.6780 H   0  0  0  0  0  0  0  0  0  0  0  0
   36.7340   26.6760   32.2810 C   0  0  0  0  0  0  0  0  0  0  0  0
   36.0780   27.2980   31.6950 H   0  0  0  0  0  0  0  0  0  0  0  0
   36.9690   26.9890   33.6130 C   0  0  0  0  0  0  0  0  0  0  0  0
   36.2000   28.3880   34.3360 Cl  0  0  0  0  0  0  0  0  0  0  0  0
   35.4270   20.9830   31.9840 C   0  0  0  0  0  0  0  0  0  0  0  0
   36.2200   20.1780   31.1660 F   0  0  0  0  0  0  0  0  0  0  0  0
   34.2090   20.4750   32.2530 F   0  0  0  0  0  0  0  0  0  0  0  0
   35.3490   22.2230   31.3350 F   0  0  0  0  0  0  0  0  0  0  0  0
  1  6  2  0  0  0  0
  1  2  1  0  0  0  0
  2 13  1  0  0  0  0
  2  3  2  0  0  0  0
  3 14  1  0  0  0  0
  4  3  1  0  0  0  0
  5  7  1  0  0  0  0
  5  4  2  0  0  0  0
  6  5  1  0  0  0  0
  7 12  1  0  0  0  0
  8  7  1  0  0  0  0
  8 16  1  0  0  0  0
  8  9  1  0  0  0  0
  9 10  1  0  0  0  0
  9 17  1  0  0  0  0
 11 12  1  0  0  0  0
 11 21  1  0  0  0  0
 11 10  1  0  0  0  0
 12 22  1  1  0  0  0
 15  8  1  0  0  0  0
 18  9  1  0  0  0  0
 19 10  1  0  0  0  0
 20 11  1  0  0  0  0
 24 23  1  0  0  0  0
 25 24  1  0  0  0  0
 25 12  1  0  0  0  0
 26 25  2  0  0  0  0
 27 26  1  0  0  0  0
 28 30  2  0  0  0  0
 28 26  1  0  0  0  0
 29 28  1  0  0  0  0
 30 32  1  0  0  0  0
 31 30  1  0  0  0  0
 32 24  2  0  0  0  0
 32 33  1  0  0  0  0
 34 36  1  0  0  0  0
 34  1  1  0  0  0  0
 35 34  1  0  0  0  0
 37 34  1  0  0  0  0
M  END
>  <minimizedAffinity>
-5.71589184

$$$$

 OpenBabel03272505353D

 37 39  0  0  1  0  0  0  0  0999 V2000
   37.0500   21.5340   32.9220 C   0  0  0  0  0  0  0  0  0  0  0  0
   37.6660   20.8710   31.8690 C   0  0  0  0  0  0  0  0  0  0  0  0
   38.7180   21.5340   31.2060 C   0  0  0  0  0  0  0  0  0  0  0  0
   39.0580   22.7850   31.6490 N   0  0  0  0  0  0  0  0  0  0  0  0
   38.4330   23.3860   32.6720 C   0  0  0  0  0  0  0  0  0  0  0  0
   37.4510   22.7540   33.2810 N   0  0  0  0  0  0  0  0  0  0  0  0
   38.8780   24.6760   33.0340 N   0  0  0  0  0  0  0  0  0  0  0  0
   38.2550   25.8380   32.4010 C   0  0  0  0  0  0  0  0  0  0  0  0
   39.2930   26.8720   32.0050 C   0  0  0  0  0  0  0  0  0  0  0  0
   40.2350   27.1340   33.0580 N   0  0  0  0  0  0  0  0  0  0  0  0
   40.0080   26.3910   34.2500 C   0  0  0  0  0  0  0  0  0  0  0  0
   39.9210   24.9050   33.9920 C   0  0  1  0  0  0  0  0  0  0  0  0
   37.3780   19.8890   31.5430 H   0  0  0  0  0  0  0  0  0  0  0  0
   39.2310   21.0590   30.3780 H   0  0  0  0  0  0  0  0  0  0  0  0
   37.4930   26.2620   33.0700 H   0  0  0  0  0  0  0  0  0  0  0  0
   37.7420   25.5200   31.4770 H   0  0  0  0  0  0  0  0  0  0  0  0
   39.8500   26.4500   31.1480 H   0  0  0  0  0  0  0  0  0  0  0  0
   38.7490   27.7600   31.6600 H   0  0  0  0  0  0  0  0  0  0  0  0
   40.1710   28.1540   33.2910 H   0  0  0  0  0  0  0  0  0  0  0  0
   39.0750   26.7920   34.6990 H   0  0  0  0  0  0  0  0  0  0  0  0
   40.8550   26.5590   34.9370 H   0  0  0  0  0  0  0  0  0  0  0  0
   40.8710   24.6870   33.4010 H   0  0  0  0  0  0  0  0  0  0  0  0
   37.6910   25.2680   36.0850 Cl  0  0  0  0  0  0  0  0  0  0  0  0
   39.0080   24.1350   36.2120 C   0  0  0  0  0  0  0  0  0  0  0  0
   39.9440   24.1020   35.2020 C   0  0  0  0  0  0  0  0  0  0  0  0
   40.9610   23.1640   35.4430 C   0  0  0  0  0  0  0  0  0  0  0  0
   41.7670   23.0480   34.7020 H   0  0  0  0  0  0  0  0  0  0  0  0
   41.0310   22.3640   36.5500 C   0  0  0  0  0  0  0  0  0  0  0  0
   41.8400   21.6570   36.6800 H   0  0  0  0  0  0  0  0  0  0  0  0
   40.0630   22.4580   37.5040 C   0  0  0  0  0  0  0  0  0  0  0  0
   40.1040   21.8340   38.3810 H   0  0  0  0  0  0  0  0  0  0  0  0
   39.0180   23.3590   37.3500 C   0  0  0  0  0  0  0  0  0  0  0  0
   37.7740   23.4800   38.5780 Cl  0  0  0  0  0  0  0  0  0  0  0  0
   35.9240   20.8540   33.6510 C   0  0  0  0  0  0  0  0  0  0  0  0
   36.0970   21.0290   35.0250 F   0  0  0  0  0  0  0  0  0  0  0  0
   34.7520   21.3150   33.1740 F   0  0  0  0  0  0  0  0  0  0  0  0
   36.0840   19.4820   33.4200 F   0  0  0  0  0  0  0  0  0  0  0  0
  1  6  1  0  0  0  0
  1 34  1  0  0  0  0
  2  1  2  0  0  0  0
  3  4  2  0  0  0  0
  3  2  1  0  0  0  0
  4  5  1  0  0  0  0
  5  7  1  0  0  0  0
  5  6  2  0  0  0  0
  7 12  1  0  0  0  0
  8  7  1  0  0  0  0
  8 15  1  0  0  0  0
  9  8  1  0  0  0  0
  9 10  1  0  0  0  0
 10 19  1  0  0  0  0
 10 11  1  0  0  0  0
 11 20  1  0  0  0  0
 11 21  1  0  0  0  0
 12 22  1  6  0  0  0
 12 11  1  0  0  0  0
 12 25  1  0  0  0  0
 13  2  1  0  0  0  0
 14  3  1  0  0  0  0
 16  8  1  0  0  0  0
 17  9  1  0  0  0  0
 18  9  1  0  0  0  0
 23 24  1  0  0  0  0
 24 32  1  0  0  0  0
 25 26  1  0  0  0  0
 25 24  2  0  0  0  0
 26 28  2  0  0  0  0
 27 26  1  0  0  0  0
 28 29  1  0  0  0  0
 28 30  1  0  0  0  0
 30 31  1  0  0  0  0
 32 30  2  0  0  0  0
 32 33  1  0  0  0  0
 34 35  1  0  0  0  0
 36 34  1  0  0  0  0
 37 34  1  0  0  0  0
M  END
>  <minimizedAffinity>
-5.61072111

$$$$

 OpenBabel03272505353D

 37 39  0  0  1  0  0  0  0  0999 V2000
   38.3550   23.4480   36.7300 C   0  0  0  0  0  0  0  0  0  0  0  0
   37.6530   22.3770   36.1940 C   0  0  0  0  0  0  0  0  0  0  0  0
   37.7310   22.1760   34.8020 C   0  0  0  0  0  0  0  0  0  0  0  0
   38.4930   23.0530   34.0760 N   0  0  0  0  0  0  0  0  0  0  0  0
   39.1540   24.0760   34.6380 C   0  0  0  0  0  0  0  0  0  0  0  0
   39.0710   24.2500   35.9410 N   0  0  0  0  0  0  0  0  0  0  0  0
   39.9060   24.9090   33.7820 N   0  0  0  0  0  0  0  0  0  0  0  0
   39.2580   26.0810   33.1940 C   0  0  0  0  0  0  0  0  0  0  0  0
   39.6190   26.2320   31.7280 C   0  0  0  0  0  0  0  0  0  0  0  0
   41.0280   26.0830   31.4920 N   0  0  0  0  0  0  0  0  0  0  0  0
   41.7990   25.8350   32.6620 C   0  0  0  0  0  0  0  0  0  0  0  0
   41.2800   24.6580   33.4530 C   0  0  1  0  0  0  0  0  0  0  0  0
   37.0640   21.7040   36.7890 H   0  0  0  0  0  0  0  0  0  0  0  0
   37.2010   21.3530   34.3350 H   0  0  0  0  0  0  0  0  0  0  0  0
   39.5190   26.9790   33.7710 H   0  0  0  0  0  0  0  0  0  0  0  0
   38.1620   25.9610   33.2500 H   0  0  0  0  0  0  0  0  0  0  0  0
   39.0960   25.4210   31.1870 H   0  0  0  0  0  0  0  0  0  0  0  0
   39.2080   27.1920   31.3910 H   0  0  0  0  0  0  0  0  0  0  0  0
   41.3700   26.9730   31.0560 H   0  0  0  0  0  0  0  0  0  0  0  0
   41.7840   26.7750   33.2540 H   0  0  0  0  0  0  0  0  0  0  0  0
   42.8340   25.6020   32.3600 H   0  0  0  0  0  0  0  0  0  0  0  0
   41.2140   23.8280   32.6740 H   0  0  0  0  0  0  0  0  0  0  0  0
   41.7030   21.6430   33.9200 Cl  0  0  0  0  0  0  0  0  0  0  0  0
   42.4870   22.9150   34.8170 C   0  0  0  0  0  0  0  0  0  0  0  0
   42.1790   24.2210   34.5060 C   0  0  0  0  0  0  0  0  0  0  0  0
   42.8600   25.1410   35.3200 C   0  0  0  0  0  0  0  0  0  0  0  0
   42.6930   26.2170   35.1640 H   0  0  0  0  0  0  0  0  0  0  0  0
   43.7340   24.7970   36.3150 C   0  0  0  0  0  0  0  0  0  0  0  0
   44.2300   25.5530   36.9100 H   0  0  0  0  0  0  0  0  0  0  0  0
   43.9830   23.4800   36.5590 C   0  0  0  0  0  0  0  0  0  0  0  0
   44.6690   23.1950   37.3380 H   0  0  0  0  0  0  0  0  0  0  0  0
   43.3550   22.5000   35.8020 C   0  0  0  0  0  0  0  0  0  0  0  0
   43.6770   20.8070   36.1170 Cl  0  0  0  0  0  0  0  0  0  0  0  0
   38.2940   23.6900   38.2130 C   0  0  0  0  0  0  0  0  0  0  0  0
   38.0940   25.0520   38.4460 F   0  0  0  0  0  0  0  0  0  0  0  0
   37.3550   22.8890   38.7500 F   0  0  0  0  0  0  0  0  0  0  0  0
   39.5740   23.4060   38.7050 F   0  0  0  0  0  0  0  0  0  0  0  0
  1 34  1  0  0  0  0
  2  1  1  0  0  0  0
  2 13  1  0  0  0  0
  3  2  2  0  0  0  0
  4  5  2  0  0  0  0
  4  3  1  0  0  0  0
  5  6  1  0  0  0  0
  6  1  2  0  0  0  0
  7  5  1  0  0  0  0
  8 16  1  0  0  0  0
  8 15  1  0  0  0  0
  8  7  1  0  0  0  0
  9  8  1  0  0  0  0
 10  9  1  0  0  0  0
 10 11  1  0  0  0  0
 11 20  1  0  0  0  0
 11 12  1  0  0  0  0
 12 22  1  6  0  0  0
 12  7  1  0  0  0  0
 12 25  1  0  0  0  0
 14  3  1  0  0  0  0
 17  9  1  0  0  0  0
 18  9  1  0  0  0  0
 19 10  1  0  0  0  0
 21 11  1  0  0  0  0
 23 24  1  0  0  0  0
 24 32  1  0  0  0  0
 25 24  2  0  0  0  0
 25 26  1  0  0  0  0
 26 28  2  0  0  0  0
 27 26  1  0  0  0  0
 28 30  1  0  0  0  0
 28 29  1  0  0  0  0
 30 31  1  0  0  0  0
 32 33  1  0  0  0  0
 32 30  2  0  0  0  0
 34 35  1  0  0  0  0
 34 37  1  0  0  0  0
 34 36  1  0  0  0  0
M  END
>  <minimizedAffinity>
-5.55566216

$$$$
