
 OpenBabel03272508453D

 29 31  0  0  0  0  0  0  0  0999 V2000
   35.7760   29.9250   49.7890 C   0  0  0  0  0  0  0  0  0  0  0  0
   36.8100   29.3080   50.4810 C   0  0  0  0  0  0  0  0  0  0  0  0
   37.9060   30.1040   50.1390 C   0  0  0  0  0  0  0  0  0  0  0  0
   37.5200   31.1190   49.2990 C   0  0  0  0  0  0  0  0  0  0  0  0
   36.2370   30.9810   49.1110 O   0  0  0  0  0  0  0  0  0  0  0  0
   36.7320   28.4340   51.1110 H   0  0  0  0  0  0  0  0  0  0  0  0
   38.9170   29.9160   50.5070 H   0  0  0  0  0  0  0  0  0  0  0  0
   38.5450   30.6220   46.4660 Cl  0  0  0  0  0  0  0  0  0  0  0  0
   38.9000   32.0060   47.4610 C   0  0  0  0  0  0  0  0  0  0  0  0
   38.3910   32.1460   48.7350 C   0  0  0  0  0  0  0  0  0  0  0  0
   38.7070   33.2650   49.4750 C   0  0  0  0  0  0  0  0  0  0  0  0
   38.2840   33.3390   50.4780 H   0  0  0  0  0  0  0  0  0  0  0  0
   39.5220   34.2860   49.0200 C   0  0  0  0  0  0  0  0  0  0  0  0
   39.7050   35.1190   49.6850 H   0  0  0  0  0  0  0  0  0  0  0  0
   40.0360   34.1450   47.7360 C   0  0  0  0  0  0  0  0  0  0  0  0
   40.6720   34.9410   47.3810 H   0  0  0  0  0  0  0  0  0  0  0  0
   39.7270   33.0220   46.9730 C   0  0  0  0  0  0  0  0  0  0  0  0
   40.4310   32.9470   45.3660 Cl  0  0  0  0  0  0  0  0  0  0  0  0
   34.3840   29.4780   49.8060 C   0  0  0  0  0  0  0  0  0  0  0  0
   33.6910   29.7730   50.8190 O   0  0  0  0  0  0  0  0  0  0  0  0
   32.2350   27.2380   47.9310 C   0  0  0  0  0  0  0  0  0  0  0  0
   32.7720   27.2770   46.6390 C   0  0  0  0  0  0  0  0  0  0  0  0
   33.8770   28.0750   46.4080 C   0  0  0  0  0  0  0  0  0  0  0  0
   34.3780   28.7800   47.4590 N   0  0  0  0  0  0  0  0  0  0  0  0
   33.8470   28.7270   48.6900 C   0  0  0  0  0  0  0  0  0  0  0  0
   32.7680   27.9510   48.9260 N   0  0  0  0  0  0  0  0  0  0  0  0
   31.3630   26.6300   48.1880 H   0  0  0  0  0  0  0  0  0  0  0  0
   32.2850   26.6780   45.9070 H   0  0  0  0  0  0  0  0  0  0  0  0
   34.2930   28.1070   45.4100 H   0  0  0  0  0  0  0  0  0  0  0  0
  1 19  1  0  0  0  0
  1  2  2  0  0  0  0
  2  6  1  0  0  0  0
  3  2  1  0  0  0  0
  3  7  1  0  0  0  0
  4  3  2  0  0  0  0
  5  4  1  0  0  0  0
  5  1  1  0  0  0  0
  8  9  1  0  0  0  0
  9 10  1  0  0  0  0
 10  4  1  0  0  0  0
 10 11  2  0  0  0  0
 11 12  1  0  0  0  0
 13 11  1  0  0  0  0
 13 14  1  0  0  0  0
 15 13  2  0  0  0  0
 16 15  1  0  0  0  0
 17  9  2  0  0  0  0
 17 15  1  0  0  0  0
 18 17  1  0  0  0  0
 19 20  2  0  0  0  0
 21 27  1  0  0  0  0
 21 26  1  0  0  0  0
 22 21  2  0  0  0  0
 23 22  1  0  0  0  0
 23 24  2  0  0  0  0
 24 25  1  0  0  0  0
 25 26  2  0  0  0  0
 25 19  1  0  0  0  0
 28 22  1  0  0  0  0
 29 23  1  0  0  0  0
M  END
>  <minimizedAffinity>
-6.5519824

>  <minimizedRMSD>
2.18618631

$$$$
