
 OpenBabel03272507123D

 42 47  0  0  0  0  0  0  0  0999 V2000
   35.9220   29.1500   49.7720 C   0  0  0  0  0  0  0  0  0  0  0  0
   34.8900   29.7240   50.4610 C   0  0  0  0  0  0  0  0  0  0  0  0
   33.7130   29.1640   49.9550 C   0  0  0  0  0  0  0  0  0  0  0  0
   34.1160   28.2590   48.9610 C   0  0  0  0  0  0  0  0  0  0  0  0
   35.4120   28.3070   48.9140 O   0  0  0  0  0  0  0  0  0  0  0  0
   34.9460   30.4760   51.2560 H   0  0  0  0  0  0  0  0  0  0  0  0
   32.7440   29.4420   50.3230 H   0  0  0  0  0  0  0  0  0  0  0  0
   33.5400   26.5280   47.2750 C   0  0  0  0  0  0  0  0  0  0  0  0
   33.1550   27.4800   48.2050 C   0  0  0  0  0  0  0  0  0  0  0  0
   31.8270   27.7220   48.4500 C   0  0  0  0  0  0  0  0  0  0  0  0
   30.8710   26.9980   47.7510 C   0  0  0  0  0  0  0  0  0  0  0  0
   29.5320   27.0250   47.7880 N   0  0  0  0  0  0  0  0  0  0  0  0
   29.0910   26.1220   46.9100 N   0  0  0  0  0  0  0  0  0  0  0  0
   30.1420   25.5250   46.3210 C   0  0  0  0  0  0  0  0  0  0  0  0
   31.3120   26.0610   46.8350 C   0  0  0  0  0  0  0  0  0  0  0  0
   32.6350   25.7980   46.5690 C   0  0  0  0  0  0  0  0  0  0  0  0
   34.6050   26.3480   47.0920 H   0  0  0  0  0  0  0  0  0  0  0  0
   31.4300   28.4570   49.1680 H   0  0  0  0  0  0  0  0  0  0  0  0
   28.9080   27.6380   48.3890 H   0  0  0  0  0  0  0  0  0  0  0  0
   30.1410   24.7380   45.5550 H   0  0  0  0  0  0  0  0  0  0  0  0
   32.9670   25.0660   45.8530 H   0  0  0  0  0  0  0  0  0  0  0  0
   37.3040   29.4980   50.0380 C   0  0  0  0  0  0  0  0  0  0  0  0
   37.9810   28.7570   50.8010 O   0  0  0  0  0  0  0  0  0  0  0  0
   37.8280   30.6860   49.4040 C   0  0  0  0  0  0  0  0  0  0  0  0
   37.9290   31.8330   50.1860 C   0  0  0  0  0  0  0  0  0  0  0  0
   38.4320   32.9950   49.6000 C   0  0  0  0  0  0  0  0  0  0  0  0
   38.7940   32.9240   48.2900 N   0  0  0  0  0  0  0  0  0  0  0  0
   38.6880   31.8170   47.5650 C   0  0  0  0  0  0  0  0  0  0  0  0
   38.2040   30.7000   48.1280 N   0  0  0  0  0  0  0  0  0  0  0  0
   37.6200   31.8040   51.2190 H   0  0  0  0  0  0  0  0  0  0  0  0
   38.4990   33.8700   50.2310 H   0  0  0  0  0  0  0  0  0  0  0  0
   40.2600   31.1720   45.7750 C   0  0  0  0  0  3  0  0  0  0  0  0
   39.0900   31.7940   46.1630 C   0  0  0  0  0  0  0  0  0  0  0  0
   38.3310   32.3820   45.1810 C   0  0  0  0  0  0  0  0  0  0  0  0
   37.4110   32.8780   45.4330 H   0  0  0  0  0  0  0  0  0  0  0  0
   38.7300   32.3490   43.8480 C   0  0  0  0  0  0  0  0  0  0  0  0
   39.9000   31.7280   43.4600 C   0  0  0  0  0  0  0  0  0  0  0  0
   40.6550   31.1400   44.4530 C   0  0  0  0  0  3  0  0  0  0  0  0
   40.0260   31.8630   42.0730 O   0  0  0  0  0  0  0  0  0  0  0  0
   38.7710   32.3140   41.5930 C   0  0  0  0  0  3  0  0  0  0  0  0
   38.1500   31.4500   41.2580 H   0  0  0  0  0  0  0  0  0  0  0  0
   38.1100   32.8780   42.7270 O   0  0  0  0  0  0  0  0  0  0  0  0
  1 22  1  0  0  0  0
  1  2  2  0  0  0  0
  2  6  1  0  0  0  0
  3  7  1  0  0  0  0
  3  2  1  0  0  0  0
  4  3  2  0  0  0  0
  5  4  1  0  0  0  0
  5  1  1  0  0  0  0
  8  9  1  0  0  0  0
  9 10  2  0  0  0  0
  9  4  1  0  0  0  0
 10 18  1  0  0  0  0
 11 12  1  0  0  0  0
 11 10  1  0  0  0  0
 12 19  1  0  0  0  0
 13 12  1  0  0  0  0
 14 15  1  0  0  0  0
 14 13  2  0  0  0  0
 15 11  2  0  0  0  0
 16 15  1  0  0  0  0
 16  8  2  0  0  0  0
 17  8  1  0  0  0  0
 20 14  1  0  0  0  0
 21 16  1  0  0  0  0
 22 23  2  0  0  0  0
 24 22  1  0  0  0  0
 24 25  1  0  0  0  0
 25 30  1  0  0  0  0
 26 25  2  0  0  0  0
 26 31  1  0  0  0  0
 27 26  1  0  0  0  0
 28 29  1  0  0  0  0
 28 27  2  0  0  0  0
 29 24  2  0  0  0  0
 32 33  1  0  0  0  0
 33 28  1  0  0  0  0
 34 35  1  0  0  0  0
 34 33  2  0  0  0  0
 36 34  1  0  0  0  0
 37 36  2  0  0  0  0
 37 38  1  0  0  0  0
 38 32  2  0  0  0  0
 39 37  1  0  0  0  0
 40 39  1  0  0  0  0
 40 42  1  0  0  0  0
 41 40  1  0  0  0  0
 42 36  1  0  0  0  0
M  END
>  <minimizedAffinity>
-7.69623232

>  <minimizedRMSD>
0.800243974

$$$$
