
 OpenBabel03272510163D

 30 33  0  0  0  0  0  0  0  0999 V2000
   37.2130   29.5710   51.2240 Br  0  0  0  0  0  0  0  0  0  0  0  0
   36.0200   29.3340   49.7470 C   0  0  0  0  0  0  0  0  0  0  0  0
   36.1170   30.1410   48.6220 C   0  0  0  0  0  0  0  0  0  0  0  0
   35.2230   29.9070   47.6040 C   0  0  0  0  0  0  0  0  0  0  0  0
   34.2450   28.9260   47.6380 C   0  0  0  0  0  0  0  0  0  0  0  0
   34.1850   28.1520   48.7700 C   0  0  0  0  0  0  0  0  0  0  0  0
   35.0660   28.3590   49.8120 C   0  0  0  0  0  0  0  0  0  0  0  0
   35.2940   30.5330   46.7180 H   0  0  0  0  0  0  0  0  0  0  0  0
   33.4270   27.3730   48.8280 H   0  0  0  0  0  0  0  0  0  0  0  0
   34.9840   27.7180   50.6990 H   0  0  0  0  0  0  0  0  0  0  0  0
   33.6100   27.6980   45.6590 C   0  0  0  0  0  3  0  0  0  0  0  0
   33.3310   28.7320   46.5260 C   0  0  0  0  0  0  0  0  0  0  0  0
   32.2200   29.5210   46.3030 C   0  0  0  0  0  0  0  0  0  0  0  0
   31.9970   30.3230   46.9720 H   0  0  0  0  0  0  0  0  0  0  0  0
   31.4140   29.2570   45.2220 C   0  0  0  0  0  0  0  0  0  0  0  0
   31.6990   28.2110   44.3460 C   0  0  0  0  0  0  0  0  0  0  0  0
   32.8140   27.3990   44.5470 C   0  0  0  0  0  3  0  0  0  0  0  0
   30.7500   28.1250   43.3190 O   0  0  0  0  0  0  0  0  0  0  0  0
   29.6480   28.8850   43.8380 C   0  0  0  0  0  3  0  0  0  0  0  0
   29.0770   29.3480   43.0350 H   0  0  0  0  0  0  0  0  0  0  0  0
   30.2410   29.8340   44.7060 O   0  0  0  0  0  0  0  0  0  0  0  0
   37.9840   33.1740   49.3930 C   0  0  0  0  0  0  0  0  0  0  0  0
   39.0220   33.1880   48.4360 C   0  0  0  0  0  0  0  0  0  0  0  0
   39.0640   32.1380   47.5260 C   0  0  0  0  0  0  0  0  0  0  0  0
   38.1150   31.1450   47.5890 N   0  0  0  0  0  0  0  0  0  0  0  0
   37.1330   31.1860   48.5390 C   0  0  0  0  0  0  0  0  0  0  0  0
   37.0770   32.1940   49.4280 N   0  0  0  0  0  0  0  0  0  0  0  0
   37.9900   34.0090   50.0810 H   0  0  0  0  0  0  0  0  0  0  0  0
   39.7750   33.9620   48.3750 H   0  0  0  0  0  0  0  0  0  0  0  0
   39.8090   32.0390   46.7470 H   0  0  0  0  0  0  0  0  0  0  0  0
  2  7  1  0  0  0  0
  2  1  1  0  0  0  0
  3  2  2  0  0  0  0
  4  5  2  0  0  0  0
  4  3  1  0  0  0  0
  5  6  1  0  0  0  0
  6  9  1  0  0  0  0
  6  7  2  0  0  0  0
  7 10  1  0  0  0  0
  8  4  1  0  0  0  0
 11 12  1  0  0  0  0
 12  5  1  0  0  0  0
 13 12  2  0  0  0  0
 13 14  1  0  0  0  0
 15 13  1  0  0  0  0
 16 17  1  0  0  0  0
 16 15  2  0  0  0  0
 17 11  2  0  0  0  0
 18 19  1  0  0  0  0
 18 16  1  0  0  0  0
 19 21  1  0  0  0  0
 20 19  1  0  0  0  0
 21 15  1  0  0  0  0
 22 27  1  0  0  0  0
 22 28  1  0  0  0  0
 23 22  2  0  0  0  0
 24 25  2  0  0  0  0
 24 23  1  0  0  0  0
 25 26  1  0  0  0  0
 26  3  1  0  0  0  0
 26 27  2  0  0  0  0
 29 23  1  0  0  0  0
 30 24  1  0  0  0  0
M  END
>  <minimizedAffinity>
-6.05583572

>  <minimizedRMSD>
0.566190898

$$$$
