
 OpenBabel03262521493D

 34 37  0  0  1  0  0  0  0  0999 V2000
   37.2230   29.6730   50.6010 C   0  0  0  0  0  0  0  0  0  0  0  0
   37.5390   30.9900   50.2820 C   0  0  0  0  0  0  0  0  0  0  0  0
   36.8830   31.5620   49.1830 C   0  0  0  0  0  0  0  0  0  0  0  0
   35.9860   30.8020   48.4990 N   0  0  0  0  0  0  0  0  0  0  0  0
   35.7090   29.5390   48.8370 C   0  0  0  0  0  0  0  0  0  0  0  0
   36.3360   28.9710   49.9000 N   0  0  0  0  0  0  0  0  0  0  0  0
   34.7780   28.7920   48.1020 N   0  0  0  0  0  0  0  0  0  0  0  0
   33.9640   27.7420   48.7140 C   0  0  0  0  0  0  0  0  0  0  0  0
   32.5300   28.0090   48.4870 C   0  0  0  0  0  0  0  0  0  0  0  0
   32.2030   28.8960   47.4600 N   0  0  0  0  0  0  0  0  0  0  0  0
   33.1080   29.2130   46.4300 C   0  0  0  0  0  0  0  0  0  0  0  0
   34.5590   28.9950   46.6930 C   0  0  1  0  0  0  0  0  0  0  0  0
   37.7140   29.2020   51.4450 H   0  0  0  0  0  0  0  0  0  0  0  0
   38.2650   31.5540   50.8600 H   0  0  0  0  0  0  0  0  0  0  0  0
   37.1050   32.5970   48.9010 H   0  0  0  0  0  0  0  0  0  0  0  0
   34.2500   27.5790   49.7680 H   0  0  0  0  0  0  0  0  0  0  0  0
   34.2560   26.8120   48.1700 H   0  0  0  0  0  0  0  0  0  0  0  0
   32.1070   28.4020   49.4540 H   0  0  0  0  0  0  0  0  0  0  0  0
   32.0100   27.0250   48.3280 H   0  0  0  0  0  0  0  0  0  0  0  0
   31.4680   29.5850   47.6520 H   0  0  0  0  0  0  0  0  0  0  0  0
   32.7880   28.6970   45.5010 H   0  0  0  0  0  0  0  0  0  0  0  0
   32.9630   30.3120   46.2050 H   0  0  0  0  0  0  0  0  0  0  0  0
   34.7540   27.9380   46.2750 H   0  0  0  0  0  0  0  0  0  0  0  0
   36.7830   30.2290   46.3030 C   0  0  0  0  0  0  0  0  0  0  0  0
   35.5020   29.8440   45.9930 C   0  0  0  0  0  0  0  0  0  0  0  0
   35.0050   30.3720   44.7940 C   0  0  0  0  0  0  0  0  0  0  0  0
   33.9960   30.1550   44.4100 H   0  0  0  0  0  0  0  0  0  0  0  0
   35.7750   31.2110   44.0150 C   0  0  0  0  0  0  0  0  0  0  0  0
   37.0430   31.5740   44.3530 C   0  0  0  0  0  0  0  0  0  0  0  0
   37.5460   31.0670   45.5230 C   0  0  0  0  0  0  0  0  0  0  0  0
   37.5370   32.4220   43.3630 O   0  0  0  0  0  0  0  0  0  0  0  0
   36.4480   32.9160   42.6050 C   0  0  0  0  0  0  0  0  0  0  0  0
   36.6830   33.0690   41.5370 H   0  0  0  0  0  0  0  0  0  0  0  0
   35.5010   31.8560   42.7930 O   0  0  0  0  0  0  0  0  0  0  0  0
  1 13  1  0  0  0  0
  2  1  1  0  0  0  0
  2 14  1  0  0  0  0
  3  2  2  0  0  0  0
  4  5  2  0  0  0  0
  4  3  1  0  0  0  0
  5  6  1  0  0  0  0
  6  1  2  0  0  0  0
  7  8  1  0  0  0  0
  7  5  1  0  0  0  0
  8 16  1  0  0  0  0
  9  8  1  0  0  0  0
  9 18  1  0  0  0  0
 10 20  1  0  0  0  0
 10  9  1  0  0  0  0
 11 12  1  0  0  0  0
 11 10  1  0  0  0  0
 12 23  1  6  0  0  0
 12  7  1  0  0  0  0
 15  3  1  0  0  0  0
 17  8  1  0  0  0  0
 19  9  1  0  0  0  0
 21 11  1  0  0  0  0
 22 11  1  0  0  0  0
 25 24  1  0  0  0  0
 25 12  1  0  0  0  0
 26 25  2  0  0  0  0
 27 26  1  0  0  0  0
 28 29  2  0  0  0  0
 28 26  1  0  0  0  0
 29 30  1  0  0  0  0
 30 24  2  0  0  0  0
 31 29  1  0  0  0  0
 32 34  1  0  0  0  0
 32 31  1  0  0  0  0
 33 32  1  0  0  0  0
 34 28  1  0  0  0  0
M  END
>  <minimizedAffinity>
-5.1602788

>  <minimizedRMSD>
0.761466801

$$$$
