REMARK  Name = 
REMARK  3 active torsions:
REMARK  status: ('A' for Active; 'I' for Inactive)
REMARK    1  A    between atoms: C_1  and  C_21
REMARK    2  A    between atoms: C_5  and  C_7
REMARK    3  A    between atoms: C_19  and  C_34
REMARK                            x       y       z     vdW  Elec       q    Type
REMARK                         _______ _______ _______ _____ _____    ______ ____
ROOT
ATOM      1  C   UNL     1      37.507  31.134  49.590  0.00  0.00    +0.000 A 
ATOM      2  C   UNL     1      37.753  30.667  50.860  0.00  0.00    +0.000 A 
ATOM      3  C   UNL     1      36.935  29.705  51.379  0.00  0.00    +0.000 A 
ATOM      4  N   UNL     1      35.892  29.219  50.642  0.00  0.00    +0.000 NA
ATOM      5  C   UNL     1      35.688  29.695  49.422  0.00  0.00    +0.000 A 
ATOM      6  N   UNL     1      36.477  30.646  48.880  0.00  0.00    +0.000 NA
ATOM      7  H   UNL     1      38.593  31.077  51.419  0.00  0.00    +0.000 HD
ATOM      8  H   UNL     1      37.105  29.319  52.376  0.00  0.00    +0.000 HD
ENDROOT
BRANCH   5   9
ATOM      9  C   UNL     1      34.580  29.178  48.641  0.00  0.00    +0.000 A 
ATOM     10  C   UNL     1      34.517  29.359  47.284  0.00  0.00    +0.000 A 
ATOM     11  C   UNL     1      33.539  28.933  46.410  0.00  0.00    +0.000 A 
ATOM     12  C   UNL     1      32.507  28.237  47.017  0.00  0.00    +0.000 A 
ATOM     13  N   UNL     1      31.503  27.783  46.220  0.00  0.00    +0.000 NA
ATOM     14  C   UNL     1      30.455  27.097  46.709  0.00  0.00    +0.000 A 
ATOM     15  C   UNL     1      30.392  26.842  48.074  0.00  0.00    +0.000 A 
ATOM     16  C   UNL     1      31.414  27.303  48.890  0.00  0.00    +0.000 A 
ATOM     17  C   UNL     1      32.500  28.013  48.387  0.00  0.00    +0.000 A 
ATOM     18  C   UNL     1      33.518  28.474  49.190  0.00  0.00    +0.000 A 
ATOM     19  H   UNL     1      35.353  29.915  46.844  0.00  0.00    +0.000 HD
ATOM     20  H   UNL     1      33.599  29.137  45.355  0.00  0.00    +0.000 HD
ATOM     21  H   UNL     1      29.652  26.733  46.081  0.00  0.00    +0.000 HD
ATOM     22  H   UNL     1      29.560  26.291  48.496  0.00  0.00    +0.000 HD
ATOM     23  H   UNL     1      31.393  27.119  49.958  0.00  0.00    +0.000 HD
ATOM     24  H   UNL     1      33.498  28.293  50.249  0.00  0.00    +0.000 HD
ENDBRANCH   5   9
BRANCH   1  29
ATOM     25  C   UNL     1      39.507  34.176  49.064  0.00  0.00    +0.000 A 
ATOM     26  C   UNL     1      39.934  34.022  47.731  0.00  0.00    +0.000 A 
ATOM     27  C   UNL     1      39.525  32.868  47.031  0.00  0.00    +0.000 A 
ATOM     28  N   UNL     1      38.746  31.988  47.700  0.00  0.00    +0.000 NA
ATOM     29  C   UNL     1      38.347  32.161  48.988  0.00  0.00    +0.000 A 
ATOM     30  N   UNL     1      38.732  33.252  49.654  0.00  0.00    +0.000 NA
ATOM     31  H   UNL     1      39.833  35.070  49.583  0.00  0.00    +0.000 HD
ATOM     32  H   UNL     1      40.544  34.724  47.228  0.00  0.00    +0.000 HD
BRANCH  27  34
ATOM     33  C   UNL     1      39.992  31.246  45.315  0.00  0.00    +0.000 A 
ATOM     34  C   UNL     1      39.890  32.579  45.653  0.00  0.00    +0.000 A 
ATOM     35  C   UNL     1      40.126  33.564  44.721  0.00  0.00    +0.000 A 
ATOM     36  H   UNL     1      40.047  34.610  44.980  0.00  0.00    +0.000 HD
ATOM     37  C   UNL     1      40.473  33.254  43.411  0.00  0.00    +0.000 A 
ATOM     38  C   UNL     1      40.571  31.911  43.087  0.00  0.00    +0.000 A 
ATOM     39  C   UNL     1      40.340  30.888  44.007  0.00  0.00    +0.000 A 
ATOM     40  O   UNL     1      40.928  31.806  41.735  0.00  0.00    +0.000 OA
ATOM     41  C   UNL     1      40.729  33.081  41.130  0.00  0.00    +0.000 C 
ATOM     42  H   UNL     1      39.699  33.166  40.711  0.00  0.00    +0.000 HD
ATOM     43  O   UNL     1      40.773  33.944  42.246  0.00  0.00    +0.000 OA
ENDBRANCH  27  34
ENDBRANCH   1  29
TORSDOF 3
