
 OpenBabel03272500593D

 37 40  0  0  0  0  0  0  0  0999 V2000
   36.1880   22.0250   32.3260 C   0  0  0  0  0  0  0  0  0  0  0  0
   35.2350   21.4430   31.5430 C   0  0  0  0  0  0  0  0  0  0  0  0
   34.7960   20.1310   31.7410 C   0  0  0  0  0  0  0  0  0  0  0  0
   35.3980   19.3850   32.8280 C   0  0  0  0  0  0  0  0  0  0  0  0
   36.3420   20.0210   33.5700 C   0  0  0  0  0  0  0  0  0  0  0  0
   36.7540   21.2790   33.3690 C   0  0  0  0  0  0  0  0  0  0  0  0
   34.7580   21.9840   30.7090 H   0  0  0  0  0  0  0  0  0  0  0  0
   34.0370   19.7310   31.0810 H   0  0  0  0  0  0  0  0  0  0  0  0
   34.9720   18.4060   32.8630 H   0  0  0  0  0  0  0  0  0  0  0  0
   36.6250   19.3040   34.3240 H   0  0  0  0  0  0  0  0  0  0  0  0
   35.4830   24.2040   31.4650 C   0  0  0  0  0  0  0  0  0  0  0  0
   36.5140   23.3970   32.0090 C   0  0  0  0  0  0  0  0  0  0  0  0
   37.7120   24.0460   32.1750 C   0  0  0  0  0  0  0  0  0  0  0  0
   37.8560   25.3330   31.8380 N   0  0  0  0  0  0  0  0  0  0  0  0
   36.8860   26.0690   31.3330 C   0  0  0  0  0  0  0  0  0  0  0  0
   35.7070   25.4950   31.1510 N   0  0  0  0  0  0  0  0  0  0  0  0
   34.4910   23.7740   31.2960 H   0  0  0  0  0  0  0  0  0  0  0  0
   38.5020   23.4390   32.5880 H   0  0  0  0  0  0  0  0  0  0  0  0
   36.9910   27.1110   31.0570 H   0  0  0  0  0  0  0  0  0  0  0  0
   37.3690   21.9260   35.5460 C   0  0  0  0  0  0  0  0  0  0  0  0
   36.2020   21.4950   35.8950 O   0  0  0  0  0  0  0  0  0  0  0  0
   37.7300   21.8530   34.1430 N   0  0  0  0  0  0  0  0  0  0  0  0
   38.6430   22.2070   33.7840 H   0  0  0  0  0  0  0  0  0  0  0  0
   38.1970   22.4280   36.5080 O   0  0  0  0  0  0  0  0  0  0  0  0
   38.2170   23.7390   36.9480 C   0  0  0  0  0  0  0  0  0  0  0  0
   37.7380   24.0960   38.1210 O   0  0  0  0  0  0  0  0  0  0  0  0
   38.3060   26.0750   36.0410 C   0  0  0  0  0  3  0  0  0  0  0  0
   38.8110   24.8090   36.1140 C   0  0  0  0  0  0  0  0  0  0  0  0
   39.9330   24.5550   35.3540 C   0  0  0  0  0  0  0  0  0  0  0  0
   40.3720   23.5540   35.3820 H   0  0  0  0  0  0  0  0  0  0  0  0
   40.5480   25.4740   34.5570 C   0  0  0  0  0  0  0  0  0  0  0  0
   40.0000   26.7540   34.5130 C   0  0  0  0  0  0  0  0  0  0  0  0
   38.8770   27.0540   35.2570 C   0  0  0  0  0  3  0  0  0  0  0  0
   40.7870   27.5260   33.6380 O   0  0  0  0  0  0  0  0  0  0  0  0
   42.0200   26.8550   33.4650 C   0  0  0  0  0  3  0  0  0  0  0  0
   42.4290   26.9170   32.4440 H   0  0  0  0  0  0  0  0  0  0  0  0
   41.6580   25.5000   33.7060 O   0  0  0  0  0  0  0  0  0  0  0  0
  1  6  1  0  0  0  0
  2  3  1  0  0  0  0
  2  1  2  0  0  0  0
  3  4  2  0  0  0  0
  4  9  1  0  0  0  0
  4  5  1  0  0  0  0
  5 10  1  0  0  0  0
  6  5  2  0  0  0  0
  6 22  1  0  0  0  0
  7  2  1  0  0  0  0
  8  3  1  0  0  0  0
 11 12  1  0  0  0  0
 12 13  2  0  0  0  0
 12  1  1  0  0  0  0
 13 18  1  0  0  0  0
 14 13  1  0  0  0  0
 15 14  2  0  0  0  0
 16 15  1  0  0  0  0
 16 11  2  0  0  0  0
 17 11  1  0  0  0  0
 19 15  1  0  0  0  0
 20 21  2  0  0  0  0
 20 24  1  0  0  0  0
 22 20  1  0  0  0  0
 23 22  1  0  0  0  0
 24 25  1  0  0  0  0
 25 26  2  0  0  0  0
 27 28  1  0  0  0  0
 28 25  1  0  0  0  0
 29 30  1  0  0  0  0
 29 28  2  0  0  0  0
 31 29  1  0  0  0  0
 32 31  2  0  0  0  0
 32 33  1  0  0  0  0
 33 27  2  0  0  0  0
 34 32  1  0  0  0  0
 35 34  1  0  0  0  0
 35 37  1  0  0  0  0
 36 35  1  0  0  0  0
 37 31  1  0  0  0  0
M  END
>  <minimizedAffinity>
-6.10815287

$$$$

 OpenBabel03272500593D

 37 40  0  0  0  0  0  0  0  0999 V2000
   41.4980   22.0830   36.6560 C   0  0  0  0  0  0  0  0  0  0  0  0
   41.8700   20.8670   37.1490 C   0  0  0  0  0  0  0  0  0  0  0  0
   43.1560   20.3450   36.9770 C   0  0  0  0  0  0  0  0  0  0  0  0
   44.1070   21.1530   36.2410 C   0  0  0  0  0  0  0  0  0  0  0  0
   43.6750   22.3540   35.7760 C   0  0  0  0  0  0  0  0  0  0  0  0
   42.4400   22.8420   35.9470 C   0  0  0  0  0  0  0  0  0  0  0  0
   41.1700   20.2290   37.7130 H   0  0  0  0  0  0  0  0  0  0  0  0
   43.3820   19.3730   37.3930 H   0  0  0  0  0  0  0  0  0  0  0  0
   45.0410   20.6360   36.1860 H   0  0  0  0  0  0  0  0  0  0  0  0
   44.5380   22.7870   35.2960 H   0  0  0  0  0  0  0  0  0  0  0  0
   39.1570   22.2200   35.9580 C   0  0  0  0  0  0  0  0  0  0  0  0
   40.1420   22.4910   36.9410 C   0  0  0  0  0  0  0  0  0  0  0  0
   39.6610   23.1150   38.0650 C   0  0  0  0  0  0  0  0  0  0  0  0
   38.3650   23.4250   38.1860 N   0  0  0  0  0  0  0  0  0  0  0  0
   37.4630   23.1650   37.2610 C   0  0  0  0  0  0  0  0  0  0  0  0
   37.8690   22.5640   36.1550 N   0  0  0  0  0  0  0  0  0  0  0  0
   39.4450   21.7240   35.0270 H   0  0  0  0  0  0  0  0  0  0  0  0
   40.4040   23.3260   38.8180 H   0  0  0  0  0  0  0  0  0  0  0  0
   36.4110   23.4110   37.3480 H   0  0  0  0  0  0  0  0  0  0  0  0
   41.6830   23.9780   34.0310 C   0  0  0  0  0  0  0  0  0  0  0  0
   41.7710   22.8320   33.4410 O   0  0  0  0  0  0  0  0  0  0  0  0
   42.0630   24.0540   35.4290 N   0  0  0  0  0  0  0  0  0  0  0  0
   42.0440   24.9500   35.9640 H   0  0  0  0  0  0  0  0  0  0  0  0
   41.2410   25.0520   33.3150 O   0  0  0  0  0  0  0  0  0  0  0  0
   41.0580   26.3300   33.8110 C   0  0  0  0  0  0  0  0  0  0  0  0
   42.0640   27.1470   34.0420 O   0  0  0  0  0  0  0  0  0  0  0  0
   39.2270   27.1000   35.3420 C   0  0  0  0  0  3  0  0  0  0  0  0
   39.6980   26.8480   34.0850 C   0  0  0  0  0  0  0  0  0  0  0  0
   38.8290   27.1020   33.0460 C   0  0  0  0  0  0  0  0  0  0  0  0
   39.1640   26.9140   32.0220 H   0  0  0  0  0  0  0  0  0  0  0  0
   37.5610   27.5780   33.2000 C   0  0  0  0  0  0  0  0  0  0  0  0
   37.1200   27.8210   34.4990 C   0  0  0  0  0  0  0  0  0  0  0  0
   37.9560   27.5810   35.5700 C   0  0  0  0  0  3  0  0  0  0  0  0
   35.8000   28.3020   34.4200 O   0  0  0  0  0  0  0  0  0  0  0  0
   35.5770   28.7260   33.0890 C   0  0  0  0  0  3  0  0  0  0  0  0
   34.5650   28.5110   32.7090 H   0  0  0  0  0  0  0  0  0  0  0  0
   36.4940   27.9170   32.3600 O   0  0  0  0  0  0  0  0  0  0  0  0
  1 12  1  0  0  0  0
  1  2  1  0  0  0  0
  2  7  1  0  0  0  0
  3  2  2  0  0  0  0
  3  8  1  0  0  0  0
  4  3  1  0  0  0  0
  5  6  1  0  0  0  0
  5  4  2  0  0  0  0
  6  1  2  0  0  0  0
  9  4  1  0  0  0  0
 10  5  1  0  0  0  0
 11 16  2  0  0  0  0
 11 12  1  0  0  0  0
 12 13  2  0  0  0  0
 13 14  1  0  0  0  0
 13 18  1  0  0  0  0
 15 19  1  0  0  0  0
 15 14  2  0  0  0  0
 16 15  1  0  0  0  0
 17 11  1  0  0  0  0
 20 22  1  0  0  0  0
 21 20  2  0  0  0  0
 22  6  1  0  0  0  0
 22 23  1  0  0  0  0
 24 25  1  0  0  0  0
 24 20  1  0  0  0  0
 25 26  2  0  0  0  0
 25 28  1  0  0  0  0
 27 33  1  0  0  0  0
 28 27  2  0  0  0  0
 29 31  2  0  0  0  0
 29 28  1  0  0  0  0
 30 29  1  0  0  0  0
 31 32  1  0  0  0  0
 32 33  2  0  0  0  0
 34 32  1  0  0  0  0
 35 34  1  0  0  0  0
 36 35  1  0  0  0  0
 37 35  1  0  0  0  0
 37 31  1  0  0  0  0
M  END
>  <minimizedAffinity>
-5.93386602

$$$$

 OpenBabel03272500593D

 37 40  0  0  0  0  0  0  0  0999 V2000
   33.7200   30.6380   35.5200 C   0  0  0  0  0  0  0  0  0  0  0  0
   33.3020   31.7330   36.2170 C   0  0  0  0  0  0  0  0  0  0  0  0
   34.1760   32.7450   36.6240 C   0  0  0  0  0  0  0  0  0  0  0  0
   35.5740   32.5950   36.2770 C   0  0  0  0  0  0  0  0  0  0  0  0
   35.9260   31.4820   35.5820 C   0  0  0  0  0  0  0  0  0  0  0  0
   35.0790   30.5190   35.1990 C   0  0  0  0  0  0  0  0  0  0  0  0
   32.2450   31.8760   36.4960 H   0  0  0  0  0  0  0  0  0  0  0  0
   33.7770   33.5860   37.1760 H   0  0  0  0  0  0  0  0  0  0  0  0
   36.1220   33.4350   36.6470 H   0  0  0  0  0  0  0  0  0  0  0  0
   36.9860   31.5920   35.4110 H   0  0  0  0  0  0  0  0  0  0  0  0
   32.1930   28.8370   36.1650 C   0  0  0  0  0  0  0  0  0  0  0  0
   32.6900   29.6940   35.1500 C   0  0  0  0  0  0  0  0  0  0  0  0
   32.1050   29.5140   33.9220 C   0  0  0  0  0  0  0  0  0  0  0  0
   31.1490   28.5960   33.7370 N   0  0  0  0  0  0  0  0  0  0  0  0
   30.6990   27.8070   34.6920 C   0  0  0  0  0  0  0  0  0  0  0  0
   31.2270   27.9360   35.8990 N   0  0  0  0  0  0  0  0  0  0  0  0
   32.5990   28.9070   37.1780 H   0  0  0  0  0  0  0  0  0  0  0  0
   32.4770   30.1610   33.1440 H   0  0  0  0  0  0  0  0  0  0  0  0
   29.9260   27.0600   34.5550 H   0  0  0  0  0  0  0  0  0  0  0  0
   35.7380   29.6610   33.1100 C   0  0  0  0  0  0  0  0  0  0  0  0
   35.4930   30.8470   32.6590 O   0  0  0  0  0  0  0  0  0  0  0  0
   35.5070   29.4070   34.5200 N   0  0  0  0  0  0  0  0  0  0  0  0
   35.6560   28.4680   34.9490 H   0  0  0  0  0  0  0  0  0  0  0  0
   36.1980   28.7120   32.2440 O   0  0  0  0  0  0  0  0  0  0  0  0
   36.8870   27.5660   32.5960 C   0  0  0  0  0  0  0  0  0  0  0  0
   37.9340   27.5910   33.3940 O   0  0  0  0  0  0  0  0  0  0  0  0
   35.4240   26.0630   31.2230 C   0  0  0  0  0  3  0  0  0  0  0  0
   36.4540   26.2400   32.1020 C   0  0  0  0  0  0  0  0  0  0  0  0
   37.0950   25.0960   32.5270 C   0  0  0  0  0  0  0  0  0  0  0  0
   37.9260   25.1900   33.2320 H   0  0  0  0  0  0  0  0  0  0  0  0
   36.7670   23.8340   32.1280 C   0  0  0  0  0  0  0  0  0  0  0  0
   35.7110   23.7000   31.2300 C   0  0  0  0  0  0  0  0  0  0  0  0
   35.0390   24.8170   30.7780 C   0  0  0  0  0  3  0  0  0  0  0  0
   35.5510   22.3280   30.9610 O   0  0  0  0  0  0  0  0  0  0  0  0
   36.7350   21.6700   31.3670 C   0  0  0  0  0  3  0  0  0  0  0  0
   36.5700   20.6800   31.8210 H   0  0  0  0  0  0  0  0  0  0  0  0
   37.2250   22.5370   32.3840 O   0  0  0  0  0  0  0  0  0  0  0  0
  1  2  1  0  0  0  0
  2  7  1  0  0  0  0
  2  3  2  0  0  0  0
  3  8  1  0  0  0  0
  4  3  1  0  0  0  0
  4  9  1  0  0  0  0
  5  4  2  0  0  0  0
  6  1  2  0  0  0  0
  6  5  1  0  0  0  0
 10  5  1  0  0  0  0
 11 17  1  0  0  0  0
 12  1  1  0  0  0  0
 12 11  2  0  0  0  0
 13 12  1  0  0  0  0
 14 13  2  0  0  0  0
 14 15  1  0  0  0  0
 15 16  2  0  0  0  0
 16 11  1  0  0  0  0
 18 13  1  0  0  0  0
 19 15  1  0  0  0  0
 20 22  1  0  0  0  0
 21 20  2  0  0  0  0
 22 23  1  0  0  0  0
 22  6  1  0  0  0  0
 24 25  1  0  0  0  0
 24 20  1  0  0  0  0
 25 26  2  0  0  0  0
 27 28  1  0  0  0  0
 28 29  2  0  0  0  0
 28 25  1  0  0  0  0
 29 30  1  0  0  0  0
 31 37  1  0  0  0  0
 31 29  1  0  0  0  0
 32 31  2  0  0  0  0
 33 27  2  0  0  0  0
 33 32  1  0  0  0  0
 34 32  1  0  0  0  0
 34 35  1  0  0  0  0
 35 36  1  0  0  0  0
 35 37  1  0  0  0  0
M  END
>  <minimizedAffinity>
-5.92029762

$$$$

 OpenBabel03272500593D

 37 40  0  0  0  0  0  0  0  0999 V2000
   36.4140   29.7170   30.8660 C   0  0  0  0  0  0  0  0  0  0  0  0
   36.8630   30.9590   30.5280 C   0  0  0  0  0  0  0  0  0  0  0  0
   37.6330   31.1980   29.3860 C   0  0  0  0  0  0  0  0  0  0  0  0
   37.9490   30.0580   28.5490 C   0  0  0  0  0  0  0  0  0  0  0  0
   37.4730   28.8480   28.9400 C   0  0  0  0  0  0  0  0  0  0  0  0
   36.7360   28.6330   30.0370 C   0  0  0  0  0  0  0  0  0  0  0  0
   36.6390   31.8460   31.1440 H   0  0  0  0  0  0  0  0  0  0  0  0
   37.9570   32.2090   29.1790 H   0  0  0  0  0  0  0  0  0  0  0  0
   38.5380   30.3830   27.7180 H   0  0  0  0  0  0  0  0  0  0  0  0
   37.7970   28.1660   28.1700 H   0  0  0  0  0  0  0  0  0  0  0  0
   34.2560   30.0600   31.9680 C   0  0  0  0  0  0  0  0  0  0  0  0
   35.6070   29.6410   32.0630 C   0  0  0  0  0  0  0  0  0  0  0  0
   35.9770   29.2000   33.3090 C   0  0  0  0  0  0  0  0  0  0  0  0
   35.1050   29.1830   34.3240 N   0  0  0  0  0  0  0  0  0  0  0  0
   33.8520   29.5760   34.2190 C   0  0  0  0  0  0  0  0  0  0  0  0
   33.4400   30.0110   33.0390 N   0  0  0  0  0  0  0  0  0  0  0  0
   33.8690   30.4270   31.0130 H   0  0  0  0  0  0  0  0  0  0  0  0
   37.0030   28.8800   33.3900 H   0  0  0  0  0  0  0  0  0  0  0  0
   33.1380   29.5660   35.0340 H   0  0  0  0  0  0  0  0  0  0  0  0
   37.3070   26.6220   31.1170 C   0  0  0  0  0  0  0  0  0  0  0  0
   38.4560   27.1750   31.3210 O   0  0  0  0  0  0  0  0  0  0  0  0
   36.3070   27.3780   30.3860 N   0  0  0  0  0  0  0  0  0  0  0  0
   35.3670   26.9870   30.1600 H   0  0  0  0  0  0  0  0  0  0  0  0
   37.0910   25.3620   31.5950 O   0  0  0  0  0  0  0  0  0  0  0  0
   36.0760   24.5120   31.1950 C   0  0  0  0  0  0  0  0  0  0  0  0
   34.9240   24.9560   30.7380 O   0  0  0  0  0  0  0  0  0  0  0  0
   37.4240   22.4160   30.9150 C   0  0  0  0  0  3  0  0  0  0  0  0
   36.2570   23.0430   31.2430 C   0  0  0  0  0  0  0  0  0  0  0  0
   35.2150   22.2280   31.6330 C   0  0  0  0  0  0  0  0  0  0  0  0
   34.2610   22.6870   31.9050 H   0  0  0  0  0  0  0  0  0  0  0  0
   35.2870   20.8690   31.7070 C   0  0  0  0  0  0  0  0  0  0  0  0
   36.4970   20.2700   31.3640 C   0  0  0  0  0  0  0  0  0  0  0  0
   37.5670   21.0470   30.9670 C   0  0  0  0  0  3  0  0  0  0  0  0
   36.3440   18.8790   31.5120 O   0  0  0  0  0  0  0  0  0  0  0  0
   35.1990   18.6570   32.3120 C   0  0  0  0  0  3  0  0  0  0  0  0
   34.5990   17.7830   32.0120 H   0  0  0  0  0  0  0  0  0  0  0  0
   34.4250   19.8230   32.0560 O   0  0  0  0  0  0  0  0  0  0  0  0
  1 12  1  0  0  0  0
  2  1  1  0  0  0  0
  2  7  1  0  0  0  0
  3  2  2  0  0  0  0
  4  5  2  0  0  0  0
  4  3  1  0  0  0  0
  5  6  1  0  0  0  0
  6 22  1  0  0  0  0
  6  1  2  0  0  0  0
  8  3  1  0  0  0  0
  9  4  1  0  0  0  0
 10  5  1  0  0  0  0
 11 12  2  0  0  0  0
 11 16  1  0  0  0  0
 12 13  1  0  0  0  0
 13 18  1  0  0  0  0
 13 14  2  0  0  0  0
 15 14  1  0  0  0  0
 15 19  1  0  0  0  0
 16 15  2  0  0  0  0
 17 11  1  0  0  0  0
 20 21  2  0  0  0  0
 20 24  1  0  0  0  0
 22 20  1  0  0  0  0
 23 22  1  0  0  0  0
 25 28  1  0  0  0  0
 25 24  1  0  0  0  0
 26 25  2  0  0  0  0
 27 33  2  0  0  0  0
 27 28  1  0  0  0  0
 28 29  2  0  0  0  0
 29 31  1  0  0  0  0
 29 30  1  0  0  0  0
 31 37  1  0  0  0  0
 32 34  1  0  0  0  0
 32 31  2  0  0  0  0
 33 32  1  0  0  0  0
 34 35  1  0  0  0  0
 36 35  1  0  0  0  0
 37 35  1  0  0  0  0
M  END
>  <minimizedAffinity>
-5.90801668

$$$$

 OpenBabel03272500593D

 37 40  0  0  0  0  0  0  0  0999 V2000
   36.4440   29.3470   31.6640 C   0  0  0  0  0  0  0  0  0  0  0  0
   36.3110   29.9570   30.4520 C   0  0  0  0  0  0  0  0  0  0  0  0
   37.1330   29.6550   29.3620 C   0  0  0  0  0  0  0  0  0  0  0  0
   38.1580   28.6500   29.5610 C   0  0  0  0  0  0  0  0  0  0  0  0
   38.2380   28.0800   30.7910 C   0  0  0  0  0  0  0  0  0  0  0  0
   37.4450   28.3790   31.8270 C   0  0  0  0  0  0  0  0  0  0  0  0
   35.5420   30.7250   30.2680 H   0  0  0  0  0  0  0  0  0  0  0  0
   36.9730   30.1800   28.4290 H   0  0  0  0  0  0  0  0  0  0  0  0
   38.7070   28.5220   28.6530 H   0  0  0  0  0  0  0  0  0  0  0  0
   39.0340   27.3560   30.7040 H   0  0  0  0  0  0  0  0  0  0  0  0
   34.2480   29.0860   32.7110 C   0  0  0  0  0  0  0  0  0  0  0  0
   35.5000   29.7500   32.6810 C   0  0  0  0  0  0  0  0  0  0  0  0
   35.6550   30.7080   33.6510 C   0  0  0  0  0  0  0  0  0  0  0  0
   34.6830   30.9640   34.5340 N   0  0  0  0  0  0  0  0  0  0  0  0
   33.5240   30.3360   34.5480 C   0  0  0  0  0  0  0  0  0  0  0  0
   33.3190   29.4020   33.6340 N   0  0  0  0  0  0  0  0  0  0  0  0
   34.0320   28.3050   31.9750 H   0  0  0  0  0  0  0  0  0  0  0  0
   36.6040   31.2190   33.6350 H   0  0  0  0  0  0  0  0  0  0  0  0
   32.7300   30.5350   35.2580 H   0  0  0  0  0  0  0  0  0  0  0  0
   37.0240   26.4490   33.1050 C   0  0  0  0  0  0  0  0  0  0  0  0
   36.4260   26.0030   32.0500 O   0  0  0  0  0  0  0  0  0  0  0  0
   37.5970   27.7800   33.0520 N   0  0  0  0  0  0  0  0  0  0  0  0
   38.0700   28.2170   33.8730 H   0  0  0  0  0  0  0  0  0  0  0  0
   37.0850   25.6510   34.2100 O   0  0  0  0  0  0  0  0  0  0  0  0
   37.7920   25.9290   35.3660 C   0  0  0  0  0  0  0  0  0  0  0  0
   37.8500   27.1380   35.8830 O   0  0  0  0  0  0  0  0  0  0  0  0
   38.0850   24.3500   37.2920 C   0  0  0  0  0  3  0  0  0  0  0  0
   38.5040   24.8540   36.0940 C   0  0  0  0  0  0  0  0  0  0  0  0
   39.6560   24.3060   35.5710 C   0  0  0  0  0  0  0  0  0  0  0  0
   40.0280   24.6790   34.6130 H   0  0  0  0  0  0  0  0  0  0  0  0
   40.3780   23.3150   36.1680 C   0  0  0  0  0  0  0  0  0  0  0  0
   39.9150   22.8300   37.3880 C   0  0  0  0  0  0  0  0  0  0  0  0
   38.7670   23.3490   37.9500 C   0  0  0  0  0  3  0  0  0  0  0  0
   40.8050   21.8260   37.8140 O   0  0  0  0  0  0  0  0  0  0  0  0
   41.5660   21.4240   36.6930 C   0  0  0  0  0  3  0  0  0  0  0  0
   42.6200   21.1960   36.9200 H   0  0  0  0  0  0  0  0  0  0  0  0
   41.5410   22.5920   35.8810 O   0  0  0  0  0  0  0  0  0  0  0  0
  1  6  1  0  0  0  0
  1 12  1  0  0  0  0
  2  1  2  0  0  0  0
  3  4  2  0  0  0  0
  3  2  1  0  0  0  0
  4  5  1  0  0  0  0
  5  6  2  0  0  0  0
  6 22  1  0  0  0  0
  7  2  1  0  0  0  0
  8  3  1  0  0  0  0
  9  4  1  0  0  0  0
 10  5  1  0  0  0  0
 11 16  1  0  0  0  0
 12 11  2  0  0  0  0
 12 13  1  0  0  0  0
 13 14  2  0  0  0  0
 14 15  1  0  0  0  0
 15 19  1  0  0  0  0
 16 15  2  0  0  0  0
 17 11  1  0  0  0  0
 18 13  1  0  0  0  0
 20 24  1  0  0  0  0
 21 20  2  0  0  0  0
 22 20  1  0  0  0  0
 22 23  1  0  0  0  0
 24 25  1  0  0  0  0
 25 26  2  0  0  0  0
 25 28  1  0  0  0  0
 27 33  1  0  0  0  0
 28 27  2  0  0  0  0
 29 28  1  0  0  0  0
 29 31  2  0  0  0  0
 30 29  1  0  0  0  0
 31 32  1  0  0  0  0
 32 34  1  0  0  0  0
 32 33  2  0  0  0  0
 35 36  1  0  0  0  0
 35 34  1  0  0  0  0
 37 31  1  0  0  0  0
 37 35  1  0  0  0  0
M  END
>  <minimizedAffinity>
-5.82525873

$$$$

 OpenBabel03272500593D

 37 40  0  0  0  0  0  0  0  0999 V2000
   38.6560   24.8560   36.4050 C   0  0  0  0  0  0  0  0  0  0  0  0
   37.9970   25.2790   37.5210 C   0  0  0  0  0  0  0  0  0  0  0  0
   38.0000   24.5560   38.7180 C   0  0  0  0  0  0  0  0  0  0  0  0
   38.7410   23.3120   38.7400 C   0  0  0  0  0  0  0  0  0  0  0  0
   39.3750   22.9450   37.5960 C   0  0  0  0  0  0  0  0  0  0  0  0
   39.3640   23.6470   36.4560 C   0  0  0  0  0  0  0  0  0  0  0  0
   37.4250   26.2220   37.5370 H   0  0  0  0  0  0  0  0  0  0  0  0
   37.4550   24.9500   39.5650 H   0  0  0  0  0  0  0  0  0  0  0  0
   38.6580   22.8680   39.7090 H   0  0  0  0  0  0  0  0  0  0  0  0
   39.8760   22.0230   37.8450 H   0  0  0  0  0  0  0  0  0  0  0  0
   37.2960   26.2050   34.8830 C   0  0  0  0  0  0  0  0  0  0  0  0
   38.5780   25.7300   35.2570 C   0  0  0  0  0  0  0  0  0  0  0  0
   39.6020   26.1800   34.4620 C   0  0  0  0  0  0  0  0  0  0  0  0
   39.3690   26.9990   33.4290 N   0  0  0  0  0  0  0  0  0  0  0  0
   38.1690   27.4320   33.0960 C   0  0  0  0  0  0  0  0  0  0  0  0
   37.1430   27.0300   33.8280 N   0  0  0  0  0  0  0  0  0  0  0  0
   36.4170   25.9000   35.4590 H   0  0  0  0  0  0  0  0  0  0  0  0
   40.5810   25.8230   34.7380 H   0  0  0  0  0  0  0  0  0  0  0  0
   37.9690   28.0950   32.2630 H   0  0  0  0  0  0  0  0  0  0  0  0
   39.2730   22.1690   34.6280 C   0  0  0  0  0  0  0  0  0  0  0  0
   38.1570   21.7650   35.1390 O   0  0  0  0  0  0  0  0  0  0  0  0
   40.0080   23.2060   35.3280 N   0  0  0  0  0  0  0  0  0  0  0  0
   40.9280   23.5610   34.9910 H   0  0  0  0  0  0  0  0  0  0  0  0
   39.7030   21.6030   33.4630 O   0  0  0  0  0  0  0  0  0  0  0  0
   38.8990   21.2470   32.3960 C   0  0  0  0  0  0  0  0  0  0  0  0
   39.1000   20.1490   31.6980 O   0  0  0  0  0  0  0  0  0  0  0  0
   36.4500   21.6550   32.0410 C   0  0  0  0  0  3  0  0  0  0  0  0
   37.7450   22.0880   32.0040 C   0  0  0  0  0  0  0  0  0  0  0  0
   37.9430   23.3820   31.5730 C   0  0  0  0  0  0  0  0  0  0  0  0
   38.9650   23.7710   31.5280 H   0  0  0  0  0  0  0  0  0  0  0  0
   36.9450   24.2290   31.1930 C   0  0  0  0  0  0  0  0  0  0  0  0
   35.6400   23.7480   31.2460 C   0  0  0  0  0  0  0  0  0  0  0  0
   35.3930   22.4580   31.6710 C   0  0  0  0  0  3  0  0  0  0  0  0
   34.7850   24.7790   30.8140 O   0  0  0  0  0  0  0  0  0  0  0  0
   35.5100   25.9920   30.8810 C   0  0  0  0  0  3  0  0  0  0  0  0
   35.2940   26.6940   30.0590 H   0  0  0  0  0  0  0  0  0  0  0  0
   36.8530   25.5460   30.7290 O   0  0  0  0  0  0  0  0  0  0  0  0
  1  6  2  0  0  0  0
  1  2  1  0  0  0  0
  2  7  1  0  0  0  0
  2  3  2  0  0  0  0
  3  4  1  0  0  0  0
  3  8  1  0  0  0  0
  4  9  1  0  0  0  0
  5 10  1  0  0  0  0
  5  4  2  0  0  0  0
  6  5  1  0  0  0  0
 11 12  1  0  0  0  0
 11 17  1  0  0  0  0
 12  1  1  0  0  0  0
 13 18  1  0  0  0  0
 13 12  2  0  0  0  0
 14 13  1  0  0  0  0
 15 14  2  0  0  0  0
 15 16  1  0  0  0  0
 16 11  2  0  0  0  0
 19 15  1  0  0  0  0
 20 21  2  0  0  0  0
 20 22  1  0  0  0  0
 22  6  1  0  0  0  0
 23 22  1  0  0  0  0
 24 20  1  0  0  0  0
 25 24  1  0  0  0  0
 26 25  2  0  0  0  0
 28 27  1  0  0  0  0
 28 25  1  0  0  0  0
 29 28  2  0  0  0  0
 30 29  1  0  0  0  0
 31 32  2  0  0  0  0
 31 29  1  0  0  0  0
 32 33  1  0  0  0  0
 33 27  2  0  0  0  0
 34 35  1  0  0  0  0
 34 32  1  0  0  0  0
 36 35  1  0  0  0  0
 37 35  1  0  0  0  0
 37 31  1  0  0  0  0
M  END
>  <minimizedAffinity>
-5.77914

$$$$

 OpenBabel03272500593D

 37 40  0  0  0  0  0  0  0  0999 V2000
   40.3210   25.0330   34.4980 C   0  0  0  0  0  0  0  0  0  0  0  0
   41.6400   24.7550   34.7030 C   0  0  0  0  0  0  0  0  0  0  0  0
   42.6550   25.6800   34.4390 C   0  0  0  0  0  0  0  0  0  0  0  0
   42.2570   26.9760   33.9280 C   0  0  0  0  0  0  0  0  0  0  0  0
   40.9280   27.1900   33.7460 C   0  0  0  0  0  0  0  0  0  0  0  0
   39.9660   26.2950   34.0020 C   0  0  0  0  0  0  0  0  0  0  0  0
   41.9760   23.7790   35.0910 H   0  0  0  0  0  0  0  0  0  0  0  0
   43.6820   25.3920   34.6240 H   0  0  0  0  0  0  0  0  0  0  0  0
   43.1270   27.5770   33.7730 H   0  0  0  0  0  0  0  0  0  0  0  0
   40.8620   28.2080   33.3950 H   0  0  0  0  0  0  0  0  0  0  0  0
   38.9990   23.8780   36.2030 C   0  0  0  0  0  0  0  0  0  0  0  0
   39.3930   23.9810   34.8450 C   0  0  0  0  0  0  0  0  0  0  0  0
   38.8200   23.0480   34.0170 C   0  0  0  0  0  0  0  0  0  0  0  0
   37.9650   22.1340   34.4910 N   0  0  0  0  0  0  0  0  0  0  0  0
   37.6090   22.0530   35.7570 C   0  0  0  0  0  0  0  0  0  0  0  0
   38.1310   22.9270   36.6010 N   0  0  0  0  0  0  0  0  0  0  0  0
   39.4050   24.5790   36.9380 H   0  0  0  0  0  0  0  0  0  0  0  0
   39.1140   23.1190   32.9820 H   0  0  0  0  0  0  0  0  0  0  0  0
   36.9180   21.3170   36.1510 H   0  0  0  0  0  0  0  0  0  0  0  0
   38.0070   27.2600   34.8780 C   0  0  0  0  0  0  0  0  0  0  0  0
   38.7170   27.4990   35.9310 O   0  0  0  0  0  0  0  0  0  0  0  0
   38.6420   26.5700   33.7710 N   0  0  0  0  0  0  0  0  0  0  0  0
   38.1250   26.3180   32.9010 H   0  0  0  0  0  0  0  0  0  0  0  0
   36.7040   27.6640   34.8610 O   0  0  0  0  0  0  0  0  0  0  0  0
   36.1770   28.6490   34.0450 C   0  0  0  0  0  0  0  0  0  0  0  0
   36.4140   28.6930   32.7510 O   0  0  0  0  0  0  0  0  0  0  0  0
   33.9410   29.7300   34.3920 C   0  0  0  0  0  3  0  0  0  0  0  0
   35.2910   29.6970   34.6000 C   0  0  0  0  0  0  0  0  0  0  0  0
   35.8140   30.7120   35.3720 C   0  0  0  0  0  0  0  0  0  0  0  0
   36.8900   30.7250   35.5650 H   0  0  0  0  0  0  0  0  0  0  0  0
   35.0780   31.7180   35.9240 C   0  0  0  0  0  0  0  0  0  0  0  0
   33.7050   31.7140   35.6870 C   0  0  0  0  0  0  0  0  0  0  0  0
   33.1380   30.7170   34.9200 C   0  0  0  0  0  3  0  0  0  0  0  0
   33.1540   32.8300   36.3450 O   0  0  0  0  0  0  0  0  0  0  0  0
   34.1010   33.2790   37.2940 C   0  0  0  0  0  3  0  0  0  0  0  0
   34.1520   34.3740   37.3990 H   0  0  0  0  0  0  0  0  0  0  0  0
   35.3280   32.8400   36.7220 O   0  0  0  0  0  0  0  0  0  0  0  0
  1  2  1  0  0  0  0
  1 12  1  0  0  0  0
  2  7  1  0  0  0  0
  3  8  1  0  0  0  0
  3  2  2  0  0  0  0
  4  3  1  0  0  0  0
  5  4  2  0  0  0  0
  5  6  1  0  0  0  0
  6  1  2  0  0  0  0
  9  4  1  0  0  0  0
 10  5  1  0  0  0  0
 11 16  1  0  0  0  0
 11 17  1  0  0  0  0
 12 11  2  0  0  0  0
 13 14  2  0  0  0  0
 13 12  1  0  0  0  0
 14 15  1  0  0  0  0
 15 19  1  0  0  0  0
 15 16  2  0  0  0  0
 18 13  1  0  0  0  0
 20 21  2  0  0  0  0
 22  6  1  0  0  0  0
 22 20  1  0  0  0  0
 23 22  1  0  0  0  0
 24 20  1  0  0  0  0
 25 28  1  0  0  0  0
 25 24  1  0  0  0  0
 26 25  2  0  0  0  0
 27 28  2  0  0  0  0
 27 33  1  0  0  0  0
 28 29  1  0  0  0  0
 29 30  1  0  0  0  0
 29 31  2  0  0  0  0
 31 37  1  0  0  0  0
 32 31  1  0  0  0  0
 32 34  1  0  0  0  0
 33 32  2  0  0  0  0
 34 35  1  0  0  0  0
 35 36  1  0  0  0  0
 37 35  1  0  0  0  0
M  END
>  <minimizedAffinity>
-5.77183199

$$$$

 OpenBabel03272500593D

 37 40  0  0  0  0  0  0  0  0999 V2000
   41.4740   22.2490   36.5960 C   0  0  0  0  0  0  0  0  0  0  0  0
   41.8830   21.0010   36.9650 C   0  0  0  0  0  0  0  0  0  0  0  0
   43.1970   20.5570   36.7910 C   0  0  0  0  0  0  0  0  0  0  0  0
   44.1370   21.4830   36.1930 C   0  0  0  0  0  0  0  0  0  0  0  0
   43.6680   22.7100   35.8470 C   0  0  0  0  0  0  0  0  0  0  0  0
   42.4060   23.1230   36.0180 C   0  0  0  0  0  0  0  0  0  0  0  0
   41.1920   20.2740   37.4230 H   0  0  0  0  0  0  0  0  0  0  0  0
   43.4530   19.5540   37.1050 H   0  0  0  0  0  0  0  0  0  0  0  0
   45.0960   21.0150   36.1210 H   0  0  0  0  0  0  0  0  0  0  0  0
   44.5280   23.2310   35.4560 H   0  0  0  0  0  0  0  0  0  0  0  0
   39.1470   22.3010   35.8420 C   0  0  0  0  0  0  0  0  0  0  0  0
   40.0900   22.5650   36.8670 C   0  0  0  0  0  0  0  0  0  0  0  0
   39.5470   23.0930   38.0110 C   0  0  0  0  0  0  0  0  0  0  0  0
   38.2330   23.3240   38.1130 N   0  0  0  0  0  0  0  0  0  0  0  0
   37.3700   23.0720   37.1500 C   0  0  0  0  0  0  0  0  0  0  0  0
   37.8370   22.5610   36.0220 N   0  0  0  0  0  0  0  0  0  0  0  0
   39.4860   21.8780   34.8910 H   0  0  0  0  0  0  0  0  0  0  0  0
   40.2580   23.2980   38.7960 H   0  0  0  0  0  0  0  0  0  0  0  0
   36.3050   23.2540   37.2210 H   0  0  0  0  0  0  0  0  0  0  0  0
   41.6090   24.4210   34.2250 C   0  0  0  0  0  0  0  0  0  0  0  0
   41.7280   23.3430   33.5240 O   0  0  0  0  0  0  0  0  0  0  0  0
   41.9920   24.3690   35.6240 N   0  0  0  0  0  0  0  0  0  0  0  0
   41.9510   25.2070   36.2450 H   0  0  0  0  0  0  0  0  0  0  0  0
   41.1350   25.5480   33.6200 O   0  0  0  0  0  0  0  0  0  0  0  0
   40.0420   26.2870   34.0360 C   0  0  0  0  0  0  0  0  0  0  0  0
   40.0540   27.0020   35.1410 O   0  0  0  0  0  0  0  0  0  0  0  0
   38.3370   27.4470   32.6100 C   0  0  0  0  0  3  0  0  0  0  0  0
   38.8010   26.3220   33.2290 C   0  0  0  0  0  0  0  0  0  0  0  0
   38.0440   25.1810   33.0690 C   0  0  0  0  0  0  0  0  0  0  0  0
   38.3780   24.2560   33.5470 H   0  0  0  0  0  0  0  0  0  0  0  0
   36.8890   25.1180   32.3460 C   0  0  0  0  0  0  0  0  0  0  0  0
   36.4520   26.2880   31.7310 C   0  0  0  0  0  0  0  0  0  0  0  0
   37.1780   27.4540   31.8640 C   0  0  0  0  0  3  0  0  0  0  0  0
   35.2570   25.9920   31.0480 O   0  0  0  0  0  0  0  0  0  0  0  0
   35.1790   24.5870   30.9120 C   0  0  0  0  0  3  0  0  0  0  0  0
   34.1610   24.1780   31.0200 H   0  0  0  0  0  0  0  0  0  0  0  0
   35.9470   24.1350   32.0220 O   0  0  0  0  0  0  0  0  0  0  0  0
  1 12  1  0  0  0  0
  1  2  1  0  0  0  0
  2  7  1  0  0  0  0
  3  2  2  0  0  0  0
  3  8  1  0  0  0  0
  4  3  1  0  0  0  0
  5  6  1  0  0  0  0
  5  4  2  0  0  0  0
  6  1  2  0  0  0  0
  9  4  1  0  0  0  0
 10  5  1  0  0  0  0
 11 16  2  0  0  0  0
 11 12  1  0  0  0  0
 12 13  2  0  0  0  0
 13 14  1  0  0  0  0
 13 18  1  0  0  0  0
 15 19  1  0  0  0  0
 15 14  2  0  0  0  0
 16 15  1  0  0  0  0
 17 11  1  0  0  0  0
 20 22  1  0  0  0  0
 21 20  2  0  0  0  0
 22  6  1  0  0  0  0
 22 23  1  0  0  0  0
 24 25  1  0  0  0  0
 24 20  1  0  0  0  0
 25 26  2  0  0  0  0
 27 28  1  0  0  0  0
 28 25  1  0  0  0  0
 29 28  2  0  0  0  0
 29 30  1  0  0  0  0
 31 29  1  0  0  0  0
 32 33  1  0  0  0  0
 32 31  2  0  0  0  0
 33 27  2  0  0  0  0
 34 32  1  0  0  0  0
 35 36  1  0  0  0  0
 35 34  1  0  0  0  0
 35 37  1  0  0  0  0
 37 31  1  0  0  0  0
M  END
>  <minimizedAffinity>
-5.66869164

$$$$

 OpenBabel03272500593D

 37 40  0  0  0  0  0  0  0  0999 V2000
   39.9820   25.2880   35.0030 C   0  0  0  0  0  0  0  0  0  0  0  0
   41.2790   24.8710   35.0280 C   0  0  0  0  0  0  0  0  0  0  0  0
   42.3260   25.6350   34.5030 C   0  0  0  0  0  0  0  0  0  0  0  0
   41.9850   26.9160   33.9180 C   0  0  0  0  0  0  0  0  0  0  0  0
   40.6740   27.2730   33.9240 C   0  0  0  0  0  0  0  0  0  0  0  0
   39.6810   26.5300   34.4290 C   0  0  0  0  0  0  0  0  0  0  0  0
   41.5720   23.9020   35.4660 H   0  0  0  0  0  0  0  0  0  0  0  0
   43.3330   25.2430   34.5540 H   0  0  0  0  0  0  0  0  0  0  0  0
   42.8740   27.3890   33.5590 H   0  0  0  0  0  0  0  0  0  0  0  0
   40.6570   28.2530   33.4750 H   0  0  0  0  0  0  0  0  0  0  0  0
   38.7160   23.1950   34.9180 C   0  0  0  0  0  0  0  0  0  0  0  0
   39.0210   24.3940   35.6100 C   0  0  0  0  0  0  0  0  0  0  0  0
   38.3500   24.5480   36.7970 C   0  0  0  0  0  0  0  0  0  0  0  0
   37.4900   23.6200   37.2330 N   0  0  0  0  0  0  0  0  0  0  0  0
   37.2180   22.5100   36.5760 C   0  0  0  0  0  0  0  0  0  0  0  0
   37.8360   22.3080   35.4230 N   0  0  0  0  0  0  0  0  0  0  0  0
   39.2020   22.9840   33.9610 H   0  0  0  0  0  0  0  0  0  0  0  0
   38.5760   25.4580   37.3300 H   0  0  0  0  0  0  0  0  0  0  0  0
   36.5240   21.7520   36.9190 H   0  0  0  0  0  0  0  0  0  0  0  0
   37.7180   26.5970   33.1340 C   0  0  0  0  0  0  0  0  0  0  0  0
   38.4170   25.9960   32.2280 O   0  0  0  0  0  0  0  0  0  0  0  0
   38.3740   26.9420   34.3810 N   0  0  0  0  0  0  0  0  0  0  0  0
   37.8810   27.4520   35.1470 H   0  0  0  0  0  0  0  0  0  0  0  0
   36.4080   26.8760   32.8740 O   0  0  0  0  0  0  0  0  0  0  0  0
   35.9300   28.0510   32.3220 C   0  0  0  0  0  0  0  0  0  0  0  0
   36.0080   28.3070   31.0330 O   0  0  0  0  0  0  0  0  0  0  0  0
   33.9840   29.4790   33.0020 C   0  0  0  0  0  3  0  0  0  0  0  0
   35.2770   29.0740   33.1690 C   0  0  0  0  0  0  0  0  0  0  0  0
   35.9760   29.6770   34.1930 C   0  0  0  0  0  0  0  0  0  0  0  0
   37.0160   29.3840   34.3650 H   0  0  0  0  0  0  0  0  0  0  0  0
   35.4610   30.6280   35.0240 C   0  0  0  0  0  0  0  0  0  0  0  0
   34.1380   31.0110   34.8170 C   0  0  0  0  0  0  0  0  0  0  0  0
   33.3990   30.4340   33.8040 C   0  0  0  0  0  3  0  0  0  0  0  0
   33.8210   31.9900   35.7770 O   0  0  0  0  0  0  0  0  0  0  0  0
   34.7950   31.9170   36.8000 C   0  0  0  0  0  3  0  0  0  0  0  0
   35.0880   32.8950   37.2160 H   0  0  0  0  0  0  0  0  0  0  0  0
   35.9180   31.3860   36.1070 O   0  0  0  0  0  0  0  0  0  0  0  0
  1  2  1  0  0  0  0
  1 12  1  0  0  0  0
  2  7  1  0  0  0  0
  3  8  1  0  0  0  0
  3  2  2  0  0  0  0
  4  5  2  0  0  0  0
  4  3  1  0  0  0  0
  5  6  1  0  0  0  0
  6  1  2  0  0  0  0
  9  4  1  0  0  0  0
 10  5  1  0  0  0  0
 11 16  2  0  0  0  0
 11 12  1  0  0  0  0
 12 13  2  0  0  0  0
 13 14  1  0  0  0  0
 13 18  1  0  0  0  0
 15 19  1  0  0  0  0
 15 14  2  0  0  0  0
 16 15  1  0  0  0  0
 17 11  1  0  0  0  0
 20 22  1  0  0  0  0
 21 20  2  0  0  0  0
 22  6  1  0  0  0  0
 22 23  1  0  0  0  0
 24 20  1  0  0  0  0
 25 24  1  0  0  0  0
 25 28  1  0  0  0  0
 26 25  2  0  0  0  0
 27 28  2  0  0  0  0
 27 33  1  0  0  0  0
 28 29  1  0  0  0  0
 29 30  1  0  0  0  0
 29 31  2  0  0  0  0
 31 37  1  0  0  0  0
 32 31  1  0  0  0  0
 32 34  1  0  0  0  0
 33 32  2  0  0  0  0
 34 35  1  0  0  0  0
 35 36  1  0  0  0  0
 37 35  1  0  0  0  0
M  END
>  <minimizedAffinity>
-5.65740776

$$$$
