REMARK  Name = 
REMARK  5 active torsions:
REMARK  status: ('A' for Active; 'I' for Inactive)
REMARK    1  A    between atoms: C_1  and  C_7
REMARK    2  A    between atoms: C_2  and  C_14
REMARK    3  A    between atoms: C_5  and  C_9
REMARK    4  A    between atoms: C_14  and  C_15
REMARK    5  A    between atoms: C_20  and  C_35
REMARK                            x       y       z     vdW  Elec       q    Type
REMARK                         _______ _______ _______ _____ _____    ______ ____
ROOT
ATOM      1  C   UNL     1      33.172  28.058  47.783  0.00  0.00    +0.000 C 
ATOM      2  H   UNL     1      32.480  28.726  47.278  0.00  0.00    +0.000 HD
ATOM      3  H   UNL     1      32.603  27.578  48.608  0.00  0.00    +0.000 HD
ENDROOT
BRANCH   1   4
ATOM      4  C   UNL     1      33.608  26.938  46.903  0.00  0.00    +0.000 A 
ATOM      5  C   UNL     1      33.794  25.622  47.319  0.00  0.00    +0.000 A 
ATOM      6  C   UNL     1      34.190  24.650  46.440  0.00  0.00    +0.000 A 
ATOM      7  C   UNL     1      34.417  24.943  45.113  0.00  0.00    +0.000 A 
ATOM      8  C   UNL     1      34.234  26.239  44.697  0.00  0.00    +0.000 A 
ATOM      9  C   UNL     1      33.833  27.238  45.575  0.00  0.00    +0.000 A 
ATOM     10  H   UNL     1      33.593  25.477  48.389  0.00  0.00    +0.000 HD
ATOM     11  H   UNL     1      34.283  23.699  46.931  0.00  0.00    +0.000 HD
ATOM     12  H   UNL     1      34.724  24.103  44.510  0.00  0.00    +0.000 HD
ATOM     13  H   UNL     1      34.445  26.337  43.631  0.00  0.00    +0.000 HD
BRANCH   9  15
ATOM     14  C   UNL     1      33.924  29.803  45.266  0.00  0.00    +0.000 A 
ATOM     15  C   UNL     1      33.748  28.504  44.856  0.00  0.00    +0.000 A 
ATOM     16  C   UNL     1      33.394  28.377  43.504  0.00  0.00    +0.000 A 
ATOM     17  H   UNL     1      33.224  27.397  43.047  0.00  0.00    +0.000 HD
ATOM     18  C   UNL     1      33.225  29.431  42.631  0.00  0.00    +0.000 A 
ATOM     19  C   UNL     1      33.414  30.712  43.097  0.00  0.00    +0.000 A 
ATOM     20  C   UNL     1      33.760  30.862  44.411  0.00  0.00    +0.000 A 
ATOM     21  O   UNL     1      33.189  31.588  42.045  0.00  0.00    +0.000 OA
ATOM     22  C   UNL     1      33.326  30.840  40.850  0.00  0.00    +0.000 C 
ATOM     23  H   UNL     1      34.406  30.842  40.597  0.00  0.00    +0.000 HD
ATOM     24  O   UNL     1      32.887  29.547  41.291  0.00  0.00    +0.000 OA
ENDBRANCH   9  15
ENDBRANCH   1   4
BRANCH   1  26
ATOM     25  C   UNL     1      35.020  28.369  49.459  0.00  0.00    +0.000 C 
ATOM     26  C   UNL     1      34.290  28.768  48.445  0.00  0.00    +0.000 C 
BRANCH  25  31
ATOM     27  C   UNL     1      37.375  30.178  51.575  0.00  0.00    +0.000 A 
ATOM     28  C   UNL     1      38.086  30.943  50.630  0.00  0.00    +0.000 A 
ATOM     29  C   UNL     1      37.724  30.811  49.267  0.00  0.00    +0.000 A 
ATOM     30  N   UNL     1      36.710  29.952  48.950  0.00  0.00    +0.000 NA
ATOM     31  C   UNL     1      36.071  29.248  49.923  0.00  0.00    +0.000 A 
ATOM     32  N   UNL     1      36.395  29.358  51.208  0.00  0.00    +0.000 NA
ATOM     33  H   UNL     1      37.688  30.312  52.617  0.00  0.00    +0.000 HD
ATOM     34  H   UNL     1      38.894  31.628  50.878  0.00  0.00    +0.000 HD
BRANCH  29  35
ATOM     35  C   UNL     1      38.382  31.563  48.199  0.00  0.00    +0.000 A 
ATOM     36  C   UNL     1      38.603  31.031  46.948  0.00  0.00    +0.000 A 
ATOM     37  C   UNL     1      39.237  32.016  46.184  0.00  0.00    +0.000 A 
ATOM     38  N   UNL     1      39.370  33.089  46.999  0.00  0.00    +0.000 N 
ATOM     39  N   UNL     1      38.864  32.829  48.203  0.00  0.00    +0.000 NA
ATOM     40  H   UNL     1      38.346  30.029  46.579  0.00  0.00    +0.000 HD
ATOM     41  H   UNL     1      39.535  31.884  45.154  0.00  0.00    +0.000 HD
ATOM     42  H   UNL     1      39.828  33.958  46.623  0.00  0.00    +0.000 HD
ENDBRANCH  29  35
ENDBRANCH  25  31
ENDBRANCH   1  26
TORSDOF 5
