REMARK  Name = 
REMARK  4 active torsions:
REMARK  status: ('A' for Active; 'I' for Inactive)
REMARK    1  A    between atoms: C_2  and  C_12
REMARK    2  A    between atoms: C_6  and  O_16
REMARK    3  A    between atoms: O_16  and  C_18
REMARK    4  A    between atoms: C_22  and  C_38
REMARK                            x       y       z     vdW  Elec       q    Type
REMARK                         _______ _______ _______ _____ _____    ______ ____
ROOT
ATOM      1  N   UNL     1      39.576  31.862  41.716  0.00  0.00    +0.000 NA
ATOM      2  C   UNL     1      39.205  33.239  41.873  0.00  0.00    +0.000 C 
ATOM      3  C   UNL     1      37.809  33.451  41.514  0.00  0.00    +0.000 C 
ATOM      4  O   UNL     1      37.636  33.142  40.158  0.00  0.00    +0.000 OA
ATOM      5  C   UNL     1      38.060  31.885  39.792  0.00  0.00    +0.000 C 
ATOM      6  C   UNL     1      39.426  31.554  40.309  0.00  0.00    +0.000 C 
ATOM      7  H   UNL     1      39.310  31.175  42.378  0.00  0.00    +0.000 HD
ATOM      8  H   UNL     1      39.869  33.847  41.244  0.00  0.00    +0.000 HD
ATOM      9  H   UNL     1      37.626  34.569  41.551  0.00  0.00    +0.000 HD
ATOM     10  H   UNL     1      36.981  32.996  41.987  0.00  0.00    +0.000 HD
ATOM     11  H   UNL     1      37.301  31.110  40.101  0.00  0.00    +0.000 HD
ATOM     12  H   UNL     1      38.069  31.830  38.689  0.00  0.00    +0.000 HD
ATOM     13  H   UNL     1      39.501  30.427  40.259  0.00  0.00    +0.000 HD
ENDROOT
BRANCH   6  15
ATOM     14  C   UNL     1      41.673  32.766  39.859  0.00  0.00    +0.000 A 
ATOM     15  C   UNL     1      40.538  32.069  39.506  0.00  0.00    +0.000 A 
ATOM     16  C   UNL     1      40.352  31.768  38.151  0.00  0.00    +0.000 A 
ATOM     17  H   UNL     1      39.505  31.223  37.714  0.00  0.00    +0.000 HD
ATOM     18  C   UNL     1      41.288  32.162  37.191  0.00  0.00    +0.000 A 
ATOM     19  C   UNL     1      42.391  32.853  37.634  0.00  0.00    +0.000 A 
ATOM     20  C   UNL     1      42.613  33.169  38.944  0.00  0.00    +0.000 A 
ATOM     21  O   UNL     1      43.182  33.143  36.518  0.00  0.00    +0.000 OA
ATOM     22  C   UNL     1      42.451  32.799  35.368  0.00  0.00    +0.000 C 
ATOM     23  H   UNL     1      43.067  32.253  34.620  0.00  0.00    +0.000 HD
ATOM     24  O   UNL     1      41.378  32.014  35.806  0.00  0.00    +0.000 OA
ENDBRANCH   6  15
BRANCH   2  25
ATOM     25  O   UNL     1      39.433  33.577  43.236  0.00  0.00    +0.000 OA
BRANCH  25  31
ATOM     26  C   UNL     1      36.245  30.177  46.854  0.00  0.00    +0.000 A 
ATOM     27  C   UNL     1      37.084  30.743  47.805  0.00  0.00    +0.000 A 
ATOM     28  C   UNL     1      38.067  31.661  47.436  0.00  0.00    +0.000 A 
ATOM     29  C   UNL     1      38.150  31.965  46.082  0.00  0.00    +0.000 A 
ATOM     30  N   UNL     1      39.032  32.837  45.483  0.00  0.00    +0.000 N 
ATOM     31  C   UNL     1      38.736  32.807  44.169  0.00  0.00    +0.000 A 
ATOM     32  N   UNL     1      37.735  31.974  43.947  0.00  0.00    +0.000 NA
ATOM     33  C   UNL     1      37.342  31.430  45.112  0.00  0.00    +0.000 A 
ATOM     34  C   UNL     1      36.363  30.511  45.514  0.00  0.00    +0.000 A 
ATOM     35  H   UNL     1      35.475  29.462  47.122  0.00  0.00    +0.000 HD
ATOM     36  H   UNL     1      38.732  32.114  48.159  0.00  0.00    +0.000 HD
ATOM     37  H   UNL     1      39.776  33.400  45.969  0.00  0.00    +0.000 HD
ATOM     38  H   UNL     1      35.721  30.083  44.755  0.00  0.00    +0.000 HD
BRANCH  27  41
ATOM     39  C   UNL     1      37.485  30.157  51.498  0.00  0.00    +0.000 A 
ATOM     40  C   UNL     1      37.807  30.595  50.212  0.00  0.00    +0.000 A 
ATOM     41  C   UNL     1      36.916  30.361  49.192  0.00  0.00    +0.000 A 
ATOM     42  N   UNL     1      35.745  29.702  49.510  0.00  0.00    +0.000 NA
ATOM     43  C   UNL     1      35.457  29.290  50.762  0.00  0.00    +0.000 A 
ATOM     44  N   UNL     1      36.315  29.515  51.736  0.00  0.00    +0.000 NA
ATOM     45  H   UNL     1      38.212  30.360  52.269  0.00  0.00    +0.000 HD
ATOM     46  H   UNL     1      38.718  31.109  49.958  0.00  0.00    +0.000 HD
ATOM     47  H   UNL     1      34.514  28.788  50.876  0.00  0.00    +0.000 HD
ENDBRANCH  27  41
ENDBRANCH  25  31
ENDBRANCH   2  25
TORSDOF 4
