
 OpenBabel03272508313D

 34 37  0  0  1  0  0  0  0  0999 V2000
   40.6400   24.9430   34.4490 N   0  0  0  0  0  0  0  0  0  0  0  0
   41.7530   24.3850   33.6910 C   0  0  0  0  0  0  0  0  0  0  0  0
   42.8490   25.3550   33.4570 C   0  0  0  0  0  0  0  0  0  0  0  0
   42.8190   26.3840   34.4620 N   0  0  0  0  0  0  0  0  0  0  0  0
   41.6240   27.1780   34.2070 C   0  0  0  0  0  0  0  0  0  0  0  0
   40.4840   26.3580   34.7530 C   0  0  1  0  0  0  0  0  0  0  0  0
   42.1370   23.5310   34.2900 H   0  0  0  0  0  0  0  0  0  0  0  0
   41.3820   23.8980   32.7430 H   0  0  0  0  0  0  0  0  0  0  0  0
   43.8380   24.8330   33.5430 H   0  0  0  0  0  0  0  0  0  0  0  0
   42.8580   25.7780   32.4280 H   0  0  0  0  0  0  0  0  0  0  0  0
   43.6800   26.9570   34.4380 H   0  0  0  0  0  0  0  0  0  0  0  0
   41.6390   28.1350   34.7780 H   0  0  0  0  0  0  0  0  0  0  0  0
   41.5640   27.3590   33.1150 H   0  0  0  0  0  0  0  0  0  0  0  0
   40.5370   26.4330   35.8590 H   0  0  0  0  0  0  0  0  0  0  0  0
   38.1640   27.2910   35.1730 C   0  0  0  0  0  3  0  0  0  0  0  0
   39.1640   26.8850   34.3120 C   0  0  0  0  0  0  0  0  0  0  0  0
   38.9650   26.9560   32.9370 C   0  0  0  0  0  0  0  0  0  0  0  0
   39.6870   26.6610   32.1910 H   0  0  0  0  0  0  0  0  0  0  0  0
   37.7570   27.4360   32.4850 C   0  0  0  0  0  0  0  0  0  0  0  0
   36.7560   27.8450   33.3720 C   0  0  0  0  0  0  0  0  0  0  0  0
   36.9490   27.7760   34.7500 C   0  0  0  0  0  3  0  0  0  0  0  0
   35.6420   28.2850   32.6340 O   0  0  0  0  0  0  0  0  0  0  0  0
   36.1040   28.5260   31.3190 C   0  0  0  0  0  3  0  0  0  0  0  0
   36.3970   29.5990   31.2710 H   0  0  0  0  0  0  0  0  0  0  0  0
   37.2100   27.6470   31.2100 O   0  0  0  0  0  0  0  0  0  0  0  0
   39.3860   23.9090   36.2980 C   0  0  0  0  0  0  0  0  0  0  0  0
   39.6330   24.0650   34.9320 C   0  0  0  0  0  0  0  0  0  0  0  0
   38.8470   23.3210   34.0610 C   0  0  0  0  0  0  0  0  0  0  0  0
   37.8850   22.4870   34.5630 N   0  0  0  0  0  0  0  0  0  0  0  0
   37.6980   22.3820   35.9010 C   0  0  0  0  0  0  0  0  0  0  0  0
   38.4400   23.0860   36.7870 N   0  0  0  0  0  0  0  0  0  0  0  0
   39.9750   24.4700   37.0060 H   0  0  0  0  0  0  0  0  0  0  0  0
   38.9920   23.4010   32.9960 H   0  0  0  0  0  0  0  0  0  0  0  0
   36.9510   21.7360   36.3470 H   0  0  0  0  0  0  0  0  0  0  0  0
  1  6  1  0  0  0  0
  1 27  1  0  0  0  0
  2  7  1  0  0  0  0
  2  1  1  0  0  0  0
  3  9  1  0  0  0  0
  3  2  1  0  0  0  0
  3  4  1  0  0  0  0
  5  4  1  0  0  0  0
  5  6  1  0  0  0  0
  5 12  1  0  0  0  0
  6 14  1  1  0  0  0
  8  2  1  0  0  0  0
 10  3  1  0  0  0  0
 11  4  1  0  0  0  0
 13  5  1  0  0  0  0
 16  6  1  0  0  0  0
 16 15  2  0  0  0  0
 17 16  1  0  0  0  0
 18 17  1  0  0  0  0
 19 17  2  0  0  0  0
 19 20  1  0  0  0  0
 20 21  2  0  0  0  0
 21 15  1  0  0  0  0
 22 20  1  0  0  0  0
 23 22  1  0  0  0  0
 24 23  1  0  0  0  0
 25 23  1  0  0  0  0
 25 19  1  0  0  0  0
 26 31  1  0  0  0  0
 26 32  1  0  0  0  0
 27 26  2  0  0  0  0
 28 29  2  0  0  0  0
 28 27  1  0  0  0  0
 29 30  1  0  0  0  0
 30 34  1  0  0  0  0
 30 31  2  0  0  0  0
 33 28  1  0  0  0  0
M  END
>  <minimizedAffinity>
-5.02458858

$$$$

 OpenBabel03272508313D

 34 37  0  0  1  0  0  0  0  0999 V2000
   40.5400   23.7880   35.4490 N   0  0  0  0  0  0  0  0  0  0  0  0
   41.2720   23.2540   36.5910 C   0  0  0  0  0  0  0  0  0  0  0  0
   40.4470   22.3860   37.4630 C   0  0  0  0  0  0  0  0  0  0  0  0
   39.3450   21.8420   36.7160 N   0  0  0  0  0  0  0  0  0  0  0  0
   38.4490   22.9540   36.4260 C   0  0  0  0  0  0  0  0  0  0  0  0
   39.0980   23.6920   35.2840 C   0  0  1  0  0  0  0  0  0  0  0  0
   42.1120   22.6610   36.1690 H   0  0  0  0  0  0  0  0  0  0  0  0
   41.7900   24.0840   37.1530 H   0  0  0  0  0  0  0  0  0  0  0  0
   41.0630   21.5210   37.8260 H   0  0  0  0  0  0  0  0  0  0  0  0
   40.1090   22.8860   38.3980 H   0  0  0  0  0  0  0  0  0  0  0  0
   38.8700   21.0870   37.2420 H   0  0  0  0  0  0  0  0  0  0  0  0
   37.4570   22.5990   36.0640 H   0  0  0  0  0  0  0  0  0  0  0  0
   38.3500   23.5580   37.3500 H   0  0  0  0  0  0  0  0  0  0  0  0
   38.9410   23.0740   34.3750 H   0  0  0  0  0  0  0  0  0  0  0  0
   38.5310   26.0720   35.9520 C   0  0  0  0  0  3  0  0  0  0  0  0
   38.4680   25.0220   35.0580 C   0  0  0  0  0  0  0  0  0  0  0  0
   37.7820   25.1740   33.8580 C   0  0  0  0  0  0  0  0  0  0  0  0
   37.6800   24.4110   33.1010 H   0  0  0  0  0  0  0  0  0  0  0  0
   37.1830   26.3880   33.6080 C   0  0  0  0  0  0  0  0  0  0  0  0
   37.2570   27.4410   34.5240 C   0  0  0  0  0  0  0  0  0  0  0  0
   37.9430   27.2950   35.7280 C   0  0  0  0  0  3  0  0  0  0  0  0
   36.5600   28.5480   34.0090 O   0  0  0  0  0  0  0  0  0  0  0  0
   36.4070   28.3130   32.6210 C   0  0  0  0  0  3  0  0  0  0  0  0
   37.2770   28.7890   32.1160 H   0  0  0  0  0  0  0  0  0  0  0  0
   36.4290   26.8990   32.5410 O   0  0  0  0  0  0  0  0  0  0  0  0
   41.9970   25.6110   34.6660 C   0  0  0  0  0  0  0  0  0  0  0  0
   41.2640   24.4480   34.4200 C   0  0  0  0  0  0  0  0  0  0  0  0
   41.2720   23.9600   33.1190 C   0  0  0  0  0  0  0  0  0  0  0  0
   41.9820   24.6230   32.1540 N   0  0  0  0  0  0  0  0  0  0  0  0
   42.6730   25.7470   32.4600 C   0  0  0  0  0  0  0  0  0  0  0  0
   42.6930   26.2590   33.7120 N   0  0  0  0  0  0  0  0  0  0  0  0
   42.0160   26.0200   35.6620 H   0  0  0  0  0  0  0  0  0  0  0  0
   40.7240   23.0660   32.8700 H   0  0  0  0  0  0  0  0  0  0  0  0
   43.2480   26.3070   31.7320 H   0  0  0  0  0  0  0  0  0  0  0  0
  1  2  1  0  0  0  0
  2  8  1  0  0  0  0
  2  3  1  0  0  0  0
  3  9  1  0  0  0  0
  3 10  1  0  0  0  0
  4 11  1  0  0  0  0
  4  3  1  0  0  0  0
  5  4  1  0  0  0  0
  5 13  1  0  0  0  0
  6 14  1  6  0  0  0
  6  1  1  0  0  0  0
  6  5  1  0  0  0  0
  7  2  1  0  0  0  0
 12  5  1  0  0  0  0
 16  6  1  0  0  0  0
 16 15  2  0  0  0  0
 17 16  1  0  0  0  0
 18 17  1  0  0  0  0
 19 17  2  0  0  0  0
 19 20  1  0  0  0  0
 20 21  2  0  0  0  0
 21 15  1  0  0  0  0
 22 20  1  0  0  0  0
 23 22  1  0  0  0  0
 24 23  1  0  0  0  0
 25 23  1  0  0  0  0
 25 19  1  0  0  0  0
 26 32  1  0  0  0  0
 27 26  1  0  0  0  0
 27  1  1  0  0  0  0
 28 27  2  0  0  0  0
 29 30  2  0  0  0  0
 29 28  1  0  0  0  0
 30 31  1  0  0  0  0
 31 26  2  0  0  0  0
 33 28  1  0  0  0  0
 34 30  1  0  0  0  0
M  END
>  <minimizedAffinity>
-4.90766287

$$$$

 OpenBabel03272508313D

 34 37  0  0  1  0  0  0  0  0999 V2000
   38.9570   23.0200   34.4850 N   0  0  0  0  0  0  0  0  0  0  0  0
   38.4990   21.8220   33.7920 C   0  0  0  0  0  0  0  0  0  0  0  0
   38.8820   21.7910   32.3610 C   0  0  0  0  0  0  0  0  0  0  0  0
   40.0360   22.6210   32.1410 N   0  0  0  0  0  0  0  0  0  0  0  0
   39.5990   23.9990   32.3280 C   0  0  0  0  0  0  0  0  0  0  0  0
   39.5220   24.1850   33.8210 C   0  0  1  0  0  0  0  0  0  0  0  0
   38.9680   20.9630   34.3180 H   0  0  0  0  0  0  0  0  0  0  0  0
   37.3950   21.6650   33.9600 H   0  0  0  0  0  0  0  0  0  0  0  0
   39.1630   20.7450   32.0690 H   0  0  0  0  0  0  0  0  0  0  0  0
   38.0480   22.0470   31.6700 H   0  0  0  0  0  0  0  0  0  0  0  0
   40.4370   22.4650   31.1990 H   0  0  0  0  0  0  0  0  0  0  0  0
   40.3540   24.7240   31.9470 H   0  0  0  0  0  0  0  0  0  0  0  0
   38.6260   24.1180   31.8110 H   0  0  0  0  0  0  0  0  0  0  0  0
   40.5670   24.2600   34.1880 H   0  0  0  0  0  0  0  0  0  0  0  0
   39.1420   26.2380   35.2610 C   0  0  0  0  0  3  0  0  0  0  0  0
   38.8090   25.4410   34.1850 C   0  0  0  0  0  0  0  0  0  0  0  0
   37.7460   25.7960   33.3620 C   0  0  0  0  0  0  0  0  0  0  0  0
   37.4130   25.2360   32.5020 H   0  0  0  0  0  0  0  0  0  0  0  0
   37.0570   26.9490   33.6630 C   0  0  0  0  0  0  0  0  0  0  0  0
   37.4090   27.7460   34.7570 C   0  0  0  0  0  0  0  0  0  0  0  0
   38.4730   27.3950   35.5840 C   0  0  0  0  0  3  0  0  0  0  0  0
   36.5390   28.8500   34.8190 O   0  0  0  0  0  0  0  0  0  0  0  0
   35.9240   28.9450   33.5480 C   0  0  0  0  0  3  0  0  0  0  0  0
   36.5480   29.6360   32.9380 H   0  0  0  0  0  0  0  0  0  0  0  0
   35.9630   27.6080   33.0810 O   0  0  0  0  0  0  0  0  0  0  0  0
   39.9770   22.9760   36.7260 C   0  0  0  0  0  0  0  0  0  0  0  0
   38.8530   23.0730   35.9020 C   0  0  0  0  0  0  0  0  0  0  0  0
   37.6230   23.2230   36.5280 C   0  0  0  0  0  0  0  0  0  0  0  0
   37.5620   23.2710   37.8950 N   0  0  0  0  0  0  0  0  0  0  0  0
   38.6920   23.1700   38.6360 C   0  0  0  0  0  0  0  0  0  0  0  0
   39.9120   23.0220   38.0690 N   0  0  0  0  0  0  0  0  0  0  0  0
   40.9490   22.8590   36.2770 H   0  0  0  0  0  0  0  0  0  0  0  0
   36.7210   23.3030   35.9440 H   0  0  0  0  0  0  0  0  0  0  0  0
   38.6960   23.2020   39.7200 H   0  0  0  0  0  0  0  0  0  0  0  0
  1 27  1  0  0  0  0
  2  8  1  0  0  0  0
  2  7  1  0  0  0  0
  2  1  1  0  0  0  0
  3  2  1  0  0  0  0
  4  5  1  0  0  0  0
  4  3  1  0  0  0  0
  5  6  1  0  0  0  0
  6 16  1  0  0  0  0
  6 14  1  1  0  0  0
  6  1  1  0  0  0  0
  9  3  1  0  0  0  0
 10  3  1  0  0  0  0
 11  4  1  0  0  0  0
 12  5  1  0  0  0  0
 13  5  1  0  0  0  0
 15 21  1  0  0  0  0
 16 15  2  0  0  0  0
 17 19  2  0  0  0  0
 17 16  1  0  0  0  0
 18 17  1  0  0  0  0
 19 20  1  0  0  0  0
 20 22  1  0  0  0  0
 20 21  2  0  0  0  0
 23 22  1  0  0  0  0
 24 23  1  0  0  0  0
 25 23  1  0  0  0  0
 25 19  1  0  0  0  0
 26 31  1  0  0  0  0
 27 28  1  0  0  0  0
 27 26  2  0  0  0  0
 28 29  2  0  0  0  0
 29 30  1  0  0  0  0
 30 34  1  0  0  0  0
 31 30  2  0  0  0  0
 32 26  1  0  0  0  0
 33 28  1  0  0  0  0
M  END
>  <minimizedAffinity>
-4.88078642

$$$$

 OpenBabel03272508313D

 34 37  0  0  1  0  0  0  0  0999 V2000
   36.6770   23.2060   31.7380 N   0  0  0  0  0  0  0  0  0  0  0  0
   35.5190   24.0180   31.3820 C   0  0  0  0  0  0  0  0  0  0  0  0
   35.8640   25.4200   31.0530 C   0  0  0  0  0  0  0  0  0  0  0  0
   37.2360   25.5030   30.6280 N   0  0  0  0  0  0  0  0  0  0  0  0
   38.0530   25.2380   31.8050 C   0  0  0  0  0  0  0  0  0  0  0  0
   38.0070   23.7420   31.9830 C   0  0  1  0  0  0  0  0  0  0  0  0
   35.0630   23.5310   30.4930 H   0  0  0  0  0  0  0  0  0  0  0  0
   34.7170   23.9310   32.1710 H   0  0  0  0  0  0  0  0  0  0  0  0
   35.2280   25.7750   30.1990 H   0  0  0  0  0  0  0  0  0  0  0  0
   35.6380   26.1390   31.8720 H   0  0  0  0  0  0  0  0  0  0  0  0
   37.4440   26.4280   30.2100 H   0  0  0  0  0  0  0  0  0  0  0  0
   39.1190   25.5140   31.6360 H   0  0  0  0  0  0  0  0  0  0  0  0
   37.6180   25.8030   32.6540 H   0  0  0  0  0  0  0  0  0  0  0  0
   38.6550   23.3070   31.1940 H   0  0  0  0  0  0  0  0  0  0  0  0
   39.6560   22.5270   33.4790 C   0  0  0  0  0  3  0  0  0  0  0  0
   38.5450   23.3280   33.3090 C   0  0  0  0  0  0  0  0  0  0  0  0
   37.8530   23.7980   34.4190 C   0  0  0  0  0  0  0  0  0  0  0  0
   36.9760   24.4260   34.3830 H   0  0  0  0  0  0  0  0  0  0  0  0
   38.3140   23.4380   35.6650 C   0  0  0  0  0  0  0  0  0  0  0  0
   39.4430   22.6260   35.8190 C   0  0  0  0  0  0  0  0  0  0  0  0
   40.1400   22.1520   34.7100 C   0  0  0  0  0  3  0  0  0  0  0  0
   39.6790   22.4240   37.1910 O   0  0  0  0  0  0  0  0  0  0  0  0
   38.9500   23.4270   37.8740 C   0  0  0  0  0  3  0  0  0  0  0  0
   39.6410   24.2890   38.0140 H   0  0  0  0  0  0  0  0  0  0  0  0
   37.8920   23.7100   36.9750 O   0  0  0  0  0  0  0  0  0  0  0  0
   35.6720   21.2340   32.8150 C   0  0  0  0  0  0  0  0  0  0  0  0
   36.5170   21.7990   31.8570 C   0  0  0  0  0  0  0  0  0  0  0  0
   37.1990   20.9240   31.0210 C   0  0  0  0  0  0  0  0  0  0  0  0
   37.0180   19.5740   31.1650 N   0  0  0  0  0  0  0  0  0  0  0  0
   36.1830   19.0910   32.1150 C   0  0  0  0  0  0  0  0  0  0  0  0
   35.4990   19.9060   32.9530 N   0  0  0  0  0  0  0  0  0  0  0  0
   35.1260   21.8800   33.4820 H   0  0  0  0  0  0  0  0  0  0  0  0
   37.8640   21.3040   30.2630 H   0  0  0  0  0  0  0  0  0  0  0  0
   36.0070   18.0320   32.2690 H   0  0  0  0  0  0  0  0  0  0  0  0
  1 27  1  0  0  0  0
  1  6  1  0  0  0  0
  2  1  1  0  0  0  0
  2  8  1  0  0  0  0
  3  2  1  0  0  0  0
  3 10  1  0  0  0  0
  4  3  1  0  0  0  0
  4  5  1  0  0  0  0
  5  6  1  0  0  0  0
  5 13  1  0  0  0  0
  6 14  1  6  0  0  0
  6 16  1  0  0  0  0
  7  2  1  0  0  0  0
  9  3  1  0  0  0  0
 11  4  1  0  0  0  0
 12  5  1  0  0  0  0
 15 21  1  0  0  0  0
 16 15  2  0  0  0  0
 16 17  1  0  0  0  0
 17 19  2  0  0  0  0
 18 17  1  0  0  0  0
 19 20  1  0  0  0  0
 19 25  1  0  0  0  0
 20 22  1  0  0  0  0
 21 20  2  0  0  0  0
 22 23  1  0  0  0  0
 23 24  1  0  0  0  0
 25 23  1  0  0  0  0
 26 31  1  0  0  0  0
 26 32  1  0  0  0  0
 27 26  2  0  0  0  0
 28 29  2  0  0  0  0
 28 27  1  0  0  0  0
 29 30  1  0  0  0  0
 30 34  1  0  0  0  0
 30 31  2  0  0  0  0
 33 28  1  0  0  0  0
M  END
>  <minimizedAffinity>
-4.77913284

$$$$

 OpenBabel03272508313D

 34 37  0  0  1  0  0  0  0  0999 V2000
   33.8580   31.1940   35.4740 N   0  0  0  0  0  0  0  0  0  0  0  0
   33.7830   31.7310   36.8280 C   0  0  0  0  0  0  0  0  0  0  0  0
   34.8330   32.7340   37.1210 C   0  0  0  0  0  0  0  0  0  0  0  0
   35.2990   33.3310   35.8970 N   0  0  0  0  0  0  0  0  0  0  0  0
   36.0320   32.2940   35.1820 C   0  0  0  0  0  0  0  0  0  0  0  0
   34.9710   31.4200   34.5650 C   0  0  1  0  0  0  0  0  0  0  0  0
   32.7830   32.2080   36.9150 H   0  0  0  0  0  0  0  0  0  0  0  0
   33.7440   30.8950   37.5840 H   0  0  0  0  0  0  0  0  0  0  0  0
   34.4040   33.5570   37.7510 H   0  0  0  0  0  0  0  0  0  0  0  0
   35.6710   32.3350   37.7350 H   0  0  0  0  0  0  0  0  0  0  0  0
   35.8860   34.1630   36.0860 H   0  0  0  0  0  0  0  0  0  0  0  0
   36.6310   32.7200   34.3440 H   0  0  0  0  0  0  0  0  0  0  0  0
   36.6760   31.7680   35.9140 H   0  0  0  0  0  0  0  0  0  0  0  0
   34.5480   31.9860   33.7090 H   0  0  0  0  0  0  0  0  0  0  0  0
   36.0870   29.1590   34.8420 C   0  0  0  0  0  3  0  0  0  0  0  0
   35.5400   30.1450   34.0460 C   0  0  0  0  0  0  0  0  0  0  0  0
   35.4990   29.9790   32.6660 C   0  0  0  0  0  0  0  0  0  0  0  0
   35.0930   30.6940   31.9670 H   0  0  0  0  0  0  0  0  0  0  0  0
   36.0150   28.8160   32.1430 C   0  0  0  0  0  0  0  0  0  0  0  0
   36.5650   27.8260   32.9640 C   0  0  0  0  0  0  0  0  0  0  0  0
   36.6090   27.9870   34.3470 C   0  0  0  0  0  3  0  0  0  0  0  0
   37.0110   26.7590   32.1620 O   0  0  0  0  0  0  0  0  0  0  0  0
   36.3760   26.9120   30.9060 C   0  0  0  0  0  3  0  0  0  0  0  0
   35.4350   26.3190   30.9460 H   0  0  0  0  0  0  0  0  0  0  0  0
   36.1460   28.3080   30.8410 O   0  0  0  0  0  0  0  0  0  0  0  0
   32.3960   29.2200   35.6370 C   0  0  0  0  0  0  0  0  0  0  0  0
   32.7840   30.3980   34.9930 C   0  0  0  0  0  0  0  0  0  0  0  0
   32.0740   30.7580   33.8550 C   0  0  0  0  0  0  0  0  0  0  0  0
   31.0440   29.9660   33.4220 N   0  0  0  0  0  0  0  0  0  0  0  0
   30.7190   28.8360   34.0940 C   0  0  0  0  0  0  0  0  0  0  0  0
   31.3830   28.4440   35.2060 N   0  0  0  0  0  0  0  0  0  0  0  0
   32.9230   28.9070   36.5230 H   0  0  0  0  0  0  0  0  0  0  0  0
   32.3290   31.6560   33.3170 H   0  0  0  0  0  0  0  0  0  0  0  0
   29.9140   28.1760   33.7910 H   0  0  0  0  0  0  0  0  0  0  0  0
  1  2  1  0  0  0  0
  2  7  1  0  0  0  0
  2  3  1  0  0  0  0
  2  8  1  0  0  0  0
  3 10  1  0  0  0  0
  3  9  1  0  0  0  0
  4 11  1  0  0  0  0
  4  3  1  0  0  0  0
  5  4  1  0  0  0  0
  5 13  1  0  0  0  0
  6 14  1  6  0  0  0
  6  5  1  0  0  0  0
  6  1  1  0  0  0  0
 12  5  1  0  0  0  0
 16  6  1  0  0  0  0
 16 15  2  0  0  0  0
 17 16  1  0  0  0  0
 18 17  1  0  0  0  0
 19 17  2  0  0  0  0
 19 20  1  0  0  0  0
 20 21  2  0  0  0  0
 21 15  1  0  0  0  0
 22 20  1  0  0  0  0
 23 24  1  0  0  0  0
 23 22  1  0  0  0  0
 25 23  1  0  0  0  0
 25 19  1  0  0  0  0
 26 32  1  0  0  0  0
 27  1  1  0  0  0  0
 27 26  2  0  0  0  0
 28 27  1  0  0  0  0
 29 28  2  0  0  0  0
 29 30  1  0  0  0  0
 30 31  2  0  0  0  0
 31 26  1  0  0  0  0
 33 28  1  0  0  0  0
 34 30  1  0  0  0  0
M  END
>  <minimizedAffinity>
-4.7483325

$$$$

 OpenBabel03272508313D

 34 37  0  0  1  0  0  0  0  0999 V2000
   38.7860   24.2500   36.1010 N   0  0  0  0  0  0  0  0  0  0  0  0
   38.1630   24.4490   37.4040 C   0  0  0  0  0  0  0  0  0  0  0  0
   38.5160   23.4010   38.3900 C   0  0  0  0  0  0  0  0  0  0  0  0
   39.7660   22.7870   38.0300 N   0  0  0  0  0  0  0  0  0  0  0  0
   39.5190   22.0190   36.8170 C   0  0  0  0  0  0  0  0  0  0  0  0
   39.4910   23.0390   35.7080 C   0  0  1  0  0  0  0  0  0  0  0  0
   38.5220   25.4350   37.7700 H   0  0  0  0  0  0  0  0  0  0  0  0
   37.0500   24.5970   37.2920 H   0  0  0  0  0  0  0  0  0  0  0  0
   38.6500   23.8650   39.4020 H   0  0  0  0  0  0  0  0  0  0  0  0
   37.7120   22.6470   38.5460 H   0  0  0  0  0  0  0  0  0  0  0  0
   40.1280   22.1940   38.7990 H   0  0  0  0  0  0  0  0  0  0  0  0
   40.3570   21.3200   36.5960 H   0  0  0  0  0  0  0  0  0  0  0  0
   38.5620   21.4750   36.9490 H   0  0  0  0  0  0  0  0  0  0  0  0
   40.5420   23.3480   35.5320 H   0  0  0  0  0  0  0  0  0  0  0  0
   39.6550   22.4240   33.2530 C   0  0  0  0  0  3  0  0  0  0  0  0
   38.9560   22.4630   34.4420 C   0  0  0  0  0  0  0  0  0  0  0  0
   37.6680   21.9450   34.5070 C   0  0  0  0  0  0  0  0  0  0  0  0
   37.0480   21.9340   35.3900 H   0  0  0  0  0  0  0  0  0  0  0  0
   37.1330   21.4050   33.3590 C   0  0  0  0  0  0  0  0  0  0  0  0
   37.8560   21.3710   32.1620 C   0  0  0  0  0  0  0  0  0  0  0  0
   39.1480   21.8890   32.0920 C   0  0  0  0  0  3  0  0  0  0  0  0
   37.0670   20.7680   31.1660 O   0  0  0  0  0  0  0  0  0  0  0  0
   36.0340   20.0740   31.8410 C   0  0  0  0  0  3  0  0  0  0  0  0
   36.3960   19.0340   32.0030 H   0  0  0  0  0  0  0  0  0  0  0  0
   35.9030   20.8060   33.0470 O   0  0  0  0  0  0  0  0  0  0  0  0
   37.4930   25.7210   34.6090 C   0  0  0  0  0  0  0  0  0  0  0  0
   38.7130   25.2940   35.1400 C   0  0  0  0  0  0  0  0  0  0  0  0
   39.8580   25.9360   34.6850 C   0  0  0  0  0  0  0  0  0  0  0  0
   39.7480   26.9380   33.7600 N   0  0  0  0  0  0  0  0  0  0  0  0
   38.5330   27.3040   33.2850 C   0  0  0  0  0  0  0  0  0  0  0  0
   37.3910   26.7060   33.6980 N   0  0  0  0  0  0  0  0  0  0  0  0
   36.5830   25.2470   34.9370 H   0  0  0  0  0  0  0  0  0  0  0  0
   40.8270   25.6480   35.0600 H   0  0  0  0  0  0  0  0  0  0  0  0
   38.3940   28.0900   32.5520 H   0  0  0  0  0  0  0  0  0  0  0  0
  1  2  1  0  0  0  0
  2  7  1  0  0  0  0
  2  3  1  0  0  0  0
  3 10  1  0  0  0  0
  3  9  1  0  0  0  0
  4  3  1  0  0  0  0
  4 11  1  0  0  0  0
  5 13  1  0  0  0  0
  5  4  1  0  0  0  0
  6 14  1  6  0  0  0
  6  1  1  0  0  0  0
  6  5  1  0  0  0  0
  8  2  1  0  0  0  0
 12  5  1  0  0  0  0
 15 16  1  0  0  0  0
 16 17  2  0  0  0  0
 16  6  1  0  0  0  0
 17 18  1  0  0  0  0
 19 17  1  0  0  0  0
 20 19  2  0  0  0  0
 21 20  1  0  0  0  0
 21 15  2  0  0  0  0
 22 23  1  0  0  0  0
 22 20  1  0  0  0  0
 23 24  1  0  0  0  0
 23 25  1  0  0  0  0
 25 19  1  0  0  0  0
 26 32  1  0  0  0  0
 26 27  1  0  0  0  0
 27  1  1  0  0  0  0
 28 33  1  0  0  0  0
 28 27  2  0  0  0  0
 29 28  1  0  0  0  0
 30 31  1  0  0  0  0
 30 29  2  0  0  0  0
 31 26  2  0  0  0  0
 34 30  1  0  0  0  0
M  END
>  <minimizedAffinity>
-4.72140551

$$$$

 OpenBabel03272508313D

 34 37  0  0  1  0  0  0  0  0999 V2000
   38.5840   25.9630   31.3000 N   0  0  0  0  0  0  0  0  0  0  0  0
   38.4030   27.0540   30.3500 C   0  0  0  0  0  0  0  0  0  0  0  0
   39.5570   27.9820   30.2960 C   0  0  0  0  0  0  0  0  0  0  0  0
   40.7490   27.3120   30.7410 N   0  0  0  0  0  0  0  0  0  0  0  0
   40.5870   27.0820   32.1710 C   0  0  0  0  0  0  0  0  0  0  0  0
   39.6630   25.8970   32.2740 C   0  0  1  0  0  0  0  0  0  0  0  0
   38.2650   26.5780   29.3560 H   0  0  0  0  0  0  0  0  0  0  0  0
   37.4200   27.5780   30.5310 H   0  0  0  0  0  0  0  0  0  0  0  0
   39.7320   28.3050   29.2360 H   0  0  0  0  0  0  0  0  0  0  0  0
   39.3870   28.9370   30.8420 H   0  0  0  0  0  0  0  0  0  0  0  0
   41.5950   27.8710   30.5310 H   0  0  0  0  0  0  0  0  0  0  0  0
   41.5490   26.7880   32.6510 H   0  0  0  0  0  0  0  0  0  0  0  0
   40.1780   28.0090   32.6190 H   0  0  0  0  0  0  0  0  0  0  0  0
   40.2590   25.0020   31.9980 H   0  0  0  0  0  0  0  0  0  0  0  0
   38.3350   26.6070   34.3140 C   0  0  0  0  0  3  0  0  0  0  0  0
   39.1570   25.7100   33.6620 C   0  0  0  0  0  0  0  0  0  0  0  0
   39.5620   24.5470   34.3060 C   0  0  0  0  0  0  0  0  0  0  0  0
   40.2020   23.7910   33.8770 H   0  0  0  0  0  0  0  0  0  0  0  0
   39.1190   24.3350   35.5920 C   0  0  0  0  0  0  0  0  0  0  0  0
   38.2850   25.2540   36.2380 C   0  0  0  0  0  0  0  0  0  0  0  0
   37.8760   26.4210   35.5970 C   0  0  0  0  0  3  0  0  0  0  0  0
   37.9950   24.7800   37.5300 O   0  0  0  0  0  0  0  0  0  0  0  0
   38.3110   23.4010   37.5300 C   0  0  0  0  0  3  0  0  0  0  0  0
   37.3790   22.8560   37.2620 H   0  0  0  0  0  0  0  0  0  0  0  0
   39.3110   23.3100   36.5310 O   0  0  0  0  0  0  0  0  0  0  0  0
   36.2980   25.0820   31.5460 C   0  0  0  0  0  0  0  0  0  0  0  0
   37.6580   24.8860   31.2900 C   0  0  0  0  0  0  0  0  0  0  0  0
   38.0680   23.5860   31.0230 C   0  0  0  0  0  0  0  0  0  0  0  0
   37.1470   22.5730   31.0210 N   0  0  0  0  0  0  0  0  0  0  0  0
   35.8420   22.8320   31.2780 C   0  0  0  0  0  0  0  0  0  0  0  0
   35.3970   24.0820   31.5430 N   0  0  0  0  0  0  0  0  0  0  0  0
   35.9410   26.0760   31.7570 H   0  0  0  0  0  0  0  0  0  0  0  0
   39.1050   23.3750   30.8190 H   0  0  0  0  0  0  0  0  0  0  0  0
   35.0760   22.0660   31.2880 H   0  0  0  0  0  0  0  0  0  0  0  0
  1  6  1  0  0  0  0
  2  8  1  0  0  0  0
  2  1  1  0  0  0  0
  3  2  1  0  0  0  0
  3  4  1  0  0  0  0
  3 10  1  0  0  0  0
  4  5  1  0  0  0  0
  5  6  1  0  0  0  0
  5 13  1  0  0  0  0
  5 12  1  0  0  0  0
  6 14  1  6  0  0  0
  6 16  1  0  0  0  0
  7  2  1  0  0  0  0
  9  3  1  0  0  0  0
 11  4  1  0  0  0  0
 15 21  1  0  0  0  0
 16 17  1  0  0  0  0
 16 15  2  0  0  0  0
 17 19  2  0  0  0  0
 18 17  1  0  0  0  0
 19 20  1  0  0  0  0
 19 25  1  0  0  0  0
 20 22  1  0  0  0  0
 21 20  2  0  0  0  0
 23 22  1  0  0  0  0
 24 23  1  0  0  0  0
 25 23  1  0  0  0  0
 26 32  1  0  0  0  0
 27  1  1  0  0  0  0
 27 26  2  0  0  0  0
 28 27  1  0  0  0  0
 29 28  2  0  0  0  0
 29 30  1  0  0  0  0
 30 34  1  0  0  0  0
 30 31  2  0  0  0  0
 31 26  1  0  0  0  0
 33 28  1  0  0  0  0
M  END
>  <minimizedAffinity>
-4.6660285

$$$$

 OpenBabel03272508313D

 34 37  0  0  1  0  0  0  0  0999 V2000
   37.4960   25.1430   32.2120 N   0  0  0  0  0  0  0  0  0  0  0  0
   36.2860   25.8660   31.8400 C   0  0  0  0  0  0  0  0  0  0  0  0
   36.3760   27.3250   32.0850 C   0  0  0  0  0  0  0  0  0  0  0  0
   37.7530   27.7390   32.0940 N   0  0  0  0  0  0  0  0  0  0  0  0
   38.3510   27.1720   33.2960 C   0  0  0  0  0  0  0  0  0  0  0  0
   38.5990   25.7240   32.9640 C   0  0  1  0  0  0  0  0  0  0  0  0
   36.1390   25.6830   30.7530 H   0  0  0  0  0  0  0  0  0  0  0  0
   35.3800   25.3910   32.3140 H   0  0  0  0  0  0  0  0  0  0  0  0
   35.8660   27.8790   31.2540 H   0  0  0  0  0  0  0  0  0  0  0  0
   35.8360   27.6570   32.9990 H   0  0  0  0  0  0  0  0  0  0  0  0
   37.8350   28.7710   32.0680 H   0  0  0  0  0  0  0  0  0  0  0  0
   39.3420   27.6300   33.5160 H   0  0  0  0  0  0  0  0  0  0  0  0
   37.6390   27.3250   34.1320 H   0  0  0  0  0  0  0  0  0  0  0  0
   39.4730   25.6980   32.2800 H   0  0  0  0  0  0  0  0  0  0  0  0
   40.0860   24.1860   34.3250 C   0  0  0  0  0  3  0  0  0  0  0  0
   38.9320   24.9280   34.1780 C   0  0  0  0  0  0  0  0  0  0  0  0
   37.9940   24.9620   35.2030 C   0  0  0  0  0  0  0  0  0  0  0  0
   37.0660   25.5120   35.1760 H   0  0  0  0  0  0  0  0  0  0  0  0
   38.2600   24.2400   36.3440 C   0  0  0  0  0  0  0  0  0  0  0  0
   39.4360   23.4930   36.4770 C   0  0  0  0  0  0  0  0  0  0  0  0
   40.3790   23.4560   35.4530 C   0  0  0  0  0  3  0  0  0  0  0  0
   39.4390   22.8640   37.7350 O   0  0  0  0  0  0  0  0  0  0  0  0
   38.4760   23.5390   38.5220 C   0  0  0  0  0  3  0  0  0  0  0  0
   39.0140   24.3460   39.0680 H   0  0  0  0  0  0  0  0  0  0  0  0
   37.5730   24.0380   37.5510 O   0  0  0  0  0  0  0  0  0  0  0  0
   36.7860   22.7890   32.3310 C   0  0  0  0  0  0  0  0  0  0  0  0
   37.6270   23.7820   31.8240 C   0  0  0  0  0  0  0  0  0  0  0  0
   38.6030   23.3820   30.9200 C   0  0  0  0  0  0  0  0  0  0  0  0
   38.6980   22.0620   30.5680 N   0  0  0  0  0  0  0  0  0  0  0  0
   37.8500   21.1480   31.0980 C   0  0  0  0  0  0  0  0  0  0  0  0
   36.8850   21.4920   31.9830 N   0  0  0  0  0  0  0  0  0  0  0  0
   36.0170   23.0600   33.0350 H   0  0  0  0  0  0  0  0  0  0  0  0
   39.2800   24.1050   30.4950 H   0  0  0  0  0  0  0  0  0  0  0  0
   37.8850   20.0930   30.8530 H   0  0  0  0  0  0  0  0  0  0  0  0
  1  6  1  0  0  0  0
  2  3  1  0  0  0  0
  2  1  1  0  0  0  0
  2  8  1  0  0  0  0
  3  4  1  0  0  0  0
  3 10  1  0  0  0  0
  4  5  1  0  0  0  0
  5 12  1  0  0  0  0
  5 13  1  0  0  0  0
  6 14  1  6  0  0  0
  6  5  1  0  0  0  0
  6 16  1  0  0  0  0
  7  2  1  0  0  0  0
  9  3  1  0  0  0  0
 11  4  1  0  0  0  0
 15 21  1  0  0  0  0
 16 15  2  0  0  0  0
 16 17  1  0  0  0  0
 17 19  2  0  0  0  0
 18 17  1  0  0  0  0
 19 20  1  0  0  0  0
 19 25  1  0  0  0  0
 20 22  1  0  0  0  0
 21 20  2  0  0  0  0
 22 23  1  0  0  0  0
 23 24  1  0  0  0  0
 25 23  1  0  0  0  0
 26 32  1  0  0  0  0
 27  1  1  0  0  0  0
 27 26  2  0  0  0  0
 28 27  1  0  0  0  0
 29 28  2  0  0  0  0
 29 30  1  0  0  0  0
 30 31  2  0  0  0  0
 31 26  1  0  0  0  0
 33 28  1  0  0  0  0
 34 30  1  0  0  0  0
M  END
>  <minimizedAffinity>
-4.65194893

$$$$

 OpenBabel03272508313D

 34 37  0  0  1  0  0  0  0  0999 V2000
   37.5050   24.9550   32.3960 N   0  0  0  0  0  0  0  0  0  0  0  0
   36.3400   25.6500   31.8620 C   0  0  0  0  0  0  0  0  0  0  0  0
   36.4120   27.1220   32.0160 C   0  0  0  0  0  0  0  0  0  0  0  0
   37.7840   27.5380   32.1300 N   0  0  0  0  0  0  0  0  0  0  0  0
   38.2600   27.0540   33.4190 C   0  0  0  0  0  0  0  0  0  0  0  0
   38.5320   25.5870   33.2100 C   0  0  1  0  0  0  0  0  0  0  0  0
   36.2970   25.3940   30.7810 H   0  0  0  0  0  0  0  0  0  0  0  0
   35.3900   25.2060   32.2770 H   0  0  0  0  0  0  0  0  0  0  0  0
   35.9860   27.6180   31.1050 H   0  0  0  0  0  0  0  0  0  0  0  0
   35.7880   27.5130   32.8500 H   0  0  0  0  0  0  0  0  0  0  0  0
   37.8720   28.5660   32.0430 H   0  0  0  0  0  0  0  0  0  0  0  0
   39.2280   27.5280   33.7030 H   0  0  0  0  0  0  0  0  0  0  0  0
   37.4730   27.2610   34.1710 H   0  0  0  0  0  0  0  0  0  0  0  0
   39.4690   25.5180   32.6170 H   0  0  0  0  0  0  0  0  0  0  0  0
   37.8170   24.8320   35.5230 C   0  0  0  0  0  3  0  0  0  0  0  0
   38.7440   24.8760   34.5010 C   0  0  0  0  0  0  0  0  0  0  0  0
   39.9660   24.2290   34.6460 C   0  0  0  0  0  0  0  0  0  0  0  0
   40.7490   24.2090   33.9030 H   0  0  0  0  0  0  0  0  0  0  0  0
   40.2040   23.5590   35.8250 C   0  0  0  0  0  0  0  0  0  0  0  0
   39.2530   23.5240   36.8500 C   0  0  0  0  0  0  0  0  0  0  0  0
   38.0270   24.1710   36.7100 C   0  0  0  0  0  3  0  0  0  0  0  0
   39.7650   22.7750   37.9250 O   0  0  0  0  0  0  0  0  0  0  0  0
   40.8450   22.0210   37.4080 C   0  0  0  0  0  3  0  0  0  0  0  0
   40.4300   21.0390   37.0890 H   0  0  0  0  0  0  0  0  0  0  0  0
   41.2850   22.8140   36.3190 O   0  0  0  0  0  0  0  0  0  0  0  0
   36.7710   22.6140   32.5950 C   0  0  0  0  0  0  0  0  0  0  0  0
   37.6670   23.5720   32.1150 C   0  0  0  0  0  0  0  0  0  0  0  0
   38.7290   23.1130   31.3470 C   0  0  0  0  0  0  0  0  0  0  0  0
   38.8510   21.7730   31.0950 N   0  0  0  0  0  0  0  0  0  0  0  0
   37.9460   20.8960   31.5920 C   0  0  0  0  0  0  0  0  0  0  0  0
   36.8960   21.2970   32.3460 N   0  0  0  0  0  0  0  0  0  0  0  0
   35.9340   22.9310   33.1950 H   0  0  0  0  0  0  0  0  0  0  0  0
   39.4520   23.8060   30.9490 H   0  0  0  0  0  0  0  0  0  0  0  0
   38.0000   19.8260   31.4220 H   0  0  0  0  0  0  0  0  0  0  0  0
  1  6  1  0  0  0  0
  2  3  1  0  0  0  0
  2  8  1  0  0  0  0
  2  1  1  0  0  0  0
  3  4  1  0  0  0  0
  3 10  1  0  0  0  0
  4  5  1  0  0  0  0
  5 12  1  0  0  0  0
  5 13  1  0  0  0  0
  6 14  1  6  0  0  0
  6  5  1  0  0  0  0
  6 16  1  0  0  0  0
  7  2  1  0  0  0  0
  9  3  1  0  0  0  0
 11  4  1  0  0  0  0
 15 21  1  0  0  0  0
 16 17  1  0  0  0  0
 16 15  2  0  0  0  0
 17 19  2  0  0  0  0
 18 17  1  0  0  0  0
 19 25  1  0  0  0  0
 19 20  1  0  0  0  0
 20 22  1  0  0  0  0
 21 20  2  0  0  0  0
 23 22  1  0  0  0  0
 24 23  1  0  0  0  0
 25 23  1  0  0  0  0
 26 32  1  0  0  0  0
 27  1  1  0  0  0  0
 27 26  2  0  0  0  0
 28 27  1  0  0  0  0
 29 28  2  0  0  0  0
 29 30  1  0  0  0  0
 30 31  2  0  0  0  0
 31 26  1  0  0  0  0
 33 28  1  0  0  0  0
 34 30  1  0  0  0  0
M  END
>  <minimizedAffinity>
-4.56750441

$$$$
