
 OpenBabel03272500583D

 37 40  0  0  0  0  0  0  0  0999 V2000
   38.0930   31.8920   47.4320 C   0  0  0  0  0  0  0  0  0  0  0  0
   38.5530   32.8030   48.3360 C   0  0  0  0  0  0  0  0  0  0  0  0
   38.0590   32.8850   49.6410 C   0  0  0  0  0  0  0  0  0  0  0  0
   37.0160   31.9520   50.0170 C   0  0  0  0  0  0  0  0  0  0  0  0
   36.6020   31.0700   49.0710 C   0  0  0  0  0  0  0  0  0  0  0  0
   37.0830   31.0020   47.8230 C   0  0  0  0  0  0  0  0  0  0  0  0
   39.3450   33.5260   48.0810 H   0  0  0  0  0  0  0  0  0  0  0  0
   38.4690   33.6340   50.3060 H   0  0  0  0  0  0  0  0  0  0  0  0
   36.7350   32.1260   51.0330 H   0  0  0  0  0  0  0  0  0  0  0  0
   35.8580   30.4660   49.5680 H   0  0  0  0  0  0  0  0  0  0  0  0
   39.9850   31.2810   46.0060 C   0  0  0  0  0  0  0  0  0  0  0  0
   38.7250   31.9170   46.1320 C   0  0  0  0  0  0  0  0  0  0  0  0
   38.2570   32.4810   44.9720 C   0  0  0  0  0  0  0  0  0  0  0  0
   38.9610   32.4140   43.8360 N   0  0  0  0  0  0  0  0  0  0  0  0
   40.1320   31.8180   43.7360 C   0  0  0  0  0  0  0  0  0  0  0  0
   40.6330   31.2560   44.8240 N   0  0  0  0  0  0  0  0  0  0  0  0
   40.4390   30.8020   46.8790 H   0  0  0  0  0  0  0  0  0  0  0  0
   37.2990   32.9680   45.0590 H   0  0  0  0  0  0  0  0  0  0  0  0
   40.7110   31.7570   42.8220 H   0  0  0  0  0  0  0  0  0  0  0  0
   35.1580   29.9550   46.9660 C   0  0  0  0  0  0  0  0  0  0  0  0
   34.5140   30.6350   47.8570 O   0  0  0  0  0  0  0  0  0  0  0  0
   36.6000   30.1000   46.9090 N   0  0  0  0  0  0  0  0  0  0  0  0
   37.1880   29.5630   46.2360 H   0  0  0  0  0  0  0  0  0  0  0  0
   34.4530   29.1390   46.1300 O   0  0  0  0  0  0  0  0  0  0  0  0
   33.4070   29.5310   45.3140 C   0  0  0  0  0  0  0  0  0  0  0  0
   33.5480   30.4460   44.3790 O   0  0  0  0  0  0  0  0  0  0  0  0
   31.3540   28.4280   44.3890 C   0  0  0  0  0  3  0  0  0  0  0  0
   32.0700   28.9090   45.4470 C   0  0  0  0  0  0  0  0  0  0  0  0
   31.4790   28.7900   46.6870 C   0  0  0  0  0  0  0  0  0  0  0  0
   32.0170   29.1610   47.5650 H   0  0  0  0  0  0  0  0  0  0  0  0
   30.2550   28.2330   46.9080 C   0  0  0  0  0  0  0  0  0  0  0  0
   29.5590   27.7540   45.8000 C   0  0  0  0  0  0  0  0  0  0  0  0
   30.1110   27.8540   44.5390 C   0  0  0  0  0  3  0  0  0  0  0  0
   28.3350   27.2290   46.2580 O   0  0  0  0  0  0  0  0  0  0  0  0
   28.4530   27.0230   47.6520 C   0  0  0  0  0  3  0  0  0  0  0  0
   27.5370   27.2470   48.2220 H   0  0  0  0  0  0  0  0  0  0  0  0
   29.4360   27.9860   48.0160 O   0  0  0  0  0  0  0  0  0  0  0  0
  1  6  2  0  0  0  0
  1  2  1  0  0  0  0
  2  3  2  0  0  0  0
  3  4  1  0  0  0  0
  3  8  1  0  0  0  0
  4  9  1  0  0  0  0
  5 10  1  0  0  0  0
  5  4  2  0  0  0  0
  6  5  1  0  0  0  0
  7  2  1  0  0  0  0
 11 12  1  0  0  0  0
 11 17  1  0  0  0  0
 12  1  1  0  0  0  0
 13 18  1  0  0  0  0
 13 12  2  0  0  0  0
 14 13  1  0  0  0  0
 15 14  2  0  0  0  0
 15 16  1  0  0  0  0
 16 11  2  0  0  0  0
 19 15  1  0  0  0  0
 20 21  2  0  0  0  0
 22 20  1  0  0  0  0
 22  6  1  0  0  0  0
 23 22  1  0  0  0  0
 24 20  1  0  0  0  0
 25 28  1  0  0  0  0
 25 24  1  0  0  0  0
 26 25  2  0  0  0  0
 27 33  2  0  0  0  0
 27 28  1  0  0  0  0
 28 29  2  0  0  0  0
 29 31  1  0  0  0  0
 29 30  1  0  0  0  0
 31 37  1  0  0  0  0
 32 34  1  0  0  0  0
 32 31  2  0  0  0  0
 33 32  1  0  0  0  0
 34 35  1  0  0  0  0
 35 37  1  0  0  0  0
 35 36  1  0  0  0  0
M  END
>  <minimizedAffinity>
-5.80149078

>  <minimizedRMSD>
0.746474564

$$$$
