
 OpenBabel03272500583D

 37 40  0  0  0  0  0  0  0  0999 V2000
   38.0820   31.8730   47.4340 C   0  0  0  0  0  0  0  0  0  0  0  0
   38.5570   32.7640   48.3500 C   0  0  0  0  0  0  0  0  0  0  0  0
   38.0650   32.8340   49.6580 C   0  0  0  0  0  0  0  0  0  0  0  0
   37.0090   31.9110   50.0210 C   0  0  0  0  0  0  0  0  0  0  0  0
   36.5800   31.0490   49.0620 C   0  0  0  0  0  0  0  0  0  0  0  0
   37.0590   30.9930   47.8130 C   0  0  0  0  0  0  0  0  0  0  0  0
   39.3590   33.4790   48.1060 H   0  0  0  0  0  0  0  0  0  0  0  0
   38.4870   33.5670   50.3330 H   0  0  0  0  0  0  0  0  0  0  0  0
   36.7320   32.0750   51.0400 H   0  0  0  0  0  0  0  0  0  0  0  0
   35.8290   30.4490   49.5510 H   0  0  0  0  0  0  0  0  0  0  0  0
   39.9760   31.2790   46.0030 C   0  0  0  0  0  0  0  0  0  0  0  0
   38.7130   31.9090   46.1340 C   0  0  0  0  0  0  0  0  0  0  0  0
   38.2420   32.4770   44.9770 C   0  0  0  0  0  0  0  0  0  0  0  0
   38.9450   32.4190   43.8400 N   0  0  0  0  0  0  0  0  0  0  0  0
   40.1190   31.8290   43.7360 C   0  0  0  0  0  0  0  0  0  0  0  0
   40.6230   31.2640   44.8210 N   0  0  0  0  0  0  0  0  0  0  0  0
   40.4330   30.7980   46.8730 H   0  0  0  0  0  0  0  0  0  0  0  0
   37.2810   32.9590   45.0670 H   0  0  0  0  0  0  0  0  0  0  0  0
   40.6970   31.7760   42.8220 H   0  0  0  0  0  0  0  0  0  0  0  0
   35.1190   29.9800   46.9500 C   0  0  0  0  0  0  0  0  0  0  0  0
   34.4880   30.6490   47.8580 O   0  0  0  0  0  0  0  0  0  0  0  0
   36.5630   30.1120   46.8870 N   0  0  0  0  0  0  0  0  0  0  0  0
   37.1410   29.5810   46.2000 H   0  0  0  0  0  0  0  0  0  0  0  0
   34.4020   29.1850   46.1050 O   0  0  0  0  0  0  0  0  0  0  0  0
   33.3280   29.5920   45.3330 C   0  0  0  0  0  0  0  0  0  0  0  0
   33.4280   30.5510   44.4380 O   0  0  0  0  0  0  0  0  0  0  0  0
   31.3040   28.4300   44.4150 C   0  0  0  0  0  3  0  0  0  0  0  0
   32.0070   28.9370   45.4700 C   0  0  0  0  0  0  0  0  0  0  0  0
   31.4190   28.8130   46.7110 C   0  0  0  0  0  0  0  0  0  0  0  0
   31.9460   29.2040   47.5860 H   0  0  0  0  0  0  0  0  0  0  0  0
   30.2090   28.2270   46.9340 C   0  0  0  0  0  0  0  0  0  0  0  0
   29.5260   27.7220   45.8300 C   0  0  0  0  0  0  0  0  0  0  0  0
   30.0760   27.8260   44.5680 C   0  0  0  0  0  3  0  0  0  0  0  0
   28.3150   27.1700   46.2910 O   0  0  0  0  0  0  0  0  0  0  0  0
   28.4360   26.9780   47.6870 C   0  0  0  0  0  3  0  0  0  0  0  0
   27.5130   27.1830   48.2530 H   0  0  0  0  0  0  0  0  0  0  0  0
   29.3940   27.9680   48.0430 O   0  0  0  0  0  0  0  0  0  0  0  0
  1  6  2  0  0  0  0
  1  2  1  0  0  0  0
  2  3  2  0  0  0  0
  3  4  1  0  0  0  0
  3  8  1  0  0  0  0
  4  9  1  0  0  0  0
  5 10  1  0  0  0  0
  5  4  2  0  0  0  0
  6  5  1  0  0  0  0
  7  2  1  0  0  0  0
 11 12  1  0  0  0  0
 11 17  1  0  0  0  0
 12  1  1  0  0  0  0
 13 18  1  0  0  0  0
 13 12  2  0  0  0  0
 14 13  1  0  0  0  0
 15 14  2  0  0  0  0
 15 16  1  0  0  0  0
 16 11  2  0  0  0  0
 19 15  1  0  0  0  0
 20 21  2  0  0  0  0
 22 20  1  0  0  0  0
 22  6  1  0  0  0  0
 23 22  1  0  0  0  0
 24 20  1  0  0  0  0
 25 28  1  0  0  0  0
 25 24  1  0  0  0  0
 26 25  2  0  0  0  0
 27 33  2  0  0  0  0
 27 28  1  0  0  0  0
 28 29  2  0  0  0  0
 29 31  1  0  0  0  0
 29 30  1  0  0  0  0
 31 37  1  0  0  0  0
 32 34  1  0  0  0  0
 32 31  2  0  0  0  0
 33 32  1  0  0  0  0
 34 35  1  0  0  0  0
 35 37  1  0  0  0  0
 35 36  1  0  0  0  0
M  END
>  <minimizedAffinity>
-5.81670904

>  <minimizedRMSD>
0.662880361

$$$$
