
 OpenBabel03272508303D

 34 37  0  0  1  0  0  0  0  0999 V2000
   34.6230   30.4590   44.0830 N   0  0  0  0  0  0  0  0  0  0  0  0
   34.6060   31.3340   42.9170 C   0  0  0  0  0  0  0  0  0  0  0  0
   35.9040   31.3890   42.2050 C   0  0  0  0  0  0  0  0  0  0  0  0
   36.6660   30.1990   42.4760 N   0  0  0  0  0  0  0  0  0  0  0  0
   37.0610   30.2680   43.8770 C   0  0  0  0  0  0  0  0  0  0  0  0
   35.8300   29.8760   44.6510 C   0  0  1  0  0  0  0  0  0  0  0  0
   33.8290   30.9240   42.2350 H   0  0  0  0  0  0  0  0  0  0  0  0
   34.2060   32.3520   43.1920 H   0  0  0  0  0  0  0  0  0  0  0  0
   35.7260   31.4280   41.0980 H   0  0  0  0  0  0  0  0  0  0  0  0
   36.4880   32.3140   42.4150 H   0  0  0  0  0  0  0  0  0  0  0  0
   37.4820   30.1250   41.8440 H   0  0  0  0  0  0  0  0  0  0  0  0
   37.8500   29.5190   44.1170 H   0  0  0  0  0  0  0  0  0  0  0  0
   37.4080   31.3010   44.0800 H   0  0  0  0  0  0  0  0  0  0  0  0
   35.7150   28.7780   44.5340 H   0  0  0  0  0  0  0  0  0  0  0  0
   35.0890   29.7500   47.0720 C   0  0  0  0  0  3  0  0  0  0  0  0
   35.9700   30.1790   46.1020 C   0  0  0  0  0  0  0  0  0  0  0  0
   37.0760   30.9440   46.4590 C   0  0  0  0  0  0  0  0  0  0  0  0
   37.8160   31.3220   45.7710 H   0  0  0  0  0  0  0  0  0  0  0  0
   37.2460   31.2470   47.7910 C   0  0  0  0  0  0  0  0  0  0  0  0
   36.3430   30.8040   48.7620 C   0  0  0  0  0  0  0  0  0  0  0  0
   35.2330   30.0370   48.4100 C   0  0  0  0  0  3  0  0  0  0  0  0
   36.7640   31.2600   50.0230 O   0  0  0  0  0  0  0  0  0  0  0  0
   38.1220   31.6310   49.8810 C   0  0  0  0  0  3  0  0  0  0  0  0
   38.7300   30.7380   50.1440 H   0  0  0  0  0  0  0  0  0  0  0  0
   38.2090   31.9730   48.5080 O   0  0  0  0  0  0  0  0  0  0  0  0
   32.9690   28.8210   44.8840 C   0  0  0  0  0  0  0  0  0  0  0  0
   33.3930   30.1420   44.7190 C   0  0  0  0  0  0  0  0  0  0  0  0
   32.5560   31.1380   45.2060 C   0  0  0  0  0  0  0  0  0  0  0  0
   31.3790   30.7940   45.8140 N   0  0  0  0  0  0  0  0  0  0  0  0
   31.0270   29.4920   45.9420 C   0  0  0  0  0  0  0  0  0  0  0  0
   31.8100   28.4880   45.4820 N   0  0  0  0  0  0  0  0  0  0  0  0
   33.5910   28.0200   44.5200 H   0  0  0  0  0  0  0  0  0  0  0  0
   32.8320   32.1750   45.1070 H   0  0  0  0  0  0  0  0  0  0  0  0
   30.1060   29.1690   46.4140 H   0  0  0  0  0  0  0  0  0  0  0  0
  1  6  1  0  0  0  0
  1 27  1  0  0  0  0
  2  8  1  0  0  0  0
  2  1  1  0  0  0  0
  3 10  1  0  0  0  0
  3  4  1  0  0  0  0
  3  2  1  0  0  0  0
  4  5  1  0  0  0  0
  5 13  1  0  0  0  0
  5 12  1  0  0  0  0
  5  6  1  0  0  0  0
  6 14  1  6  0  0  0
  6 16  1  0  0  0  0
  7  2  1  0  0  0  0
  9  3  1  0  0  0  0
 11  4  1  0  0  0  0
 15 21  1  0  0  0  0
 16 17  1  0  0  0  0
 16 15  2  0  0  0  0
 17 19  2  0  0  0  0
 18 17  1  0  0  0  0
 19 25  1  0  0  0  0
 19 20  1  0  0  0  0
 20 22  1  0  0  0  0
 21 20  2  0  0  0  0
 23 22  1  0  0  0  0
 23 24  1  0  0  0  0
 25 23  1  0  0  0  0
 26 31  1  0  0  0  0
 27 26  2  0  0  0  0
 27 28  1  0  0  0  0
 28 29  2  0  0  0  0
 29 30  1  0  0  0  0
 30 34  1  0  0  0  0
 31 30  2  0  0  0  0
 32 26  1  0  0  0  0
 33 28  1  0  0  0  0
M  END
>  <minimizedAffinity>
-4.24814081

>  <minimizedRMSD>
5.66033268

$$$$
