
     RDKit          3D

 40 43  0  0  0  0  0  0  0  0999 V2000
   38.1124   31.8851   47.4125 C   0  0  0  0  0  0  0  0  0  0  0  0
   38.5822   32.7829   48.3250 C   0  0  0  0  0  0  0  0  0  0  0  0
   38.0856   32.8615   49.6298 C   0  0  0  0  0  0  0  0  0  0  0  0
   37.0312   31.9383   49.9964 C   0  0  0  0  0  0  0  0  0  0  0  0
   36.6074   31.0687   49.0421 C   0  0  0  0  0  0  0  0  0  0  0  0
   37.0898   31.0048   47.7949 C   0  0  0  0  0  0  0  0  0  0  0  0
   40.0023   31.2659   45.9868 C   0  0  0  0  0  0  0  0  0  0  0  0
   38.7471   31.9130   46.1151 C   0  0  0  0  0  0  0  0  0  0  0  0
   38.2872   32.4880   44.9574 C   0  0  0  0  0  0  0  0  0  0  0  0
   38.9935   32.4219   43.8217 N   0  0  0  0  0  0  0  0  0  0  0  0
   40.1589   31.8159   43.7211 C   0  0  0  0  0  0  0  0  0  0  0  0
   40.6517   31.2432   44.8075 N   0  0  0  0  0  0  0  0  0  0  0  0
   35.1562   29.9722   46.9421 C   0  0  0  0  0  0  0  0  0  0  0  0
   34.5222   30.6392   47.8492 O   0  0  0  0  0  0  0  0  0  0  0  0
   36.5984   30.1173   46.8729 N   0  0  0  0  0  0  0  0  0  0  0  0
   34.4429   29.1680   46.1012 O   0  0  0  0  0  0  0  0  0  0  0  0
   33.3755   29.5680   45.3170 C   0  0  0  0  0  0  0  0  0  0  0  0
   33.3646   30.7171   44.6754 O   0  0  0  0  0  0  0  0  0  0  0  0
   39.3837   33.4979   48.0780 H   0  0  0  0  0  0  0  0  0  0  0  0
   38.5040   33.5985   50.3021 H   0  0  0  0  0  0  0  0  0  0  0  0
   36.7502   32.1083   51.0133 H   0  0  0  0  0  0  0  0  0  0  0  0
   35.8549   30.4715   49.5330 H   0  0  0  0  0  0  0  0  0  0  0  0
   40.4500   30.7782   46.8576 H   0  0  0  0  0  0  0  0  0  0  0  0
   37.3328   32.9830   45.0448 H   0  0  0  0  0  0  0  0  0  0  0  0
   40.7391   31.7561   42.8082 H   0  0  0  0  0  0  0  0  0  0  0  0
   37.1792   29.5887   46.1859 H   0  0  0  0  0  0  0  0  0  0  0  0
   31.6076   28.4454   43.9380 C   0  0  0  0  0  0  0  0  0  0  0  0
   32.1927   28.6940   45.1463 C   0  0  0  0  0  0  0  0  0  0  0  0
   31.6204   28.0789   46.2393 C   0  0  0  0  0  0  0  0  0  0  0  0
   32.0559   28.2493   47.2280 H   0  0  0  0  0  0  0  0  0  0  0  0
   30.5328   27.2593   46.1805 C   0  0  0  0  0  0  0  0  0  0  0  0
   29.9669   27.0325   44.9280 C   0  0  0  0  0  0  0  0  0  0  0  0
   30.5070   27.6278   43.8063 C   0  0  0  0  0  0  0  0  0  0  0  0
   28.8701   26.1674   45.1042 O   0  0  0  0  0  0  0  0  0  0  0  0
   29.0055   25.5568   46.3725 C   0  0  1  0  0  0  0  0  0  0  0  0
   28.0536   25.4121   46.9088 H   0  0  0  0  0  0  0  0  0  0  0  0
   29.7641   26.5242   47.0907 O   0  0  0  0  0  0  0  0  0  0  0  0
   32.0359   28.9154   43.0606 H   0  0  0  0  0  0  0  0  0  0  0  0
   30.0411   27.4300   42.8430 H   0  0  0  0  0  0  0  0  0  0  0  0
   29.6260   24.6233   46.3034 H   0  0  0  0  0  0  0  0  0  0  0  0
  1  6  1  0
  1  2  2  0
  2  3  1  0
  3  4  2  0
  5  4  1  0
  6  5  2  0
  7  8  2  0
  8  1  1  0
  9  8  1  0
 10  9  2  0
 11 10  1  0
 11 12  2  0
 12  7  1  0
 13 14  2  0
 15 13  1  0
 15  6  1  0
 16 13  1  0
 17 16  1  0
 18 17  2  0
  2 19  1  0
  3 20  1  0
  4 21  1  0
  5 22  1  0
  7 23  1  0
  9 24  1  0
 11 25  1  0
 15 26  1  0
 27 28  2  0
 28 29  1  0
 29 30  1  0
 29 31  2  0
 31 32  1  0
 32 33  2  0
 32 34  1  0
 34 35  1  0
 35 36  1  1
 35 37  1  0
 33 27  1  0
 37 31  1  0
 27 38  1  0
 33 39  1  0
 35 40  1  0
 17 28  1  0
M  ISO  8  19  14  20  14  21  14  22  14  23  14  24  14  25  14  30  16
M  ISO  1  36   8
M  END
>  <DihAtoms>  (1) 
15,16,27,26

>  <DihDeg>  (1) 
1.045174992183025

$$$$
