
 OpenBabel03272500583D

 37 40  0  0  0  0  0  0  0  0999 V2000
   38.0400   31.8930   47.4470 C   0  0  0  0  0  0  0  0  0  0  0  0
   38.5130   32.8480   48.2970 C   0  0  0  0  0  0  0  0  0  0  0  0
   38.0620   32.9740   49.6140 C   0  0  0  0  0  0  0  0  0  0  0  0
   37.0510   32.0380   50.0630 C   0  0  0  0  0  0  0  0  0  0  0  0
   36.6220   31.1110   49.1670 C   0  0  0  0  0  0  0  0  0  0  0  0
   37.0620   31.0020   47.9080 C   0  0  0  0  0  0  0  0  0  0  0  0
   39.2820   33.5750   47.9860 H   0  0  0  0  0  0  0  0  0  0  0  0
   38.4790   33.7570   50.2340 H   0  0  0  0  0  0  0  0  0  0  0  0
   36.8010   32.2490   51.0800 H   0  0  0  0  0  0  0  0  0  0  0  0
   35.9070   30.5150   49.7140 H   0  0  0  0  0  0  0  0  0  0  0  0
   39.8730   31.2190   45.9720 C   0  0  0  0  0  0  0  0  0  0  0  0
   38.6270   31.8770   46.1260 C   0  0  0  0  0  0  0  0  0  0  0  0
   38.1280   32.4190   44.9680 C   0  0  0  0  0  0  0  0  0  0  0  0
   38.7910   32.3140   43.8110 N   0  0  0  0  0  0  0  0  0  0  0  0
   39.9500   31.6980   43.6860 C   0  0  0  0  0  0  0  0  0  0  0  0
   40.4790   31.1560   44.7700 N   0  0  0  0  0  0  0  0  0  0  0  0
   40.3510   30.7550   46.8410 H   0  0  0  0  0  0  0  0  0  0  0  0
   37.1800   32.9230   45.0760 H   0  0  0  0  0  0  0  0  0  0  0  0
   40.4950   31.6070   42.7550 H   0  0  0  0  0  0  0  0  0  0  0  0
   35.1230   29.9230   47.1240 C   0  0  0  0  0  0  0  0  0  0  0  0
   34.4910   30.6550   47.9810 O   0  0  0  0  0  0  0  0  0  0  0  0
   36.5660   30.0550   47.0480 N   0  0  0  0  0  0  0  0  0  0  0  0
   37.1450   29.4780   46.4000 H   0  0  0  0  0  0  0  0  0  0  0  0
   34.4070   29.0670   46.3380 O   0  0  0  0  0  0  0  0  0  0  0  0
   33.0830   29.2280   45.9710 C   0  0  0  0  0  0  0  0  0  0  0  0
   32.7300   29.8280   44.8540 O   0  0  0  0  0  0  0  0  0  0  0  0
   32.1940   27.8330   47.8550 C   0  0  0  0  0  3  0  0  0  0  0  0
   31.9920   28.7030   46.8230 C   0  0  0  0  0  0  0  0  0  0  0  0
   30.6880   29.0870   46.5960 C   0  0  0  0  0  0  0  0  0  0  0  0
   30.4780   29.7830   45.7790 H   0  0  0  0  0  0  0  0  0  0  0  0
   29.6190   28.6570   47.3260 C   0  0  0  0  0  0  0  0  0  0  0  0
   29.8700   27.7700   48.3710 C   0  0  0  0  0  0  0  0  0  0  0  0
   31.1610   27.3590   48.6330 C   0  0  0  0  0  3  0  0  0  0  0  0
   28.6390   27.4650   48.9790 O   0  0  0  0  0  0  0  0  0  0  0  0
   27.7070   28.4510   48.5780 C   0  0  0  0  0  3  0  0  0  0  0  0
   26.6890   28.0660   48.4010 H   0  0  0  0  0  0  0  0  0  0  0  0
   28.2360   28.8700   47.3250 O   0  0  0  0  0  0  0  0  0  0  0  0
  1  6  2  0  0  0  0
  1  2  1  0  0  0  0
  2  3  2  0  0  0  0
  3  4  1  0  0  0  0
  3  8  1  0  0  0  0
  4  9  1  0  0  0  0
  5 10  1  0  0  0  0
  5  4  2  0  0  0  0
  6  5  1  0  0  0  0
  7  2  1  0  0  0  0
 11 12  1  0  0  0  0
 11 17  1  0  0  0  0
 12  1  1  0  0  0  0
 13 18  1  0  0  0  0
 13 12  2  0  0  0  0
 14 13  1  0  0  0  0
 15 14  2  0  0  0  0
 15 16  1  0  0  0  0
 16 11  2  0  0  0  0
 19 15  1  0  0  0  0
 20 21  2  0  0  0  0
 22 20  1  0  0  0  0
 22  6  1  0  0  0  0
 23 22  1  0  0  0  0
 24 20  1  0  0  0  0
 25 24  1  0  0  0  0
 25 28  1  0  0  0  0
 26 25  2  0  0  0  0
 27 33  1  0  0  0  0
 28 27  2  0  0  0  0
 29 28  1  0  0  0  0
 29 31  2  0  0  0  0
 30 29  1  0  0  0  0
 31 32  1  0  0  0  0
 32 33  2  0  0  0  0
 32 34  1  0  0  0  0
 35 34  1  0  0  0  0
 36 35  1  0  0  0  0
 37 31  1  0  0  0  0
 37 35  1  0  0  0  0
M  END
>  <minimizedAffinity>
-6.3560791

>  <minimizedRMSD>
1.73868048

$$$$
