
 OpenBabel03272505063D

 35 38  0  0  1  0  0  0  0  0999 V2000
   36.3670   29.1780   50.1840 C   0  0  0  0  0  0  0  0  0  0  0  0
   36.8070   29.4480   48.8890 C   0  0  0  0  0  0  0  0  0  0  0  0
   35.8850   30.0970   48.0520 C   0  0  0  0  0  0  0  0  0  0  0  0
   34.6690   30.4090   48.5420 N   0  0  0  0  0  0  0  0  0  0  0  0
   34.3000   30.1250   49.7970 C   0  0  0  0  0  0  0  0  0  0  0  0
   35.1520   29.5060   50.6260 N   0  0  0  0  0  0  0  0  0  0  0  0
   36.1040   30.4640   46.6850 N   0  0  0  0  0  0  0  0  0  0  0  0
   37.2840   31.1110   46.1990 C   0  0  0  0  0  0  0  0  0  0  0  0
   37.8730   30.5950   44.9470 C   0  0  0  0  0  0  0  0  0  0  0  0
   36.9130   30.1160   43.9110 C   0  0  0  0  0  0  0  0  0  0  0  0
   35.8490   29.2890   44.5800 C   0  0  0  0  0  0  0  0  0  0  0  0
   35.1870   30.2450   45.6020 C   0  0  1  0  0  0  0  0  0  0  0  0
   37.1370   28.6720   50.7780 H   0  0  0  0  0  0  0  0  0  0  0  0
   37.7520   29.2290   48.4450 H   0  0  0  0  0  0  0  0  0  0  0  0
   33.3330   30.3620   50.2200 H   0  0  0  0  0  0  0  0  0  0  0  0
   38.0480   31.0810   47.0090 H   0  0  0  0  0  0  0  0  0  0  0  0
   37.0150   32.2020   46.0930 H   0  0  0  0  0  0  0  0  0  0  0  0
   38.4820   31.4150   44.4850 H   0  0  0  0  0  0  0  0  0  0  0  0
   38.5920   29.7730   45.1670 H   0  0  0  0  0  0  0  0  0  0  0  0
   36.3820   31.0010   43.4740 H   0  0  0  0  0  0  0  0  0  0  0  0
   37.4780   29.5600   43.1400 H   0  0  0  0  0  0  0  0  0  0  0  0
   36.3910   28.5080   45.1720 H   0  0  0  0  0  0  0  0  0  0  0  0
   35.1070   28.8520   43.9060 H   0  0  0  0  0  0  0  0  0  0  0  0
   34.8510   31.1550   45.0800 H   0  0  0  0  0  0  0  0  0  0  0  0
   32.6960   30.0590   46.0920 C   0  0  0  0  0  3  0  0  0  0  0  0
   33.9500   29.4910   46.0150 C   0  0  0  0  0  0  0  0  0  0  0  0
   34.0220   28.1350   46.3490 C   0  0  0  0  0  0  0  0  0  0  0  0
   34.9930   27.6780   46.2940 H   0  0  0  0  0  0  0  0  0  0  0  0
   32.9460   27.3860   46.7330 C   0  0  0  0  0  0  0  0  0  0  0  0
   31.7070   27.9900   46.7980 C   0  0  0  0  0  0  0  0  0  0  0  0
   31.5910   29.3270   46.4760 C   0  0  0  0  0  3  0  0  0  0  0  0
   30.7830   27.0110   47.2130 O   0  0  0  0  0  0  0  0  0  0  0  0
   31.5600   26.0470   47.9310 C   0  0  0  0  0  3  0  0  0  0  0  0
   31.8130   26.5010   48.9280 H   0  0  0  0  0  0  0  0  0  0  0  0
   32.7360   26.0650   47.1080 O   0  0  0  0  0  0  0  0  0  0  0  0
  1  6  1  0  0  0  0
  1 13  1  0  0  0  0
  2  1  2  0  0  0  0
  3  4  2  0  0  0  0
  3  2  1  0  0  0  0
  4  5  1  0  0  0  0
  5 15  1  0  0  0  0
  5  6  2  0  0  0  0
  7  3  1  0  0  0  0
  8  7  1  0  0  0  0
  8 16  1  0  0  0  0
  9 19  1  0  0  0  0
  9  8  1  0  0  0  0
 10 11  1  0  0  0  0
 10  9  1  0  0  0  0
 11 22  1  0  0  0  0
 11 12  1  0  0  0  0
 12 24  1  6  0  0  0
 12 26  1  0  0  0  0
 12  7  1  0  0  0  0
 14  2  1  0  0  0  0
 17  8  1  0  0  0  0
 18  9  1  0  0  0  0
 20 10  1  0  0  0  0
 21 10  1  0  0  0  0
 23 11  1  0  0  0  0
 25 31  1  0  0  0  0
 26 25  2  0  0  0  0
 26 27  1  0  0  0  0
 27 29  2  0  0  0  0
 28 27  1  0  0  0  0
 29 30  1  0  0  0  0
 29 35  1  0  0  0  0
 30 32  1  0  0  0  0
 31 30  2  0  0  0  0
 32 33  1  0  0  0  0
 33 34  1  0  0  0  0
 35 33  1  0  0  0  0
M  END
>  <minimizedAffinity>
-4.38829088

>  <minimizedRMSD>
3.27934861

$$$$
