
     RDKit          3D

 37 40  0  0  0  0  0  0  0  0999 V2000
   37.3527   30.2843   50.5376 C   0  0  0  0  0  0  0  0  0  0  0  0
   36.7720   30.7208   49.3447 C   0  0  0  0  0  0  0  0  0  0  0  0
   35.4337   30.4074   49.1434 C   0  0  0  0  0  0  0  0  0  0  0  0
   34.7538   29.7005   50.0988 N   0  0  0  0  0  0  0  0  0  0  0  0
   35.3776   29.3070   51.2347 C   0  0  0  0  0  0  0  0  0  0  0  0
   36.6802   29.5893   51.4744 N   0  0  0  0  0  0  0  0  0  0  0  0
   37.5111   31.4525   48.3770 N   0  0  0  0  0  0  0  0  0  0  0  0
   37.2942   31.1672   46.9642 C   0  0  0  0  0  0  0  0  0  0  0  0
   38.2885   31.8132   46.0745 C   0  0  0  0  0  0  0  0  0  0  0  0
   39.4984   32.0835   46.8044 N   0  0  0  0  0  0  0  0  0  0  0  0
   39.1824   33.1398   47.7565 C   0  0  0  0  0  0  0  0  0  0  0  0
   38.4464   32.4503   48.8759 C   0  0  1  0  0  0  0  0  0  0  0  0
   38.3892   30.5077   50.7308 H   0  0  0  0  0  0  0  0  0  0  0  0
   34.9333   30.7185   48.2412 H   0  0  0  0  0  0  0  0  0  0  0  0
   34.8839   28.7461   52.0205 H   0  0  0  0  0  0  0  0  0  0  0  0
   37.3668   30.0633   46.8580 H   0  0  0  0  0  0  0  0  0  0  0  0
   36.2275   31.3909   46.6742 H   0  0  0  0  0  0  0  0  0  0  0  0
   38.5516   31.1173   45.2362 H   0  0  0  0  0  0  0  0  0  0  0  0
   37.9013   32.7199   45.5590 H   0  0  0  0  0  0  0  0  0  0  0  0
   40.2680   32.3534   46.1665 H   0  0  0  0  0  0  0  0  0  0  0  0
   40.1041   33.5835   48.1982 H   0  0  0  0  0  0  0  0  0  0  0  0
   38.5775   33.9042   47.2277 H   0  0  0  0  0  0  0  0  0  0  0  0
   39.2054   31.8838   49.4561 H   0  0  0  0  0  0  0  0  0  0  0  0
   38.4360   34.0649   50.8310 C   0  0  0  0  0  0  0  0  0  0  0  0
   37.7925   33.4256   49.7915 C   0  0  0  0  0  0  0  0  0  0  0  0
   36.4469   33.6797   49.5484 C   0  0  0  0  0  0  0  0  0  0  0  0
   35.8630   33.2283   48.7614 H   0  0  0  0  0  0  0  0  0  0  0  0
   35.8024   34.5754   50.3714 C   0  0  0  0  0  0  0  0  0  0  0  0
   36.4696   35.2145   51.4203 C   0  0  0  0  0  0  0  0  0  0  0  0
   37.8182   34.9635   51.6684 C   0  0  0  0  0  0  0  0  0  0  0  0
   35.5700   36.0662   52.0855 O   0  0  0  0  0  0  0  0  0  0  0  0
   34.4755   36.2540   51.2095 C   0  0  2  0  0  0  0  0  0  0  0  0
   34.6941   37.1670   50.6110 H   0  0  0  0  0  0  0  0  0  0  0  0
   34.4902   35.0692   50.4331 O   0  0  0  0  0  0  0  0  0  0  0  0
   39.4788   33.7959   50.9318 H   0  0  0  0  0  0  0  0  0  0  0  0
   38.3606   35.4283   52.4548 H   0  0  0  0  0  0  0  0  0  0  0  0
   33.5649   36.3690   51.8285 H   0  0  0  0  0  0  0  0  0  0  0  0
  1  6  2  0
  2  1  1  0
  3  2  2  0
  3  4  1  0
  4  5  2  0
  5  6  1  0
  7 12  1  0
  7  2  1  0
  8  7  1  0
  9 10  1  0
  9  8  1  0
 10 11  1  0
 11 12  1  0
  1 13  1  0
  3 14  1  0
  5 15  1  0
  8 16  1  0
  8 17  1  0
  9 18  1  0
  9 19  1  0
 10 20  1  0
 11 21  1  0
 11 22  1  0
 12 23  1  1
 24 25  2  0
 25 26  1  0
 26 27  1  0
 26 28  2  0
 28 29  1  0
 29 30  2  0
 29 31  1  0
 31 32  1  0
 32 33  1  6
 32 34  1  0
 30 24  1  0
 34 28  1  0
 24 35  1  0
 30 36  1  0
 32 37  1  0
 12 25  1  0
M  ISO  8  13  14  14  14  15  14  16  13  17  13  18  13  19  13  20   5
M  ISO  5  21  13  22  13  23  13  27  16  33   8
M  END
>  <DihAtoms>  (1) 
6,11,24,23

>  <DihDeg>  (1) 
134.99961581812374

$$$$
