
 OpenBabel03272507323D

 38 42  0  0  1  0  0  0  0  0999 V2000
   32.7790   27.9690   48.7120 C   0  0  0  0  0  0  0  0  0  0  0  0
   31.7170   27.7590   49.3770 O   0  0  0  0  0  0  0  0  0  0  0  0
   35.8970   29.3450   49.7900 C   0  0  0  0  0  0  0  0  0  0  0  0
   35.0620   30.0260   50.6470 C   0  0  0  0  0  0  0  0  0  0  0  0
   33.7490   29.6110   50.3710 C   0  0  0  0  0  0  0  0  0  0  0  0
   33.8760   28.6920   49.3490 C   0  0  0  0  0  0  0  0  0  0  0  0
   35.1510   28.5690   49.0430 O   0  0  0  0  0  0  0  0  0  0  0  0
   35.2700   30.7620   51.4240 H   0  0  0  0  0  0  0  0  0  0  0  0
   32.8210   29.9140   50.8260 H   0  0  0  0  0  0  0  0  0  0  0  0
   37.3390   29.5320   49.8030 C   0  0  0  0  0  0  0  0  0  0  0  0
   38.0390   28.7990   50.5150 O   0  0  0  0  0  0  0  0  0  0  0  0
   37.8690   30.5760   48.9710 C   0  0  0  0  0  0  0  0  0  0  0  0
   38.2140   31.7630   49.5920 C   0  0  0  0  0  0  0  0  0  0  0  0
   38.7300   32.8030   48.8090 C   0  0  0  0  0  0  0  0  0  0  0  0
   38.8670   32.5850   47.4600 N   0  0  0  0  0  0  0  0  0  0  0  0
   38.5240   31.4260   46.8950 C   0  0  0  0  0  0  0  0  0  0  0  0
   38.0280   30.4260   47.6390 N   0  0  0  0  0  0  0  0  0  0  0  0
   38.1130   31.9470   50.6430 H   0  0  0  0  0  0  0  0  0  0  0  0
   39.0030   33.7360   49.2900 H   0  0  0  0  0  0  0  0  0  0  0  0
   38.6270   31.2460   45.8340 H   0  0  0  0  0  0  0  0  0  0  0  0
   32.8960   27.4770   47.3150 C   0  0  1  0  0  0  0  0  0  0  0  0
   32.2000   26.0680   47.1510 C   0  0  0  0  0  0  0  0  0  0  0  0
   31.7360   27.2600   46.4460 C   0  0  1  0  0  0  0  0  0  0  0  0
   33.9570   27.3760   46.9860 H   0  0  0  0  0  0  0  0  0  0  0  0
   32.7780   25.3020   46.5970 H   0  0  0  0  0  0  0  0  0  0  0  0
   31.7170   25.6510   48.0400 H   0  0  0  0  0  0  0  0  0  0  0  0
   32.0300   27.3370   45.3470 H   0  0  0  0  0  0  0  0  0  0  0  0
   30.1720   29.1210   46.1950 C   0  0  0  0  0  3  0  0  0  0  0  0
   30.3980   27.8370   46.6930 C   0  0  0  0  0  0  0  0  0  0  0  0
   29.3280   27.2630   47.3440 C   0  0  0  0  0  0  0  0  0  0  0  0
   29.4820   26.2710   47.7240 H   0  0  0  0  0  0  0  0  0  0  0  0
   28.1290   27.9270   47.4840 C   0  0  0  0  0  0  0  0  0  0  0  0
   27.9130   29.1850   46.9940 C   0  0  0  0  0  0  0  0  0  0  0  0
   28.9570   29.7990   46.3340 C   0  0  0  0  0  3  0  0  0  0  0  0
   26.6180   29.5760   47.2910 O   0  0  0  0  0  0  0  0  0  0  0  0
   25.9330   28.4090   47.7110 C   0  0  0  0  0  3  0  0  0  0  0  0
   25.3210   28.6610   48.5790 H   0  0  0  0  0  0  0  0  0  0  0  0
   26.9530   27.4940   48.1090 O   0  0  0  0  0  0  0  0  0  0  0  0
  1  6  1  0  0  0  0
  1  2  2  0  0  0  0
  3 10  1  0  0  0  0
  3  4  2  0  0  0  0
  4  8  1  0  0  0  0
  5  4  1  0  0  0  0
  5  9  1  0  0  0  0
  6  5  2  0  0  0  0
  7  6  1  0  0  0  0
  7  3  1  0  0  0  0
 10 11  2  0  0  0  0
 12 13  1  0  0  0  0
 12 10  1  0  0  0  0
 13 18  1  0  0  0  0
 14 19  1  0  0  0  0
 14 13  2  0  0  0  0
 15 14  1  0  0  0  0
 16 15  2  0  0  0  0
 16 17  1  0  0  0  0
 17 12  2  0  0  0  0
 20 16  1  0  0  0  0
 21 24  1  6  0  0  0
 21  1  1  0  0  0  0
 22 21  1  0  0  0  0
 22 26  1  0  0  0  0
 23 27  1  6  0  0  0
 23 29  1  0  0  0  0
 23 22  1  0  0  0  0
 23 21  1  0  0  0  0
 25 22  1  0  0  0  0
 28 34  2  0  0  0  0
 28 29  1  0  0  0  0
 29 30  2  0  0  0  0
 30 32  1  0  0  0  0
 30 31  1  0  0  0  0
 32 38  1  0  0  0  0
 33 35  1  0  0  0  0
 33 32  2  0  0  0  0
 34 33  1  0  0  0  0
 35 36  1  0  0  0  0
 36 38  1  0  0  0  0
 36 37  1  0  0  0  0
M  END
>  <minimizedAffinity>
-5.76539469

>  <minimizedRMSD>
2.25256586

$$$$
