REMARK  Name = 
REMARK  1 active torsions:
REMARK  status: ('A' for Active; 'I' for Inactive)
REMARK    1  A    between atoms: C_12  and  C_26
REMARK                            x       y       z     vdW  Elec       q    Type
REMARK                         _______ _______ _______ _____ _____    ______ ____
ROOT
ATOM      1  C   UNL     1      37.078  29.799  51.618  0.00  0.00    +0.000 A 
ATOM      2  C   UNL     1      37.758  30.580  50.685  0.00  0.00    +0.000 A 
ATOM      3  C   UNL     1      37.078  30.827  49.482  0.00  0.00    +0.000 A 
ATOM      4  N   UNL     1      35.846  30.308  49.312  0.00  0.00    +0.000 NA
ATOM      5  C   UNL     1      35.240  29.563  50.245  0.00  0.00    +0.000 A 
ATOM      6  N   UNL     1      35.857  29.305  51.407  0.00  0.00    +0.000 NA
ATOM      7  N   UNL     1      37.576  31.587  48.375  0.00  0.00    +0.000 N 
ATOM      8  C   UNL     1      38.218  32.861  48.491  0.00  0.00    +0.000 C 
ATOM      9  C   UNL     1      39.446  33.075  47.699  0.00  0.00    +0.000 C 
ATOM     10  C   UNL     1      39.484  32.441  46.350  0.00  0.00    +0.000 C 
ATOM     11  C   UNL     1      38.954  31.037  46.458  0.00  0.00    +0.000 C 
ATOM     12  C   UNL     1      37.511  31.198  46.994  0.00  0.00    +0.000 C 
ATOM     13  H   UNL     1      37.668  29.648  52.530  0.00  0.00    +0.000 HD
ATOM     14  H   UNL     1      38.728  31.018  50.760  0.00  0.00    +0.000 HD
ATOM     15  H   UNL     1      34.253  29.133  50.140  0.00  0.00    +0.000 HD
ATOM     16  H   UNL     1      38.435  33.037  49.568  0.00  0.00    +0.000 HD
ATOM     17  H   UNL     1      37.433  33.626  48.223  0.00  0.00    +0.000 HD
ATOM     18  H   UNL     1      39.578  34.179  47.554  0.00  0.00    +0.000 HD
ATOM     19  H   UNL     1      40.340  32.737  48.272  0.00  0.00    +0.000 HD
ATOM     20  H   UNL     1      38.774  32.985  45.675  0.00  0.00    +0.000 HD
ATOM     21  H   UNL     1      40.522  32.488  45.970  0.00  0.00    +0.000 HD
ATOM     22  H   UNL     1      39.548  30.544  47.269  0.00  0.00    +0.000 HD
ATOM     23  H   UNL     1      38.971  30.461  45.528  0.00  0.00    +0.000 HD
ATOM     24  H   UNL     1      36.956  31.887  46.338  0.00  0.00    +0.000 HD
ENDROOT
BRANCH  12  26
ATOM     25  C   UNL     1      36.461  29.361  45.578  0.00  0.00    +0.000 A 
ATOM     26  C   UNL     1      36.923  29.826  46.792  0.00  0.00    +0.000 A 
ATOM     27  C   UNL     1      36.817  28.932  47.862  0.00  0.00    +0.000 A 
ATOM     28  H   UNL     1      37.173  29.280  48.815  0.00  0.00    +0.000 HD
ATOM     29  C   UNL     1      36.296  27.674  47.756  0.00  0.00    +0.000 A 
ATOM     30  C   UNL     1      35.844  27.245  46.525  0.00  0.00    +0.000 A 
ATOM     31  C   UNL     1      35.930  28.095  45.441  0.00  0.00    +0.000 A 
ATOM     32  O   UNL     1      35.363  25.931  46.688  0.00  0.00    +0.000 OA
ATOM     33  C   UNL     1      35.004  25.835  48.070  0.00  0.00    +0.000 C 
ATOM     34  H   UNL     1      34.043  26.404  48.204  0.00  0.00    +0.000 HD
ATOM     35  O   UNL     1      36.077  26.611  48.624  0.00  0.00    +0.000 OA
ENDBRANCH  12  26
TORSDOF 1
