REMARK  Name = 
REMARK  2 active torsions:
REMARK  status: ('A' for Active; 'I' for Inactive)
REMARK    1  A    between atoms: C_2  and  N_7
REMARK    2  A    between atoms: C_12  and  C_25
REMARK                            x       y       z     vdW  Elec       q    Type
REMARK                         _______ _______ _______ _____ _____    ______ ____
ROOT
ATOM      1  N   UNL     1      37.511  31.453  48.377  0.00  0.00    +0.000 N 
ATOM      2  C   UNL     1      37.294  31.167  46.964  0.00  0.00    +0.000 C 
ATOM      3  C   UNL     1      38.288  31.813  46.075  0.00  0.00    +0.000 C 
ATOM      4  N   UNL     1      39.498  32.084  46.804  0.00  0.00    +0.000 NA
ATOM      5  C   UNL     1      39.182  33.140  47.757  0.00  0.00    +0.000 C 
ATOM      6  C   UNL     1      38.446  32.450  48.876  0.00  0.00    +0.000 C 
ATOM      7  H   UNL     1      37.367  30.063  46.858  0.00  0.00    +0.000 HD
ATOM      8  H   UNL     1      36.227  31.391  46.674  0.00  0.00    +0.000 HD
ATOM      9  H   UNL     1      38.552  31.117  45.236  0.00  0.00    +0.000 HD
ATOM     10  H   UNL     1      37.901  32.720  45.559  0.00  0.00    +0.000 HD
ATOM     11  H   UNL     1      40.268  32.353  46.166  0.00  0.00    +0.000 HD
ATOM     12  H   UNL     1      40.104  33.584  48.198  0.00  0.00    +0.000 HD
ATOM     13  H   UNL     1      38.578  33.904  47.228  0.00  0.00    +0.000 HD
ATOM     14  H   UNL     1      39.205  31.884  49.456  0.00  0.00    +0.000 HD
ENDROOT
BRANCH   6  16
ATOM     15  C   UNL     1      38.448  34.473  50.404  0.00  0.00    +0.000 A 
ATOM     16  C   UNL     1      37.792  33.426  49.791  0.00  0.00    +0.000 A 
ATOM     17  C   UNL     1      36.434  33.232  50.016  0.00  0.00    +0.000 A 
ATOM     18  H   UNL     1      35.840  32.443  49.582  0.00  0.00    +0.000 HD
ATOM     19  C   UNL     1      35.789  34.111  50.856  0.00  0.00    +0.000 A 
ATOM     20  C   UNL     1      36.468  35.167  51.469  0.00  0.00    +0.000 A 
ATOM     21  C   UNL     1      37.830  35.366  51.248  0.00  0.00    +0.000 A 
ATOM     22  O   UNL     1      35.565  35.894  52.265  0.00  0.00    +0.000 OA
ATOM     23  C   UNL     1      34.269  35.533  51.829  0.00  0.00    +0.000 C 
ATOM     24  H   UNL     1      33.973  36.272  51.050  0.00  0.00    +0.000 HD
ATOM     25  O   UNL     1      34.465  34.231  51.308  0.00  0.00    +0.000 OA
ENDBRANCH   6  16
BRANCH   1  27
ATOM     26  C   UNL     1      37.353  30.284  50.538  0.00  0.00    +0.000 A 
ATOM     27  C   UNL     1      36.772  30.721  49.345  0.00  0.00    +0.000 A 
ATOM     28  C   UNL     1      35.434  30.407  49.143  0.00  0.00    +0.000 A 
ATOM     29  N   UNL     1      34.754  29.701  50.099  0.00  0.00    +0.000 NA
ATOM     30  C   UNL     1      35.378  29.307  51.235  0.00  0.00    +0.000 A 
ATOM     31  N   UNL     1      36.680  29.589  51.474  0.00  0.00    +0.000 NA
ATOM     32  H   UNL     1      38.389  30.508  50.731  0.00  0.00    +0.000 HD
ATOM     33  H   UNL     1      34.933  30.718  48.241  0.00  0.00    +0.000 HD
ATOM     34  H   UNL     1      34.884  28.746  52.020  0.00  0.00    +0.000 HD
ENDBRANCH   1  27
TORSDOF 2
