
 OpenBabel03272510263D

 47 52  0  0  1  0  0  0  0  0999 V2000
   38.9720   30.6030   39.7430 N   0  0  0  0  0  0  0  0  0  0  0  0
   37.9070   30.8840   38.8240 C   0  0  1  0  0  0  0  0  0  0  0  0
   37.2130   32.1140   39.1850 C   0  0  0  0  0  0  0  0  0  0  0  0
   36.6220   31.9500   40.4450 O   0  0  0  0  0  0  0  0  0  0  0  0
   37.4840   31.5520   41.4410 C   0  0  0  0  0  0  0  0  0  0  0  0
   38.3560   30.4030   41.0380 C   0  0  1  0  0  0  0  0  0  0  0  0
   39.8330   31.0910   39.7030 H   0  0  0  0  0  0  0  0  0  0  0  0
   37.2180   30.0290   38.8260 H   0  0  0  0  0  0  0  0  0  0  0  0
   36.3230   32.2050   38.4900 H   0  0  0  0  0  0  0  0  0  0  0  0
   37.6550   33.0720   39.2330 H   0  0  0  0  0  0  0  0  0  0  0  0
   38.0950   32.4290   41.8040 H   0  0  0  0  0  0  0  0  0  0  0  0
   36.8840   31.2580   42.3210 H   0  0  0  0  0  0  0  0  0  0  0  0
   39.2210   30.4130   41.7650 H   0  0  0  0  0  0  0  0  0  0  0  0
   37.9560   27.9040   40.4760 C   0  0  0  0  0  3  0  0  0  0  0  0
   37.7390   29.0800   41.1620 C   0  0  0  0  0  0  0  0  0  0  0  0
   36.7670   29.0780   42.1710 C   0  0  0  0  0  0  0  0  0  0  0  0
   36.4810   29.9290   42.8020 H   0  0  0  0  0  0  0  0  0  0  0  0
   36.0430   27.9220   42.4690 C   0  0  0  0  0  0  0  0  0  0  0  0
   36.3250   26.7950   41.7340 C   0  0  0  0  0  0  0  0  0  0  0  0
   37.2640   26.7490   40.7420 C   0  0  0  0  0  3  0  0  0  0  0  0
   35.4930   25.7700   42.1970 O   0  0  0  0  0  0  0  0  0  0  0  0
   34.5600   26.3380   43.0820 C   0  0  0  0  0  3  0  0  0  0  0  0
   34.4220   25.7290   44.0020 H   0  0  0  0  0  0  0  0  0  0  0  0
   35.0400   27.6160   43.3910 O   0  0  0  0  0  0  0  0  0  0  0  0
   38.4920   30.9950   37.5320 O   0  0  0  0  0  0  0  0  0  0  0  0
   44.3870   30.7810   37.4000 C   0  0  0  0  0  0  0  0  0  0  0  0
   44.1370   29.4290   37.2050 C   0  0  0  0  0  0  0  0  0  0  0  0
   42.8310   28.9430   37.1570 C   0  0  0  0  0  0  0  0  0  0  0  0
   41.8170   29.8810   37.3140 C   0  0  0  0  0  0  0  0  0  0  0  0
   40.4610   29.6420   37.3010 N   0  0  0  0  0  0  0  0  0  0  0  0
   39.8800   30.8430   37.4880 C   0  0  0  0  0  0  0  0  0  0  0  0
   40.8020   31.7810   37.6110 N   0  0  0  0  0  0  0  0  0  0  0  0
   42.0210   31.2230   37.5080 C   0  0  0  0  0  0  0  0  0  0  0  0
   43.3440   31.6820   37.5510 C   0  0  0  0  0  0  0  0  0  0  0  0
   45.3960   31.1780   37.4410 H   0  0  0  0  0  0  0  0  0  0  0  0
   42.6130   27.8940   37.0070 H   0  0  0  0  0  0  0  0  0  0  0  0
   39.9950   28.7080   37.1720 H   0  0  0  0  0  0  0  0  0  0  0  0
   43.5140   32.7390   37.7040 H   0  0  0  0  0  0  0  0  0  0  0  0
   46.3970   26.4440   36.8510 C   0  0  0  0  0  0  0  0  0  0  0  0
   45.2080   27.1590   37.0050 C   0  0  0  0  0  0  0  0  0  0  0  0
   45.2640   28.5320   37.0510 C   0  0  0  0  0  0  0  0  0  0  0  0
   46.5070   29.1210   36.9370 N   0  0  0  0  0  0  0  0  0  0  0  0
   47.6420   28.4070   36.7860 C   0  0  0  0  0  0  0  0  0  0  0  0
   47.5840   27.0910   36.7450 N   0  0  0  0  0  0  0  0  0  0  0  0
   46.3090   25.3690   36.8210 H   0  0  0  0  0  0  0  0  0  0  0  0
   44.2360   26.7060   37.0950 H   0  0  0  0  0  0  0  0  0  0  0  0
   48.5440   28.9860   36.7110 H   0  0  0  0  0  0  0  0  0  0  0  0
  1  6  1  0  0  0  0
  2  8  1  1  0  0  0
  2  3  1  0  0  0  0
  2  1  1  0  0  0  0
  3 10  1  0  0  0  0
  3  4  1  0  0  0  0
  4  5  1  0  0  0  0
  5 11  1  0  0  0  0
  5 12  1  0  0  0  0
  6 15  1  0  0  0  0
  6  5  1  0  0  0  0
  6 13  1  1  0  0  0
  7  1  1  0  0  0  0
  9  3  1  0  0  0  0
 14 20  2  0  0  0  0
 14 15  1  0  0  0  0
 15 16  2  0  0  0  0
 16 18  1  0  0  0  0
 16 17  1  0  0  0  0
 18 24  1  0  0  0  0
 19 21  1  0  0  0  0
 19 18  2  0  0  0  0
 20 19  1  0  0  0  0
 21 22  1  0  0  0  0
 22 24  1  0  0  0  0
 22 23  1  0  0  0  0
 25  2  1  0  0  0  0
 26 35  1  0  0  0  0
 26 34  1  0  0  0  0
 27 26  2  0  0  0  0
 28 27  1  0  0  0  0
 28 29  2  0  0  0  0
 29 33  1  0  0  0  0
 30 29  1  0  0  0  0
 30 31  1  0  0  0  0
 31 25  1  0  0  0  0
 31 32  2  0  0  0  0
 33 34  2  0  0  0  0
 33 32  1  0  0  0  0
 34 38  1  0  0  0  0
 36 28  1  0  0  0  0
 37 30  1  0  0  0  0
 39 40  1  0  0  0  0
 40 41  2  0  0  0  0
 40 46  1  0  0  0  0
 41 27  1  0  0  0  0
 42 41  1  0  0  0  0
 43 42  2  0  0  0  0
 44 43  1  0  0  0  0
 44 39  2  0  0  0  0
 45 39  1  0  0  0  0
 47 43  1  0  0  0  0
M  END
>  <minimizedAffinity>
-2.12366676

>  <minimizedRMSD>
10.6199427

$$$$
