
 OpenBabel03272508303D

 34 37  0  0  1  0  0  0  0  0999 V2000
   37.2210   31.6780   48.7800 N   0  0  0  0  0  0  0  0  0  0  0  0
   37.2450   31.3990   47.3490 C   0  0  0  0  0  0  0  0  0  0  0  0
   38.3080   32.1370   46.6250 C   0  0  0  0  0  0  0  0  0  0  0  0
   39.3670   32.4900   47.5330 N   0  0  0  0  0  0  0  0  0  0  0  0
   38.8250   33.5010   48.4310 C   0  0  0  0  0  0  0  0  0  0  0  0
   37.9850   32.7370   49.4210 C   0  0  1  0  0  0  0  0  0  0  0  0
   37.4230   30.3060   47.2500 H   0  0  0  0  0  0  0  0  0  0  0  0
   36.2210   31.5430   46.9000 H   0  0  0  0  0  0  0  0  0  0  0  0
   38.7520   31.4780   45.8340 H   0  0  0  0  0  0  0  0  0  0  0  0
   37.9320   33.0190   46.0600 H   0  0  0  0  0  0  0  0  0  0  0  0
   40.2010   32.8300   47.0210 H   0  0  0  0  0  0  0  0  0  0  0  0
   39.6310   34.0090   49.0100 H   0  0  0  0  0  0  0  0  0  0  0  0
   38.2490   34.2240   47.8190 H   0  0  0  0  0  0  0  0  0  0  0  0
   38.6900   32.2230   50.1070 H   0  0  0  0  0  0  0  0  0  0  0  0
   37.2630   33.8360   51.5890 C   0  0  0  0  0  3  0  0  0  0  0  0
   37.1230   33.6420   50.2290 C   0  0  0  0  0  0  0  0  0  0  0  0
   36.1260   34.3160   49.5320 C   0  0  0  0  0  0  0  0  0  0  0  0
   35.9430   34.2280   48.4720 H   0  0  0  0  0  0  0  0  0  0  0  0
   35.3060   35.1630   50.2410 C   0  0  0  0  0  0  0  0  0  0  0  0
   35.4600   35.3480   51.6180 C   0  0  0  0  0  0  0  0  0  0  0  0
   36.4580   34.6750   52.3220 C   0  0  0  0  0  3  0  0  0  0  0  0
   34.4920   36.2600   52.0710 O   0  0  0  0  0  0  0  0  0  0  0  0
   34.0110   36.9340   50.9240 C   0  0  0  0  0  3  0  0  0  0  0  0
   34.6300   37.8520   50.8040 H   0  0  0  0  0  0  0  0  0  0  0  0
   34.2240   35.9870   49.8930 O   0  0  0  0  0  0  0  0  0  0  0  0
   36.9210   30.2200   50.7410 C   0  0  0  0  0  0  0  0  0  0  0  0
   36.4040   30.8730   49.6200 C   0  0  0  0  0  0  0  0  0  0  0  0
   35.0510   30.7010   49.3570 C   0  0  0  0  0  0  0  0  0  0  0  0
   34.2960   29.9190   50.1900 N   0  0  0  0  0  0  0  0  0  0  0  0
   34.8600   29.3140   51.2620 C   0  0  0  0  0  0  0  0  0  0  0  0
   36.1740   29.4520   51.5560 N   0  0  0  0  0  0  0  0  0  0  0  0
   37.9670   30.3300   50.9780 H   0  0  0  0  0  0  0  0  0  0  0  0
   34.5970   31.1800   48.5060 H   0  0  0  0  0  0  0  0  0  0  0  0
   34.3060   28.6850   51.9500 H   0  0  0  0  0  0  0  0  0  0  0  0
  1  6  1  0  0  0  0
  1 27  1  0  0  0  0
  2  1  1  0  0  0  0
  3  2  1  0  0  0  0
  3  4  1  0  0  0  0
  4  5  1  0  0  0  0
  5 12  1  0  0  0  0
  5  6  1  0  0  0  0
  6 14  1  1  0  0  0
  6 16  1  0  0  0  0
  7  2  1  0  0  0  0
  8  2  1  0  0  0  0
  9  3  1  0  0  0  0
 10  3  1  0  0  0  0
 11  4  1  0  0  0  0
 13  5  1  0  0  0  0
 15 21  1  0  0  0  0
 16 15  2  0  0  0  0
 17 16  1  0  0  0  0
 17 19  2  0  0  0  0
 18 17  1  0  0  0  0
 19 20  1  0  0  0  0
 20 22  1  0  0  0  0
 20 21  2  0  0  0  0
 23 22  1  0  0  0  0
 24 23  1  0  0  0  0
 25 19  1  0  0  0  0
 25 23  1  0  0  0  0
 26 32  1  0  0  0  0
 26 31  1  0  0  0  0
 27 26  2  0  0  0  0
 28 27  1  0  0  0  0
 28 29  2  0  0  0  0
 29 30  1  0  0  0  0
 30 31  2  0  0  0  0
 30 34  1  0  0  0  0
 33 28  1  0  0  0  0
M  END
>  <minimizedAffinity>
8.33228588

>  <minimizedRMSD>
0.793042421

$$$$
