
 OpenBabel03262523313D

 35 39  0  0  0  0  0  0  0  0999 V2000
   38.1710   27.8570   31.6050 C   0  0  0  0  0  0  0  0  0  0  0  0
   38.6570   26.8960   32.4850 C   0  0  0  0  0  0  0  0  0  0  0  0
   37.9380   26.6730   33.6630 C   0  0  0  0  0  0  0  0  0  0  0  0
   36.7940   27.3940   33.9250 N   0  0  0  0  0  0  0  0  0  0  0  0
   36.3730   28.3240   33.0170 C   0  0  0  0  0  0  0  0  0  0  0  0
   37.0540   28.5480   31.8770 N   0  0  0  0  0  0  0  0  0  0  0  0
   38.7320   28.0180   30.6970 H   0  0  0  0  0  0  0  0  0  0  0  0
   39.5490   26.3210   32.2980 H   0  0  0  0  0  0  0  0  0  0  0  0
   39.3180   24.7760   34.2930 C   0  0  0  0  0  0  0  0  0  0  0  0
   38.3380   25.6900   34.6660 C   0  0  0  0  0  0  0  0  0  0  0  0
   37.8040   25.6330   35.9300 C   0  0  0  0  0  0  0  0  0  0  0  0
   38.2600   24.6590   36.8010 C   0  0  0  0  0  0  0  0  0  0  0  0
   37.8840   24.4110   38.0850 N   0  0  0  0  0  0  0  0  0  0  0  0
   38.6070   23.3690   38.5130 C   0  0  0  0  0  0  0  0  0  0  0  0
   39.4320   22.9460   37.5380 N   0  0  0  0  0  0  0  0  0  0  0  0
   39.2390   23.7310   36.4580 C   0  0  0  0  0  0  0  0  0  0  0  0
   39.7720   23.7980   35.1760 C   0  0  0  0  0  0  0  0  0  0  0  0
   39.7850   24.7540   33.3310 H   0  0  0  0  0  0  0  0  0  0  0  0
   37.0340   26.3470   36.2280 H   0  0  0  0  0  0  0  0  0  0  0  0
   37.1610   24.9190   38.6760 H   0  0  0  0  0  0  0  0  0  0  0  0
   38.5160   22.9500   39.5100 H   0  0  0  0  0  0  0  0  0  0  0  0
   40.5440   23.0740   34.8950 H   0  0  0  0  0  0  0  0  0  0  0  0
   35.1460   29.0390   33.3520 C   0  0  0  0  0  0  0  0  0  0  0  0
   34.1030   28.8790   32.6330 O   0  0  0  0  0  0  0  0  0  0  0  0
   35.9720   30.6970   35.0740 C   0  0  0  0  0  3  0  0  0  0  0  0
   34.9420   29.9830   34.4800 C   0  0  0  0  0  0  0  0  0  0  0  0
   33.6460   30.1960   34.9400 C   0  0  0  0  0  0  0  0  0  0  0  0
   32.7960   29.6480   34.4980 H   0  0  0  0  0  0  0  0  0  0  0  0
   33.3860   31.0890   35.9530 C   0  0  0  0  0  0  0  0  0  0  0  0
   34.4150   31.8040   36.5470 C   0  0  0  0  0  0  0  0  0  0  0  0
   35.6960   31.5960   36.0990 C   0  0  0  0  0  3  0  0  0  0  0  0
   33.8100   32.6210   37.5410 O   0  0  0  0  0  0  0  0  0  0  0  0
   32.4700   32.8430   37.0910 C   0  0  0  0  0  3  0  0  0  0  0  0
   31.7650   33.0530   37.9020 H   0  0  0  0  0  0  0  0  0  0  0  0
   32.1960   31.5110   36.6140 O   0  0  0  0  0  0  0  0  0  0  0  0
  1  6  2  0  0  0  0
  1  2  1  0  0  0  0
  2  3  2  0  0  0  0
  3  4  1  0  0  0  0
  3 10  1  0  0  0  0
  5 23  1  0  0  0  0
  5  4  2  0  0  0  0
  6  5  1  0  0  0  0
  7  1  1  0  0  0  0
  8  2  1  0  0  0  0
  9 10  2  0  0  0  0
  9 17  1  0  0  0  0
 10 11  1  0  0  0  0
 11 19  1  0  0  0  0
 11 12  2  0  0  0  0
 12 13  1  0  0  0  0
 13 14  1  0  0  0  0
 13 20  1  0  0  0  0
 14 21  1  0  0  0  0
 15 14  2  0  0  0  0
 16 12  1  0  0  0  0
 16 15  1  0  0  0  0
 17 16  2  0  0  0  0
 18  9  1  0  0  0  0
 22 17  1  0  0  0  0
 23 26  1  0  0  0  0
 24 23  2  0  0  0  0
 25 31  1  0  0  0  0
 26 27  1  0  0  0  0
 26 25  2  0  0  0  0
 27 29  2  0  0  0  0
 28 27  1  0  0  0  0
 29 30  1  0  0  0  0
 29 35  1  0  0  0  0
 30 32  1  0  0  0  0
 31 30  2  0  0  0  0
 33 32  1  0  0  0  0
 33 34  1  0  0  0  0
 35 33  1  0  0  0  0
M  END
>  <minimizedAffinity>
-6.63452291

$$$$

 OpenBabel03262523313D

 35 39  0  0  0  0  0  0  0  0999 V2000
   36.1650   28.1970   31.2220 C   0  0  0  0  0  0  0  0  0  0  0  0
   35.4150   29.0260   32.0500 C   0  0  0  0  0  0  0  0  0  0  0  0
   35.7120   29.0170   33.4160 C   0  0  0  0  0  0  0  0  0  0  0  0
   36.7140   28.2080   33.9040 N   0  0  0  0  0  0  0  0  0  0  0  0
   37.4120   27.4190   33.0350 C   0  0  0  0  0  0  0  0  0  0  0  0
   37.1390   27.4170   31.7170 N   0  0  0  0  0  0  0  0  0  0  0  0
   35.9300   28.2140   30.1690 H   0  0  0  0  0  0  0  0  0  0  0  0
   34.6290   29.6660   31.6880 H   0  0  0  0  0  0  0  0  0  0  0  0
   33.6400   29.6030   34.5420 C   0  0  0  0  0  0  0  0  0  0  0  0
   35.0020   29.8430   34.3900 C   0  0  0  0  0  0  0  0  0  0  0  0
   35.6070   30.8180   35.1440 C   0  0  0  0  0  0  0  0  0  0  0  0
   34.8370   31.5400   36.0400 C   0  0  0  0  0  0  0  0  0  0  0  0
   35.2100   32.5400   36.8820 N   0  0  0  0  0  0  0  0  0  0  0  0
   34.1150   32.9230   37.5500 C   0  0  0  0  0  0  0  0  0  0  0  0
   33.0550   32.1950   37.1560 N   0  0  0  0  0  0  0  0  0  0  0  0
   33.4730   31.3230   36.2150 C   0  0  0  0  0  0  0  0  0  0  0  0
   32.8720   30.3330   35.4460 C   0  0  0  0  0  0  0  0  0  0  0  0
   33.0950   28.8630   33.9950 H   0  0  0  0  0  0  0  0  0  0  0  0
   36.6750   31.0110   35.0280 H   0  0  0  0  0  0  0  0  0  0  0  0
   36.1730   32.9690   37.0190 H   0  0  0  0  0  0  0  0  0  0  0  0
   34.1180   33.7120   38.2950 H   0  0  0  0  0  0  0  0  0  0  0  0
   31.8000   30.1540   35.5760 H   0  0  0  0  0  0  0  0  0  0  0  0
   38.4700   26.5990   33.6180 C   0  0  0  0  0  0  0  0  0  0  0  0
   39.6880   26.8160   33.3020 O   0  0  0  0  0  0  0  0  0  0  0  0
   38.2700   24.1480   34.2090 C   0  0  0  0  0  3  0  0  0  0  0  0
   38.3040   25.4830   34.5840 C   0  0  0  0  0  0  0  0  0  0  0  0
   38.2190   25.7860   35.9390 C   0  0  0  0  0  0  0  0  0  0  0  0
   38.2400   26.8350   36.2820 H   0  0  0  0  0  0  0  0  0  0  0  0
   38.1070   24.7950   36.8860 C   0  0  0  0  0  0  0  0  0  0  0  0
   38.0730   23.4600   36.5130 C   0  0  0  0  0  0  0  0  0  0  0  0
   38.1540   23.1550   35.1770 C   0  0  0  0  0  3  0  0  0  0  0  0
   37.9530   22.7140   37.7170 O   0  0  0  0  0  0  0  0  0  0  0  0
   38.5420   23.5280   38.7340 C   0  0  0  0  0  3  0  0  0  0  0  0
   38.1510   23.3280   39.7370 H   0  0  0  0  0  0  0  0  0  0  0  0
   38.0090   24.7980   38.3080 O   0  0  0  0  0  0  0  0  0  0  0  0
  1  6  2  0  0  0  0
  1  2  1  0  0  0  0
  2  3  2  0  0  0  0
  3  4  1  0  0  0  0
  3 10  1  0  0  0  0
  5 23  1  0  0  0  0
  5  4  2  0  0  0  0
  6  5  1  0  0  0  0
  7  1  1  0  0  0  0
  8  2  1  0  0  0  0
  9 17  1  0  0  0  0
 10  9  2  0  0  0  0
 10 11  1  0  0  0  0
 11 12  2  0  0  0  0
 12 16  1  0  0  0  0
 12 13  1  0  0  0  0
 13 20  1  0  0  0  0
 13 14  1  0  0  0  0
 14 21  1  0  0  0  0
 15 14  2  0  0  0  0
 16 15  1  0  0  0  0
 17 22  1  0  0  0  0
 17 16  2  0  0  0  0
 18  9  1  0  0  0  0
 19 11  1  0  0  0  0
 23 26  1  0  0  0  0
 24 23  2  0  0  0  0
 25 26  2  0  0  0  0
 25 31  1  0  0  0  0
 26 27  1  0  0  0  0
 27 28  1  0  0  0  0
 27 29  2  0  0  0  0
 29 35  1  0  0  0  0
 30 29  1  0  0  0  0
 30 32  1  0  0  0  0
 31 30  2  0  0  0  0
 32 33  1  0  0  0  0
 33 34  1  0  0  0  0
 35 33  1  0  0  0  0
M  END
>  <minimizedAffinity>
-6.44529963

$$$$

 OpenBabel03262523313D

 35 39  0  0  0  0  0  0  0  0999 V2000
   37.6980   27.2080   34.3960 C   0  0  0  0  0  0  0  0  0  0  0  0
   38.6930   26.4870   35.0480 C   0  0  0  0  0  0  0  0  0  0  0  0
   38.9250   25.1750   34.6260 C   0  0  0  0  0  0  0  0  0  0  0  0
   38.1830   24.6340   33.6000 N   0  0  0  0  0  0  0  0  0  0  0  0
   37.2210   25.3980   33.0020 C   0  0  0  0  0  0  0  0  0  0  0  0
   36.9870   26.6640   33.3970 N   0  0  0  0  0  0  0  0  0  0  0  0
   37.5300   28.2210   34.7270 H   0  0  0  0  0  0  0  0  0  0  0  0
   39.2840   26.8930   35.8520 H   0  0  0  0  0  0  0  0  0  0  0  0
   41.2560   24.5160   34.8140 C   0  0  0  0  0  0  0  0  0  0  0  0
   39.9420   24.3140   35.2250 C   0  0  0  0  0  0  0  0  0  0  0  0
   39.6630   23.3410   36.1530 C   0  0  0  0  0  0  0  0  0  0  0  0
   40.7070   22.5840   36.6560 C   0  0  0  0  0  0  0  0  0  0  0  0
   40.6760   21.5790   37.5730 N   0  0  0  0  0  0  0  0  0  0  0  0
   41.9350   21.1560   37.7380 C   0  0  0  0  0  0  0  0  0  0  0  0
   42.7670   21.8630   36.9530 N   0  0  0  0  0  0  0  0  0  0  0  0
   42.0310   22.7620   36.2670 C   0  0  0  0  0  0  0  0  0  0  0  0
   42.3010   23.7500   35.3250 C   0  0  0  0  0  0  0  0  0  0  0  0
   41.5560   25.2510   34.0980 H   0  0  0  0  0  0  0  0  0  0  0  0
   38.6340   23.1780   36.4790 H   0  0  0  0  0  0  0  0  0  0  0  0
   39.8370   21.1730   38.0840 H   0  0  0  0  0  0  0  0  0  0  0  0
   42.2090   20.3550   38.4150 H   0  0  0  0  0  0  0  0  0  0  0  0
   43.3390   23.8990   35.0120 H   0  0  0  0  0  0  0  0  0  0  0  0
   36.4840   24.7670   31.9120 C   0  0  0  0  0  0  0  0  0  0  0  0
   35.7670   25.4810   31.1340 O   0  0  0  0  0  0  0  0  0  0  0  0
   37.4850   22.6710   30.9090 C   0  0  0  0  0  3  0  0  0  0  0  0
   36.4560   23.3210   31.5740 C   0  0  0  0  0  0  0  0  0  0  0  0
   35.3590   22.5660   31.9800 C   0  0  0  0  0  0  0  0  0  0  0  0
   34.5160   23.0420   32.5100 H   0  0  0  0  0  0  0  0  0  0  0  0
   35.2920   21.2150   31.7350 C   0  0  0  0  0  0  0  0  0  0  0  0
   36.3210   20.5650   31.0710 C   0  0  0  0  0  0  0  0  0  0  0  0
   37.4040   21.3040   30.6660 C   0  0  0  0  0  3  0  0  0  0  0  0
   35.9380   19.1990   30.9850 O   0  0  0  0  0  0  0  0  0  0  0  0
   35.0680   18.9720   32.0970 C   0  0  0  0  0  3  0  0  0  0  0  0
   34.3580   18.1540   31.9400 H   0  0  0  0  0  0  0  0  0  0  0  0
   34.3270   20.2070   32.0260 O   0  0  0  0  0  0  0  0  0  0  0  0
  1  7  1  0  0  0  0
  1  2  1  0  0  0  0
  2  8  1  0  0  0  0
  3  2  2  0  0  0  0
  3 10  1  0  0  0  0
  4  3  1  0  0  0  0
  5  6  1  0  0  0  0
  5  4  2  0  0  0  0
  6  1  2  0  0  0  0
  9 10  2  0  0  0  0
  9 17  1  0  0  0  0
 10 11  1  0  0  0  0
 11 19  1  0  0  0  0
 11 12  2  0  0  0  0
 12 13  1  0  0  0  0
 13 14  1  0  0  0  0
 13 20  1  0  0  0  0
 14 21  1  0  0  0  0
 15 14  2  0  0  0  0
 16 12  1  0  0  0  0
 16 15  1  0  0  0  0
 17 16  2  0  0  0  0
 18  9  1  0  0  0  0
 22 17  1  0  0  0  0
 23  5  1  0  0  0  0
 24 23  2  0  0  0  0
 25 26  1  0  0  0  0
 26 23  1  0  0  0  0
 26 27  2  0  0  0  0
 27 28  1  0  0  0  0
 29 27  1  0  0  0  0
 29 35  1  0  0  0  0
 30 29  2  0  0  0  0
 31 25  2  0  0  0  0
 31 30  1  0  0  0  0
 32 30  1  0  0  0  0
 32 33  1  0  0  0  0
 34 33  1  0  0  0  0
 35 33  1  0  0  0  0
M  END
>  <minimizedAffinity>
-6.4029398

$$$$

 OpenBabel03262523313D

 35 39  0  0  0  0  0  0  0  0999 V2000
   35.8980   26.0760   31.3580 C   0  0  0  0  0  0  0  0  0  0  0  0
   35.7290   24.7320   31.0420 C   0  0  0  0  0  0  0  0  0  0  0  0
   36.3690   23.7900   31.8520 C   0  0  0  0  0  0  0  0  0  0  0  0
   37.1370   24.2000   32.9190 N   0  0  0  0  0  0  0  0  0  0  0  0
   37.2610   25.5370   33.1730 C   0  0  0  0  0  0  0  0  0  0  0  0
   36.6500   26.4560   32.4020 N   0  0  0  0  0  0  0  0  0  0  0  0
   35.3960   26.7950   30.7270 H   0  0  0  0  0  0  0  0  0  0  0  0
   35.1310   24.3920   30.2130 H   0  0  0  0  0  0  0  0  0  0  0  0
   35.1490   21.7120   32.1550 C   0  0  0  0  0  0  0  0  0  0  0  0
   36.2680   22.3500   31.6310 C   0  0  0  0  0  0  0  0  0  0  0  0
   37.2060   21.6190   30.9440 C   0  0  0  0  0  0  0  0  0  0  0  0
   37.0070   20.2580   30.7930 C   0  0  0  0  0  0  0  0  0  0  0  0
   37.7880   19.3410   30.1600 N   0  0  0  0  0  0  0  0  0  0  0  0
   37.1790   18.1550   30.2790 C   0  0  0  0  0  0  0  0  0  0  0  0
   36.0340   18.2900   30.9700 N   0  0  0  0  0  0  0  0  0  0  0  0
   35.8980   19.5910   31.3040 C   0  0  0  0  0  0  0  0  0  0  0  0
   34.9560   20.3410   31.9990 C   0  0  0  0  0  0  0  0  0  0  0  0
   34.3740   22.2080   32.7010 H   0  0  0  0  0  0  0  0  0  0  0  0
   38.0870   22.1150   30.5320 H   0  0  0  0  0  0  0  0  0  0  0  0
   38.7110   19.4900   29.6550 H   0  0  0  0  0  0  0  0  0  0  0  0
   37.5810   17.2360   29.8660 H   0  0  0  0  0  0  0  0  0  0  0  0
   34.0790   19.8270   32.4050 H   0  0  0  0  0  0  0  0  0  0  0  0
   38.0780   25.8990   34.3280 C   0  0  0  0  0  0  0  0  0  0  0  0
   38.4320   27.1140   34.4970 O   0  0  0  0  0  0  0  0  0  0  0  0
   37.8480   24.6550   36.5180 C   0  0  0  0  0  3  0  0  0  0  0  0
   38.5790   24.9870   35.3880 C   0  0  0  0  0  0  0  0  0  0  0  0
   39.8300   24.4000   35.2200 C   0  0  0  0  0  0  0  0  0  0  0  0
   40.4470   24.6370   34.3360 H   0  0  0  0  0  0  0  0  0  0  0  0
   40.3320   23.5150   36.1440 C   0  0  0  0  0  0  0  0  0  0  0  0
   39.6010   23.1820   37.2750 C   0  0  0  0  0  0  0  0  0  0  0  0
   38.3690   23.7590   37.4470 C   0  0  0  0  0  3  0  0  0  0  0  0
   40.3990   22.2590   38.0060 O   0  0  0  0  0  0  0  0  0  0  0  0
   41.2250   21.6120   37.0350 C   0  0  0  0  0  3  0  0  0  0  0  0
   42.1640   21.2270   37.4450 H   0  0  0  0  0  0  0  0  0  0  0  0
   41.5450   22.7710   36.2390 O   0  0  0  0  0  0  0  0  0  0  0  0
  1  6  1  0  0  0  0
  2  1  2  0  0  0  0
  2  3  1  0  0  0  0
  3  4  2  0  0  0  0
  4  5  1  0  0  0  0
  5 23  1  0  0  0  0
  6  5  2  0  0  0  0
  7  1  1  0  0  0  0
  8  2  1  0  0  0  0
  9 18  1  0  0  0  0
 10  3  1  0  0  0  0
 10  9  2  0  0  0  0
 11 10  1  0  0  0  0
 12 11  2  0  0  0  0
 12 16  1  0  0  0  0
 13 14  1  0  0  0  0
 13 12  1  0  0  0  0
 14 15  2  0  0  0  0
 15 16  1  0  0  0  0
 16 17  2  0  0  0  0
 17  9  1  0  0  0  0
 17 22  1  0  0  0  0
 19 11  1  0  0  0  0
 20 13  1  0  0  0  0
 21 14  1  0  0  0  0
 23 24  2  0  0  0  0
 23 26  1  0  0  0  0
 25 31  1  0  0  0  0
 26 25  2  0  0  0  0
 27 26  1  0  0  0  0
 27 29  2  0  0  0  0
 28 27  1  0  0  0  0
 29 35  1  0  0  0  0
 29 30  1  0  0  0  0
 30 31  2  0  0  0  0
 30 32  1  0  0  0  0
 33 34  1  0  0  0  0
 33 32  1  0  0  0  0
 35 33  1  0  0  0  0
M  END
>  <minimizedAffinity>
-6.38897467

$$$$

 OpenBabel03262523313D

 35 39  0  0  0  0  0  0  0  0999 V2000
   40.7140   25.9970   34.7300 C   0  0  0  0  0  0  0  0  0  0  0  0
   39.7610   26.8820   34.2360 C   0  0  0  0  0  0  0  0  0  0  0  0
   38.4230   26.4770   34.2690 C   0  0  0  0  0  0  0  0  0  0  0  0
   38.0840   25.2430   34.7750 N   0  0  0  0  0  0  0  0  0  0  0  0
   39.0710   24.4230   35.2440 C   0  0  0  0  0  0  0  0  0  0  0  0
   40.3630   24.7990   35.2200 N   0  0  0  0  0  0  0  0  0  0  0  0
   41.7440   26.3210   34.7030 H   0  0  0  0  0  0  0  0  0  0  0  0
   40.0070   27.8510   33.8370 H   0  0  0  0  0  0  0  0  0  0  0  0
   36.9900   27.1900   32.4410 C   0  0  0  0  0  0  0  0  0  0  0  0
   37.3270   27.3130   33.7850 C   0  0  0  0  0  0  0  0  0  0  0  0
   36.6320   28.1900   34.5810 C   0  0  0  0  0  0  0  0  0  0  0  0
   35.6080   28.9310   34.0170 C   0  0  0  0  0  0  0  0  0  0  0  0
   34.7910   29.8500   34.6000 N   0  0  0  0  0  0  0  0  0  0  0  0
   33.9590   30.2950   33.6510 C   0  0  0  0  0  0  0  0  0  0  0  0
   34.2230   29.6870   32.4810 N   0  0  0  0  0  0  0  0  0  0  0  0
   35.2470   28.8300   32.6770 C   0  0  0  0  0  0  0  0  0  0  0  0
   35.9580   27.9400   31.8810 C   0  0  0  0  0  0  0  0  0  0  0  0
   37.4800   26.5310   31.7560 H   0  0  0  0  0  0  0  0  0  0  0  0
   36.8930   28.2910   35.6370 H   0  0  0  0  0  0  0  0  0  0  0  0
   34.7790   30.1820   35.6100 H   0  0  0  0  0  0  0  0  0  0  0  0
   33.1930   31.0410   33.8340 H   0  0  0  0  0  0  0  0  0  0  0  0
   35.6820   27.8510   30.8250 H   0  0  0  0  0  0  0  0  0  0  0  0
   38.6370   23.1360   35.7800 C   0  0  0  0  0  0  0  0  0  0  0  0
   39.1250   22.7110   36.8800 O   0  0  0  0  0  0  0  0  0  0  0  0
   36.6400   21.5880   35.8990 C   0  0  0  0  0  3  0  0  0  0  0  0
   37.6500   22.2050   35.1760 C   0  0  0  0  0  0  0  0  0  0  0  0
   37.7140   21.9690   33.8060 C   0  0  0  0  0  0  0  0  0  0  0  0
   38.5020   22.4380   33.1920 H   0  0  0  0  0  0  0  0  0  0  0  0
   36.8030   21.1510   33.1800 C   0  0  0  0  0  0  0  0  0  0  0  0
   35.7930   20.5350   33.9020 C   0  0  0  0  0  0  0  0  0  0  0  0
   35.7260   20.7610   35.2540 C   0  0  0  0  0  3  0  0  0  0  0  0
   35.0420   19.7730   32.9650 O   0  0  0  0  0  0  0  0  0  0  0  0
   35.2120   20.4340   31.7080 C   0  0  0  0  0  3  0  0  0  0  0  0
   35.0920   19.7730   30.8450 H   0  0  0  0  0  0  0  0  0  0  0  0
   36.6170   20.7360   31.8290 O   0  0  0  0  0  0  0  0  0  0  0  0
  1  6  1  0  0  0  0
  2  3  1  0  0  0  0
  2  1  2  0  0  0  0
  3  4  2  0  0  0  0
  4  5  1  0  0  0  0
  5 23  1  0  0  0  0
  6  5  2  0  0  0  0
  7  1  1  0  0  0  0
  8  2  1  0  0  0  0
  9 10  1  0  0  0  0
 10  3  1  0  0  0  0
 10 11  2  0  0  0  0
 11 19  1  0  0  0  0
 12 11  1  0  0  0  0
 12 13  1  0  0  0  0
 13 20  1  0  0  0  0
 14 21  1  0  0  0  0
 14 13  1  0  0  0  0
 15 16  1  0  0  0  0
 15 14  2  0  0  0  0
 16 12  2  0  0  0  0
 17  9  2  0  0  0  0
 17 16  1  0  0  0  0
 18  9  1  0  0  0  0
 22 17  1  0  0  0  0
 23 24  2  0  0  0  0
 26 23  1  0  0  0  0
 26 25  2  0  0  0  0
 27 26  1  0  0  0  0
 28 27  1  0  0  0  0
 29 27  2  0  0  0  0
 29 30  1  0  0  0  0
 30 31  2  0  0  0  0
 31 25  1  0  0  0  0
 32 30  1  0  0  0  0
 33 35  1  0  0  0  0
 33 32  1  0  0  0  0
 34 33  1  0  0  0  0
 35 29  1  0  0  0  0
M  END
>  <minimizedAffinity>
-6.19832563

$$$$

 OpenBabel03262523313D

 35 39  0  0  0  0  0  0  0  0999 V2000
   37.2540   28.1040   31.7710 C   0  0  0  0  0  0  0  0  0  0  0  0
   37.8270   27.0660   32.4990 C   0  0  0  0  0  0  0  0  0  0  0  0
   37.4740   26.9480   33.8460 C   0  0  0  0  0  0  0  0  0  0  0  0
   36.5910   27.8390   34.4130 N   0  0  0  0  0  0  0  0  0  0  0  0
   36.0650   28.8360   33.6410 C   0  0  0  0  0  0  0  0  0  0  0  0
   36.3950   28.9620   32.3420 N   0  0  0  0  0  0  0  0  0  0  0  0
   37.5310   28.1840   30.7310 H   0  0  0  0  0  0  0  0  0  0  0  0
   38.5180   26.3590   32.0730 H   0  0  0  0  0  0  0  0  0  0  0  0
   38.9230   25.0230   34.1580 C   0  0  0  0  0  0  0  0  0  0  0  0
   37.9990   25.9000   34.7170 C   0  0  0  0  0  0  0  0  0  0  0  0
   37.6320   25.7500   36.0320 C   0  0  0  0  0  0  0  0  0  0  0  0
   38.1960   24.7210   36.7670 C   0  0  0  0  0  0  0  0  0  0  0  0
   37.9890   24.3810   38.0680 N   0  0  0  0  0  0  0  0  0  0  0  0
   38.7610   23.3180   38.3250 C   0  0  0  0  0  0  0  0  0  0  0  0
   39.4540   22.9720   37.2250 N   0  0  0  0  0  0  0  0  0  0  0  0
   39.1230   23.8290   36.2360 C   0  0  0  0  0  0  0  0  0  0  0  0
   39.4870   23.9910   34.9040 C   0  0  0  0  0  0  0  0  0  0  0  0
   39.2620   25.0730   33.1450 H   0  0  0  0  0  0  0  0  0  0  0  0
   36.9060   26.4340   36.4760 H   0  0  0  0  0  0  0  0  0  0  0  0
   37.3480   24.8390   38.7800 H   0  0  0  0  0  0  0  0  0  0  0  0
   38.7990   22.8300   39.2930 H   0  0  0  0  0  0  0  0  0  0  0  0
   40.2160   23.2950   34.4760 H   0  0  0  0  0  0  0  0  0  0  0  0
   35.1250   29.7350   34.3030 C   0  0  0  0  0  0  0  0  0  0  0  0
   35.5630   30.7360   34.9630 O   0  0  0  0  0  0  0  0  0  0  0  0
   32.9000   29.2370   33.2070 C   0  0  0  0  0  3  0  0  0  0  0  0
   33.6430   29.6280   34.3100 C   0  0  0  0  0  0  0  0  0  0  0  0
   32.9660   29.8950   35.4970 C   0  0  0  0  0  0  0  0  0  0  0  0
   33.5180   30.2110   36.3990 H   0  0  0  0  0  0  0  0  0  0  0  0
   31.5990   29.7730   35.5810 C   0  0  0  0  0  0  0  0  0  0  0  0
   30.8550   29.3810   34.4780 C   0  0  0  0  0  0  0  0  0  0  0  0
   31.5170   29.1200   33.3050 C   0  0  0  0  0  3  0  0  0  0  0  0
   29.4980   29.3580   34.9020 O   0  0  0  0  0  0  0  0  0  0  0  0
   29.5400   29.1110   36.3110 C   0  0  0  0  0  3  0  0  0  0  0  0
   28.6670   29.4940   36.8490 H   0  0  0  0  0  0  0  0  0  0  0  0
   30.6550   29.9670   36.6310 O   0  0  0  0  0  0  0  0  0  0  0  0
  1  6  2  0  0  0  0
  1  2  1  0  0  0  0
  2  3  2  0  0  0  0
  3  4  1  0  0  0  0
  3 10  1  0  0  0  0
  5 23  1  0  0  0  0
  5  4  2  0  0  0  0
  6  5  1  0  0  0  0
  7  1  1  0  0  0  0
  8  2  1  0  0  0  0
  9 10  2  0  0  0  0
  9 17  1  0  0  0  0
 10 11  1  0  0  0  0
 11 19  1  0  0  0  0
 11 12  2  0  0  0  0
 12 13  1  0  0  0  0
 13 14  1  0  0  0  0
 13 20  1  0  0  0  0
 14 21  1  0  0  0  0
 15 14  2  0  0  0  0
 16 12  1  0  0  0  0
 16 15  1  0  0  0  0
 17 16  2  0  0  0  0
 18  9  1  0  0  0  0
 22 17  1  0  0  0  0
 23 26  1  0  0  0  0
 23 24  2  0  0  0  0
 25 31  2  0  0  0  0
 25 26  1  0  0  0  0
 26 27  2  0  0  0  0
 27 29  1  0  0  0  0
 27 28  1  0  0  0  0
 29 35  1  0  0  0  0
 30 32  1  0  0  0  0
 30 29  2  0  0  0  0
 31 30  1  0  0  0  0
 32 33  1  0  0  0  0
 33 35  1  0  0  0  0
 33 34  1  0  0  0  0
M  END
>  <minimizedAffinity>
-6.17018127

$$$$

 OpenBabel03262523313D

 35 39  0  0  0  0  0  0  0  0999 V2000
   38.4850   23.3030   37.0420 C   0  0  0  0  0  0  0  0  0  0  0  0
   37.9890   22.3410   36.1690 C   0  0  0  0  0  0  0  0  0  0  0  0
   37.8030   22.7110   34.8340 C   0  0  0  0  0  0  0  0  0  0  0  0
   38.1060   23.9890   34.4190 N   0  0  0  0  0  0  0  0  0  0  0  0
   38.5900   24.8850   35.3300 C   0  0  0  0  0  0  0  0  0  0  0  0
   38.7750   24.5430   36.6190 N   0  0  0  0  0  0  0  0  0  0  0  0
   38.6280   23.0050   38.0690 H   0  0  0  0  0  0  0  0  0  0  0  0
   37.7470   21.3360   36.4740 H   0  0  0  0  0  0  0  0  0  0  0  0
   36.1460   21.0770   34.1370 C   0  0  0  0  0  0  0  0  0  0  0  0
   37.2940   21.7950   33.8170 C   0  0  0  0  0  0  0  0  0  0  0  0
   37.8830   21.6180   32.5890 C   0  0  0  0  0  0  0  0  0  0  0  0
   37.3130   20.7230   31.7000 C   0  0  0  0  0  0  0  0  0  0  0  0
   37.7130   20.3870   30.4440 N   0  0  0  0  0  0  0  0  0  0  0  0
   36.8420   19.4820   29.9820 C   0  0  0  0  0  0  0  0  0  0  0  0
   35.8990   19.2320   30.9080 N   0  0  0  0  0  0  0  0  0  0  0  0
   36.1650   19.9920   31.9910 C   0  0  0  0  0  0  0  0  0  0  0  0
   35.5770   20.1780   33.2370 C   0  0  0  0  0  0  0  0  0  0  0  0
   35.6270   21.1570   35.0690 H   0  0  0  0  0  0  0  0  0  0  0  0
   38.7850   22.1780   32.3330 H   0  0  0  0  0  0  0  0  0  0  0  0
   38.5490   20.7460   29.8950 H   0  0  0  0  0  0  0  0  0  0  0  0
   36.9160   19.0340   28.9960 H   0  0  0  0  0  0  0  0  0  0  0  0
   34.6740   19.6090   33.4760 H   0  0  0  0  0  0  0  0  0  0  0  0
   38.9040   26.2160   34.8180 C   0  0  0  0  0  0  0  0  0  0  0  0
   40.0220   26.7580   35.1070 O   0  0  0  0  0  0  0  0  0  0  0  0
   38.1880   27.1630   32.5850 C   0  0  0  0  0  3  0  0  0  0  0  0
   38.0410   27.0680   33.9600 C   0  0  0  0  0  0  0  0  0  0  0  0
   37.0040   27.7770   34.5610 C   0  0  0  0  0  0  0  0  0  0  0  0
   36.8520   27.7320   35.6530 H   0  0  0  0  0  0  0  0  0  0  0  0
   36.1450   28.5500   33.8160 C   0  0  0  0  0  0  0  0  0  0  0  0
   36.2910   28.6450   32.4400 C   0  0  0  0  0  0  0  0  0  0  0  0
   37.3120   27.9510   31.8440 C   0  0  0  0  0  3  0  0  0  0  0  0
   35.2560   29.5100   31.9900 O   0  0  0  0  0  0  0  0  0  0  0  0
   34.2040   29.3830   32.9510 C   0  0  0  0  0  3  0  0  0  0  0  0
   33.5570   30.2650   33.0120 H   0  0  0  0  0  0  0  0  0  0  0  0
   35.0200   29.3630   34.1390 O   0  0  0  0  0  0  0  0  0  0  0  0
  1  7  1  0  0  0  0
  2  8  1  0  0  0  0
  2  1  2  0  0  0  0
  3  2  1  0  0  0  0
  4  3  2  0  0  0  0
  4  5  1  0  0  0  0
  5  6  2  0  0  0  0
  6  1  1  0  0  0  0
  9 18  1  0  0  0  0
 10  9  1  0  0  0  0
 10  3  1  0  0  0  0
 11 10  2  0  0  0  0
 12 16  2  0  0  0  0
 12 11  1  0  0  0  0
 13 12  1  0  0  0  0
 14 13  1  0  0  0  0
 14 15  2  0  0  0  0
 15 16  1  0  0  0  0
 16 17  1  0  0  0  0
 17 22  1  0  0  0  0
 17  9  2  0  0  0  0
 19 11  1  0  0  0  0
 20 13  1  0  0  0  0
 21 14  1  0  0  0  0
 23 24  2  0  0  0  0
 23  5  1  0  0  0  0
 25 26  1  0  0  0  0
 26 27  2  0  0  0  0
 26 23  1  0  0  0  0
 27 28  1  0  0  0  0
 29 35  1  0  0  0  0
 29 27  1  0  0  0  0
 30 29  2  0  0  0  0
 31 30  1  0  0  0  0
 31 25  2  0  0  0  0
 32 30  1  0  0  0  0
 32 33  1  0  0  0  0
 33 34  1  0  0  0  0
 33 35  1  0  0  0  0
M  END
>  <minimizedAffinity>
-6.13358259

$$$$

 OpenBabel03262523313D

 35 39  0  0  0  0  0  0  0  0999 V2000
   35.8920   29.5380   31.5560 C   0  0  0  0  0  0  0  0  0  0  0  0
   36.7000   28.5510   32.1120 C   0  0  0  0  0  0  0  0  0  0  0  0
   36.4360   28.1630   33.4280 C   0  0  0  0  0  0  0  0  0  0  0  0
   35.4100   28.7510   34.1330 N   0  0  0  0  0  0  0  0  0  0  0  0
   34.6550   29.7150   33.5270 C   0  0  0  0  0  0  0  0  0  0  0  0
   34.8960   30.0990   32.2590 N   0  0  0  0  0  0  0  0  0  0  0  0
   36.1020   29.8270   30.5380 H   0  0  0  0  0  0  0  0  0  0  0  0
   37.5060   28.0780   31.5760 H   0  0  0  0  0  0  0  0  0  0  0  0
   37.7690   27.4940   35.3460 C   0  0  0  0  0  0  0  0  0  0  0  0
   37.2060   27.1360   34.1250 C   0  0  0  0  0  0  0  0  0  0  0  0
   37.3910   25.8650   33.6400 C   0  0  0  0  0  0  0  0  0  0  0  0
   38.1390   24.9710   34.3860 C   0  0  0  0  0  0  0  0  0  0  0  0
   38.4530   23.6750   34.1130 N   0  0  0  0  0  0  0  0  0  0  0  0
   39.1930   23.2250   35.1330 C   0  0  0  0  0  0  0  0  0  0  0  0
   39.3600   24.1970   36.0480 N   0  0  0  0  0  0  0  0  0  0  0  0
   38.7140   25.2980   35.6110 C   0  0  0  0  0  0  0  0  0  0  0  0
   38.5200   26.5880   36.0920 C   0  0  0  0  0  0  0  0  0  0  0  0
   37.6710   28.4610   35.7930 H   0  0  0  0  0  0  0  0  0  0  0  0
   36.9530   25.5790   32.6820 H   0  0  0  0  0  0  0  0  0  0  0  0
   38.1850   23.0910   33.2660 H   0  0  0  0  0  0  0  0  0  0  0  0
   39.5870   22.2150   35.1830 H   0  0  0  0  0  0  0  0  0  0  0  0
   38.9670   26.8560   37.0540 H   0  0  0  0  0  0  0  0  0  0  0  0
   33.5750   30.2840   34.3270 C   0  0  0  0  0  0  0  0  0  0  0  0
   32.3720   29.9030   34.1310 O   0  0  0  0  0  0  0  0  0  0  0  0
   34.9020   31.6270   36.0110 C   0  0  0  0  0  3  0  0  0  0  0  0
   33.7010   31.3080   35.3960 C   0  0  0  0  0  0  0  0  0  0  0  0
   32.5620   32.0140   35.7740 C   0  0  0  0  0  0  0  0  0  0  0  0
   31.5850   31.7920   35.3120 H   0  0  0  0  0  0  0  0  0  0  0  0
   32.6210   33.0040   36.7270 C   0  0  0  0  0  0  0  0  0  0  0  0
   33.8220   33.3240   37.3420 C   0  0  0  0  0  0  0  0  0  0  0  0
   34.9460   32.6290   36.9750 C   0  0  0  0  0  3  0  0  0  0  0  0
   33.5320   34.3700   38.2600 O   0  0  0  0  0  0  0  0  0  0  0  0
   32.3870   35.0420   37.7280 C   0  0  0  0  0  3  0  0  0  0  0  0
   31.7840   35.5500   38.4870 H   0  0  0  0  0  0  0  0  0  0  0  0
   31.6520   33.8780   37.3010 O   0  0  0  0  0  0  0  0  0  0  0  0
  1  2  2  0  0  0  0
  1  6  1  0  0  0  0
  2  3  1  0  0  0  0
  3 10  1  0  0  0  0
  3  4  2  0  0  0  0
  5  4  1  0  0  0  0
  5 23  1  0  0  0  0
  6  5  2  0  0  0  0
  7  1  1  0  0  0  0
  8  2  1  0  0  0  0
  9 18  1  0  0  0  0
  9 17  1  0  0  0  0
 10  9  2  0  0  0  0
 11 10  1  0  0  0  0
 11 12  2  0  0  0  0
 12 16  1  0  0  0  0
 13 12  1  0  0  0  0
 13 14  1  0  0  0  0
 14 21  1  0  0  0  0
 14 15  2  0  0  0  0
 16 15  1  0  0  0  0
 16 17  2  0  0  0  0
 17 22  1  0  0  0  0
 19 11  1  0  0  0  0
 20 13  1  0  0  0  0
 23 26  1  0  0  0  0
 24 23  2  0  0  0  0
 25 31  1  0  0  0  0
 26 27  1  0  0  0  0
 26 25  2  0  0  0  0
 27 29  2  0  0  0  0
 28 27  1  0  0  0  0
 29 35  1  0  0  0  0
 29 30  1  0  0  0  0
 30 32  1  0  0  0  0
 31 30  2  0  0  0  0
 33 32  1  0  0  0  0
 33 34  1  0  0  0  0
 35 33  1  0  0  0  0
M  END
>  <minimizedAffinity>
-6.12658119

$$$$

 OpenBabel03262523313D

 35 39  0  0  0  0  0  0  0  0999 V2000
   36.9170   27.2350   30.6760 C   0  0  0  0  0  0  0  0  0  0  0  0
   37.4640   26.3500   31.6000 C   0  0  0  0  0  0  0  0  0  0  0  0
   37.1990   26.5800   32.9530 C   0  0  0  0  0  0  0  0  0  0  0  0
   36.4230   27.6510   33.3360 N   0  0  0  0  0  0  0  0  0  0  0  0
   35.9170   28.4810   32.3760 C   0  0  0  0  0  0  0  0  0  0  0  0
   36.1620   28.2720   31.0690 N   0  0  0  0  0  0  0  0  0  0  0  0
   37.1240   27.0450   29.6340 H   0  0  0  0  0  0  0  0  0  0  0  0
   38.0710   25.5060   31.3200 H   0  0  0  0  0  0  0  0  0  0  0  0
   37.6770   26.2440   35.3110 C   0  0  0  0  0  0  0  0  0  0  0  0
   37.7090   25.7240   34.0210 C   0  0  0  0  0  0  0  0  0  0  0  0
   38.2050   24.4610   33.8110 C   0  0  0  0  0  0  0  0  0  0  0  0
   38.6610   23.7370   34.8990 C   0  0  0  0  0  0  0  0  0  0  0  0
   39.1870   22.4820   34.9360 N   0  0  0  0  0  0  0  0  0  0  0  0
   39.4790   22.2150   36.2140 C   0  0  0  0  0  0  0  0  0  0  0  0
   39.1540   23.2630   36.9920 N   0  0  0  0  0  0  0  0  0  0  0  0
   38.6410   24.2280   36.2010 C   0  0  0  0  0  0  0  0  0  0  0  0
   38.1370   25.5080   36.4010 C   0  0  0  0  0  0  0  0  0  0  0  0
   37.3070   27.2160   35.5590 H   0  0  0  0  0  0  0  0  0  0  0  0
   38.2340   24.0490   32.8010 H   0  0  0  0  0  0  0  0  0  0  0  0
   39.3540   21.8080   34.1320 H   0  0  0  0  0  0  0  0  0  0  0  0
   39.9150   21.2770   36.5420 H   0  0  0  0  0  0  0  0  0  0  0  0
   38.1160   25.9050   37.4210 H   0  0  0  0  0  0  0  0  0  0  0  0
   35.0920   29.5870   32.8530 C   0  0  0  0  0  0  0  0  0  0  0  0
   33.8570   29.6410   32.5320 O   0  0  0  0  0  0  0  0  0  0  0  0
   35.5850   30.6580   35.0910 C   0  0  0  0  0  3  0  0  0  0  0  0
   35.5270   30.7220   33.7070 C   0  0  0  0  0  0  0  0  0  0  0  0
   35.9380   31.8980   33.0860 C   0  0  0  0  0  0  0  0  0  0  0  0
   35.9060   31.9940   31.9870 H   0  0  0  0  0  0  0  0  0  0  0  0
   36.3920   32.9700   33.8190 C   0  0  0  0  0  0  0  0  0  0  0  0
   36.4500   32.9070   35.2030 C   0  0  0  0  0  0  0  0  0  0  0  0
   36.0440   31.7510   35.8200 C   0  0  0  0  0  3  0  0  0  0  0  0
   36.9560   34.1630   35.6370 O   0  0  0  0  0  0  0  0  0  0  0  0
   37.7470   34.6540   34.5520 C   0  0  0  0  0  3  0  0  0  0  0  0
   37.8310   35.7460   34.5300 H   0  0  0  0  0  0  0  0  0  0  0  0
   36.8710   34.2680   33.4740 O   0  0  0  0  0  0  0  0  0  0  0  0
  1  6  2  0  0  0  0
  1  2  1  0  0  0  0
  2  3  2  0  0  0  0
  3  4  1  0  0  0  0
  3 10  1  0  0  0  0
  5 23  1  0  0  0  0
  5  4  2  0  0  0  0
  6  5  1  0  0  0  0
  7  1  1  0  0  0  0
  8  2  1  0  0  0  0
  9 18  1  0  0  0  0
  9 17  1  0  0  0  0
 10  9  2  0  0  0  0
 11 10  1  0  0  0  0
 11 12  2  0  0  0  0
 12 13  1  0  0  0  0
 12 16  1  0  0  0  0
 13 14  1  0  0  0  0
 14 21  1  0  0  0  0
 14 15  2  0  0  0  0
 16 17  2  0  0  0  0
 16 15  1  0  0  0  0
 17 22  1  0  0  0  0
 19 11  1  0  0  0  0
 20 13  1  0  0  0  0
 23 26  1  0  0  0  0
 24 23  2  0  0  0  0
 25 31  1  0  0  0  0
 26 25  2  0  0  0  0
 27 26  1  0  0  0  0
 27 29  2  0  0  0  0
 28 27  1  0  0  0  0
 29 30  1  0  0  0  0
 30 32  1  0  0  0  0
 30 31  2  0  0  0  0
 33 32  1  0  0  0  0
 34 33  1  0  0  0  0
 35 29  1  0  0  0  0
 35 33  1  0  0  0  0
M  END
>  <minimizedAffinity>
-6.05556154

$$$$
