
 OpenBabel03272507123D

 42 47  0  0  0  0  0  0  0  0999 V2000
   35.9640   29.1220   49.8300 C   0  0  0  0  0  0  0  0  0  0  0  0
   34.9390   29.6550   50.5600 C   0  0  0  0  0  0  0  0  0  0  0  0
   33.7590   29.0990   50.0570 C   0  0  0  0  0  0  0  0  0  0  0  0
   34.1530   28.2380   49.0200 C   0  0  0  0  0  0  0  0  0  0  0  0
   35.4460   28.3060   48.9500 O   0  0  0  0  0  0  0  0  0  0  0  0
   35.0010   30.3760   51.3830 H   0  0  0  0  0  0  0  0  0  0  0  0
   32.7940   29.3510   50.4550 H   0  0  0  0  0  0  0  0  0  0  0  0
   33.5640   26.5330   47.3140 C   0  0  0  0  0  0  0  0  0  0  0  0
   33.1860   27.4770   48.2550 C   0  0  0  0  0  0  0  0  0  0  0  0
   31.8600   27.7280   48.5010 C   0  0  0  0  0  0  0  0  0  0  0  0
   30.8990   27.0200   47.7910 C   0  0  0  0  0  0  0  0  0  0  0  0
   29.5600   27.0580   47.8270 N   0  0  0  0  0  0  0  0  0  0  0  0
   29.1120   26.1690   46.9380 N   0  0  0  0  0  0  0  0  0  0  0  0
   30.1590   25.5700   46.3440 C   0  0  0  0  0  0  0  0  0  0  0  0
   31.3330   26.0900   46.8650 C   0  0  0  0  0  0  0  0  0  0  0  0
   32.6540   25.8190   46.5980 C   0  0  0  0  0  0  0  0  0  0  0  0
   34.6280   26.3460   47.1300 H   0  0  0  0  0  0  0  0  0  0  0  0
   31.4680   28.4580   49.2270 H   0  0  0  0  0  0  0  0  0  0  0  0
   28.9410   27.6690   48.4350 H   0  0  0  0  0  0  0  0  0  0  0  0
   30.1530   24.7920   45.5680 H   0  0  0  0  0  0  0  0  0  0  0  0
   32.9810   25.0920   45.8740 H   0  0  0  0  0  0  0  0  0  0  0  0
   37.3460   29.4770   50.0810 C   0  0  0  0  0  0  0  0  0  0  0  0
   38.0070   28.7960   50.9120 O   0  0  0  0  0  0  0  0  0  0  0  0
   37.8900   30.6020   49.3560 C   0  0  0  0  0  0  0  0  0  0  0  0
   38.2570   31.7210   50.0990 C   0  0  0  0  0  0  0  0  0  0  0  0
   38.7860   32.8230   49.4250 C   0  0  0  0  0  0  0  0  0  0  0  0
   38.9060   32.7250   48.0730 N   0  0  0  0  0  0  0  0  0  0  0  0
   38.5480   31.6460   47.3870 C   0  0  0  0  0  0  0  0  0  0  0  0
   38.0400   30.5880   48.0350 N   0  0  0  0  0  0  0  0  0  0  0  0
   38.1300   31.7160   51.1700 H   0  0  0  0  0  0  0  0  0  0  0  0
   39.0620   33.6770   50.0280 H   0  0  0  0  0  0  0  0  0  0  0  0
   37.8280   32.2790   45.1130 C   0  0  0  0  0  3  0  0  0  0  0  0
   38.6980   31.5920   45.9370 C   0  0  0  0  0  0  0  0  0  0  0  0
   39.6950   30.8660   45.3370 C   0  0  0  0  0  0  0  0  0  0  0  0
   40.3990   30.3140   45.9370 H   0  0  0  0  0  0  0  0  0  0  0  0
   39.8230   30.8260   43.9520 C   0  0  0  0  0  0  0  0  0  0  0  0
   38.9550   31.5130   43.1280 C   0  0  0  0  0  0  0  0  0  0  0  0
   37.9540   32.2390   43.7390 C   0  0  0  0  0  3  0  0  0  0  0  0
   39.3360   31.2790   41.8010 O   0  0  0  0  0  0  0  0  0  0  0  0
   40.6230   30.6860   41.8480 C   0  0  0  0  0  3  0  0  0  0  0  0
   41.4130   31.4640   41.7340 H   0  0  0  0  0  0  0  0  0  0  0  0
   40.7520   30.1590   43.1690 O   0  0  0  0  0  0  0  0  0  0  0  0
  1 22  1  0  0  0  0
  1  2  2  0  0  0  0
  2  6  1  0  0  0  0
  3  7  1  0  0  0  0
  3  2  1  0  0  0  0
  4  3  2  0  0  0  0
  5  4  1  0  0  0  0
  5  1  1  0  0  0  0
  8  9  1  0  0  0  0
  9 10  2  0  0  0  0
  9  4  1  0  0  0  0
 10 18  1  0  0  0  0
 11 12  1  0  0  0  0
 11 10  1  0  0  0  0
 12 19  1  0  0  0  0
 13 12  1  0  0  0  0
 14 15  1  0  0  0  0
 14 13  2  0  0  0  0
 15 11  2  0  0  0  0
 16 15  1  0  0  0  0
 16  8  2  0  0  0  0
 17  8  1  0  0  0  0
 20 14  1  0  0  0  0
 21 16  1  0  0  0  0
 22 23  2  0  0  0  0
 24 22  1  0  0  0  0
 24 25  1  0  0  0  0
 25 30  1  0  0  0  0
 26 31  1  0  0  0  0
 26 25  2  0  0  0  0
 27 26  1  0  0  0  0
 28 29  1  0  0  0  0
 28 27  2  0  0  0  0
 29 24  2  0  0  0  0
 32 33  1  0  0  0  0
 33 28  1  0  0  0  0
 34 33  2  0  0  0  0
 34 35  1  0  0  0  0
 36 34  1  0  0  0  0
 37 38  1  0  0  0  0
 37 36  2  0  0  0  0
 38 32  2  0  0  0  0
 39 40  1  0  0  0  0
 39 37  1  0  0  0  0
 40 42  1  0  0  0  0
 41 40  1  0  0  0  0
 42 36  1  0  0  0  0
M  END
>  <minimizedAffinity>
-7.5000205

>  <minimizedRMSD>
0.395698518

$$$$
