
     RDKit          3D

 49 53  0  0  0  0  0  0  0  0999 V2000
   37.2372   29.2331   50.5697 C   0  0  0  0  0  0  0  0  0  0  0  0
   37.4009   30.5984   50.8959 C   0  0  0  0  0  0  0  0  0  0  0  0
   36.6797   31.5184   50.1412 C   0  0  0  0  0  0  0  0  0  0  0  0
   35.8736   31.0506   49.1504 N   0  0  0  0  0  0  0  0  0  0  0  0
   35.7518   29.7559   48.8801 C   0  0  0  0  0  0  0  0  0  0  0  0
   36.4296   28.8417   49.5846 N   0  0  0  0  0  0  0  0  0  0  0  0
   34.8959   29.3325   47.8322 N   0  0  0  0  0  0  0  0  0  0  0  0
   34.2458   28.0353   47.8500 C   0  0  0  0  0  0  0  0  0  0  0  0
   32.7714   28.1953   47.6595 C   0  0  0  0  0  0  0  0  0  0  0  0
   32.3365   29.4251   47.2053 N   0  0  0  0  0  0  0  0  0  0  0  0
   33.1987   30.2925   46.4467 C   0  0  0  0  0  0  0  0  0  0  0  0
   34.6255   30.1814   46.6808 C   0  0  2  0  0  0  0  0  0  0  0  0
   35.3790   29.6338   45.5657 N   0  0  0  0  0  0  0  0  0  0  0  0
   36.5581   30.4480   45.2735 C   0  0  0  0  0  0  0  0  0  0  0  0
   36.7447   30.4310   43.7693 C   0  0  0  0  0  0  0  0  0  0  0  0
   35.7519   29.4181   43.3197 C   0  0  0  0  0  0  0  0  0  0  0  0
   34.6278   29.5388   44.3666 C   0  0  1  0  0  0  0  0  0  0  0  0
   37.8223   28.5627   51.1896 H   0  0  0  0  0  0  0  0  0  0  0  0
   38.0364   30.9678   51.6769 H   0  0  0  0  0  0  0  0  0  0  0  0
   36.7147   32.5906   50.2876 H   0  0  0  0  0  0  0  0  0  0  0  0
   34.3678   27.6576   48.9145 H   0  0  0  0  0  0  0  0  0  0  0  0
   34.7339   27.2702   47.2487 H   0  0  0  0  0  0  0  0  0  0  0  0
   32.1732   27.8920   48.5436 H   0  0  0  0  0  0  0  0  0  0  0  0
   32.4968   27.4141   46.8885 H   0  0  0  0  0  0  0  0  0  0  0  0
   31.6138   29.8694   47.7708 H   0  0  0  0  0  0  0  0  0  0  0  0
   32.8991   31.3228   46.8502 H   0  0  0  0  0  0  0  0  0  0  0  0
   32.7638   30.3226   45.4600 H   0  0  0  0  0  0  0  0  0  0  0  0
   35.1161   31.1776   46.9055 H   0  0  0  0  0  0  0  0  0  0  0  0
   36.4666   31.4693   45.6755 H   0  0  0  0  0  0  0  0  0  0  0  0
   37.4218   29.9357   45.7423 H   0  0  0  0  0  0  0  0  0  0  0  0
   37.7603   30.0960   43.4876 H   0  0  0  0  0  0  0  0  0  0  0  0
   36.4927   31.4287   43.3636 H   0  0  0  0  0  0  0  0  0  0  0  0
   35.3482   29.6087   42.2978 H   0  0  0  0  0  0  0  0  0  0  0  0
   36.1418   28.3806   43.3271 H   0  0  0  0  0  0  0  0  0  0  0  0
   34.1289   30.4287   43.9882 H   0  0  0  0  0  0  0  0  0  0  0  0
   32.9215   27.6964   44.9334 C   0  0  0  0  0  0  0  0  0  0  0  0
   33.9045   28.2602   44.1458 C   0  0  0  0  0  0  0  0  0  0  0  0
   34.2271   27.5277   43.0184 C   0  0  0  0  0  0  0  0  0  0  0  0
   34.9892   27.8254   42.2795 H   0  0  0  0  0  0  0  0  0  0  0  0
   33.6268   26.3297   42.6906 C   0  0  0  0  0  0  0  0  0  0  0  0
   32.6488   25.8089   43.5122 C   0  0  0  0  0  0  0  0  0  0  0  0
   32.2952   26.5046   44.6467 C   0  0  0  0  0  0  0  0  0  0  0  0
   32.2071   24.5965   42.9575 O   0  0  0  0  0  0  0  0  0  0  0  0
   32.6981   24.5033   41.6250 C   0  0  1  0  0  0  0  0  0  0  0  0
   33.1387   23.5066   41.4195 H   0  0  0  0  0  0  0  0  0  0  0  0
   33.7648   25.4110   41.6347 O   0  0  0  0  0  0  0  0  0  0  0  0
   32.6687   28.2844   45.8305 H   0  0  0  0  0  0  0  0  0  0  0  0
   31.5342   26.1420   45.3264 H   0  0  0  0  0  0  0  0  0  0  0  0
   31.9661   24.8426   40.8668 H   0  0  0  0  0  0  0  0  0  0  0  0
  1  2  2  0
  3  2  1  0
  4  3  2  0
  5  4  1  0
  5  6  2  0
  6  1  1  0
  7  8  1  0
  7  5  1  0
  9  8  1  0
 10  9  1  0
 11 12  1  0
 11 10  1  0
 12  7  1  0
 13 14  1  0
 13 12  1  0
 15 14  1  0
 16 15  1  0
 16 17  1  0
 17 13  1  0
  1 18  1  0
  2 19  1  0
  3 20  1  0
  8 21  1  0
  8 22  1  0
  9 23  1  0
  9 24  1  0
 10 25  1  0
 11 26  1  0
 11 27  1  0
 12 28  1  1
 14 29  1  0
 14 30  1  0
 15 31  1  0
 15 32  1  0
 16 33  1  0
 16 34  1  0
 17 35  1  6
 36 37  2  0
 37 38  1  0
 38 39  1  0
 38 40  2  0
 40 41  1  0
 41 42  2  0
 41 43  1  0
 43 44  1  0
 44 45  1  6
 44 46  1  0
 42 36  1  0
 46 40  1  0
 36 47  1  0
 42 48  1  0
 44 49  1  0
 17 37  1  0
M  ISO  8  18  14  19  14  20  14  21  13  22  13  23  13  24  13  25   5
M  ISO  8  26  13  27  13  28  13  29  13  30  13  31  13  32  13  33  13
M  ISO  4  34  13  35  13  39  16  45   8
M  END
>  <DihAtoms>  (1) 
15,16,36,35

>  <DihDeg>  (1) 
-116.24953681065394

$$$$
