
     RDKit          3D

 33 36  0  0  0  0  0  0  0  0999 V2000
   37.9835   33.1684   49.4315 C   0  0  0  0  0  0  0  0  0  0  0  0
   39.0156   33.1605   48.4680 C   0  0  0  0  0  0  0  0  0  0  0  0
   39.0131   32.1263   47.5395 C   0  0  0  0  0  0  0  0  0  0  0  0
   38.0276   31.1677   47.5899 N   0  0  0  0  0  0  0  0  0  0  0  0
   37.0538   31.2286   48.5473 C   0  0  0  0  0  0  0  0  0  0  0  0
   37.0406   32.2224   49.4539 N   0  0  0  0  0  0  0  0  0  0  0  0
   37.2725   29.3598   51.0537 Br  0  0  0  0  0  0  0  0  0  0  0  0
   35.9552   29.3142   49.6671 C   0  0  0  0  0  0  0  0  0  0  0  0
   36.0001   30.2205   48.6178 C   0  0  0  0  0  0  0  0  0  0  0  0
   35.0175   30.1217   47.6619 C   0  0  0  0  0  0  0  0  0  0  0  0
   33.9989   29.1811   47.6869 C   0  0  0  0  0  0  0  0  0  0  0  0
   33.9944   28.3052   48.7432 C   0  0  0  0  0  0  0  0  0  0  0  0
   34.9651   28.3746   49.7222 C   0  0  0  0  0  0  0  0  0  0  0  0
   38.0253   33.9902   50.1337 H   0  0  0  0  0  0  0  0  0  0  0  0
   39.7975   33.9069   48.4156 H   0  0  0  0  0  0  0  0  0  0  0  0
   39.7490   32.0126   46.7539 H   0  0  0  0  0  0  0  0  0  0  0  0
   35.0449   30.8278   46.8353 H   0  0  0  0  0  0  0  0  0  0  0  0
   33.2081   27.5541   48.7923 H   0  0  0  0  0  0  0  0  0  0  0  0
   34.9239   27.6548   50.5494 H   0  0  0  0  0  0  0  0  0  0  0  0
   31.6816   29.3324   47.0273 C   0  0  0  0  0  0  0  0  0  0  0  0
   32.9906   29.1318   46.6432 C   0  0  0  0  0  0  0  0  0  0  0  0
   33.2774   28.8980   45.3137 C   0  0  0  0  0  0  0  0  0  0  0  0
   34.2888   28.7425   45.0097 H   0  0  0  0  0  0  0  0  0  0  0  0
   32.2524   28.8699   44.3988 C   0  0  0  0  0  0  0  0  0  0  0  0
   30.9295   29.0731   44.7900 C   0  0  0  0  0  0  0  0  0  0  0  0
   30.6117   29.3112   46.1260 C   0  0  0  0  0  0  0  0  0  0  0  0
   30.0529   29.0021   43.6990 O   0  0  0  0  0  0  0  0  0  0  0  0
   30.9291   29.1706   42.5746 C   0  0  1  0  0  0  0  0  0  0  0  0
   30.5470   28.6499   41.6978 H   0  0  0  0  0  0  0  0  0  0  0  0
   32.1776   28.6666   43.0107 O   0  0  0  0  0  0  0  0  0  0  0  0
   31.4092   29.5208   48.0711 H   0  0  0  0  0  0  0  0  0  0  0  0
   29.5936   29.4706   46.4460 H   0  0  0  0  0  0  0  0  0  0  0  0
   31.0499   30.2364   42.3497 H   0  0  0  0  0  0  0  0  0  0  0  0
  1  6  2  0
  2  1  1  0
  3  4  1  0
  3  2  2  0
  4  5  2  0
  5  9  1  0
  5  6  1  0
  8 13  2  0
  8  7  1  0
  9  8  1  0
 10 11  1  0
 10  9  2  0
 11 12  2  0
 12 13  1  0
  1 14  1  0
  2 15  1  0
  3 16  1  0
 10 17  1  0
 12 18  1  0
 13 19  1  0
 20 21  2  0
 21 22  1  0
 22 23  1  0
 22 24  2  0
 24 25  1  0
 25 26  2  0
 25 27  1  0
 27 28  1  0
 28 29  1  6
 28 30  1  0
 26 20  1  0
 30 24  1  0
 20 31  1  0
 26 32  1  0
 28 33  1  0
 11 21  1  0
M  ISO  8  14  14  15  14  16  14  17  14  18  14  19  14  23  16  29   8
M  END
>  <DihAtoms>  (1) 
9,10,20,19

>  <DihDeg>  (1) 
-148.87759981501375

$$$$
