
     RDKit          3D

 33 36  0  0  0  0  0  0  0  0999 V2000
   37.9835   33.1684   49.4315 C   0  0  0  0  0  0  0  0  0  0  0  0
   39.0156   33.1605   48.4680 C   0  0  0  0  0  0  0  0  0  0  0  0
   39.0131   32.1263   47.5395 C   0  0  0  0  0  0  0  0  0  0  0  0
   38.0276   31.1677   47.5899 N   0  0  0  0  0  0  0  0  0  0  0  0
   37.0538   31.2286   48.5473 C   0  0  0  0  0  0  0  0  0  0  0  0
   37.0406   32.2224   49.4539 N   0  0  0  0  0  0  0  0  0  0  0  0
   37.2725   29.3598   51.0537 Br  0  0  0  0  0  0  0  0  0  0  0  0
   35.9552   29.3142   49.6671 C   0  0  0  0  0  0  0  0  0  0  0  0
   36.0001   30.2205   48.6178 C   0  0  0  0  0  0  0  0  0  0  0  0
   35.0175   30.1217   47.6619 C   0  0  0  0  0  0  0  0  0  0  0  0
   33.9989   29.1811   47.6869 C   0  0  0  0  0  0  0  0  0  0  0  0
   33.9944   28.3052   48.7432 C   0  0  0  0  0  0  0  0  0  0  0  0
   34.9651   28.3746   49.7222 C   0  0  0  0  0  0  0  0  0  0  0  0
   38.0253   33.9902   50.1337 H   0  0  0  0  0  0  0  0  0  0  0  0
   39.7975   33.9069   48.4156 H   0  0  0  0  0  0  0  0  0  0  0  0
   39.7490   32.0126   46.7539 H   0  0  0  0  0  0  0  0  0  0  0  0
   35.0449   30.8278   46.8353 H   0  0  0  0  0  0  0  0  0  0  0  0
   33.2081   27.5541   48.7923 H   0  0  0  0  0  0  0  0  0  0  0  0
   34.9239   27.6548   50.5494 H   0  0  0  0  0  0  0  0  0  0  0  0
   32.9088   30.2196   45.7998 C   0  0  0  0  0  0  0  0  0  0  0  0
   32.9906   29.1318   46.6432 C   0  0  0  0  0  0  0  0  0  0  0  0
   32.1295   28.0688   46.4619 C   0  0  0  0  0  0  0  0  0  0  0  0
   32.1879   27.2234   47.1110 H   0  0  0  0  0  0  0  0  0  0  0  0
   31.2074   28.1154   45.4440 C   0  0  0  0  0  0  0  0  0  0  0  0
   31.1269   29.2168   44.5925 C   0  0  0  0  0  0  0  0  0  0  0  0
   31.9842   30.3038   44.7532 C   0  0  0  0  0  0  0  0  0  0  0  0
   30.1205   29.0524   43.6312 O   0  0  0  0  0  0  0  0  0  0  0  0
   29.8780   27.6380   43.6625 C   0  0  1  0  0  0  0  0  0  0  0  0
   28.8459   27.4109   43.3998 H   0  0  0  0  0  0  0  0  0  0  0  0
   30.2076   27.2438   44.9811 O   0  0  0  0  0  0  0  0  0  0  0  0
   33.5720   31.0843   45.9078 H   0  0  0  0  0  0  0  0  0  0  0  0
   31.9357   31.1640   44.1034 H   0  0  0  0  0  0  0  0  0  0  0  0
   30.5577   27.1256   42.9721 H   0  0  0  0  0  0  0  0  0  0  0  0
  1  6  2  0
  2  1  1  0
  3  4  1  0
  3  2  2  0
  4  5  2  0
  5  9  1  0
  5  6  1  0
  8 13  2  0
  8  7  1  0
  9  8  1  0
 10 11  1  0
 10  9  2  0
 11 12  2  0
 12 13  1  0
  1 14  1  0
  2 15  1  0
  3 16  1  0
 10 17  1  0
 12 18  1  0
 13 19  1  0
 20 21  2  0
 21 22  1  0
 22 23  1  0
 22 24  2  0
 24 25  1  0
 25 26  2  0
 25 27  1  0
 27 28  1  0
 28 29  1  6
 28 30  1  0
 26 20  1  0
 30 24  1  0
 20 31  1  0
 26 32  1  0
 28 33  1  0
 11 21  1  0
M  ISO  8  14  14  15  14  16  14  17  14  18  14  19  14  23  16  29   8
M  END
>  <DihAtoms>  (1) 
9,10,20,19

>  <DihDeg>  (1) 
-148.87759981501375

$$$$
