
 OpenBabel03262523063D

 43 48  0  0  0  0  0  0  0  0999 V2000
   37.3230   30.9870   49.6620 C   0  0  0  0  0  0  0  0  0  0  0  0
   37.5470   30.6130   50.9660 C   0  0  0  0  0  0  0  0  0  0  0  0
   36.7230   29.6850   51.5370 C   0  0  0  0  0  0  0  0  0  0  0  0
   35.6960   29.1430   50.8170 N   0  0  0  0  0  0  0  0  0  0  0  0
   35.5130   29.5300   49.5630 C   0  0  0  0  0  0  0  0  0  0  0  0
   36.3080   30.4450   48.9690 N   0  0  0  0  0  0  0  0  0  0  0  0
   38.3750   31.0660   51.5100 H   0  0  0  0  0  0  0  0  0  0  0  0
   36.8760   29.3720   52.5620 H   0  0  0  0  0  0  0  0  0  0  0  0
   34.4220   28.9530   48.8000 C   0  0  0  0  0  0  0  0  0  0  0  0
   34.4850   28.8420   47.4360 C   0  0  0  0  0  0  0  0  0  0  0  0
   33.5400   28.3230   46.5760 C   0  0  0  0  0  0  0  0  0  0  0  0
   32.3970   27.8640   47.2090 C   0  0  0  0  0  0  0  0  0  0  0  0
   31.4160   27.3360   46.4280 N   0  0  0  0  0  0  0  0  0  0  0  0
   30.2680   26.8630   46.9430 C   0  0  0  0  0  0  0  0  0  0  0  0
   30.0720   26.9140   48.3180 C   0  0  0  0  0  0  0  0  0  0  0  0
   31.0690   27.4510   49.1180 C   0  0  0  0  0  0  0  0  0  0  0  0
   32.2590   27.9410   48.5880 C   0  0  0  0  0  0  0  0  0  0  0  0
   33.2530   28.4760   49.3750 C   0  0  0  0  0  0  0  0  0  0  0  0
   35.4060   29.2180   46.9750 H   0  0  0  0  0  0  0  0  0  0  0  0
   33.7030   28.2890   45.5130 H   0  0  0  0  0  0  0  0  0  0  0  0
   29.4830   26.4420   46.3270 H   0  0  0  0  0  0  0  0  0  0  0  0
   29.1560   26.5390   48.7600 H   0  0  0  0  0  0  0  0  0  0  0  0
   30.9450   27.5040   50.1930 H   0  0  0  0  0  0  0  0  0  0  0  0
   33.1310   28.5300   50.4420 H   0  0  0  0  0  0  0  0  0  0  0  0
   39.4150   33.9380   48.9970 C   0  0  0  0  0  0  0  0  0  0  0  0
   39.7590   33.7570   47.6430 C   0  0  0  0  0  0  0  0  0  0  0  0
   39.2630   32.6170   46.9780 C   0  0  0  0  0  0  0  0  0  0  0  0
   38.4870   31.7750   47.6970 N   0  0  0  0  0  0  0  0  0  0  0  0
   38.1700   31.9740   49.0040 C   0  0  0  0  0  0  0  0  0  0  0  0
   38.6370   33.0520   49.6380 N   0  0  0  0  0  0  0  0  0  0  0  0
   39.8070   34.8210   49.4880 H   0  0  0  0  0  0  0  0  0  0  0  0
   40.3690   34.4300   47.1000 H   0  0  0  0  0  0  0  0  0  0  0  0
   40.4040   31.2570   45.3530 C   0  0  0  0  0  3  0  0  0  0  0  0
   39.5370   32.3040   45.5840 C   0  0  0  0  0  0  0  0  0  0  0  0
   38.9750   32.9990   44.5380 C   0  0  0  0  0  0  0  0  0  0  0  0
   38.2940   33.8200   44.7140 H   0  0  0  0  0  0  0  0  0  0  0  0
   39.2570   32.6740   43.2170 C   0  0  0  0  0  0  0  0  0  0  0  0
   40.1300   31.6200   43.0000 C   0  0  0  0  0  0  0  0  0  0  0  0
   40.7180   30.8950   44.0360 C   0  0  0  0  0  3  0  0  0  0  0  0
   40.2850   31.4500   41.6170 O   0  0  0  0  0  0  0  0  0  0  0  0
   39.2510   32.1850   40.9670 C   0  0  0  0  0  3  0  0  0  0  0  0
   38.3510   31.5470   40.8070 H   0  0  0  0  0  0  0  0  0  0  0  0
   38.8970   33.1280   41.9560 O   0  0  0  0  0  0  0  0  0  0  0  0
  1  2  1  0  0  0  0
  2  7  1  0  0  0  0
  2  3  2  0  0  0  0
  3  8  1  0  0  0  0
  4  3  1  0  0  0  0
  5  4  2  0  0  0  0
  6  5  1  0  0  0  0
  6  1  2  0  0  0  0
  9 18  1  0  0  0  0
  9  5  1  0  0  0  0
 10  9  2  0  0  0  0
 11 12  2  0  0  0  0
 11 10  1  0  0  0  0
 12 17  1  0  0  0  0
 13 14  2  0  0  0  0
 13 12  1  0  0  0  0
 14 15  1  0  0  0  0
 15 22  1  0  0  0  0
 15 16  2  0  0  0  0
 16 23  1  0  0  0  0
 17 16  1  0  0  0  0
 17 18  2  0  0  0  0
 18 24  1  0  0  0  0
 19 10  1  0  0  0  0
 20 11  1  0  0  0  0
 21 14  1  0  0  0  0
 25 31  1  0  0  0  0
 25 30  1  0  0  0  0
 26 25  2  0  0  0  0
 27 26  1  0  0  0  0
 27 28  2  0  0  0  0
 28 29  1  0  0  0  0
 29 30  2  0  0  0  0
 29  1  1  0  0  0  0
 32 26  1  0  0  0  0
 33 34  1  0  0  0  0
 34 27  1  0  0  0  0
 35 36  1  0  0  0  0
 35 34  2  0  0  0  0
 37 35  1  0  0  0  0
 38 37  2  0  0  0  0
 38 39  1  0  0  0  0
 39 33  2  0  0  0  0
 40 38  1  0  0  0  0
 41 40  1  0  0  0  0
 41 43  1  0  0  0  0
 42 41  1  0  0  0  0
 43 37  1  0  0  0  0
M  END
>  <minimizedAffinity>
-8.28709221

>  <minimizedRMSD>
0.43584609

$$$$
