
 OpenBabel03272500583D

 37 40  0  0  0  0  0  0  0  0999 V2000
   38.0180   31.6740   47.3710 C   0  0  0  0  0  0  0  0  0  0  0  0
   38.7210   32.4000   48.2860 C   0  0  0  0  0  0  0  0  0  0  0  0
   38.3900   32.4220   49.6440 C   0  0  0  0  0  0  0  0  0  0  0  0
   37.2500   31.6330   50.0640 C   0  0  0  0  0  0  0  0  0  0  0  0
   36.5920   30.9330   49.1030 C   0  0  0  0  0  0  0  0  0  0  0  0
   36.9180   30.9210   47.8050 C   0  0  0  0  0  0  0  0  0  0  0  0
   39.5930   33.0100   47.9990 H   0  0  0  0  0  0  0  0  0  0  0  0
   38.9900   33.0220   50.3160 H   0  0  0  0  0  0  0  0  0  0  0  0
   37.1130   31.7430   51.1180 H   0  0  0  0  0  0  0  0  0  0  0  0
   35.8130   30.4070   49.6350 H   0  0  0  0  0  0  0  0  0  0  0  0
   39.6500   30.9670   45.6900 C   0  0  0  0  0  0  0  0  0  0  0  0
   38.5020   31.7350   46.0110 C   0  0  0  0  0  0  0  0  0  0  0  0
   37.9860   32.4460   44.9560 C   0  0  0  0  0  0  0  0  0  0  0  0
   38.5480   32.3930   43.7430 N   0  0  0  0  0  0  0  0  0  0  0  0
   39.6160   31.6730   43.4630 C   0  0  0  0  0  0  0  0  0  0  0  0
   40.1570   30.9660   44.4420 N   0  0  0  0  0  0  0  0  0  0  0  0
   40.1320   30.3650   46.4670 H   0  0  0  0  0  0  0  0  0  0  0  0
   37.1130   33.0340   45.1910 H   0  0  0  0  0  0  0  0  0  0  0  0
   40.0790   31.6220   42.4850 H   0  0  0  0  0  0  0  0  0  0  0  0
   34.7930   30.0840   47.2400 C   0  0  0  0  0  0  0  0  0  0  0  0
   34.4030   30.6040   48.3570 O   0  0  0  0  0  0  0  0  0  0  0  0
   36.1940   30.2090   46.8830 N   0  0  0  0  0  0  0  0  0  0  0  0
   36.5860   29.7910   46.0120 H   0  0  0  0  0  0  0  0  0  0  0  0
   33.8750   29.4460   46.4580 O   0  0  0  0  0  0  0  0  0  0  0  0
   32.6000   29.9040   46.1770 C   0  0  0  0  0  0  0  0  0  0  0  0
   32.3610   31.1480   45.8200 O   0  0  0  0  0  0  0  0  0  0  0  0
   30.1450   29.4210   46.3490 C   0  0  0  0  0  3  0  0  0  0  0  0
   31.4370   28.9910   46.2430 C   0  0  0  0  0  0  0  0  0  0  0  0
   31.6220   27.6250   46.2000 C   0  0  0  0  0  0  0  0  0  0  0  0
   32.6400   27.2350   46.1170 H   0  0  0  0  0  0  0  0  0  0  0  0
   30.6150   26.7080   46.2560 C   0  0  0  0  0  0  0  0  0  0  0  0
   29.3130   27.1910   46.3630 C   0  0  0  0  0  0  0  0  0  0  0  0
   29.0790   28.5500   46.4100 C   0  0  0  0  0  3  0  0  0  0  0  0
   28.4460   26.0810   46.4040 O   0  0  0  0  0  0  0  0  0  0  0  0
   29.1650   24.9600   45.9260 C   0  0  0  0  0  3  0  0  0  0  0  0
   28.9360   24.0190   46.4520 H   0  0  0  0  0  0  0  0  0  0  0  0
   30.5090   25.3120   46.2340 O   0  0  0  0  0  0  0  0  0  0  0  0
  1  6  2  0  0  0  0
  1  2  1  0  0  0  0
  2  3  2  0  0  0  0
  3  4  1  0  0  0  0
  3  8  1  0  0  0  0
  4  9  1  0  0  0  0
  5 10  1  0  0  0  0
  5  4  2  0  0  0  0
  6  5  1  0  0  0  0
  7  2  1  0  0  0  0
 11 12  1  0  0  0  0
 11 17  1  0  0  0  0
 12  1  1  0  0  0  0
 13 18  1  0  0  0  0
 13 12  2  0  0  0  0
 14 13  1  0  0  0  0
 15 14  2  0  0  0  0
 15 16  1  0  0  0  0
 16 11  2  0  0  0  0
 19 15  1  0  0  0  0
 20 21  2  0  0  0  0
 22 20  1  0  0  0  0
 22  6  1  0  0  0  0
 23 22  1  0  0  0  0
 24 20  1  0  0  0  0
 25 28  1  0  0  0  0
 25 24  1  0  0  0  0
 26 25  2  0  0  0  0
 27 33  1  0  0  0  0
 28 27  2  0  0  0  0
 29 28  1  0  0  0  0
 29 31  2  0  0  0  0
 30 29  1  0  0  0  0
 31 32  1  0  0  0  0
 32 34  1  0  0  0  0
 32 33  2  0  0  0  0
 35 37  1  0  0  0  0
 35 34  1  0  0  0  0
 35 36  1  0  0  0  0
 37 31  1  0  0  0  0
M  END
>  <minimizedAffinity>
-5.96464252

>  <minimizedRMSD>
1.04475164

$$$$
