
     RDKit          3D

 38 41  0  0  0  0  0  0  0  0999 V2000
   33.5973   28.7101   49.0268 N   0  0  0  0  0  0  0  0  0  0  0  0
   34.4399   29.8806   48.9372 C   0  0  2  0  0  0  0  0  0  0  0  0
   34.3611   30.3961   47.5213 C   0  0  0  0  0  0  0  0  0  0  0  0
   33.2526   29.8607   46.8286 O   0  0  0  0  0  0  0  0  0  0  0  0
   33.5396   28.5062   46.6588 C   0  0  0  0  0  0  0  0  0  0  0  0
   33.9224   27.8168   47.9529 C   0  0  2  0  0  0  0  0  0  0  0  0
   33.1871   26.6257   48.1166 O   0  0  0  0  0  0  0  0  0  0  0  0
   36.1763   29.4443   49.3216 S   0  0  0  0  0  0  0  0  0  0  0  0
   37.2878   30.7318   48.8088 C   0  0  0  0  0  0  0  0  0  0  0  0
   37.2228   31.8675   49.6486 C   0  0  0  0  0  0  0  0  0  0  0  0
   38.0399   32.9586   49.3683 C   0  0  0  0  0  0  0  0  0  0  0  0
   38.8736   32.8549   48.2685 N   0  0  0  0  0  0  0  0  0  0  0  0
   38.9076   31.7706   47.5015 C   0  0  0  0  0  0  0  0  0  0  0  0
   38.1181   30.7152   47.7715 N   0  0  0  0  0  0  0  0  0  0  0  0
   33.6551   28.2758   49.9630 H   0  0  0  0  0  0  0  0  0  0  0  0
   34.1256   30.6150   49.7037 H   0  0  0  0  0  0  0  0  0  0  0  0
   35.2989   30.2737   46.9753 H   0  0  0  0  0  0  0  0  0  0  0  0
   34.1811   31.5074   47.5938 H   0  0  0  0  0  0  0  0  0  0  0  0
   32.5882   28.0386   46.2992 H   0  0  0  0  0  0  0  0  0  0  0  0
   34.2843   28.3195   45.8577 H   0  0  0  0  0  0  0  0  0  0  0  0
   35.0132   27.6220   47.9584 H   0  0  0  0  0  0  0  0  0  0  0  0
   33.2880   26.0364   47.3213 H   0  0  0  0  0  0  0  0  0  0  0  0
   36.5771   31.9671   50.5132 H   0  0  0  0  0  0  0  0  0  0  0  0
   38.0057   33.8367   49.9977 H   0  0  0  0  0  0  0  0  0  0  0  0
   39.9289   32.7308   45.4636 C   0  0  0  0  0  0  0  0  0  0  0  0
   39.7942   31.6942   46.3545 C   0  0  0  0  0  0  0  0  0  0  0  0
   40.5199   30.5552   46.1515 C   0  0  0  0  0  0  0  0  0  0  0  0
   40.4178   29.7479   46.8415 H   0  0  0  0  0  0  0  0  0  0  0  0
   41.3552   30.4994   45.0594 C   0  0  0  0  0  0  0  0  0  0  0  0
   41.5336   31.5123   44.1258 C   0  0  0  0  0  0  0  0  0  0  0  0
   40.7772   32.6451   44.3744 C   0  0  0  0  0  0  0  0  0  0  0  0
   42.4468   31.0412   43.2123 O   0  0  0  0  0  0  0  0  0  0  0  0
   42.4409   29.6285   43.2881 C   0  0  2  0  0  0  0  0  0  0  0  0
   43.4169   29.1859   42.9794 H   0  0  0  0  0  0  0  0  0  0  0  0
   42.1745   29.4379   44.6769 O   0  0  0  0  0  0  0  0  0  0  0  0
   39.3420   33.6426   45.6340 H   0  0  0  0  0  0  0  0  0  0  0  0
   40.8938   33.4616   43.6586 H   0  0  0  0  0  0  0  0  0  0  0  0
   41.6585   29.1592   42.6670 H   0  0  0  0  0  0  0  0  0  0  0  0
  2  1  1  0
  2  8  1  0
  3  2  1  0
  4  3  1  0
  5  4  1  0
  5  6  1  0
  6  7  1  0
  6  1  1  0
  9  8  1  0
  9 10  2  0
 11 10  1  0
 12 11  2  0
 13 14  2  0
 13 12  1  0
 14  9  1  0
  1 15  1  0
  2 16  1  1
  3 17  1  0
  3 18  1  0
  5 19  1  0
  5 20  1  0
  6 21  1  6
  7 22  1  0
 10 23  1  0
 11 24  1  0
 25 26  2  0
 26 27  1  0
 27 28  1  0
 27 29  2  0
 29 30  1  0
 30 31  2  0
 30 32  1  0
 32 33  1  0
 33 34  1  6
 33 35  1  0
 31 25  1  0
 35 29  1  0
 25 36  1  0
 31 37  1  0
 33 38  1  0
 13 26  1  0
M  ISO  8  15   5  16  13  17  13  18  13  19  13  20  13  21  13  22   3
M  ISO  4  23  14  24  14  28  16  34   8
M  END
>  <DihAtoms>  (1) 
13,12,25,24

>  <DihDeg>  (1) 
0.0002478480410139709

$$$$
