REMARK  Name = 
REMARK  2 active torsions:
REMARK  status: ('A' for Active; 'I' for Inactive)
REMARK    1  A    between atoms: C_5  and  C_9
REMARK    2  A    between atoms: C_11  and  C_21
REMARK                            x       y       z     vdW  Elec       q    Type
REMARK                         _______ _______ _______ _____ _____    ______ ____
ROOT
ATOM      1 BR   UNL     1      37.273  29.360  51.054  0.00  0.00    +0.000 Br
ATOM      2  C   UNL     1      35.955  29.314  49.667  0.00  0.00    +0.000 A 
ATOM      3  C   UNL     1      36.000  30.221  48.618  0.00  0.00    +0.000 A 
ATOM      4  C   UNL     1      35.017  30.122  47.662  0.00  0.00    +0.000 A 
ATOM      5  C   UNL     1      33.999  29.181  47.687  0.00  0.00    +0.000 A 
ATOM      6  C   UNL     1      33.994  28.305  48.743  0.00  0.00    +0.000 A 
ATOM      7  C   UNL     1      34.965  28.375  49.722  0.00  0.00    +0.000 A 
ATOM      8  H   UNL     1      35.045  30.828  46.835  0.00  0.00    +0.000 HD
ATOM      9  H   UNL     1      33.208  27.554  48.792  0.00  0.00    +0.000 HD
ATOM     10  H   UNL     1      34.924  27.655  50.549  0.00  0.00    +0.000 HD
ENDROOT
BRANCH   5  12
ATOM     11  C   UNL     1      32.203  28.002  46.587  0.00  0.00    +0.000 A 
ATOM     12  C   UNL     1      32.991  29.132  46.643  0.00  0.00    +0.000 A 
ATOM     13  C   UNL     1      32.790  30.143  45.726  0.00  0.00    +0.000 A 
ATOM     14  H   UNL     1      33.396  31.021  45.764  0.00  0.00    +0.000 HD
ATOM     15  C   UNL     1      31.809  30.003  44.773  0.00  0.00    +0.000 A 
ATOM     16  C   UNL     1      31.014  28.859  44.719  0.00  0.00    +0.000 A 
ATOM     17  C   UNL     1      31.195  27.823  45.633  0.00  0.00    +0.000 A 
ATOM     18  O   UNL     1      30.082  28.929  43.674  0.00  0.00    +0.000 OA
ATOM     19  C   UNL     1      30.055  30.330  43.364  0.00  0.00    +0.000 C 
ATOM     20  H   UNL     1      29.819  30.495  42.314  0.00  0.00    +0.000 HD
ATOM     21  O   UNL     1      31.341  30.803  43.718  0.00  0.00    +0.000 OA
ENDBRANCH   5  12
BRANCH   3  26
ATOM     22  C   UNL     1      37.983  33.168  49.431  0.00  0.00    +0.000 A 
ATOM     23  C   UNL     1      39.016  33.160  48.468  0.00  0.00    +0.000 A 
ATOM     24  C   UNL     1      39.013  32.126  47.539  0.00  0.00    +0.000 A 
ATOM     25  N   UNL     1      38.028  31.168  47.590  0.00  0.00    +0.000 NA
ATOM     26  C   UNL     1      37.054  31.229  48.547  0.00  0.00    +0.000 A 
ATOM     27  N   UNL     1      37.041  32.222  49.454  0.00  0.00    +0.000 NA
ATOM     28  H   UNL     1      38.025  33.990  50.134  0.00  0.00    +0.000 HD
ATOM     29  H   UNL     1      39.797  33.907  48.416  0.00  0.00    +0.000 HD
ATOM     30  H   UNL     1      39.749  32.013  46.754  0.00  0.00    +0.000 HD
ENDBRANCH   3  26
TORSDOF 2
