
 OpenBabel03272500583D

 37 40  0  0  0  0  0  0  0  0999 V2000
   38.1400   31.8870   47.4060 C   0  0  0  0  0  0  0  0  0  0  0  0
   38.6520   32.7740   48.3060 C   0  0  0  0  0  0  0  0  0  0  0  0
   38.1940   32.8600   49.6240 C   0  0  0  0  0  0  0  0  0  0  0  0
   37.1310   31.9560   50.0180 C   0  0  0  0  0  0  0  0  0  0  0  0
   36.6650   31.0970   49.0750 C   0  0  0  0  0  0  0  0  0  0  0  0
   37.1120   31.0260   47.8150 C   0  0  0  0  0  0  0  0  0  0  0  0
   39.4610   33.4740   48.0370 H   0  0  0  0  0  0  0  0  0  0  0  0
   38.6440   33.5890   50.2850 H   0  0  0  0  0  0  0  0  0  0  0  0
   36.8820   32.1300   51.0420 H   0  0  0  0  0  0  0  0  0  0  0  0
   35.9150   30.5130   49.5850 H   0  0  0  0  0  0  0  0  0  0  0  0
   39.9860   31.2480   45.9320 C   0  0  0  0  0  0  0  0  0  0  0  0
   38.7400   31.9050   46.0910 C   0  0  0  0  0  0  0  0  0  0  0  0
   38.2530   32.4780   44.9430 C   0  0  0  0  0  0  0  0  0  0  0  0
   38.9270   32.4020   43.7900 N   0  0  0  0  0  0  0  0  0  0  0  0
   40.0860   31.7870   43.6600 C   0  0  0  0  0  0  0  0  0  0  0  0
   40.6040   31.2150   44.7350 N   0  0  0  0  0  0  0  0  0  0  0  0
   40.4540   30.7600   46.7930 H   0  0  0  0  0  0  0  0  0  0  0  0
   37.3050   32.9810   45.0550 H   0  0  0  0  0  0  0  0  0  0  0  0
   40.6400   31.7190   42.7320 H   0  0  0  0  0  0  0  0  0  0  0  0
   35.1410   30.0050   47.0370 C   0  0  0  0  0  0  0  0  0  0  0  0
   34.5490   30.6620   47.9790 O   0  0  0  0  0  0  0  0  0  0  0  0
   36.5790   30.1490   46.9060 N   0  0  0  0  0  0  0  0  0  0  0  0
   37.1280   29.6280   46.1880 H   0  0  0  0  0  0  0  0  0  0  0  0
   34.3900   29.2110   46.2200 O   0  0  0  0  0  0  0  0  0  0  0  0
   33.0460   29.3840   45.9430 C   0  0  0  0  0  0  0  0  0  0  0  0
   32.6230   30.0950   44.9190 O   0  0  0  0  0  0  0  0  0  0  0  0
   32.2940   27.8410   47.7710 C   0  0  0  0  0  3  0  0  0  0  0  0
   32.0110   28.7450   46.7880 C   0  0  0  0  0  0  0  0  0  0  0  0
   30.6790   29.0500   46.6040 C   0  0  0  0  0  0  0  0  0  0  0  0
   30.4060   29.7690   45.8270 H   0  0  0  0  0  0  0  0  0  0  0  0
   29.6580   28.5130   47.3320 C   0  0  0  0  0  0  0  0  0  0  0  0
   29.9910   27.5960   48.3250 C   0  0  0  0  0  0  0  0  0  0  0  0
   31.3120   27.2600   48.5440 C   0  0  0  0  0  3  0  0  0  0  0  0
   28.7960   27.1780   48.9400 O   0  0  0  0  0  0  0  0  0  0  0  0
   27.7920   28.1160   48.6060 C   0  0  0  0  0  3  0  0  0  0  0  0
   26.7990   27.6730   48.4290 H   0  0  0  0  0  0  0  0  0  0  0  0
   28.2640   28.6310   47.3670 O   0  0  0  0  0  0  0  0  0  0  0  0
  1  6  2  0  0  0  0
  1  2  1  0  0  0  0
  2  3  2  0  0  0  0
  3  4  1  0  0  0  0
  3  8  1  0  0  0  0
  4  9  1  0  0  0  0
  5 10  1  0  0  0  0
  5  4  2  0  0  0  0
  6  5  1  0  0  0  0
  7  2  1  0  0  0  0
 11 12  1  0  0  0  0
 11 17  1  0  0  0  0
 12  1  1  0  0  0  0
 13 18  1  0  0  0  0
 13 12  2  0  0  0  0
 14 13  1  0  0  0  0
 15 14  2  0  0  0  0
 15 16  1  0  0  0  0
 16 11  2  0  0  0  0
 19 15  1  0  0  0  0
 20 21  2  0  0  0  0
 22 20  1  0  0  0  0
 22  6  1  0  0  0  0
 23 22  1  0  0  0  0
 24 20  1  0  0  0  0
 25 24  1  0  0  0  0
 25 28  1  0  0  0  0
 26 25  2  0  0  0  0
 27 33  1  0  0  0  0
 28 27  2  0  0  0  0
 29 28  1  0  0  0  0
 29 31  2  0  0  0  0
 30 29  1  0  0  0  0
 31 37  1  0  0  0  0
 31 32  1  0  0  0  0
 32 33  2  0  0  0  0
 32 34  1  0  0  0  0
 35 34  1  0  0  0  0
 36 35  1  0  0  0  0
 37 35  1  0  0  0  0
M  END
>  <minimizedAffinity>
-6.46219349

>  <minimizedRMSD>
2.39832449

$$$$
