
 OpenBabel03272500583D

 37 40  0  0  0  0  0  0  0  0999 V2000
   38.1090   31.8860   47.4190 C   0  0  0  0  0  0  0  0  0  0  0  0
   38.6340   32.7920   48.2920 C   0  0  0  0  0  0  0  0  0  0  0  0
   38.1990   32.9020   49.6170 C   0  0  0  0  0  0  0  0  0  0  0  0
   37.1480   32.0030   50.0470 C   0  0  0  0  0  0  0  0  0  0  0  0
   36.6670   31.1240   49.1290 C   0  0  0  0  0  0  0  0  0  0  0  0
   37.0920   31.0300   47.8630 C   0  0  0  0  0  0  0  0  0  0  0  0
   39.4360   33.4890   47.9960 H   0  0  0  0  0  0  0  0  0  0  0  0
   38.6590   33.6440   50.2550 H   0  0  0  0  0  0  0  0  0  0  0  0
   36.9160   32.1960   51.0720 H   0  0  0  0  0  0  0  0  0  0  0  0
   35.9290   30.5480   49.6640 H   0  0  0  0  0  0  0  0  0  0  0  0
   39.9230   31.2100   45.9210 C   0  0  0  0  0  0  0  0  0  0  0  0
   38.6850   31.8810   46.0930 C   0  0  0  0  0  0  0  0  0  0  0  0
   38.1820   32.4430   44.9470 C   0  0  0  0  0  0  0  0  0  0  0  0
   38.8350   32.3450   43.7830 N   0  0  0  0  0  0  0  0  0  0  0  0
   39.9850   31.7180   43.6400 C   0  0  0  0  0  0  0  0  0  0  0  0
   40.5180   31.1560   44.7130 N   0  0  0  0  0  0  0  0  0  0  0  0
   40.4020   30.7300   46.7800 H   0  0  0  0  0  0  0  0  0  0  0  0
   37.2410   32.9550   45.0690 H   0  0  0  0  0  0  0  0  0  0  0  0
   40.5220   31.6320   42.7040 H   0  0  0  0  0  0  0  0  0  0  0  0
   35.1070   30.0050   47.1250 C   0  0  0  0  0  0  0  0  0  0  0  0
   34.5270   30.6920   48.0540 O   0  0  0  0  0  0  0  0  0  0  0  0
   36.5450   30.1340   46.9810 N   0  0  0  0  0  0  0  0  0  0  0  0
   37.0840   29.5910   46.2730 H   0  0  0  0  0  0  0  0  0  0  0  0
   34.3440   29.1970   46.3340 O   0  0  0  0  0  0  0  0  0  0  0  0
   33.2400   29.5960   45.6020 C   0  0  0  0  0  0  0  0  0  0  0  0
   33.2150   30.7250   44.9250 O   0  0  0  0  0  0  0  0  0  0  0  0
   32.0730   27.3930   45.3310 C   0  0  0  0  0  3  0  0  0  0  0  0
   32.0320   28.7440   45.5280 C   0  0  0  0  0  0  0  0  0  0  0  0
   30.7790   29.3030   45.6620 C   0  0  0  0  0  0  0  0  0  0  0  0
   30.6970   30.3820   45.8230 H   0  0  0  0  0  0  0  0  0  0  0  0
   29.6120   28.6000   45.6090 C   0  0  0  0  0  0  0  0  0  0  0  0
   29.6990   27.2250   45.4060 C   0  0  0  0  0  0  0  0  0  0  0  0
   30.9330   26.6230   45.2660 C   0  0  0  0  0  3  0  0  0  0  0  0
   28.3880   26.7110   45.3860 O   0  0  0  0  0  0  0  0  0  0  0  0
   27.5390   27.6810   45.9660 C   0  0  0  0  0  3  0  0  0  0  0  0
   26.5510   27.7630   45.4870 H   0  0  0  0  0  0  0  0  0  0  0  0
   28.2460   28.8900   45.7080 O   0  0  0  0  0  0  0  0  0  0  0  0
  1  6  2  0  0  0  0
  1  2  1  0  0  0  0
  2  3  2  0  0  0  0
  3  4  1  0  0  0  0
  3  8  1  0  0  0  0
  4  9  1  0  0  0  0
  5 10  1  0  0  0  0
  5  4  2  0  0  0  0
  6  5  1  0  0  0  0
  7  2  1  0  0  0  0
 11 12  1  0  0  0  0
 11 17  1  0  0  0  0
 12  1  1  0  0  0  0
 13 18  1  0  0  0  0
 13 12  2  0  0  0  0
 14 13  1  0  0  0  0
 15 14  2  0  0  0  0
 15 16  1  0  0  0  0
 16 11  2  0  0  0  0
 19 15  1  0  0  0  0
 20 21  2  0  0  0  0
 22 20  1  0  0  0  0
 22  6  1  0  0  0  0
 23 22  1  0  0  0  0
 24 20  1  0  0  0  0
 25 24  1  0  0  0  0
 26 25  2  0  0  0  0
 27 28  1  0  0  0  0
 28 25  1  0  0  0  0
 28 29  2  0  0  0  0
 29 30  1  0  0  0  0
 31 29  1  0  0  0  0
 31 37  1  0  0  0  0
 32 31  2  0  0  0  0
 33 27  2  0  0  0  0
 33 32  1  0  0  0  0
 34 32  1  0  0  0  0
 34 35  1  0  0  0  0
 36 35  1  0  0  0  0
 37 35  1  0  0  0  0
M  END
>  <minimizedAffinity>
-5.61959743

>  <minimizedRMSD>
0.365414321

$$$$
