REMARK  Name = 
REMARK  4 active torsions:
REMARK  status: ('A' for Active; 'I' for Inactive)
REMARK    1  A    between atoms: C_1  and  C_15
REMARK    2  A    between atoms: C_4  and  C_7
REMARK    3  A    between atoms: C_15  and  C_17
REMARK    4  A    between atoms: C_21  and  C_33
REMARK                            x       y       z     vdW  Elec       q    Type
REMARK                         _______ _______ _______ _____ _____    ______ ____
ROOT
ATOM      1  C   UNL     1      35.858  29.129  49.806  0.00  0.00    +0.000 A 
ATOM      2  C   UNL     1      34.822  29.619  50.551  0.00  0.00    +0.000 A 
ATOM      3  C   UNL     1      33.657  29.029  50.051  0.00  0.00    +0.000 A 
ATOM      4  C   UNL     1      34.071  28.193  49.002  0.00  0.00    +0.000 A 
ATOM      5  O   UNL     1      35.361  28.305  48.922  0.00  0.00    +0.000 OA
ATOM      6  H   UNL     1      34.867  30.333  51.381  0.00  0.00    +0.000 HD
ATOM      7  H   UNL     1      32.688  29.243  50.460  0.00  0.00    +0.000 HD
ENDROOT
BRANCH   4   9
ATOM      8  C   UNL     1      33.526  26.423  47.348  0.00  0.00    +0.000 A 
ATOM      9  C   UNL     1      33.124  27.407  48.236  0.00  0.00    +0.000 A 
ATOM     10  C   UNL     1      31.793  27.677  48.427  0.00  0.00    +0.000 A 
ATOM     11  C   UNL     1      30.850  26.947  47.715  0.00  0.00    +0.000 A 
ATOM     12  N   UNL     1      29.511  26.996  47.704  0.00  0.00    +0.000 N 
ATOM     13  N   UNL     1      29.086  26.074  46.838  0.00  0.00    +0.000 NA
ATOM     14  C   UNL     1      30.147  25.444  46.304  0.00  0.00    +0.000 A 
ATOM     15  C   UNL     1      31.307  25.977  46.843  0.00  0.00    +0.000 A 
ATOM     16  C   UNL     1      32.634  25.686  46.632  0.00  0.00    +0.000 A 
ATOM     17  H   UNL     1      34.594  26.221  47.208  0.00  0.00    +0.000 HD
ATOM     18  H   UNL     1      31.383  28.439  49.109  0.00  0.00    +0.000 HD
ATOM     19  H   UNL     1      28.877  27.636  48.265  0.00  0.00    +0.000 HD
ATOM     20  H   UNL     1      30.160  24.635  45.561  0.00  0.00    +0.000 HD
ATOM     21  H   UNL     1      32.979  24.928  45.949  0.00  0.00    +0.000 HD
ENDBRANCH   4   9
BRANCH   1  22
ATOM     22  C   UNL     1      37.230  29.528  50.050  0.00  0.00    +0.000 C 
ATOM     23  O   UNL     1      37.875  28.956  50.970  0.00  0.00    +0.000 OA
BRANCH  22  24
ATOM     24  C   UNL     1      37.782  30.569  49.214  0.00  0.00    +0.000 A 
ATOM     25  C   UNL     1      38.121  31.769  49.832  0.00  0.00    +0.000 A 
ATOM     26  C   UNL     1      38.657  32.793  49.049  0.00  0.00    +0.000 A 
ATOM     27  N   UNL     1      38.812  32.542  47.720  0.00  0.00    +0.000 NA
ATOM     28  C   UNL     1      38.480  31.388  47.154  0.00  0.00    +0.000 A 
ATOM     29  N   UNL     1      37.965  30.405  47.907  0.00  0.00    +0.000 NA
ATOM     30  H   UNL     1      37.967  31.886  50.893  0.00  0.00    +0.000 HD
ATOM     31  H   UNL     1      38.911  33.713  49.556  0.00  0.00    +0.000 HD
BRANCH  28  33
ATOM     32  C   UNL     1      39.681  31.808  45.039  0.00  0.00    +0.000 A 
ATOM     33  C   UNL     1      38.666  31.170  45.724  0.00  0.00    +0.000 A 
ATOM     34  C   UNL     1      37.849  30.332  45.005  0.00  0.00    +0.000 A 
ATOM     35  H   UNL     1      37.044  29.811  45.494  0.00  0.00    +0.000 HD
ATOM     36  C   UNL     1      38.042  30.136  43.641  0.00  0.00    +0.000 A 
ATOM     37  C   UNL     1      39.057  30.774  42.957  0.00  0.00    +0.000 A 
ATOM     38  C   UNL     1      39.872  31.614  43.687  0.00  0.00    +0.000 A 
ATOM     39  O   UNL     1      38.993  30.379  41.616  0.00  0.00    +0.000 OA
ATOM     40  C   UNL     1      38.116  29.268  41.561  0.00  0.00    +0.000 C 
ATOM     41  H   UNL     1      38.692  28.315  41.612  0.00  0.00    +0.000 HD
ATOM     42  O   UNL     1      37.334  29.341  42.754  0.00  0.00    +0.000 OA
ENDBRANCH  28  33
ENDBRANCH  22  24
ENDBRANCH   1  22
TORSDOF 4
