
 OpenBabel03272507123D

 42 47  0  0  0  0  0  0  0  0999 V2000
   35.7010   29.1570   49.9130 C   0  0  0  0  0  0  0  0  0  0  0  0
   34.6320   29.6450   50.6110 C   0  0  0  0  0  0  0  0  0  0  0  0
   33.4930   29.0390   50.0720 C   0  0  0  0  0  0  0  0  0  0  0  0
   33.9560   28.1960   49.0500 C   0  0  0  0  0  0  0  0  0  0  0  0
   35.2470   28.3190   49.0190 O   0  0  0  0  0  0  0  0  0  0  0  0
   34.6380   30.3690   51.4340 H   0  0  0  0  0  0  0  0  0  0  0  0
   32.5070   29.2480   50.4400 H   0  0  0  0  0  0  0  0  0  0  0  0
   33.4940   26.4230   47.3740 C   0  0  0  0  0  0  0  0  0  0  0  0
   33.0470   27.3930   48.2560 C   0  0  0  0  0  0  0  0  0  0  0  0
   31.7060   27.6310   48.4140 C   0  0  0  0  0  0  0  0  0  0  0  0
   30.7980   26.8840   47.6740 C   0  0  0  0  0  0  0  0  0  0  0  0
   29.4590   26.9020   47.6290 N   0  0  0  0  0  0  0  0  0  0  0  0
   29.0770   25.9760   46.7480 N   0  0  0  0  0  0  0  0  0  0  0  0
   30.1660   25.3730   46.2390 C   0  0  0  0  0  0  0  0  0  0  0  0
   31.2990   25.9290   46.8100 C   0  0  0  0  0  0  0  0  0  0  0  0
   32.6370   25.6700   46.6310 C   0  0  0  0  0  0  0  0  0  0  0  0
   34.5690   26.2460   47.2600 H   0  0  0  0  0  0  0  0  0  0  0  0
   31.2610   28.3800   49.0890 H   0  0  0  0  0  0  0  0  0  0  0  0
   28.7960   27.5250   48.1770 H   0  0  0  0  0  0  0  0  0  0  0  0
   30.2160   24.5680   45.4920 H   0  0  0  0  0  0  0  0  0  0  0  0
   33.0170   24.9230   45.9540 H   0  0  0  0  0  0  0  0  0  0  0  0
   37.0590   29.5720   50.2060 C   0  0  0  0  0  0  0  0  0  0  0  0
   37.7110   28.9410   51.0810 O   0  0  0  0  0  0  0  0  0  0  0  0
   37.5880   30.6960   49.4680 C   0  0  0  0  0  0  0  0  0  0  0  0
   37.5190   31.9460   50.0760 C   0  0  0  0  0  0  0  0  0  0  0  0
   38.0230   33.0500   49.3870 C   0  0  0  0  0  0  0  0  0  0  0  0
   38.5540   32.8230   48.1540 N   0  0  0  0  0  0  0  0  0  0  0  0
   38.6080   31.6200   47.5960 C   0  0  0  0  0  0  0  0  0  0  0  0
   38.1230   30.5600   48.2580 N   0  0  0  0  0  0  0  0  0  0  0  0
   37.0830   32.0390   51.0580 H   0  0  0  0  0  0  0  0  0  0  0  0
   37.9560   34.0070   49.8830 H   0  0  0  0  0  0  0  0  0  0  0  0
   40.0330   32.3770   45.7290 C   0  0  0  0  0  3  0  0  0  0  0  0
   39.1880   31.4300   46.2710 C   0  0  0  0  0  0  0  0  0  0  0  0
   38.9200   30.3160   45.5140 C   0  0  0  0  0  0  0  0  0  0  0  0
   38.2660   29.5500   45.8930 H   0  0  0  0  0  0  0  0  0  0  0  0
   39.4820   30.1520   44.2520 C   0  0  0  0  0  0  0  0  0  0  0  0
   40.3280   31.0990   43.7100 C   0  0  0  0  0  0  0  0  0  0  0  0
   40.5900   32.2150   44.4770 C   0  0  0  0  0  3  0  0  0  0  0  0
   40.7240   30.6550   42.4430 O   0  0  0  0  0  0  0  0  0  0  0  0
   40.3450   29.2930   42.3540 C   0  0  0  0  0  3  0  0  0  0  0  0
   41.1970   28.6320   42.6390 H   0  0  0  0  0  0  0  0  0  0  0  0
   39.3350   29.1130   43.3470 O   0  0  0  0  0  0  0  0  0  0  0  0
  1 22  1  0  0  0  0
  1  2  2  0  0  0  0
  2  6  1  0  0  0  0
  3  7  1  0  0  0  0
  3  2  1  0  0  0  0
  4  3  2  0  0  0  0
  5  4  1  0  0  0  0
  5  1  1  0  0  0  0
  8  9  1  0  0  0  0
  9 10  2  0  0  0  0
  9  4  1  0  0  0  0
 10 18  1  0  0  0  0
 11 10  1  0  0  0  0
 12 11  1  0  0  0  0
 12 19  1  0  0  0  0
 13 12  1  0  0  0  0
 14 13  2  0  0  0  0
 14 15  1  0  0  0  0
 15 11  2  0  0  0  0
 16 15  1  0  0  0  0
 16  8  2  0  0  0  0
 17  8  1  0  0  0  0
 20 14  1  0  0  0  0
 21 16  1  0  0  0  0
 22 23  2  0  0  0  0
 24 25  1  0  0  0  0
 24 22  1  0  0  0  0
 25 30  1  0  0  0  0
 26 31  1  0  0  0  0
 26 25  2  0  0  0  0
 27 26  1  0  0  0  0
 28 27  2  0  0  0  0
 28 29  1  0  0  0  0
 29 24  2  0  0  0  0
 32 33  1  0  0  0  0
 33 28  1  0  0  0  0
 34 35  1  0  0  0  0
 34 33  2  0  0  0  0
 36 34  1  0  0  0  0
 37 36  2  0  0  0  0
 37 38  1  0  0  0  0
 38 32  2  0  0  0  0
 39 37  1  0  0  0  0
 40 39  1  0  0  0  0
 40 41  1  0  0  0  0
 40 42  1  0  0  0  0
 42 36  1  0  0  0  0
M  END
>  <minimizedAffinity>
-7.89907455

>  <minimizedRMSD>
0.827908099

$$$$
