
 OpenBabel03272502183D

 35 38  0  0  1  0  0  0  0  0999 V2000
   37.2080   30.4650   49.1440 C   0  0  0  0  0  0  0  0  0  0  0  0
   37.3950   31.5770   49.9980 C   0  0  0  0  0  0  0  0  0  0  0  0
   38.2030   32.6260   49.5670 C   0  0  0  0  0  0  0  0  0  0  0  0
   38.7780   32.5060   48.3140 N   0  0  0  0  0  0  0  0  0  0  0  0
   38.5790   31.4450   47.5400 C   0  0  0  0  0  0  0  0  0  0  0  0
   37.7980   30.4300   47.9540 N   0  0  0  0  0  0  0  0  0  0  0  0
   36.9540   31.6890   50.9810 H   0  0  0  0  0  0  0  0  0  0  0  0
   38.3590   33.4850   50.2040 H   0  0  0  0  0  0  0  0  0  0  0  0
   40.0410   32.3190   45.7470 C   0  0  0  0  0  3  0  0  0  0  0  0
   39.1960   31.3500   46.2300 C   0  0  0  0  0  0  0  0  0  0  0  0
   38.9310   30.2610   45.4480 C   0  0  0  0  0  0  0  0  0  0  0  0
   38.2750   29.5060   45.8200 H   0  0  0  0  0  0  0  0  0  0  0  0
   39.5240   30.1870   44.2080 C   0  0  0  0  0  0  0  0  0  0  0  0
   40.3850   31.1330   43.6670 C   0  0  0  0  0  0  0  0  0  0  0  0
   40.6220   32.2170   44.4950 C   0  0  0  0  0  3  0  0  0  0  0  0
   40.7400   30.6670   42.4230 O   0  0  0  0  0  0  0  0  0  0  0  0
   39.7510   29.7420   42.0120 C   0  0  0  0  0  3  0  0  0  0  0  0
   40.1530   28.9840   41.3000 H   0  0  0  0  0  0  0  0  0  0  0  0
   39.3860   29.1690   43.2660 O   0  0  0  0  0  0  0  0  0  0  0  0
   36.1500   29.2310   49.8610 S   0  0  0  0  0  0  0  0  0  0  0  0
   33.7340   28.2440   49.1770 N   0  0  0  0  0  0  0  0  0  0  0  0
   34.4020   29.5080   49.3890 C   0  0  2  0  0  0  0  0  0  0  0  0
   34.3550   30.2760   48.0910 C   0  0  0  0  0  0  0  0  0  0  0  0
   33.3910   29.7490   47.2040 O   0  0  0  0  0  0  0  0  0  0  0  0
   33.8840   28.5020   46.8180 C   0  0  0  0  0  0  0  0  0  0  0  0
   34.2650   27.6280   47.9950 C   0  0  2  0  0  0  0  0  0  0  0  0
   33.7840   27.6460   50.0180 H   0  0  0  0  0  0  0  0  0  0  0  0
   33.9280   30.0310   50.2420 H   0  0  0  0  0  0  0  0  0  0  0  0
   35.3390   30.3850   47.6300 H   0  0  0  0  0  0  0  0  0  0  0  0
   34.0100   31.3190   48.3490 H   0  0  0  0  0  0  0  0  0  0  0  0
   33.0400   27.9960   46.2840 H   0  0  0  0  0  0  0  0  0  0  0  0
   34.7050   28.5740   46.0760 H   0  0  0  0  0  0  0  0  0  0  0  0
   35.3690   27.5770   48.0750 H   0  0  0  0  0  0  0  0  0  0  0  0
   33.7010   26.3430   47.8630 O   0  0  0  0  0  0  0  0  0  0  0  0
   33.9450   25.9390   46.9860 H   0  0  0  0  0  0  0  0  0  0  0  0
  1 20  1  0  0  0  0
  1  2  1  0  0  0  0
  2  7  1  0  0  0  0
  3  2  2  0  0  0  0
  3  8  1  0  0  0  0
  4  3  1  0  0  0  0
  5  6  1  0  0  0  0
  5  4  2  0  0  0  0
  6  1  2  0  0  0  0
  9 10  1  0  0  0  0
 10  5  1  0  0  0  0
 11 12  1  0  0  0  0
 11 10  2  0  0  0  0
 13 11  1  0  0  0  0
 14 13  2  0  0  0  0
 14 15  1  0  0  0  0
 15  9  2  0  0  0  0
 16 14  1  0  0  0  0
 17 16  1  0  0  0  0
 17 19  1  0  0  0  0
 18 17  1  0  0  0  0
 19 13  1  0  0  0  0
 21 22  1  0  0  0  0
 21 27  1  0  0  0  0
 22 20  1  0  0  0  0
 22 28  1  1  0  0  0
 23 30  1  0  0  0  0
 23 22  1  0  0  0  0
 24 23  1  0  0  0  0
 25 24  1  0  0  0  0
 25 26  1  0  0  0  0
 26 33  1  1  0  0  0
 26 21  1  0  0  0  0
 29 23  1  0  0  0  0
 31 25  1  0  0  0  0
 32 25  1  0  0  0  0
 34 26  1  0  0  0  0
 35 34  1  0  0  0  0
M  END
>  <minimizedAffinity>
-6.42852926

>  <minimizedRMSD>
1.24509776

$$$$
