REMARK  Name = 
REMARK  4 active torsions:
REMARK  status: ('A' for Active; 'I' for Inactive)
REMARK    1  A    between atoms: C_2  and  S_8
REMARK    2  A    between atoms: C_6  and  O_7
REMARK    3  A    between atoms: S_8  and  C_9
REMARK    4  A    between atoms: C_13  and  C_26
REMARK                            x       y       z     vdW  Elec       q    Type
REMARK                         _______ _______ _______ _____ _____    ______ ____
ROOT
ATOM      1  C   UNL     1      37.288  30.732  48.809  0.00  0.00    +0.000 A 
ATOM      2  C   UNL     1      37.223  31.867  49.649  0.00  0.00    +0.000 A 
ATOM      3  C   UNL     1      38.040  32.959  49.368  0.00  0.00    +0.000 A 
ATOM      4  N   UNL     1      38.874  32.855  48.269  0.00  0.00    +0.000 NA
ATOM      5  C   UNL     1      38.908  31.771  47.502  0.00  0.00    +0.000 A 
ATOM      6  N   UNL     1      38.118  30.715  47.772  0.00  0.00    +0.000 NA
ATOM      7  H   UNL     1      36.577  31.967  50.513  0.00  0.00    +0.000 HD
ATOM      8  H   UNL     1      38.006  33.837  49.998  0.00  0.00    +0.000 HD
ENDROOT
BRANCH   5  10
ATOM      9  C   UNL     1      41.074  31.205  46.450  0.00  0.00    +0.000 A 
ATOM     10  C   UNL     1      39.794  31.694  46.355  0.00  0.00    +0.000 A 
ATOM     11  C   UNL     1      39.344  32.122  45.138  0.00  0.00    +0.000 A 
ATOM     12  H   UNL     1      38.350  32.503  45.060  0.00  0.00    +0.000 HD
ATOM     13  C   UNL     1      40.197  32.043  44.062  0.00  0.00    +0.000 A 
ATOM     14  C   UNL     1      41.499  31.559  44.096  0.00  0.00    +0.000 A 
ATOM     15  C   UNL     1      41.909  31.138  45.349  0.00  0.00    +0.000 A 
ATOM     16  O   UNL     1      41.984  31.659  42.813  0.00  0.00    +0.000 OA
ATOM     17  C   UNL     1      41.207  32.628  42.135  0.00  0.00    +0.000 C 
ATOM     18  H   UNL     1      41.181  32.451  41.034  0.00  0.00    +0.000 HD
ATOM     19  O   UNL     1      39.934  32.424  42.746  0.00  0.00    +0.000 OA
ENDBRANCH   5  10
BRANCH   1  20
ATOM     20  S   UNL     1      36.176  29.444  49.322  0.00  0.00    +0.000 S 
BRANCH  20  22
ATOM     21  N   UNL     1      33.597  28.710  49.027  0.00  0.00    +0.000 NA
ATOM     22  C   UNL     1      34.440  29.881  48.937  0.00  0.00    +0.000 C 
ATOM     23  C   UNL     1      34.361  30.396  47.521  0.00  0.00    +0.000 C 
ATOM     24  O   UNL     1      33.253  29.861  46.829  0.00  0.00    +0.000 OA
ATOM     25  C   UNL     1      33.540  28.506  46.659  0.00  0.00    +0.000 C 
ATOM     26  C   UNL     1      33.922  27.817  47.953  0.00  0.00    +0.000 C 
ATOM     27  H   UNL     1      33.655  28.276  49.963  0.00  0.00    +0.000 HD
ATOM     28  H   UNL     1      34.126  30.615  49.704  0.00  0.00    +0.000 HD
ATOM     29  H   UNL     1      35.299  30.274  46.975  0.00  0.00    +0.000 HD
ATOM     30  H   UNL     1      34.181  31.507  47.594  0.00  0.00    +0.000 HD
ATOM     31  H   UNL     1      32.588  28.039  46.299  0.00  0.00    +0.000 HD
ATOM     32  H   UNL     1      34.284  28.320  45.858  0.00  0.00    +0.000 HD
ATOM     33  H   UNL     1      35.013  27.622  47.958  0.00  0.00    +0.000 HD
BRANCH  26  34
ATOM     34  O   UNL     1      33.187  26.626  48.117  0.00  0.00    +0.000 OA
ATOM     35  H   UNL     1      33.288  26.036  47.321  0.00  0.00    +0.000 HD
ENDBRANCH  26  34
ENDBRANCH  20  22
ENDBRANCH   1  20
TORSDOF 4
