
     RDKit          3D

 51 56  0  0  0  0  0  0  0  0999 V2000
   32.7075   28.2129   47.4406 N   0  0  0  0  0  0  0  0  0  0  0  0
   33.3021   27.7605   48.6513 C   0  0  0  0  0  0  0  0  0  0  0  0
   34.4793   28.5156   49.1382 C   0  0  0  0  0  0  0  0  0  0  0  0
   35.4192   29.0017   48.1289 C   0  0  0  0  0  0  0  0  0  0  0  0
   34.7178   29.4048   46.8198 C   0  0  0  0  0  0  0  0  0  0  0  0
   33.7563   28.2692   46.4470 C   0  0  0  0  0  0  0  0  0  0  0  0
   35.9440   30.7387   49.7826 C   0  0  0  0  0  0  0  0  0  0  0  0
   36.1992   30.1996   48.5284 C   0  0  0  0  0  0  0  0  0  0  0  0
   37.0986   30.7273   47.6419 C   0  0  0  0  0  0  0  0  0  0  0  0
   37.7933   31.8733   48.0283 C   0  0  0  0  0  0  0  0  0  0  0  0
   37.5393   32.4071   49.2673 C   0  0  0  0  0  0  0  0  0  0  0  0
   36.6305   31.8781   50.1723 C   0  0  0  0  0  0  0  0  0  0  0  0
   38.3277   33.5518   49.4720 O   0  0  0  0  0  0  0  0  0  0  0  0
   39.3311   33.4774   48.4573 C   0  0  0  0  0  0  0  0  0  0  0  0
   38.7630   32.6915   47.4387 O   0  0  0  0  0  0  0  0  0  0  0  0
   31.3389   28.5548   47.2044 C   0  0  0  0  0  0  0  0  0  0  0  0
   30.8676   29.3606   46.1754 C   0  0  0  0  0  0  0  0  0  0  0  0
   29.4951   29.5724   46.1041 C   0  0  0  0  0  0  0  0  0  0  0  0
   28.6981   28.9887   47.0310 N   0  0  0  0  0  0  0  0  0  0  0  0
   29.1758   28.2125   48.0186 C   0  0  0  0  0  0  0  0  0  0  0  0
   30.4977   28.0098   48.0859 N   0  0  0  0  0  0  0  0  0  0  0  0
   33.5762   26.6724   48.5324 H   0  0  0  0  0  0  0  0  0  0  0  0
   32.4936   27.7613   49.4266 H   0  0  0  0  0  0  0  0  0  0  0  0
   33.9889   29.4412   49.5906 H   0  0  0  0  0  0  0  0  0  0  0  0
   34.9750   27.9657   49.9479 H   0  0  0  0  0  0  0  0  0  0  0  0
   36.1039   28.1750   47.7927 H   0  0  0  0  0  0  0  0  0  0  0  0
   34.1487   30.3365   46.9182 H   0  0  0  0  0  0  0  0  0  0  0  0
   35.4825   29.4278   46.0227 H   0  0  0  0  0  0  0  0  0  0  0  0
   33.3050   28.5320   45.4581 H   0  0  0  0  0  0  0  0  0  0  0  0
   34.3042   27.3235   46.3422 H   0  0  0  0  0  0  0  0  0  0  0  0
   35.2741   30.4034   50.5619 H   0  0  0  0  0  0  0  0  0  0  0  0
   37.2742   30.2948   46.6919 H   0  0  0  0  0  0  0  0  0  0  0  0
   36.4773   32.3496   51.1377 H   0  0  0  0  0  0  0  0  0  0  0  0
   39.4723   34.5061   48.0159 H   0  0  0  0  0  0  0  0  0  0  0  0
   40.2859   33.0843   48.8097 H   0  0  0  0  0  0  0  0  0  0  0  0
   31.6009   29.7533   45.5202 H   0  0  0  0  0  0  0  0  0  0  0  0
   29.1504   30.1980   45.3018 H   0  0  0  0  0  0  0  0  0  0  0  0
   27.4723   28.4151   49.7708 C   0  0  0  0  0  0  0  0  0  0  0  0
   28.2635   27.6102   48.9889 C   0  0  0  0  0  0  0  0  0  0  0  0
   28.1904   26.2388   49.1261 C   0  0  0  0  0  0  0  0  0  0  0  0
   28.7901   25.5635   48.5364 H   0  0  0  0  0  0  0  0  0  0  0  0
   27.2879   25.7702   50.0805 C   0  0  0  0  0  0  0  0  0  0  0  0
   26.4880   26.5663   50.8717 C   0  0  0  0  0  0  0  0  0  0  0  0
   26.5817   27.9329   50.7134 C   0  0  0  0  0  0  0  0  0  0  0  0
   25.7444   25.7081   51.6792 O   0  0  0  0  0  0  0  0  0  0  0  0
   25.7778   24.3988   51.1447 C   0  0  1  0  0  0  0  0  0  0  0  0
   25.8752   23.6054   51.9112 H   0  0  0  0  0  0  0  0  0  0  0  0
   27.0053   24.4357   50.4327 O   0  0  0  0  0  0  0  0  0  0  0  0
   27.4869   29.5084   49.7067 H   0  0  0  0  0  0  0  0  0  0  0  0
   25.9546   28.5650   51.3335 H   0  0  0  0  0  0  0  0  0  0  0  0
   24.9395   24.1863   50.4563 H   0  0  0  0  0  0  0  0  0  0  0  0
  1  2  1  0
  2  3  1  0
  4  8  1  0
  4  3  1  0
  5  4  1  0
  6  5  1  0
  6  1  1  0
  7 12  2  0
  8  7  1  0
  9 10  1  0
  9  8  2  0
 10 11  2  0
 11 13  1  0
 11 12  1  0
 14 13  1  0
 15 10  1  0
 15 14  1  0
 16  1  1  0
 16 21  1  0
 17 16  2  0
 18 17  1  0
 18 19  2  0
 19 20  1  0
 20 21  2  0
  2 22  1  0
  2 23  1  0
  3 24  1  0
  3 25  1  0
  4 26  1  0
  5 27  1  0
  5 28  1  0
  6 29  1  0
  6 30  1  0
  7 31  1  0
  9 32  1  0
 12 33  1  0
 14 34  1  0
 14 35  1  0
 17 36  1  0
 18 37  1  0
 38 39  2  0
 39 40  1  0
 40 41  1  0
 40 42  2  0
 42 43  1  0
 43 44  2  0
 43 45  1  0
 45 46  1  0
 46 47  1  1
 46 48  1  0
 44 38  1  0
 48 42  1  0
 38 49  1  0
 44 50  1  0
 46 51  1  0
 20 39  1  0
M  ISO  8  22  13  23  13  24  13  25  13  26  13  27  13  28  13  29  13
M  ISO  8  30  13  31  14  32  14  33  14  34  13  35  13  36  14  37  14
M  ISO  2  41  16  47   8
M  END
>  <DihAtoms>  (1) 
18,19,38,37

>  <DihDeg>  (1) 
-0.0013061532376193886

$$$$
