
 OpenBabel03272510163D

 30 33  0  0  0  0  0  0  0  0999 V2000
   37.2210   29.5830   51.2560 Br  0  0  0  0  0  0  0  0  0  0  0  0
   36.0190   29.3350   49.7890 C   0  0  0  0  0  0  0  0  0  0  0  0
   36.1100   30.1310   48.6560 C   0  0  0  0  0  0  0  0  0  0  0  0
   35.2100   29.8890   47.6460 C   0  0  0  0  0  0  0  0  0  0  0  0
   34.2300   28.9090   47.6950 C   0  0  0  0  0  0  0  0  0  0  0  0
   34.1770   28.1460   48.8340 C   0  0  0  0  0  0  0  0  0  0  0  0
   35.0650   28.3610   49.8690 C   0  0  0  0  0  0  0  0  0  0  0  0
   35.2750   30.5080   46.7540 H   0  0  0  0  0  0  0  0  0  0  0  0
   33.4190   27.3680   48.9030 H   0  0  0  0  0  0  0  0  0  0  0  0
   34.9870   27.7280   50.7620 H   0  0  0  0  0  0  0  0  0  0  0  0
   31.9760   28.5580   46.9060 C   0  0  0  0  0  3  0  0  0  0  0  0
   33.3100   28.7060   46.5900 C   0  0  0  0  0  0  0  0  0  0  0  0
   33.7000   28.6550   45.2680 C   0  0  0  0  0  0  0  0  0  0  0  0
   34.7320   28.7690   45.0170 H   0  0  0  0  0  0  0  0  0  0  0  0
   32.7530   28.4590   44.2930 C   0  0  0  0  0  0  0  0  0  0  0  0
   31.4050   28.3100   44.6150 C   0  0  0  0  0  0  0  0  0  0  0  0
   30.9820   28.3560   45.9420 C   0  0  0  0  0  3  0  0  0  0  0  0
   30.6190   28.1210   43.4700 O   0  0  0  0  0  0  0  0  0  0  0  0
   31.4760   28.5830   42.4160 C   0  0  0  0  0  3  0  0  0  0  0  0
   31.2690   28.0590   41.4840 H   0  0  0  0  0  0  0  0  0  0  0  0
   32.7900   28.3570   42.8920 O   0  0  0  0  0  0  0  0  0  0  0  0
   37.9810   33.1710   49.3870 C   0  0  0  0  0  0  0  0  0  0  0  0
   39.0160   33.1740   48.4250 C   0  0  0  0  0  0  0  0  0  0  0  0
   39.0530   32.1150   47.5260 C   0  0  0  0  0  0  0  0  0  0  0  0
   38.1040   31.1230   47.6030 N   0  0  0  0  0  0  0  0  0  0  0  0
   37.1260   31.1750   48.5570 C   0  0  0  0  0  0  0  0  0  0  0  0
   37.0750   32.1920   49.4360 N   0  0  0  0  0  0  0  0  0  0  0  0
   37.9920   34.0140   50.0660 H   0  0  0  0  0  0  0  0  0  0  0  0
   39.7690   33.9480   48.3520 H   0  0  0  0  0  0  0  0  0  0  0  0
   39.7940   32.0070   46.7450 H   0  0  0  0  0  0  0  0  0  0  0  0
  2  7  1  0  0  0  0
  2  1  1  0  0  0  0
  3  2  2  0  0  0  0
  4  5  2  0  0  0  0
  4  3  1  0  0  0  0
  5  6  1  0  0  0  0
  6  9  1  0  0  0  0
  6  7  2  0  0  0  0
  7 10  1  0  0  0  0
  8  4  1  0  0  0  0
 12 11  1  0  0  0  0
 12  5  1  0  0  0  0
 13 12  2  0  0  0  0
 14 13  1  0  0  0  0
 15 16  2  0  0  0  0
 15 13  1  0  0  0  0
 16 17  1  0  0  0  0
 17 11  2  0  0  0  0
 18 16  1  0  0  0  0
 19 21  1  0  0  0  0
 19 18  1  0  0  0  0
 20 19  1  0  0  0  0
 21 15  1  0  0  0  0
 22 27  1  0  0  0  0
 22 28  1  0  0  0  0
 23 22  2  0  0  0  0
 24 25  2  0  0  0  0
 24 23  1  0  0  0  0
 25 26  1  0  0  0  0
 26  3  1  0  0  0  0
 26 27  2  0  0  0  0
 29 23  1  0  0  0  0
 30 24  1  0  0  0  0
M  END
>  <minimizedAffinity>
-5.97871828

>  <minimizedRMSD>
0.53764087

$$$$
