
 OpenBabel03272510263D

 47 52  0  0  1  0  0  0  0  0999 V2000
   38.8700   31.7600   41.4400 N   0  0  0  0  0  0  0  0  0  0  0  0
   38.9240   33.1870   41.5860 C   0  0  1  0  0  0  0  0  0  0  0  0
   37.6350   33.7940   41.2860 C   0  0  0  0  0  0  0  0  0  0  0  0
   37.3140   33.5410   39.9460 O   0  0  0  0  0  0  0  0  0  0  0  0
   37.3350   32.2130   39.5860 C   0  0  0  0  0  0  0  0  0  0  0  0
   38.5690   31.5010   40.0480 C   0  0  1  0  0  0  0  0  0  0  0  0
   38.4490   31.1850   42.1270 H   0  0  0  0  0  0  0  0  0  0  0  0
   39.7050   33.5710   40.9160 H   0  0  0  0  0  0  0  0  0  0  0  0
   37.7870   34.9170   41.3090 H   0  0  0  0  0  0  0  0  0  0  0  0
   36.7340   33.6040   41.8050 H   0  0  0  0  0  0  0  0  0  0  0  0
   36.3990   31.6950   39.9440 H   0  0  0  0  0  0  0  0  0  0  0  0
   37.2740   32.1510   38.4850 H   0  0  0  0  0  0  0  0  0  0  0  0
   38.3100   30.4010   40.0170 H   0  0  0  0  0  0  0  0  0  0  0  0
   39.9650   32.4710   38.0900 C   0  0  0  0  0  3  0  0  0  0  0  0
   39.7420   31.6650   39.1860 C   0  0  0  0  0  0  0  0  0  0  0  0
   40.7840   30.8260   39.6020 C   0  0  0  0  0  0  0  0  0  0  0  0
   40.7620   30.1310   40.4510 H   0  0  0  0  0  0  0  0  0  0  0  0
   42.0070   30.8090   38.9270 C   0  0  0  0  0  0  0  0  0  0  0  0
   42.1410   31.6460   37.8450 C   0  0  0  0  0  0  0  0  0  0  0  0
   41.1530   32.4800   37.4030 C   0  0  0  0  0  3  0  0  0  0  0  0
   43.4280   31.4660   37.3290 O   0  0  0  0  0  0  0  0  0  0  0  0
   44.0060   30.3650   37.9840 C   0  0  0  0  0  3  0  0  0  0  0  0
   45.0590   30.5550   38.2880 H   0  0  0  0  0  0  0  0  0  0  0  0
   43.2000   30.1030   39.0980 O   0  0  0  0  0  0  0  0  0  0  0  0
   39.3070   33.4510   42.9310 O   0  0  0  0  0  0  0  0  0  0  0  0
   36.1790   30.1940   46.7280 C   0  0  0  0  0  0  0  0  0  0  0  0
   37.0660   30.7560   47.6360 C   0  0  0  0  0  0  0  0  0  0  0  0
   38.0560   31.6430   47.2140 C   0  0  0  0  0  0  0  0  0  0  0  0
   38.0950   31.9210   45.8520 C   0  0  0  0  0  0  0  0  0  0  0  0
   38.9740   32.7610   45.2050 N   0  0  0  0  0  0  0  0  0  0  0  0
   38.6280   32.7150   43.9030 C   0  0  0  0  0  0  0  0  0  0  0  0
   37.6000   31.9030   43.7340 N   0  0  0  0  0  0  0  0  0  0  0  0
   37.2380   31.3890   44.9230 C   0  0  0  0  0  0  0  0  0  0  0  0
   36.2540   30.5010   45.3780 C   0  0  0  0  0  0  0  0  0  0  0  0
   35.4030   29.5030   47.0370 H   0  0  0  0  0  0  0  0  0  0  0  0
   38.7580   32.0920   47.9030 H   0  0  0  0  0  0  0  0  0  0  0  0
   39.7490   33.3140   45.6520 H   0  0  0  0  0  0  0  0  0  0  0  0
   35.5740   30.0760   44.6520 H   0  0  0  0  0  0  0  0  0  0  0  0
   37.5640   30.2820   51.3330 C   0  0  0  0  0  0  0  0  0  0  0  0
   37.8410   30.7000   50.0310 C   0  0  0  0  0  0  0  0  0  0  0  0
   36.9420   30.4020   49.0350 C   0  0  0  0  0  0  0  0  0  0  0  0
   35.8070   29.7020   49.3930 N   0  0  0  0  0  0  0  0  0  0  0  0
   35.5610   29.3100   50.6600 C   0  0  0  0  0  0  0  0  0  0  0  0
   36.4270   29.5960   51.6110 N   0  0  0  0  0  0  0  0  0  0  0  0
   38.2960   30.5350   52.0840 H   0  0  0  0  0  0  0  0  0  0  0  0
   38.7240   31.2460   49.7450 H   0  0  0  0  0  0  0  0  0  0  0  0
   34.6430   28.7710   50.8060 H   0  0  0  0  0  0  0  0  0  0  0  0
  1  2  1  0  0  0  0
  1  7  1  0  0  0  0
  2  8  1  6  0  0  0
  2 25  1  0  0  0  0
  3  9  1  0  0  0  0
  3  2  1  0  0  0  0
  3 10  1  0  0  0  0
  4  3  1  0  0  0  0
  5 11  1  0  0  0  0
  5  4  1  0  0  0  0
  5  6  1  0  0  0  0
  6 13  1  6  0  0  0
  6  1  1  0  0  0  0
 12  5  1  0  0  0  0
 14 15  1  0  0  0  0
 15 16  2  0  0  0  0
 15  6  1  0  0  0  0
 16 17  1  0  0  0  0
 18 24  1  0  0  0  0
 18 16  1  0  0  0  0
 19 18  2  0  0  0  0
 20 19  1  0  0  0  0
 20 14  2  0  0  0  0
 21 19  1  0  0  0  0
 21 22  1  0  0  0  0
 22 23  1  0  0  0  0
 22 24  1  0  0  0  0
 25 31  1  0  0  0  0
 26 35  1  0  0  0  0
 26 27  1  0  0  0  0
 27 41  1  0  0  0  0
 28 27  2  0  0  0  0
 28 36  1  0  0  0  0
 29 28  1  0  0  0  0
 30 37  1  0  0  0  0
 30 29  1  0  0  0  0
 31 30  1  0  0  0  0
 32 31  2  0  0  0  0
 32 33  1  0  0  0  0
 33 34  1  0  0  0  0
 33 29  2  0  0  0  0
 34 26  2  0  0  0  0
 38 34  1  0  0  0  0
 39 44  1  0  0  0  0
 39 45  1  0  0  0  0
 40 39  2  0  0  0  0
 41 42  2  0  0  0  0
 41 40  1  0  0  0  0
 42 43  1  0  0  0  0
 43 47  1  0  0  0  0
 43 44  2  0  0  0  0
 46 40  1  0  0  0  0
M  END
>  <minimizedAffinity>
-6.07333326

>  <minimizedRMSD>
0.842686415

$$$$
