
 OpenBabel03272510263D

 47 52  0  0  1  0  0  0  0  0999 V2000
   39.2110   31.3840   41.7730 N   0  0  0  0  0  0  0  0  0  0  0  0
   39.3190   32.8150   41.7430 C   0  0  1  0  0  0  0  0  0  0  0  0
   38.1170   33.4210   41.1860 C   0  0  0  0  0  0  0  0  0  0  0  0
   37.9700   33.0030   39.8570 O   0  0  0  0  0  0  0  0  0  0  0  0
   37.9710   31.6390   39.6760 C   0  0  0  0  0  0  0  0  0  0  0  0
   39.0910   30.9530   40.3960 C   0  0  1  0  0  0  0  0  0  0  0  0
   38.6700   30.9200   42.4590 H   0  0  0  0  0  0  0  0  0  0  0  0
   40.2040   33.0800   41.1480 H   0  0  0  0  0  0  0  0  0  0  0  0
   38.3230   34.5310   41.0880 H   0  0  0  0  0  0  0  0  0  0  0  0
   37.1450   33.3310   41.5910 H   0  0  0  0  0  0  0  0  0  0  0  0
   36.9690   31.2050   39.9590 H   0  0  0  0  0  0  0  0  0  0  0  0
   38.0590   31.4330   38.5940 H   0  0  0  0  0  0  0  0  0  0  0  0
   38.7820   29.8680   40.4680 H   0  0  0  0  0  0  0  0  0  0  0  0
   41.6210   30.4900   40.0650 C   0  0  0  0  0  3  0  0  0  0  0  0
   40.3790   30.9600   39.6970 C   0  0  0  0  0  0  0  0  0  0  0  0
   40.2560   31.5670   38.4400 C   0  0  0  0  0  0  0  0  0  0  0  0
   39.3420   31.9890   38.0060 H   0  0  0  0  0  0  0  0  0  0  0  0
   41.3590   31.6910   37.5910 C   0  0  0  0  0  0  0  0  0  0  0  0
   42.5590   31.1920   38.0410 C   0  0  0  0  0  0  0  0  0  0  0  0
   42.7250   30.5940   39.2560 C   0  0  0  0  0  3  0  0  0  0  0  0
   43.5110   31.4210   37.0410 O   0  0  0  0  0  0  0  0  0  0  0  0
   42.9230   32.2430   36.0650 C   0  0  0  0  0  3  0  0  0  0  0  0
   43.1440   31.8990   35.0310 H   0  0  0  0  0  0  0  0  0  0  0  0
   41.5460   32.2310   36.3160 O   0  0  0  0  0  0  0  0  0  0  0  0
   39.5270   33.2430   43.0840 O   0  0  0  0  0  0  0  0  0  0  0  0
   36.1290   30.2460   46.8630 C   0  0  0  0  0  0  0  0  0  0  0  0
   37.0800   30.6970   47.7690 C   0  0  0  0  0  0  0  0  0  0  0  0
   38.1490   31.4880   47.3500 C   0  0  0  0  0  0  0  0  0  0  0  0
   38.2000   31.7870   45.9930 C   0  0  0  0  0  0  0  0  0  0  0  0
   39.1520   32.5460   45.3490 N   0  0  0  0  0  0  0  0  0  0  0  0
   38.7880   32.5600   44.0520 C   0  0  0  0  0  0  0  0  0  0  0  0
   37.6810   31.8600   43.8820 N   0  0  0  0  0  0  0  0  0  0  0  0
   37.2830   31.3620   45.0660 C   0  0  0  0  0  0  0  0  0  0  0  0
   36.2190   30.5700   45.5190 C   0  0  0  0  0  0  0  0  0  0  0  0
   35.2910   29.6300   47.1710 H   0  0  0  0  0  0  0  0  0  0  0  0
   38.9020   31.8500   48.0370 H   0  0  0  0  0  0  0  0  0  0  0  0
   39.9850   33.0090   45.7950 H   0  0  0  0  0  0  0  0  0  0  0  0
   35.4910   30.2290   44.7940 H   0  0  0  0  0  0  0  0  0  0  0  0
   37.5430   30.1610   51.4630 C   0  0  0  0  0  0  0  0  0  0  0  0
   37.8410   30.5860   50.1660 C   0  0  0  0  0  0  0  0  0  0  0  0
   36.9370   30.3310   49.1630 C   0  0  0  0  0  0  0  0  0  0  0  0
   35.7770   29.6660   49.5080 N   0  0  0  0  0  0  0  0  0  0  0  0
   35.5120   29.2680   50.7690 C   0  0  0  0  0  0  0  0  0  0  0  0
   36.3830   29.5120   51.7270 N   0  0  0  0  0  0  0  0  0  0  0  0
   38.2800   30.3800   52.2200 H   0  0  0  0  0  0  0  0  0  0  0  0
   38.7440   31.1040   49.8920 H   0  0  0  0  0  0  0  0  0  0  0  0
   34.5750   28.7590   50.9040 H   0  0  0  0  0  0  0  0  0  0  0  0
  1  7  1  0  0  0  0
  2  8  1  6  0  0  0
  2  1  1  0  0  0  0
  2 25  1  0  0  0  0
  3 10  1  0  0  0  0
  3  2  1  0  0  0  0
  4  3  1  0  0  0  0
  5  4  1  0  0  0  0
  5 11  1  0  0  0  0
  5  6  1  0  0  0  0
  6 13  1  1  0  0  0
  6  1  1  0  0  0  0
  9  3  1  0  0  0  0
 12  5  1  0  0  0  0
 15 14  1  0  0  0  0
 15  6  1  0  0  0  0
 16 15  2  0  0  0  0
 17 16  1  0  0  0  0
 18 19  2  0  0  0  0
 18 16  1  0  0  0  0
 19 20  1  0  0  0  0
 20 14  2  0  0  0  0
 21 19  1  0  0  0  0
 22 24  1  0  0  0  0
 22 21  1  0  0  0  0
 23 22  1  0  0  0  0
 24 18  1  0  0  0  0
 25 31  1  0  0  0  0
 26 35  1  0  0  0  0
 26 27  1  0  0  0  0
 27 41  1  0  0  0  0
 28 27  2  0  0  0  0
 28 36  1  0  0  0  0
 29 28  1  0  0  0  0
 30 37  1  0  0  0  0
 30 29  1  0  0  0  0
 31 30  1  0  0  0  0
 32 31  2  0  0  0  0
 32 33  1  0  0  0  0
 33 34  1  0  0  0  0
 33 29  2  0  0  0  0
 34 26  2  0  0  0  0
 38 34  1  0  0  0  0
 39 44  1  0  0  0  0
 39 45  1  0  0  0  0
 40 39  2  0  0  0  0
 41 42  2  0  0  0  0
 41 40  1  0  0  0  0
 42 43  1  0  0  0  0
 43 47  1  0  0  0  0
 43 44  2  0  0  0  0
 46 40  1  0  0  0  0
M  END
>  <minimizedAffinity>
-5.94514132

>  <minimizedRMSD>
1.14408827

$$$$
