
 OpenBabel03272510163D

 30 33  0  0  0  0  0  0  0  0999 V2000
   37.5090   29.2340   50.8960 Br  0  0  0  0  0  0  0  0  0  0  0  0
   36.0630   29.3000   49.6450 C   0  0  0  0  0  0  0  0  0  0  0  0
   36.0200   30.2810   48.6650 C   0  0  0  0  0  0  0  0  0  0  0  0
   34.9480   30.2600   47.8040 C   0  0  0  0  0  0  0  0  0  0  0  0
   33.9240   29.3270   47.8600 C   0  0  0  0  0  0  0  0  0  0  0  0
   34.0080   28.3760   48.8450 C   0  0  0  0  0  0  0  0  0  0  0  0
   35.0690   28.3670   49.7280 C   0  0  0  0  0  0  0  0  0  0  0  0
   34.9070   31.0240   47.0320 H   0  0  0  0  0  0  0  0  0  0  0  0
   33.2190   27.6300   48.9160 H   0  0  0  0  0  0  0  0  0  0  0  0
   35.0980   27.5880   50.5010 H   0  0  0  0  0  0  0  0  0  0  0  0
   32.7710   30.4310   46.0490 C   0  0  0  0  0  3  0  0  0  0  0  0
   32.8190   29.3630   46.9180 C   0  0  0  0  0  0  0  0  0  0  0  0
   31.8360   28.3950   46.8570 C   0  0  0  0  0  0  0  0  0  0  0  0
   31.8670   27.5640   47.5260 H   0  0  0  0  0  0  0  0  0  0  0  0
   30.8290   28.5170   45.9300 C   0  0  0  0  0  0  0  0  0  0  0  0
   30.7830   29.5990   45.0510 C   0  0  0  0  0  0  0  0  0  0  0  0
   31.7620   30.5900   45.0920 C   0  0  0  0  0  3  0  0  0  0  0  0
   29.6760   29.5220   44.1960 O   0  0  0  0  0  0  0  0  0  0  0  0
   29.2890   28.1430   44.2990 C   0  0  0  0  0  3  0  0  0  0  0  0
   28.2180   28.0230   44.1430 H   0  0  0  0  0  0  0  0  0  0  0  0
   29.7020   27.7470   45.5940 O   0  0  0  0  0  0  0  0  0  0  0  0
   38.0380   33.2190   49.4200 C   0  0  0  0  0  0  0  0  0  0  0  0
   39.0460   33.2040   48.4310 C   0  0  0  0  0  0  0  0  0  0  0  0
   39.0140   32.1680   47.5050 C   0  0  0  0  0  0  0  0  0  0  0  0
   38.0260   31.2150   47.5830 N   0  0  0  0  0  0  0  0  0  0  0  0
   37.0770   31.2830   48.5640 C   0  0  0  0  0  0  0  0  0  0  0  0
   37.0920   32.2780   49.4690 N   0  0  0  0  0  0  0  0  0  0  0  0
   38.1020   34.0420   50.1200 H   0  0  0  0  0  0  0  0  0  0  0  0
   39.8290   33.9470   48.3570 H   0  0  0  0  0  0  0  0  0  0  0  0
   39.7290   32.0490   46.7010 H   0  0  0  0  0  0  0  0  0  0  0  0
  2  7  1  0  0  0  0
  2  1  1  0  0  0  0
  3  2  2  0  0  0  0
  4  5  2  0  0  0  0
  4  3  1  0  0  0  0
  5  6  1  0  0  0  0
  6  9  1  0  0  0  0
  6  7  2  0  0  0  0
  7 10  1  0  0  0  0
  8  4  1  0  0  0  0
 11 12  1  0  0  0  0
 12  5  1  0  0  0  0
 13 12  2  0  0  0  0
 13 14  1  0  0  0  0
 15 13  1  0  0  0  0
 16 17  1  0  0  0  0
 16 15  2  0  0  0  0
 17 11  2  0  0  0  0
 18 19  1  0  0  0  0
 18 16  1  0  0  0  0
 19 21  1  0  0  0  0
 20 19  1  0  0  0  0
 21 15  1  0  0  0  0
 22 27  1  0  0  0  0
 22 28  1  0  0  0  0
 23 22  2  0  0  0  0
 24 25  2  0  0  0  0
 24 23  1  0  0  0  0
 25 26  1  0  0  0  0
 26  3  1  0  0  0  0
 26 27  2  0  0  0  0
 29 23  1  0  0  0  0
 30 24  1  0  0  0  0
M  END
>  <minimizedAffinity>
-6.12872601

>  <minimizedRMSD>
0.418594927

$$$$
