
 OpenBabel03272510163D

 30 33  0  0  0  0  0  0  0  0999 V2000
   37.4870   29.2250   50.8830 Br  0  0  0  0  0  0  0  0  0  0  0  0
   36.0520   29.2920   49.6180 C   0  0  0  0  0  0  0  0  0  0  0  0
   36.0170   30.2760   48.6410 C   0  0  0  0  0  0  0  0  0  0  0  0
   34.9530   30.2560   47.7700 C   0  0  0  0  0  0  0  0  0  0  0  0
   33.9290   29.3220   47.8150 C   0  0  0  0  0  0  0  0  0  0  0  0
   34.0050   28.3690   48.7980 C   0  0  0  0  0  0  0  0  0  0  0  0
   35.0590   28.3580   49.6900 C   0  0  0  0  0  0  0  0  0  0  0  0
   34.9170   31.0230   46.9990 H   0  0  0  0  0  0  0  0  0  0  0  0
   33.2160   27.6210   48.8600 H   0  0  0  0  0  0  0  0  0  0  0  0
   35.0810   27.5780   50.4610 H   0  0  0  0  0  0  0  0  0  0  0  0
   32.0140   28.2500   46.8080 C   0  0  0  0  0  3  0  0  0  0  0  0
   32.8320   29.3590   46.8630 C   0  0  0  0  0  0  0  0  0  0  0  0
   32.5790   30.4290   46.0290 C   0  0  0  0  0  0  0  0  0  0  0  0
   33.2070   31.2910   46.0690 H   0  0  0  0  0  0  0  0  0  0  0  0
   31.5150   30.3690   45.1620 C   0  0  0  0  0  0  0  0  0  0  0  0
   30.6890   29.2470   45.1080 C   0  0  0  0  0  0  0  0  0  0  0  0
   30.9220   28.1520   45.9390 C   0  0  0  0  0  3  0  0  0  0  0  0
   29.6720   29.4000   44.1560 O   0  0  0  0  0  0  0  0  0  0  0  0
   29.6540   30.8190   43.9350 C   0  0  0  0  0  3  0  0  0  0  0  0
   29.3310   31.0540   42.9220 H   0  0  0  0  0  0  0  0  0  0  0  0
   30.9780   31.2430   44.2020 O   0  0  0  0  0  0  0  0  0  0  0  0
   38.0320   33.2080   49.4290 C   0  0  0  0  0  0  0  0  0  0  0  0
   39.0420   33.2020   48.4420 C   0  0  0  0  0  0  0  0  0  0  0  0
   39.0130   32.1760   47.5050 C   0  0  0  0  0  0  0  0  0  0  0  0
   38.0250   31.2220   47.5720 N   0  0  0  0  0  0  0  0  0  0  0  0
   37.0740   31.2800   48.5520 C   0  0  0  0  0  0  0  0  0  0  0  0
   37.0870   32.2660   49.4670 N   0  0  0  0  0  0  0  0  0  0  0  0
   38.0950   34.0240   50.1370 H   0  0  0  0  0  0  0  0  0  0  0  0
   39.8250   33.9460   48.3770 H   0  0  0  0  0  0  0  0  0  0  0  0
   39.7290   32.0660   46.7020 H   0  0  0  0  0  0  0  0  0  0  0  0
  2  7  1  0  0  0  0
  2  1  1  0  0  0  0
  3  2  2  0  0  0  0
  4  5  2  0  0  0  0
  4  3  1  0  0  0  0
  5  6  1  0  0  0  0
  6  9  1  0  0  0  0
  6  7  2  0  0  0  0
  7 10  1  0  0  0  0
  8  4  1  0  0  0  0
 11 12  1  0  0  0  0
 12  5  1  0  0  0  0
 13 14  1  0  0  0  0
 13 12  2  0  0  0  0
 15 13  1  0  0  0  0
 16 15  2  0  0  0  0
 16 17  1  0  0  0  0
 17 11  2  0  0  0  0
 18 16  1  0  0  0  0
 19 18  1  0  0  0  0
 19 21  1  0  0  0  0
 20 19  1  0  0  0  0
 21 15  1  0  0  0  0
 22 27  1  0  0  0  0
 22 28  1  0  0  0  0
 23 22  2  0  0  0  0
 24 25  2  0  0  0  0
 24 23  1  0  0  0  0
 25 26  1  0  0  0  0
 26  3  1  0  0  0  0
 26 27  2  0  0  0  0
 29 23  1  0  0  0  0
 30 24  1  0  0  0  0
M  END
>  <minimizedAffinity>
-6.15980768

>  <minimizedRMSD>
0.647506475

$$$$
