REMARK  Name = 
REMARK  3 active torsions:
REMARK  status: ('A' for Active; 'I' for Inactive)
REMARK    1  A    between atoms: N_1  and  C_16
REMARK    2  A    between atoms: C_4  and  C_8
REMARK    3  A    between atoms: C_20  and  C_39
REMARK                            x       y       z     vdW  Elec       q    Type
REMARK                         _______ _______ _______ _____ _____    ______ ____
ROOT
ATOM      1  N   UNL     1      32.708  28.213  47.441  0.00  0.00    +0.000 N 
ATOM      2  C   UNL     1      33.302  27.761  48.651  0.00  0.00    +0.000 C 
ATOM      3  C   UNL     1      34.479  28.516  49.138  0.00  0.00    +0.000 C 
ATOM      4  C   UNL     1      35.419  29.002  48.129  0.00  0.00    +0.000 C 
ATOM      5  C   UNL     1      34.718  29.405  46.820  0.00  0.00    +0.000 C 
ATOM      6  C   UNL     1      33.756  28.269  46.447  0.00  0.00    +0.000 C 
ATOM      7  H   UNL     1      33.576  26.672  48.532  0.00  0.00    +0.000 HD
ATOM      8  H   UNL     1      32.494  27.761  49.427  0.00  0.00    +0.000 HD
ATOM      9  H   UNL     1      33.989  29.441  49.591  0.00  0.00    +0.000 HD
ATOM     10  H   UNL     1      34.975  27.966  49.948  0.00  0.00    +0.000 HD
ATOM     11  H   UNL     1      36.104  28.175  47.793  0.00  0.00    +0.000 HD
ATOM     12  H   UNL     1      34.149  30.337  46.918  0.00  0.00    +0.000 HD
ATOM     13  H   UNL     1      35.483  29.428  46.023  0.00  0.00    +0.000 HD
ATOM     14  H   UNL     1      33.305  28.532  45.458  0.00  0.00    +0.000 HD
ATOM     15  H   UNL     1      34.304  27.323  46.342  0.00  0.00    +0.000 HD
ENDROOT
BRANCH   4  17
ATOM     16  C   UNL     1      35.944  30.739  49.783  0.00  0.00    +0.000 A 
ATOM     17  C   UNL     1      36.199  30.200  48.528  0.00  0.00    +0.000 A 
ATOM     18  C   UNL     1      37.099  30.727  47.642  0.00  0.00    +0.000 A 
ATOM     19  C   UNL     1      37.793  31.873  48.028  0.00  0.00    +0.000 A 
ATOM     20  C   UNL     1      37.539  32.407  49.267  0.00  0.00    +0.000 A 
ATOM     21  C   UNL     1      36.630  31.878  50.172  0.00  0.00    +0.000 A 
ATOM     22  O   UNL     1      38.328  33.552  49.472  0.00  0.00    +0.000 OA
ATOM     23  C   UNL     1      39.331  33.477  48.457  0.00  0.00    +0.000 C 
ATOM     24  O   UNL     1      38.763  32.691  47.439  0.00  0.00    +0.000 OA
ATOM     25  H   UNL     1      35.274  30.403  50.562  0.00  0.00    +0.000 HD
ATOM     26  H   UNL     1      37.274  30.295  46.692  0.00  0.00    +0.000 HD
ATOM     27  H   UNL     1      36.477  32.350  51.138  0.00  0.00    +0.000 HD
ATOM     28  H   UNL     1      39.472  34.506  48.016  0.00  0.00    +0.000 HD
ATOM     29  H   UNL     1      40.286  33.084  48.810  0.00  0.00    +0.000 HD
ENDBRANCH   4  17
BRANCH   1  30
ATOM     30  C   UNL     1      31.339  28.555  47.204  0.00  0.00    +0.000 A 
ATOM     31  C   UNL     1      30.868  29.361  46.175  0.00  0.00    +0.000 A 
ATOM     32  C   UNL     1      29.495  29.572  46.104  0.00  0.00    +0.000 A 
ATOM     33  N   UNL     1      28.698  28.989  47.031  0.00  0.00    +0.000 NA
ATOM     34  C   UNL     1      29.176  28.212  48.019  0.00  0.00    +0.000 A 
ATOM     35  N   UNL     1      30.498  28.010  48.086  0.00  0.00    +0.000 NA
ATOM     36  H   UNL     1      31.601  29.753  45.520  0.00  0.00    +0.000 HD
ATOM     37  H   UNL     1      29.150  30.198  45.302  0.00  0.00    +0.000 HD
BRANCH  34  39
ATOM     38  C   UNL     1      27.263  28.369  49.545  0.00  0.00    +0.000 A 
ATOM     39  C   UNL     1      28.264  27.610  48.989  0.00  0.00    +0.000 A 
ATOM     40  C   UNL     1      28.399  26.285  49.351  0.00  0.00    +0.000 A 
ATOM     41  H   UNL     1      29.168  25.648  48.944  0.00  0.00    +0.000 HD
ATOM     42  C   UNL     1      27.476  25.812  50.284  0.00  0.00    +0.000 A 
ATOM     43  C   UNL     1      26.468  26.562  50.850  0.00  0.00    +0.000 A 
ATOM     44  C   UNL     1      26.356  27.883  50.470  0.00  0.00    +0.000 A 
ATOM     45  O   UNL     1      25.782  25.716  51.720  0.00  0.00    +0.000 OA
ATOM     46  C   UNL     1      26.093  24.369  51.422  0.00  0.00    +0.000 C 
ATOM     47  H   UNL     1      26.225  23.732  52.319  0.00  0.00    +0.000 HD
ATOM     48  O   UNL     1      27.375  24.518  50.831  0.00  0.00    +0.000 OA
ENDBRANCH  34  39
ENDBRANCH   1  30
TORSDOF 3
