
 OpenBabel03262522033D

 41 45  0  0  1  0  0  0  0  0999 V2000
   34.5750   29.2040   48.6330 C   0  0  2  0  0  0  0  0  0  0  0  0
   35.2020   28.4440   49.7530 C   0  0  0  0  0  0  0  0  0  0  0  0
   36.3490   29.1950   50.2450 N   0  0  0  0  0  0  0  0  0  0  0  0
   37.2940   29.8980   51.0650 C   0  0  0  0  0  0  0  0  0  0  0  0
   37.5080   30.0620   52.2830 O   0  0  0  0  0  0  0  0  0  0  0  0
   38.0310   30.4400   49.9270 C   0  0  1  0  0  0  0  0  0  0  0  0
   37.2150   29.4610   49.1240 C   0  0  2  0  0  0  0  0  0  0  0  0
   35.9810   30.2110   48.0140 S   0  0  0  0  0  0  0  0  0  0  0  0
   34.4880   28.3240   50.5990 H   0  0  0  0  0  0  0  0  0  0  0  0
   35.5540   27.4680   49.3870 H   0  0  0  0  0  0  0  0  0  0  0  0
   39.1030   30.1860   49.8470 H   0  0  0  0  0  0  0  0  0  0  0  0
   37.7520   28.6020   48.7070 H   0  0  0  0  0  0  0  0  0  0  0  0
   33.3760   30.0200   48.9880 C   0  0  0  0  0  0  0  0  0  0  0  0
   32.9720   30.4600   48.0780 H   0  0  0  0  0  0  0  0  0  0  0  0
   33.7370   30.8010   49.7140 H   0  0  0  0  0  0  0  0  0  0  0  0
   32.7060   29.3810   49.5710 H   0  0  0  0  0  0  0  0  0  0  0  0
   34.2730   28.2320   47.4810 C   0  0  0  0  0  0  0  0  0  0  0  0
   35.2210   27.7400   47.1890 H   0  0  0  0  0  0  0  0  0  0  0  0
   33.6340   27.4160   47.8900 H   0  0  0  0  0  0  0  0  0  0  0  0
   32.2760   28.6680   46.1320 C   0  0  0  0  0  3  0  0  0  0  0  0
   33.6320   28.9170   46.3340 C   0  0  0  0  0  0  0  0  0  0  0  0
   34.2780   29.7740   45.4670 C   0  0  0  0  0  0  0  0  0  0  0  0
   35.3130   29.9550   45.6340 H   0  0  0  0  0  0  0  0  0  0  0  0
   33.5490   30.3410   44.4420 C   0  0  0  0  0  0  0  0  0  0  0  0
   32.2060   30.1170   44.2110 C   0  0  0  0  0  0  0  0  0  0  0  0
   31.5780   29.2620   45.0840 C   0  0  0  0  0  3  0  0  0  0  0  0
   31.8790   30.8800   43.0870 O   0  0  0  0  0  0  0  0  0  0  0  0
   32.8680   31.8960   42.8850 C   0  0  0  0  0  3  0  0  0  0  0  0
   32.7030   32.7710   43.5700 H   0  0  0  0  0  0  0  0  0  0  0  0
   34.0020   31.2300   43.4580 O   0  0  0  0  0  0  0  0  0  0  0  0
   37.8210   31.8710   49.6420 C   0  0  0  0  0  0  0  0  0  0  0  0
   36.8460   32.3820   50.2640 O   0  0  0  0  0  0  0  0  0  0  0  0
   38.6540   32.6220   48.7390 C   0  0  0  0  0  0  0  0  0  0  0  0
   39.1700   33.8260   49.1910 C   0  0  0  0  0  0  0  0  0  0  0  0
   39.9840   34.5700   48.3080 C   0  0  0  0  0  0  0  0  0  0  0  0
   40.2130   34.0560   47.0640 N   0  0  0  0  0  0  0  0  0  0  0  0
   39.7000   32.8940   46.6650 C   0  0  0  0  0  0  0  0  0  0  0  0
   38.9200   32.1750   47.5000 N   0  0  0  0  0  0  0  0  0  0  0  0
   39.0180   34.2680   50.1550 H   0  0  0  0  0  0  0  0  0  0  0  0
   40.4080   35.5030   48.6040 H   0  0  0  0  0  0  0  0  0  0  0  0
   39.8670   32.4640   45.6810 H   0  0  0  0  0  0  0  0  0  0  0  0
  1 17  1  6  0  0  0
  1 13  1  0  0  0  0
  1  2  1  0  0  0  0
  2  3  1  0  0  0  0
  2  9  1  0  0  0  0
  3  4  1  0  0  0  0
  4  5  2  0  0  0  0
  6 11  1  1  0  0  0
  6  4  1  0  0  0  0
  7 12  1  6  0  0  0
  7  6  1  0  0  0  0
  7  3  1  0  0  0  0
  8  1  1  0  0  0  0
  8  7  1  0  0  0  0
 10  2  1  0  0  0  0
 13 16  1  0  0  0  0
 13 15  1  0  0  0  0
 14 13  1  0  0  0  0
 17 19  1  0  0  0  0
 18 17  1  0  0  0  0
 20 21  1  0  0  0  0
 21 17  1  0  0  0  0
 22 23  1  0  0  0  0
 22 21  2  0  0  0  0
 24 22  1  0  0  0  0
 25 24  2  0  0  0  0
 25 26  1  0  0  0  0
 26 20  2  0  0  0  0
 27 25  1  0  0  0  0
 28 27  1  0  0  0  0
 28 30  1  0  0  0  0
 28 29  1  0  0  0  0
 30 24  1  0  0  0  0
 31  6  1  0  0  0  0
 31 32  2  0  0  0  0
 33 34  1  0  0  0  0
 33 31  1  0  0  0  0
 34 39  1  0  0  0  0
 35 40  1  0  0  0  0
 35 34  2  0  0  0  0
 36 35  1  0  0  0  0
 37 36  2  0  0  0  0
 37 38  1  0  0  0  0
 38 33  2  0  0  0  0
 41 37  1  0  0  0  0
M  END
>  <minimizedAffinity>
-5.33555222

>  <minimizedRMSD>
0.21335192

$$$$
