
 OpenBabel03262522033D

 41 45  0  0  1  0  0  0  0  0999 V2000
   34.5730   29.2040   48.6420 C   0  0  2  0  0  0  0  0  0  0  0  0
   35.2010   28.4440   49.7610 C   0  0  0  0  0  0  0  0  0  0  0  0
   36.3490   29.1940   50.2520 N   0  0  0  0  0  0  0  0  0  0  0  0
   37.2950   29.8970   51.0710 C   0  0  0  0  0  0  0  0  0  0  0  0
   37.5100   30.0610   52.2890 O   0  0  0  0  0  0  0  0  0  0  0  0
   38.0310   30.4380   49.9320 C   0  0  1  0  0  0  0  0  0  0  0  0
   37.2140   29.4590   49.1300 C   0  0  2  0  0  0  0  0  0  0  0  0
   35.9790   30.2110   48.0210 S   0  0  0  0  0  0  0  0  0  0  0  0
   34.4880   28.3240   50.6080 H   0  0  0  0  0  0  0  0  0  0  0  0
   35.5520   27.4680   49.3950 H   0  0  0  0  0  0  0  0  0  0  0  0
   39.1030   30.1840   49.8510 H   0  0  0  0  0  0  0  0  0  0  0  0
   37.7500   28.6000   48.7130 H   0  0  0  0  0  0  0  0  0  0  0  0
   33.3740   30.0200   48.9980 C   0  0  0  0  0  0  0  0  0  0  0  0
   32.9700   30.4610   48.0880 H   0  0  0  0  0  0  0  0  0  0  0  0
   33.7360   30.8020   49.7230 H   0  0  0  0  0  0  0  0  0  0  0  0
   32.7050   29.3820   49.5810 H   0  0  0  0  0  0  0  0  0  0  0  0
   34.2700   28.2320   47.4900 C   0  0  0  0  0  0  0  0  0  0  0  0
   35.1900   27.6530   47.2780 H   0  0  0  0  0  0  0  0  0  0  0  0
   33.5340   27.4850   47.8660 H   0  0  0  0  0  0  0  0  0  0  0  0
   32.4160   28.8120   45.9970 C   0  0  0  0  0  3  0  0  0  0  0  0
   33.7750   28.9400   46.2860 C   0  0  0  0  0  0  0  0  0  0  0  0
   34.5550   29.7060   45.4450 C   0  0  0  0  0  0  0  0  0  0  0  0
   35.5890   29.7930   45.6780 H   0  0  0  0  0  0  0  0  0  0  0  0
   33.9520   30.3070   44.3590 C   0  0  0  0  0  0  0  0  0  0  0  0
   32.6120   30.2030   44.0420 C   0  0  0  0  0  0  0  0  0  0  0  0
   31.8490   29.4370   44.8910 C   0  0  0  0  0  3  0  0  0  0  0  0
   32.4330   30.9580   42.8810 O   0  0  0  0  0  0  0  0  0  0  0  0
   33.5260   31.8700   42.7220 C   0  0  0  0  0  3  0  0  0  0  0  0
   33.4010   32.7770   43.3730 H   0  0  0  0  0  0  0  0  0  0  0  0
   34.5510   31.1180   43.3860 O   0  0  0  0  0  0  0  0  0  0  0  0
   37.8210   31.8690   49.6470 C   0  0  0  0  0  0  0  0  0  0  0  0
   36.8470   32.3810   50.2700 O   0  0  0  0  0  0  0  0  0  0  0  0
   38.6540   32.6210   48.7440 C   0  0  0  0  0  0  0  0  0  0  0  0
   39.1650   33.8280   49.1940 C   0  0  0  0  0  0  0  0  0  0  0  0
   39.9790   34.5710   48.3110 C   0  0  0  0  0  0  0  0  0  0  0  0
   40.2130   34.0540   47.0680 N   0  0  0  0  0  0  0  0  0  0  0  0
   39.7040   32.8900   46.6720 C   0  0  0  0  0  0  0  0  0  0  0  0
   38.9240   32.1710   47.5070 N   0  0  0  0  0  0  0  0  0  0  0  0
   39.0090   34.2720   50.1560 H   0  0  0  0  0  0  0  0  0  0  0  0
   40.3990   35.5070   48.6040 H   0  0  0  0  0  0  0  0  0  0  0  0
   39.8740   32.4570   45.6900 H   0  0  0  0  0  0  0  0  0  0  0  0
  1 17  1  6  0  0  0
  1 13  1  0  0  0  0
  1  2  1  0  0  0  0
  2  3  1  0  0  0  0
  2  9  1  0  0  0  0
  3  4  1  0  0  0  0
  4  5  2  0  0  0  0
  6 11  1  1  0  0  0
  6  4  1  0  0  0  0
  7 12  1  6  0  0  0
  7  6  1  0  0  0  0
  7  3  1  0  0  0  0
  8  1  1  0  0  0  0
  8  7  1  0  0  0  0
 10  2  1  0  0  0  0
 13 16  1  0  0  0  0
 13 15  1  0  0  0  0
 14 13  1  0  0  0  0
 17 19  1  0  0  0  0
 18 17  1  0  0  0  0
 20 21  1  0  0  0  0
 21 17  1  0  0  0  0
 22 23  1  0  0  0  0
 22 21  2  0  0  0  0
 24 22  1  0  0  0  0
 25 24  2  0  0  0  0
 25 26  1  0  0  0  0
 26 20  2  0  0  0  0
 27 25  1  0  0  0  0
 28 27  1  0  0  0  0
 28 29  1  0  0  0  0
 28 30  1  0  0  0  0
 30 24  1  0  0  0  0
 31  6  1  0  0  0  0
 31 32  2  0  0  0  0
 33 34  1  0  0  0  0
 33 31  1  0  0  0  0
 34 39  1  0  0  0  0
 35 40  1  0  0  0  0
 35 34  2  0  0  0  0
 36 35  1  0  0  0  0
 37 36  2  0  0  0  0
 37 38  1  0  0  0  0
 38 33  2  0  0  0  0
 41 37  1  0  0  0  0
M  END
>  <minimizedAffinity>
-5.33867407

>  <minimizedRMSD>
1.07646012

$$$$
