
     RDKit          3D

 44 48  0  0  0  0  0  0  0  0999 V2000
   34.5334   29.0641   48.7244 C   0  0  2  0  0  0  0  0  0  0  0  0
   35.1887   28.3512   49.8575 C   0  0  0  0  0  0  0  0  0  0  0  0
   36.3299   29.1362   50.3084 N   0  0  0  0  0  0  0  0  0  0  0  0
   37.2748   29.8805   51.0906 C   0  0  0  0  0  0  0  0  0  0  0  0
   37.5039   30.0869   52.3003 O   0  0  0  0  0  0  0  0  0  0  0  0
   37.9862   30.3982   49.9246 C   0  0  1  0  0  0  0  0  0  0  0  0
   37.1753   29.3804   49.1665 C   0  0  2  0  0  0  0  0  0  0  0  0
   35.9117   30.0737   48.0516 S   0  0  0  0  0  0  0  0  0  0  0  0
   37.7472   31.8150   49.5981 C   0  0  0  0  0  0  0  0  0  0  0  0
   36.7358   32.3127   50.1723 O   0  0  0  0  0  0  0  0  0  0  0  0
   38.5922   32.5690   48.7077 C   0  0  0  0  0  0  0  0  0  0  0  0
   39.1197   33.7612   49.1778 C   0  0  0  0  0  0  0  0  0  0  0  0
   39.9462   34.5065   48.3082 C   0  0  0  0  0  0  0  0  0  0  0  0
   40.1739   34.0057   47.0581 N   0  0  0  0  0  0  0  0  0  0  0  0
   39.6493   32.8560   46.6421 C   0  0  0  0  0  0  0  0  0  0  0  0
   38.8580   32.1350   47.4641 N   0  0  0  0  0  0  0  0  0  0  0  0
   33.3249   29.8709   49.0713 C   0  0  0  0  0  0  0  0  0  0  0  0
   34.2311   28.0508   47.6075 C   0  0  0  0  0  0  0  0  0  0  0  0
   34.4896   28.2457   50.7177 H   0  0  0  0  0  0  0  0  0  0  0  0
   35.5519   27.3701   49.5183 H   0  0  0  0  0  0  0  0  0  0  0  0
   39.0611   30.1592   49.8373 H   0  0  0  0  0  0  0  0  0  0  0  0
   37.7204   28.5168   48.7690 H   0  0  0  0  0  0  0  0  0  0  0  0
   38.9692   34.1922   50.1472 H   0  0  0  0  0  0  0  0  0  0  0  0
   40.3790   35.4311   48.6175 H   0  0  0  0  0  0  0  0  0  0  0  0
   39.8154   32.4367   45.6528 H   0  0  0  0  0  0  0  0  0  0  0  0
   32.9012   30.2747   48.1527 H   0  0  0  0  0  0  0  0  0  0  0  0
   33.6831   30.6806   49.7657 H   0  0  0  0  0  0  0  0  0  0  0  0
   32.6748   29.2401   49.6835 H   0  0  0  0  0  0  0  0  0  0  0  0
   35.1808   27.5571   47.3259 H   0  0  0  0  0  0  0  0  0  0  0  0
   33.6011   27.2435   48.0490 H   0  0  0  0  0  0  0  0  0  0  0  0
   34.1168   29.8999   46.0047 C   0  0  0  0  0  0  0  0  0  0  0  0
   33.5763   28.6913   46.4434 C   0  0  0  0  0  0  0  0  0  0  0  0
   32.4839   28.1800   45.7734 C   0  0  0  0  0  0  0  0  0  0  0  0
   32.0829   27.2573   46.1200 H   0  0  0  0  0  0  0  0  0  0  0  0
   31.9809   28.8903   44.7026 C   0  0  0  0  0  0  0  0  0  0  0  0
   32.4888   30.0874   44.2408 C   0  0  0  0  0  0  0  0  0  0  0  0
   33.5769   30.5835   44.9189 C   0  0  0  0  0  0  0  0  0  0  0  0
   31.6886   30.4498   43.1560 O   0  0  0  0  0  0  0  0  0  0  0  0
   30.9810   29.3032   42.6697 C   0  0  2  0  0  0  0  0  0  0  0  0
   31.6353   28.6634   42.0177 H   0  0  0  0  0  0  0  0  0  0  0  0
   30.8889   28.5562   43.8903 O   0  0  0  0  0  0  0  0  0  0  0  0
   34.9737   30.3985   46.4516 H   0  0  0  0  0  0  0  0  0  0  0  0
   33.9856   31.5287   44.5618 H   0  0  0  0  0  0  0  0  0  0  0  0
   30.0107   29.5432   42.2355 H   0  0  0  0  0  0  0  0  0  0  0  0
  1 17  1  1
  1  2  1  0
  2  3  1  0
  3  4  1  0
  4  5  2  0
  6  9  1  0
  6  4  1  0
  7  8  1  0
  7  6  1  0
  7  3  1  0
  8  1  1  0
  9 10  2  0
 11 12  2  0
 11  9  1  0
 13 12  1  0
 14 13  2  0
 15 14  1  0
 15 16  2  0
 16 11  1  0
 18  1  1  0
  2 19  1  0
  2 20  1  0
  6 21  1  1
  7 22  1  6
 12 23  1  0
 13 24  1  0
 15 25  1  0
 17 26  1  0
 17 27  1  0
 17 28  1  0
 18 29  1  0
 18 30  1  0
 31 32  2  0
 32 33  1  0
 33 34  1  0
 33 35  2  0
 35 36  1  0
 36 37  2  0
 36 38  1  0
 38 39  1  0
 39 40  1  6
 39 41  1  0
 37 31  1  0
 41 35  1  0
 31 42  1  0
 37 43  1  0
 39 44  1  0
 18 32  1  0
M  ISO  8  19  13  20  13  21  13  22  13  23  14  24  14  25  14  26   8
M  ISO  6  27   8  28   8  29   8  30   8  34  16  40   8
M  END
>  <DihAtoms>  (1) 
0,17,31,30

>  <DihDeg>  (1) 
89.9250018929067

$$$$
