
 OpenBabel03262522033D

 41 45  0  0  1  0  0  0  0  0999 V2000
   34.5030   29.2830   48.6870 C   0  0  2  0  0  0  0  0  0  0  0  0
   35.1580   28.4750   49.7560 C   0  0  0  0  0  0  0  0  0  0  0  0
   36.3410   29.1850   50.2220 N   0  0  0  0  0  0  0  0  0  0  0  0
   37.3350   29.8420   51.0240 C   0  0  0  0  0  0  0  0  0  0  0  0
   37.6020   29.9620   52.2360 O   0  0  0  0  0  0  0  0  0  0  0  0
   38.0370   30.4030   49.8730 C   0  0  1  0  0  0  0  0  0  0  0  0
   37.1660   29.4680   49.0750 C   0  0  2  0  0  0  0  0  0  0  0  0
   35.9050   30.2790   48.0410 S   0  0  0  0  0  0  0  0  0  0  0  0
   34.4770   28.3430   50.6270 H   0  0  0  0  0  0  0  0  0  0  0  0
   35.4730   27.5040   49.3460 H   0  0  0  0  0  0  0  0  0  0  0  0
   39.0990   30.1290   49.7410 H   0  0  0  0  0  0  0  0  0  0  0  0
   37.6660   28.6110   48.6100 H   0  0  0  0  0  0  0  0  0  0  0  0
   33.3380   30.1130   49.1170 C   0  0  0  0  0  0  0  0  0  0  0  0
   32.9080   30.5900   48.2380 H   0  0  0  0  0  0  0  0  0  0  0  0
   33.7460   30.8630   49.8510 H   0  0  0  0  0  0  0  0  0  0  0  0
   32.6790   29.4700   49.7070 H   0  0  0  0  0  0  0  0  0  0  0  0
   34.1330   28.3550   47.5190 C   0  0  0  0  0  0  0  0  0  0  0  0
   34.9660   27.6420   47.3690 H   0  0  0  0  0  0  0  0  0  0  0  0
   33.2690   27.7320   47.8470 H   0  0  0  0  0  0  0  0  0  0  0  0
   34.5850   28.8050   45.1530 C   0  0  0  0  0  3  0  0  0  0  0  0
   33.8300   29.1160   46.2840 C   0  0  0  0  0  0  0  0  0  0  0  0
   32.8650   30.0970   46.1790 C   0  0  0  0  0  0  0  0  0  0  0  0
   32.2970   30.3220   47.0510 H   0  0  0  0  0  0  0  0  0  0  0  0
   32.6950   30.7210   44.9600 C   0  0  0  0  0  0  0  0  0  0  0  0
   33.4230   30.4410   43.8220 C   0  0  0  0  0  0  0  0  0  0  0  0
   34.3800   29.4620   43.9420 C   0  0  0  0  0  3  0  0  0  0  0  0
   32.9290   31.2930   42.8340 O   0  0  0  0  0  0  0  0  0  0  0  0
   31.6360   31.7800   43.2110 C   0  0  0  0  0  3  0  0  0  0  0  0
   30.8350   31.0190   43.0040 H   0  0  0  0  0  0  0  0  0  0  0  0
   31.7820   31.7340   44.6380 O   0  0  0  0  0  0  0  0  0  0  0  0
   37.8470   31.8470   49.6420 C   0  0  0  0  0  0  0  0  0  0  0  0
   36.9030   32.3560   50.3110 O   0  0  0  0  0  0  0  0  0  0  0  0
   38.6670   32.6110   48.7380 C   0  0  0  0  0  0  0  0  0  0  0  0
   39.1700   33.8210   49.1920 C   0  0  0  0  0  0  0  0  0  0  0  0
   39.9710   34.5770   48.3080 C   0  0  0  0  0  0  0  0  0  0  0  0
   40.2020   34.0690   47.0610 N   0  0  0  0  0  0  0  0  0  0  0  0
   39.7020   32.9020   46.6610 C   0  0  0  0  0  0  0  0  0  0  0  0
   38.9350   32.1710   47.4960 N   0  0  0  0  0  0  0  0  0  0  0  0
   39.0150   34.2580   50.1570 H   0  0  0  0  0  0  0  0  0  0  0  0
   40.3840   35.5140   48.6040 H   0  0  0  0  0  0  0  0  0  0  0  0
   39.8710   32.4770   45.6750 H   0  0  0  0  0  0  0  0  0  0  0  0
  1 17  1  6  0  0  0
  1 13  1  0  0  0  0
  1  2  1  0  0  0  0
  2  3  1  0  0  0  0
  2  9  1  0  0  0  0
  3  4  1  0  0  0  0
  4  5  2  0  0  0  0
  6 11  1  6  0  0  0
  6  4  1  0  0  0  0
  7 12  1  6  0  0  0
  7  6  1  0  0  0  0
  7  3  1  0  0  0  0
  8  1  1  0  0  0  0
  8  7  1  0  0  0  0
 10  2  1  0  0  0  0
 13 16  1  0  0  0  0
 13 15  1  0  0  0  0
 14 13  1  0  0  0  0
 17 19  1  0  0  0  0
 18 17  1  0  0  0  0
 20 21  1  0  0  0  0
 21 17  1  0  0  0  0
 22 21  2  0  0  0  0
 22 23  1  0  0  0  0
 24 22  1  0  0  0  0
 25 26  1  0  0  0  0
 25 24  2  0  0  0  0
 26 20  2  0  0  0  0
 27 28  1  0  0  0  0
 27 25  1  0  0  0  0
 28 30  1  0  0  0  0
 29 28  1  0  0  0  0
 30 24  1  0  0  0  0
 31  6  1  0  0  0  0
 31 32  2  0  0  0  0
 33 34  1  0  0  0  0
 33 31  1  0  0  0  0
 34 39  1  0  0  0  0
 35 40  1  0  0  0  0
 35 34  2  0  0  0  0
 36 35  1  0  0  0  0
 37 36  2  0  0  0  0
 37 38  1  0  0  0  0
 38 33  2  0  0  0  0
 41 37  1  0  0  0  0
M  END
>  <minimizedAffinity>
-5.30010033

>  <minimizedRMSD>
0.645691037

$$$$
