
 OpenBabel03262522033D

 41 45  0  0  1  0  0  0  0  0999 V2000
   34.5330   29.1930   48.7770 C   0  0  2  0  0  0  0  0  0  0  0  0
   35.1990   28.4300   49.8720 C   0  0  0  0  0  0  0  0  0  0  0  0
   36.3680   29.1760   50.3190 N   0  0  0  0  0  0  0  0  0  0  0  0
   37.3470   29.8750   51.1020 C   0  0  0  0  0  0  0  0  0  0  0  0
   37.6090   30.0380   52.3110 O   0  0  0  0  0  0  0  0  0  0  0  0
   38.0430   30.4120   49.9360 C   0  0  1  0  0  0  0  0  0  0  0  0
   37.1910   29.4370   49.1650 C   0  0  2  0  0  0  0  0  0  0  0  0
   35.9190   30.1930   48.1040 S   0  0  0  0  0  0  0  0  0  0  0  0
   34.5180   28.3140   50.7450 H   0  0  0  0  0  0  0  0  0  0  0  0
   35.5320   27.4530   49.4940 H   0  0  0  0  0  0  0  0  0  0  0  0
   39.1100   30.1530   49.8150 H   0  0  0  0  0  0  0  0  0  0  0  0
   37.7070   28.5750   48.7290 H   0  0  0  0  0  0  0  0  0  0  0  0
   33.3520   30.0150   49.1780 C   0  0  0  0  0  0  0  0  0  0  0  0
   32.9170   30.4570   48.2830 H   0  0  0  0  0  0  0  0  0  0  0  0
   33.7450   30.7950   49.8890 H   0  0  0  0  0  0  0  0  0  0  0  0
   32.7030   29.3800   49.7860 H   0  0  0  0  0  0  0  0  0  0  0  0
   34.1830   28.2230   47.6380 C   0  0  0  0  0  0  0  0  0  0  0  0
   35.0830   27.6190   47.4110 H   0  0  0  0  0  0  0  0  0  0  0  0
   33.4360   27.4960   48.0340 H   0  0  0  0  0  0  0  0  0  0  0  0
   32.3030   28.9040   46.2210 C   0  0  0  0  0  3  0  0  0  0  0  0
   33.6810   28.9350   46.4390 C   0  0  0  0  0  0  0  0  0  0  0  0
   34.4720   29.6190   45.5390 C   0  0  0  0  0  0  0  0  0  0  0  0
   35.5210   29.6330   45.7200 H   0  0  0  0  0  0  0  0  0  0  0  0
   33.8620   30.2370   44.4670 C   0  0  0  0  0  0  0  0  0  0  0  0
   32.5040   30.2270   44.2190 C   0  0  0  0  0  0  0  0  0  0  0  0
   31.7300   29.5430   45.1260 C   0  0  0  0  0  3  0  0  0  0  0  0
   32.3240   30.9640   43.0480 O   0  0  0  0  0  0  0  0  0  0  0  0
   33.4720   31.7870   42.8100 C   0  0  0  0  0  3  0  0  0  0  0  0
   33.4480   32.7160   43.4400 H   0  0  0  0  0  0  0  0  0  0  0  0
   34.4700   30.9760   43.4450 O   0  0  0  0  0  0  0  0  0  0  0  0
   37.8280   31.8440   49.6590 C   0  0  0  0  0  0  0  0  0  0  0  0
   36.8610   32.3530   50.2950 O   0  0  0  0  0  0  0  0  0  0  0  0
   38.6510   32.5990   48.7490 C   0  0  0  0  0  0  0  0  0  0  0  0
   39.1560   33.8110   49.1930 C   0  0  0  0  0  0  0  0  0  0  0  0
   39.9600   34.5580   48.3030 C   0  0  0  0  0  0  0  0  0  0  0  0
   40.1890   34.0390   47.0600 N   0  0  0  0  0  0  0  0  0  0  0  0
   39.6860   32.8710   46.6690 C   0  0  0  0  0  0  0  0  0  0  0  0
   38.9160   32.1480   47.5110 N   0  0  0  0  0  0  0  0  0  0  0  0
   39.0040   34.2560   50.1550 H   0  0  0  0  0  0  0  0  0  0  0  0
   40.3750   35.4960   48.5920 H   0  0  0  0  0  0  0  0  0  0  0  0
   39.8530   32.4380   45.6870 H   0  0  0  0  0  0  0  0  0  0  0  0
  1 17  1  6  0  0  0
  1 13  1  0  0  0  0
  1  2  1  0  0  0  0
  2  3  1  0  0  0  0
  2  9  1  0  0  0  0
  3  4  1  0  0  0  0
  4  5  2  0  0  0  0
  6 11  1  6  0  0  0
  6  4  1  0  0  0  0
  7 12  1  6  0  0  0
  7  6  1  0  0  0  0
  7  3  1  0  0  0  0
  8  1  1  0  0  0  0
  8  7  1  0  0  0  0
 10  2  1  0  0  0  0
 13 16  1  0  0  0  0
 13 15  1  0  0  0  0
 14 13  1  0  0  0  0
 17 19  1  0  0  0  0
 18 17  1  0  0  0  0
 20 21  1  0  0  0  0
 21 17  1  0  0  0  0
 22 23  1  0  0  0  0
 22 21  2  0  0  0  0
 24 22  1  0  0  0  0
 25 24  2  0  0  0  0
 25 26  1  0  0  0  0
 26 20  2  0  0  0  0
 27 25  1  0  0  0  0
 28 27  1  0  0  0  0
 28 29  1  0  0  0  0
 28 30  1  0  0  0  0
 30 24  1  0  0  0  0
 31  6  1  0  0  0  0
 31 32  2  0  0  0  0
 33 34  1  0  0  0  0
 33 31  1  0  0  0  0
 34 39  1  0  0  0  0
 35 40  1  0  0  0  0
 35 34  2  0  0  0  0
 36 35  1  0  0  0  0
 37 36  2  0  0  0  0
 37 38  1  0  0  0  0
 38 33  2  0  0  0  0
 41 37  1  0  0  0  0
M  END
>  <minimizedAffinity>
-5.32693624

>  <minimizedRMSD>
0.590508878

$$$$
