REMARK  Name = 
REMARK  5 active torsions:
REMARK  status: ('A' for Active; 'I' for Inactive)
REMARK    1  A    between atoms: C_1  and  C_17
REMARK    2  A    between atoms: C_1  and  C_18
REMARK    3  A    between atoms: C_6  and  C_9
REMARK    4  A    between atoms: C_9  and  C_11
REMARK    5  A    between atoms: C_18  and  C_32
REMARK                            x       y       z     vdW  Elec       q    Type
REMARK                         _______ _______ _______ _____ _____    ______ ____
ROOT
ATOM      1  C   UNL     1      34.533  29.064  48.724  0.00  0.00    +0.000 C 
ATOM      2  C   UNL     1      35.189  28.351  49.858  0.00  0.00    +0.000 C 
ATOM      3  N   UNL     1      36.330  29.136  50.308  0.00  0.00    +0.000 N 
ATOM      4  C   UNL     1      37.275  29.881  51.091  0.00  0.00    +0.000 C 
ATOM      5  O   UNL     1      37.504  30.087  52.300  0.00  0.00    +0.000 OA
ATOM      6  C   UNL     1      37.986  30.398  49.925  0.00  0.00    +0.000 C 
ATOM      7  C   UNL     1      37.175  29.380  49.166  0.00  0.00    +0.000 C 
ATOM      8  S   UNL     1      35.912  30.074  48.052  0.00  0.00    +0.000 S 
ATOM      9  H   UNL     1      34.490  28.246  50.718  0.00  0.00    +0.000 HD
ATOM     10  H   UNL     1      35.552  27.370  49.518  0.00  0.00    +0.000 HD
ATOM     11  H   UNL     1      39.061  30.159  49.837  0.00  0.00    +0.000 HD
ATOM     12  H   UNL     1      37.720  28.517  48.769  0.00  0.00    +0.000 HD
ENDROOT
BRANCH   1  13
ATOM     13  C   UNL     1      33.325  29.871  49.071  0.00  0.00    +0.000 C 
ATOM     14  H   UNL     1      32.901  30.275  48.153  0.00  0.00    +0.000 HD
ATOM     15  H   UNL     1      33.683  30.681  49.766  0.00  0.00    +0.000 HD
ATOM     16  H   UNL     1      32.675  29.240  49.684  0.00  0.00    +0.000 HD
ENDBRANCH   1  13
BRANCH   1  17
ATOM     17  C   UNL     1      34.231  28.051  47.608  0.00  0.00    +0.000 C 
ATOM     18  H   UNL     1      35.181  27.557  47.326  0.00  0.00    +0.000 HD
ATOM     19  H   UNL     1      33.601  27.244  48.049  0.00  0.00    +0.000 HD
BRANCH  17  21
ATOM     20  C   UNL     1      34.387  29.465  45.613  0.00  0.00    +0.000 A 
ATOM     21  C   UNL     1      33.576  28.691  46.443  0.00  0.00    +0.000 A 
ATOM     22  C   UNL     1      32.238  28.575  46.129  0.00  0.00    +0.000 A 
ATOM     23  H   UNL     1      31.632  27.982  46.772  0.00  0.00    +0.000 HD
ATOM     24  C   UNL     1      31.769  29.231  45.009  0.00  0.00    +0.000 A 
ATOM     25  C   UNL     1      32.540  30.004  44.166  0.00  0.00    +0.000 A 
ATOM     26  C   UNL     1      33.871  30.110  44.492  0.00  0.00    +0.000 A 
ATOM     27  O   UNL     1      31.674  30.471  43.176  0.00  0.00    +0.000 OA
ATOM     28  C   UNL     1      30.494  29.660  43.140  0.00  0.00    +0.000 C 
ATOM     29  H   UNL     1      30.671  28.702  42.581  0.00  0.00    +0.000 HD
ATOM     30  O   UNL     1      30.458  29.248  44.513  0.00  0.00    +0.000 OA
ENDBRANCH  17  21
ENDBRANCH   1  17
BRANCH   6  31
ATOM     31  C   UNL     1      37.747  31.815  49.598  0.00  0.00    +0.000 C 
ATOM     32  O   UNL     1      36.736  32.313  50.172  0.00  0.00    +0.000 OA
BRANCH  31  33
ATOM     33  C   UNL     1      38.592  32.569  48.708  0.00  0.00    +0.000 A 
ATOM     34  C   UNL     1      39.120  33.761  49.178  0.00  0.00    +0.000 A 
ATOM     35  C   UNL     1      39.946  34.507  48.308  0.00  0.00    +0.000 A 
ATOM     36  N   UNL     1      40.174  34.006  47.058  0.00  0.00    +0.000 NA
ATOM     37  C   UNL     1      39.649  32.856  46.642  0.00  0.00    +0.000 A 
ATOM     38  N   UNL     1      38.858  32.135  47.464  0.00  0.00    +0.000 NA
ATOM     39  H   UNL     1      38.969  34.192  50.147  0.00  0.00    +0.000 HD
ATOM     40  H   UNL     1      40.379  35.431  48.617  0.00  0.00    +0.000 HD
ATOM     41  H   UNL     1      39.815  32.437  45.653  0.00  0.00    +0.000 HD
ENDBRANCH  31  33
ENDBRANCH   6  31
TORSDOF 5
