
 OpenBabel03272505083D

 31 34  0  0  0  0  0  0  0  0999 V2000
   35.9090   30.6270   46.0250 Cl  0  0  0  0  0  0  0  0  0  0  0  0
   36.2850   30.2450   47.6810 C   0  0  0  0  0  0  0  0  0  0  0  0
   37.5660   30.5200   48.1050 C   0  0  0  0  0  0  0  0  0  0  0  0
   37.8830   30.2200   49.4250 C   0  0  0  0  0  0  0  0  0  0  0  0
   36.9340   29.6720   50.2510 C   0  0  0  0  0  0  0  0  0  0  0  0
   35.6760   29.4260   49.7550 C   0  0  0  0  0  0  0  0  0  0  0  0
   35.2910   29.6970   48.4580 C   0  0  0  0  0  0  0  0  0  0  0  0
   38.8860   30.4270   49.7870 H   0  0  0  0  0  0  0  0  0  0  0  0
   37.1850   29.4410   51.2780 H   0  0  0  0  0  0  0  0  0  0  0  0
   34.9380   28.9880   50.4320 H   0  0  0  0  0  0  0  0  0  0  0  0
   39.7340   33.0220   46.5650 C   0  0  0  0  0  0  0  0  0  0  0  0
   40.3870   32.3220   45.5280 C   0  0  0  0  0  0  0  0  0  0  0  0
   40.0540   30.9720   45.3800 C   0  0  0  0  0  0  0  0  0  0  0  0
   39.1410   30.4180   46.2270 N   0  0  0  0  0  0  0  0  0  0  0  0
   38.5480   31.1060   47.1890 C   0  0  0  0  0  0  0  0  0  0  0  0
   38.8590   32.4080   47.3420 N   0  0  0  0  0  0  0  0  0  0  0  0
   39.9610   34.0690   46.7140 H   0  0  0  0  0  0  0  0  0  0  0  0
   41.0910   32.8490   44.9130 H   0  0  0  0  0  0  0  0  0  0  0  0
   40.5390   30.4110   44.5950 H   0  0  0  0  0  0  0  0  0  0  0  0
   33.6720   29.3810   47.8150 S   0  0  0  0  0  0  0  0  0  0  0  0
   31.9870   27.3640   48.1230 C   0  0  0  0  0  3  0  0  0  0  0  0
   33.2880   27.6480   47.6960 C   0  0  0  0  0  0  0  0  0  0  0  0
   34.0850   26.6110   47.2550 C   0  0  0  0  0  0  0  0  0  0  0  0
   35.0520   26.9340   46.9540 H   0  0  0  0  0  0  0  0  0  0  0  0
   33.5680   25.3310   47.2510 C   0  0  0  0  0  0  0  0  0  0  0  0
   32.2920   25.0280   47.6660 C   0  0  0  0  0  0  0  0  0  0  0  0
   31.4970   26.0660   48.1060 C   0  0  0  0  0  3  0  0  0  0  0  0
   32.1420   23.6560   47.5170 O   0  0  0  0  0  0  0  0  0  0  0  0
   33.4060   23.0680   47.3230 C   0  0  0  0  0  3  0  0  0  0  0  0
   33.7880   22.7060   48.2980 H   0  0  0  0  0  0  0  0  0  0  0  0
   34.1790   24.1600   46.8570 O   0  0  0  0  0  0  0  0  0  0  0  0
  1  2  1  0  0  0  0
  2  3  2  0  0  0  0
  2  7  1  0  0  0  0
  3  4  1  0  0  0  0
  4  8  1  0  0  0  0
  4  5  2  0  0  0  0
  5  9  1  0  0  0  0
  6  5  1  0  0  0  0
  6 10  1  0  0  0  0
  7  6  2  0  0  0  0
 11 17  1  0  0  0  0
 11 16  1  0  0  0  0
 12 11  2  0  0  0  0
 13 12  1  0  0  0  0
 13 14  2  0  0  0  0
 14 15  1  0  0  0  0
 15 16  2  0  0  0  0
 15  3  1  0  0  0  0
 18 12  1  0  0  0  0
 19 13  1  0  0  0  0
 20  7  1  0  0  0  0
 22 20  1  0  0  0  0
 22 21  2  0  0  0  0
 23 22  1  0  0  0  0
 24 23  1  0  0  0  0
 25 23  2  0  0  0  0
 25 26  1  0  0  0  0
 26 27  2  0  0  0  0
 27 21  1  0  0  0  0
 28 26  1  0  0  0  0
 29 28  1  0  0  0  0
 29 30  1  0  0  0  0
 31 25  1  0  0  0  0
 31 29  1  0  0  0  0
M  END
>  <minimizedAffinity>
-5.66545153

>  <minimizedRMSD>
1.28344905

$$$$
