
 OpenBabel03272505083D

 31 34  0  0  0  0  0  0  0  0999 V2000
   36.3550   30.7990   45.8000 Cl  0  0  0  0  0  0  0  0  0  0  0  0
   36.6850   30.7060   47.5070 C   0  0  0  0  0  0  0  0  0  0  0  0
   37.9520   31.0600   47.9130 C   0  0  0  0  0  0  0  0  0  0  0  0
   38.2310   30.9910   49.2730 C   0  0  0  0  0  0  0  0  0  0  0  0
   37.2610   30.5810   50.1530 C   0  0  0  0  0  0  0  0  0  0  0  0
   36.0200   30.2430   49.6720 C   0  0  0  0  0  0  0  0  0  0  0  0
   35.6710   30.2880   48.3370 C   0  0  0  0  0  0  0  0  0  0  0  0
   39.2220   31.2650   49.6230 H   0  0  0  0  0  0  0  0  0  0  0  0
   37.4840   30.5290   51.2110 H   0  0  0  0  0  0  0  0  0  0  0  0
   35.2640   29.9190   50.3920 H   0  0  0  0  0  0  0  0  0  0  0  0
   40.1490   33.2880   46.0310 C   0  0  0  0  0  0  0  0  0  0  0  0
   40.8370   32.4280   45.1470 C   0  0  0  0  0  0  0  0  0  0  0  0
   40.5170   31.0700   45.2230 C   0  0  0  0  0  0  0  0  0  0  0  0
   39.5830   30.6580   46.1250 N   0  0  0  0  0  0  0  0  0  0  0  0
   38.9570   31.4920   46.9390 C   0  0  0  0  0  0  0  0  0  0  0  0
   39.2560   32.8050   46.8760 N   0  0  0  0  0  0  0  0  0  0  0  0
   40.3650   34.3470   46.0060 H   0  0  0  0  0  0  0  0  0  0  0  0
   41.5560   32.8500   44.4720 H   0  0  0  0  0  0  0  0  0  0  0  0
   41.0280   30.3880   44.5590 H   0  0  0  0  0  0  0  0  0  0  0  0
   34.0730   29.8530   47.7120 S   0  0  0  0  0  0  0  0  0  0  0  0
   33.9710   28.1140   45.7170 C   0  0  0  0  0  3  0  0  0  0  0  0
   33.9830   28.1790   47.1150 C   0  0  0  0  0  0  0  0  0  0  0  0
   33.9260   27.0030   47.8360 C   0  0  0  0  0  0  0  0  0  0  0  0
   33.9420   27.1630   48.8860 H   0  0  0  0  0  0  0  0  0  0  0  0
   33.8590   25.8070   47.1510 C   0  0  0  0  0  0  0  0  0  0  0  0
   33.8460   25.7200   45.7760 C   0  0  0  0  0  0  0  0  0  0  0  0
   33.9030   26.8970   45.0590 C   0  0  0  0  0  3  0  0  0  0  0  0
   33.7740   24.3680   45.4660 O   0  0  0  0  0  0  0  0  0  0  0  0
   33.4180   23.6440   46.6190 C   0  0  0  0  0  3  0  0  0  0  0  0
   32.3220   23.4850   46.6210 H   0  0  0  0  0  0  0  0  0  0  0  0
   33.7970   24.5280   47.6600 O   0  0  0  0  0  0  0  0  0  0  0  0
  1  2  1  0  0  0  0
  2  3  2  0  0  0  0
  2  7  1  0  0  0  0
  3  4  1  0  0  0  0
  4  8  1  0  0  0  0
  4  5  2  0  0  0  0
  5  9  1  0  0  0  0
  6  5  1  0  0  0  0
  6 10  1  0  0  0  0
  7  6  2  0  0  0  0
 11 16  1  0  0  0  0
 12 13  1  0  0  0  0
 12 11  2  0  0  0  0
 13 14  2  0  0  0  0
 14 15  1  0  0  0  0
 15  3  1  0  0  0  0
 16 15  2  0  0  0  0
 17 11  1  0  0  0  0
 18 12  1  0  0  0  0
 19 13  1  0  0  0  0
 20  7  1  0  0  0  0
 21 22  1  0  0  0  0
 22 20  1  0  0  0  0
 22 23  2  0  0  0  0
 23 24  1  0  0  0  0
 25 31  1  0  0  0  0
 25 23  1  0  0  0  0
 26 25  2  0  0  0  0
 27 21  2  0  0  0  0
 27 26  1  0  0  0  0
 28 26  1  0  0  0  0
 28 29  1  0  0  0  0
 29 30  1  0  0  0  0
 29 31  1  0  0  0  0
M  END
>  <minimizedAffinity>
-5.80684996

>  <minimizedRMSD>
1.16135514

$$$$
