REMARK  Name = 
REMARK  3 active torsions:
REMARK  status: ('A' for Active; 'I' for Inactive)
REMARK    1  A    between atoms: C_3  and  C_12
REMARK    2  A    between atoms: C_7  and  S_14
REMARK    3  A    between atoms: S_14  and  C_22
REMARK                            x       y       z     vdW  Elec       q    Type
REMARK                         _______ _______ _______ _____ _____    ______ ____
ROOT
ATOM      1 CL   UNL     1      36.369  30.472  46.393  0.00  0.00    +0.000 Cl
ATOM      2  C   UNL     1      36.798  30.537  48.079  0.00  0.00    +0.000 A 
ATOM      3  C   UNL     1      38.025  31.081  48.385  0.00  0.00    +0.000 A 
ATOM      4  C   UNL     1      38.383  31.140  49.727  0.00  0.00    +0.000 A 
ATOM      5  C   UNL     1      37.525  30.666  50.688  0.00  0.00    +0.000 A 
ATOM      6  C   UNL     1      36.317  30.136  50.304  0.00  0.00    +0.000 A 
ATOM      7  C   UNL     1      35.895  30.045  48.993  0.00  0.00    +0.000 A 
ATOM      8  H   UNL     1      39.345  31.565  49.999  0.00  0.00    +0.000 HD
ATOM      9  H   UNL     1      37.808  30.714  51.731  0.00  0.00    +0.000 HD
ATOM     10  H   UNL     1      35.651  29.764  51.087  0.00  0.00    +0.000 HD
ENDROOT
BRANCH   3  15
ATOM     11  C   UNL     1      40.002  33.426  46.404  0.00  0.00    +0.000 A 
ATOM     12  C   UNL     1      40.569  32.627  45.388  0.00  0.00    +0.000 A 
ATOM     13  C   UNL     1      40.247  31.267  45.411  0.00  0.00    +0.000 A 
ATOM     14  N   UNL     1      39.424  30.797  46.390  0.00  0.00    +0.000 NA
ATOM     15  C   UNL     1      38.910  31.576  47.328  0.00  0.00    +0.000 A 
ATOM     16  N   UNL     1      39.212  32.889  47.317  0.00  0.00    +0.000 NA
ATOM     17  H   UNL     1      40.224  34.484  46.424  0.00  0.00    +0.000 HD
ATOM     18  H   UNL     1      41.206  33.092  44.660  0.00  0.00    +0.000 HD
ATOM     19  H   UNL     1      40.667  30.631  44.646  0.00  0.00    +0.000 HD
ENDBRANCH   3  15
BRANCH   7  20
ATOM     20  S   UNL     1      34.340  29.363  48.494  0.00  0.00    +0.000 S 
BRANCH  20  22
ATOM     21  C   UNL     1      34.387  27.321  46.809  0.00  0.00    +0.000 A 
ATOM     22  C   UNL     1      34.408  27.613  48.177  0.00  0.00    +0.000 A 
ATOM     23  C   UNL     1      34.475  26.571  49.079  0.00  0.00    +0.000 A 
ATOM     24  H   UNL     1      34.486  26.900  50.090  0.00  0.00    +0.000 HD
ATOM     25  C   UNL     1      34.519  25.278  48.598  0.00  0.00    +0.000 A 
ATOM     26  C   UNL     1      34.499  24.967  47.258  0.00  0.00    +0.000 A 
ATOM     27  C   UNL     1      34.432  26.011  46.358  0.00  0.00    +0.000 A 
ATOM     28  O   UNL     1      34.557  23.583  47.171  0.00  0.00    +0.000 OA
ATOM     29  C   UNL     1      34.286  23.026  48.435  0.00  0.00    +0.000 C 
ATOM     30  H   UNL     1      33.211  22.766  48.492  0.00  0.00    +0.000 HD
ATOM     31  O   UNL     1      34.587  24.099  49.309  0.00  0.00    +0.000 OA
ENDBRANCH  20  22
ENDBRANCH   7  20
TORSDOF 3
