
 OpenBabel03272505083D

 31 34  0  0  0  0  0  0  0  0999 V2000
   36.3470   30.8500   45.8010 Cl  0  0  0  0  0  0  0  0  0  0  0  0
   36.6950   30.7370   47.5030 C   0  0  0  0  0  0  0  0  0  0  0  0
   37.9730   31.0660   47.8960 C   0  0  0  0  0  0  0  0  0  0  0  0
   38.2670   30.9800   49.2520 C   0  0  0  0  0  0  0  0  0  0  0  0
   37.3010   30.5800   50.1410 C   0  0  0  0  0  0  0  0  0  0  0  0
   36.0480   30.2680   49.6720 C   0  0  0  0  0  0  0  0  0  0  0  0
   35.6840   30.3300   48.3420 C   0  0  0  0  0  0  0  0  0  0  0  0
   39.2670   31.2340   49.5930 H   0  0  0  0  0  0  0  0  0  0  0  0
   37.5350   30.5150   51.1950 H   0  0  0  0  0  0  0  0  0  0  0  0
   35.2950   29.9510   50.3980 H   0  0  0  0  0  0  0  0  0  0  0  0
   40.1670   33.2740   45.9880 C   0  0  0  0  0  0  0  0  0  0  0  0
   40.8460   32.4070   45.1060 C   0  0  0  0  0  0  0  0  0  0  0  0
   40.5230   31.0500   45.1920 C   0  0  0  0  0  0  0  0  0  0  0  0
   39.5920   30.6470   46.1020 N   0  0  0  0  0  0  0  0  0  0  0  0
   38.9740   31.4890   46.9140 C   0  0  0  0  0  0  0  0  0  0  0  0
   39.2760   32.8000   46.8410 N   0  0  0  0  0  0  0  0  0  0  0  0
   40.3860   34.3320   45.9550 H   0  0  0  0  0  0  0  0  0  0  0  0
   41.5640   32.8220   44.4230 H   0  0  0  0  0  0  0  0  0  0  0  0
   41.0280   30.3630   44.5290 H   0  0  0  0  0  0  0  0  0  0  0  0
   34.0710   29.9280   47.7330 S   0  0  0  0  0  0  0  0  0  0  0  0
   33.8890   27.2930   47.9220 C   0  0  0  0  0  3  0  0  0  0  0  0
   33.9850   28.3200   46.9750 C   0  0  0  0  0  0  0  0  0  0  0  0
   34.0010   27.9900   45.6350 C   0  0  0  0  0  0  0  0  0  0  0  0
   34.0780   28.8410   45.0030 H   0  0  0  0  0  0  0  0  0  0  0  0
   33.9220   26.6600   45.2770 C   0  0  0  0  0  0  0  0  0  0  0  0
   33.8270   25.6340   46.1890 C   0  0  0  0  0  0  0  0  0  0  0  0
   33.8100   25.9670   47.5290 C   0  0  0  0  0  3  0  0  0  0  0  0
   33.7680   24.4560   45.4570 O   0  0  0  0  0  0  0  0  0  0  0  0
   34.1510   24.7160   44.1270 C   0  0  0  0  0  3  0  0  0  0  0  0
   35.2280   24.4860   44.0110 H   0  0  0  0  0  0  0  0  0  0  0  0
   33.9220   26.1090   44.0130 O   0  0  0  0  0  0  0  0  0  0  0  0
  1  2  1  0  0  0  0
  2  3  2  0  0  0  0
  2  7  1  0  0  0  0
  3  4  1  0  0  0  0
  4  8  1  0  0  0  0
  4  5  2  0  0  0  0
  5  9  1  0  0  0  0
  6  5  1  0  0  0  0
  6 10  1  0  0  0  0
  7  6  2  0  0  0  0
 11 16  1  0  0  0  0
 12 13  1  0  0  0  0
 12 11  2  0  0  0  0
 13 14  2  0  0  0  0
 14 15  1  0  0  0  0
 15  3  1  0  0  0  0
 16 15  2  0  0  0  0
 17 11  1  0  0  0  0
 18 12  1  0  0  0  0
 19 13  1  0  0  0  0
 20  7  1  0  0  0  0
 22 20  1  0  0  0  0
 22 21  2  0  0  0  0
 23 22  1  0  0  0  0
 24 23  1  0  0  0  0
 25 23  2  0  0  0  0
 25 26  1  0  0  0  0
 26 27  2  0  0  0  0
 27 21  1  0  0  0  0
 28 26  1  0  0  0  0
 29 28  1  0  0  0  0
 30 29  1  0  0  0  0
 31 29  1  0  0  0  0
 31 25  1  0  0  0  0
M  END
>  <minimizedAffinity>
-5.74255657

>  <minimizedRMSD>
1.50041127

$$$$
