
 OpenBabel03272505083D

 31 34  0  0  0  0  0  0  0  0999 V2000
   36.2480   31.0210   45.3110 Cl  0  0  0  0  0  0  0  0  0  0  0  0
   36.4440   30.6100   46.9910 C   0  0  0  0  0  0  0  0  0  0  0  0
   37.7020   30.7720   47.5250 C   0  0  0  0  0  0  0  0  0  0  0  0
   37.8760   30.4480   48.8660 C   0  0  0  0  0  0  0  0  0  0  0  0
   36.8140   29.9870   49.6040 C   0  0  0  0  0  0  0  0  0  0  0  0
   35.5880   29.8510   49.0000 C   0  0  0  0  0  0  0  0  0  0  0  0
   35.3410   30.1520   47.6750 C   0  0  0  0  0  0  0  0  0  0  0  0
   38.8580   30.5660   49.3150 H   0  0  0  0  0  0  0  0  0  0  0  0
   36.9540   29.7360   50.6470 H   0  0  0  0  0  0  0  0  0  0  0  0
   34.7580   29.4810   49.6070 H   0  0  0  0  0  0  0  0  0  0  0  0
   40.0930   33.1160   46.0700 C   0  0  0  0  0  0  0  0  0  0  0  0
   40.8710   32.3210   45.2010 C   0  0  0  0  0  0  0  0  0  0  0  0
   40.5430   30.9640   45.1360 C   0  0  0  0  0  0  0  0  0  0  0  0
   39.5160   30.4930   45.8970 N   0  0  0  0  0  0  0  0  0  0  0  0
   38.8080   31.2680   46.7020 C   0  0  0  0  0  0  0  0  0  0  0  0
   39.1130   32.5790   46.7740 N   0  0  0  0  0  0  0  0  0  0  0  0
   40.3120   34.1720   46.1510 H   0  0  0  0  0  0  0  0  0  0  0  0
   41.6600   32.7870   44.6410 H   0  0  0  0  0  0  0  0  0  0  0  0
   41.1220   30.3310   44.4800 H   0  0  0  0  0  0  0  0  0  0  0  0
   33.7630   29.9790   46.8930 S   0  0  0  0  0  0  0  0  0  0  0  0
   34.0770   27.4070   47.4410 C   0  0  0  0  0  3  0  0  0  0  0  0
   33.1470   28.3090   46.9140 C   0  0  0  0  0  0  0  0  0  0  0  0
   31.9240   27.8320   46.4910 C   0  0  0  0  0  0  0  0  0  0  0  0
   31.2930   28.5970   46.1070 H   0  0  0  0  0  0  0  0  0  0  0  0
   31.6620   26.4810   46.6040 C   0  0  0  0  0  0  0  0  0  0  0  0
   32.5610   25.5760   47.1200 C   0  0  0  0  0  0  0  0  0  0  0  0
   33.7840   26.0570   47.5430 C   0  0  0  0  0  3  0  0  0  0  0  0
   31.9440   24.3330   47.0710 O   0  0  0  0  0  0  0  0  0  0  0  0
   30.8110   24.4080   46.2390 C   0  0  0  0  0  3  0  0  0  0  0  0
   31.0900   24.0750   45.2200 H   0  0  0  0  0  0  0  0  0  0  0  0
   30.5210   25.7950   46.2500 O   0  0  0  0  0  0  0  0  0  0  0  0
  1  2  1  0  0  0  0
  2  3  2  0  0  0  0
  2  7  1  0  0  0  0
  3  4  1  0  0  0  0
  4  8  1  0  0  0  0
  4  5  2  0  0  0  0
  5  9  1  0  0  0  0
  6  5  1  0  0  0  0
  6 10  1  0  0  0  0
  7  6  2  0  0  0  0
 11 17  1  0  0  0  0
 11 16  1  0  0  0  0
 12 11  2  0  0  0  0
 13 12  1  0  0  0  0
 13 14  2  0  0  0  0
 14 15  1  0  0  0  0
 15 16  2  0  0  0  0
 15  3  1  0  0  0  0
 18 12  1  0  0  0  0
 19 13  1  0  0  0  0
 20 22  1  0  0  0  0
 20  7  1  0  0  0  0
 21 27  1  0  0  0  0
 22 21  2  0  0  0  0
 23 25  2  0  0  0  0
 23 22  1  0  0  0  0
 24 23  1  0  0  0  0
 25 26  1  0  0  0  0
 26 27  2  0  0  0  0
 28 26  1  0  0  0  0
 29 31  1  0  0  0  0
 29 28  1  0  0  0  0
 30 29  1  0  0  0  0
 31 25  1  0  0  0  0
M  END
>  <minimizedAffinity>
-5.54096889

>  <minimizedRMSD>
1.84713912

$$$$
