
 OpenBabel03272501563D

 33 36  0  0  0  0  0  0  0  0999 V2000
   32.9480   28.1860   47.8280 C   0  0  0  0  0  0  0  0  0  0  0  0
   32.0330   27.3520   48.4450 C   0  0  0  0  0  0  0  0  0  0  0  0
   30.7580   27.6500   47.9810 C   0  0  0  0  0  0  0  0  0  0  0  0
   30.9410   28.6670   47.0860 N   0  0  0  0  0  0  0  0  0  0  0  0
   32.2320   28.9660   47.0130 N   0  0  0  0  0  0  0  0  0  0  0  0
   32.2800   26.5930   49.1720 H   0  0  0  0  0  0  0  0  0  0  0  0
   29.8630   27.1390   48.3070 H   0  0  0  0  0  0  0  0  0  0  0  0
   28.5700   28.7170   46.9040 C   0  0  0  0  0  3  0  0  0  0  0  0
   29.7830   29.1850   46.4400 C   0  0  0  0  0  0  0  0  0  0  0  0
   29.8220   30.1000   45.4080 C   0  0  0  0  0  0  0  0  0  0  0  0
   30.7910   30.4460   45.0680 H   0  0  0  0  0  0  0  0  0  0  0  0
   28.6530   30.5600   44.8250 C   0  0  0  0  0  0  0  0  0  0  0  0
   27.4090   30.1090   45.2690 C   0  0  0  0  0  0  0  0  0  0  0  0
   27.4030   29.1840   46.3160 C   0  0  0  0  0  3  0  0  0  0  0  0
   26.3930   30.7180   44.5280 O   0  0  0  0  0  0  0  0  0  0  0  0
   27.0380   31.8390   43.9070 C   0  0  0  0  0  3  0  0  0  0  0  0
   26.5480   32.0240   42.9370 H   0  0  0  0  0  0  0  0  0  0  0  0
   28.3960   31.4590   43.7950 O   0  0  0  0  0  0  0  0  0  0  0  0
   34.4290   28.2200   48.0250 C   0  0  0  0  0  0  0  0  0  0  0  0
   34.9180   27.3440   47.5540 H   0  0  0  0  0  0  0  0  0  0  0  0
   34.7820   29.1750   47.5990 H   0  0  0  0  0  0  0  0  0  0  0  0
   34.6500   28.2670   49.5160 C   0  0  0  0  0  0  0  0  0  0  0  0
   34.8240   27.2530   49.9170 H   0  0  0  0  0  0  0  0  0  0  0  0
   33.7930   28.7710   50.0100 H   0  0  0  0  0  0  0  0  0  0  0  0
   37.2590   30.1750   51.3370 C   0  0  0  0  0  0  0  0  0  0  0  0
   38.0420   30.6810   50.2770 C   0  0  0  0  0  0  0  0  0  0  0  0
   37.6640   30.3600   48.9710 C   0  0  0  0  0  0  0  0  0  0  0  0
   36.5720   29.5860   48.7740 N   0  0  0  0  0  0  0  0  0  0  0  0
   35.8480   29.1210   49.8210 C   0  0  0  0  0  0  0  0  0  0  0  0
   36.1910   29.4150   51.0630 N   0  0  0  0  0  0  0  0  0  0  0  0
   37.4490   30.3540   52.3870 H   0  0  0  0  0  0  0  0  0  0  0  0
   38.8940   31.2900   50.5470 H   0  0  0  0  0  0  0  0  0  0  0  0
   38.2700   30.7520   48.1640 H   0  0  0  0  0  0  0  0  0  0  0  0
  1 19  1  0  0  0  0
  1  2  1  0  0  0  0
  2  6  1  0  0  0  0
  3  7  1  0  0  0  0
  3  2  2  0  0  0  0
  4  3  1  0  0  0  0
  5  4  1  0  0  0  0
  5  1  2  0  0  0  0
  9  8  1  0  0  0  0
  9  4  1  0  0  0  0
 10  9  2  0  0  0  0
 11 10  1  0  0  0  0
 12 13  2  0  0  0  0
 12 10  1  0  0  0  0
 13 14  1  0  0  0  0
 14  8  2  0  0  0  0
 15 13  1  0  0  0  0
 16 15  1  0  0  0  0
 17 16  1  0  0  0  0
 18 16  1  0  0  0  0
 18 12  1  0  0  0  0
 19 22  1  0  0  0  0
 20 19  1  0  0  0  0
 21 19  1  0  0  0  0
 22 29  1  0  0  0  0
 22 23  1  0  0  0  0
 22 24  1  0  0  0  0
 25 31  1  0  0  0  0
 26 32  1  0  0  0  0
 26 25  2  0  0  0  0
 27 26  1  0  0  0  0
 28 27  2  0  0  0  0
 28 29  1  0  0  0  0
 29 30  2  0  0  0  0
 30 25  1  0  0  0  0
 33 27  1  0  0  0  0
M  END
>  <minimizedAffinity>
-5.22151041

>  <minimizedRMSD>
0.260035247

$$$$
