
 OpenBabel03272501563D

 33 36  0  0  0  0  0  0  0  0999 V2000
   32.9880   28.0720   47.9520 C   0  0  0  0  0  0  0  0  0  0  0  0
   31.8560   27.4830   48.4860 C   0  0  0  0  0  0  0  0  0  0  0  0
   30.7410   27.9060   47.7740 C   0  0  0  0  0  0  0  0  0  0  0  0
   31.2370   28.7490   46.8180 N   0  0  0  0  0  0  0  0  0  0  0  0
   32.5560   28.8320   46.9410 N   0  0  0  0  0  0  0  0  0  0  0  0
   31.8500   26.8020   49.3250 H   0  0  0  0  0  0  0  0  0  0  0  0
   29.7310   27.5890   47.9920 H   0  0  0  0  0  0  0  0  0  0  0  0
   30.7940   29.7120   44.6890 C   0  0  0  0  0  3  0  0  0  0  0  0
   30.3020   29.3440   45.9240 C   0  0  0  0  0  0  0  0  0  0  0  0
   28.9740   29.5590   46.2320 C   0  0  0  0  0  0  0  0  0  0  0  0
   28.6200   29.2580   47.2110 H   0  0  0  0  0  0  0  0  0  0  0  0
   28.1200   30.1450   45.3120 C   0  0  0  0  0  0  0  0  0  0  0  0
   28.5840   30.5300   44.0520 C   0  0  0  0  0  0  0  0  0  0  0  0
   29.9340   30.2970   43.7720 C   0  0  0  0  0  3  0  0  0  0  0  0
   27.5390   31.0900   43.3150 O   0  0  0  0  0  0  0  0  0  0  0  0
   26.3570   30.6650   44.0060 C   0  0  0  0  0  3  0  0  0  0  0  0
   25.5880   31.4480   43.8860 H   0  0  0  0  0  0  0  0  0  0  0  0
   26.7700   30.4750   45.3450 O   0  0  0  0  0  0  0  0  0  0  0  0
   34.4030   27.9030   48.4020 C   0  0  0  0  0  0  0  0  0  0  0  0
   34.7180   26.8420   48.3520 H   0  0  0  0  0  0  0  0  0  0  0  0
   35.0180   28.5530   47.7570 H   0  0  0  0  0  0  0  0  0  0  0  0
   34.4610   28.4540   49.8050 C   0  0  0  0  0  0  0  0  0  0  0  0
   34.4240   27.6370   50.5470 H   0  0  0  0  0  0  0  0  0  0  0  0
   33.6470   29.1940   49.9560 H   0  0  0  0  0  0  0  0  0  0  0  0
   37.3430   30.1940   51.3640 C   0  0  0  0  0  0  0  0  0  0  0  0
   38.0720   30.6190   50.2330 C   0  0  0  0  0  0  0  0  0  0  0  0
   37.5670   30.3030   48.9690 C   0  0  0  0  0  0  0  0  0  0  0  0
   36.4090   29.6090   48.8800 N   0  0  0  0  0  0  0  0  0  0  0  0
   35.7400   29.2210   49.9920 C   0  0  0  0  0  0  0  0  0  0  0  0
   36.2040   29.5110   51.1950 N   0  0  0  0  0  0  0  0  0  0  0  0
   37.6310   30.3780   52.3910 H   0  0  0  0  0  0  0  0  0  0  0  0
   38.9860   31.1670   50.4190 H   0  0  0  0  0  0  0  0  0  0  0  0
   38.1330   30.6330   48.1070 H   0  0  0  0  0  0  0  0  0  0  0  0
  1 19  1  0  0  0  0
  1  2  1  0  0  0  0
  2  6  1  0  0  0  0
  3  7  1  0  0  0  0
  3  2  2  0  0  0  0
  4  5  1  0  0  0  0
  4  3  1  0  0  0  0
  5  1  2  0  0  0  0
  8  9  1  0  0  0  0
  9 10  2  0  0  0  0
  9  4  1  0  0  0  0
 10 11  1  0  0  0  0
 12 18  1  0  0  0  0
 12 10  1  0  0  0  0
 13 12  2  0  0  0  0
 14 13  1  0  0  0  0
 14  8  2  0  0  0  0
 15 16  1  0  0  0  0
 15 13  1  0  0  0  0
 16 18  1  0  0  0  0
 17 16  1  0  0  0  0
 19 22  1  0  0  0  0
 20 19  1  0  0  0  0
 21 19  1  0  0  0  0
 22 24  1  0  0  0  0
 22 29  1  0  0  0  0
 22 23  1  0  0  0  0
 25 31  1  0  0  0  0
 26 32  1  0  0  0  0
 26 25  2  0  0  0  0
 27 26  1  0  0  0  0
 28 27  2  0  0  0  0
 28 29  1  0  0  0  0
 29 30  2  0  0  0  0
 30 25  1  0  0  0  0
 33 27  1  0  0  0  0
M  END
>  <minimizedAffinity>
-5.13821077

>  <minimizedRMSD>
0.829562485

$$$$
