
 OpenBabel03272508013D

 30 33  0  0  0  0  0  0  0  0999 V2000
   37.1380   29.6910   43.1390 C   0  0  0  0  0  0  0  0  0  0  0  0
   35.8510   29.6740   43.5990 C   0  0  0  0  0  0  0  0  0  0  0  0
   35.8140   30.1540   44.9180 C   0  0  0  0  0  0  0  0  0  0  0  0
   37.1250   30.4460   45.1980 N   0  0  0  0  0  0  0  0  0  0  0  0
   37.8760   30.1710   44.1560 N   0  0  0  0  0  0  0  0  0  0  0  0
   35.0000   29.3300   42.9980 H   0  0  0  0  0  0  0  0  0  0  0  0
   34.9060   30.2240   45.4630 H   0  0  0  0  0  0  0  0  0  0  0  0
   36.8420   30.5560   47.6790 C   0  0  0  0  0  3  0  0  0  0  0  0
   37.4270   30.9660   46.4890 C   0  0  0  0  0  0  0  0  0  0  0  0
   38.4000   31.9690   46.4870 C   0  0  0  0  0  0  0  0  0  0  0  0
   38.8870   32.3260   45.5890 H   0  0  0  0  0  0  0  0  0  0  0  0
   38.7700   32.5450   47.6950 C   0  0  0  0  0  0  0  0  0  0  0  0
   38.1730   32.1220   48.8870 C   0  0  0  0  0  0  0  0  0  0  0  0
   37.2130   31.1310   48.8800 C   0  0  0  0  0  3  0  0  0  0  0  0
   38.7770   32.9050   49.8810 O   0  0  0  0  0  0  0  0  0  0  0  0
   39.2780   34.1040   49.2690 C   0  0  0  0  0  3  0  0  0  0  0  0
   40.0880   34.5560   49.8390 H   0  0  0  0  0  0  0  0  0  0  0  0
   39.6960   33.5510   48.0140 O   0  0  0  0  0  0  0  0  0  0  0  0
   37.6290   29.2770   41.8200 C   0  0  0  0  0  0  0  0  0  0  0  0
   38.9840   28.8850   41.7230 C   0  0  0  0  0  0  0  0  0  0  0  0
   39.4590   28.4880   40.4640 C   0  0  0  0  0  0  0  0  0  0  0  0
   38.5820   28.5100   39.4290 N   0  0  0  0  0  0  0  0  0  0  0  0
   37.3000   28.8880   39.5550 C   0  0  0  0  0  0  0  0  0  0  0  0
   36.8420   29.2680   40.7580 N   0  0  0  0  0  0  0  0  0  0  0  0
   39.6520   28.8820   42.5750 H   0  0  0  0  0  0  0  0  0  0  0  0
   36.6860   28.8670   38.6580 H   0  0  0  0  0  0  0  0  0  0  0  0
   40.8750   28.0730   40.3390 C   0  0  0  0  0  0  0  0  0  0  0  0
   40.8600   26.7060   40.1790 F   0  0  0  0  0  0  0  0  0  0  0  0
   41.4940   28.6390   39.2290 F   0  0  0  0  0  0  0  0  0  0  0  0
   41.6070   28.3590   41.4740 F   0  0  0  0  0  0  0  0  0  0  0  0
  1  2  1  0  0  0  0
  1  5  2  0  0  0  0
  2  3  2  0  0  0  0
  3  4  1  0  0  0  0
  3  7  1  0  0  0  0
  4  9  1  0  0  0  0
  5  4  1  0  0  0  0
  6  2  1  0  0  0  0
  8 14  1  0  0  0  0
  9  8  2  0  0  0  0
 10  9  1  0  0  0  0
 10 12  2  0  0  0  0
 11 10  1  0  0  0  0
 12 18  1  0  0  0  0
 12 13  1  0  0  0  0
 13 15  1  0  0  0  0
 14 13  2  0  0  0  0
 16 17  1  0  0  0  0
 16 15  1  0  0  0  0
 18 16  1  0  0  0  0
 19  1  1  0  0  0  0
 20 19  1  0  0  0  0
 20 25  1  0  0  0  0
 21 20  2  0  0  0  0
 22 23  2  0  0  0  0
 22 21  1  0  0  0  0
 23 24  1  0  0  0  0
 24 19  2  0  0  0  0
 26 23  1  0  0  0  0
 27 21  1  0  0  0  0
 27 30  1  0  0  0  0
 28 27  1  0  0  0  0
 29 27  1  0  0  0  0
M  END
>  <minimizedAffinity>
-4.87082815

>  <minimizedRMSD>
8.298316

$$$$
