
 OpenBabel03272501563D

 33 36  0  0  0  0  0  0  0  0999 V2000
   32.9280   28.2750   47.9030 C   0  0  0  0  0  0  0  0  0  0  0  0
   32.0850   27.5990   48.7670 C   0  0  0  0  0  0  0  0  0  0  0  0
   30.7820   27.6800   48.2910 C   0  0  0  0  0  0  0  0  0  0  0  0
   30.8770   28.4110   47.1390 N   0  0  0  0  0  0  0  0  0  0  0  0
   32.1430   28.7500   46.9310 N   0  0  0  0  0  0  0  0  0  0  0  0
   32.3980   27.0920   49.6670 H   0  0  0  0  0  0  0  0  0  0  0  0
   29.9310   27.2320   48.7840 H   0  0  0  0  0  0  0  0  0  0  0  0
   28.6620   27.7330   46.5980 C   0  0  0  0  0  3  0  0  0  0  0  0
   29.6710   28.6570   46.4220 C   0  0  0  0  0  0  0  0  0  0  0  0
   29.4790   29.7410   45.5890 C   0  0  0  0  0  0  0  0  0  0  0  0
   30.2930   30.4480   45.4730 H   0  0  0  0  0  0  0  0  0  0  0  0
   28.2780   29.9170   44.9220 C   0  0  0  0  0  0  0  0  0  0  0  0
   27.2360   29.0020   45.0770 C   0  0  0  0  0  0  0  0  0  0  0  0
   27.4620   27.9150   45.9260 C   0  0  0  0  0  3  0  0  0  0  0  0
   26.1400   29.3980   44.3050 O   0  0  0  0  0  0  0  0  0  0  0  0
   26.4060   30.7750   44.0060 C   0  0  0  0  0  3  0  0  0  0  0  0
   25.9680   31.0020   43.0180 H   0  0  0  0  0  0  0  0  0  0  0  0
   27.8150   30.8890   44.0420 O   0  0  0  0  0  0  0  0  0  0  0  0
   34.4070   28.4480   48.0210 C   0  0  0  0  0  0  0  0  0  0  0  0
   34.9490   27.7190   47.3860 H   0  0  0  0  0  0  0  0  0  0  0  0
   34.6260   29.4910   47.7400 H   0  0  0  0  0  0  0  0  0  0  0  0
   34.7290   28.2840   49.4860 C   0  0  0  0  0  0  0  0  0  0  0  0
   34.9710   27.2320   49.7170 H   0  0  0  0  0  0  0  0  0  0  0  0
   33.8900   28.6660   50.1030 H   0  0  0  0  0  0  0  0  0  0  0  0
   37.2730   30.1750   51.4140 C   0  0  0  0  0  0  0  0  0  0  0  0
   38.0770   30.7120   50.3860 C   0  0  0  0  0  0  0  0  0  0  0  0
   37.7350   30.4180   49.0640 C   0  0  0  0  0  0  0  0  0  0  0  0
   36.6560   29.6380   48.8220 N   0  0  0  0  0  0  0  0  0  0  0  0
   35.9110   29.1420   49.8400 C   0  0  0  0  0  0  0  0  0  0  0  0
   36.2200   29.4110   51.0970 N   0  0  0  0  0  0  0  0  0  0  0  0
   37.4350   30.3320   52.4730 H   0  0  0  0  0  0  0  0  0  0  0  0
   38.9160   31.3230   50.6910 H   0  0  0  0  0  0  0  0  0  0  0  0
   38.3570   30.8340   48.2820 H   0  0  0  0  0  0  0  0  0  0  0  0
  1 19  1  0  0  0  0
  1  2  1  0  0  0  0
  2  6  1  0  0  0  0
  3  2  2  0  0  0  0
  3  7  1  0  0  0  0
  4  3  1  0  0  0  0
  5  4  1  0  0  0  0
  5  1  2  0  0  0  0
  9  8  1  0  0  0  0
  9  4  1  0  0  0  0
 10  9  2  0  0  0  0
 11 10  1  0  0  0  0
 12 13  2  0  0  0  0
 12 10  1  0  0  0  0
 13 14  1  0  0  0  0
 14  8  2  0  0  0  0
 15 13  1  0  0  0  0
 16 18  1  0  0  0  0
 16 15  1  0  0  0  0
 17 16  1  0  0  0  0
 18 12  1  0  0  0  0
 19 22  1  0  0  0  0
 20 19  1  0  0  0  0
 21 19  1  0  0  0  0
 22 23  1  0  0  0  0
 22 29  1  0  0  0  0
 22 24  1  0  0  0  0
 25 31  1  0  0  0  0
 26 32  1  0  0  0  0
 26 25  2  0  0  0  0
 27 26  1  0  0  0  0
 28 27  2  0  0  0  0
 28 29  1  0  0  0  0
 29 30  2  0  0  0  0
 30 25  1  0  0  0  0
 33 27  1  0  0  0  0
M  END
>  <minimizedAffinity>
-5.29646492

>  <minimizedRMSD>
0.991400361

$$$$
