REMARK  Name = 
REMARK  3 active torsions:
REMARK  status: ('A' for Active; 'I' for Inactive)
REMARK    1  A    between atoms: C_1  and  C_7
REMARK    2  A    between atoms: C_3  and  C_12
REMARK    3  A    between atoms: N_10  and  C_21
REMARK                            x       y       z     vdW  Elec       q    Type
REMARK                         _______ _______ _______ _____ _____    ______ ____
ROOT
ATOM      1  C   UNL     1      39.100  31.111  45.907  0.00  0.00    +0.000 A 
ATOM      2  C   UNL     1      39.925  32.201  45.910  0.00  0.00    +0.000 A 
ATOM      3  C   UNL     1      40.942  32.027  44.958  0.00  0.00    +0.000 A 
ATOM      4  N   UNL     1      40.672  30.798  44.410  0.00  0.00    +0.000 N 
ATOM      5  N   UNL     1      39.603  30.284  44.972  0.00  0.00    +0.000 NA
ATOM      6  H   UNL     1      39.781  33.064  46.571  0.00  0.00    +0.000 HD
ATOM      7  H   UNL     1      41.692  32.761  44.799  0.00  0.00    +0.000 HD
ENDROOT
BRANCH   4   9
ATOM      8  C   UNL     1      42.473  31.088  42.700  0.00  0.00    +0.000 A 
ATOM      9  C   UNL     1      41.543  30.322  43.389  0.00  0.00    +0.000 A 
ATOM     10  C   UNL     1      41.400  28.960  43.106  0.00  0.00    +0.000 A 
ATOM     11  H   UNL     1      40.692  28.318  43.613  0.00  0.00    +0.000 HD
ATOM     12  C   UNL     1      42.202  28.392  42.126  0.00  0.00    +0.000 A 
ATOM     13  C   UNL     1      43.134  29.175  41.439  0.00  0.00    +0.000 A 
ATOM     14  C   UNL     1      43.270  30.519  41.725  0.00  0.00    +0.000 A 
ATOM     15  O   UNL     1      43.750  28.289  40.546  0.00  0.00    +0.000 OA
ATOM     16  C   UNL     1      42.857  27.190  40.312  0.00  0.00    +0.000 C 
ATOM     17  H   UNL     1      43.378  26.292  39.985  0.00  0.00    +0.000 HD
ATOM     18  O   UNL     1      42.292  27.084  41.626  0.00  0.00    +0.000 OA
ENDBRANCH   4   9
BRANCH   1  19
ATOM     19  C   UNL     1      37.915  30.875  46.739  0.00  0.00    +0.000 A 
ATOM     20  C   UNL     1      38.056  31.042  48.136  0.00  0.00    +0.000 A 
ATOM     21  C   UNL     1      36.926  30.818  48.936  0.00  0.00    +0.000 A 
ATOM     22  N   UNL     1      35.778  30.455  48.311  0.00  0.00    +0.000 NA
ATOM     23  C   UNL     1      35.678  30.305  46.980  0.00  0.00    +0.000 A 
ATOM     24  N   UNL     1      36.757  30.519  46.211  0.00  0.00    +0.000 NA
ATOM     25  H   UNL     1      38.992  31.333  48.596  0.00  0.00    +0.000 HD
ATOM     26  H   UNL     1      34.708  30.011  46.586  0.00  0.00    +0.000 HD
BRANCH  21  27
ATOM     27  C   UNL     1      37.050  30.987  50.402  0.00  0.00    +0.000 C 
ATOM     28  F   UNL     1      36.547  32.236  50.687  0.00  0.00    +0.000 F 
ATOM     29  F   UNL     1      36.310  30.043  51.106  0.00  0.00    +0.000 F 
ATOM     30  F   UNL     1      38.364  30.954  50.824  0.00  0.00    +0.000 F 
ENDBRANCH  21  27
ENDBRANCH   1  19
TORSDOF 3
