
 OpenBabel03262522143D

 47 51  0  0  1  0  0  0  0  0999 V2000
   39.4120   33.0300   43.9310 C   0  0  0  0  0  0  0  0  0  0  0  0
   38.3440   32.8920   44.1840 H   0  0  0  0  0  0  0  0  0  0  0  0
   39.4310   33.8690   43.1940 H   0  0  0  0  0  0  0  0  0  0  0  0
   39.1370   29.7170   42.6860 C   0  0  1  0  0  0  0  0  0  0  0  0
   39.0320   31.1890   42.3060 C   0  0  0  0  0  0  0  0  0  0  0  0
   40.0110   31.8150   43.2540 C   0  0  2  0  0  0  0  0  0  0  0  0
   40.4140   30.8600   44.1500 O   0  0  0  0  0  0  0  0  0  0  0  0
   39.4700   29.8500   44.1660 C   0  0  0  0  0  0  0  0  0  0  0  0
   39.9500   29.2640   42.1150 H   0  0  0  0  0  0  0  0  0  0  0  0
   39.4060   31.3730   41.2710 H   0  0  0  0  0  0  0  0  0  0  0  0
   38.0060   31.5700   42.4230 H   0  0  0  0  0  0  0  0  0  0  0  0
   40.9270   32.1880   42.7350 H   0  0  0  0  0  0  0  0  0  0  0  0
   38.5230   30.1160   44.6690 H   0  0  0  0  0  0  0  0  0  0  0  0
   39.9130   28.9020   44.5480 H   0  0  0  0  0  0  0  0  0  0  0  0
   37.9540   29.0510   42.4730 O   0  0  0  0  0  0  0  0  0  0  0  0
   36.3310   27.2750   42.8600 C   0  0  0  0  0  3  0  0  0  0  0  0
   37.6190   27.7510   42.7240 C   0  0  0  0  0  0  0  0  0  0  0  0
   38.6330   26.8200   42.8570 C   0  0  0  0  0  0  0  0  0  0  0  0
   39.6780   27.0490   42.7760 H   0  0  0  0  0  0  0  0  0  0  0  0
   38.3240   25.4830   43.1140 C   0  0  0  0  0  0  0  0  0  0  0  0
   37.0160   25.0210   43.2490 C   0  0  0  0  0  0  0  0  0  0  0  0
   36.0120   25.9560   43.1140 C   0  0  0  0  0  3  0  0  0  0  0  0
   37.0490   23.6560   43.4970 O   0  0  0  0  0  0  0  0  0  0  0  0
   38.3040   23.2040   43.0190 C   0  0  0  0  0  3  0  0  0  0  0  0
   38.6570   22.2940   43.5220 H   0  0  0  0  0  0  0  0  0  0  0  0
   39.1100   24.3350   43.2960 O   0  0  0  0  0  0  0  0  0  0  0  0
   40.4590   33.4520   45.3380 S   0  0  0  0  0  0  0  0  0  0  0  0
   37.7700   31.8540   47.7800 C   0  0  0  0  0  0  0  0  0  0  0  0
   37.9550   32.5420   48.9900 C   0  0  0  0  0  0  0  0  0  0  0  0
   38.9080   33.5210   49.1060 C   0  0  0  0  0  0  0  0  0  0  0  0
   39.6580   33.7810   47.9820 C   0  0  0  0  0  0  0  0  0  0  0  0
   39.4640   33.1020   46.8170 C   0  0  0  0  0  0  0  0  0  0  0  0
   38.5240   32.1330   46.6950 N   0  0  0  0  0  0  0  0  0  0  0  0
   37.3460   32.3130   49.8570 H   0  0  0  0  0  0  0  0  0  0  0  0
   39.0990   34.0870   50.0080 H   0  0  0  0  0  0  0  0  0  0  0  0
   40.4420   34.5360   47.9550 H   0  0  0  0  0  0  0  0  0  0  0  0
   36.7520   30.8420   47.7370 C   0  0  0  0  0  0  0  0  0  0  0  0
   36.3210   30.4040   46.6660 O   0  0  0  0  0  0  0  0  0  0  0  0
   37.0200   29.6300   49.8750 C   0  0  0  0  0  0  0  0  0  0  0  0
   36.1560   30.2610   48.9610 C   0  0  0  0  0  0  0  0  0  0  0  0
   34.7860   30.3190   49.2290 C   0  0  0  0  0  0  0  0  0  0  0  0
   34.3270   29.7540   50.3890 N   0  0  0  0  0  0  0  0  0  0  0  0
   35.1790   29.1520   51.2530 C   0  0  0  0  0  0  0  0  0  0  0  0
   36.4990   29.0950   50.9970 N   0  0  0  0  0  0  0  0  0  0  0  0
   38.0820   29.5660   49.7040 H   0  0  0  0  0  0  0  0  0  0  0  0
   34.1610   30.8030   48.5180 H   0  0  0  0  0  0  0  0  0  0  0  0
   34.8970   28.6920   52.1710 H   0  0  0  0  0  0  0  0  0  0  0  0
  1  2  1  0  0  0  0
  1 27  1  0  0  0  0
  3  1  1  0  0  0  0
  4  9  1  6  0  0  0
  4  8  1  0  0  0  0
  5 11  1  0  0  0  0
  5  4  1  0  0  0  0
  5  6  1  0  0  0  0
  6 12  1  6  0  0  0
  6  1  1  0  0  0  0
  6  7  1  0  0  0  0
  7  8  1  0  0  0  0
  8 14  1  0  0  0  0
  8 13  1  0  0  0  0
 10  5  1  0  0  0  0
 15  4  1  0  0  0  0
 15 17  1  0  0  0  0
 16 22  1  0  0  0  0
 17 18  1  0  0  0  0
 17 16  2  0  0  0  0
 18 20  2  0  0  0  0
 19 18  1  0  0  0  0
 20 21  1  0  0  0  0
 20 26  1  0  0  0  0
 21 23  1  0  0  0  0
 22 21  2  0  0  0  0
 24 26  1  0  0  0  0
 24 23  1  0  0  0  0
 24 25  1  0  0  0  0
 27 32  1  0  0  0  0
 28 29  1  0  0  0  0
 29 30  2  0  0  0  0
 29 34  1  0  0  0  0
 30 35  1  0  0  0  0
 31 30  1  0  0  0  0
 32 31  2  0  0  0  0
 33 32  1  0  0  0  0
 33 28  2  0  0  0  0
 36 31  1  0  0  0  0
 37 28  1  0  0  0  0
 37 40  1  0  0  0  0
 38 37  2  0  0  0  0
 39 44  1  0  0  0  0
 40 41  1  0  0  0  0
 40 39  2  0  0  0  0
 41 42  2  0  0  0  0
 42 43  1  0  0  0  0
 43 47  1  0  0  0  0
 44 43  2  0  0  0  0
 45 39  1  0  0  0  0
 46 41  1  0  0  0  0
M  END
>  <minimizedAffinity>
-5.59936142

>  <minimizedRMSD>
2.21421361

$$$$
