
     RDKit          3D

 50 54  0  0  0  0  0  0  0  0999 V2000
   37.7716   31.7525   47.6604 C   0  0  0  0  0  0  0  0  0  0  0  0
   37.9316   32.5440   48.8085 C   0  0  0  0  0  0  0  0  0  0  0  0
   38.9275   33.4835   48.8864 C   0  0  0  0  0  0  0  0  0  0  0  0
   39.7460   33.5990   47.7864 C   0  0  0  0  0  0  0  0  0  0  0  0
   39.5760   32.8220   46.6799 C   0  0  0  0  0  0  0  0  0  0  0  0
   38.5928   31.8909   46.5966 N   0  0  0  0  0  0  0  0  0  0  0  0
   36.7059   30.7910   47.6546 C   0  0  0  0  0  0  0  0  0  0  0  0
   36.2083   30.3829   46.6008 O   0  0  0  0  0  0  0  0  0  0  0  0
   37.0233   29.6315   49.8151 C   0  0  0  0  0  0  0  0  0  0  0  0
   36.1368   30.2289   48.9001 C   0  0  0  0  0  0  0  0  0  0  0  0
   34.7699   30.2735   49.1883 C   0  0  0  0  0  0  0  0  0  0  0  0
   34.3372   29.7266   50.3671 N   0  0  0  0  0  0  0  0  0  0  0  0
   35.2101   29.1572   51.2314 C   0  0  0  0  0  0  0  0  0  0  0  0
   36.5267   29.1132   50.9560 N   0  0  0  0  0  0  0  0  0  0  0  0
   40.6612   32.9810   45.2317 S   0  0  0  0  0  0  0  0  0  0  0  0
   39.5719   32.9275   43.7937 C   0  0  0  0  0  0  0  0  0  0  0  0
   38.7653   29.7896   42.3427 C   0  0  1  0  0  0  0  0  0  0  0  0
   38.8131   31.2908   42.0848 C   0  0  0  0  0  0  0  0  0  0  0  0
   39.9475   31.7117   42.9718 C   0  0  2  0  0  0  0  0  0  0  0  0
   40.3060   30.6428   43.7496 O   0  0  0  0  0  0  0  0  0  0  0  0
   39.2467   29.7545   43.7881 C   0  0  0  0  0  0  0  0  0  0  0  0
   37.4927   29.2902   42.2030 O   0  0  0  0  0  0  0  0  0  0  0  0
   37.2694   32.4283   49.6589 H   0  0  0  0  0  0  0  0  0  0  0  0
   39.1027   34.1229   49.7408 H   0  0  0  0  0  0  0  0  0  0  0  0
   40.5689   34.3085   47.7324 H   0  0  0  0  0  0  0  0  0  0  0  0
   38.0836   29.5779   49.6285 H   0  0  0  0  0  0  0  0  0  0  0  0
   34.1282   30.7318   48.4759 H   0  0  0  0  0  0  0  0  0  0  0  0
   34.9489   28.7135   52.1631 H   0  0  0  0  0  0  0  0  0  0  0  0
   38.4936   32.9587   44.0387 H   0  0  0  0  0  0  0  0  0  0  0  0
   39.7532   33.8302   43.1623 H   0  0  0  0  0  0  0  0  0  0  0  0
   39.4576   29.2945   41.6615 H   0  0  0  0  0  0  0  0  0  0  0  0
   39.1108   31.5166   41.0337 H   0  0  0  0  0  0  0  0  0  0  0  0
   37.8592   31.7797   42.3338 H   0  0  0  0  0  0  0  0  0  0  0  0
   40.8507   32.0167   42.3925 H   0  0  0  0  0  0  0  0  0  0  0  0
   38.3915   30.0885   44.4030 H   0  0  0  0  0  0  0  0  0  0  0  0
   39.5989   28.7319   44.0517 H   0  0  0  0  0  0  0  0  0  0  0  0
   35.7047   27.8907   41.3175 C   0  0  0  0  0  0  0  0  0  0  0  0
   37.0171   28.3160   41.3729 C   0  0  0  0  0  0  0  0  0  0  0  0
   37.8996   27.6916   40.5108 C   0  0  0  0  0  0  0  0  0  0  0  0
   38.9461   27.9207   40.4464 H   0  0  0  0  0  0  0  0  0  0  0  0
   37.4451   26.6918   39.6495 C   0  0  0  0  0  0  0  0  0  0  0  0
   36.1154   26.2755   39.6078 C   0  0  0  0  0  0  0  0  0  0  0  0
   35.2430   26.9035   40.4705 C   0  0  0  0  0  0  0  0  0  0  0  0
   35.9911   25.2749   38.6539 O   0  0  0  0  0  0  0  0  0  0  0  0
   37.0940   25.4343   37.7791 C   0  0  1  0  0  0  0  0  0  0  0  0
   37.3816   24.5033   37.2719 H   0  0  0  0  0  0  0  0  0  0  0  0
   38.0800   25.8936   38.6846 O   0  0  0  0  0  0  0  0  0  0  0  0
   34.9835   28.3545   41.9760 H   0  0  0  0  0  0  0  0  0  0  0  0
   34.1980   26.5944   40.4556 H   0  0  0  0  0  0  0  0  0  0  0  0
   36.8676   26.2620   37.0573 H   0  0  0  0  0  0  0  0  0  0  0  0
  1  2  2  0
  2  3  1  0
  4  3  2  0
  5  4  1  0
  6  5  2  0
  6  1  1  0
  7  1  1  0
  7 10  1  0
  8  7  2  0
  9 14  2  0
 10 11  2  0
 10  9  1  0
 11 12  1  0
 12 13  2  0
 14 13  1  0
 15  5  1  0
 16 15  1  0
 17 22  1  0
 17 21  1  0
 18 17  1  0
 18 19  1  0
 19 20  1  0
 19 16  1  0
 20 21  1  0
  2 23  1  0
  3 24  1  0
  4 25  1  0
  9 26  1  0
 11 27  1  0
 13 28  1  0
 16 29  1  0
 16 30  1  0
 17 31  1  6
 18 32  1  0
 18 33  1  0
 19 34  1  6
 21 35  1  0
 21 36  1  0
 37 38  2  0
 38 39  1  0
 39 40  1  0
 39 41  2  0
 41 42  1  0
 42 43  2  0
 42 44  1  0
 44 45  1  0
 45 46  1  6
 45 47  1  0
 43 37  1  0
 47 41  1  0
 37 48  1  0
 43 49  1  0
 45 50  1  0
 22 38  1  0
M  ISO  8  23  14  24  14  25  14  26  14  27  14  28  14  29   8  30   8
M  ISO  8  31  13  32  13  33  13  34  13  35  13  36  13  40  16  46   8
M  END
>  <DihAtoms>  (1) 
16,21,37,36

>  <DihDeg>  (1) 
-0.0004216417868099513

$$$$
