
 OpenBabel03262522143D

 47 51  0  0  1  0  0  0  0  0999 V2000
   39.6870   32.8310   43.8130 C   0  0  0  0  0  0  0  0  0  0  0  0
   38.6040   32.8830   44.0310 H   0  0  0  0  0  0  0  0  0  0  0  0
   39.8950   33.7110   43.1590 H   0  0  0  0  0  0  0  0  0  0  0  0
   38.8180   29.7760   42.2260 C   0  0  1  0  0  0  0  0  0  0  0  0
   39.0330   31.2670   41.9950 C   0  0  0  0  0  0  0  0  0  0  0  0
   40.0650   31.5860   43.0370 C   0  0  2  0  0  0  0  0  0  0  0  0
   40.2160   30.4900   43.8440 O   0  0  0  0  0  0  0  0  0  0  0  0
   39.0880   29.6990   43.7240 C   0  0  0  0  0  0  0  0  0  0  0  0
   39.5530   29.2210   41.6420 H   0  0  0  0  0  0  0  0  0  0  0  0
   39.4940   31.4650   40.9990 H   0  0  0  0  0  0  0  0  0  0  0  0
   38.1010   31.8390   42.1150 H   0  0  0  0  0  0  0  0  0  0  0  0
   41.0640   31.8090   42.5920 H   0  0  0  0  0  0  0  0  0  0  0  0
   38.1880   30.1070   44.2170 H   0  0  0  0  0  0  0  0  0  0  0  0
   39.3080   28.6490   44.0220 H   0  0  0  0  0  0  0  0  0  0  0  0
   37.5390   29.3920   41.9040 O   0  0  0  0  0  0  0  0  0  0  0  0
   36.7210   27.1720   42.4920 C   0  0  0  0  0  3  0  0  0  0  0  0
   36.6830   28.5510   42.5560 C   0  0  0  0  0  0  0  0  0  0  0  0
   35.6910   29.0990   43.3490 C   0  0  0  0  0  0  0  0  0  0  0  0
   35.5440   30.1530   43.4900 H   0  0  0  0  0  0  0  0  0  0  0  0
   34.8000   28.2670   44.0280 C   0  0  0  0  0  0  0  0  0  0  0  0
   34.8550   26.8760   43.9510 C   0  0  0  0  0  0  0  0  0  0  0  0
   35.8470   26.3380   43.1590 C   0  0  0  0  0  3  0  0  0  0  0  0
   33.8400   26.3470   44.7360 O   0  0  0  0  0  0  0  0  0  0  0  0
   33.5040   27.3570   45.6690 C   0  0  0  0  0  3  0  0  0  0  0  0
   32.4730   27.2780   46.0410 H   0  0  0  0  0  0  0  0  0  0  0  0
   33.7170   28.5160   44.8860 O   0  0  0  0  0  0  0  0  0  0  0  0
   40.7420   32.9130   45.2750 S   0  0  0  0  0  0  0  0  0  0  0  0
   37.7900   31.7610   47.6630 C   0  0  0  0  0  0  0  0  0  0  0  0
   37.9280   32.5790   48.7960 C   0  0  0  0  0  0  0  0  0  0  0  0
   38.9280   33.5130   48.8740 C   0  0  0  0  0  0  0  0  0  0  0  0
   39.7720   33.5980   47.7910 C   0  0  0  0  0  0  0  0  0  0  0  0
   39.6230   32.7960   46.7000 C   0  0  0  0  0  0  0  0  0  0  0  0
   38.6360   31.8690   46.6160 N   0  0  0  0  0  0  0  0  0  0  0  0
   37.2450   32.4870   49.6330 H   0  0  0  0  0  0  0  0  0  0  0  0
   39.0870   34.1730   49.7170 H   0  0  0  0  0  0  0  0  0  0  0  0
   40.6010   34.3020   47.7390 H   0  0  0  0  0  0  0  0  0  0  0  0
   36.7180   30.8060   47.6560 C   0  0  0  0  0  0  0  0  0  0  0  0
   36.2140   30.4070   46.6010 O   0  0  0  0  0  0  0  0  0  0  0  0
   37.0360   29.6340   49.8090 C   0  0  0  0  0  0  0  0  0  0  0  0
   36.1500   30.2390   48.8990 C   0  0  0  0  0  0  0  0  0  0  0  0
   34.7840   30.2860   49.1910 C   0  0  0  0  0  0  0  0  0  0  0  0
   34.3520   29.7360   50.3680 N   0  0  0  0  0  0  0  0  0  0  0  0
   35.2250   29.1590   51.2270 C   0  0  0  0  0  0  0  0  0  0  0  0
   36.5420   29.1120   50.9490 N   0  0  0  0  0  0  0  0  0  0  0  0
   38.0970   29.5780   49.6200 H   0  0  0  0  0  0  0  0  0  0  0  0
   34.1420   30.7510   48.4830 H   0  0  0  0  0  0  0  0  0  0  0  0
   34.9650   28.7110   52.1580 H   0  0  0  0  0  0  0  0  0  0  0  0
  1  2  1  0  0  0  0
  1 27  1  0  0  0  0
  3  1  1  0  0  0  0
  4  9  1  6  0  0  0
  4  8  1  0  0  0  0
  5 11  1  0  0  0  0
  5  4  1  0  0  0  0
  5  6  1  0  0  0  0
  6 12  1  6  0  0  0
  6  1  1  0  0  0  0
  6  7  1  0  0  0  0
  8  7  1  0  0  0  0
  8 14  1  0  0  0  0
  8 13  1  0  0  0  0
 10  5  1  0  0  0  0
 15  4  1  0  0  0  0
 15 17  1  0  0  0  0
 16 17  2  0  0  0  0
 16 22  1  0  0  0  0
 17 18  1  0  0  0  0
 18 19  1  0  0  0  0
 18 20  2  0  0  0  0
 20 26  1  0  0  0  0
 21 20  1  0  0  0  0
 21 23  1  0  0  0  0
 22 21  2  0  0  0  0
 23 24  1  0  0  0  0
 24 25  1  0  0  0  0
 26 24  1  0  0  0  0
 27 32  1  0  0  0  0
 28 29  1  0  0  0  0
 29 30  2  0  0  0  0
 29 34  1  0  0  0  0
 30 35  1  0  0  0  0
 31 30  1  0  0  0  0
 32 31  2  0  0  0  0
 33 32  1  0  0  0  0
 33 28  2  0  0  0  0
 36 31  1  0  0  0  0
 37 28  1  0  0  0  0
 37 40  1  0  0  0  0
 38 37  2  0  0  0  0
 39 44  1  0  0  0  0
 40 41  1  0  0  0  0
 40 39  2  0  0  0  0
 41 42  2  0  0  0  0
 42 43  1  0  0  0  0
 43 47  1  0  0  0  0
 44 43  2  0  0  0  0
 45 39  1  0  0  0  0
 46 41  1  0  0  0  0
M  END
>  <minimizedAffinity>
-5.50253248

>  <minimizedRMSD>
2.3029561

$$$$
