
 OpenBabel03262522173D

 47 51  0  0  1  0  0  0  0  0999 V2000
   37.7030   25.8910   30.8710 C   0  0  0  0  0  0  0  0  0  0  0  0
   38.5140   25.1390   30.8810 H   0  0  0  0  0  0  0  0  0  0  0  0
   37.6600   26.2590   29.8180 H   0  0  0  0  0  0  0  0  0  0  0  0
   36.6370   28.6820   32.7880 C   0  0  1  0  0  0  0  0  0  0  0  0
   36.9890   27.2020   32.8580 C   0  0  0  0  0  0  0  0  0  0  0  0
   38.0030   27.0820   31.7590 C   0  0  2  0  0  0  0  0  0  0  0  0
   38.0270   28.2620   31.0630 O   0  0  0  0  0  0  0  0  0  0  0  0
   36.8400   28.9320   31.2990 C   0  0  0  0  0  0  0  0  0  0  0  0
   37.3440   29.2410   33.4040 H   0  0  0  0  0  0  0  0  0  0  0  0
   37.5050   26.9480   33.8150 H   0  0  0  0  0  0  0  0  0  0  0  0
   36.1060   26.5630   32.7090 H   0  0  0  0  0  0  0  0  0  0  0  0
   39.0350   26.9060   32.1470 H   0  0  0  0  0  0  0  0  0  0  0  0
   35.9600   28.4960   30.7930 H   0  0  0  0  0  0  0  0  0  0  0  0
   36.9570   30.0220   31.1030 H   0  0  0  0  0  0  0  0  0  0  0  0
   35.3430   28.9170   33.1870 O   0  0  0  0  0  0  0  0  0  0  0  0
   35.6000   30.6330   34.8970 C   0  0  0  0  0  3  0  0  0  0  0  0
   34.8620   29.7030   34.1940 C   0  0  0  0  0  0  0  0  0  0  0  0
   33.5340   29.5730   34.5570 C   0  0  0  0  0  0  0  0  0  0  0  0
   32.8450   28.8910   34.0980 H   0  0  0  0  0  0  0  0  0  0  0  0
   33.0110   30.3610   35.5840 C   0  0  0  0  0  0  0  0  0  0  0  0
   33.7720   31.2970   36.2820 C   0  0  0  0  0  0  0  0  0  0  0  0
   35.0950   31.4190   35.9130 C   0  0  0  0  0  3  0  0  0  0  0  0
   32.9650   31.9100   37.2310 O   0  0  0  0  0  0  0  0  0  0  0  0
   31.6330   31.7290   36.7820 C   0  0  0  0  0  3  0  0  0  0  0  0
   30.8950   31.7480   37.5960 H   0  0  0  0  0  0  0  0  0  0  0  0
   31.7370   30.4590   36.1650 O   0  0  0  0  0  0  0  0  0  0  0  0
   36.0860   25.2430   31.3410 S   0  0  0  0  0  0  0  0  0  0  0  0
   37.7480   22.3280   33.4600 C   0  0  0  0  0  0  0  0  0  0  0  0
   36.9200   21.2190   33.2230 C   0  0  0  0  0  0  0  0  0  0  0  0
   35.8230   21.3190   32.4070 C   0  0  0  0  0  0  0  0  0  0  0  0
   35.5890   22.5520   31.8450 C   0  0  0  0  0  0  0  0  0  0  0  0
   36.4030   23.6170   32.0870 C   0  0  0  0  0  0  0  0  0  0  0  0
   37.4900   23.5260   32.8930 N   0  0  0  0  0  0  0  0  0  0  0  0
   37.1330   20.2590   33.6810 H   0  0  0  0  0  0  0  0  0  0  0  0
   35.1470   20.5030   32.1850 H   0  0  0  0  0  0  0  0  0  0  0  0
   34.7490   22.7510   31.1810 H   0  0  0  0  0  0  0  0  0  0  0  0
   38.8780   22.1440   34.3260 C   0  0  0  0  0  0  0  0  0  0  0  0
   39.9300   21.6400   33.9200 O   0  0  0  0  0  0  0  0  0  0  0  0
   40.0350   22.3530   36.5010 C   0  0  0  0  0  0  0  0  0  0  0  0
   38.8590   22.5420   35.7520 C   0  0  0  0  0  0  0  0  0  0  0  0
   37.7280   23.0880   36.3640 C   0  0  0  0  0  0  0  0  0  0  0  0
   37.8060   23.4260   37.6890 N   0  0  0  0  0  0  0  0  0  0  0  0
   38.9500   23.2350   38.3890 C   0  0  0  0  0  0  0  0  0  0  0  0
   40.0410   22.7090   37.8010 N   0  0  0  0  0  0  0  0  0  0  0  0
   40.9280   21.9350   36.0640 H   0  0  0  0  0  0  0  0  0  0  0  0
   36.8560   23.2170   35.7700 H   0  0  0  0  0  0  0  0  0  0  0  0
   39.0860   23.4720   39.4180 H   0  0  0  0  0  0  0  0  0  0  0  0
  1  2  1  0  0  0  0
  1 27  1  0  0  0  0
  1  6  1  0  0  0  0
  3  1  1  0  0  0  0
  4  5  1  0  0  0  0
  4 15  1  0  0  0  0
  4  9  1  1  0  0  0
  5 10  1  0  0  0  0
  6 12  1  1  0  0  0
  6  5  1  0  0  0  0
  7  8  1  0  0  0  0
  7  6  1  0  0  0  0
  8  4  1  0  0  0  0
 11  5  1  0  0  0  0
 13  8  1  0  0  0  0
 14  8  1  0  0  0  0
 15 17  1  0  0  0  0
 16 22  1  0  0  0  0
 17 18  1  0  0  0  0
 17 16  2  0  0  0  0
 18 20  2  0  0  0  0
 19 18  1  0  0  0  0
 20 26  1  0  0  0  0
 20 21  1  0  0  0  0
 21 23  1  0  0  0  0
 22 21  2  0  0  0  0
 24 23  1  0  0  0  0
 24 25  1  0  0  0  0
 26 24  1  0  0  0  0
 27 32  1  0  0  0  0
 28 37  1  0  0  0  0
 29 28  1  0  0  0  0
 29 34  1  0  0  0  0
 30 29  2  0  0  0  0
 31 32  2  0  0  0  0
 31 30  1  0  0  0  0
 32 33  1  0  0  0  0
 33 28  2  0  0  0  0
 35 30  1  0  0  0  0
 36 31  1  0  0  0  0
 37 40  1  0  0  0  0
 38 37  2  0  0  0  0
 39 44  1  0  0  0  0
 40 41  1  0  0  0  0
 40 39  2  0  0  0  0
 41 42  2  0  0  0  0
 42 43  1  0  0  0  0
 43 47  1  0  0  0  0
 44 43  2  0  0  0  0
 45 39  1  0  0  0  0
 46 41  1  0  0  0  0
M  END
>  <minimizedAffinity>
-6.24444246

$$$$

 OpenBabel03262522173D

 47 51  0  0  1  0  0  0  0  0999 V2000
   37.2670   26.5350   35.1160 C   0  0  0  0  0  0  0  0  0  0  0  0
   37.1150   27.6020   35.3650 H   0  0  0  0  0  0  0  0  0  0  0  0
   36.3350   26.0220   35.4520 H   0  0  0  0  0  0  0  0  0  0  0  0
   39.0260   23.7040   36.3370 C   0  0  1  0  0  0  0  0  0  0  0  0
   38.9310   24.6900   35.1790 C   0  0  0  0  0  0  0  0  0  0  0  0
   38.4250   25.9200   35.8740 C   0  0  2  0  0  0  0  0  0  0  0  0
   38.0920   25.5830   37.1590 O   0  0  0  0  0  0  0  0  0  0  0  0
   37.8910   24.2160   37.2150 C   0  0  0  0  0  0  0  0  0  0  0  0
   40.0020   23.8130   36.8120 H   0  0  0  0  0  0  0  0  0  0  0  0
   39.9370   24.9330   34.7630 H   0  0  0  0  0  0  0  0  0  0  0  0
   38.2580   24.3280   34.3870 H   0  0  0  0  0  0  0  0  0  0  0  0
   39.1980   26.7240   35.9330 H   0  0  0  0  0  0  0  0  0  0  0  0
   36.9570   23.8710   36.7380 H   0  0  0  0  0  0  0  0  0  0  0  0
   38.0110   23.8420   38.2570 H   0  0  0  0  0  0  0  0  0  0  0  0
   38.8230   22.4100   35.9210 O   0  0  0  0  0  0  0  0  0  0  0  0
   36.6420   21.3390   35.7340 C   0  0  0  0  0  3  0  0  0  0  0  0
   37.7990   21.8690   35.1980 C   0  0  0  0  0  0  0  0  0  0  0  0
   37.9070   21.8370   33.8200 C   0  0  0  0  0  0  0  0  0  0  0  0
   38.7480   22.2120   33.2700 H   0  0  0  0  0  0  0  0  0  0  0  0
   36.8770   21.2900   33.0520 C   0  0  0  0  0  0  0  0  0  0  0  0
   35.7150   20.7600   33.6110 C   0  0  0  0  0  0  0  0  0  0  0  0
   35.6180   20.7960   34.9860 C   0  0  0  0  0  3  0  0  0  0  0  0
   34.8980   20.3000   32.5870 O   0  0  0  0  0  0  0  0  0  0  0  0
   35.3090   20.9930   31.4220 C   0  0  0  0  0  3  0  0  0  0  0  0
   35.0900   20.4470   30.4940 H   0  0  0  0  0  0  0  0  0  0  0  0
   36.6970   21.1180   31.6710 O   0  0  0  0  0  0  0  0  0  0  0  0
   37.5230   26.2140   33.3580 S   0  0  0  0  0  0  0  0  0  0  0  0
   35.4100   29.4650   32.5110 C   0  0  0  0  0  0  0  0  0  0  0  0
   35.8690   29.8490   31.2410 C   0  0  0  0  0  0  0  0  0  0  0  0
   36.8410   29.1290   30.5940 C   0  0  0  0  0  0  0  0  0  0  0  0
   37.3290   28.0270   31.2570 C   0  0  0  0  0  0  0  0  0  0  0  0
   36.8720   27.6710   32.4900 C   0  0  0  0  0  0  0  0  0  0  0  0
   35.9110   28.3780   33.1350 N   0  0  0  0  0  0  0  0  0  0  0  0
   35.4620   30.7230   30.7450 H   0  0  0  0  0  0  0  0  0  0  0  0
   37.2350   29.3720   29.6160 H   0  0  0  0  0  0  0  0  0  0  0  0
   38.1000   27.3810   30.8430 H   0  0  0  0  0  0  0  0  0  0  0  0
   34.3910   30.2700   33.1240 C   0  0  0  0  0  0  0  0  0  0  0  0
   33.3040   30.4670   32.5730 O   0  0  0  0  0  0  0  0  0  0  0  0
   33.5190   30.8160   35.3720 C   0  0  0  0  0  0  0  0  0  0  0  0
   34.5730   30.9110   34.4450 C   0  0  0  0  0  0  0  0  0  0  0  0
   35.7400   31.5980   34.7930 C   0  0  0  0  0  0  0  0  0  0  0  0
   35.8160   32.1590   36.0400 N   0  0  0  0  0  0  0  0  0  0  0  0
   34.7870   32.0530   36.9140 C   0  0  0  0  0  0  0  0  0  0  0  0
   33.6620   31.3920   36.5810 N   0  0  0  0  0  0  0  0  0  0  0  0
   32.6030   30.2940   35.1410 H   0  0  0  0  0  0  0  0  0  0  0  0
   36.5170   31.6520   34.0700 H   0  0  0  0  0  0  0  0  0  0  0  0
   34.7730   32.4610   37.8970 H   0  0  0  0  0  0  0  0  0  0  0  0
  1  2  1  0  0  0  0
  1  3  1  0  0  0  0
  1  6  1  0  0  0  0
  4  9  1  1  0  0  0
  4  8  1  0  0  0  0
  5  6  1  0  0  0  0
  5  4  1  0  0  0  0
  6 12  1  1  0  0  0
  6  7  1  0  0  0  0
  7  8  1  0  0  0  0
  8 14  1  0  0  0  0
 10  5  1  0  0  0  0
 11  5  1  0  0  0  0
 13  8  1  0  0  0  0
 15  4  1  0  0  0  0
 17 16  1  0  0  0  0
 17 15  1  0  0  0  0
 18 17  2  0  0  0  0
 19 18  1  0  0  0  0
 20 21  2  0  0  0  0
 20 18  1  0  0  0  0
 21 22  1  0  0  0  0
 22 16  2  0  0  0  0
 23 21  1  0  0  0  0
 24 26  1  0  0  0  0
 24 23  1  0  0  0  0
 25 24  1  0  0  0  0
 26 20  1  0  0  0  0
 27  1  1  0  0  0  0
 28 37  1  0  0  0  0
 28 33  1  0  0  0  0
 29 28  2  0  0  0  0
 30 29  1  0  0  0  0
 30 31  2  0  0  0  0
 31 32  1  0  0  0  0
 32 33  2  0  0  0  0
 32 27  1  0  0  0  0
 34 29  1  0  0  0  0
 35 30  1  0  0  0  0
 36 31  1  0  0  0  0
 37 40  1  0  0  0  0
 38 37  2  0  0  0  0
 39 44  1  0  0  0  0
 40 41  1  0  0  0  0
 40 39  2  0  0  0  0
 41 42  2  0  0  0  0
 42 43  1  0  0  0  0
 43 47  1  0  0  0  0
 44 43  2  0  0  0  0
 45 39  1  0  0  0  0
 46 41  1  0  0  0  0
M  END
>  <minimizedAffinity>
-6.2115674

$$$$

 OpenBabel03262522173D

 47 51  0  0  1  0  0  0  0  0999 V2000
   35.8270   24.4830   31.5010 C   0  0  0  0  0  0  0  0  0  0  0  0
   35.6930   24.3390   32.5890 H   0  0  0  0  0  0  0  0  0  0  0  0
   34.8980   24.0750   31.0360 H   0  0  0  0  0  0  0  0  0  0  0  0
   38.6080   22.3230   31.9540 C   0  0  1  0  0  0  0  0  0  0  0  0
   37.1190   22.3640   31.6290 C   0  0  0  0  0  0  0  0  0  0  0  0
   36.9980   23.6960   30.9490 C   0  0  2  0  0  0  0  0  0  0  0  0
   38.1880   24.3600   31.0850 O   0  0  0  0  0  0  0  0  0  0  0  0
   38.8760   23.8100   32.1500 C   0  0  0  0  0  0  0  0  0  0  0  0
   39.1430   21.9130   31.0960 H   0  0  0  0  0  0  0  0  0  0  0  0
   36.8410   21.5830   30.8830 H   0  0  0  0  0  0  0  0  0  0  0  0
   36.5000   22.2780   32.5340 H   0  0  0  0  0  0  0  0  0  0  0  0
   36.7970   23.5990   29.8550 H   0  0  0  0  0  0  0  0  0  0  0  0
   38.4650   24.0660   33.1430 H   0  0  0  0  0  0  0  0  0  0  0  0
   39.9670   24.0190   32.0650 H   0  0  0  0  0  0  0  0  0  0  0  0
   38.8600   21.5910   33.0880 O   0  0  0  0  0  0  0  0  0  0  0  0
   40.3430   22.1770   34.9320 C   0  0  0  0  0  3  0  0  0  0  0  0
   39.0940   22.0050   34.3680 C   0  0  0  0  0  0  0  0  0  0  0  0
   38.0110   22.2790   35.1830 C   0  0  0  0  0  0  0  0  0  0  0  0
   36.9870   22.1890   34.8790 H   0  0  0  0  0  0  0  0  0  0  0  0
   38.2170   22.7030   36.4970 C   0  0  0  0  0  0  0  0  0  0  0  0
   39.4860   22.8720   37.0490 C   0  0  0  0  0  0  0  0  0  0  0  0
   40.5590   22.5960   36.2290 C   0  0  0  0  0  3  0  0  0  0  0  0
   39.3470   23.2990   38.3620 O   0  0  0  0  0  0  0  0  0  0  0  0
   38.0540   23.8710   38.4500 C   0  0  0  0  0  3  0  0  0  0  0  0
   37.6360   23.8430   39.4660 H   0  0  0  0  0  0  0  0  0  0  0  0
   37.3450   23.0500   37.5410 O   0  0  0  0  0  0  0  0  0  0  0  0
   36.0340   26.2050   31.0020 S   0  0  0  0  0  0  0  0  0  0  0  0
   35.9580   29.0980   33.7180 C   0  0  0  0  0  0  0  0  0  0  0  0
   36.6740   28.5660   34.8030 C   0  0  0  0  0  0  0  0  0  0  0  0
   37.2070   27.3040   34.7460 C   0  0  0  0  0  0  0  0  0  0  0  0
   37.0000   26.6050   33.5800 C   0  0  0  0  0  0  0  0  0  0  0  0
   36.3030   27.1360   32.5380 C   0  0  0  0  0  0  0  0  0  0  0  0
   35.7720   28.3840   32.5870 N   0  0  0  0  0  0  0  0  0  0  0  0
   36.8190   29.1450   35.7080 H   0  0  0  0  0  0  0  0  0  0  0  0
   37.7680   26.8390   35.5460 H   0  0  0  0  0  0  0  0  0  0  0  0
   37.3760   25.5960   33.4200 H   0  0  0  0  0  0  0  0  0  0  0  0
   35.4300   30.4260   33.8530 C   0  0  0  0  0  0  0  0  0  0  0  0
   35.5380   31.2600   32.9480 O   0  0  0  0  0  0  0  0  0  0  0  0
   33.4100   30.4330   35.2770 C   0  0  0  0  0  0  0  0  0  0  0  0
   34.7280   30.8810   35.0730 C   0  0  0  0  0  0  0  0  0  0  0  0
   35.3240   31.7290   36.0110 C   0  0  0  0  0  0  0  0  0  0  0  0
   34.5940   32.0960   37.1100 N   0  0  0  0  0  0  0  0  0  0  0  0
   33.3270   31.6510   37.2840 C   0  0  0  0  0  0  0  0  0  0  0  0
   32.7510   30.8350   36.3820 N   0  0  0  0  0  0  0  0  0  0  0  0
   32.9160   29.7780   34.5770 H   0  0  0  0  0  0  0  0  0  0  0  0
   36.3200   32.0490   35.8270 H   0  0  0  0  0  0  0  0  0  0  0  0
   32.7000   31.8930   38.1100 H   0  0  0  0  0  0  0  0  0  0  0  0
  1  2  1  0  0  0  0
  3  1  1  0  0  0  0
  4  9  1  6  0  0  0
  4  8  1  0  0  0  0
  4 15  1  0  0  0  0
  5  4  1  0  0  0  0
  5 11  1  0  0  0  0
  6 12  1  6  0  0  0
  6  7  1  0  0  0  0
  6  1  1  0  0  0  0
  6  5  1  0  0  0  0
  7  8  1  0  0  0  0
  8 13  1  0  0  0  0
 10  5  1  0  0  0  0
 14  8  1  0  0  0  0
 15 17  1  0  0  0  0
 16 22  1  0  0  0  0
 17 16  2  0  0  0  0
 17 18  1  0  0  0  0
 18 20  2  0  0  0  0
 19 18  1  0  0  0  0
 20 21  1  0  0  0  0
 20 26  1  0  0  0  0
 21 23  1  0  0  0  0
 22 21  2  0  0  0  0
 23 24  1  0  0  0  0
 24 25  1  0  0  0  0
 26 24  1  0  0  0  0
 27  1  1  0  0  0  0
 27 32  1  0  0  0  0
 28 37  1  0  0  0  0
 28 29  1  0  0  0  0
 29 34  1  0  0  0  0
 30 29  2  0  0  0  0
 30 35  1  0  0  0  0
 31 30  1  0  0  0  0
 32 33  1  0  0  0  0
 32 31  2  0  0  0  0
 33 28  2  0  0  0  0
 36 31  1  0  0  0  0
 37 40  1  0  0  0  0
 38 37  2  0  0  0  0
 39 44  1  0  0  0  0
 40 39  2  0  0  0  0
 40 41  1  0  0  0  0
 41 42  2  0  0  0  0
 42 43  1  0  0  0  0
 43 47  1  0  0  0  0
 44 43  2  0  0  0  0
 45 39  1  0  0  0  0
 46 41  1  0  0  0  0
M  END
>  <minimizedAffinity>
-6.10798883

$$$$

 OpenBabel03262522173D

 47 51  0  0  1  0  0  0  0  0999 V2000
   37.3430   26.5590   35.1180 C   0  0  0  0  0  0  0  0  0  0  0  0
   37.3050   27.6570   35.2410 H   0  0  0  0  0  0  0  0  0  0  0  0
   36.3820   26.1840   35.5430 H   0  0  0  0  0  0  0  0  0  0  0  0
   39.0380   23.6970   36.3600 C   0  0  1  0  0  0  0  0  0  0  0  0
   38.9910   24.7000   35.2140 C   0  0  0  0  0  0  0  0  0  0  0  0
   38.4700   25.9240   35.9080 C   0  0  2  0  0  0  0  0  0  0  0  0
   38.0880   25.5720   37.1760 O   0  0  0  0  0  0  0  0  0  0  0  0
   37.8760   24.2060   37.2050 C   0  0  0  0  0  0  0  0  0  0  0  0
   39.9980   23.7930   36.8720 H   0  0  0  0  0  0  0  0  0  0  0  0
   40.0130   24.9410   34.8380 H   0  0  0  0  0  0  0  0  0  0  0  0
   38.3440   24.3540   34.3940 H   0  0  0  0  0  0  0  0  0  0  0  0
   39.2450   26.7210   36.0060 H   0  0  0  0  0  0  0  0  0  0  0  0
   36.9570   23.8740   36.6900 H   0  0  0  0  0  0  0  0  0  0  0  0
   37.9560   23.8160   38.2450 H   0  0  0  0  0  0  0  0  0  0  0  0
   38.8410   22.4110   35.9190 O   0  0  0  0  0  0  0  0  0  0  0  0
   36.6580   21.3460   35.7300 C   0  0  0  0  0  3  0  0  0  0  0  0
   37.8140   21.8770   35.1960 C   0  0  0  0  0  0  0  0  0  0  0  0
   37.9180   21.8540   33.8170 C   0  0  0  0  0  0  0  0  0  0  0  0
   38.7590   22.2310   33.2670 H   0  0  0  0  0  0  0  0  0  0  0  0
   36.8860   21.3140   33.0480 C   0  0  0  0  0  0  0  0  0  0  0  0
   35.7240   20.7830   33.6060 C   0  0  0  0  0  0  0  0  0  0  0  0
   35.6300   20.8100   34.9810 C   0  0  0  0  0  3  0  0  0  0  0  0
   34.9030   20.3320   32.5820 O   0  0  0  0  0  0  0  0  0  0  0  0
   35.3130   21.0320   31.4200 C   0  0  0  0  0  3  0  0  0  0  0  0
   35.0900   20.4920   30.4890 H   0  0  0  0  0  0  0  0  0  0  0  0
   36.7020   21.1530   31.6660 O   0  0  0  0  0  0  0  0  0  0  0  0
   37.4910   26.0100   33.4050 S   0  0  0  0  0  0  0  0  0  0  0  0
   35.5380   29.2430   32.1890 C   0  0  0  0  0  0  0  0  0  0  0  0
   36.0690   29.5040   30.9150 C   0  0  0  0  0  0  0  0  0  0  0  0
   37.0440   28.7020   30.3790 C   0  0  0  0  0  0  0  0  0  0  0  0
   37.4610   27.6450   31.1540 C   0  0  0  0  0  0  0  0  0  0  0  0
   36.9340   27.4080   32.3880 C   0  0  0  0  0  0  0  0  0  0  0  0
   35.9710   28.1970   32.9250 N   0  0  0  0  0  0  0  0  0  0  0  0
   35.7170   30.3460   30.3300 H   0  0  0  0  0  0  0  0  0  0  0  0
   37.4920   28.8490   29.4050 H   0  0  0  0  0  0  0  0  0  0  0  0
   38.2270   26.9420   30.8340 H   0  0  0  0  0  0  0  0  0  0  0  0
   34.5210   30.1280   32.6820 C   0  0  0  0  0  0  0  0  0  0  0  0
   34.5160   31.3300   32.3980 O   0  0  0  0  0  0  0  0  0  0  0  0
   32.3150   29.0440   32.9460 C   0  0  0  0  0  0  0  0  0  0  0  0
   33.4200   29.6650   33.5560 C   0  0  0  0  0  0  0  0  0  0  0  0
   33.4460   29.8250   34.9440 C   0  0  0  0  0  0  0  0  0  0  0  0
   32.3800   29.3630   35.6700 N   0  0  0  0  0  0  0  0  0  0  0  0
   31.3280   28.7690   35.0590 C   0  0  0  0  0  0  0  0  0  0  0  0
   31.3010   28.6140   33.7230 N   0  0  0  0  0  0  0  0  0  0  0  0
   32.2590   28.9030   31.8780 H   0  0  0  0  0  0  0  0  0  0  0  0
   34.2950   30.2980   35.3740 H   0  0  0  0  0  0  0  0  0  0  0  0
   30.4670   28.3860   35.5550 H   0  0  0  0  0  0  0  0  0  0  0  0
  1  2  1  0  0  0  0
  1  3  1  0  0  0  0
  1  6  1  0  0  0  0
  4  9  1  1  0  0  0
  4  8  1  0  0  0  0
  5  6  1  0  0  0  0
  5  4  1  0  0  0  0
  6 12  1  1  0  0  0
  6  7  1  0  0  0  0
  7  8  1  0  0  0  0
  8 14  1  0  0  0  0
 10  5  1  0  0  0  0
 11  5  1  0  0  0  0
 13  8  1  0  0  0  0
 15  4  1  0  0  0  0
 17 16  1  0  0  0  0
 17 15  1  0  0  0  0
 18 17  2  0  0  0  0
 19 18  1  0  0  0  0
 20 21  2  0  0  0  0
 20 18  1  0  0  0  0
 21 22  1  0  0  0  0
 22 16  2  0  0  0  0
 23 21  1  0  0  0  0
 24 26  1  0  0  0  0
 24 23  1  0  0  0  0
 25 24  1  0  0  0  0
 26 20  1  0  0  0  0
 27  1  1  0  0  0  0
 28 37  1  0  0  0  0
 28 33  1  0  0  0  0
 29 28  2  0  0  0  0
 30 29  1  0  0  0  0
 30 31  2  0  0  0  0
 31 32  1  0  0  0  0
 32 33  2  0  0  0  0
 32 27  1  0  0  0  0
 34 29  1  0  0  0  0
 35 30  1  0  0  0  0
 36 31  1  0  0  0  0
 37 40  1  0  0  0  0
 38 37  2  0  0  0  0
 39 40  2  0  0  0  0
 39 44  1  0  0  0  0
 40 41  1  0  0  0  0
 41 46  1  0  0  0  0
 41 42  2  0  0  0  0
 43 47  1  0  0  0  0
 43 42  1  0  0  0  0
 44 43  2  0  0  0  0
 45 39  1  0  0  0  0
M  END
>  <minimizedAffinity>
-6.09440422

$$$$

 OpenBabel03262522173D

 47 51  0  0  1  0  0  0  0  0999 V2000
   38.2110   22.6540   31.2360 C   0  0  0  0  0  0  0  0  0  0  0  0
   38.8460   22.9420   32.0940 H   0  0  0  0  0  0  0  0  0  0  0  0
   38.9080   22.1780   30.5050 H   0  0  0  0  0  0  0  0  0  0  0  0
   36.9210   25.9600   31.3230 C   0  0  1  0  0  0  0  0  0  0  0  0
   38.1710   25.1320   31.0540 C   0  0  0  0  0  0  0  0  0  0  0  0
   37.5790   23.8490   30.5520 C   0  0  2  0  0  0  0  0  0  0  0  0
   36.2220   23.9000   30.7320 O   0  0  0  0  0  0  0  0  0  0  0  0
   35.9450   24.8500   31.6970 C   0  0  0  0  0  0  0  0  0  0  0  0
   36.6340   26.4730   30.4040 H   0  0  0  0  0  0  0  0  0  0  0  0
   38.7790   25.5650   30.2250 H   0  0  0  0  0  0  0  0  0  0  0  0
   38.7820   25.0060   31.9610 H   0  0  0  0  0  0  0  0  0  0  0  0
   37.7620   23.6930   29.4610 H   0  0  0  0  0  0  0  0  0  0  0  0
   36.2070   24.5480   32.7270 H   0  0  0  0  0  0  0  0  0  0  0  0
   34.8960   25.2130   31.6040 H   0  0  0  0  0  0  0  0  0  0  0  0
   37.1130   26.8540   32.3480 O   0  0  0  0  0  0  0  0  0  0  0  0
   36.6470   29.1000   31.5260 C   0  0  0  0  0  3  0  0  0  0  0  0
   36.6440   28.1270   32.5050 C   0  0  0  0  0  0  0  0  0  0  0  0
   36.1210   28.4930   33.7310 C   0  0  0  0  0  0  0  0  0  0  0  0
   36.0560   27.8400   34.5800 H   0  0  0  0  0  0  0  0  0  0  0  0
   35.6340   29.7860   33.9240 C   0  0  0  0  0  0  0  0  0  0  0  0
   35.6440   30.7570   32.9230 C   0  0  0  0  0  0  0  0  0  0  0  0
   36.1680   30.3820   31.7040 C   0  0  0  0  0  3  0  0  0  0  0  0
   35.0940   31.9260   33.4300 O   0  0  0  0  0  0  0  0  0  0  0  0
   34.3010   31.5340   34.5370 C   0  0  0  0  0  3  0  0  0  0  0  0
   34.1740   32.3310   35.2820 H   0  0  0  0  0  0  0  0  0  0  0  0
   35.0570   30.4410   35.0240 O   0  0  0  0  0  0  0  0  0  0  0  0
   36.8940   21.4900   31.6460 S   0  0  0  0  0  0  0  0  0  0  0  0
   37.5920   22.3090   35.4660 C   0  0  0  0  0  0  0  0  0  0  0  0
   36.6280   21.5590   36.1580 C   0  0  0  0  0  0  0  0  0  0  0  0
   35.7290   20.7730   35.4850 C   0  0  0  0  0  0  0  0  0  0  0  0
   35.8280   20.7680   34.1120 C   0  0  0  0  0  0  0  0  0  0  0  0
   36.7700   21.5030   33.4580 C   0  0  0  0  0  0  0  0  0  0  0  0
   37.6630   22.2830   34.1180 N   0  0  0  0  0  0  0  0  0  0  0  0
   36.5770   21.5850   37.2410 H   0  0  0  0  0  0  0  0  0  0  0  0
   34.9640   20.1720   35.9590 H   0  0  0  0  0  0  0  0  0  0  0  0
   35.1690   20.1830   33.4730 H   0  0  0  0  0  0  0  0  0  0  0  0
   38.4990   23.1080   36.2410 C   0  0  0  0  0  0  0  0  0  0  0  0
   39.0310   22.6710   37.2660 O   0  0  0  0  0  0  0  0  0  0  0  0
   40.0340   24.6950   35.1280 C   0  0  0  0  0  0  0  0  0  0  0  0
   38.8540   24.4950   35.8680 C   0  0  0  0  0  0  0  0  0  0  0  0
   38.0670   25.5940   36.2250 C   0  0  0  0  0  0  0  0  0  0  0  0
   38.4760   26.8410   35.8330 N   0  0  0  0  0  0  0  0  0  0  0  0
   39.6160   27.0060   35.1210 C   0  0  0  0  0  0  0  0  0  0  0  0
   40.3770   25.9500   34.7770 N   0  0  0  0  0  0  0  0  0  0  0  0
   40.6670   23.8730   34.8340 H   0  0  0  0  0  0  0  0  0  0  0  0
   37.1820   25.4090   36.7840 H   0  0  0  0  0  0  0  0  0  0  0  0
   39.9980   27.9410   34.7830 H   0  0  0  0  0  0  0  0  0  0  0  0
  1 27  1  0  0  0  0
  1  2  1  0  0  0  0
  3  1  1  0  0  0  0
  4  9  1  6  0  0  0
  4  8  1  0  0  0  0
  4 15  1  0  0  0  0
  5  4  1  0  0  0  0
  5 11  1  0  0  0  0
  6 12  1  6  0  0  0
  6  7  1  0  0  0  0
  6  5  1  0  0  0  0
  6  1  1  0  0  0  0
  7  8  1  0  0  0  0
  8 13  1  0  0  0  0
 10  5  1  0  0  0  0
 14  8  1  0  0  0  0
 15 17  1  0  0  0  0
 16 22  2  0  0  0  0
 16 17  1  0  0  0  0
 17 18  2  0  0  0  0
 18 20  1  0  0  0  0
 18 19  1  0  0  0  0
 20 26  1  0  0  0  0
 21 23  1  0  0  0  0
 21 20  2  0  0  0  0
 22 21  1  0  0  0  0
 23 24  1  0  0  0  0
 24 26  1  0  0  0  0
 24 25  1  0  0  0  0
 27 32  1  0  0  0  0
 28 29  1  0  0  0  0
 28 37  1  0  0  0  0
 29 34  1  0  0  0  0
 30 35  1  0  0  0  0
 30 29  2  0  0  0  0
 31 30  1  0  0  0  0
 32 31  2  0  0  0  0
 32 33  1  0  0  0  0
 33 28  2  0  0  0  0
 36 31  1  0  0  0  0
 37 38  2  0  0  0  0
 39 40  1  0  0  0  0
 40 41  2  0  0  0  0
 40 37  1  0  0  0  0
 41 46  1  0  0  0  0
 42 41  1  0  0  0  0
 43 42  2  0  0  0  0
 44 43  1  0  0  0  0
 44 39  2  0  0  0  0
 45 39  1  0  0  0  0
 47 43  1  0  0  0  0
M  END
>  <minimizedAffinity>
-6.08021164

$$$$

 OpenBabel03262522173D

 47 51  0  0  1  0  0  0  0  0999 V2000
   39.4990   25.7740   31.3900 C   0  0  0  0  0  0  0  0  0  0  0  0
   40.2440   25.6110   30.5890 H   0  0  0  0  0  0  0  0  0  0  0  0
   39.2860   24.7580   31.8000 H   0  0  0  0  0  0  0  0  0  0  0  0
   36.3410   27.3050   31.9200 C   0  0  1  0  0  0  0  0  0  0  0  0
   37.8070   27.5800   31.6100 C   0  0  0  0  0  0  0  0  0  0  0  0
   38.1950   26.3370   30.8650 C   0  0  2  0  0  0  0  0  0  0  0  0
   37.1620   25.4410   30.9550 O   0  0  0  0  0  0  0  0  0  0  0  0
   36.3760   25.7860   32.0380 C   0  0  0  0  0  0  0  0  0  0  0  0
   35.7340   27.6430   31.0780 H   0  0  0  0  0  0  0  0  0  0  0  0
   37.9230   28.4390   30.9080 H   0  0  0  0  0  0  0  0  0  0  0  0
   38.3960   27.7420   32.5260 H   0  0  0  0  0  0  0  0  0  0  0  0
   38.3730   26.5290   29.7800 H   0  0  0  0  0  0  0  0  0  0  0  0
   36.8300   25.5670   33.0210 H   0  0  0  0  0  0  0  0  0  0  0  0
   35.3500   25.3670   31.9310 H   0  0  0  0  0  0  0  0  0  0  0  0
   35.9450   27.9120   33.0880 O   0  0  0  0  0  0  0  0  0  0  0  0
   35.5810   30.2410   32.4720 C   0  0  0  0  0  3  0  0  0  0  0  0
   35.8130   29.2370   33.3900 C   0  0  0  0  0  0  0  0  0  0  0  0
   35.9160   29.6270   34.7120 C   0  0  0  0  0  0  0  0  0  0  0  0
   36.0940   28.9550   35.5300 H   0  0  0  0  0  0  0  0  0  0  0  0
   35.7860   30.9740   35.0540 C   0  0  0  0  0  0  0  0  0  0  0  0
   35.5520   31.9750   34.1130 C   0  0  0  0  0  0  0  0  0  0  0  0
   35.4510   31.5760   32.7980 C   0  0  0  0  0  3  0  0  0  0  0  0
   35.4740   33.1960   34.7700 O   0  0  0  0  0  0  0  0  0  0  0  0
   35.1540   32.8920   36.1160 C   0  0  0  0  0  3  0  0  0  0  0  0
   35.4870   33.6620   36.8250 H   0  0  0  0  0  0  0  0  0  0  0  0
   35.8400   31.6640   36.2760 O   0  0  0  0  0  0  0  0  0  0  0  0
   40.0690   26.8470   32.7250 S   0  0  0  0  0  0  0  0  0  0  0  0
   38.7450   24.3240   35.4870 C   0  0  0  0  0  0  0  0  0  0  0  0
   38.2110   25.1570   36.4830 C   0  0  0  0  0  0  0  0  0  0  0  0
   38.2340   26.5210   36.3490 C   0  0  0  0  0  0  0  0  0  0  0  0
   38.8030   27.0130   35.1970 C   0  0  0  0  0  0  0  0  0  0  0  0
   39.3170   26.1890   34.2420 C   0  0  0  0  0  0  0  0  0  0  0  0
   39.2980   24.8380   34.3680 N   0  0  0  0  0  0  0  0  0  0  0  0
   37.7680   24.7370   37.3790 H   0  0  0  0  0  0  0  0  0  0  0  0
   37.8390   27.2160   37.0780 H   0  0  0  0  0  0  0  0  0  0  0  0
   38.8780   28.0770   34.9810 H   0  0  0  0  0  0  0  0  0  0  0  0
   38.6840   22.9050   35.7000 C   0  0  0  0  0  0  0  0  0  0  0  0
   39.5530   22.3100   36.3460 O   0  0  0  0  0  0  0  0  0  0  0  0
   37.5550   21.8340   33.7790 C   0  0  0  0  0  0  0  0  0  0  0  0
   37.5870   22.0680   35.1660 C   0  0  0  0  0  0  0  0  0  0  0  0
   36.5980   21.5130   35.9840 C   0  0  0  0  0  0  0  0  0  0  0  0
   35.6230   20.7510   35.3980 N   0  0  0  0  0  0  0  0  0  0  0  0
   35.6150   20.5410   34.0610 C   0  0  0  0  0  0  0  0  0  0  0  0
   36.5660   21.0740   33.2700 N   0  0  0  0  0  0  0  0  0  0  0  0
   38.3000   22.2440   33.1150 H   0  0  0  0  0  0  0  0  0  0  0  0
   36.6510   21.7090   37.0280 H   0  0  0  0  0  0  0  0  0  0  0  0
   34.8920   19.9620   33.5350 H   0  0  0  0  0  0  0  0  0  0  0  0
  1  3  1  0  0  0  0
  1 27  1  0  0  0  0
  2  1  1  0  0  0  0
  4  9  1  6  0  0  0
  4  8  1  0  0  0  0
  4 15  1  0  0  0  0
  5  4  1  0  0  0  0
  5 11  1  0  0  0  0
  6 12  1  6  0  0  0
  6  7  1  0  0  0  0
  6  1  1  0  0  0  0
  6  5  1  0  0  0  0
  7  8  1  0  0  0  0
  8 13  1  0  0  0  0
 10  5  1  0  0  0  0
 14  8  1  0  0  0  0
 15 17  1  0  0  0  0
 16 22  2  0  0  0  0
 16 17  1  0  0  0  0
 17 18  2  0  0  0  0
 18 20  1  0  0  0  0
 18 19  1  0  0  0  0
 20 26  1  0  0  0  0
 21 23  1  0  0  0  0
 21 20  2  0  0  0  0
 22 21  1  0  0  0  0
 23 24  1  0  0  0  0
 24 26  1  0  0  0  0
 24 25  1  0  0  0  0
 27 32  1  0  0  0  0
 28 37  1  0  0  0  0
 28 29  1  0  0  0  0
 29 34  1  0  0  0  0
 30 29  2  0  0  0  0
 30 35  1  0  0  0  0
 31 30  1  0  0  0  0
 32 33  1  0  0  0  0
 32 31  2  0  0  0  0
 33 28  2  0  0  0  0
 36 31  1  0  0  0  0
 37 38  2  0  0  0  0
 39 40  1  0  0  0  0
 40 37  1  0  0  0  0
 40 41  2  0  0  0  0
 41 46  1  0  0  0  0
 42 41  1  0  0  0  0
 43 42  2  0  0  0  0
 44 39  2  0  0  0  0
 44 43  1  0  0  0  0
 45 39  1  0  0  0  0
 47 43  1  0  0  0  0
M  END
>  <minimizedAffinity>
-6.03574276

$$$$

 OpenBabel03262522173D

 47 51  0  0  1  0  0  0  0  0999 V2000
   38.1520   25.6830   36.3010 C   0  0  0  0  0  0  0  0  0  0  0  0
   38.1560   25.7350   37.4060 H   0  0  0  0  0  0  0  0  0  0  0  0
   37.0770   25.5840   36.0180 H   0  0  0  0  0  0  0  0  0  0  0  0
   38.1410   22.3440   35.0940 C   0  0  1  0  0  0  0  0  0  0  0  0
   38.0990   23.8080   34.6710 C   0  0  0  0  0  0  0  0  0  0  0  0
   38.8770   24.4620   35.7740 C   0  0  2  0  0  0  0  0  0  0  0  0
   39.1100   23.5280   36.7500 O   0  0  0  0  0  0  0  0  0  0  0  0
   38.1870   22.5080   36.6080 C   0  0  0  0  0  0  0  0  0  0  0  0
   39.0500   21.8900   34.6960 H   0  0  0  0  0  0  0  0  0  0  0  0
   38.6610   23.9770   33.7220 H   0  0  0  0  0  0  0  0  0  0  0  0
   37.0660   24.1800   34.5850 H   0  0  0  0  0  0  0  0  0  0  0  0
   39.8710   24.8360   35.4310 H   0  0  0  0  0  0  0  0  0  0  0  0
   37.1610   22.7730   36.9180 H   0  0  0  0  0  0  0  0  0  0  0  0
   38.5570   21.5730   37.0850 H   0  0  0  0  0  0  0  0  0  0  0  0
   37.0250   21.6610   34.6750 O   0  0  0  0  0  0  0  0  0  0  0  0
   35.4630   21.0480   32.9080 C   0  0  0  0  0  3  0  0  0  0  0  0
   36.7280   21.1260   33.4540 C   0  0  0  0  0  0  0  0  0  0  0  0
   37.7590   20.6150   32.6880 C   0  0  0  0  0  0  0  0  0  0  0  0
   38.7900   20.6090   32.9860 H   0  0  0  0  0  0  0  0  0  0  0  0
   37.4890   20.0600   31.4360 C   0  0  0  0  0  0  0  0  0  0  0  0
   36.2040   19.9910   30.8990 C   0  0  0  0  0  0  0  0  0  0  0  0
   35.1830   20.5030   31.6710 C   0  0  0  0  0  3  0  0  0  0  0  0
   36.2740   19.3890   29.6500 O   0  0  0  0  0  0  0  0  0  0  0  0
   37.6110   19.5550   29.2140 C   0  0  0  0  0  3  0  0  0  0  0  0
   37.9320   18.7870   28.4980 H   0  0  0  0  0  0  0  0  0  0  0  0
   38.2990   19.4770   30.4490 O   0  0  0  0  0  0  0  0  0  0  0  0
   38.8500   27.1350   35.4880 S   0  0  0  0  0  0  0  0  0  0  0  0
   35.7540   28.7150   33.5720 C   0  0  0  0  0  0  0  0  0  0  0  0
   35.9020   28.2620   32.2510 C   0  0  0  0  0  0  0  0  0  0  0  0
   36.9530   27.4560   31.8950 C   0  0  0  0  0  0  0  0  0  0  0  0
   37.8370   27.1260   32.8960 C   0  0  0  0  0  0  0  0  0  0  0  0
   37.6770   27.5750   34.1720 C   0  0  0  0  0  0  0  0  0  0  0  0
   36.6410   28.3730   34.5310 N   0  0  0  0  0  0  0  0  0  0  0  0
   35.1870   28.5410   31.4860 H   0  0  0  0  0  0  0  0  0  0  0  0
   37.1220   27.0740   30.8970 H   0  0  0  0  0  0  0  0  0  0  0  0
   38.7070   26.4930   32.7330 H   0  0  0  0  0  0  0  0  0  0  0  0
   34.6280   29.5560   33.8670 C   0  0  0  0  0  0  0  0  0  0  0  0
   33.5890   29.5020   33.2020 O   0  0  0  0  0  0  0  0  0  0  0  0
   35.7740   31.3520   35.1220 C   0  0  0  0  0  0  0  0  0  0  0  0
   34.6370   30.5360   34.9760 C   0  0  0  0  0  0  0  0  0  0  0  0
   33.5690   30.6700   35.8680 C   0  0  0  0  0  0  0  0  0  0  0  0
   33.6690   31.6060   36.8630 N   0  0  0  0  0  0  0  0  0  0  0  0
   34.7740   32.3790   36.9830 C   0  0  0  0  0  0  0  0  0  0  0  0
   35.8040   32.2510   36.1260 N   0  0  0  0  0  0  0  0  0  0  0  0
   36.6180   31.2780   34.4550 H   0  0  0  0  0  0  0  0  0  0  0  0
   32.7250   30.0390   35.7290 H   0  0  0  0  0  0  0  0  0  0  0  0
   34.9230   33.1240   37.7280 H   0  0  0  0  0  0  0  0  0  0  0  0
  1  2  1  0  0  0  0
  3  1  1  0  0  0  0
  4  9  1  6  0  0  0
  4  8  1  0  0  0  0
  5  4  1  0  0  0  0
  5  6  1  0  0  0  0
  6 12  1  6  0  0  0
  6  1  1  0  0  0  0
  6  7  1  0  0  0  0
  8  7  1  0  0  0  0
  8 13  1  0  0  0  0
  8 14  1  0  0  0  0
 10  5  1  0  0  0  0
 11  5  1  0  0  0  0
 15  4  1  0  0  0  0
 16 17  1  0  0  0  0
 17 15  1  0  0  0  0
 18 19  1  0  0  0  0
 18 17  2  0  0  0  0
 20 18  1  0  0  0  0
 21 20  2  0  0  0  0
 21 22  1  0  0  0  0
 22 16  2  0  0  0  0
 23 21  1  0  0  0  0
 24 23  1  0  0  0  0
 24 26  1  0  0  0  0
 25 24  1  0  0  0  0
 26 20  1  0  0  0  0
 27  1  1  0  0  0  0
 28 37  1  0  0  0  0
 28 33  1  0  0  0  0
 29 28  2  0  0  0  0
 30 29  1  0  0  0  0
 30 31  2  0  0  0  0
 31 32  1  0  0  0  0
 32 33  2  0  0  0  0
 32 27  1  0  0  0  0
 34 29  1  0  0  0  0
 35 30  1  0  0  0  0
 36 31  1  0  0  0  0
 37 40  1  0  0  0  0
 38 37  2  0  0  0  0
 39 44  1  0  0  0  0
 40 39  2  0  0  0  0
 40 41  1  0  0  0  0
 41 42  2  0  0  0  0
 42 43  1  0  0  0  0
 43 47  1  0  0  0  0
 44 43  2  0  0  0  0
 45 39  1  0  0  0  0
 46 41  1  0  0  0  0
M  END
>  <minimizedAffinity>
-5.97040319

$$$$

 OpenBabel03262522173D

 47 51  0  0  1  0  0  0  0  0999 V2000
   38.2370   27.7440   30.2240 C   0  0  0  0  0  0  0  0  0  0  0  0
   38.8950   28.5070   30.6810 H   0  0  0  0  0  0  0  0  0  0  0  0
   38.2470   27.9680   29.1310 H   0  0  0  0  0  0  0  0  0  0  0  0
   35.7640   29.1660   32.3380 C   0  0  1  0  0  0  0  0  0  0  0  0
   36.4320   29.2800   30.9730 C   0  0  0  0  0  0  0  0  0  0  0  0
   36.8030   27.8520   30.7000 C   0  0  2  0  0  0  0  0  0  0  0  0
   36.5700   27.1210   31.8350 O   0  0  0  0  0  0  0  0  0  0  0  0
   36.5390   27.9870   32.9130 C   0  0  0  0  0  0  0  0  0  0  0  0
   34.7070   28.9380   32.1930 H   0  0  0  0  0  0  0  0  0  0  0  0
   35.7060   29.5910   30.1860 H   0  0  0  0  0  0  0  0  0  0  0  0
   37.2980   29.9590   30.9960 H   0  0  0  0  0  0  0  0  0  0  0  0
   36.1880   27.4010   29.8850 H   0  0  0  0  0  0  0  0  0  0  0  0
   37.5250   28.3850   33.2100 H   0  0  0  0  0  0  0  0  0  0  0  0
   35.9790   27.5370   33.7640 H   0  0  0  0  0  0  0  0  0  0  0  0
   35.9250   30.3100   33.0800 O   0  0  0  0  0  0  0  0  0  0  0  0
   35.8980   31.3520   35.2830 C   0  0  0  0  0  3  0  0  0  0  0  0
   35.2900   30.7170   34.2190 C   0  0  0  0  0  0  0  0  0  0  0  0
   33.9320   30.4860   34.3370 C   0  0  0  0  0  0  0  0  0  0  0  0
   33.3330   30.0040   33.5890 H   0  0  0  0  0  0  0  0  0  0  0  0
   33.2540   30.8900   35.4880 C   0  0  0  0  0  0  0  0  0  0  0  0
   33.8840   31.5300   36.5540 C   0  0  0  0  0  0  0  0  0  0  0  0
   35.2380   31.7560   36.4260 C   0  0  0  0  0  3  0  0  0  0  0  0
   32.9400   31.7970   37.5360 O   0  0  0  0  0  0  0  0  0  0  0  0
   31.6840   31.7900   36.8790 C   0  0  0  0  0  3  0  0  0  0  0  0
   30.8480   31.5430   37.5460 H   0  0  0  0  0  0  0  0  0  0  0  0
   31.9130   30.7990   35.8930 O   0  0  0  0  0  0  0  0  0  0  0  0
   38.7810   26.0430   30.4870 S   0  0  0  0  0  0  0  0  0  0  0  0
   40.3110   24.9050   33.9670 C   0  0  0  0  0  0  0  0  0  0  0  0
   41.0520   26.0180   34.3960 C   0  0  0  0  0  0  0  0  0  0  0  0
   41.1110   27.1590   33.6390 C   0  0  0  0  0  0  0  0  0  0  0  0
   40.4120   27.1450   32.4540 C   0  0  0  0  0  0  0  0  0  0  0  0
   39.7000   26.0550   32.0540 C   0  0  0  0  0  0  0  0  0  0  0  0
   39.6370   24.9220   32.7980 N   0  0  0  0  0  0  0  0  0  0  0  0
   41.5910   25.9970   35.3360 H   0  0  0  0  0  0  0  0  0  0  0  0
   41.6620   28.0500   33.9130 H   0  0  0  0  0  0  0  0  0  0  0  0
   40.3860   27.9920   31.7710 H   0  0  0  0  0  0  0  0  0  0  0  0
   40.2980   23.7460   34.8150 C   0  0  0  0  0  0  0  0  0  0  0  0
   40.9630   22.7410   34.5470 O   0  0  0  0  0  0  0  0  0  0  0  0
   40.0610   23.0400   37.1730 C   0  0  0  0  0  0  0  0  0  0  0  0
   39.4920   23.6780   36.0550 C   0  0  0  0  0  0  0  0  0  0  0  0
   38.2060   24.2170   36.1450 C   0  0  0  0  0  0  0  0  0  0  0  0
   37.5380   24.1060   37.3360 N   0  0  0  0  0  0  0  0  0  0  0  0
   38.1070   23.4870   38.3970 C   0  0  0  0  0  0  0  0  0  0  0  0
   39.3460   22.9670   38.3120 N   0  0  0  0  0  0  0  0  0  0  0  0
   41.0500   22.6120   37.1420 H   0  0  0  0  0  0  0  0  0  0  0  0
   37.8060   24.6920   35.2830 H   0  0  0  0  0  0  0  0  0  0  0  0
   37.6510   23.3620   39.3510 H   0  0  0  0  0  0  0  0  0  0  0  0
  1 27  1  0  0  0  0
  1  2  1  0  0  0  0
  1  6  1  0  0  0  0
  3  1  1  0  0  0  0
  4  9  1  6  0  0  0
  4  8  1  0  0  0  0
  4 15  1  0  0  0  0
  5 11  1  0  0  0  0
  5  4  1  0  0  0  0
  6 12  1  6  0  0  0
  6  5  1  0  0  0  0
  6  7  1  0  0  0  0
  7  8  1  0  0  0  0
  8 13  1  0  0  0  0
  8 14  1  0  0  0  0
 10  5  1  0  0  0  0
 15 17  1  0  0  0  0
 16 22  1  0  0  0  0
 17 18  1  0  0  0  0
 17 16  2  0  0  0  0
 18 20  2  0  0  0  0
 19 18  1  0  0  0  0
 20 26  1  0  0  0  0
 20 21  1  0  0  0  0
 21 23  1  0  0  0  0
 22 21  2  0  0  0  0
 24 23  1  0  0  0  0
 24 25  1  0  0  0  0
 26 24  1  0  0  0  0
 27 32  1  0  0  0  0
 28 29  1  0  0  0  0
 28 37  1  0  0  0  0
 29 34  1  0  0  0  0
 30 35  1  0  0  0  0
 30 29  2  0  0  0  0
 31 30  1  0  0  0  0
 32 31  2  0  0  0  0
 32 33  1  0  0  0  0
 33 28  2  0  0  0  0
 36 31  1  0  0  0  0
 37 40  1  0  0  0  0
 38 37  2  0  0  0  0
 39 44  1  0  0  0  0
 40 41  1  0  0  0  0
 40 39  2  0  0  0  0
 41 42  2  0  0  0  0
 42 43  1  0  0  0  0
 43 47  1  0  0  0  0
 44 43  2  0  0  0  0
 45 39  1  0  0  0  0
 46 41  1  0  0  0  0
M  END
>  <minimizedAffinity>
-5.93649101

$$$$

 OpenBabel03262522173D

 47 51  0  0  1  0  0  0  0  0999 V2000
   36.5680   21.7040   32.8370 C   0  0  0  0  0  0  0  0  0  0  0  0
   36.0640   20.7200   32.8710 H   0  0  0  0  0  0  0  0  0  0  0  0
   35.9290   22.3790   33.4560 H   0  0  0  0  0  0  0  0  0  0  0  0
   37.1000   24.4250   30.6200 C   0  0  1  0  0  0  0  0  0  0  0  0
   37.7720   23.2350   31.2930 C   0  0  0  0  0  0  0  0  0  0  0  0
   36.6220   22.2830   31.4380 C   0  0  2  0  0  0  0  0  0  0  0  0
   35.4700   22.9430   31.0990 O   0  0  0  0  0  0  0  0  0  0  0  0
   35.6980   24.3020   31.2040 C   0  0  0  0  0  0  0  0  0  0  0  0
   37.1150   24.2710   29.5390 H   0  0  0  0  0  0  0  0  0  0  0  0
   38.5200   22.7520   30.6220 H   0  0  0  0  0  0  0  0  0  0  0  0
   38.2320   23.5140   32.2540 H   0  0  0  0  0  0  0  0  0  0  0  0
   36.7100   21.4010   30.7590 H   0  0  0  0  0  0  0  0  0  0  0  0
   35.7670   24.6760   32.2410 H   0  0  0  0  0  0  0  0  0  0  0  0
   34.9710   24.8740   30.5840 H   0  0  0  0  0  0  0  0  0  0  0  0
   37.7070   25.6100   30.9580 O   0  0  0  0  0  0  0  0  0  0  0  0
   36.7060   27.7930   30.5440 C   0  0  0  0  0  3  0  0  0  0  0  0
   37.1610   26.7900   31.3750 C   0  0  0  0  0  0  0  0  0  0  0  0
   37.0440   27.0200   32.7340 C   0  0  0  0  0  0  0  0  0  0  0  0
   37.3550   26.3300   33.4940 H   0  0  0  0  0  0  0  0  0  0  0  0
   36.4910   28.2160   33.1940 C   0  0  0  0  0  0  0  0  0  0  0  0
   36.0360   29.2190   32.3380 C   0  0  0  0  0  0  0  0  0  0  0  0
   36.1570   28.9800   30.9860 C   0  0  0  0  0  3  0  0  0  0  0  0
   35.5480   30.2700   33.1030 O   0  0  0  0  0  0  0  0  0  0  0  0
   35.2350   29.7160   34.3690 C   0  0  0  0  0  3  0  0  0  0  0  0
   35.2690   30.4520   35.1830 H   0  0  0  0  0  0  0  0  0  0  0  0
   36.2450   28.7290   34.4770 O   0  0  0  0  0  0  0  0  0  0  0  0
   38.2460   21.7010   33.5000 S   0  0  0  0  0  0  0  0  0  0  0  0
   38.8430   25.0360   35.5670 C   0  0  0  0  0  0  0  0  0  0  0  0
   38.2760   24.7660   36.8230 C   0  0  0  0  0  0  0  0  0  0  0  0
   37.6910   23.5540   37.0870 C   0  0  0  0  0  0  0  0  0  0  0  0
   37.6940   22.6370   36.0610 C   0  0  0  0  0  0  0  0  0  0  0  0
   38.2470   22.9180   34.8490 C   0  0  0  0  0  0  0  0  0  0  0  0
   38.8280   24.1140   34.5800 N   0  0  0  0  0  0  0  0  0  0  0  0
   38.2920   25.5110   37.6100 H   0  0  0  0  0  0  0  0  0  0  0  0
   37.2390   23.2840   38.0320 H   0  0  0  0  0  0  0  0  0  0  0  0
   37.2590   21.6440   36.1540 H   0  0  0  0  0  0  0  0  0  0  0  0
   39.4370   26.3280   35.3660 C   0  0  0  0  0  0  0  0  0  0  0  0
   38.9640   27.3440   35.8850 O   0  0  0  0  0  0  0  0  0  0  0  0
   41.8320   25.8930   34.9360 C   0  0  0  0  0  0  0  0  0  0  0  0
   40.6430   26.5280   34.5320 C   0  0  0  0  0  0  0  0  0  0  0  0
   40.6350   27.3150   33.3780 C   0  0  0  0  0  0  0  0  0  0  0  0
   41.8010   27.4400   32.6700 N   0  0  0  0  0  0  0  0  0  0  0  0
   42.9330   26.8180   33.0790 C   0  0  0  0  0  0  0  0  0  0  0  0
   42.9420   26.0600   34.1910 N   0  0  0  0  0  0  0  0  0  0  0  0
   41.8770   25.2770   35.8200 H   0  0  0  0  0  0  0  0  0  0  0  0
   39.7210   27.7800   33.1010 H   0  0  0  0  0  0  0  0  0  0  0  0
   43.8740   26.8690   32.5830 H   0  0  0  0  0  0  0  0  0  0  0  0
  1  2  1  0  0  0  0
  1  3  1  0  0  0  0
  1 27  1  0  0  0  0
  4  9  1  6  0  0  0
  4 15  1  0  0  0  0
  4  8  1  0  0  0  0
  4  5  1  0  0  0  0
  5  6  1  0  0  0  0
  5 11  1  0  0  0  0
  6 12  1  6  0  0  0
  6  1  1  0  0  0  0
  7  8  1  0  0  0  0
  7  6  1  0  0  0  0
  8 13  1  0  0  0  0
 10  5  1  0  0  0  0
 14  8  1  0  0  0  0
 15 17  1  0  0  0  0
 16 22  2  0  0  0  0
 16 17  1  0  0  0  0
 17 18  2  0  0  0  0
 18 20  1  0  0  0  0
 18 19  1  0  0  0  0
 20 26  1  0  0  0  0
 21 23  1  0  0  0  0
 21 20  2  0  0  0  0
 22 21  1  0  0  0  0
 23 24  1  0  0  0  0
 24 26  1  0  0  0  0
 24 25  1  0  0  0  0
 27 32  1  0  0  0  0
 28 29  1  0  0  0  0
 29 30  2  0  0  0  0
 29 34  1  0  0  0  0
 30 35  1  0  0  0  0
 31 36  1  0  0  0  0
 31 30  1  0  0  0  0
 32 31  2  0  0  0  0
 33 32  1  0  0  0  0
 33 28  2  0  0  0  0
 37 28  1  0  0  0  0
 37 38  2  0  0  0  0
 39 45  1  0  0  0  0
 40 39  1  0  0  0  0
 40 37  1  0  0  0  0
 41 40  2  0  0  0  0
 42 43  2  0  0  0  0
 42 41  1  0  0  0  0
 43 44  1  0  0  0  0
 44 39  2  0  0  0  0
 46 41  1  0  0  0  0
 47 43  1  0  0  0  0
M  END
>  <minimizedAffinity>
-5.90733051

$$$$
