
 OpenBabel03262522143D

 47 51  0  0  1  0  0  0  0  0999 V2000
   39.5720   32.9430   43.7990 C   0  0  0  0  0  0  0  0  0  0  0  0
   38.4940   32.9680   44.0460 H   0  0  0  0  0  0  0  0  0  0  0  0
   39.7480   33.8490   43.1710 H   0  0  0  0  0  0  0  0  0  0  0  0
   38.7840   29.8020   42.3460 C   0  0  1  0  0  0  0  0  0  0  0  0
   38.8150   31.3040   42.0920 C   0  0  0  0  0  0  0  0  0  0  0  0
   39.9520   31.7330   42.9710 C   0  0  2  0  0  0  0  0  0  0  0  0
   40.3270   30.6660   43.7430 O   0  0  0  0  0  0  0  0  0  0  0  0
   39.2770   29.7670   43.7870 C   0  0  0  0  0  0  0  0  0  0  0  0
   39.4760   29.3140   41.6570 H   0  0  0  0  0  0  0  0  0  0  0  0
   39.1030   31.5360   41.0390 H   0  0  0  0  0  0  0  0  0  0  0  0
   37.8590   31.7830   42.3490 H   0  0  0  0  0  0  0  0  0  0  0  0
   40.8490   32.0480   42.3850 H   0  0  0  0  0  0  0  0  0  0  0  0
   38.4240   30.0910   44.4090 H   0  0  0  0  0  0  0  0  0  0  0  0
   39.6410   28.7470   44.0450 H   0  0  0  0  0  0  0  0  0  0  0  0
   37.5150   29.2900   42.2140 O   0  0  0  0  0  0  0  0  0  0  0  0
   37.4870   26.9850   41.4230 C   0  0  0  0  0  3  0  0  0  0  0  0
   37.0480   28.2940   41.4060 C   0  0  0  0  0  0  0  0  0  0  0  0
   36.0570   28.5950   40.4890 C   0  0  0  0  0  0  0  0  0  0  0  0
   35.6230   29.5690   40.3660 H   0  0  0  0  0  0  0  0  0  0  0  0
   35.5580   27.5990   39.6480 C   0  0  0  0  0  0  0  0  0  0  0  0
   36.0140   26.2830   39.6790 C   0  0  0  0  0  0  0  0  0  0  0  0
   37.0020   25.9920   40.5960 C   0  0  0  0  0  3  0  0  0  0  0  0
   35.3230   25.5480   38.7270 O   0  0  0  0  0  0  0  0  0  0  0  0
   34.1260   26.2630   38.4800 C   0  0  0  0  0  3  0  0  0  0  0  0
   33.7060   26.0730   37.4820 H   0  0  0  0  0  0  0  0  0  0  0  0
   34.5780   27.5940   38.6420 O   0  0  0  0  0  0  0  0  0  0  0  0
   40.6620   32.9950   45.2360 S   0  0  0  0  0  0  0  0  0  0  0  0
   37.7760   31.7590   47.6630 C   0  0  0  0  0  0  0  0  0  0  0  0
   37.9380   32.5460   48.8150 C   0  0  0  0  0  0  0  0  0  0  0  0
   38.9340   33.4840   48.8940 C   0  0  0  0  0  0  0  0  0  0  0  0
   39.7510   33.6040   47.7940 C   0  0  0  0  0  0  0  0  0  0  0  0
   39.5790   32.8310   46.6850 C   0  0  0  0  0  0  0  0  0  0  0  0
   38.5960   31.9010   46.6000 N   0  0  0  0  0  0  0  0  0  0  0  0
   37.2760   32.4270   49.6650 H   0  0  0  0  0  0  0  0  0  0  0  0
   39.1100   34.1210   49.7510 H   0  0  0  0  0  0  0  0  0  0  0  0
   40.5740   34.3140   47.7410 H   0  0  0  0  0  0  0  0  0  0  0  0
   36.7090   30.7980   47.6560 C   0  0  0  0  0  0  0  0  0  0  0  0
   36.2110   30.3920   46.6010 O   0  0  0  0  0  0  0  0  0  0  0  0
   37.0250   29.6330   49.8140 C   0  0  0  0  0  0  0  0  0  0  0  0
   36.1400   30.2340   48.9000 C   0  0  0  0  0  0  0  0  0  0  0  0
   34.7730   30.2780   49.1870 C   0  0  0  0  0  0  0  0  0  0  0  0
   34.3390   29.7300   50.3650 N   0  0  0  0  0  0  0  0  0  0  0  0
   35.2110   29.1580   51.2280 C   0  0  0  0  0  0  0  0  0  0  0  0
   36.5280   29.1130   50.9530 N   0  0  0  0  0  0  0  0  0  0  0  0
   38.0860   29.5800   49.6280 H   0  0  0  0  0  0  0  0  0  0  0  0
   34.1310   30.7390   48.4760 H   0  0  0  0  0  0  0  0  0  0  0  0
   34.9500   28.7120   52.1590 H   0  0  0  0  0  0  0  0  0  0  0  0
  1  2  1  0  0  0  0
  1 27  1  0  0  0  0
  3  1  1  0  0  0  0
  4  9  1  6  0  0  0
  4  8  1  0  0  0  0
  5  4  1  0  0  0  0
  5 11  1  0  0  0  0
  5  6  1  0  0  0  0
  6 12  1  6  0  0  0
  6  7  1  0  0  0  0
  6  1  1  0  0  0  0
  7  8  1  0  0  0  0
  8 14  1  0  0  0  0
  8 13  1  0  0  0  0
 10  5  1  0  0  0  0
 15  4  1  0  0  0  0
 17 16  1  0  0  0  0
 17 15  1  0  0  0  0
 18 17  2  0  0  0  0
 19 18  1  0  0  0  0
 20 21  2  0  0  0  0
 20 18  1  0  0  0  0
 21 22  1  0  0  0  0
 22 16  2  0  0  0  0
 23 21  1  0  0  0  0
 24 26  1  0  0  0  0
 24 23  1  0  0  0  0
 25 24  1  0  0  0  0
 26 20  1  0  0  0  0
 27 32  1  0  0  0  0
 28 29  1  0  0  0  0
 29 30  2  0  0  0  0
 29 34  1  0  0  0  0
 30 35  1  0  0  0  0
 31 30  1  0  0  0  0
 32 31  2  0  0  0  0
 33 32  1  0  0  0  0
 33 28  2  0  0  0  0
 36 31  1  0  0  0  0
 37 28  1  0  0  0  0
 37 40  1  0  0  0  0
 38 37  2  0  0  0  0
 39 44  1  0  0  0  0
 40 41  1  0  0  0  0
 40 39  2  0  0  0  0
 41 42  2  0  0  0  0
 42 43  1  0  0  0  0
 43 47  1  0  0  0  0
 44 43  2  0  0  0  0
 45 39  1  0  0  0  0
 46 41  1  0  0  0  0
M  END
>  <minimizedAffinity>
-5.01854944

>  <minimizedRMSD>
0.0576857366

$$$$
