
 OpenBabel03272508263D

 40 44  0  0  1  0  0  0  0  0999 V2000
   33.6450   28.9520   47.1450 C   0  0  2  0  0  0  0  0  0  0  0  0
   34.3360   28.0970   48.1960 C   0  0  2  0  0  0  0  0  0  0  0  0
   33.4250   27.9150   49.1890 O   0  0  0  0  0  0  0  0  0  0  0  0
   32.1540   28.0670   48.7100 C   0  0  0  0  0  0  0  0  0  0  0  0
   32.2420   28.3400   47.2220 C   0  0  1  0  0  0  0  0  0  0  0  0
   33.6040   30.0060   47.4290 H   0  0  0  0  0  0  0  0  0  0  0  0
   34.5790   27.1270   47.7200 H   0  0  0  0  0  0  0  0  0  0  0  0
   31.5080   27.1710   48.9040 H   0  0  0  0  0  0  0  0  0  0  0  0
   31.6510   28.9270   49.1860 H   0  0  0  0  0  0  0  0  0  0  0  0
   32.3230   27.3520   46.7050 H   0  0  0  0  0  0  0  0  0  0  0  0
   35.5020   30.2690   48.9740 C   0  0  1  0  0  0  0  0  0  0  0  0
   35.5330   28.8580   48.6680 C   0  0  1  0  0  0  0  0  0  0  0  0
   35.6990   29.2440   50.1020 C   0  0  0  0  0  0  0  0  0  0  0  0
   34.6040   30.8940   49.2000 H   0  0  0  0  0  0  0  0  0  0  0  0
   36.4620   28.5230   48.1170 H   0  0  0  0  0  0  0  0  0  0  0  0
   34.8640   29.0340   50.7860 H   0  0  0  0  0  0  0  0  0  0  0  0
   36.7260   29.1150   50.5230 H   0  0  0  0  0  0  0  0  0  0  0  0
   36.7330   31.1430   48.7870 C   0  0  0  0  0  0  0  0  0  0  0  0
   36.9550   32.1490   49.7270 C   0  0  0  0  0  0  0  0  0  0  0  0
   38.0780   32.9310   49.4900 C   0  0  0  0  0  0  0  0  0  0  0  0
   38.8840   32.7100   48.4100 N   0  0  0  0  0  0  0  0  0  0  0  0
   38.6270   31.7150   47.5180 C   0  0  0  0  0  0  0  0  0  0  0  0
   37.5340   30.9210   47.7120 N   0  0  0  0  0  0  0  0  0  0  0  0
   36.3190   32.3130   50.5640 H   0  0  0  0  0  0  0  0  0  0  0  0
   38.3560   33.7340   50.1380 H   0  0  0  0  0  0  0  0  0  0  0  0
   39.2910   31.5770   46.6780 H   0  0  0  0  0  0  0  0  0  0  0  0
   34.1870   28.8210   45.8820 O   0  0  0  0  0  0  0  0  0  0  0  0
   34.1450   29.6410   45.3510 H   0  0  0  0  0  0  0  0  0  0  0  0
   31.2870   29.1870   46.7340 O   0  0  0  0  0  0  0  0  0  0  0  0
   28.9790   28.9720   47.6540 C   0  0  0  0  0  3  0  0  0  0  0  0
   29.9230   28.9350   46.6490 C   0  0  0  0  0  0  0  0  0  0  0  0
   29.5370   28.6090   45.3490 C   0  0  0  0  0  0  0  0  0  0  0  0
   30.2130   28.5530   44.4880 H   0  0  0  0  0  0  0  0  0  0  0  0
   28.2270   28.3230   45.0490 C   0  0  0  0  0  0  0  0  0  0  0  0
   27.2950   28.3660   46.0740 C   0  0  0  0  0  0  0  0  0  0  0  0
   27.6600   28.6890   47.3790 C   0  0  0  0  0  3  0  0  0  0  0  0
   26.0580   28.0430   45.5250 O   0  0  0  0  0  0  0  0  0  0  0  0
   26.1370   28.0970   44.1090 C   0  0  0  0  0  3  0  0  0  0  0  0
   25.6130   27.2220   43.6240 H   0  0  0  0  0  0  0  0  0  0  0  0
   27.5450   27.9740   43.8900 O   0  0  0  0  0  0  0  0  0  0  0  0
  1  5  1  0  0  0  0
  1  6  1  1  0  0  0
  1  2  1  0  0  0  0
  2  7  1  6  0  0  0
  2 12  1  0  0  0  0
  2  3  1  0  0  0  0
  4  8  1  0  0  0  0
  4  9  1  0  0  0  0
  4  3  1  0  0  0  0
  5 10  1  6  0  0  0
  5  4  1  0  0  0  0
 11 14  1  6  0  0  0
 11 13  1  0  0  0  0
 12 15  1  6  0  0  0
 12 11  1  0  0  0  0
 12 13  1  0  0  0  0
 13 17  1  0  0  0  0
 13 16  1  0  0  0  0
 18 11  1  0  0  0  0
 18 19  1  0  0  0  0
 19 24  1  0  0  0  0
 20 19  2  0  0  0  0
 20 25  1  0  0  0  0
 21 20  1  0  0  0  0
 22 23  1  0  0  0  0
 22 21  2  0  0  0  0
 23 18  2  0  0  0  0
 26 22  1  0  0  0  0
 27  1  1  0  0  0  0
 28 27  1  0  0  0  0
 29  5  1  0  0  0  0
 31 29  1  0  0  0  0
 31 30  2  0  0  0  0
 32 31  1  0  0  0  0
 33 32  1  0  0  0  0
 34 32  2  0  0  0  0
 34 35  1  0  0  0  0
 35 36  2  0  0  0  0
 36 30  1  0  0  0  0
 37 35  1  0  0  0  0
 38 37  1  0  0  0  0
 39 38  1  0  0  0  0
 40 38  1  0  0  0  0
 40 34  1  0  0  0  0
M  END
>  <minimizedAffinity>
-5.7441349

>  <minimizedRMSD>
1.80996132

$$$$
