
 OpenBabel03272508263D

 40 44  0  0  1  0  0  0  0  0999 V2000
   33.8860   28.9790   47.2770 C   0  0  2  0  0  0  0  0  0  0  0  0
   34.6150   28.1890   48.3520 C   0  0  2  0  0  0  0  0  0  0  0  0
   33.7200   28.0150   49.3610 O   0  0  0  0  0  0  0  0  0  0  0  0
   32.4390   28.1070   48.8890 C   0  0  0  0  0  0  0  0  0  0  0  0
   32.5050   28.3260   47.3910 C   0  0  1  0  0  0  0  0  0  0  0  0
   33.8130   30.0420   47.5200 H   0  0  0  0  0  0  0  0  0  0  0  0
   34.8860   27.2100   47.9110 H   0  0  0  0  0  0  0  0  0  0  0  0
   31.8260   27.1990   49.1240 H   0  0  0  0  0  0  0  0  0  0  0  0
   31.9120   28.9670   49.3370 H   0  0  0  0  0  0  0  0  0  0  0  0
   32.6140   27.3210   46.9110 H   0  0  0  0  0  0  0  0  0  0  0  0
   35.7110   30.4240   49.0490 C   0  0  1  0  0  0  0  0  0  0  0  0
   35.7890   29.0070   48.7820 C   0  0  1  0  0  0  0  0  0  0  0  0
   35.9640   29.4390   50.2010 C   0  0  0  0  0  0  0  0  0  0  0  0
   34.7940   31.0220   49.2730 H   0  0  0  0  0  0  0  0  0  0  0  0
   36.7220   28.6910   48.2250 H   0  0  0  0  0  0  0  0  0  0  0  0
   35.1490   29.2180   50.9060 H   0  0  0  0  0  0  0  0  0  0  0  0
   37.0020   29.3610   50.6090 H   0  0  0  0  0  0  0  0  0  0  0  0
   36.9050   31.3370   48.8170 C   0  0  0  0  0  0  0  0  0  0  0  0
   37.0900   32.3910   49.7110 C   0  0  0  0  0  0  0  0  0  0  0  0
   38.1810   33.2070   49.4330 C   0  0  0  0  0  0  0  0  0  0  0  0
   38.9910   32.9700   48.3590 N   0  0  0  0  0  0  0  0  0  0  0  0
   38.7700   31.9270   47.5140 C   0  0  0  0  0  0  0  0  0  0  0  0
   37.7100   31.1000   47.7480 N   0  0  0  0  0  0  0  0  0  0  0  0
   36.4530   32.5660   50.5430 H   0  0  0  0  0  0  0  0  0  0  0  0
   38.4290   34.0470   50.0440 H   0  0  0  0  0  0  0  0  0  0  0  0
   39.4360   31.7790   46.6770 H   0  0  0  0  0  0  0  0  0  0  0  0
   34.4210   28.8170   46.0140 O   0  0  0  0  0  0  0  0  0  0  0  0
   34.3460   29.6150   45.4520 H   0  0  0  0  0  0  0  0  0  0  0  0
   31.5180   29.1210   46.8800 O   0  0  0  0  0  0  0  0  0  0  0  0
   30.7020   28.1590   44.7300 C   0  0  0  0  0  3  0  0  0  0  0  0
   30.5400   28.7430   45.9690 C   0  0  0  0  0  0  0  0  0  0  0  0
   29.2570   29.0220   46.4400 C   0  0  0  0  0  0  0  0  0  0  0  0
   29.0310   29.4830   47.4080 H   0  0  0  0  0  0  0  0  0  0  0  0
   28.1450   28.7260   45.6890 C   0  0  0  0  0  0  0  0  0  0  0  0
   28.3300   28.1390   44.4470 C   0  0  0  0  0  0  0  0  0  0  0  0
   29.6030   27.8520   43.9580 C   0  0  0  0  0  3  0  0  0  0  0  0
   27.0720   27.9390   43.8900 O   0  0  0  0  0  0  0  0  0  0  0  0
   26.0770   28.1060   44.8900 C   0  0  0  0  0  3  0  0  0  0  0  0
   25.1970   28.7040   44.5120 H   0  0  0  0  0  0  0  0  0  0  0  0
   26.7770   28.8740   45.8710 O   0  0  0  0  0  0  0  0  0  0  0  0
  1  5  1  0  0  0  0
  1  6  1  1  0  0  0
  1  2  1  0  0  0  0
  2  7  1  6  0  0  0
  2 12  1  0  0  0  0
  2  3  1  0  0  0  0
  4  8  1  0  0  0  0
  4  9  1  0  0  0  0
  4  3  1  0  0  0  0
  5 10  1  6  0  0  0
  5  4  1  0  0  0  0
 11 14  1  6  0  0  0
 11 13  1  0  0  0  0
 12 15  1  6  0  0  0
 12 11  1  0  0  0  0
 12 13  1  0  0  0  0
 13 17  1  0  0  0  0
 13 16  1  0  0  0  0
 18 11  1  0  0  0  0
 18 19  1  0  0  0  0
 19 24  1  0  0  0  0
 20 19  2  0  0  0  0
 20 25  1  0  0  0  0
 21 20  1  0  0  0  0
 22 23  1  0  0  0  0
 22 21  2  0  0  0  0
 23 18  2  0  0  0  0
 26 22  1  0  0  0  0
 27  1  1  0  0  0  0
 28 27  1  0  0  0  0
 29  5  1  0  0  0  0
 30 31  1  0  0  0  0
 31 32  2  0  0  0  0
 31 29  1  0  0  0  0
 32 33  1  0  0  0  0
 34 40  1  0  0  0  0
 34 32  1  0  0  0  0
 35 34  2  0  0  0  0
 36 35  1  0  0  0  0
 36 30  2  0  0  0  0
 37 35  1  0  0  0  0
 37 38  1  0  0  0  0
 38 40  1  0  0  0  0
 39 38  1  0  0  0  0
M  END
>  <minimizedAffinity>
-5.42262268

>  <minimizedRMSD>
0.44624424

$$$$
