REMARK  Name = 
REMARK  5 active torsions:
REMARK  status: ('A' for Active; 'I' for Inactive)
REMARK    1  A    between atoms: C_1  and  C_4
REMARK    2  A    between atoms: C_2  and  C_11
REMARK    3  A    between atoms: C_10  and  O_15
REMARK    4  A    between atoms: C_14  and  O_16
REMARK    5  A    between atoms: O_16  and  C_31
REMARK                            x       y       z     vdW  Elec       q    Type
REMARK                         _______ _______ _______ _____ _____    ______ ____
ROOT
ATOM      1  C   UNL     1      33.968  29.077  47.376  0.00  0.00    +0.000 C 
ATOM      2  C   UNL     1      34.738  28.282  48.419  0.00  0.00    +0.000 C 
ATOM      3  O   UNL     1      33.871  28.072  49.445  0.00  0.00    +0.000 OA
ATOM      4  C   UNL     1      32.578  28.146  49.006  0.00  0.00    +0.000 C 
ATOM      5  C   UNL     1      32.603  28.393  47.511  0.00  0.00    +0.000 C 
ATOM      6  H   UNL     1      33.879  30.133  47.641  0.00  0.00    +0.000 HD
ATOM      7  H   UNL     1      35.018  27.317  47.953  0.00  0.00    +0.000 HD
ATOM      8  H   UNL     1      31.989  27.221  49.238  0.00  0.00    +0.000 HD
ATOM      9  H   UNL     1      32.045  28.987  49.482  0.00  0.00    +0.000 HD
ATOM     10  H   UNL     1      32.721  27.400  47.010  0.00  0.00    +0.000 HD
ENDROOT
BRANCH   2  12
ATOM     11  C   UNL     1      35.818  30.538  49.074  0.00  0.00    +0.000 C 
ATOM     12  C   UNL     1      35.906  29.116  48.836  0.00  0.00    +0.000 C 
ATOM     13  C   UNL     1      36.073  29.578  50.247  0.00  0.00    +0.000 C 
ATOM     14  H   UNL     1      34.896  31.134  49.283  0.00  0.00    +0.000 HD
ATOM     15  H   UNL     1      36.842  28.795  48.288  0.00  0.00    +0.000 HD
ATOM     16  H   UNL     1      35.257  29.366  50.953  0.00  0.00    +0.000 HD
ATOM     17  H   UNL     1      37.110  29.514  50.659  0.00  0.00    +0.000 HD
BRANCH  11  18
ATOM     18  C   UNL     1      37.007  31.454  48.828  0.00  0.00    +0.000 A 
ATOM     19  C   UNL     1      37.187  32.522  49.706  0.00  0.00    +0.000 A 
ATOM     20  C   UNL     1      38.273  33.339  49.415  0.00  0.00    +0.000 A 
ATOM     21  N   UNL     1      39.083  33.091  48.344  0.00  0.00    +0.000 NA
ATOM     22  C   UNL     1      38.867  32.034  47.514  0.00  0.00    +0.000 A 
ATOM     23  N   UNL     1      37.812  31.205  47.762  0.00  0.00    +0.000 NA
ATOM     24  H   UNL     1      36.549  32.706  50.536  0.00  0.00    +0.000 HD
ATOM     25  H   UNL     1      38.517  34.190  50.013  0.00  0.00    +0.000 HD
ATOM     26  H   UNL     1      39.533  31.877  46.679  0.00  0.00    +0.000 HD
ENDBRANCH  11  18
ENDBRANCH   2  12
BRANCH   1  27
ATOM     27  O   UNL     1      34.475  28.949  46.098  0.00  0.00    +0.000 OA
ATOM     28  H   UNL     1      34.371  29.755  45.553  0.00  0.00    +0.000 HD
ENDBRANCH   1  27
BRANCH   5  29
ATOM     29  O   UNL     1      31.588  29.177  47.039  0.00  0.00    +0.000 OA
BRANCH  29  31
ATOM     30  C   UNL     1      30.987  28.302  44.783  0.00  0.00    +0.000 A 
ATOM     31  C   UNL     1      30.707  28.860  46.013  0.00  0.00    +0.000 A 
ATOM     32  C   UNL     1      29.390  29.175  46.345  0.00  0.00    +0.000 A 
ATOM     33  H   UNL     1      29.072  29.620  47.296  0.00  0.00    +0.000 HD
ATOM     34  C   UNL     1      28.360  28.940  45.466  0.00  0.00    +0.000 A 
ATOM     35  C   UNL     1      28.664  28.380  44.236  0.00  0.00    +0.000 A 
ATOM     36  C   UNL     1      29.972  28.057  43.885  0.00  0.00    +0.000 A 
ATOM     37  O   UNL     1      27.469  28.242  43.536  0.00  0.00    +0.000 OA
ATOM     38  C   UNL     1      26.375  28.421  44.422  0.00  0.00    +0.000 C 
ATOM     39  H   UNL     1      25.565  29.062  43.967  0.00  0.00    +0.000 HD
ATOM     40  O   UNL     1      26.986  29.136  45.499  0.00  0.00    +0.000 OA
ENDBRANCH  29  31
ENDBRANCH   5  29
TORSDOF 5
