
 OpenBabel03262521363D

 39 43  0  0  1  0  0  0  0  0999 V2000
   37.4500   25.3430   32.3660 C   0  0  1  0  0  0  0  0  0  0  0  0
   37.8660   26.4720   33.2080 C   0  0  2  0  0  0  0  0  0  0  0  0
   38.7870   27.2950   32.2910 C   0  0  0  0  0  0  0  0  0  0  0  0
   39.4740   26.3040   31.6510 O   0  0  0  0  0  0  0  0  0  0  0  0
   38.6590   25.2280   31.4200 C   0  0  0  0  0  0  0  0  0  0  0  0
   36.5560   25.6190   31.8000 H   0  0  0  0  0  0  0  0  0  0  0  0
   36.9980   27.1560   33.3910 H   0  0  0  0  0  0  0  0  0  0  0  0
   38.2140   27.9680   31.6390 H   0  0  0  0  0  0  0  0  0  0  0  0
   39.4890   27.8720   32.9330 H   0  0  0  0  0  0  0  0  0  0  0  0
   39.1710   24.2450   31.5810 H   0  0  0  0  0  0  0  0  0  0  0  0
   38.2500   25.1670   30.3920 H   0  0  0  0  0  0  0  0  0  0  0  0
   37.7750   25.6970   35.6980 C   0  0  1  0  0  0  0  0  0  0  0  0
   38.2060   27.0730   35.6440 C   0  0  0  0  0  0  0  0  0  0  0  0
   38.5960   26.1320   34.4850 C   0  0  2  0  0  0  0  0  0  0  0  0
   36.7550   25.3760   35.3660 H   0  0  0  0  0  0  0  0  0  0  0  0
   37.5170   27.8970   35.4590 H   0  0  0  0  0  0  0  0  0  0  0  0
   39.0830   27.3630   36.2720 H   0  0  0  0  0  0  0  0  0  0  0  0
   39.6340   25.8160   34.3840 H   0  0  0  0  0  0  0  0  0  0  0  0
   38.7040   23.4590   38.5500 C   0  0  0  0  0  0  0  0  0  0  0  0
   38.0360   24.4180   37.8040 C   0  0  0  0  0  0  0  0  0  0  0  0
   38.4610   24.6760   36.5120 C   0  0  0  0  0  0  0  0  0  0  0  0
   39.5320   23.9580   36.0380 N   0  0  0  0  0  0  0  0  0  0  0  0
   40.1780   23.0240   36.7750 C   0  0  0  0  0  0  0  0  0  0  0  0
   39.7590   22.7670   38.0550 N   0  0  0  0  0  0  0  0  0  0  0  0
   38.3610   23.2660   39.5600 H   0  0  0  0  0  0  0  0  0  0  0  0
   37.2060   24.9990   38.1540 H   0  0  0  0  0  0  0  0  0  0  0  0
   41.0110   22.5170   36.3050 H   0  0  0  0  0  0  0  0  0  0  0  0
   37.2830   24.1340   33.0220 O   0  0  0  0  0  0  0  0  0  0  0  0
   35.8200   22.7740   31.6290 C   0  0  0  0  0  3  0  0  0  0  0  0
   36.9840   22.9390   32.3830 C   0  0  0  0  0  0  0  0  0  0  0  0
   37.7390   21.8050   32.3900 C   0  0  0  0  0  0  0  0  0  0  0  0
   38.6720   21.7540   32.9230 H   0  0  0  0  0  0  0  0  0  0  0  0
   37.4260   20.6280   31.7480 C   0  0  0  0  0  0  0  0  0  0  0  0
   36.2740   20.5300   31.0270 C   0  0  0  0  0  0  0  0  0  0  0  0
   35.4530   21.6270   30.9660 C   0  0  0  0  0  3  0  0  0  0  0  0
   36.1530   19.2750   30.4680 O   0  0  0  0  0  0  0  0  0  0  0  0
   37.0970   18.4410   31.1170 C   0  0  0  0  0  3  0  0  0  0  0  0
   36.6580   17.9490   32.0250 H   0  0  0  0  0  0  0  0  0  0  0  0
   38.0360   19.3820   31.6260 O   0  0  0  0  0  0  0  0  0  0  0  0
  1  6  1  6  0  0  0
  1 28  1  0  0  0  0
  1  2  1  0  0  0  0
  2  7  1  1  0  0  0
  2 14  1  0  0  0  0
  3  9  1  0  0  0  0
  3  2  1  0  0  0  0
  4  3  1  0  0  0  0
  5 10  1  0  0  0  0
  5  4  1  0  0  0  0
  5  1  1  0  0  0  0
  8  3  1  0  0  0  0
 11  5  1  0  0  0  0
 12 15  1  6  0  0  0
 12 21  1  0  0  0  0
 13 12  1  0  0  0  0
 13 17  1  0  0  0  0
 14 18  1  6  0  0  0
 14 13  1  0  0  0  0
 14 12  1  0  0  0  0
 16 13  1  0  0  0  0
 19 25  1  0  0  0  0
 20 26  1  0  0  0  0
 20 19  2  0  0  0  0
 21 20  1  0  0  0  0
 22 21  2  0  0  0  0
 22 23  1  0  0  0  0
 23 24  2  0  0  0  0
 24 19  1  0  0  0  0
 27 23  1  0  0  0  0
 29 30  1  0  0  0  0
 30 31  2  0  0  0  0
 30 28  1  0  0  0  0
 31 32  1  0  0  0  0
 33 31  1  0  0  0  0
 34 33  2  0  0  0  0
 35 34  1  0  0  0  0
 35 29  2  0  0  0  0
 36 34  1  0  0  0  0
 36 37  1  0  0  0  0
 37 39  1  0  0  0  0
 37 38  1  0  0  0  0
 39 33  1  0  0  0  0
M  END
>  <minimizedAffinity>
-5.65966606

$$$$

 OpenBabel03262521363D

 39 43  0  0  1  0  0  0  0  0999 V2000
   38.4680   23.2850   35.0740 C   0  0  1  0  0  0  0  0  0  0  0  0
   38.6760   24.4580   35.9340 C   0  0  2  0  0  0  0  0  0  0  0  0
   38.3970   23.9280   37.3510 C   0  0  0  0  0  0  0  0  0  0  0  0
   37.3230   23.1160   37.1210 O   0  0  0  0  0  0  0  0  0  0  0  0
   37.4430   22.4940   35.9070 C   0  0  0  0  0  0  0  0  0  0  0  0
   39.4010   22.7220   34.9930 H   0  0  0  0  0  0  0  0  0  0  0  0
   39.7630   24.7250   35.9630 H   0  0  0  0  0  0  0  0  0  0  0  0
   39.2790   23.4330   37.7800 H   0  0  0  0  0  0  0  0  0  0  0  0
   38.0790   24.7850   37.9840 H   0  0  0  0  0  0  0  0  0  0  0  0
   36.4750   22.4260   35.3490 H   0  0  0  0  0  0  0  0  0  0  0  0
   37.8150   21.4510   35.9550 H   0  0  0  0  0  0  0  0  0  0  0  0
   38.3110   26.7190   34.6850 C   0  0  1  0  0  0  0  0  0  0  0  0
   38.4830   26.9770   36.0940 C   0  0  0  0  0  0  0  0  0  0  0  0
   37.8050   25.6600   35.6620 C   0  0  2  0  0  0  0  0  0  0  0  0
   39.1280   26.2860   34.0520 H   0  0  0  0  0  0  0  0  0  0  0  0
   39.4570   26.9450   36.5830 H   0  0  0  0  0  0  0  0  0  0  0  0
   37.7700   27.6860   36.5790 H   0  0  0  0  0  0  0  0  0  0  0  0
   36.7350   25.5350   35.8280 H   0  0  0  0  0  0  0  0  0  0  0  0
   35.9330   27.4400   31.8870 C   0  0  0  0  0  0  0  0  0  0  0  0
   36.9520   26.8490   32.6170 C   0  0  0  0  0  0  0  0  0  0  0  0
   37.2270   27.3230   33.8880 C   0  0  0  0  0  0  0  0  0  0  0  0
   36.4650   28.3650   34.3580 N   0  0  0  0  0  0  0  0  0  0  0  0
   35.4710   28.9360   33.6370 C   0  0  0  0  0  0  0  0  0  0  0  0
   35.1970   28.4670   32.3780 N   0  0  0  0  0  0  0  0  0  0  0  0
   35.7270   27.0590   30.8940 H   0  0  0  0  0  0  0  0  0  0  0  0
   37.5680   26.0430   32.2690 H   0  0  0  0  0  0  0  0  0  0  0  0
   34.9330   29.7510   34.1030 H   0  0  0  0  0  0  0  0  0  0  0  0
   37.9210   23.5440   33.8280 O   0  0  0  0  0  0  0  0  0  0  0  0
   36.3580   22.7330   32.1460 C   0  0  0  0  0  3  0  0  0  0  0  0
   37.4870   22.5610   32.9500 C   0  0  0  0  0  0  0  0  0  0  0  0
   38.0650   21.3450   32.7450 C   0  0  0  0  0  0  0  0  0  0  0  0
   38.9480   21.0440   33.2830 H   0  0  0  0  0  0  0  0  0  0  0  0
   37.6210   20.3820   31.8670 C   0  0  0  0  0  0  0  0  0  0  0  0
   36.5120   20.6100   31.1100 C   0  0  0  0  0  0  0  0  0  0  0  0
   35.8660   21.8120   31.2510 C   0  0  0  0  0  3  0  0  0  0  0  0
   36.2410   19.5250   30.3020 O   0  0  0  0  0  0  0  0  0  0  0  0
   37.0110   18.4420   30.7930 C   0  0  0  0  0  3  0  0  0  0  0  0
   36.4520   17.8540   31.5680 H   0  0  0  0  0  0  0  0  0  0  0  0
   38.0470   19.1050   31.5100 O   0  0  0  0  0  0  0  0  0  0  0  0
  1  6  1  6  0  0  0
  1  5  1  0  0  0  0
  1  2  1  0  0  0  0
  2  7  1  6  0  0  0
  2  3  1  0  0  0  0
  3  8  1  0  0  0  0
  3  9  1  0  0  0  0
  4  3  1  0  0  0  0
  5 11  1  0  0  0  0
  5  4  1  0  0  0  0
 10  5  1  0  0  0  0
 12 15  1  6  0  0  0
 12 14  1  0  0  0  0
 12 13  1  0  0  0  0
 13 17  1  0  0  0  0
 13 16  1  0  0  0  0
 14 18  1  1  0  0  0
 14  2  1  0  0  0  0
 14 13  1  0  0  0  0
 19 24  2  0  0  0  0
 19 20  1  0  0  0  0
 20 21  2  0  0  0  0
 21 22  1  0  0  0  0
 21 12  1  0  0  0  0
 23 27  1  0  0  0  0
 23 22  2  0  0  0  0
 24 23  1  0  0  0  0
 25 19  1  0  0  0  0
 26 20  1  0  0  0  0
 28  1  1  0  0  0  0
 29 30  1  0  0  0  0
 30 28  1  0  0  0  0
 31 30  2  0  0  0  0
 31 32  1  0  0  0  0
 33 31  1  0  0  0  0
 34 35  1  0  0  0  0
 34 33  2  0  0  0  0
 35 29  2  0  0  0  0
 36 37  1  0  0  0  0
 36 34  1  0  0  0  0
 37 39  1  0  0  0  0
 37 38  1  0  0  0  0
 39 33  1  0  0  0  0
M  END
>  <minimizedAffinity>
-5.64586115

$$$$

 OpenBabel03262521363D

 39 43  0  0  1  0  0  0  0  0999 V2000
   38.1230   26.0700   34.5860 C   0  0  1  0  0  0  0  0  0  0  0  0
   38.1120   25.9670   33.1210 C   0  0  2  0  0  0  0  0  0  0  0  0
   37.6680   27.3650   32.6580 C   0  0  0  0  0  0  0  0  0  0  0  0
   36.7040   27.6540   33.5820 O   0  0  0  0  0  0  0  0  0  0  0  0
   37.0490   27.1510   34.8080 C   0  0  0  0  0  0  0  0  0  0  0  0
   39.0980   26.4350   34.9190 H   0  0  0  0  0  0  0  0  0  0  0  0
   39.1590   25.8830   32.7340 H   0  0  0  0  0  0  0  0  0  0  0  0
   38.5120   28.0680   32.6210 H   0  0  0  0  0  0  0  0  0  0  0  0
   37.1960   27.2650   31.6560 H   0  0  0  0  0  0  0  0  0  0  0  0
   36.1820   26.7130   35.3650 H   0  0  0  0  0  0  0  0  0  0  0  0
   37.4880   27.8910   35.5070 H   0  0  0  0  0  0  0  0  0  0  0  0
   37.7970   23.5650   32.1520 C   0  0  1  0  0  0  0  0  0  0  0  0
   37.6310   24.5300   31.0920 C   0  0  0  0  0  0  0  0  0  0  0  0
   37.2020   24.9230   32.5220 C   0  0  2  0  0  0  0  0  0  0  0  0
   38.7720   23.4250   32.6860 H   0  0  0  0  0  0  0  0  0  0  0  0
   38.4740   25.0410   30.6250 H   0  0  0  0  0  0  0  0  0  0  0  0
   36.7600   24.3980   30.4060 H   0  0  0  0  0  0  0  0  0  0  0  0
   36.1400   25.0110   32.7510 H   0  0  0  0  0  0  0  0  0  0  0  0
   35.1130   21.0170   31.6010 C   0  0  0  0  0  0  0  0  0  0  0  0
   35.9940   22.0610   31.3630 C   0  0  0  0  0  0  0  0  0  0  0  0
   36.8550   22.4520   32.3730 C   0  0  0  0  0  0  0  0  0  0  0  0
   36.7870   21.7760   33.5670 N   0  0  0  0  0  0  0  0  0  0  0  0
   35.9220   20.7580   33.7890 C   0  0  0  0  0  0  0  0  0  0  0  0
   35.0680   20.3670   32.7900 N   0  0  0  0  0  0  0  0  0  0  0  0
   34.4450   20.7190   30.8010 H   0  0  0  0  0  0  0  0  0  0  0  0
   36.0590   22.6110   30.4450 H   0  0  0  0  0  0  0  0  0  0  0  0
   35.9510   20.2940   34.7670 H   0  0  0  0  0  0  0  0  0  0  0  0
   37.7470   24.9250   35.2710 O   0  0  0  0  0  0  0  0  0  0  0  0
   38.5740   23.8360   37.2850 C   0  0  0  0  0  3  0  0  0  0  0  0
   38.6380   24.0750   35.9110 C   0  0  0  0  0  0  0  0  0  0  0  0
   39.6540   23.3790   35.3300 C   0  0  0  0  0  0  0  0  0  0  0  0
   39.8490   23.4450   34.2740 H   0  0  0  0  0  0  0  0  0  0  0  0
   40.5270   22.5370   35.9820 C   0  0  0  0  0  0  0  0  0  0  0  0
   40.4130   22.3450   37.3260 C   0  0  0  0  0  0  0  0  0  0  0  0
   39.4140   23.0090   37.9930 C   0  0  0  0  0  3  0  0  0  0  0  0
   41.3790   21.4710   37.7780 O   0  0  0  0  0  0  0  0  0  0  0  0
   42.3430   21.3510   36.7470 C   0  0  0  0  0  3  0  0  0  0  0  0
   43.1570   22.1170   36.8500 H   0  0  0  0  0  0  0  0  0  0  0  0
   41.6080   21.7490   35.5950 O   0  0  0  0  0  0  0  0  0  0  0  0
  1  5  1  0  0  0  0
  1  6  1  1  0  0  0
  1 28  1  0  0  0  0
  2  7  1  6  0  0  0
  2  1  1  0  0  0  0
  3  2  1  0  0  0  0
  3  4  1  0  0  0  0
  4  5  1  0  0  0  0
  5 10  1  0  0  0  0
  5 11  1  0  0  0  0
  8  3  1  0  0  0  0
  9  3  1  0  0  0  0
 12 21  1  0  0  0  0
 12 14  1  0  0  0  0
 12 15  1  1  0  0  0
 13 12  1  0  0  0  0
 13 14  1  0  0  0  0
 14 18  1  1  0  0  0
 14  2  1  0  0  0  0
 16 13  1  0  0  0  0
 17 13  1  0  0  0  0
 19 24  1  0  0  0  0
 20 19  2  0  0  0  0
 20 21  1  0  0  0  0
 21 22  2  0  0  0  0
 22 23  1  0  0  0  0
 23 27  1  0  0  0  0
 24 23  2  0  0  0  0
 25 19  1  0  0  0  0
 26 20  1  0  0  0  0
 28 30  1  0  0  0  0
 29 35  1  0  0  0  0
 30 29  2  0  0  0  0
 31 30  1  0  0  0  0
 31 33  2  0  0  0  0
 32 31  1  0  0  0  0
 33 34  1  0  0  0  0
 34 36  1  0  0  0  0
 34 35  2  0  0  0  0
 37 38  1  0  0  0  0
 37 36  1  0  0  0  0
 39 33  1  0  0  0  0
 39 37  1  0  0  0  0
M  END
>  <minimizedAffinity>
-5.58932161

$$$$

 OpenBabel03262521363D

 39 43  0  0  1  0  0  0  0  0999 V2000
   37.1940   27.6330   31.7690 C   0  0  1  0  0  0  0  0  0  0  0  0
   36.3880   28.5880   30.9970 C   0  0  2  0  0  0  0  0  0  0  0  0
   37.0970   28.6510   29.6340 C   0  0  0  0  0  0  0  0  0  0  0  0
   38.4080   28.6300   30.0180 O   0  0  0  0  0  0  0  0  0  0  0  0
   38.5730   27.8230   31.1120 C   0  0  0  0  0  0  0  0  0  0  0  0
   36.8290   26.6190   31.5890 H   0  0  0  0  0  0  0  0  0  0  0  0
   35.3900   28.1420   30.7550 H   0  0  0  0  0  0  0  0  0  0  0  0
   36.7850   27.8280   28.9760 H   0  0  0  0  0  0  0  0  0  0  0  0
   36.8680   29.6350   29.1690 H   0  0  0  0  0  0  0  0  0  0  0  0
   39.2940   28.2390   31.8610 H   0  0  0  0  0  0  0  0  0  0  0  0
   38.9560   26.8080   30.8860 H   0  0  0  0  0  0  0  0  0  0  0  0
   35.1950   30.2370   32.6300 C   0  0  1  0  0  0  0  0  0  0  0  0
   34.8800   30.6040   31.2710 C   0  0  0  0  0  0  0  0  0  0  0  0
   36.2610   29.9810   31.5660 C   0  0  2  0  0  0  0  0  0  0  0  0
   34.8700   29.2640   33.0780 H   0  0  0  0  0  0  0  0  0  0  0  0
   34.1600   30.0530   30.6650 H   0  0  0  0  0  0  0  0  0  0  0  0
   34.9480   31.6850   30.9990 H   0  0  0  0  0  0  0  0  0  0  0  0
   37.1480   30.6110   31.5170 H   0  0  0  0  0  0  0  0  0  0  0  0
   36.0160   31.8280   35.9160 C   0  0  0  0  0  0  0  0  0  0  0  0
   35.6130   30.8840   34.9850 C   0  0  0  0  0  0  0  0  0  0  0  0
   35.6270   31.2190   33.6420 C   0  0  0  0  0  0  0  0  0  0  0  0
   36.0450   32.4840   33.3060 N   0  0  0  0  0  0  0  0  0  0  0  0
   36.4370   33.3990   34.2230 C   0  0  0  0  0  0  0  0  0  0  0  0
   36.4240   33.0690   35.5540 N   0  0  0  0  0  0  0  0  0  0  0  0
   36.0020   31.5530   36.9640 H   0  0  0  0  0  0  0  0  0  0  0  0
   35.2720   29.8950   35.2230 H   0  0  0  0  0  0  0  0  0  0  0  0
   36.7470   34.3670   33.8490 H   0  0  0  0  0  0  0  0  0  0  0  0
   37.3080   27.9000   33.1240 O   0  0  0  0  0  0  0  0  0  0  0  0
   38.0420   27.3130   35.3700 C   0  0  0  0  0  3  0  0  0  0  0  0
   37.6620   26.9540   34.0750 C   0  0  0  0  0  0  0  0  0  0  0  0
   37.6890   25.6030   33.9040 C   0  0  0  0  0  0  0  0  0  0  0  0
   37.4250   25.1500   32.9640 H   0  0  0  0  0  0  0  0  0  0  0  0
   38.0410   24.6780   34.8610 C   0  0  0  0  0  0  0  0  0  0  0  0
   38.4030   25.0930   36.1080 C   0  0  0  0  0  0  0  0  0  0  0  0
   38.4030   26.4400   36.3680 C   0  0  0  0  0  3  0  0  0  0  0  0
   38.7160   24.0140   36.9090 O   0  0  0  0  0  0  0  0  0  0  0  0
   38.8720   22.8960   36.0540 C   0  0  0  0  0  3  0  0  0  0  0  0
   39.9310   22.7890   35.7000 H   0  0  0  0  0  0  0  0  0  0  0  0
   38.1370   23.2900   34.9000 O   0  0  0  0  0  0  0  0  0  0  0  0
  1  6  1  6  0  0  0
  1 28  1  0  0  0  0
  2  7  1  6  0  0  0
  2 14  1  0  0  0  0
  2  1  1  0  0  0  0
  3  4  1  0  0  0  0
  3  2  1  0  0  0  0
  4  5  1  0  0  0  0
  5  1  1  0  0  0  0
  5 10  1  0  0  0  0
  8  3  1  0  0  0  0
  9  3  1  0  0  0  0
 11  5  1  0  0  0  0
 12 15  1  1  0  0  0
 12 21  1  0  0  0  0
 13 14  1  0  0  0  0
 13 12  1  0  0  0  0
 14 18  1  6  0  0  0
 14 12  1  0  0  0  0
 16 13  1  0  0  0  0
 17 13  1  0  0  0  0
 19 25  1  0  0  0  0
 20 26  1  0  0  0  0
 20 19  2  0  0  0  0
 21 20  1  0  0  0  0
 22 21  2  0  0  0  0
 22 23  1  0  0  0  0
 23 24  2  0  0  0  0
 24 19  1  0  0  0  0
 27 23  1  0  0  0  0
 28 30  1  0  0  0  0
 29 35  1  0  0  0  0
 30 29  2  0  0  0  0
 31 30  1  0  0  0  0
 31 33  2  0  0  0  0
 32 31  1  0  0  0  0
 33 39  1  0  0  0  0
 33 34  1  0  0  0  0
 34 35  2  0  0  0  0
 34 36  1  0  0  0  0
 37 36  1  0  0  0  0
 38 37  1  0  0  0  0
 39 37  1  0  0  0  0
M  END
>  <minimizedAffinity>
-5.47913218

$$$$

 OpenBabel03262521363D

 39 43  0  0  1  0  0  0  0  0999 V2000
   36.3170   26.9580   30.9540 C   0  0  1  0  0  0  0  0  0  0  0  0
   36.1130   27.5730   32.2720 C   0  0  2  0  0  0  0  0  0  0  0  0
   35.7080   29.0200   31.9440 C   0  0  0  0  0  0  0  0  0  0  0  0
   36.5470   29.2980   30.9020 O   0  0  0  0  0  0  0  0  0  0  0  0
   36.7270   28.1870   30.1220 C   0  0  0  0  0  0  0  0  0  0  0  0
   35.3690   26.5560   30.5880 H   0  0  0  0  0  0  0  0  0  0  0  0
   35.1990   27.1470   32.7570 H   0  0  0  0  0  0  0  0  0  0  0  0
   34.6360   29.1000   31.7200 H   0  0  0  0  0  0  0  0  0  0  0  0
   35.9780   29.6600   32.8120 H   0  0  0  0  0  0  0  0  0  0  0  0
   37.7810   28.0660   29.7640 H   0  0  0  0  0  0  0  0  0  0  0  0
   36.1120   28.1630   29.2000 H   0  0  0  0  0  0  0  0  0  0  0  0
   37.4270   26.4460   34.2250 C   0  0  1  0  0  0  0  0  0  0  0  0
   36.8710   27.6960   34.6850 C   0  0  0  0  0  0  0  0  0  0  0  0
   37.2980   27.5780   33.2070 C   0  0  2  0  0  0  0  0  0  0  0  0
   36.7840   25.5850   33.9110 H   0  0  0  0  0  0  0  0  0  0  0  0
   35.8150   27.8140   34.9310 H   0  0  0  0  0  0  0  0  0  0  0  0
   37.5380   28.3730   35.2700 H   0  0  0  0  0  0  0  0  0  0  0  0
   38.1850   28.1130   32.8670 H   0  0  0  0  0  0  0  0  0  0  0  0
   41.1530   26.5930   34.5410 C   0  0  0  0  0  0  0  0  0  0  0  0
   39.8430   26.9860   34.3130 C   0  0  0  0  0  0  0  0  0  0  0  0
   38.8280   26.0580   34.4690 C   0  0  0  0  0  0  0  0  0  0  0  0
   39.1820   24.7850   34.8460 N   0  0  0  0  0  0  0  0  0  0  0  0
   40.4640   24.4110   35.0660 C   0  0  0  0  0  0  0  0  0  0  0  0
   41.4710   25.3290   34.9130 N   0  0  0  0  0  0  0  0  0  0  0  0
   41.9380   27.3290   34.4170 H   0  0  0  0  0  0  0  0  0  0  0  0
   39.5430   27.9690   34.0070 H   0  0  0  0  0  0  0  0  0  0  0  0
   40.6310   23.3820   35.3590 H   0  0  0  0  0  0  0  0  0  0  0  0
   37.3300   26.0160   30.8800 O   0  0  0  0  0  0  0  0  0  0  0  0
   38.0540   23.7160   30.5400 C   0  0  0  0  0  3  0  0  0  0  0  0
   37.1330   24.6490   31.0190 C   0  0  0  0  0  0  0  0  0  0  0  0
   36.0690   24.0400   31.6140 C   0  0  0  0  0  0  0  0  0  0  0  0
   35.2610   24.6090   32.0400 H   0  0  0  0  0  0  0  0  0  0  0  0
   35.8910   22.6810   31.7440 C   0  0  0  0  0  0  0  0  0  0  0  0
   36.8280   21.8220   31.2550 C   0  0  0  0  0  0  0  0  0  0  0  0
   37.9350   22.3500   30.6400 C   0  0  0  0  0  3  0  0  0  0  0  0
   36.4590   20.5130   31.4890 O   0  0  0  0  0  0  0  0  0  0  0  0
   35.0900   20.5280   31.8500 C   0  0  0  0  0  3  0  0  0  0  0  0
   34.4240   20.4310   30.9520 H   0  0  0  0  0  0  0  0  0  0  0  0
   34.9080   21.8670   32.3000 O   0  0  0  0  0  0  0  0  0  0  0  0
  1  6  1  6  0  0  0
  1  2  1  0  0  0  0
  2  7  1  1  0  0  0
  2 14  1  0  0  0  0
  3  2  1  0  0  0  0
  3  9  1  0  0  0  0
  4  3  1  0  0  0  0
  5  4  1  0  0  0  0
  5  1  1  0  0  0  0
  8  3  1  0  0  0  0
 10  5  1  0  0  0  0
 11  5  1  0  0  0  0
 12 15  1  6  0  0  0
 12 21  1  0  0  0  0
 12 13  1  0  0  0  0
 13 16  1  0  0  0  0
 13 17  1  0  0  0  0
 14 18  1  6  0  0  0
 14 12  1  0  0  0  0
 14 13  1  0  0  0  0
 19 24  1  0  0  0  0
 20 21  1  0  0  0  0
 20 19  2  0  0  0  0
 21 22  2  0  0  0  0
 22 23  1  0  0  0  0
 23 27  1  0  0  0  0
 24 23  2  0  0  0  0
 25 19  1  0  0  0  0
 26 20  1  0  0  0  0
 28  1  1  0  0  0  0
 28 30  1  0  0  0  0
 29 35  2  0  0  0  0
 29 30  1  0  0  0  0
 30 31  2  0  0  0  0
 31 33  1  0  0  0  0
 31 32  1  0  0  0  0
 33 39  1  0  0  0  0
 34 36  1  0  0  0  0
 34 33  2  0  0  0  0
 35 34  1  0  0  0  0
 36 37  1  0  0  0  0
 37 39  1  0  0  0  0
 38 37  1  0  0  0  0
M  END
>  <minimizedAffinity>
-5.42342806

$$$$

 OpenBabel03262521363D

 39 43  0  0  1  0  0  0  0  0999 V2000
   38.2370   26.1840   32.7750 C   0  0  1  0  0  0  0  0  0  0  0  0
   38.6350   25.6780   31.4550 C   0  0  2  0  0  0  0  0  0  0  0  0
   38.5140   26.9080   30.5390 C   0  0  0  0  0  0  0  0  0  0  0  0
   37.3670   27.4780   31.0150 O   0  0  0  0  0  0  0  0  0  0  0  0
   37.2830   27.3230   32.3730 C   0  0  0  0  0  0  0  0  0  0  0  0
   39.1120   26.5900   33.2890 H   0  0  0  0  0  0  0  0  0  0  0  0
   39.7310   25.4500   31.4450 H   0  0  0  0  0  0  0  0  0  0  0  0
   39.4100   27.5410   30.5880 H   0  0  0  0  0  0  0  0  0  0  0  0
   38.3400   26.5500   29.5000 H   0  0  0  0  0  0  0  0  0  0  0  0
   36.2460   27.0900   32.7260 H   0  0  0  0  0  0  0  0  0  0  0  0
   37.5880   28.2110   32.9610 H   0  0  0  0  0  0  0  0  0  0  0  0
   38.3270   23.1150   31.0750 C   0  0  1  0  0  0  0  0  0  0  0  0
   38.5860   23.7560   29.8080 C   0  0  0  0  0  0  0  0  0  0  0  0
   37.8160   24.5430   30.8900 C   0  0  2  0  0  0  0  0  0  0  0  0
   39.0860   23.0920   31.8990 H   0  0  0  0  0  0  0  0  0  0  0  0
   39.5810   24.0860   29.5090 H   0  0  0  0  0  0  0  0  0  0  0  0
   37.9370   23.4710   28.9450 H   0  0  0  0  0  0  0  0  0  0  0  0
   36.7510   24.7300   30.7530 H   0  0  0  0  0  0  0  0  0  0  0  0
   35.1520   21.5230   32.2520 C   0  0  0  0  0  0  0  0  0  0  0  0
   36.1600   22.4600   32.0790 C   0  0  0  0  0  0  0  0  0  0  0  0
   37.2370   22.1420   31.2700 C   0  0  0  0  0  0  0  0  0  0  0  0
   37.2460   20.9020   30.6790 N   0  0  0  0  0  0  0  0  0  0  0  0
   36.2570   19.9940   30.8540 C   0  0  0  0  0  0  0  0  0  0  0  0
   35.1880   20.3070   31.6550 N   0  0  0  0  0  0  0  0  0  0  0  0
   34.3130   21.7840   32.8870 H   0  0  0  0  0  0  0  0  0  0  0  0
   36.1810   23.4280   32.5380 H   0  0  0  0  0  0  0  0  0  0  0  0
   36.3640   19.0460   30.3420 H   0  0  0  0  0  0  0  0  0  0  0  0
   37.5460   25.2900   33.5770 O   0  0  0  0  0  0  0  0  0  0  0  0
   37.7550   25.0660   35.9930 C   0  0  0  0  0  3  0  0  0  0  0  0
   38.0870   24.6710   34.6960 C   0  0  0  0  0  0  0  0  0  0  0  0
   38.9730   23.6370   34.7010 C   0  0  0  0  0  0  0  0  0  0  0  0
   39.3380   23.2040   33.7850 H   0  0  0  0  0  0  0  0  0  0  0  0
   39.4970   23.0330   35.8220 C   0  0  0  0  0  0  0  0  0  0  0  0
   39.1330   23.4660   37.0610 C   0  0  0  0  0  0  0  0  0  0  0  0
   38.2420   24.5050   37.1490 C   0  0  0  0  0  3  0  0  0  0  0  0
   39.7690   22.7310   38.0410 O   0  0  0  0  0  0  0  0  0  0  0  0
   40.8190   22.0210   37.4080 C   0  0  0  0  0  3  0  0  0  0  0  0
   41.7720   22.6130   37.4000 H   0  0  0  0  0  0  0  0  0  0  0  0
   40.3920   21.9910   36.0510 O   0  0  0  0  0  0  0  0  0  0  0  0
  1  6  1  1  0  0  0
  1 28  1  0  0  0  0
  2  7  1  1  0  0  0
  2  1  1  0  0  0  0
  3  8  1  0  0  0  0
  3  4  1  0  0  0  0
  3  2  1  0  0  0  0
  4  5  1  0  0  0  0
  5 10  1  0  0  0  0
  5  1  1  0  0  0  0
  5 11  1  0  0  0  0
  9  3  1  0  0  0  0
 12 21  1  0  0  0  0
 12 15  1  1  0  0  0
 13 14  1  0  0  0  0
 13 12  1  0  0  0  0
 14 18  1  6  0  0  0
 14 12  1  0  0  0  0
 14  2  1  0  0  0  0
 16 13  1  0  0  0  0
 17 13  1  0  0  0  0
 19 25  1  0  0  0  0
 20 19  1  0  0  0  0
 20 26  1  0  0  0  0
 21 20  2  0  0  0  0
 22 23  2  0  0  0  0
 22 21  1  0  0  0  0
 23 24  1  0  0  0  0
 24 19  2  0  0  0  0
 27 23  1  0  0  0  0
 28 30  1  0  0  0  0
 29 35  1  0  0  0  0
 30 31  1  0  0  0  0
 30 29  2  0  0  0  0
 31 33  2  0  0  0  0
 32 31  1  0  0  0  0
 33 39  1  0  0  0  0
 33 34  1  0  0  0  0
 34 35  2  0  0  0  0
 34 36  1  0  0  0  0
 37 36  1  0  0  0  0
 38 37  1  0  0  0  0
 39 37  1  0  0  0  0
M  END
>  <minimizedAffinity>
-5.31136417

$$$$

 OpenBabel03262521363D

 39 43  0  0  1  0  0  0  0  0999 V2000
   33.5540   29.5310   34.1690 C   0  0  1  0  0  0  0  0  0  0  0  0
   32.9990   30.1100   35.3990 C   0  0  2  0  0  0  0  0  0  0  0  0
   31.4780   30.0470   35.1820 C   0  0  0  0  0  0  0  0  0  0  0  0
   31.3860   30.3910   33.8630 O   0  0  0  0  0  0  0  0  0  0  0  0
   32.4440   29.8790   33.1600 C   0  0  0  0  0  0  0  0  0  0  0  0
   33.6340   28.4470   34.2800 H   0  0  0  0  0  0  0  0  0  0  0  0
   33.1710   29.4180   36.2620 H   0  0  0  0  0  0  0  0  0  0  0  0
   31.0720   29.0600   35.4410 H   0  0  0  0  0  0  0  0  0  0  0  0
   31.0060   30.8420   35.8000 H   0  0  0  0  0  0  0  0  0  0  0  0
   32.8440   30.5860   32.3880 H   0  0  0  0  0  0  0  0  0  0  0  0
   32.2230   28.9480   32.6020 H   0  0  0  0  0  0  0  0  0  0  0  0
   34.6430   31.7490   36.5920 C   0  0  1  0  0  0  0  0  0  0  0  0
   33.3550   31.8130   37.2390 C   0  0  0  0  0  0  0  0  0  0  0  0
   33.4060   31.5280   35.7230 C   0  0  2  0  0  0  0  0  0  0  0  0
   35.2690   30.8200   36.5970 H   0  0  0  0  0  0  0  0  0  0  0  0
   33.0010   31.0400   37.9200 H   0  0  0  0  0  0  0  0  0  0  0  0
   32.9440   32.8260   37.4690 H   0  0  0  0  0  0  0  0  0  0  0  0
   33.0800   32.3000   35.0270 H   0  0  0  0  0  0  0  0  0  0  0  0
   37.2570   33.9760   35.1050 C   0  0  0  0  0  0  0  0  0  0  0  0
   36.5580   32.8300   35.4500 C   0  0  0  0  0  0  0  0  0  0  0  0
   35.4030   32.9520   36.2030 C   0  0  0  0  0  0  0  0  0  0  0  0
   35.0120   34.2160   36.5700 N   0  0  0  0  0  0  0  0  0  0  0  0
   35.7030   35.3300   36.2290 C   0  0  0  0  0  0  0  0  0  0  0  0
   36.8470   35.2120   35.4820 N   0  0  0  0  0  0  0  0  0  0  0  0
   38.1590   33.8680   34.5140 H   0  0  0  0  0  0  0  0  0  0  0  0
   36.8480   31.8320   35.1850 H   0  0  0  0  0  0  0  0  0  0  0  0
   35.3060   36.2770   36.5720 H   0  0  0  0  0  0  0  0  0  0  0  0
   34.7440   30.0860   33.7270 O   0  0  0  0  0  0  0  0  0  0  0  0
   35.7300   28.3850   32.2910 C   0  0  0  0  0  3  0  0  0  0  0  0
   35.3880   29.7130   32.5560 C   0  0  0  0  0  0  0  0  0  0  0  0
   35.7640   30.5370   31.5390 C   0  0  0  0  0  0  0  0  0  0  0  0
   35.5780   31.5960   31.5750 H   0  0  0  0  0  0  0  0  0  0  0  0
   36.4010   30.1470   30.3820 C   0  0  0  0  0  0  0  0  0  0  0  0
   36.7070   28.8340   30.1830 C   0  0  0  0  0  0  0  0  0  0  0  0
   36.3640   27.9330   31.1580 C   0  0  0  0  0  3  0  0  0  0  0  0
   37.3380   28.6590   28.9680 O   0  0  0  0  0  0  0  0  0  0  0  0
   37.7380   29.9430   28.5230 C   0  0  0  0  0  3  0  0  0  0  0  0
   38.7670   30.2060   28.8850 H   0  0  0  0  0  0  0  0  0  0  0  0
   36.8630   30.8030   29.2450 O   0  0  0  0  0  0  0  0  0  0  0  0
  1  6  1  1  0  0  0
  1  2  1  0  0  0  0
  2 14  1  0  0  0  0
  2  7  1  1  0  0  0
  3  2  1  0  0  0  0
  3  8  1  0  0  0  0
  3  9  1  0  0  0  0
  4  3  1  0  0  0  0
  5  4  1  0  0  0  0
  5  1  1  0  0  0  0
 10  5  1  0  0  0  0
 11  5  1  0  0  0  0
 12 15  1  1  0  0  0
 12 13  1  0  0  0  0
 13 17  1  0  0  0  0
 13 16  1  0  0  0  0
 14 18  1  6  0  0  0
 14 12  1  0  0  0  0
 14 13  1  0  0  0  0
 19 20  2  0  0  0  0
 19 24  1  0  0  0  0
 20 21  1  0  0  0  0
 21 22  2  0  0  0  0
 21 12  1  0  0  0  0
 23 22  1  0  0  0  0
 23 27  1  0  0  0  0
 24 23  2  0  0  0  0
 25 19  1  0  0  0  0
 26 20  1  0  0  0  0
 28  1  1  0  0  0  0
 29 30  1  0  0  0  0
 30 28  1  0  0  0  0
 31 32  1  0  0  0  0
 31 30  2  0  0  0  0
 33 31  1  0  0  0  0
 34 33  2  0  0  0  0
 34 35  1  0  0  0  0
 35 29  2  0  0  0  0
 36 34  1  0  0  0  0
 37 38  1  0  0  0  0
 37 36  1  0  0  0  0
 37 39  1  0  0  0  0
 39 33  1  0  0  0  0
M  END
>  <minimizedAffinity>
-5.22187614

$$$$

 OpenBabel03262521363D

 39 43  0  0  1  0  0  0  0  0999 V2000
   33.0850   29.9690   34.7890 C   0  0  1  0  0  0  0  0  0  0  0  0
   33.3460   30.7920   35.9770 C   0  0  2  0  0  0  0  0  0  0  0  0
   31.9410   31.1570   36.4870 C   0  0  0  0  0  0  0  0  0  0  0  0
   31.2870   31.3940   35.3120 O   0  0  0  0  0  0  0  0  0  0  0  0
   31.7250   30.5350   34.3390 C   0  0  0  0  0  0  0  0  0  0  0  0
   32.9760   28.9230   35.0860 H   0  0  0  0  0  0  0  0  0  0  0  0
   33.7680   30.1590   36.7980 H   0  0  0  0  0  0  0  0  0  0  0  0
   31.5160   30.3580   37.1110 H   0  0  0  0  0  0  0  0  0  0  0  0
   32.0170   32.1060   37.0620 H   0  0  0  0  0  0  0  0  0  0  0  0
   31.8330   31.0230   33.3370 H   0  0  0  0  0  0  0  0  0  0  0  0
   31.0660   29.6630   34.1580 H   0  0  0  0  0  0  0  0  0  0  0  0
   35.6610   31.9950   35.9820 C   0  0  1  0  0  0  0  0  0  0  0  0
   34.8530   32.5150   37.0580 C   0  0  0  0  0  0  0  0  0  0  0  0
   34.1500   32.0510   35.7650 C   0  0  2  0  0  0  0  0  0  0  0  0
   36.0050   30.9290   35.9540 H   0  0  0  0  0  0  0  0  0  0  0  0
   34.6870   31.9680   37.9860 H   0  0  0  0  0  0  0  0  0  0  0  0
   34.8200   33.6240   37.1870 H   0  0  0  0  0  0  0  0  0  0  0  0
   33.7210   32.7980   35.0970 H   0  0  0  0  0  0  0  0  0  0  0  0
   36.9350   33.5520   32.8270 C   0  0  0  0  0  0  0  0  0  0  0  0
   36.2190   32.7290   33.6830 C   0  0  0  0  0  0  0  0  0  0  0  0
   36.4030   32.8620   35.0480 C   0  0  0  0  0  0  0  0  0  0  0  0
   37.2960   33.8120   35.4810 N   0  0  0  0  0  0  0  0  0  0  0  0
   37.9910   34.6100   34.6370 C   0  0  0  0  0  0  0  0  0  0  0  0
   37.8090   34.4820   33.2840 N   0  0  0  0  0  0  0  0  0  0  0  0
   36.7810   33.4390   31.7600 H   0  0  0  0  0  0  0  0  0  0  0  0
   35.5260   31.9740   33.3690 H   0  0  0  0  0  0  0  0  0  0  0  0
   38.6690   35.3260   35.0850 H   0  0  0  0  0  0  0  0  0  0  0  0
   33.9900   30.1110   33.7490 O   0  0  0  0  0  0  0  0  0  0  0  0
   35.9120   28.7450   34.3540 C   0  0  0  0  0  3  0  0  0  0  0  0
   34.9570   29.1700   33.4280 C   0  0  0  0  0  0  0  0  0  0  0  0
   35.1160   28.5470   32.2270 C   0  0  0  0  0  0  0  0  0  0  0  0
   34.4650   28.7550   31.3950 H   0  0  0  0  0  0  0  0  0  0  0  0
   36.0820   27.6130   31.9270 C   0  0  0  0  0  0  0  0  0  0  0  0
   36.9860   27.2400   32.8760 C   0  0  0  0  0  0  0  0  0  0  0  0
   36.8990   27.8180   34.1170 C   0  0  0  0  0  3  0  0  0  0  0  0
   37.8610   26.2990   32.3730 O   0  0  0  0  0  0  0  0  0  0  0  0
   37.7140   26.3110   30.9640 C   0  0  0  0  0  3  0  0  0  0  0  0
   38.4120   27.0450   30.4810 H   0  0  0  0  0  0  0  0  0  0  0  0
   36.4170   26.8720   30.7970 O   0  0  0  0  0  0  0  0  0  0  0  0
  1  6  1  1  0  0  0
  1  2  1  0  0  0  0
  2  3  1  0  0  0  0
  2  7  1  1  0  0  0
  3  9  1  0  0  0  0
  3  8  1  0  0  0  0
  4  3  1  0  0  0  0
  5  1  1  0  0  0  0
  5  4  1  0  0  0  0
 10  5  1  0  0  0  0
 11  5  1  0  0  0  0
 12 15  1  1  0  0  0
 12 13  1  0  0  0  0
 13 17  1  0  0  0  0
 13 16  1  0  0  0  0
 14 18  1  6  0  0  0
 14  2  1  0  0  0  0
 14 12  1  0  0  0  0
 14 13  1  0  0  0  0
 19 24  2  0  0  0  0
 19 20  1  0  0  0  0
 20 21  2  0  0  0  0
 21 22  1  0  0  0  0
 21 12  1  0  0  0  0
 23 27  1  0  0  0  0
 23 22  2  0  0  0  0
 24 23  1  0  0  0  0
 25 19  1  0  0  0  0
 26 20  1  0  0  0  0
 28  1  1  0  0  0  0
 30 28  1  0  0  0  0
 30 29  2  0  0  0  0
 31 30  1  0  0  0  0
 32 31  1  0  0  0  0
 33 31  2  0  0  0  0
 33 34  1  0  0  0  0
 34 35  2  0  0  0  0
 35 29  1  0  0  0  0
 36 34  1  0  0  0  0
 37 36  1  0  0  0  0
 38 37  1  0  0  0  0
 39 37  1  0  0  0  0
 39 33  1  0  0  0  0
M  END
>  <minimizedAffinity>
-5.17544794

$$$$

 OpenBabel03262521363D

 39 43  0  0  1  0  0  0  0  0999 V2000
   33.1630   29.4380   34.2600 C   0  0  1  0  0  0  0  0  0  0  0  0
   32.5860   30.1000   35.4370 C   0  0  2  0  0  0  0  0  0  0  0  0
   31.0840   30.1750   35.1160 C   0  0  0  0  0  0  0  0  0  0  0  0
   31.1130   30.4910   33.7880 O   0  0  0  0  0  0  0  0  0  0  0  0
   32.1620   29.8630   33.1700 C   0  0  0  0  0  0  0  0  0  0  0  0
   33.1310   28.3550   34.3980 H   0  0  0  0  0  0  0  0  0  0  0  0
   32.6320   29.4170   36.3230 H   0  0  0  0  0  0  0  0  0  0  0  0
   30.5680   29.2380   35.3670 H   0  0  0  0  0  0  0  0  0  0  0  0
   30.6500   31.0270   35.6850 H   0  0  0  0  0  0  0  0  0  0  0  0
   32.6780   30.5080   32.4140 H   0  0  0  0  0  0  0  0  0  0  0  0
   31.8910   28.9420   32.6160 H   0  0  0  0  0  0  0  0  0  0  0  0
   34.3620   31.6030   36.6190 C   0  0  1  0  0  0  0  0  0  0  0  0
   33.0880   31.7660   37.2760 C   0  0  0  0  0  0  0  0  0  0  0  0
   33.1040   31.4800   35.7600 C   0  0  2  0  0  0  0  0  0  0  0  0
   34.9130   30.6280   36.6180 H   0  0  0  0  0  0  0  0  0  0  0  0
   32.6790   31.0210   37.9590 H   0  0  0  0  0  0  0  0  0  0  0  0
   32.7590   32.8070   37.5110 H   0  0  0  0  0  0  0  0  0  0  0  0
   32.8350   32.2780   35.0670 H   0  0  0  0  0  0  0  0  0  0  0  0
   37.1570   33.6170   35.1590 C   0  0  0  0  0  0  0  0  0  0  0  0
   36.3740   32.5280   35.5080 C   0  0  0  0  0  0  0  0  0  0  0  0
   35.2100   32.7430   36.2260 C   0  0  0  0  0  0  0  0  0  0  0  0
   34.8950   34.0390   36.5550 N   0  0  0  0  0  0  0  0  0  0  0  0
   35.6670   35.0970   36.2100 C   0  0  0  0  0  0  0  0  0  0  0  0
   36.8200   34.8860   35.4980 N   0  0  0  0  0  0  0  0  0  0  0  0
   38.0650   33.4360   34.5960 H   0  0  0  0  0  0  0  0  0  0  0  0
   36.6040   31.5070   35.2740 H   0  0  0  0  0  0  0  0  0  0  0  0
   35.3250   36.0760   36.5210 H   0  0  0  0  0  0  0  0  0  0  0  0
   34.4280   29.8660   33.8900 O   0  0  0  0  0  0  0  0  0  0  0  0
   36.0450   28.4940   32.6940 C   0  0  0  0  0  3  0  0  0  0  0  0
   35.5510   29.0510   33.8750 C   0  0  0  0  0  0  0  0  0  0  0  0
   36.3050   28.6900   34.9510 C   0  0  0  0  0  0  0  0  0  0  0  0
   36.0680   29.0300   35.9440 H   0  0  0  0  0  0  0  0  0  0  0  0
   37.4190   27.8810   34.9160 C   0  0  0  0  0  0  0  0  0  0  0  0
   37.8510   27.3680   33.7300 C   0  0  0  0  0  0  0  0  0  0  0  0
   37.1500   27.6810   32.5940 C   0  0  0  0  0  3  0  0  0  0  0  0
   38.9750   26.5890   33.9160 O   0  0  0  0  0  0  0  0  0  0  0  0
   39.0740   26.3320   35.3060 C   0  0  0  0  0  3  0  0  0  0  0  0
   38.5240   25.3980   35.5950 H   0  0  0  0  0  0  0  0  0  0  0  0
   38.3130   27.3960   35.8670 O   0  0  0  0  0  0  0  0  0  0  0  0
  1  6  1  1  0  0  0
  1  2  1  0  0  0  0
  2 14  1  0  0  0  0
  2  7  1  1  0  0  0
  3  8  1  0  0  0  0
  3  2  1  0  0  0  0
  3  9  1  0  0  0  0
  4  3  1  0  0  0  0
  5  4  1  0  0  0  0
  5  1  1  0  0  0  0
 10  5  1  0  0  0  0
 11  5  1  0  0  0  0
 12 15  1  1  0  0  0
 12 13  1  0  0  0  0
 13 17  1  0  0  0  0
 13 16  1  0  0  0  0
 14 18  1  6  0  0  0
 14 12  1  0  0  0  0
 14 13  1  0  0  0  0
 19 24  2  0  0  0  0
 19 20  1  0  0  0  0
 20 21  2  0  0  0  0
 21 22  1  0  0  0  0
 21 12  1  0  0  0  0
 23 27  1  0  0  0  0
 23 22  2  0  0  0  0
 24 23  1  0  0  0  0
 25 19  1  0  0  0  0
 26 20  1  0  0  0  0
 28  1  1  0  0  0  0
 29 30  1  0  0  0  0
 30 28  1  0  0  0  0
 30 31  2  0  0  0  0
 31 32  1  0  0  0  0
 33 31  1  0  0  0  0
 33 39  1  0  0  0  0
 34 36  1  0  0  0  0
 34 33  2  0  0  0  0
 35 29  2  0  0  0  0
 35 34  1  0  0  0  0
 36 37  1  0  0  0  0
 37 38  1  0  0  0  0
 37 39  1  0  0  0  0
M  END
>  <minimizedAffinity>
-5.14336395

$$$$
