
 OpenBabel03272508263D

 40 44  0  0  1  0  0  0  0  0999 V2000
   33.8260   28.9000   47.2440 C   0  0  2  0  0  0  0  0  0  0  0  0
   34.5390   28.1380   48.3500 C   0  0  2  0  0  0  0  0  0  0  0  0
   33.6340   28.0040   49.3560 O   0  0  0  0  0  0  0  0  0  0  0  0
   32.3580   28.0900   48.8700 C   0  0  0  0  0  0  0  0  0  0  0  0
   32.4380   28.2600   47.3670 C   0  0  1  0  0  0  0  0  0  0  0  0
   33.7580   29.9700   47.4530 H   0  0  0  0  0  0  0  0  0  0  0  0
   34.8060   27.1430   47.9420 H   0  0  0  0  0  0  0  0  0  0  0  0
   31.7360   27.1940   49.1280 H   0  0  0  0  0  0  0  0  0  0  0  0
   31.8350   28.9680   49.2860 H   0  0  0  0  0  0  0  0  0  0  0  0
   32.5440   27.2400   46.9200 H   0  0  0  0  0  0  0  0  0  0  0  0
   35.6340   30.3750   49.0440 C   0  0  1  0  0  0  0  0  0  0  0  0
   35.7160   28.9600   48.7640 C   0  0  1  0  0  0  0  0  0  0  0  0
   35.9160   29.3820   50.1830 C   0  0  0  0  0  0  0  0  0  0  0  0
   34.7170   30.9640   49.2910 H   0  0  0  0  0  0  0  0  0  0  0  0
   36.6400   28.6560   48.1850 H   0  0  0  0  0  0  0  0  0  0  0  0
   35.1160   29.1490   50.9010 H   0  0  0  0  0  0  0  0  0  0  0  0
   36.9620   29.3070   50.5690 H   0  0  0  0  0  0  0  0  0  0  0  0
   36.8170   31.2980   48.7970 C   0  0  0  0  0  0  0  0  0  0  0  0
   37.0580   32.2990   49.7380 C   0  0  0  0  0  0  0  0  0  0  0  0
   38.1350   33.1270   49.4450 C   0  0  0  0  0  0  0  0  0  0  0  0
   38.8800   32.9520   48.3150 N   0  0  0  0  0  0  0  0  0  0  0  0
   38.6060   31.9590   47.4250 C   0  0  0  0  0  0  0  0  0  0  0  0
   37.5580   31.1220   47.6720 N   0  0  0  0  0  0  0  0  0  0  0  0
   36.4700   32.4260   50.6140 H   0  0  0  0  0  0  0  0  0  0  0  0
   38.4210   33.9310   50.0880 H   0  0  0  0  0  0  0  0  0  0  0  0
   39.2220   31.8590   46.5440 H   0  0  0  0  0  0  0  0  0  0  0  0
   34.3700   28.6930   45.9910 O   0  0  0  0  0  0  0  0  0  0  0  0
   34.3060   29.4730   45.4040 H   0  0  0  0  0  0  0  0  0  0  0  0
   31.4620   29.0460   46.8230 O   0  0  0  0  0  0  0  0  0  0  0  0
   29.5150   27.4900   46.7470 C   0  0  0  0  0  3  0  0  0  0  0  0
   30.2080   28.6290   46.3930 C   0  0  0  0  0  0  0  0  0  0  0  0
   29.6440   29.5290   45.4890 C   0  0  0  0  0  0  0  0  0  0  0  0
   30.1190   30.4570   45.1490 H   0  0  0  0  0  0  0  0  0  0  0  0
   28.4040   29.3030   44.9420 C   0  0  0  0  0  0  0  0  0  0  0  0
   27.7240   28.1540   45.3110 C   0  0  0  0  0  0  0  0  0  0  0  0
   28.2700   27.2420   46.2130 C   0  0  0  0  0  3  0  0  0  0  0  0
   26.5100   28.1520   44.6330 O   0  0  0  0  0  0  0  0  0  0  0  0
   26.2760   29.4350   44.0750 C   0  0  0  0  0  3  0  0  0  0  0  0
   25.8790   29.3700   43.0190 H   0  0  0  0  0  0  0  0  0  0  0  0
   27.5950   29.9850   44.0430 O   0  0  0  0  0  0  0  0  0  0  0  0
  1  5  1  0  0  0  0
  1  6  1  1  0  0  0
  1  2  1  0  0  0  0
  2  7  1  6  0  0  0
  2 12  1  0  0  0  0
  2  3  1  0  0  0  0
  4  8  1  0  0  0  0
  4  9  1  0  0  0  0
  4  3  1  0  0  0  0
  5 10  1  6  0  0  0
  5  4  1  0  0  0  0
 11 14  1  6  0  0  0
 11 13  1  0  0  0  0
 12 15  1  6  0  0  0
 12 11  1  0  0  0  0
 12 13  1  0  0  0  0
 13 17  1  0  0  0  0
 13 16  1  0  0  0  0
 18 11  1  0  0  0  0
 18 19  1  0  0  0  0
 19 24  1  0  0  0  0
 20 19  2  0  0  0  0
 20 25  1  0  0  0  0
 21 20  1  0  0  0  0
 22 23  1  0  0  0  0
 22 21  2  0  0  0  0
 23 18  2  0  0  0  0
 26 22  1  0  0  0  0
 27  1  1  0  0  0  0
 28 27  1  0  0  0  0
 29  5  1  0  0  0  0
 31 30  1  0  0  0  0
 31 29  1  0  0  0  0
 32 31  2  0  0  0  0
 33 32  1  0  0  0  0
 34 35  2  0  0  0  0
 34 32  1  0  0  0  0
 35 36  1  0  0  0  0
 36 30  2  0  0  0  0
 37 35  1  0  0  0  0
 38 37  1  0  0  0  0
 39 38  1  0  0  0  0
 40 38  1  0  0  0  0
 40 34  1  0  0  0  0
M  END
>  <minimizedAffinity>
-5.51086473

>  <minimizedRMSD>
0.944969535

$$$$
