REMARK  Name = 
REMARK  5 active torsions:
REMARK  status: ('A' for Active; 'I' for Inactive)
REMARK    1  A    between atoms: C_3  and  C_12
REMARK    2  A    between atoms: C_7  and  C_14
REMARK    3  A    between atoms: C_14  and  C_15
REMARK    4  A    between atoms: C_15  and  N_16
REMARK    5  A    between atoms: N_16  and  C_29
REMARK                            x       y       z     vdW  Elec       q    Type
REMARK                         _______ _______ _______ _____ _____    ______ ____
ROOT
ATOM      1 BR   UNL     1      38.057  31.751  48.988  0.00  0.00    +0.000 Br
ATOM      2  C   UNL     1      36.857  31.006  47.703  0.00  0.00    +0.000 A 
ATOM      3  C   UNL     1      37.204  30.949  46.377  0.00  0.00    +0.000 A 
ATOM      4  C   UNL     1      36.309  30.407  45.489  0.00  0.00    +0.000 A 
ATOM      5  C   UNL     1      35.074  29.920  45.889  0.00  0.00    +0.000 A 
ATOM      6  C   UNL     1      34.759  29.995  47.231  0.00  0.00    +0.000 A 
ATOM      7  C   UNL     1      35.652  30.537  48.127  0.00  0.00    +0.000 A 
ATOM      8  H   UNL     1      36.623  30.381  44.454  0.00  0.00    +0.000 HD
ATOM      9  H   UNL     1      34.446  29.517  45.122  0.00  0.00    +0.000 HD
ATOM     10  H   UNL     1      33.777  29.589  47.418  0.00  0.00    +0.000 HD
ENDROOT
BRANCH   3  15
ATOM     11  C   UNL     1      39.727  33.196  44.978  0.00  0.00    +0.000 A 
ATOM     12  C   UNL     1      40.917  32.450  45.019  0.00  0.00    +0.000 A 
ATOM     13  C   UNL     1      40.838  31.167  45.533  0.00  0.00    +0.000 A 
ATOM     14  N   UNL     1      39.631  30.690  45.970  0.00  0.00    +0.000 NA
ATOM     15  C   UNL     1      38.506  31.455  45.909  0.00  0.00    +0.000 A 
ATOM     16  N   UNL     1      38.566  32.709  45.410  0.00  0.00    +0.000 NA
ATOM     17  H   UNL     1      39.680  34.196  44.601  0.00  0.00    +0.000 HD
ATOM     18  H   UNL     1      41.823  32.877  44.664  0.00  0.00    +0.000 HD
ATOM     19  H   UNL     1      41.723  30.577  45.576  0.00  0.00    +0.000 HD
ENDBRANCH   3  15
BRANCH   7  20
ATOM     20  C   UNL     1      35.203  30.560  49.560  0.00  0.00    +0.000 C 
ATOM     21  H   UNL     1      34.733  31.518  49.811  0.00  0.00    +0.000 HD
ATOM     22  H   UNL     1      36.137  30.461  50.145  0.00  0.00    +0.000 HD
BRANCH  20  23
ATOM     23  C   UNL     1      34.304  29.410  49.903  0.00  0.00    +0.000 C 
ATOM     24  H   UNL     1      33.979  29.630  50.977  0.00  0.00    +0.000 HD
ATOM     25  H   UNL     1      33.376  29.328  49.353  0.00  0.00    +0.000 HD
BRANCH  23  26
ATOM     26  N   UNL     1      35.070  28.200  50.011  0.00  0.00    +0.000 N 
ATOM     27  H   UNL     1      34.846  27.544  49.235  0.00  0.00    +0.000 HD
BRANCH  26  29
ATOM     28  C   UNL     1      36.197  28.392  52.211  0.00  0.00    +0.000 A 
ATOM     29  C   UNL     1      36.026  27.814  50.974  0.00  0.00    +0.000 A 
ATOM     30  C   UNL     1      36.891  26.785  50.695  0.00  0.00    +0.000 A 
ATOM     31  H   UNL     1      36.820  26.278  49.741  0.00  0.00    +0.000 HD
ATOM     32  C   UNL     1      37.852  26.370  51.590  0.00  0.00    +0.000 A 
ATOM     33  C   UNL     1      37.990  26.974  52.817  0.00  0.00    +0.000 A 
ATOM     34  C   UNL     1      37.141  28.012  53.135  0.00  0.00    +0.000 A 
ATOM     35  O   UNL     1      39.032  26.346  53.490  0.00  0.00    +0.000 OA
ATOM     36  C   UNL     1      39.803  25.624  52.531  0.00  0.00    +0.000 C 
ATOM     37  H   UNL     1      40.185  24.665  52.939  0.00  0.00    +0.000 HD
ATOM     38  O   UNL     1      38.817  25.370  51.525  0.00  0.00    +0.000 OA
ENDBRANCH  26  29
ENDBRANCH  23  26
ENDBRANCH  20  23
ENDBRANCH   7  20
TORSDOF 5
