
 OpenBabel03272500583D

 38 41  0  0  1  0  0  0  0  0999 V2000
   38.0110   31.8390   47.4290 C   0  0  0  0  0  0  0  0  0  0  0  0
   38.4950   32.7060   48.3630 C   0  0  0  0  0  0  0  0  0  0  0  0
   37.9940   32.7630   49.6680 C   0  0  0  0  0  0  0  0  0  0  0  0
   36.9200   31.8520   50.0080 C   0  0  0  0  0  0  0  0  0  0  0  0
   36.4840   31.0140   49.0340 C   0  0  0  0  0  0  0  0  0  0  0  0
   36.9730   30.9700   47.7810 C   0  0  0  0  0  0  0  0  0  0  0  0
   39.3130   33.4110   48.1350 H   0  0  0  0  0  0  0  0  0  0  0  0
   38.4310   33.4840   50.3640 H   0  0  0  0  0  0  0  0  0  0  0  0
   36.6430   32.0070   51.0240 H   0  0  0  0  0  0  0  0  0  0  0  0
   35.7190   30.4220   49.5100 H   0  0  0  0  0  0  0  0  0  0  0  0
   39.8990   31.2180   45.9960 C   0  0  0  0  0  0  0  0  0  0  0  0
   38.6490   31.8820   46.1340 C   0  0  0  0  0  0  0  0  0  0  0  0
   38.1990   32.4860   44.9870 C   0  0  0  0  0  0  0  0  0  0  0  0
   38.9120   32.4290   43.8510 N   0  0  0  0  0  0  0  0  0  0  0  0
   40.0650   31.8100   43.7420 C   0  0  0  0  0  0  0  0  0  0  0  0
   40.5510   31.2080   44.8150 N   0  0  0  0  0  0  0  0  0  0  0  0
   40.3420   30.7060   46.8540 H   0  0  0  0  0  0  0  0  0  0  0  0
   37.2550   32.9890   45.0900 H   0  0  0  0  0  0  0  0  0  0  0  0
   40.5910   31.7990   42.7970 H   0  0  0  0  0  0  0  0  0  0  0  0
   35.0170   30.0100   46.8970 C   0  0  0  0  0  0  0  0  0  0  0  0
   34.3890   30.6760   47.8110 O   0  0  0  0  0  0  0  0  0  0  0  0
   36.4610   30.1110   46.8410 N   0  0  0  0  0  0  0  0  0  0  0  0
   37.0280   29.5880   46.1670 H   0  0  0  0  0  0  0  0  0  0  0  0
   34.2960   29.2380   46.0240 O   0  0  0  0  0  0  0  0  0  0  0  0
   33.5200   29.7270   44.9820 C   0  0  0  0  0  0  0  0  0  0  0  0
   33.9380   30.7080   44.2090 O   0  0  0  0  0  0  0  0  0  0  0  0
   31.0260   32.8710   43.8420 C   0  0  0  0  0  0  0  0  0  0  0  0
   29.9750   31.9150   44.3620 C   0  0  0  0  0  2  0  0  0  0  0  0
   30.6510   30.7230   44.8210 N   0  0  0  0  0  0  0  0  0  0  0  0
   31.1640   29.6310   45.5750 C   0  0  0  0  0  0  0  0  0  0  0  0
   30.9190   29.1150   46.6840 O   0  0  0  0  0  0  0  0  0  0  0  0
   32.1770   29.2520   44.5550 C   0  0  1  0  0  3  0  0  0  0  0  0
   31.3970   30.1630   43.6870 C   0  0  2  0  0  3  0  0  0  0  0  0
   32.2200   31.6770   43.1160 S   0  0  0  0  0  0  0  0  0  0  0  0
   31.6610   33.7160   44.8880 C   0  0  0  0  0  2  0  0  0  0  0  0
   32.7740   33.5460   44.8300 H   0  0  0  0  0  0  0  0  0  0  0  0
   30.3900   33.6550   42.7150 C   0  0  0  0  0  2  0  0  0  0  0  0
   29.6490   34.3480   43.1430 H   0  0  0  0  0  0  0  0  0  0  0  0
  1  6  2  0  0  0  0
  1  2  1  0  0  0  0
  2  3  2  0  0  0  0
  3  4  1  0  0  0  0
  3  8  1  0  0  0  0
  4  9  1  0  0  0  0
  5 10  1  0  0  0  0
  5  4  2  0  0  0  0
  6  5  1  0  0  0  0
  7  2  1  0  0  0  0
 11 12  1  0  0  0  0
 11 17  1  0  0  0  0
 12  1  1  0  0  0  0
 13 18  1  0  0  0  0
 13 12  2  0  0  0  0
 14 13  1  0  0  0  0
 15 14  2  0  0  0  0
 15 16  1  0  0  0  0
 16 11  2  0  0  0  0
 19 15  1  0  0  0  0
 20 21  2  0  0  0  0
 22 20  1  0  0  0  0
 22  6  1  0  0  0  0
 23 22  1  0  0  0  0
 24 20  1  0  0  0  0
 25 24  1  0  0  0  0
 26 25  2  0  0  0  0
 27 28  1  0  0  0  0
 27 35  1  0  0  0  0
 28 29  1  0  0  0  0
 29 30  1  0  0  0  0
 30 31  2  0  0  0  0
 32 25  1  1  0  0  0
 32 30  1  0  0  0  0
 33 34  1  1  0  0  0
 33 32  1  0  0  0  0
 33 29  1  0  0  0  0
 34 27  1  0  0  0  0
 36 35  1  0  0  0  0
 37 38  1  0  0  0  0
 37 27  1  0  0  0  0
M  END
>  <minimizedAffinity>
-5.91842604

>  <minimizedRMSD>
0.595672905

$$$$
