
 OpenBabel03272506093D

 47 51  0  0  1  0  0  0  0  0999 V2000
   34.2510   28.2920   49.3110 C   0  0  0  0  0  0  0  0  0  0  0  0
   34.2440   27.4410   50.0510 H   0  0  0  0  0  0  0  0  0  0  0  0
   35.1170   28.0680   48.6520 H   0  0  0  0  0  0  0  0  0  0  0  0
   32.9740   28.2430   48.5130 C   0  0  0  0  0  0  0  0  0  0  0  0
   32.9820   28.6710   47.1410 C   0  0  0  0  0  0  0  0  0  0  0  0
   31.2880   28.4180   46.6890 S   0  0  0  0  0  0  0  0  0  0  0  0
   30.7780   27.7750   48.3830 C   0  0  0  0  0  0  0  0  0  0  0  0
   31.8190   27.8390   48.9550 N   0  0  0  0  0  0  0  0  0  0  0  0
   29.4940   27.3210   48.8870 N   0  0  0  0  0  0  0  0  0  0  0  0
   28.6220   26.7030   47.9430 C   0  0  0  0  0  0  0  0  0  0  0  0
   27.1830   26.6750   48.3660 C   0  0  0  0  0  0  0  0  0  0  0  0
   26.9230   27.3740   49.6100 N   0  0  0  0  0  0  0  0  0  0  0  0
   27.8730   26.8680   50.5840 C   0  0  0  0  0  0  0  0  0  0  0  0
   29.1910   27.5250   50.2910 C   0  0  0  0  0  0  0  0  0  0  0  0
   33.8100   29.0310   46.5970 H   0  0  0  0  0  0  0  0  0  0  0  0
   28.7660   27.1640   46.9260 H   0  0  0  0  0  0  0  0  0  0  0  0
   28.9560   25.6520   47.8100 H   0  0  0  0  0  0  0  0  0  0  0  0
   26.5060   27.1290   47.5970 H   0  0  0  0  0  0  0  0  0  0  0  0
   26.7960   25.6410   48.4860 H   0  0  0  0  0  0  0  0  0  0  0  0
   25.9630   27.0780   49.9150 H   0  0  0  0  0  0  0  0  0  0  0  0
   27.9810   25.7680   50.4920 H   0  0  0  0  0  0  0  0  0  0  0  0
   27.5260   27.1800   51.6000 H   0  0  0  0  0  0  0  0  0  0  0  0
   30.0370   27.0950   50.8920 H   0  0  0  0  0  0  0  0  0  0  0  0
   29.1110   28.6210   50.5220 H   0  0  0  0  0  0  0  0  0  0  0  0
   34.4360   29.5960   49.9850 C   0  0  0  0  0  0  0  0  0  0  0  0
   34.6640   29.3970   51.0720 H   0  0  0  0  0  0  0  0  0  0  0  0
   33.5860   30.3030   49.9010 H   0  0  0  0  0  0  0  0  0  0  0  0
   37.4240   31.7820   49.7380 C   0  0  0  0  0  0  0  0  0  0  0  0
   38.0010   31.3760   48.5350 C   0  0  0  0  0  0  0  0  0  0  0  0
   37.3640   30.3510   47.8080 C   0  0  0  0  0  0  0  0  0  0  0  0
   36.2270   29.8270   48.3310 N   0  0  0  0  0  0  0  0  0  0  0  0
   35.7110   30.2560   49.5010 C   0  0  0  0  0  0  0  0  0  0  0  0
   36.2990   31.2190   50.1950 N   0  0  0  0  0  0  0  0  0  0  0  0
   37.9320   32.5710   50.2800 H   0  0  0  0  0  0  0  0  0  0  0  0
   38.9040   31.7780   48.1010 H   0  0  0  0  0  0  0  0  0  0  0  0
   37.8230   29.8000   46.5340 C   0  0  0  0  0  2  0  0  0  0  0  0
   37.6380   30.6720   45.3380 C   0  0  1  0  0  0  0  0  0  0  0  0
   37.5550   32.1370   45.6330 C   0  0  0  0  0  2  0  0  0  0  0  0
   38.8690   32.7060   45.5020 N   0  0  0  0  0  0  0  0  0  0  0  0
   40.1180   33.3750   45.7110 C   0  0  0  0  0  0  0  0  0  0  0  0
   40.4430   34.1350   46.6680 O   0  0  0  0  0  0  0  0  0  0  0  0
   40.7320   32.8310   44.4730 C   0  0  0  0  0  3  0  0  0  0  0  0
   41.0220   33.7160   43.8350 H   0  0  0  0  0  0  0  0  0  0  0  0
   39.3490   32.4020   44.1450 C   0  0  1  0  0  3  0  0  0  0  0  0
   39.0460   30.5900   44.1910 S   0  0  0  0  0  0  0  0  0  0  0  0
   36.4080   30.2350   44.5720 C   0  0  0  0  0  2  0  0  0  0  0  0
   35.9490   31.1350   44.1130 H   0  0  0  0  0  0  0  0  0  0  0  0
  1 25  1  0  0  0  0
  1  2  1  0  0  0  0
  3  1  1  0  0  0  0
  4  8  1  0  0  0  0
  4  1  1  0  0  0  0
  5  4  2  0  0  0  0
  6  5  1  0  0  0  0
  6  7  1  0  0  0  0
  7  9  1  0  0  0  0
  7  8  2  0  0  0  0
  9 14  1  0  0  0  0
 10 11  1  0  0  0  0
 10  9  1  0  0  0  0
 11 19  1  0  0  0  0
 11 12  1  0  0  0  0
 12 20  1  0  0  0  0
 12 13  1  0  0  0  0
 13 22  1  0  0  0  0
 14 24  1  0  0  0  0
 14 13  1  0  0  0  0
 14 23  1  0  0  0  0
 15  5  1  0  0  0  0
 16 10  1  0  0  0  0
 17 10  1  0  0  0  0
 18 11  1  0  0  0  0
 21 13  1  0  0  0  0
 25 26  1  0  0  0  0
 27 25  1  0  0  0  0
 28 33  1  0  0  0  0
 28 34  1  0  0  0  0
 29 28  2  0  0  0  0
 30 31  2  0  0  0  0
 30 29  1  0  0  0  0
 31 32  1  0  0  0  0
 32 25  1  0  0  0  0
 32 33  2  0  0  0  0
 35 29  1  0  0  0  0
 36 30  1  0  0  0  0
 37 46  1  6  0  0  0
 37 38  1  0  0  0  0
 37 36  1  0  0  0  0
 39 38  1  0  0  0  0
 39 40  1  0  0  0  0
 40 41  2  0  0  0  0
 42 40  1  0  0  0  0
 43 42  1  0  0  0  0
 44 45  1  1  0  0  0
 44 42  1  0  0  0  0
 44 39  1  0  0  0  0
 45 37  1  0  0  0  0
 47 46  1  0  0  0  0
M  END
>  <minimizedAffinity>
-6.11316442

>  <minimizedRMSD>
1.77258193

$$$$
