
 OpenBabel03272500223D

 40 44  0  0  1  0  0  0  0  0999 V2000
   35.4310   29.3000   50.4270 C   0  0  0  0  0  0  0  0  0  0  0  0
   36.3650   30.1550   49.7720 C   0  0  0  0  0  0  0  0  0  0  0  0
   36.3400   30.2480   48.3780 C   0  0  0  0  0  0  0  0  0  0  0  0
   35.3970   29.4920   47.7370 N   0  0  0  0  0  0  0  0  0  0  0  0
   34.5430   28.7090   48.3390 C   0  0  0  0  0  0  0  0  0  0  0  0
   34.5430   28.5980   49.6800 N   0  0  0  0  0  0  0  0  0  0  0  0
   35.4370   29.2160   51.5060 H   0  0  0  0  0  0  0  0  0  0  0  0
   32.8360   30.3340   46.4320 Cl  0  0  0  0  0  0  0  0  0  0  0  0
   32.7400   28.5830   46.6220 C   0  0  0  0  0  0  0  0  0  0  0  0
   33.5750   27.9440   47.5290 C   0  0  0  0  0  0  0  0  0  0  0  0
   33.5430   26.5550   47.7220 C   0  0  0  0  0  0  0  0  0  0  0  0
   32.6190   25.8600   46.9440 C   0  0  0  0  0  0  0  0  0  0  0  0
   31.7850   26.4690   46.0430 C   0  0  0  0  0  0  0  0  0  0  0  0
   30.6750   25.4710   45.1350 Cl  0  0  0  0  0  0  0  0  0  0  0  0
   31.8510   27.8470   45.8840 C   0  0  0  0  0  0  0  0  0  0  0  0
   34.1970   26.0620   48.4300 H   0  0  0  0  0  0  0  0  0  0  0  0
   32.5830   24.7880   47.0820 H   0  0  0  0  0  0  0  0  0  0  0  0
   30.9590   28.5260   44.9170 C   0  0  0  0  0  0  0  0  0  0  0  0
   30.0900   27.5910   44.3300 F   0  0  0  0  0  0  0  0  0  0  0  0
   31.6510   29.1840   43.9520 F   0  0  0  0  0  0  0  0  0  0  0  0
   30.1650   29.4330   45.5760 F   0  0  0  0  0  0  0  0  0  0  0  0
   37.3350   30.9180   50.6210 C   0  0  0  0  0  0  0  0  0  0  0  0
   38.6290   30.8070   50.1250 F   0  0  0  0  0  0  0  0  0  0  0  0
   36.9860   32.2540   50.5550 F   0  0  0  0  0  0  0  0  0  0  0  0
   37.3050   30.5430   51.9410 F   0  0  0  0  0  0  0  0  0  0  0  0
   37.2860   31.1250   47.6970 C   0  0  0  0  0  0  0  0  0  0  0  0
   36.7810   32.1050   47.5310 H   0  0  0  0  0  0  0  0  0  0  0  0
   38.2560   31.2480   48.2250 H   0  0  0  0  0  0  0  0  0  0  0  0
   37.2440   30.9290   42.6110 C   0  0  0  0  0  0  0  0  0  0  0  0
   38.5140   30.5520   43.2510 C   0  0  0  0  0  2  0  0  0  0  0  0
   38.5360   30.8410   44.6250 N   0  0  2  0  0  0  0  0  0  0  0  0
   39.0190   30.9850   45.9510 C   0  0  2  0  0  0  0  0  0  0  0  0
   40.1550   31.3700   46.3890 O   0  0  0  0  0  1  0  0  0  0  0  0
   37.6460   30.5040   46.3670 C   0  0  2  0  0  3  0  0  0  0  0  0
   37.2850   31.3230   45.1930 C   0  0  2  0  0  0  0  0  0  0  0  0
   36.0810   30.6620   44.0160 S   0  0  0  0  0  0  0  0  0  0  0  0
   36.8620   30.0520   41.4460 C   0  0  0  0  0  2  0  0  0  0  0  0
   37.0640   29.0100   41.7480 H   0  0  0  0  0  0  0  0  0  0  0  0
   37.2710   32.4030   42.2740 C   0  0  0  0  0  2  0  0  0  0  0  0
   37.1570   32.9440   43.2570 H   0  0  0  0  0  0  0  0  0  0  0  0
  1  7  1  0  0  0  0
  2  1  1  0  0  0  0
  2 22  1  0  0  0  0
  3  2  2  0  0  0  0
  4  5  2  0  0  0  0
  4  3  1  0  0  0  0
  5  6  1  0  0  0  0
  6  1  2  0  0  0  0
  8  9  1  0  0  0  0
  9 10  1  0  0  0  0
 10 11  2  0  0  0  0
 10  5  1  0  0  0  0
 11 16  1  0  0  0  0
 12 17  1  0  0  0  0
 12 11  1  0  0  0  0
 13 12  2  0  0  0  0
 14 13  1  0  0  0  0
 15 13  1  0  0  0  0
 15  9  2  0  0  0  0
 18 21  1  0  0  0  0
 18 15  1  0  0  0  0
 19 18  1  0  0  0  0
 20 18  1  0  0  0  0
 22 25  1  0  0  0  0
 23 22  1  0  0  0  0
 24 22  1  0  0  0  0
 26 28  1  0  0  0  0
 26  3  1  0  0  0  0
 27 26  1  0  0  0  0
 29 30  1  0  0  0  0
 29 36  1  0  0  0  0
 31 30  1  1  0  0  0
 31 35  1  0  0  0  0
 31 32  1  0  0  0  0
 32 34  1  0  0  0  0
 32 33  1  1  0  0  0
 34 26  1  1  0  0  0
 35 36  1  6  0  0  0
 35 32  1  0  0  0  0
 35 34  1  0  0  0  0
 37 38  1  0  0  0  0
 37 29  1  0  0  0  0
 39 29  1  0  0  0  0
 39 40  1  0  0  0  0
M  END
>  <minimizedAffinity>
-6.65505934

>  <minimizedRMSD>
1.34222901

$$$$
