
 OpenBabel03272507133D

 43 48  0  0  1  0  0  0  0  0999 V2000
   37.3130   29.6780   50.0090 C   0  0  0  0  0  0  0  0  0  0  0  0
   38.0010   29.0100   50.8250 O   0  0  0  0  0  0  0  0  0  0  0  0
   37.8070   30.8290   49.3000 C   0  0  0  0  0  0  0  0  0  0  0  0
   37.4390   32.0780   49.7720 C   0  0  0  0  0  0  0  0  0  0  0  0
   37.8940   33.2190   49.1180 C   0  0  0  0  0  0  0  0  0  0  0  0
   38.6930   33.0220   48.0270 N   0  0  0  0  0  0  0  0  0  0  0  0
   39.0410   31.8140   47.5810 C   0  0  0  0  0  0  0  0  0  0  0  0
   38.5910   30.7270   48.2280 N   0  0  0  0  0  0  0  0  0  0  0  0
   36.8010   32.1920   50.6440 H   0  0  0  0  0  0  0  0  0  0  0  0
   37.6490   34.2250   49.4260 H   0  0  0  0  0  0  0  0  0  0  0  0
   39.9070   31.6340   46.3980 C   0  0  0  0  0  2  0  0  0  0  0  0
   39.0220   31.4060   45.1930 C   0  0  2  0  0  0  0  0  0  0  0  0
   38.9020   29.9320   44.9660 C   0  0  0  0  0  2  0  0  0  0  0  0
   38.7750   29.7190   43.5390 N   0  0  0  0  0  0  0  0  0  0  0  0
   38.2940   29.2950   42.2460 C   0  0  0  0  0  0  0  0  0  0  0  0
   37.5360   28.3500   41.8520 O   0  0  0  0  0  0  0  0  0  0  0  0
   39.0420   30.4050   41.5630 C   0  0  0  0  0  3  0  0  0  0  0  0
   38.4670   31.3460   41.4320 H   0  0  0  0  0  0  0  0  0  0  0  0
   39.8680   30.3490   42.8210 C   0  0  1  0  0  3  0  0  0  0  0  0
   39.9590   31.9220   43.7260 S   0  0  0  0  0  0  0  0  0  0  0  0
   37.7190   32.1180   45.3160 C   0  0  0  0  0  2  0  0  0  0  0  0
   37.0600   31.8970   44.4760 H   0  0  0  0  0  0  0  0  0  0  0  0
   35.9370   29.2750   49.7580 C   0  0  0  0  0  0  0  0  0  0  0  0
   34.8960   29.7790   50.4560 C   0  0  0  0  0  0  0  0  0  0  0  0
   33.7400   29.1770   49.9570 C   0  0  0  0  0  0  0  0  0  0  0  0
   34.1720   28.3100   48.9460 C   0  0  0  0  0  0  0  0  0  0  0  0
   35.4660   28.4180   48.8850 O   0  0  0  0  0  0  0  0  0  0  0  0
   34.9160   30.5120   51.2570 H   0  0  0  0  0  0  0  0  0  0  0  0
   32.7610   29.4030   50.3420 H   0  0  0  0  0  0  0  0  0  0  0  0
   33.6700   26.5430   47.2710 C   0  0  0  0  0  0  0  0  0  0  0  0
   33.2340   27.4960   48.1840 C   0  0  0  0  0  0  0  0  0  0  0  0
   31.8890   27.7050   48.4050 C   0  0  0  0  0  0  0  0  0  0  0  0
   30.9930   26.9410   47.6920 C   0  0  0  0  0  0  0  0  0  0  0  0
   29.6450   26.9410   47.7130 N   0  0  0  0  0  0  0  0  0  0  0  0
   29.2270   26.0210   46.8450 N   0  0  0  0  0  0  0  0  0  0  0  0
   30.3150   25.4460   46.2800 C   0  0  0  0  0  0  0  0  0  0  0  0
   31.4600   26.0040   46.7920 C   0  0  0  0  0  0  0  0  0  0  0  0
   32.8000   25.7830   46.5610 C   0  0  0  0  0  0  0  0  0  0  0  0
   34.7470   26.4030   47.1210 H   0  0  0  0  0  0  0  0  0  0  0  0
   31.4830   28.4400   49.1100 H   0  0  0  0  0  0  0  0  0  0  0  0
   28.9740   27.5170   48.2730 H   0  0  0  0  0  0  0  0  0  0  0  0
   30.2530   24.6630   45.5370 H   0  0  0  0  0  0  0  0  0  0  0  0
   33.1100   25.0420   45.8500 H   0  0  0  0  0  0  0  0  0  0  0  0
  1  2  2  0  0  0  0
  3  4  1  0  0  0  0
  3  1  1  0  0  0  0
  4  9  1  0  0  0  0
  5 10  1  0  0  0  0
  5  4  2  0  0  0  0
  6  5  1  0  0  0  0
  7  6  2  0  0  0  0
  7  8  1  0  0  0  0
  8  3  2  0  0  0  0
 11  7  1  0  0  0  0
 12 21  1  1  0  0  0
 12 11  1  0  0  0  0
 13 12  1  0  0  0  0
 14 13  1  0  0  0  0
 15 14  1  0  0  0  0
 16 15  2  0  0  0  0
 17 15  1  0  0  0  0
 18 17  1  0  0  0  0
 19 17  1  6  0  0  0
 19 14  1  0  0  0  0
 19 20  1  0  0  0  0
 20 12  1  0  0  0  0
 22 21  1  0  0  0  0
 23  1  1  0  0  0  0
 23 24  2  0  0  0  0
 24 28  1  0  0  0  0
 25 29  1  0  0  0  0
 25 24  1  0  0  0  0
 26 25  2  0  0  0  0
 27 26  1  0  0  0  0
 27 23  1  0  0  0  0
 30 31  1  0  0  0  0
 31 32  2  0  0  0  0
 31 26  1  0  0  0  0
 32 40  1  0  0  0  0
 33 34  1  0  0  0  0
 33 32  1  0  0  0  0
 34 41  1  0  0  0  0
 35 34  1  0  0  0  0
 36 37  1  0  0  0  0
 36 35  2  0  0  0  0
 37 33  2  0  0  0  0
 38 37  1  0  0  0  0
 38 30  2  0  0  0  0
 39 30  1  0  0  0  0
 42 36  1  0  0  0  0
 43 38  1  0  0  0  0
M  END
>  <minimizedAffinity>
-6.76375961

>  <minimizedRMSD>
1.68943751

$$$$
