
 OpenBabel03272500223D

 40 44  0  0  1  0  0  0  0  0999 V2000
   35.3220   29.4150   50.3420 C   0  0  0  0  0  0  0  0  0  0  0  0
   36.3190   30.2140   49.7110 C   0  0  0  0  0  0  0  0  0  0  0  0
   36.3300   30.3100   48.3170 C   0  0  0  0  0  0  0  0  0  0  0  0
   35.3580   29.6130   47.6530 N   0  0  0  0  0  0  0  0  0  0  0  0
   34.4470   28.8810   48.2340 C   0  0  0  0  0  0  0  0  0  0  0  0
   34.4100   28.7690   49.5750 N   0  0  0  0  0  0  0  0  0  0  0  0
   35.2990   29.3300   51.4210 H   0  0  0  0  0  0  0  0  0  0  0  0
   32.8140   30.6200   46.3630 Cl  0  0  0  0  0  0  0  0  0  0  0  0
   32.6480   28.8700   46.5080 C   0  0  0  0  0  0  0  0  0  0  0  0
   33.4530   28.1760   47.4010 C   0  0  0  0  0  0  0  0  0  0  0  0
   33.3650   26.7850   47.5580 C   0  0  0  0  0  0  0  0  0  0  0  0
   32.4170   26.1480   46.7590 C   0  0  0  0  0  0  0  0  0  0  0  0
   31.6130   26.8120   45.8720 C   0  0  0  0  0  0  0  0  0  0  0  0
   30.4680   25.8820   44.9340 Cl  0  0  0  0  0  0  0  0  0  0  0  0
   31.7340   28.1900   45.7480 C   0  0  0  0  0  0  0  0  0  0  0  0
   33.9960   26.2480   48.2560 H   0  0  0  0  0  0  0  0  0  0  0  0
   32.3390   25.0740   46.8690 H   0  0  0  0  0  0  0  0  0  0  0  0
   30.8740   28.9280   44.7950 C   0  0  0  0  0  0  0  0  0  0  0  0
   29.9420   28.0520   44.2160 F   0  0  0  0  0  0  0  0  0  0  0  0
   31.5940   29.5470   43.8250 F   0  0  0  0  0  0  0  0  0  0  0  0
   30.1460   29.8790   45.4680 F   0  0  0  0  0  0  0  0  0  0  0  0
   37.3140   30.9170   50.5820 C   0  0  0  0  0  0  0  0  0  0  0  0
   38.6080   30.7470   50.1030 F   0  0  0  0  0  0  0  0  0  0  0  0
   37.0340   32.2700   50.5280 F   0  0  0  0  0  0  0  0  0  0  0  0
   37.2460   30.5280   51.8960 F   0  0  0  0  0  0  0  0  0  0  0  0
   37.3410   31.1300   47.6590 C   0  0  0  0  0  0  0  0  0  0  0  0
   36.9050   32.1440   47.4970 H   0  0  0  0  0  0  0  0  0  0  0  0
   38.3100   31.1830   48.2010 H   0  0  0  0  0  0  0  0  0  0  0  0
   37.3060   30.9640   42.5710 C   0  0  0  0  0  0  0  0  0  0  0  0
   38.5570   30.5310   43.2120 C   0  0  0  0  0  2  0  0  0  0  0  0
   38.5880   30.8120   44.5880 N   0  0  2  0  0  0  0  0  0  0  0  0
   39.0720   30.9280   45.9170 C   0  0  2  0  0  0  0  0  0  0  0  0
   40.2210   31.2630   46.3590 O   0  0  0  0  0  1  0  0  0  0  0  0
   37.6790   30.5020   46.3260 C   0  0  2  0  0  3  0  0  0  0  0  0
   37.3560   31.3430   45.1550 C   0  0  2  0  0  0  0  0  0  0  0  0
   36.1290   30.7380   43.9720 S   0  0  0  0  0  0  0  0  0  0  0  0
   36.8910   30.1100   41.4000 C   0  0  0  0  0  2  0  0  0  0  0  0
   37.0490   29.0580   41.6980 H   0  0  0  0  0  0  0  0  0  0  0  0
   37.3960   32.4380   42.2430 C   0  0  0  0  0  2  0  0  0  0  0  0
   37.3020   32.9770   43.2280 H   0  0  0  0  0  0  0  0  0  0  0  0
  1  7  1  0  0  0  0
  2  1  1  0  0  0  0
  2 22  1  0  0  0  0
  3  2  2  0  0  0  0
  4  5  2  0  0  0  0
  4  3  1  0  0  0  0
  5  6  1  0  0  0  0
  6  1  2  0  0  0  0
  8  9  1  0  0  0  0
  9 10  1  0  0  0  0
 10 11  2  0  0  0  0
 10  5  1  0  0  0  0
 11 16  1  0  0  0  0
 12 17  1  0  0  0  0
 12 11  1  0  0  0  0
 13 12  2  0  0  0  0
 14 13  1  0  0  0  0
 15 13  1  0  0  0  0
 15  9  2  0  0  0  0
 18 21  1  0  0  0  0
 18 15  1  0  0  0  0
 19 18  1  0  0  0  0
 20 18  1  0  0  0  0
 22 25  1  0  0  0  0
 23 22  1  0  0  0  0
 24 22  1  0  0  0  0
 26 28  1  0  0  0  0
 26  3  1  0  0  0  0
 27 26  1  0  0  0  0
 29 30  1  0  0  0  0
 29 36  1  0  0  0  0
 31 30  1  1  0  0  0
 31 35  1  0  0  0  0
 31 32  1  0  0  0  0
 32 34  1  0  0  0  0
 32 33  1  1  0  0  0
 34 26  1  1  0  0  0
 35 36  1  6  0  0  0
 35 32  1  0  0  0  0
 35 34  1  0  0  0  0
 37 38  1  0  0  0  0
 37 29  1  0  0  0  0
 39 29  1  0  0  0  0
 39 40  1  0  0  0  0
M  END
>  <minimizedAffinity>
-6.61208916

>  <minimizedRMSD>
1.09414351

$$$$
