
 OpenBabel03272507123D

 43 48  0  0  1  0  0  0  0  0999 V2000
   37.0510   29.7890   50.2750 C   0  0  0  0  0  0  0  0  0  0  0  0
   37.6160   29.3150   51.2970 O   0  0  0  0  0  0  0  0  0  0  0  0
   37.6480   30.7800   49.4190 C   0  0  0  0  0  0  0  0  0  0  0  0
   37.6120   32.0980   49.8450 C   0  0  0  0  0  0  0  0  0  0  0  0
   38.1780   33.0910   49.0500 C   0  0  0  0  0  0  0  0  0  0  0  0
   38.7430   32.6850   47.8740 N   0  0  0  0  0  0  0  0  0  0  0  0
   38.7720   31.4120   47.4740 C   0  0  0  0  0  0  0  0  0  0  0  0
   38.2210   30.4710   48.2570 N   0  0  0  0  0  0  0  0  0  0  0  0
   37.1520   32.3800   50.7880 H   0  0  0  0  0  0  0  0  0  0  0  0
   38.1880   34.1380   49.3140 H   0  0  0  0  0  0  0  0  0  0  0  0
   39.3910   31.0050   46.1970 C   0  0  0  0  0  2  0  0  0  0  0  0
   38.4270   31.3310   45.0770 C   0  0  2  0  0  0  0  0  0  0  0  0
   37.0420   30.9950   45.5330 C   0  0  0  0  0  2  0  0  0  0  0  0
   36.2940   30.5630   44.3720 N   0  0  0  0  0  0  0  0  0  0  0  0
   35.2820   30.4440   43.3500 C   0  0  0  0  0  0  0  0  0  0  0  0
   34.0500   30.7590   43.2850 O   0  0  0  0  0  0  0  0  0  0  0  0
   36.2600   29.8050   42.4030 C   0  0  0  0  0  3  0  0  0  0  0  0
   36.7990   30.5110   41.7400 H   0  0  0  0  0  0  0  0  0  0  0  0
   36.9780   29.4810   43.6860 C   0  0  1  0  0  3  0  0  0  0  0  0
   38.6840   30.1020   43.7650 S   0  0  0  0  0  0  0  0  0  0  0  0
   38.5940   32.7290   44.5880 C   0  0  0  0  0  2  0  0  0  0  0  0
   37.8530   32.9780   43.8290 H   0  0  0  0  0  0  0  0  0  0  0  0
   35.7190   29.3160   49.9280 C   0  0  0  0  0  0  0  0  0  0  0  0
   34.6020   29.8090   50.5070 C   0  0  0  0  0  0  0  0  0  0  0  0
   33.5180   29.1350   49.9410 C   0  0  0  0  0  0  0  0  0  0  0  0
   34.0710   28.2400   49.0180 C   0  0  0  0  0  0  0  0  0  0  0  0
   35.3590   28.4000   49.0630 O   0  0  0  0  0  0  0  0  0  0  0  0
   34.5240   30.5800   51.2680 H   0  0  0  0  0  0  0  0  0  0  0  0
   32.5010   29.3380   50.2280 H   0  0  0  0  0  0  0  0  0  0  0  0
   33.7790   26.3100   47.4790 C   0  0  0  0  0  0  0  0  0  0  0  0
   33.2350   27.3510   48.2210 C   0  0  0  0  0  0  0  0  0  0  0  0
   31.8750   27.5810   48.2310 C   0  0  0  0  0  0  0  0  0  0  0  0
   31.0760   26.7470   47.4830 C   0  0  0  0  0  0  0  0  0  0  0  0
   29.7380   26.7490   47.3180 N   0  0  0  0  0  0  0  0  0  0  0  0
   29.4300   25.7440   46.4990 N   0  0  0  0  0  0  0  0  0  0  0  0
   30.5780   25.1150   46.1510 C   0  0  0  0  0  0  0  0  0  0  0  0
   31.6490   25.7230   46.7570 C   0  0  0  0  0  0  0  0  0  0  0  0
   33.0040   25.4800   46.7360 C   0  0  0  0  0  0  0  0  0  0  0  0
   34.8640   26.1550   47.4940 H   0  0  0  0  0  0  0  0  0  0  0  0
   31.3860   28.3850   48.7940 H   0  0  0  0  0  0  0  0  0  0  0  0
   29.0040   27.3790   47.7180 H   0  0  0  0  0  0  0  0  0  0  0  0
   30.6070   24.2590   45.4900 H   0  0  0  0  0  0  0  0  0  0  0  0
   33.3990   24.6690   46.1550 H   0  0  0  0  0  0  0  0  0  0  0  0
  1  2  2  0  0  0  0
  3  4  1  0  0  0  0
  3  1  1  0  0  0  0
  4  9  1  0  0  0  0
  5 10  1  0  0  0  0
  5  4  2  0  0  0  0
  6  5  1  0  0  0  0
  7  6  2  0  0  0  0
  7  8  1  0  0  0  0
  8  3  2  0  0  0  0
 11  7  1  0  0  0  0
 12 21  1  6  0  0  0
 12 13  1  0  0  0  0
 12 11  1  0  0  0  0
 14 13  1  0  0  0  0
 15 14  1  0  0  0  0
 16 15  2  0  0  0  0
 17 15  1  0  0  0  0
 18 17  1  0  0  0  0
 19 17  1  6  0  0  0
 19 20  1  0  0  0  0
 19 14  1  0  0  0  0
 20 12  1  0  0  0  0
 22 21  1  0  0  0  0
 23  1  1  0  0  0  0
 23 24  2  0  0  0  0
 24 28  1  0  0  0  0
 25 29  1  0  0  0  0
 25 24  1  0  0  0  0
 26 27  1  0  0  0  0
 26 25  2  0  0  0  0
 27 23  1  0  0  0  0
 30 39  1  0  0  0  0
 30 31  1  0  0  0  0
 31 32  2  0  0  0  0
 31 26  1  0  0  0  0
 32 40  1  0  0  0  0
 33 32  1  0  0  0  0
 34 33  1  0  0  0  0
 34 41  1  0  0  0  0
 35 34  1  0  0  0  0
 36 35  2  0  0  0  0
 36 37  1  0  0  0  0
 37 33  2  0  0  0  0
 38 37  1  0  0  0  0
 38 30  2  0  0  0  0
 42 36  1  0  0  0  0
 43 38  1  0  0  0  0
M  END
>  <minimizedAffinity>
-6.75745392

>  <minimizedRMSD>
0.844843209

$$$$
