
     RDKit          3D

 31 33  0  0  0  0  0  0  0  0999 V2000
   37.3565   30.2293   51.3709 C   0  0  0  0  0  0  0  0  0  0  0  0
   38.0270   30.7528   50.2600 C   0  0  0  0  0  0  0  0  0  0  0  0
   37.5707   30.4103   48.9838 C   0  0  0  0  0  0  0  0  0  0  0  0
   36.4854   29.5756   48.9112 N   0  0  0  0  0  0  0  0  0  0  0  0
   35.8743   29.0979   49.9984 C   0  0  0  0  0  0  0  0  0  0  0  0
   36.2963   29.4143   51.2220 N   0  0  0  0  0  0  0  0  0  0  0  0
   38.2343   30.9292   47.7981 C   0  0  0  0  0  0  0  0  0  0  0  0
   39.0144   31.9018   47.8176 O   0  0  0  0  0  0  0  0  0  0  0  0
   37.6709   30.4644   52.3686 H   0  0  0  0  0  0  0  0  0  0  0  0
   38.8812   31.4094   50.3745 H   0  0  0  0  0  0  0  0  0  0  0  0
   35.0213   28.4419   49.9160 H   0  0  0  0  0  0  0  0  0  0  0  0
   42.0061   32.3229   46.0818 C   0  0  0  0  0  0  0  0  0  0  0  0
   42.4636   33.3002   45.7542 H   0  0  0  0  0  0  0  0  0  0  0  0
   40.9982   31.9210   45.0690 C   0  0  0  0  0  0  0  0  0  0  0  0
   41.2478   32.5685   43.6994 C   0  0  0  0  0  0  0  0  0  0  0  0
   40.6295   31.9990   42.9535 H   0  0  0  0  0  0  0  0  0  0  0  0
   40.8651   30.4604   44.8091 C   0  0  0  0  0  0  0  0  0  0  0  0
   39.7293   29.9582   45.5191 N   0  0  0  0  0  0  0  0  0  0  0  0
   38.9327   29.1349   46.3571 C   0  0  0  0  0  0  0  0  0  0  0  0
   38.9297   27.9580   46.8579 O   0  0  0  0  0  0  0  0  0  0  0  0
   37.9309   30.2226   46.5106 C   0  0  2  0  0  0  0  0  0  0  0  0
   38.5801   30.7659   45.2872 C   0  0  1  0  0  0  0  0  0  0  0  0
   39.2910   32.4450   45.4928 S   0  0  0  0  0  0  0  0  0  0  0  0
   42.8451   31.6053   46.1626 H   0  0  0  0  0  0  0  0  0  0  0  0
   41.6031   32.4857   47.1008 H   0  0  0  0  0  0  0  0  0  0  0  0
   42.3185   32.5658   43.4322 H   0  0  0  0  0  0  0  0  0  0  0  0
   40.8127   33.6035   43.6804 H   0  0  0  0  0  0  0  0  0  0  0  0
   40.6948   30.2070   43.7307 H   0  0  0  0  0  0  0  0  0  0  0  0
   41.8002   29.9938   45.1462 H   0  0  0  0  0  0  0  0  0  0  0  0
   36.8763   29.8943   46.4244 H   0  0  0  0  0  0  0  0  0  0  0  0
   38.0145   30.6239   44.3597 H   0  0  0  0  0  0  0  0  0  0  0  0
  2  1  2  0
  3  2  1  0
  4  3  2  0
  4  5  1  0
  5  6  2  0
  6  1  1  0
  7  3  1  0
  8  7  2  0
  1  9  1  0
  2 10  1  0
  5 11  1  0
 12 13  1  0
 12 14  1  0
 14 15  1  0
 15 16  1  0
 14 17  1  0
 17 18  1  0
 18 19  1  0
 19 20  2  0
 19 21  1  0
 21 22  1  0
 22 23  1  0
 23 14  1  0
 22 18  1  0
 12 24  1  0
 12 25  1  0
 15 26  1  0
 15 27  1  0
 17 28  1  0
 17 29  1  0
 21 30  1  6
 22 31  1  6
  7 21  1  0
M  ISO  5   9  14  10  14  11  14  13   8  16   8
M  END
>  <DihAtoms>  (1) 
2,6,20,18

>  <DihDeg>  (1) 
-60.00510350101106

$$$$
