
 OpenBabel03272505173D

 45 50  0  0  1  0  0  0  0  0999 V2000
   36.5820   26.7210   32.6740 N   0  0  0  0  0  0  0  0  0  0  0  0
   36.2190   25.4730   32.0280 C   0  0  0  0  0  0  0  0  0  0  0  0
   35.3230   25.8520   30.8600 C   0  0  0  0  0  0  0  0  0  0  0  0
   36.0340   26.8140   30.0930 N   0  0  0  0  0  0  0  0  0  0  0  0
   36.1800   28.0630   30.7630 C   0  0  0  0  0  0  0  0  0  0  0  0
   35.8950   27.9310   32.2430 C   0  0  2  0  0  0  0  0  0  0  0  0
   35.6830   24.8020   32.7020 H   0  0  0  0  0  0  0  0  0  0  0  0
   37.1250   24.9830   31.6180 H   0  0  0  0  0  0  0  0  0  0  0  0
   35.2600   24.9250   30.2400 H   0  0  0  0  0  0  0  0  0  0  0  0
   34.3070   26.1020   31.1490 H   0  0  0  0  0  0  0  0  0  0  0  0
   35.6250   26.8540   29.1400 H   0  0  0  0  0  0  0  0  0  0  0  0
   37.2500   28.3520   30.6790 H   0  0  0  0  0  0  0  0  0  0  0  0
   35.4830   28.7630   30.2630 H   0  0  0  0  0  0  0  0  0  0  0  0
   34.8090   27.7510   32.3590 H   0  0  0  0  0  0  0  0  0  0  0  0
   39.3840   26.6050   31.7490 Cl  0  0  0  0  0  0  0  0  0  0  0  0
   38.9240   26.7830   33.4180 C   0  0  0  0  0  0  0  0  0  0  0  0
   39.8830   26.8760   34.3660 C   0  0  0  0  0  0  0  0  0  0  0  0
   39.4220   27.0450   35.6710 C   0  0  0  0  0  0  0  0  0  0  0  0
   38.1140   27.1200   36.0400 C   0  0  0  0  0  0  0  0  0  0  0  0
   37.1740   27.0180   35.0360 C   0  0  0  0  0  0  0  0  0  0  0  0
   37.5760   26.8470   33.7100 C   0  0  0  0  0  0  0  0  0  0  0  0
   40.1640   27.1250   36.4690 H   0  0  0  0  0  0  0  0  0  0  0  0
   37.8000   27.2520   37.0650 H   0  0  0  0  0  0  0  0  0  0  0  0
   36.1070   27.0630   35.2070 H   0  0  0  0  0  0  0  0  0  0  0  0
   43.4640   25.7560   34.1690 C   0  0  0  0  0  0  0  0  0  0  0  0
   42.1130   25.8110   34.5450 C   0  0  0  0  0  0  0  0  0  0  0  0
   41.2780   26.8030   34.0120 C   0  0  0  0  0  0  0  0  0  0  0  0
   41.8410   27.6900   33.1330 N   0  0  0  0  0  0  0  0  0  0  0  0
   43.1380   27.6240   32.7850 C   0  0  0  0  0  0  0  0  0  0  0  0
   43.9570   26.6630   33.2960 N   0  0  0  0  0  0  0  0  0  0  0  0
   44.1790   25.0310   34.5250 H   0  0  0  0  0  0  0  0  0  0  0  0
   41.9030   25.0450   35.2610 H   0  0  0  0  0  0  0  0  0  0  0  0
   43.3870   28.4090   32.0850 H   0  0  0  0  0  0  0  0  0  0  0  0
   36.2880   29.0910   33.0590 C   0  0  0  0  0  2  0  0  0  0  0  0
   35.2670   30.1190   33.3640 C   0  0  2  0  0  0  0  0  0  0  0  0
   34.8410   30.2550   34.7760 C   0  0  0  0  0  2  0  0  0  0  0  0
   33.5170   29.7130   34.9360 N   0  0  1  0  0  0  0  0  0  0  0  0
   32.3690   28.9960   35.3730 C   0  0  2  0  0  0  0  0  0  0  0  0
   32.0620   28.3450   36.4250 O   0  0  0  0  0  1  0  0  0  0  0  0
   31.5890   29.2690   34.1230 C   0  0  0  0  0  3  0  0  0  0  0  0
   31.5590   28.4460   33.4030 H   0  0  0  0  0  0  0  0  0  0  0  0
   32.6560   30.2930   33.9220 C   0  0  1  0  0  0  0  0  0  0  0  0
   33.7180   29.9770   32.4540 S   0  0  0  0  0  0  0  0  0  0  0  0
   35.8710   31.4470   32.9320 C   0  0  0  0  0  2  0  0  0  0  0  0
   35.1150   32.2360   32.9280 H   0  0  0  0  0  0  0  0  0  0  0  0
  1 21  1  0  0  0  0
  2  1  1  0  0  0  0
  2  7  1  0  0  0  0
  3 10  1  0  0  0  0
  3  2  1  0  0  0  0
  4  5  1  0  0  0  0
  4  3  1  0  0  0  0
  5  6  1  0  0  0  0
  6 14  1  1  0  0  0
  6  1  1  0  0  0  0
  6 34  1  0  0  0  0
  8  2  1  0  0  0  0
  9  3  1  0  0  0  0
 11  4  1  0  0  0  0
 12  5  1  0  0  0  0
 13  5  1  0  0  0  0
 15 16  1  0  0  0  0
 16 21  2  0  0  0  0
 16 17  1  0  0  0  0
 17 18  2  0  0  0  0
 18 19  1  0  0  0  0
 18 22  1  0  0  0  0
 19 23  1  0  0  0  0
 20 24  1  0  0  0  0
 20 19  2  0  0  0  0
 21 20  1  0  0  0  0
 25 31  1  0  0  0  0
 25 26  1  0  0  0  0
 26 32  1  0  0  0  0
 27 17  1  0  0  0  0
 27 26  2  0  0  0  0
 28 27  1  0  0  0  0
 29 28  2  0  0  0  0
 29 30  1  0  0  0  0
 30 25  2  0  0  0  0
 33 29  1  0  0  0  0
 34 35  1  0  0  0  0
 35 44  1  6  0  0  0
 35 36  1  0  0  0  0
 37 36  1  1  0  0  0
 37 38  1  0  0  0  0
 38 39  1  1  0  0  0
 40 38  1  0  0  0  0
 41 40  1  0  0  0  0
 42 43  1  6  0  0  0
 42 40  1  0  0  0  0
 42 37  1  0  0  0  0
 42 38  1  0  0  0  0
 43 35  1  0  0  0  0
 45 44  1  0  0  0  0
M  END
>  <minimizedAffinity>
-6.34136295

$$$$

 OpenBabel03272505173D

 45 50  0  0  1  0  0  0  0  0999 V2000
   38.7870   24.4330   35.4630 N   0  0  0  0  0  0  0  0  0  0  0  0
   38.0250   24.6790   36.6740 C   0  0  0  0  0  0  0  0  0  0  0  0
   37.7770   23.3140   37.2960 C   0  0  0  0  0  0  0  0  0  0  0  0
   39.0440   22.6850   37.4250 N   0  0  0  0  0  0  0  0  0  0  0  0
   39.6220   22.3310   36.1720 C   0  0  0  0  0  0  0  0  0  0  0  0
   38.9400   23.0510   35.0280 C   0  0  2  0  0  0  0  0  0  0  0  0
   37.0720   25.1700   36.4670 H   0  0  0  0  0  0  0  0  0  0  0  0
   38.6310   25.2730   37.3870 H   0  0  0  0  0  0  0  0  0  0  0  0
   37.4170   23.5360   38.3290 H   0  0  0  0  0  0  0  0  0  0  0  0
   36.9900   22.7470   36.8080 H   0  0  0  0  0  0  0  0  0  0  0  0
   38.9710   21.9220   38.1240 H   0  0  0  0  0  0  0  0  0  0  0  0
   40.6700   22.6960   36.1840 H   0  0  0  0  0  0  0  0  0  0  0  0
   39.5260   21.2310   36.0890 H   0  0  0  0  0  0  0  0  0  0  0  0
   37.9220   22.6250   34.9240 H   0  0  0  0  0  0  0  0  0  0  0  0
   37.0570   25.6140   33.3810 Cl  0  0  0  0  0  0  0  0  0  0  0  0
   38.7160   26.0770   33.6370 C   0  0  0  0  0  0  0  0  0  0  0  0
   39.2690   27.0290   32.8530 C   0  0  0  0  0  0  0  0  0  0  0  0
   40.5920   27.3540   33.1480 C   0  0  0  0  0  0  0  0  0  0  0  0
   41.3380   26.7950   34.1400 C   0  0  0  0  0  0  0  0  0  0  0  0
   40.7280   25.8280   34.9120 C   0  0  0  0  0  0  0  0  0  0  0  0
   39.4050   25.4600   34.6620 C   0  0  0  0  0  0  0  0  0  0  0  0
   41.0780   28.1200   32.5390 H   0  0  0  0  0  0  0  0  0  0  0  0
   42.3610   27.0780   34.3360 H   0  0  0  0  0  0  0  0  0  0  0  0
   41.2190   25.3140   35.7270 H   0  0  0  0  0  0  0  0  0  0  0  0
   38.1400   28.1310   29.4440 C   0  0  0  0  0  0  0  0  0  0  0  0
   38.9090   27.5350   30.4540 C   0  0  0  0  0  0  0  0  0  0  0  0
   38.5090   27.6430   31.7940 C   0  0  0  0  0  0  0  0  0  0  0  0
   37.3620   28.3460   32.0510 N   0  0  0  0  0  0  0  0  0  0  0  0
   36.6390   28.9140   31.0700 C   0  0  0  0  0  0  0  0  0  0  0  0
   37.0170   28.8130   29.7660 N   0  0  0  0  0  0  0  0  0  0  0  0
   38.3670   28.1010   28.3890 H   0  0  0  0  0  0  0  0  0  0  0  0
   39.7720   27.0690   30.0280 H   0  0  0  0  0  0  0  0  0  0  0  0
   35.7750   29.4210   31.4760 H   0  0  0  0  0  0  0  0  0  0  0  0
   39.6380   22.9690   33.7350 C   0  0  0  0  0  2  0  0  0  0  0  0
   39.0640   22.1090   32.6760 C   0  0  2  0  0  0  0  0  0  0  0  0
   38.6500   22.7680   31.4160 C   0  0  0  0  0  2  0  0  0  0  0  0
   37.2140   22.8270   31.3490 N   0  0  2  0  0  0  0  0  0  0  0  0
   35.8600   23.2400   31.2100 C   0  0  2  0  0  0  0  0  0  0  0  0
   35.2790   24.2660   30.7250 O   0  0  0  0  0  1  0  0  0  0  0  0
   35.3040   22.0070   31.8560 C   0  0  0  0  0  3  0  0  0  0  0  0
   35.0020   22.1240   32.9000 H   0  0  0  0  0  0  0  0  0  0  0  0
   36.6860   21.5000   31.6120 C   0  0  1  0  0  0  0  0  0  0  0  0
   37.6240   21.1370   33.1520 S   0  0  0  0  0  0  0  0  0  0  0  0
   40.1440   21.0920   32.3350 C   0  0  0  0  0  2  0  0  0  0  0  0
   39.7420   20.2910   31.7110 H   0  0  0  0  0  0  0  0  0  0  0  0
  1  2  1  0  0  0  0
  2  3  1  0  0  0  0
  2  8  1  0  0  0  0
  3  4  1  0  0  0  0
  3  9  1  0  0  0  0
  4 11  1  0  0  0  0
  5 12  1  0  0  0  0
  5  4  1  0  0  0  0
  6 14  1  6  0  0  0
  6  1  1  0  0  0  0
  6  5  1  0  0  0  0
  7  2  1  0  0  0  0
 10  3  1  0  0  0  0
 13  5  1  0  0  0  0
 15 16  1  0  0  0  0
 16 21  1  0  0  0  0
 17 18  1  0  0  0  0
 17 16  2  0  0  0  0
 18 19  2  0  0  0  0
 19 23  1  0  0  0  0
 19 20  1  0  0  0  0
 20 24  1  0  0  0  0
 21 20  2  0  0  0  0
 21  1  1  0  0  0  0
 22 18  1  0  0  0  0
 25 30  2  0  0  0  0
 25 26  1  0  0  0  0
 26 27  2  0  0  0  0
 27 28  1  0  0  0  0
 27 17  1  0  0  0  0
 29 33  1  0  0  0  0
 29 28  2  0  0  0  0
 30 29  1  0  0  0  0
 31 25  1  0  0  0  0
 32 26  1  0  0  0  0
 34  6  1  0  0  0  0
 35 44  1  6  0  0  0
 35 43  1  0  0  0  0
 35 34  1  0  0  0  0
 36 35  1  0  0  0  0
 37 36  1  1  0  0  0
 37 42  1  0  0  0  0
 38 39  1  6  0  0  0
 38 37  1  0  0  0  0
 38 42  1  0  0  0  0
 38 40  1  0  0  0  0
 40 41  1  0  0  0  0
 42 40  1  6  0  0  0
 42 43  1  0  0  0  0
 45 44  1  0  0  0  0
M  END
>  <minimizedAffinity>
-6.05339432

$$$$

 OpenBabel03272505173D

 45 50  0  0  1  0  0  0  0  0999 V2000
   39.6450   22.9180   35.6870 N   0  0  0  0  0  0  0  0  0  0  0  0
   40.5000   22.0800   36.5090 C   0  0  0  0  0  0  0  0  0  0  0  0
   40.3980   22.6340   37.9200 C   0  0  0  0  0  0  0  0  0  0  0  0
   39.0150   22.6880   38.2410 N   0  0  0  0  0  0  0  0  0  0  0  0
   38.3060   23.6700   37.4910 C   0  0  0  0  0  0  0  0  0  0  0  0
   39.1040   24.1280   36.2900 C   0  0  2  0  0  0  0  0  0  0  0  0
   41.5400   22.1030   36.1760 H   0  0  0  0  0  0  0  0  0  0  0  0
   40.1120   21.0410   36.5210 H   0  0  0  0  0  0  0  0  0  0  0  0
   40.8520   21.8460   38.5670 H   0  0  0  0  0  0  0  0  0  0  0  0
   40.9790   23.5380   38.0790 H   0  0  0  0  0  0  0  0  0  0  0  0
   38.9110   22.7390   39.2720 H   0  0  0  0  0  0  0  0  0  0  0  0
   37.3970   23.1760   37.0870 H   0  0  0  0  0  0  0  0  0  0  0  0
   38.0950   24.5000   38.1940 H   0  0  0  0  0  0  0  0  0  0  0  0
   39.9620   24.7200   36.6640 H   0  0  0  0  0  0  0  0  0  0  0  0
   37.1730   21.3440   35.3260 Cl  0  0  0  0  0  0  0  0  0  0  0  0
   38.1760   21.8850   34.0090 C   0  0  0  0  0  0  0  0  0  0  0  0
   37.8270   21.5820   32.7390 C   0  0  0  0  0  0  0  0  0  0  0  0
   38.6730   22.0800   31.7500 C   0  0  0  0  0  0  0  0  0  0  0  0
   39.7900   22.8260   31.9710 C   0  0  0  0  0  0  0  0  0  0  0  0
   40.1040   23.1070   33.2850 C   0  0  0  0  0  0  0  0  0  0  0  0
   39.2930   22.6340   34.3180 C   0  0  0  0  0  0  0  0  0  0  0  0
   38.4270   21.8590   30.7080 H   0  0  0  0  0  0  0  0  0  0  0  0
   40.4180   23.1930   31.1740 H   0  0  0  0  0  0  0  0  0  0  0  0
   40.9650   23.6890   33.5840 H   0  0  0  0  0  0  0  0  0  0  0  0
   34.2920   20.6090   31.9200 C   0  0  0  0  0  0  0  0  0  0  0  0
   35.4160   21.4020   32.1960 C   0  0  0  0  0  0  0  0  0  0  0  0
   36.6500   20.7950   32.4670 C   0  0  0  0  0  0  0  0  0  0  0  0
   36.6930   19.4260   32.4510 N   0  0  0  0  0  0  0  0  0  0  0  0
   35.6050   18.6820   32.1870 C   0  0  0  0  0  0  0  0  0  0  0  0
   34.4020   19.2610   31.9200 N   0  0  0  0  0  0  0  0  0  0  0  0
   33.3040   20.9850   31.7000 H   0  0  0  0  0  0  0  0  0  0  0  0
   35.1440   22.4360   32.1860 H   0  0  0  0  0  0  0  0  0  0  0  0
   35.8440   17.6280   32.2230 H   0  0  0  0  0  0  0  0  0  0  0  0
   38.3510   24.9260   35.3080 C   0  0  0  0  0  2  0  0  0  0  0  0
   38.8860   26.2470   34.9120 C   0  0  2  0  0  0  0  0  0  0  0  0
   38.3820   26.8330   33.6490 C   0  0  0  0  0  2  0  0  0  0  0  0
   39.4030   26.7550   32.6370 N   0  0  1  0  0  0  0  0  0  0  0  0
   40.1380   26.5290   31.4400 C   0  0  2  0  0  0  0  0  0  0  0  0
   39.8290   26.2640   30.2320 O   0  0  0  0  0  1  0  0  0  0  0  0
   41.4720   26.7110   32.0970 C   0  0  0  0  0  3  0  0  0  0  0  0
   42.0030   25.7860   32.3390 H   0  0  0  0  0  0  0  0  0  0  0  0
   40.6330   27.3020   33.1800 C   0  0  1  0  0  0  0  0  0  0  0  0
   40.6780   26.3500   34.7540 S   0  0  0  0  0  0  0  0  0  0  0  0
   38.5240   27.2000   36.0420 C   0  0  0  0  0  2  0  0  0  0  0  0
   39.0520   28.1500   35.9350 H   0  0  0  0  0  0  0  0  0  0  0  0
  1  6  1  0  0  0  0
  1  2  1  0  0  0  0
  2  8  1  0  0  0  0
  2  3  1  0  0  0  0
  3 10  1  0  0  0  0
  3  4  1  0  0  0  0
  3  9  1  0  0  0  0
  4 11  1  0  0  0  0
  5 13  1  0  0  0  0
  5  4  1  0  0  0  0
  6 14  1  1  0  0  0
  6  5  1  0  0  0  0
  7  2  1  0  0  0  0
 12  5  1  0  0  0  0
 16 21  1  0  0  0  0
 16 15  1  0  0  0  0
 17 16  2  0  0  0  0
 18 19  2  0  0  0  0
 18 17  1  0  0  0  0
 19 20  1  0  0  0  0
 20 24  1  0  0  0  0
 20 21  2  0  0  0  0
 21  1  1  0  0  0  0
 22 18  1  0  0  0  0
 23 19  1  0  0  0  0
 25 26  1  0  0  0  0
 26 27  2  0  0  0  0
 27 17  1  0  0  0  0
 28 27  1  0  0  0  0
 29 33  1  0  0  0  0
 29 28  2  0  0  0  0
 30 25  2  0  0  0  0
 30 29  1  0  0  0  0
 31 25  1  0  0  0  0
 32 26  1  0  0  0  0
 34  6  1  0  0  0  0
 35 34  1  1  0  0  0
 35 44  1  0  0  0  0
 36 35  1  0  0  0  0
 37 42  1  0  0  0  0
 37 36  1  6  0  0  0
 38 39  1  6  0  0  0
 38 40  1  0  0  0  0
 38 37  1  0  0  0  0
 38 42  1  0  0  0  0
 40 41  1  0  0  0  0
 42 40  1  1  0  0  0
 42 43  1  0  0  0  0
 43 35  1  0  0  0  0
 45 44  1  0  0  0  0
M  END
>  <minimizedAffinity>
-5.95419693

$$$$

 OpenBabel03272505173D

 45 50  0  0  1  0  0  0  0  0999 V2000
   36.6240   26.6760   32.6910 N   0  0  0  0  0  0  0  0  0  0  0  0
   36.1710   25.4370   32.0850 C   0  0  0  0  0  0  0  0  0  0  0  0
   35.2850   25.8410   30.9180 C   0  0  0  0  0  0  0  0  0  0  0  0
   36.0460   26.7330   30.1150 N   0  0  0  0  0  0  0  0  0  0  0  0
   36.2830   27.9880   30.7460 C   0  0  0  0  0  0  0  0  0  0  0  0
   36.0120   27.9160   32.2340 C   0  0  2  0  0  0  0  0  0  0  0  0
   35.6020   24.8220   32.7850 H   0  0  0  0  0  0  0  0  0  0  0  0
   37.0360   24.8770   31.6780 H   0  0  0  0  0  0  0  0  0  0  0  0
   35.1520   24.9040   30.3260 H   0  0  0  0  0  0  0  0  0  0  0  0
   34.2920   26.1660   31.2130 H   0  0  0  0  0  0  0  0  0  0  0  0
   35.6260   26.7730   29.1670 H   0  0  0  0  0  0  0  0  0  0  0  0
   37.3680   28.2030   30.6420 H   0  0  0  0  0  0  0  0  0  0  0  0
   35.6260   28.7180   30.2360 H   0  0  0  0  0  0  0  0  0  0  0  0
   34.9180   27.8110   32.3690 H   0  0  0  0  0  0  0  0  0  0  0  0
   39.4030   26.4210   31.7230 Cl  0  0  0  0  0  0  0  0  0  0  0  0
   38.9780   26.6360   33.3980 C   0  0  0  0  0  0  0  0  0  0  0  0
   39.9550   26.6930   34.3300 C   0  0  0  0  0  0  0  0  0  0  0  0
   39.5230   26.8940   35.6400 C   0  0  0  0  0  0  0  0  0  0  0  0
   38.2260   27.0330   36.0290 C   0  0  0  0  0  0  0  0  0  0  0  0
   37.2660   26.9660   35.0400 C   0  0  0  0  0  0  0  0  0  0  0  0
   37.6390   26.7650   33.7100 C   0  0  0  0  0  0  0  0  0  0  0  0
   40.2810   26.9470   36.4250 H   0  0  0  0  0  0  0  0  0  0  0  0
   37.9350   27.1890   37.0560 H   0  0  0  0  0  0  0  0  0  0  0  0
   36.2050   27.0620   35.2270 H   0  0  0  0  0  0  0  0  0  0  0  0
   43.3900   25.2570   33.8280 C   0  0  0  0  0  0  0  0  0  0  0  0
   42.0480   25.3710   34.2190 C   0  0  0  0  0  0  0  0  0  0  0  0
   41.3390   26.5510   33.9550 C   0  0  0  0  0  0  0  0  0  0  0  0
   42.0140   27.5580   33.3160 N   0  0  0  0  0  0  0  0  0  0  0  0
   43.3020   27.4330   32.9500 C   0  0  0  0  0  0  0  0  0  0  0  0
   43.9980   26.2900   33.2000 N   0  0  0  0  0  0  0  0  0  0  0  0
   44.0140   24.3910   33.9870 H   0  0  0  0  0  0  0  0  0  0  0  0
   41.7400   24.4810   34.7260 H   0  0  0  0  0  0  0  0  0  0  0  0
   43.6500   28.3320   32.4630 H   0  0  0  0  0  0  0  0  0  0  0  0
   36.4920   29.0700   33.0110 C   0  0  0  0  0  2  0  0  0  0  0  0
   35.5210   30.1230   33.3850 C   0  0  2  0  0  0  0  0  0  0  0  0
   35.5060   31.3560   32.5650 C   0  0  0  0  0  2  0  0  0  0  0  0
   36.0960   32.4380   33.3070 N   0  0  1  0  0  0  0  0  0  0  0  0
   36.8780   33.5490   33.7330 C   0  0  2  0  0  0  0  0  0  0  0  0
   37.6170   34.4050   33.1460 O   0  0  0  0  0  1  0  0  0  0  0  0
   36.5310   33.3750   35.1810 C   0  0  0  0  0  3  0  0  0  0  0  0
   37.2970   32.8840   35.7880 H   0  0  0  0  0  0  0  0  0  0  0  0
   35.4650   32.5000   34.6130 C   0  0  1  0  0  0  0  0  0  0  0  0
   35.6360   30.7280   35.0780 S   0  0  0  0  0  0  0  0  0  0  0  0
   34.1460   29.4790   33.2780 C   0  0  0  0  0  2  0  0  0  0  0  0
   33.3820   30.1150   33.7300 H   0  0  0  0  0  0  0  0  0  0  0  0
  1 21  1  0  0  0  0
  2  1  1  0  0  0  0
  2  7  1  0  0  0  0
  3 10  1  0  0  0  0
  3  2  1  0  0  0  0
  4  5  1  0  0  0  0
  4  3  1  0  0  0  0
  5  6  1  0  0  0  0
  6 14  1  1  0  0  0
  6  1  1  0  0  0  0
  6 34  1  0  0  0  0
  8  2  1  0  0  0  0
  9  3  1  0  0  0  0
 11  4  1  0  0  0  0
 12  5  1  0  0  0  0
 13  5  1  0  0  0  0
 15 16  1  0  0  0  0
 16 21  2  0  0  0  0
 16 17  1  0  0  0  0
 17 18  2  0  0  0  0
 18 19  1  0  0  0  0
 18 22  1  0  0  0  0
 19 23  1  0  0  0  0
 20 24  1  0  0  0  0
 20 19  2  0  0  0  0
 21 20  1  0  0  0  0
 25 31  1  0  0  0  0
 25 26  1  0  0  0  0
 26 32  1  0  0  0  0
 27 26  2  0  0  0  0
 27 17  1  0  0  0  0
 28 27  1  0  0  0  0
 29 30  1  0  0  0  0
 29 28  2  0  0  0  0
 30 25  2  0  0  0  0
 33 29  1  0  0  0  0
 35 34  1  6  0  0  0
 35 43  1  0  0  0  0
 36 35  1  0  0  0  0
 37 36  1  6  0  0  0
 37 38  1  0  0  0  0
 37 42  1  0  0  0  0
 38 39  1  6  0  0  0
 38 42  1  0  0  0  0
 38 40  1  0  0  0  0
 40 41  1  0  0  0  0
 42 43  1  1  0  0  0
 42 40  1  0  0  0  0
 44 35  1  0  0  0  0
 44 45  1  0  0  0  0
M  END
>  <minimizedAffinity>
-5.93385315

$$$$

 OpenBabel03272505173D

 45 50  0  0  1  0  0  0  0  0999 V2000
   39.2550   23.1160   35.8290 N   0  0  0  0  0  0  0  0  0  0  0  0
   40.0740   22.4670   36.8360 C   0  0  0  0  0  0  0  0  0  0  0  0
   39.7610   23.1680   38.1470 C   0  0  0  0  0  0  0  0  0  0  0  0
   38.3500   23.1230   38.3100 N   0  0  0  0  0  0  0  0  0  0  0  0
   37.6540   23.9390   37.3720 C   0  0  0  0  0  0  0  0  0  0  0  0
   38.5470   24.3300   36.2130 C   0  0  2  0  0  0  0  0  0  0  0  0
   41.1410   22.5530   36.6160 H   0  0  0  0  0  0  0  0  0  0  0  0
   39.7760   21.4040   36.9380 H   0  0  0  0  0  0  0  0  0  0  0  0
   40.2000   22.5080   38.9330 H   0  0  0  0  0  0  0  0  0  0  0  0
   40.2410   24.1360   38.2520 H   0  0  0  0  0  0  0  0  0  0  0  0
   38.1220   23.2830   39.3090 H   0  0  0  0  0  0  0  0  0  0  0  0
   36.8440   23.3140   36.9390 H   0  0  0  0  0  0  0  0  0  0  0  0
   37.2940   24.8190   37.9370 H   0  0  0  0  0  0  0  0  0  0  0  0
   39.3020   25.0420   36.5990 H   0  0  0  0  0  0  0  0  0  0  0  0
   36.8680   21.4400   35.3650 Cl  0  0  0  0  0  0  0  0  0  0  0  0
   38.0320   21.8280   34.1300 C   0  0  0  0  0  0  0  0  0  0  0  0
   37.8580   21.3490   32.8780 C   0  0  0  0  0  0  0  0  0  0  0  0
   38.8240   21.7340   31.9500 C   0  0  0  0  0  0  0  0  0  0  0  0
   39.8940   22.5340   32.2110 C   0  0  0  0  0  0  0  0  0  0  0  0
   40.0270   22.9960   33.5050 C   0  0  0  0  0  0  0  0  0  0  0  0
   39.0910   22.6430   34.4780 C   0  0  0  0  0  0  0  0  0  0  0  0
   38.7210   21.3690   30.9240 H   0  0  0  0  0  0  0  0  0  0  0  0
   40.6190   22.8090   31.4600 H   0  0  0  0  0  0  0  0  0  0  0  0
   40.8350   23.6370   33.8310 H   0  0  0  0  0  0  0  0  0  0  0  0
   34.4090   20.1890   31.9450 C   0  0  0  0  0  0  0  0  0  0  0  0
   35.4780   21.0410   32.2610 C   0  0  0  0  0  0  0  0  0  0  0  0
   36.7360   20.5010   32.5640 C   0  0  0  0  0  0  0  0  0  0  0  0
   36.8560   19.1370   32.5370 N   0  0  0  0  0  0  0  0  0  0  0  0
   35.8190   18.3360   32.2340 C   0  0  0  0  0  0  0  0  0  0  0  0
   34.5940   18.8500   31.9370 N   0  0  0  0  0  0  0  0  0  0  0  0
   33.4090   20.5120   31.6990 H   0  0  0  0  0  0  0  0  0  0  0  0
   35.1490   22.0580   32.2530 H   0  0  0  0  0  0  0  0  0  0  0  0
   36.1160   17.2970   32.2680 H   0  0  0  0  0  0  0  0  0  0  0  0
   37.8500   24.9310   35.0650 C   0  0  0  0  0  2  0  0  0  0  0  0
   38.3330   26.2300   34.5460 C   0  0  2  0  0  0  0  0  0  0  0  0
   37.4530   27.4060   34.7330 C   0  0  0  0  0  2  0  0  0  0  0  0
   36.8610   27.7730   33.4730 N   0  0  1  0  0  0  0  0  0  0  0  0
   35.9650   28.1260   32.4260 C   0  0  2  0  0  0  0  0  0  0  0  0
   34.7570   28.5280   32.3740 O   0  0  0  0  0  1  0  0  0  0  0  0
   36.9600   27.8570   31.3380 C   0  0  0  0  0  3  0  0  0  0  0  0
   36.8400   26.9000   30.8220 H   0  0  0  0  0  0  0  0  0  0  0  0
   37.9170   27.8820   32.4830 C   0  0  1  0  0  0  0  0  0  0  0  0
   38.7440   26.2680   32.7920 S   0  0  0  0  0  0  0  0  0  0  0  0
   39.6400   26.5090   35.2740 C   0  0  0  0  0  2  0  0  0  0  0  0
   40.1730   27.3430   34.8120 H   0  0  0  0  0  0  0  0  0  0  0  0
  1  6  1  0  0  0  0
  1  2  1  0  0  0  0
  2  8  1  0  0  0  0
  2  3  1  0  0  0  0
  3 10  1  0  0  0  0
  3  4  1  0  0  0  0
  3  9  1  0  0  0  0
  4 11  1  0  0  0  0
  5 13  1  0  0  0  0
  5  4  1  0  0  0  0
  6 14  1  1  0  0  0
  6  5  1  0  0  0  0
  7  2  1  0  0  0  0
 12  5  1  0  0  0  0
 16 21  1  0  0  0  0
 16 15  1  0  0  0  0
 17 16  2  0  0  0  0
 18 19  2  0  0  0  0
 18 17  1  0  0  0  0
 19 20  1  0  0  0  0
 20 24  1  0  0  0  0
 20 21  2  0  0  0  0
 21  1  1  0  0  0  0
 22 18  1  0  0  0  0
 23 19  1  0  0  0  0
 25 26  1  0  0  0  0
 26 27  2  0  0  0  0
 27 17  1  0  0  0  0
 28 27  1  0  0  0  0
 29 33  1  0  0  0  0
 29 28  2  0  0  0  0
 30 25  2  0  0  0  0
 30 29  1  0  0  0  0
 31 25  1  0  0  0  0
 32 26  1  0  0  0  0
 34  6  1  0  0  0  0
 35 36  1  0  0  0  0
 35 34  1  1  0  0  0
 35 44  1  0  0  0  0
 37 36  1  1  0  0  0
 38 39  1  1  0  0  0
 38 42  1  0  0  0  0
 38 37  1  0  0  0  0
 40 38  1  0  0  0  0
 41 40  1  0  0  0  0
 42 40  1  1  0  0  0
 42 43  1  0  0  0  0
 42 37  1  0  0  0  0
 43 35  1  0  0  0  0
 45 44  1  0  0  0  0
M  END
>  <minimizedAffinity>
-5.89168119

$$$$

 OpenBabel03272505173D

 45 50  0  0  1  0  0  0  0  0999 V2000
   38.9420   25.6440   32.1350 N   0  0  0  0  0  0  0  0  0  0  0  0
   39.7960   26.1560   31.0780 C   0  0  0  0  0  0  0  0  0  0  0  0
   39.8590   25.0620   30.0240 C   0  0  0  0  0  0  0  0  0  0  0  0
   38.5170   24.7340   29.6920 N   0  0  0  0  0  0  0  0  0  0  0  0
   37.8260   24.0770   30.7510 C   0  0  0  0  0  0  0  0  0  0  0  0
   38.5510   24.2430   32.0690 C   0  0  2  0  0  0  0  0  0  0  0  0
   40.8030   26.3820   31.4360 H   0  0  0  0  0  0  0  0  0  0  0  0
   39.3300   27.0490   30.6150 H   0  0  0  0  0  0  0  0  0  0  0  0
   40.3040   25.5580   29.1280 H   0  0  0  0  0  0  0  0  0  0  0  0
   40.5200   24.2410   30.2840 H   0  0  0  0  0  0  0  0  0  0  0  0
   38.5060   24.2520   28.7740 H   0  0  0  0  0  0  0  0  0  0  0  0
   36.8500   24.5940   30.8700 H   0  0  0  0  0  0  0  0  0  0  0  0
   37.7420   23.0150   30.4510 H   0  0  0  0  0  0  0  0  0  0  0  0
   39.4810   23.6440   32.0160 H   0  0  0  0  0  0  0  0  0  0  0  0
   36.6490   27.4000   31.5170 Cl  0  0  0  0  0  0  0  0  0  0  0  0
   37.4030   27.3080   33.0840 C   0  0  0  0  0  0  0  0  0  0  0  0
   36.9310   28.0730   34.0940 C   0  0  0  0  0  0  0  0  0  0  0  0
   37.5780   27.9130   35.3180 C   0  0  0  0  0  0  0  0  0  0  0  0
   38.6160   27.0660   35.5560 C   0  0  0  0  0  0  0  0  0  0  0  0
   39.0610   26.3080   34.4920 C   0  0  0  0  0  0  0  0  0  0  0  0
   38.4530   26.4270   33.2420 C   0  0  0  0  0  0  0  0  0  0  0  0
   37.2280   28.5120   36.1630 H   0  0  0  0  0  0  0  0  0  0  0  0
   39.0880   26.9720   36.5230 H   0  0  0  0  0  0  0  0  0  0  0  0
   39.8780   25.6020   34.5600 H   0  0  0  0  0  0  0  0  0  0  0  0
   33.5770   29.7450   34.3580 C   0  0  0  0  0  0  0  0  0  0  0  0
   34.6250   28.8370   34.5780 C   0  0  0  0  0  0  0  0  0  0  0  0
   35.8320   28.9800   33.8790 C   0  0  0  0  0  0  0  0  0  0  0  0
   35.9260   30.0220   32.9950 N   0  0  0  0  0  0  0  0  0  0  0  0
   34.9110   30.8810   32.7960 C   0  0  0  0  0  0  0  0  0  0  0  0
   33.7350   30.7530   33.4700 N   0  0  0  0  0  0  0  0  0  0  0  0
   32.6160   29.7160   34.8470 H   0  0  0  0  0  0  0  0  0  0  0  0
   34.3190   28.0920   35.2810 H   0  0  0  0  0  0  0  0  0  0  0  0
   35.1810   31.6280   32.0630 H   0  0  0  0  0  0  0  0  0  0  0  0
   37.7810   23.8450   33.2590 C   0  0  0  0  0  2  0  0  0  0  0  0
   38.2280   22.6600   34.0260 C   0  0  2  0  0  0  0  0  0  0  0  0
   37.5550   22.3930   35.3170 C   0  0  0  0  0  2  0  0  0  0  0  0
   38.4420   22.7190   36.4020 N   0  0  1  0  0  0  0  0  0  0  0  0
   39.0260   23.2310   37.5950 C   0  0  2  0  0  0  0  0  0  0  0  0
   38.5750   23.7770   38.6540 O   0  0  0  0  0  1  0  0  0  0  0  0
   40.4270   22.9020   37.1770 C   0  0  0  0  0  3  0  0  0  0  0  0
   41.0080   23.7440   36.7910 H   0  0  0  0  0  0  0  0  0  0  0  0
   39.7160   22.0640   36.1690 C   0  0  1  0  0  0  0  0  0  0  0  0
   39.9830   22.6080   34.4320 S   0  0  0  0  0  0  0  0  0  0  0  0
   37.9860   21.4620   33.1200 C   0  0  0  0  0  2  0  0  0  0  0  0
   38.4720   20.5680   33.5180 H   0  0  0  0  0  0  0  0  0  0  0  0
  1 21  1  0  0  0  0
  2  7  1  0  0  0  0
  2  1  1  0  0  0  0
  3 10  1  0  0  0  0
  3  2  1  0  0  0  0
  4  3  1  0  0  0  0
  4  5  1  0  0  0  0
  5 12  1  0  0  0  0
  5  6  1  0  0  0  0
  6 14  1  6  0  0  0
  6  1  1  0  0  0  0
  6 34  1  0  0  0  0
  8  2  1  0  0  0  0
  9  3  1  0  0  0  0
 11  4  1  0  0  0  0
 13  5  1  0  0  0  0
 15 16  1  0  0  0  0
 16 21  2  0  0  0  0
 16 17  1  0  0  0  0
 17 18  2  0  0  0  0
 18 19  1  0  0  0  0
 18 22  1  0  0  0  0
 19 23  1  0  0  0  0
 20 24  1  0  0  0  0
 20 19  2  0  0  0  0
 21 20  1  0  0  0  0
 25 26  1  0  0  0  0
 25 31  1  0  0  0  0
 26 32  1  0  0  0  0
 27 17  1  0  0  0  0
 27 26  2  0  0  0  0
 28 27  1  0  0  0  0
 29 28  2  0  0  0  0
 29 30  1  0  0  0  0
 30 25  2  0  0  0  0
 33 29  1  0  0  0  0
 34 35  1  0  0  0  0
 35 44  1  6  0  0  0
 35 43  1  0  0  0  0
 35 36  1  0  0  0  0
 37 36  1  1  0  0  0
 37 38  1  0  0  0  0
 38 39  1  1  0  0  0
 40 38  1  0  0  0  0
 41 40  1  0  0  0  0
 42 43  1  6  0  0  0
 42 37  1  0  0  0  0
 42 40  1  0  0  0  0
 42 38  1  0  0  0  0
 44 45  1  0  0  0  0
M  END
>  <minimizedAffinity>
-5.87948275

$$$$

 OpenBabel03272505173D

 45 50  0  0  1  0  0  0  0  0999 V2000
   39.1540   22.6510   35.7700 N   0  0  0  0  0  0  0  0  0  0  0  0
   40.1430   21.8130   36.4240 C   0  0  0  0  0  0  0  0  0  0  0  0
   40.5250   22.5380   37.7040 C   0  0  0  0  0  0  0  0  0  0  0  0
   39.3160   22.8040   38.4010 N   0  0  0  0  0  0  0  0  0  0  0  0
   38.5000   23.7750   37.7510 C   0  0  0  0  0  0  0  0  0  0  0  0
   38.9300   23.9830   36.3150 C   0  0  2  0  0  0  0  0  0  0  0  0
   41.0300   21.6650   35.8040 H   0  0  0  0  0  0  0  0  0  0  0  0
   39.6890   20.8420   36.7040 H   0  0  0  0  0  0  0  0  0  0  0  0
   41.0850   21.7790   38.3020 H   0  0  0  0  0  0  0  0  0  0  0  0
   41.2030   23.3720   37.5500 H   0  0  0  0  0  0  0  0  0  0  0  0
   39.5360   22.9890   39.3980 H   0  0  0  0  0  0  0  0  0  0  0  0
   37.4720   23.3570   37.7080 H   0  0  0  0  0  0  0  0  0  0  0  0
   38.5870   24.7010   38.3520 H   0  0  0  0  0  0  0  0  0  0  0  0
   39.9090   24.5010   36.3310 H   0  0  0  0  0  0  0  0  0  0  0  0
   40.4360   23.1480   33.1560 Cl  0  0  0  0  0  0  0  0  0  0  0  0
   38.8480   22.4570   33.3390 C   0  0  0  0  0  0  0  0  0  0  0  0
   38.1400   22.1190   32.2390 C   0  0  0  0  0  0  0  0  0  0  0  0
   36.8920   21.5470   32.4830 C   0  0  0  0  0  0  0  0  0  0  0  0
   36.3580   21.3150   33.7130 C   0  0  0  0  0  0  0  0  0  0  0  0
   37.1210   21.6790   34.8040 C   0  0  0  0  0  0  0  0  0  0  0  0
   38.3780   22.2570   34.6220 C   0  0  0  0  0  0  0  0  0  0  0  0
   36.2850   21.2580   31.6210 H   0  0  0  0  0  0  0  0  0  0  0  0
   35.3860   20.8680   33.8570 H   0  0  0  0  0  0  0  0  0  0  0  0
   36.8030   21.5440   35.8290 H   0  0  0  0  0  0  0  0  0  0  0  0
   39.7700   21.5650   28.9000 C   0  0  0  0  0  0  0  0  0  0  0  0
   39.2730   21.3140   30.1880 C   0  0  0  0  0  0  0  0  0  0  0  0
   38.6730   22.3480   30.9200 C   0  0  0  0  0  0  0  0  0  0  0  0
   38.6070   23.5810   30.3260 N   0  0  0  0  0  0  0  0  0  0  0  0
   39.0910   23.8040   29.0910 C   0  0  0  0  0  0  0  0  0  0  0  0
   39.6730   22.8060   28.3710 N   0  0  0  0  0  0  0  0  0  0  0  0
   40.2450   20.8350   28.2630 H   0  0  0  0  0  0  0  0  0  0  0  0
   39.4610   20.2970   30.4590 H   0  0  0  0  0  0  0  0  0  0  0  0
   38.9430   24.8360   28.8040 H   0  0  0  0  0  0  0  0  0  0  0  0
   37.9850   24.7500   35.4870 C   0  0  0  0  0  2  0  0  0  0  0  0
   38.4550   26.0040   34.8560 C   0  0  2  0  0  0  0  0  0  0  0  0
   37.9550   27.2770   35.4210 C   0  0  0  0  0  2  0  0  0  0  0  0
   36.9930   27.8600   34.5240 N   0  0  1  0  0  0  0  0  0  0  0  0
   35.8380   28.4560   33.9450 C   0  0  2  0  0  0  0  0  0  0  0  0
   34.8050   29.0460   34.4030 O   0  0  0  0  0  1  0  0  0  0  0  0
   36.2520   28.1470   32.5380 C   0  0  0  0  0  3  0  0  0  0  0  0
   35.7610   27.2800   32.0870 H   0  0  0  0  0  0  0  0  0  0  0  0
   37.5700   27.9040   33.1930 C   0  0  1  0  0  0  0  0  0  0  0  0
   38.1370   26.1570   33.0890 S   0  0  0  0  0  0  0  0  0  0  0  0
   39.9710   25.9970   34.9960 C   0  0  0  0  0  2  0  0  0  0  0  0
   40.4220   26.7800   34.3820 H   0  0  0  0  0  0  0  0  0  0  0  0
  1  6  1  0  0  0  0
  1  2  1  0  0  0  0
  2  8  1  0  0  0  0
  2  3  1  0  0  0  0
  3  9  1  0  0  0  0
  3  4  1  0  0  0  0
  4 11  1  0  0  0  0
  5 13  1  0  0  0  0
  5  4  1  0  0  0  0
  6 14  1  1  0  0  0
  6  5  1  0  0  0  0
  7  2  1  0  0  0  0
 10  3  1  0  0  0  0
 12  5  1  0  0  0  0
 15 16  1  0  0  0  0
 16 21  1  0  0  0  0
 17 18  1  0  0  0  0
 17 16  2  0  0  0  0
 18 19  2  0  0  0  0
 19 23  1  0  0  0  0
 19 20  1  0  0  0  0
 20 24  1  0  0  0  0
 21 20  2  0  0  0  0
 21  1  1  0  0  0  0
 22 18  1  0  0  0  0
 25 26  1  0  0  0  0
 26 32  1  0  0  0  0
 26 27  2  0  0  0  0
 27 17  1  0  0  0  0
 28 27  1  0  0  0  0
 29 28  2  0  0  0  0
 30 25  2  0  0  0  0
 30 29  1  0  0  0  0
 31 25  1  0  0  0  0
 33 29  1  0  0  0  0
 34  6  1  0  0  0  0
 35 44  1  1  0  0  0
 35 36  1  0  0  0  0
 35 34  1  0  0  0  0
 37 36  1  1  0  0  0
 38 39  1  1  0  0  0
 38 37  1  0  0  0  0
 40 38  1  0  0  0  0
 41 40  1  0  0  0  0
 42 40  1  6  0  0  0
 42 38  1  0  0  0  0
 42 37  1  0  0  0  0
 43 42  1  0  0  0  0
 43 35  1  0  0  0  0
 45 44  1  0  0  0  0
M  END
>  <minimizedAffinity>
-5.79365778

$$$$

 OpenBabel03272505173D

 45 50  0  0  1  0  0  0  0  0999 V2000
   38.1890   25.3750   34.4070 N   0  0  0  0  0  0  0  0  0  0  0  0
   37.4550   25.7360   35.6070 C   0  0  0  0  0  0  0  0  0  0  0  0
   38.4580   26.4180   36.5220 C   0  0  0  0  0  0  0  0  0  0  0  0
   39.0550   27.4650   35.7700 N   0  0  0  0  0  0  0  0  0  0  0  0
   39.8950   26.9890   34.7220 C   0  0  0  0  0  0  0  0  0  0  0  0
   39.6370   25.5270   34.4300 C   0  0  2  0  0  0  0  0  0  0  0  0
   37.0310   24.8630   36.1070 H   0  0  0  0  0  0  0  0  0  0  0  0
   36.6640   26.4730   35.3580 H   0  0  0  0  0  0  0  0  0  0  0  0
   37.8350   26.9010   37.3140 H   0  0  0  0  0  0  0  0  0  0  0  0
   39.1260   25.7300   37.0300 H   0  0  0  0  0  0  0  0  0  0  0  0
   39.4840   28.1460   36.4230 H   0  0  0  0  0  0  0  0  0  0  0  0
   39.6100   27.5420   33.8020 H   0  0  0  0  0  0  0  0  0  0  0  0
   40.9350   27.1720   35.0560 H   0  0  0  0  0  0  0  0  0  0  0  0
   40.0150   24.9420   35.2910 H   0  0  0  0  0  0  0  0  0  0  0  0
   37.6120   22.4790   34.3830 Cl  0  0  0  0  0  0  0  0  0  0  0  0
   37.2870   23.5410   33.0420 C   0  0  0  0  0  0  0  0  0  0  0  0
   36.7400   23.0380   31.9130 C   0  0  0  0  0  0  0  0  0  0  0  0
   36.4900   23.9670   30.9040 C   0  0  0  0  0  0  0  0  0  0  0  0
   36.7510   25.3010   30.9780 C   0  0  0  0  0  0  0  0  0  0  0  0
   37.3110   25.7640   32.1510 C   0  0  0  0  0  0  0  0  0  0  0  0
   37.5840   24.8800   33.1960 C   0  0  0  0  0  0  0  0  0  0  0  0
   36.0460   23.6030   29.9730 H   0  0  0  0  0  0  0  0  0  0  0  0
   36.5390   25.9860   30.1710 H   0  0  0  0  0  0  0  0  0  0  0  0
   37.5620   26.8010   32.3250 H   0  0  0  0  0  0  0  0  0  0  0  0
   34.9240   19.7500   31.9880 C   0  0  0  0  0  0  0  0  0  0  0  0
   35.1820   21.1230   32.1230 C   0  0  0  0  0  0  0  0  0  0  0  0
   36.4480   21.6320   31.8000 C   0  0  0  0  0  0  0  0  0  0  0  0
   37.3900   20.7380   31.3620 N   0  0  0  0  0  0  0  0  0  0  0  0
   37.1260   19.4260   31.2410 C   0  0  0  0  0  0  0  0  0  0  0  0
   35.8990   18.9220   31.5500 N   0  0  0  0  0  0  0  0  0  0  0  0
   33.9840   19.2690   32.2110 H   0  0  0  0  0  0  0  0  0  0  0  0
   34.3180   21.6200   32.5090 H   0  0  0  0  0  0  0  0  0  0  0  0
   37.9950   18.8920   30.8830 H   0  0  0  0  0  0  0  0  0  0  0  0
   40.2490   25.0220   33.1900 C   0  0  0  0  0  2  0  0  0  0  0  0
   41.3380   24.0250   33.2950 C   0  0  2  0  0  0  0  0  0  0  0  0
   40.9990   22.7070   33.8800 C   0  0  0  0  0  2  0  0  0  0  0  0
   41.5540   22.6070   35.2030 N   0  0  2  0  0  0  0  0  0  0  0  0
   41.7600   22.4080   36.5970 C   0  0  2  0  0  0  0  0  0  0  0  0
   41.1080   21.8300   37.5280 O   0  0  0  0  0  1  0  0  0  0  0  0
   43.0670   23.1410   36.6200 C   0  0  0  0  0  3  0  0  0  0  0  0
   43.0200   24.1660   36.9960 H   0  0  0  0  0  0  0  0  0  0  0  0
   42.9600   22.9660   35.1420 C   0  0  1  0  0  0  0  0  0  0  0  0
   42.7920   24.5500   34.2200 S   0  0  0  0  0  0  0  0  0  0  0  0
   41.8260   23.7890   31.8730 C   0  0  0  0  0  2  0  0  0  0  0  0
   42.7610   23.2250   31.8700 H   0  0  0  0  0  0  0  0  0  0  0  0
  1  6  1  0  0  0  0
  1  2  1  0  0  0  0
  2  7  1  0  0  0  0
  2  3  1  0  0  0  0
  3 10  1  0  0  0  0
  3  9  1  0  0  0  0
  4 11  1  0  0  0  0
  4  3  1  0  0  0  0
  5 13  1  0  0  0  0
  5  4  1  0  0  0  0
  6  5  1  0  0  0  0
  6 14  1  1  0  0  0
  8  2  1  0  0  0  0
 12  5  1  0  0  0  0
 16 21  1  0  0  0  0
 16 15  1  0  0  0  0
 17 16  2  0  0  0  0
 18 19  2  0  0  0  0
 18 17  1  0  0  0  0
 19 20  1  0  0  0  0
 20 24  1  0  0  0  0
 20 21  2  0  0  0  0
 21  1  1  0  0  0  0
 22 18  1  0  0  0  0
 23 19  1  0  0  0  0
 25 26  1  0  0  0  0
 25 31  1  0  0  0  0
 26 32  1  0  0  0  0
 27 17  1  0  0  0  0
 27 26  2  0  0  0  0
 28 27  1  0  0  0  0
 29 28  2  0  0  0  0
 29 30  1  0  0  0  0
 30 25  2  0  0  0  0
 33 29  1  0  0  0  0
 34 35  1  0  0  0  0
 34  6  1  0  0  0  0
 35 44  1  6  0  0  0
 35 36  1  0  0  0  0
 35 43  1  0  0  0  0
 37 36  1  1  0  0  0
 37 38  1  0  0  0  0
 38 40  1  0  0  0  0
 38 39  1  1  0  0  0
 40 41  1  0  0  0  0
 42 43  1  1  0  0  0
 42 37  1  0  0  0  0
 42 38  1  0  0  0  0
 42 40  1  0  0  0  0
 45 44  1  0  0  0  0
M  END
>  <minimizedAffinity>
-5.57937336

$$$$

 OpenBabel03272505173D

 45 50  0  0  1  0  0  0  0  0999 V2000
   39.8220   25.9460   30.7430 N   0  0  0  0  0  0  0  0  0  0  0  0
   40.2840   24.8860   29.8660 C   0  0  0  0  0  0  0  0  0  0  0  0
   39.7420   25.2180   28.4860 C   0  0  0  0  0  0  0  0  0  0  0  0
   40.1500   26.5470   28.1930 N   0  0  0  0  0  0  0  0  0  0  0  0
   39.4990   27.5220   29.0030 C   0  0  0  0  0  0  0  0  0  0  0  0
   38.8450   26.8860   30.2110 C   0  0  2  0  0  0  0  0  0  0  0  0
   39.9210   23.9050   30.1800 H   0  0  0  0  0  0  0  0  0  0  0  0
   41.3920   24.8990   29.8090 H   0  0  0  0  0  0  0  0  0  0  0  0
   40.3020   24.5460   27.7930 H   0  0  0  0  0  0  0  0  0  0  0  0
   38.6890   24.9850   28.3610 H   0  0  0  0  0  0  0  0  0  0  0  0
   40.0960   26.6980   27.1680 H   0  0  0  0  0  0  0  0  0  0  0  0
   40.2890   28.1950   29.3990 H   0  0  0  0  0  0  0  0  0  0  0  0
   38.7630   28.0250   28.3460 H   0  0  0  0  0  0  0  0  0  0  0  0
   37.9810   26.2940   29.8510 H   0  0  0  0  0  0  0  0  0  0  0  0
   38.5100   24.2130   32.7430 Cl  0  0  0  0  0  0  0  0  0  0  0  0
   39.7130   25.4080   33.1390 C   0  0  0  0  0  0  0  0  0  0  0  0
   40.0880   25.5720   34.4270 C   0  0  0  0  0  0  0  0  0  0  0  0
   41.0760   26.5300   34.6460 C   0  0  0  0  0  0  0  0  0  0  0  0
   41.6690   27.2850   33.6810 C   0  0  0  0  0  0  0  0  0  0  0  0
   41.2510   27.0800   32.3820 C   0  0  0  0  0  0  0  0  0  0  0  0
   40.2630   26.1340   32.1030 C   0  0  0  0  0  0  0  0  0  0  0  0
   41.4090   26.6950   35.6740 H   0  0  0  0  0  0  0  0  0  0  0  0
   42.4330   28.0170   33.8950 H   0  0  0  0  0  0  0  0  0  0  0  0
   41.6480   27.6200   31.5330 H   0  0  0  0  0  0  0  0  0  0  0  0
   37.7420   24.4280   37.1290 C   0  0  0  0  0  0  0  0  0  0  0  0
   38.3160   25.2190   36.1230 C   0  0  0  0  0  0  0  0  0  0  0  0
   39.4830   24.7890   35.4750 C   0  0  0  0  0  0  0  0  0  0  0  0
   40.0150   23.5910   35.8720 N   0  0  0  0  0  0  0  0  0  0  0  0
   39.4530   22.8470   36.8400 C   0  0  0  0  0  0  0  0  0  0  0  0
   38.3180   23.2540   37.4740 N   0  0  0  0  0  0  0  0  0  0  0  0
   36.8480   24.6740   37.6810 H   0  0  0  0  0  0  0  0  0  0  0  0
   37.7530   26.1200   36.0030 H   0  0  0  0  0  0  0  0  0  0  0  0
   40.0210   21.9430   37.0070 H   0  0  0  0  0  0  0  0  0  0  0  0
   38.3920   27.8320   31.2440 C   0  0  0  0  0  2  0  0  0  0  0  0
   36.9630   27.8260   31.6300 C   0  0  2  0  0  0  0  0  0  0  0  0
   36.1330   28.9650   31.1780 C   0  0  0  0  0  2  0  0  0  0  0  0
   35.8400   29.8240   32.2940 N   0  0  1  0  0  0  0  0  0  0  0  0
   35.6720   30.9350   33.1680 C   0  0  2  0  0  0  0  0  0  0  0  0
   35.6510   32.2000   33.0200 O   0  0  0  0  0  1  0  0  0  0  0  0
   35.5200   30.0850   34.3930 C   0  0  0  0  0  3  0  0  0  0  0  0
   36.4130   30.0060   35.0200 H   0  0  0  0  0  0  0  0  0  0  0  0
   35.3200   29.0100   33.3780 C   0  0  1  0  0  0  0  0  0  0  0  0
   36.6310   27.7200   33.3980 S   0  0  0  0  0  0  0  0  0  0  0  0
   36.3760   26.5570   31.0300 C   0  0  0  0  0  2  0  0  0  0  0  0
   35.3790   26.3620   31.4320 H   0  0  0  0  0  0  0  0  0  0  0  0
  1 21  1  0  0  0  0
  2  7  1  0  0  0  0
  2  1  1  0  0  0  0
  3  2  1  0  0  0  0
  4  3  1  0  0  0  0
  4  5  1  0  0  0  0
  5 12  1  0  0  0  0
  5  6  1  0  0  0  0
  6 14  1  6  0  0  0
  6  1  1  0  0  0  0
  6 34  1  0  0  0  0
  8  2  1  0  0  0  0
  9  3  1  0  0  0  0
 10  3  1  0  0  0  0
 11  4  1  0  0  0  0
 13  5  1  0  0  0  0
 15 16  1  0  0  0  0
 16 17  1  0  0  0  0
 17 18  2  0  0  0  0
 17 27  1  0  0  0  0
 18 22  1  0  0  0  0
 19 23  1  0  0  0  0
 19 18  1  0  0  0  0
 20 19  2  0  0  0  0
 21 20  1  0  0  0  0
 21 16  2  0  0  0  0
 24 20  1  0  0  0  0
 25 30  1  0  0  0  0
 25 31  1  0  0  0  0
 26 25  2  0  0  0  0
 27 28  2  0  0  0  0
 27 26  1  0  0  0  0
 28 29  1  0  0  0  0
 29 33  1  0  0  0  0
 29 30  2  0  0  0  0
 32 26  1  0  0  0  0
 34 35  1  0  0  0  0
 35 44  1  6  0  0  0
 35 43  1  0  0  0  0
 36 35  1  0  0  0  0
 37 36  1  6  0  0  0
 37 38  1  0  0  0  0
 37 42  1  0  0  0  0
 38 39  1  6  0  0  0
 38 42  1  0  0  0  0
 38 40  1  0  0  0  0
 40 41  1  0  0  0  0
 42 43  1  1  0  0  0
 42 40  1  0  0  0  0
 44 45  1  0  0  0  0
M  END
>  <minimizedAffinity>
-5.57256651

$$$$
