
 OpenBabel03272500573D

 38 41  0  0  1  0  0  0  0  0999 V2000
   38.2950   32.0270   47.3780 C   0  0  0  0  0  0  0  0  0  0  0  0
   38.8950   32.8990   48.2390 C   0  0  0  0  0  0  0  0  0  0  0  0
   38.4900   33.0390   49.5700 C   0  0  0  0  0  0  0  0  0  0  0  0
   37.3890   32.2120   50.0210 C   0  0  0  0  0  0  0  0  0  0  0  0
   36.8370   31.3660   49.1160 C   0  0  0  0  0  0  0  0  0  0  0  0
   37.2340   31.2400   47.8370 C   0  0  0  0  0  0  0  0  0  0  0  0
   39.7350   33.5410   47.9250 H   0  0  0  0  0  0  0  0  0  0  0  0
   39.0170   33.7590   50.2030 H   0  0  0  0  0  0  0  0  0  0  0  0
   37.1940   32.4250   51.0460 H   0  0  0  0  0  0  0  0  0  0  0  0
   36.0720   30.8420   49.6680 H   0  0  0  0  0  0  0  0  0  0  0  0
   40.0690   31.2790   45.8610 C   0  0  0  0  0  0  0  0  0  0  0  0
   38.8430   31.9780   46.0420 C   0  0  0  0  0  0  0  0  0  0  0  0
   38.3260   32.5230   44.8930 C   0  0  0  0  0  0  0  0  0  0  0  0
   38.9580   32.3810   43.7180 N   0  0  0  0  0  0  0  0  0  0  0  0
   40.0890   31.7310   43.5690 C   0  0  0  0  0  0  0  0  0  0  0  0
   40.6370   31.1830   44.6420 N   0  0  0  0  0  0  0  0  0  0  0  0
   40.5600   30.8090   46.7170 H   0  0  0  0  0  0  0  0  0  0  0  0
   37.4010   33.0520   45.0300 H   0  0  0  0  0  0  0  0  0  0  0  0
   40.5480   31.6510   42.5930 H   0  0  0  0  0  0  0  0  0  0  0  0
   35.2500   30.0660   47.3720 C   0  0  0  0  0  0  0  0  0  0  0  0
   34.8020   30.5740   48.4750 O   0  0  0  0  0  0  0  0  0  0  0  0
   36.6070   30.3790   46.9730 N   0  0  0  0  0  0  0  0  0  0  0  0
   37.0410   29.9880   46.1310 H   0  0  0  0  0  0  0  0  0  0  0  0
   34.4300   29.2560   46.6330 O   0  0  0  0  0  0  0  0  0  0  0  0
   33.1460   29.5860   46.2200 C   0  0  0  0  0  0  0  0  0  0  0  0
   32.6940   30.8210   46.2840 O   0  0  0  0  0  0  0  0  0  0  0  0
   31.9620   30.7710   42.3980 C   0  0  0  0  0  0  0  0  0  0  0  0
   30.6700   30.1300   42.8550 C   0  0  0  0  0  2  0  0  0  0  0  0
   30.8730   29.6390   44.2000 N   0  0  0  0  0  0  0  0  0  0  0  0
   30.8060   29.3690   45.5950 C   0  0  0  0  0  0  0  0  0  0  0  0
   29.9910   29.5940   46.5130 O   0  0  0  0  0  0  0  0  0  0  0  0
   32.1210   28.6770   45.6420 C   0  0  1  0  0  3  0  0  0  0  0  0
   31.9860   28.6810   44.1690 C   0  0  2  0  0  3  0  0  0  0  0  0
   33.1800   29.6710   43.2250 S   0  0  0  0  0  0  0  0  0  0  0  0
   32.1280   32.1880   42.8180 C   0  0  0  0  0  2  0  0  0  0  0  0
   33.0970   32.2600   43.3890 H   0  0  0  0  0  0  0  0  0  0  0  0
   32.0580   30.5500   40.9040 C   0  0  0  0  0  2  0  0  0  0  0  0
   31.3060   31.1850   40.4070 H   0  0  0  0  0  0  0  0  0  0  0  0
  1  6  2  0  0  0  0
  1  2  1  0  0  0  0
  2  3  2  0  0  0  0
  3  4  1  0  0  0  0
  3  8  1  0  0  0  0
  4  9  1  0  0  0  0
  5 10  1  0  0  0  0
  5  4  2  0  0  0  0
  6  5  1  0  0  0  0
  7  2  1  0  0  0  0
 11 12  1  0  0  0  0
 11 17  1  0  0  0  0
 12  1  1  0  0  0  0
 13 18  1  0  0  0  0
 13 12  2  0  0  0  0
 14 13  1  0  0  0  0
 15 14  2  0  0  0  0
 15 16  1  0  0  0  0
 16 11  2  0  0  0  0
 19 15  1  0  0  0  0
 20 21  2  0  0  0  0
 22 20  1  0  0  0  0
 22  6  1  0  0  0  0
 23 22  1  0  0  0  0
 24 20  1  0  0  0  0
 25 26  2  0  0  0  0
 25 24  1  0  0  0  0
 27 35  1  0  0  0  0
 27 28  1  0  0  0  0
 27 34  1  0  0  0  0
 28 29  1  0  0  0  0
 29 30  1  0  0  0  0
 30 32  1  0  0  0  0
 30 31  2  0  0  0  0
 32 25  1  6  0  0  0
 33 34  1  6  0  0  0
 33 29  1  0  0  0  0
 33 32  1  0  0  0  0
 35 36  1  0  0  0  0
 37 27  1  0  0  0  0
 38 37  1  0  0  0  0
M  END
>  <minimizedAffinity>
-5.84006071

>  <minimizedRMSD>
0.645866215

$$$$
