REMARK  Name = 
REMARK  4 active torsions:
REMARK  status: ('A' for Active; 'I' for Inactive)
REMARK    1  A    between atoms: C_1  and  C_7
REMARK    2  A    between atoms: C_7  and  C_21
REMARK    3  A    between atoms: C_12  and  C_14
REMARK    4  A    between atoms: C_14  and  C_15
REMARK                            x       y       z     vdW  Elec       q    Type
REMARK                         _______ _______ _______ _____ _____    ______ ____
ROOT
ATOM      1  C   UNL     1      33.834  28.457  48.703  0.00  0.00    +0.000 C 
ATOM      2  C   UNL     1      33.924  27.320  49.667  0.00  0.00    +0.000 C 
ATOM      3  N   UNL     1      35.105  27.502  50.489  0.00  0.00    +0.000 N 
ATOM      4  C   UNL     1      35.986  27.641  51.599  0.00  0.00    +0.000 C 
ATOM      5  O   UNL     1      35.959  27.467  52.846  0.00  0.00    +0.000 OA
ATOM      6  C   UNL     1      37.113  28.118  50.754  0.00  0.00    +0.000 C 
ATOM      7  C   UNL     1      36.261  27.668  49.624  0.00  0.00    +0.000 C 
ATOM      8  S   UNL     1      35.572  29.028  48.599  0.00  0.00    +0.000 S 
ENDROOT
BRANCH   6   9
ATOM      9  C   UNL     1      37.389  29.571  50.874  0.00  0.00    +0.000 C 
ATOM     10  O   UNL     1      37.400  30.011  52.048  0.00  0.00    +0.000 OA
BRANCH   9  11
ATOM     11  C   UNL     1      37.624  30.395  49.701  0.00  0.00    +0.000 A 
ATOM     12  C   UNL     1      38.325  31.584  49.909  0.00  0.00    +0.000 A 
ATOM     13  C   UNL     1      38.571  32.409  48.789  0.00  0.00    +0.000 A 
ATOM     14  N   UNL     1      38.106  31.984  47.577  0.00  0.00    +0.000 NA
ATOM     15  C   UNL     1      37.440  30.837  47.424  0.00  0.00    +0.000 A 
ATOM     16  N   UNL     1      37.199  30.041  48.488  0.00  0.00    +0.000 NA
ATOM     17  H   UNL     1      38.709  31.954  50.852  0.00  0.00    +0.000 HD
ATOM     18  H   UNL     1      39.111  33.355  48.863  0.00  0.00    +0.000 HD
ATOM     19  H   UNL     1      37.112  30.587  46.424  0.00  0.00    +0.000 HD
ENDBRANCH   9  11
ENDBRANCH   6   9
BRANCH   1  20
ATOM     20  C   UNL     1      32.884  29.544  49.081  0.00  0.00    +0.000 C 
ATOM     21  H   UNL     1      32.498  29.975  48.112  0.00  0.00    +0.000 HD
ENDBRANCH   1  20
BRANCH   1  22
ATOM     22  C   UNL     1      33.522  27.917  47.300  0.00  0.00    +0.000 C 
ATOM     23  H   UNL     1      34.156  27.023  47.167  0.00  0.00    +0.000 HD
ENDBRANCH   1  22
TORSDOF 4
