
 OpenBabel03272500223D

 40 44  0  0  1  0  0  0  0  0999 V2000
   35.4350   29.3060   50.4350 C   0  0  0  0  0  0  0  0  0  0  0  0
   36.3690   30.1590   49.7770 C   0  0  0  0  0  0  0  0  0  0  0  0
   36.3380   30.2530   48.3840 C   0  0  0  0  0  0  0  0  0  0  0  0
   35.3910   29.5000   47.7460 N   0  0  0  0  0  0  0  0  0  0  0  0
   34.5370   28.7200   48.3500 C   0  0  0  0  0  0  0  0  0  0  0  0
   34.5420   28.6080   49.6920 N   0  0  0  0  0  0  0  0  0  0  0  0
   35.4450   29.2220   51.5140 H   0  0  0  0  0  0  0  0  0  0  0  0
   32.8300   30.3490   46.4480 Cl  0  0  0  0  0  0  0  0  0  0  0  0
   32.7280   28.5990   46.6390 C   0  0  0  0  0  0  0  0  0  0  0  0
   33.5640   27.9580   47.5440 C   0  0  0  0  0  0  0  0  0  0  0  0
   33.5270   26.5690   47.7380 C   0  0  0  0  0  0  0  0  0  0  0  0
   32.5970   25.8770   46.9630 C   0  0  0  0  0  0  0  0  0  0  0  0
   31.7630   26.4890   46.0650 C   0  0  0  0  0  0  0  0  0  0  0  0
   30.6460   25.4940   45.1620 Cl  0  0  0  0  0  0  0  0  0  0  0  0
   31.8340   27.8670   45.9050 C   0  0  0  0  0  0  0  0  0  0  0  0
   34.1810   26.0740   48.4440 H   0  0  0  0  0  0  0  0  0  0  0  0
   32.5580   24.8050   47.1020 H   0  0  0  0  0  0  0  0  0  0  0  0
   30.9410   28.5480   44.9400 C   0  0  0  0  0  0  0  0  0  0  0  0
   29.9650   27.6510   44.4760 F   0  0  0  0  0  0  0  0  0  0  0  0
   31.6230   29.0740   43.8910 F   0  0  0  0  0  0  0  0  0  0  0  0
   30.2650   29.5640   45.5720 F   0  0  0  0  0  0  0  0  0  0  0  0
   37.3450   30.9190   50.6230 C   0  0  0  0  0  0  0  0  0  0  0  0
   38.6360   30.8030   50.1220 F   0  0  0  0  0  0  0  0  0  0  0  0
   37.0000   32.2560   50.5570 F   0  0  0  0  0  0  0  0  0  0  0  0
   37.3180   30.5450   51.9420 F   0  0  0  0  0  0  0  0  0  0  0  0
   37.2850   31.1270   47.6990 C   0  0  0  0  0  0  0  0  0  0  0  0
   36.7810   32.1080   47.5310 H   0  0  0  0  0  0  0  0  0  0  0  0
   38.2560   31.2500   48.2260 H   0  0  0  0  0  0  0  0  0  0  0  0
   37.2320   30.9190   42.6140 C   0  0  0  0  0  0  0  0  0  0  0  0
   38.5050   30.5440   43.2510 C   0  0  0  0  0  2  0  0  0  0  0  0
   38.5290   30.8360   44.6250 N   0  0  2  0  0  0  0  0  0  0  0  0
   39.0140   30.9830   45.9500 C   0  0  2  0  0  0  0  0  0  0  0  0
   40.1500   31.3700   46.3840 O   0  0  0  0  0  1  0  0  0  0  0  0
   37.6420   30.5030   46.3700 C   0  0  2  0  0  3  0  0  0  0  0  0
   37.2780   31.3200   45.1950 C   0  0  2  0  0  0  0  0  0  0  0  0
   36.0720   30.6550   44.0210 S   0  0  0  0  0  0  0  0  0  0  0  0
   36.8480   30.0400   41.4510 C   0  0  0  0  0  2  0  0  0  0  0  0
   37.0510   28.9980   41.7560 H   0  0  0  0  0  0  0  0  0  0  0  0
   37.2580   32.3930   42.2740 C   0  0  0  0  0  2  0  0  0  0  0  0
   37.1460   32.9360   43.2540 H   0  0  0  0  0  0  0  0  0  0  0  0
  1  7  1  0  0  0  0
  2  1  1  0  0  0  0
  2 22  1  0  0  0  0
  3  2  2  0  0  0  0
  4  5  2  0  0  0  0
  4  3  1  0  0  0  0
  5  6  1  0  0  0  0
  6  1  2  0  0  0  0
  8  9  1  0  0  0  0
  9 10  1  0  0  0  0
 10 11  2  0  0  0  0
 10  5  1  0  0  0  0
 11 16  1  0  0  0  0
 12 17  1  0  0  0  0
 12 11  1  0  0  0  0
 13 12  2  0  0  0  0
 14 13  1  0  0  0  0
 15 13  1  0  0  0  0
 15  9  2  0  0  0  0
 18 21  1  0  0  0  0
 18 15  1  0  0  0  0
 19 18  1  0  0  0  0
 20 18  1  0  0  0  0
 22 25  1  0  0  0  0
 23 22  1  0  0  0  0
 24 22  1  0  0  0  0
 26 28  1  0  0  0  0
 26  3  1  0  0  0  0
 27 26  1  0  0  0  0
 29 30  1  0  0  0  0
 29 36  1  0  0  0  0
 31 30  1  1  0  0  0
 31 35  1  0  0  0  0
 31 32  1  0  0  0  0
 32 34  1  0  0  0  0
 32 33  1  1  0  0  0
 34 26  1  1  0  0  0
 35 36  1  6  0  0  0
 35 32  1  0  0  0  0
 35 34  1  0  0  0  0
 37 38  1  0  0  0  0
 37 29  1  0  0  0  0
 39 29  1  0  0  0  0
 39 40  1  0  0  0  0
M  END
>  <minimizedAffinity>
-6.6561923

>  <minimizedRMSD>
0.973922133

$$$$
