
 OpenBabel03262522013D

 23 25  0  0  1  0  0  0  0  0999 V2000
   37.1310   24.6360   31.3760 C   0  0  0  0  0  0  0  0  0  0  0  0
   37.8720   23.5580   30.6550 C   0  0  0  0  0  2  0  0  0  0  0  0
   38.2820   22.5540   31.6170 N   0  0  0  0  0  0  0  0  0  0  0  0
   38.4870   21.3190   32.2970 C   0  0  0  0  0  0  0  0  0  0  0  0
   38.3570   20.0890   32.0660 O   0  0  0  0  0  0  0  0  0  0  0  0
   38.9690   21.9850   33.5370 C   0  0  1  0  0  3  0  0  0  0  0  0
   39.0250   23.2000   32.6850 C   0  0  2  0  0  3  0  0  0  0  0  0
   37.7630   24.4730   33.0870 S   0  0  0  0  0  0  0  0  0  0  0  0
   37.9910   21.9690   34.6530 C   0  0  0  0  0  0  0  0  0  0  0  0
   36.8540   21.5340   34.3530 O   0  0  0  0  0  0  0  0  0  0  0  0
   38.3540   22.4310   35.9820 C   0  0  0  0  0  0  0  0  0  0  0  0
   39.6890   22.2640   36.3530 C   0  0  0  0  0  0  0  0  0  0  0  0
   40.0760   22.7030   37.6390 C   0  0  0  0  0  0  0  0  0  0  0  0
   39.1140   23.2630   38.4310 N   0  0  0  0  0  0  0  0  0  0  0  0
   37.8470   23.4030   38.0340 C   0  0  0  0  0  0  0  0  0  0  0  0
   37.4670   22.9870   36.8070 N   0  0  0  0  0  0  0  0  0  0  0  0
   40.4790   21.8260   35.7540 H   0  0  0  0  0  0  0  0  0  0  0  0
   41.0990   22.6100   38.0090 H   0  0  0  0  0  0  0  0  0  0  0  0
   37.1590   23.8590   38.7340 H   0  0  0  0  0  0  0  0  0  0  0  0
   35.6430   24.5580   31.2920 C   0  0  0  0  0  2  0  0  0  0  0  0
   35.2700   25.6220   31.3410 H   0  0  0  0  0  0  0  0  0  0  0  0
   37.6370   26.0080   30.9080 C   0  0  0  0  0  2  0  0  0  0  0  0
   38.7360   25.9260   30.8480 H   0  0  0  0  0  0  0  0  0  0  0  0
  1  8  1  0  0  0  0
  2  1  1  0  0  0  0
  2  3  1  0  0  0  0
  3  4  1  0  0  0  0
  3  7  1  0  0  0  0
  4  6  1  0  0  0  0
  5  4  2  0  0  0  0
  6  9  1  1  0  0  0
  7  8  1  1  0  0  0
  7  6  1  0  0  0  0
  9 11  1  0  0  0  0
 10  9  2  0  0  0  0
 11 12  2  0  0  0  0
 11 16  1  0  0  0  0
 12 13  1  0  0  0  0
 13 18  1  0  0  0  0
 13 14  2  0  0  0  0
 15 14  1  0  0  0  0
 15 19  1  0  0  0  0
 16 15  2  0  0  0  0
 17 12  1  0  0  0  0
 20 21  1  0  0  0  0
 20  1  1  0  0  0  0
 22  1  1  0  0  0  0
 23 22  1  0  0  0  0
M  END
>  <minimizedAffinity>
-4.5408802

$$$$

 OpenBabel03262522013D

 23 25  0  0  1  0  0  0  0  0999 V2000
   38.7430   23.3040   36.1630 C   0  0  0  0  0  0  0  0  0  0  0  0
   38.0680   24.4850   36.7800 C   0  0  0  0  0  2  0  0  0  0  0  0
   38.0140   25.5520   35.8000 N   0  0  0  0  0  0  0  0  0  0  0  0
   37.5580   26.5860   34.9320 C   0  0  0  0  0  0  0  0  0  0  0  0
   36.5150   27.2660   34.7510 O   0  0  0  0  0  0  0  0  0  0  0  0
   38.8460   26.6460   34.1890 C   0  0  1  0  0  3  0  0  0  0  0  0
   39.3550   25.8030   35.3010 C   0  0  2  0  0  3  0  0  0  0  0  0
   39.7390   24.0690   34.8300 S   0  0  0  0  0  0  0  0  0  0  0  0
   38.7950   26.0440   32.8340 C   0  0  0  0  0  0  0  0  0  0  0  0
   39.9110   25.8760   32.2890 O   0  0  0  0  0  0  0  0  0  0  0  0
   37.5310   25.6890   32.2120 C   0  0  0  0  0  0  0  0  0  0  0  0
   37.1590   24.3450   32.2880 C   0  0  0  0  0  0  0  0  0  0  0  0
   35.9350   23.9650   31.6930 C   0  0  0  0  0  0  0  0  0  0  0  0
   35.1980   24.9420   31.0860 N   0  0  0  0  0  0  0  0  0  0  0  0
   35.5920   26.2160   31.0390 C   0  0  0  0  0  0  0  0  0  0  0  0
   36.7610   26.5900   31.6030 N   0  0  0  0  0  0  0  0  0  0  0  0
   37.7150   23.5440   32.7600 H   0  0  0  0  0  0  0  0  0  0  0  0
   35.5700   22.9370   31.7060 H   0  0  0  0  0  0  0  0  0  0  0  0
   34.9390   26.9160   30.5350 H   0  0  0  0  0  0  0  0  0  0  0  0
   37.8320   22.2300   35.6690 C   0  0  0  0  0  2  0  0  0  0  0  0
   38.3990   21.2610   35.7810 H   0  0  0  0  0  0  0  0  0  0  0  0
   39.7810   22.7380   37.1420 C   0  0  0  0  0  2  0  0  0  0  0  0
   40.3020   23.6080   37.5760 H   0  0  0  0  0  0  0  0  0  0  0  0
  1  2  1  0  0  0  0
  1 22  1  0  0  0  0
  3  2  1  0  0  0  0
  4  3  1  0  0  0  0
  5  4  2  0  0  0  0
  6  9  1  6  0  0  0
  6  4  1  0  0  0  0
  6  7  1  0  0  0  0
  7  8  1  6  0  0  0
  7  3  1  0  0  0  0
  8  1  1  0  0  0  0
 10  9  2  0  0  0  0
 11 12  1  0  0  0  0
 11  9  1  0  0  0  0
 12 17  1  0  0  0  0
 13 18  1  0  0  0  0
 13 12  2  0  0  0  0
 14 13  1  0  0  0  0
 15 14  2  0  0  0  0
 15 16  1  0  0  0  0
 16 11  2  0  0  0  0
 19 15  1  0  0  0  0
 20 21  1  0  0  0  0
 20  1  1  0  0  0  0
 22 23  1  0  0  0  0
M  END
>  <minimizedAffinity>
-4.53362274

$$$$

 OpenBabel03262522013D

 23 25  0  0  1  0  0  0  0  0999 V2000
   36.8480   27.5220   32.2870 C   0  0  0  0  0  0  0  0  0  0  0  0
   38.2260   27.6530   31.7270 C   0  0  0  0  0  2  0  0  0  0  0  0
   39.0970   26.7190   32.4140 N   0  0  0  0  0  0  0  0  0  0  0  0
   40.0320   25.6830   32.7000 C   0  0  0  0  0  0  0  0  0  0  0  0
   40.8590   24.9690   32.0780 O   0  0  0  0  0  0  0  0  0  0  0  0
   39.7110   25.6800   34.1530 C   0  0  1  0  0  3  0  0  0  0  0  0
   38.9920   26.9430   33.8460 C   0  0  2  0  0  3  0  0  0  0  0  0
   37.1620   26.8230   33.9510 S   0  0  0  0  0  0  0  0  0  0  0  0
   38.9040   24.5160   34.5950 C   0  0  0  0  0  0  0  0  0  0  0  0
   38.2820   23.9270   33.6790 O   0  0  0  0  0  0  0  0  0  0  0  0
   38.8580   24.1130   35.9900 C   0  0  0  0  0  0  0  0  0  0  0  0
   39.8610   23.2410   36.4170 C   0  0  0  0  0  0  0  0  0  0  0  0
   39.8460   22.8300   37.7680 C   0  0  0  0  0  0  0  0  0  0  0  0
   38.8490   23.3170   38.5650 N   0  0  0  0  0  0  0  0  0  0  0  0
   37.9100   24.1510   38.1140 C   0  0  0  0  0  0  0  0  0  0  0  0
   37.9150   24.5510   36.8240 N   0  0  0  0  0  0  0  0  0  0  0  0
   40.6660   22.8350   35.8160 H   0  0  0  0  0  0  0  0  0  0  0  0
   40.5920   22.1500   38.1840 H   0  0  0  0  0  0  0  0  0  0  0  0
   37.1620   24.4820   38.8230 H   0  0  0  0  0  0  0  0  0  0  0  0
   35.9020   26.7010   31.4760 C   0  0  0  0  0  2  0  0  0  0  0  0
   34.8750   27.1350   31.6570 H   0  0  0  0  0  0  0  0  0  0  0  0
   36.2700   28.9180   32.5600 C   0  0  0  0  0  2  0  0  0  0  0  0
   37.0860   29.5050   33.0160 H   0  0  0  0  0  0  0  0  0  0  0  0
  1 22  1  0  0  0  0
  1  8  1  0  0  0  0
  2  1  1  0  0  0  0
  2  3  1  0  0  0  0
  3  4  1  0  0  0  0
  3  7  1  0  0  0  0
  4  6  1  0  0  0  0
  5  4  2  0  0  0  0
  6  9  1  6  0  0  0
  7  8  1  1  0  0  0
  7  6  1  0  0  0  0
  9 11  1  0  0  0  0
 10  9  2  0  0  0  0
 11 12  2  0  0  0  0
 11 16  1  0  0  0  0
 12 13  1  0  0  0  0
 13 18  1  0  0  0  0
 13 14  2  0  0  0  0
 15 14  1  0  0  0  0
 15 19  1  0  0  0  0
 16 15  2  0  0  0  0
 17 12  1  0  0  0  0
 20 21  1  0  0  0  0
 20  1  1  0  0  0  0
 22 23  1  0  0  0  0
M  END
>  <minimizedAffinity>
-4.44955969

$$$$

 OpenBabel03262522013D

 23 25  0  0  1  0  0  0  0  0999 V2000
   38.4630   25.5590   34.3920 C   0  0  0  0  0  0  0  0  0  0  0  0
   37.2780   26.2600   33.8150 C   0  0  0  0  0  2  0  0  0  0  0  0
   36.8600   25.5560   32.6180 N   0  0  0  0  0  0  0  0  0  0  0  0
   36.0870   24.8630   31.6420 C   0  0  0  0  0  0  0  0  0  0  0  0
   34.8760   24.6140   31.4100 O   0  0  0  0  0  0  0  0  0  0  0  0
   37.2860   24.4550   30.8610 C   0  0  1  0  0  3  0  0  0  0  0  0
   37.9970   25.4340   31.7220 C   0  0  2  0  0  3  0  0  0  0  0  0
   39.1510   24.6830   32.9380 S   0  0  0  0  0  0  0  0  0  0  0  0
   37.6440   23.0220   31.0030 C   0  0  0  0  0  0  0  0  0  0  0  0
   38.6790   22.6730   30.3860 O   0  0  0  0  0  0  0  0  0  0  0  0
   36.8380   22.1170   31.8030 C   0  0  0  0  0  0  0  0  0  0  0  0
   35.8660   21.3840   31.1190 C   0  0  0  0  0  0  0  0  0  0  0  0
   35.0640   20.4930   31.8670 C   0  0  0  0  0  0  0  0  0  0  0  0
   35.2960   20.4100   33.2100 N   0  0  0  0  0  0  0  0  0  0  0  0
   36.2380   21.1300   33.8230 C   0  0  0  0  0  0  0  0  0  0  0  0
   37.0110   21.9850   33.1180 N   0  0  0  0  0  0  0  0  0  0  0  0
   35.6530   21.4220   30.0570 H   0  0  0  0  0  0  0  0  0  0  0  0
   34.2820   19.8830   31.4110 H   0  0  0  0  0  0  0  0  0  0  0  0
   36.3460   20.9950   34.8910 H   0  0  0  0  0  0  0  0  0  0  0  0
   38.1750   24.6500   35.5400 C   0  0  0  0  0  2  0  0  0  0  0  0
   39.0970   24.6630   36.1910 H   0  0  0  0  0  0  0  0  0  0  0  0
   39.5380   26.5900   34.7640 C   0  0  0  0  0  2  0  0  0  0  0  0
   39.5740   27.3110   33.9300 H   0  0  0  0  0  0  0  0  0  0  0  0
  1 22  1  0  0  0  0
  1 20  1  0  0  0  0
  2  1  1  0  0  0  0
  3  2  1  0  0  0  0
  4  3  1  0  0  0  0
  5  4  2  0  0  0  0
  6  9  1  1  0  0  0
  6  4  1  0  0  0  0
  6  7  1  0  0  0  0
  7  3  1  0  0  0  0
  7  8  1  1  0  0  0
  8  1  1  0  0  0  0
  9 11  1  0  0  0  0
 10  9  2  0  0  0  0
 11 16  1  0  0  0  0
 12 11  2  0  0  0  0
 12 13  1  0  0  0  0
 13 14  2  0  0  0  0
 14 15  1  0  0  0  0
 15 19  1  0  0  0  0
 16 15  2  0  0  0  0
 17 12  1  0  0  0  0
 18 13  1  0  0  0  0
 20 21  1  0  0  0  0
 23 22  1  0  0  0  0
M  END
>  <minimizedAffinity>
-4.44204473

$$$$

 OpenBabel03262522013D

 23 25  0  0  1  0  0  0  0  0999 V2000
   39.2350   26.5810   31.0690 C   0  0  0  0  0  0  0  0  0  0  0  0
   37.9010   27.2410   31.1890 C   0  0  0  0  0  2  0  0  0  0  0  0
   37.4630   27.1550   32.5690 N   0  0  0  0  0  0  0  0  0  0  0  0
   36.9980   27.4810   33.8760 C   0  0  0  0  0  0  0  0  0  0  0  0
   36.4930   28.4670   34.4730 O   0  0  0  0  0  0  0  0  0  0  0  0
   37.3210   26.1330   34.4170 C   0  0  1  0  0  3  0  0  0  0  0  0
   37.5000   25.7650   32.9900 C   0  0  2  0  0  3  0  0  0  0  0  0
   39.2400   25.4370   32.5000 S   0  0  0  0  0  0  0  0  0  0  0  0
   38.5180   26.1020   35.2940 C   0  0  0  0  0  0  0  0  0  0  0  0
   39.2030   27.1520   35.2880 O   0  0  0  0  0  0  0  0  0  0  0  0
   38.8440   24.9290   36.0870 C   0  0  0  0  0  0  0  0  0  0  0  0
   38.0290   24.6820   37.1930 C   0  0  0  0  0  0  0  0  0  0  0  0
   38.3180   23.5490   37.9850 C   0  0  0  0  0  0  0  0  0  0  0  0
   39.3770   22.7710   37.6120 N   0  0  0  0  0  0  0  0  0  0  0  0
   40.1300   23.0450   36.5440 C   0  0  0  0  0  0  0  0  0  0  0  0
   39.8620   24.1260   35.7800 N   0  0  0  0  0  0  0  0  0  0  0  0
   37.1820   25.2740   37.5190 H   0  0  0  0  0  0  0  0  0  0  0  0
   37.7320   23.2830   38.8670 H   0  0  0  0  0  0  0  0  0  0  0  0
   40.9470   22.3690   36.3300 H   0  0  0  0  0  0  0  0  0  0  0  0
   40.4080   27.5030   31.0540 C   0  0  0  0  0  2  0  0  0  0  0  0
   41.1960   27.0000   30.4220 H   0  0  0  0  0  0  0  0  0  0  0  0
   39.2430   25.6610   29.8410 C   0  0  0  0  0  2  0  0  0  0  0  0
   38.2740   25.1330   29.8450 H   0  0  0  0  0  0  0  0  0  0  0  0
  1  2  1  0  0  0  0
  1  8  1  0  0  0  0
  2  3  1  0  0  0  0
  3  7  1  0  0  0  0
  3  4  1  0  0  0  0
  4  6  1  0  0  0  0
  4  5  2  0  0  0  0
  6  9  1  1  0  0  0
  7  8  1  1  0  0  0
  7  6  1  0  0  0  0
  9 11  1  0  0  0  0
 10  9  2  0  0  0  0
 11 12  1  0  0  0  0
 12 17  1  0  0  0  0
 12 13  2  0  0  0  0
 13 18  1  0  0  0  0
 14 13  1  0  0  0  0
 15 14  2  0  0  0  0
 16 11  2  0  0  0  0
 16 15  1  0  0  0  0
 19 15  1  0  0  0  0
 20  1  1  0  0  0  0
 21 20  1  0  0  0  0
 22 23  1  0  0  0  0
 22  1  1  0  0  0  0
M  END
>  <minimizedAffinity>
-4.36974525

$$$$

 OpenBabel03262522013D

 23 25  0  0  1  0  0  0  0  0999 V2000
   42.5450   25.0940   34.1450 C   0  0  0  0  0  0  0  0  0  0  0  0
   42.0850   26.4730   34.4850 C   0  0  0  0  0  2  0  0  0  0  0  0
   40.6470   26.4500   34.6700 N   0  0  0  0  0  0  0  0  0  0  0  0
   39.3380   26.5990   35.2130 C   0  0  0  0  0  0  0  0  0  0  0  0
   38.7850   27.1890   36.1780 O   0  0  0  0  0  0  0  0  0  0  0  0
   38.7160   25.7380   34.1720 C   0  0  1  0  0  3  0  0  0  0  0  0
   40.0290   25.8710   33.4890 C   0  0  2  0  0  3  0  0  0  0  0  0
   41.0290   24.3300   33.4550 S   0  0  0  0  0  0  0  0  0  0  0  0
   38.3210   24.3920   34.6530 C   0  0  0  0  0  0  0  0  0  0  0  0
   37.7560   23.6700   33.7980 O   0  0  0  0  0  0  0  0  0  0  0  0
   38.5820   23.9710   36.0190 C   0  0  0  0  0  0  0  0  0  0  0  0
   37.5790   24.2370   36.9520 C   0  0  0  0  0  0  0  0  0  0  0  0
   37.8010   23.8400   38.2900 C   0  0  0  0  0  0  0  0  0  0  0  0
   38.9840   23.2210   38.5770 N   0  0  0  0  0  0  0  0  0  0  0  0
   39.9160   22.9860   37.6510 C   0  0  0  0  0  0  0  0  0  0  0  0
   39.7150   23.3610   36.3700 N   0  0  0  0  0  0  0  0  0  0  0  0
   36.6300   24.7240   36.7630 H   0  0  0  0  0  0  0  0  0  0  0  0
   37.0690   24.0100   39.0820 H   0  0  0  0  0  0  0  0  0  0  0  0
   40.8210   22.4900   37.9770 H   0  0  0  0  0  0  0  0  0  0  0  0
   43.1290   24.3160   35.2760 C   0  0  0  0  0  2  0  0  0  0  0  0
   43.8980   23.6270   34.8200 H   0  0  0  0  0  0  0  0  0  0  0  0
   43.5180   25.1560   32.9590 C   0  0  0  0  0  2  0  0  0  0  0  0
   43.0830   25.8730   32.2420 H   0  0  0  0  0  0  0  0  0  0  0  0
  1  2  1  0  0  0  0
  1 20  1  0  0  0  0
  2  3  1  0  0  0  0
  3  4  1  0  0  0  0
  4  5  2  0  0  0  0
  6  9  1  1  0  0  0
  6  4  1  0  0  0  0
  7  8  1  1  0  0  0
  7  6  1  0  0  0  0
  7  3  1  0  0  0  0
  8  1  1  0  0  0  0
  9 11  1  0  0  0  0
 10  9  2  0  0  0  0
 11 16  2  0  0  0  0
 11 12  1  0  0  0  0
 12 13  2  0  0  0  0
 13 14  1  0  0  0  0
 13 18  1  0  0  0  0
 15 19  1  0  0  0  0
 15 14  2  0  0  0  0
 16 15  1  0  0  0  0
 17 12  1  0  0  0  0
 21 20  1  0  0  0  0
 22  1  1  0  0  0  0
 23 22  1  0  0  0  0
M  END
>  <minimizedAffinity>
-4.30825758

$$$$

 OpenBabel03262522013D

 23 25  0  0  1  0  0  0  0  0999 V2000
   37.2310   27.4090   32.7770 C   0  0  0  0  0  0  0  0  0  0  0  0
   36.6370   26.1420   32.2570 C   0  0  0  0  0  2  0  0  0  0  0  0
   37.5070   25.0390   32.6200 N   0  0  0  0  0  0  0  0  0  0  0  0
   38.0080   23.8090   33.1360 C   0  0  0  0  0  0  0  0  0  0  0  0
   37.5520   22.7320   33.6000 O   0  0  0  0  0  0  0  0  0  0  0  0
   39.4280   24.2120   32.9480 C   0  0  1  0  0  3  0  0  0  0  0  0
   38.8520   25.3250   32.1500 C   0  0  2  0  0  3  0  0  0  0  0  0
   39.0060   26.9810   32.9290 S   0  0  0  0  0  0  0  0  0  0  0  0
   40.1330   24.5580   34.2070 C   0  0  0  0  0  0  0  0  0  0  0  0
   41.2520   25.1030   34.0530 O   0  0  0  0  0  0  0  0  0  0  0  0
   39.5450   24.2750   35.5050 C   0  0  0  0  0  0  0  0  0  0  0  0
   40.0720   23.1840   36.1980 C   0  0  0  0  0  0  0  0  0  0  0  0
   39.5240   22.8800   37.4640 C   0  0  0  0  0  0  0  0  0  0  0  0
   38.5150   23.6780   37.9230 N   0  0  0  0  0  0  0  0  0  0  0  0
   38.0420   24.7130   37.2250 C   0  0  0  0  0  0  0  0  0  0  0  0
   38.5590   25.0120   36.0140 N   0  0  0  0  0  0  0  0  0  0  0  0
   40.8700   22.5290   35.8680 H   0  0  0  0  0  0  0  0  0  0  0  0
   39.8760   22.0450   38.0720 H   0  0  0  0  0  0  0  0  0  0  0  0
   37.2410   25.2860   37.6740 H   0  0  0  0  0  0  0  0  0  0  0  0
   36.6410   27.9190   34.0490 C   0  0  0  0  0  2  0  0  0  0  0  0
   36.7330   29.0440   34.0090 H   0  0  0  0  0  0  0  0  0  0  0  0
   37.1870   28.4830   31.6810 C   0  0  0  0  0  2  0  0  0  0  0  0
   37.4880   27.9810   30.7450 H   0  0  0  0  0  0  0  0  0  0  0  0
  1  8  1  0  0  0  0
  1 20  1  0  0  0  0
  2  3  1  0  0  0  0
  2  1  1  0  0  0  0
  3  4  1  0  0  0  0
  4  5  2  0  0  0  0
  6  4  1  0  0  0  0
  6  9  1  1  0  0  0
  7  3  1  0  0  0  0
  7  8  1  1  0  0  0
  7  6  1  0  0  0  0
  9 11  1  0  0  0  0
 10  9  2  0  0  0  0
 11 16  2  0  0  0  0
 11 12  1  0  0  0  0
 12 13  2  0  0  0  0
 13 14  1  0  0  0  0
 13 18  1  0  0  0  0
 15 19  1  0  0  0  0
 15 14  2  0  0  0  0
 16 15  1  0  0  0  0
 17 12  1  0  0  0  0
 21 20  1  0  0  0  0
 22  1  1  0  0  0  0
 23 22  1  0  0  0  0
M  END
>  <minimizedAffinity>
-4.23306608

$$$$

 OpenBabel03262522013D

 23 25  0  0  1  0  0  0  0  0999 V2000
   39.0030   23.6550   36.4030 C   0  0  0  0  0  0  0  0  0  0  0  0
   40.1780   23.9840   35.5430 C   0  0  0  0  0  2  0  0  0  0  0  0
   39.8760   23.5990   34.1770 N   0  0  0  0  0  0  0  0  0  0  0  0
   39.6830   23.6160   32.7660 C   0  0  0  0  0  0  0  0  0  0  0  0
   39.9470   24.3680   31.7920 O   0  0  0  0  0  0  0  0  0  0  0  0
   38.9800   22.3050   32.7630 C   0  0  1  0  0  3  0  0  0  0  0  0
   39.4750   22.2030   34.1590 C   0  0  2  0  0  3  0  0  0  0  0  0
   38.1680   22.3370   35.4430 S   0  0  0  0  0  0  0  0  0  0  0  0
   37.5140   22.4030   32.5550 C   0  0  0  0  0  0  0  0  0  0  0  0
   37.0550   23.5700   32.5690 O   0  0  0  0  0  0  0  0  0  0  0  0
   36.6980   21.2180   32.3540 C   0  0  0  0  0  0  0  0  0  0  0  0
   35.3190   21.4200   32.2790 C   0  0  0  0  0  0  0  0  0  0  0  0
   34.4960   20.2880   32.0840 C   0  0  0  0  0  0  0  0  0  0  0  0
   35.1090   19.0720   31.9790 N   0  0  0  0  0  0  0  0  0  0  0  0
   36.4340   18.9250   32.0560 C   0  0  0  0  0  0  0  0  0  0  0  0
   37.2300   20.0000   32.2430 N   0  0  0  0  0  0  0  0  0  0  0  0
   34.7970   22.3660   32.3570 H   0  0  0  0  0  0  0  0  0  0  0  0
   33.4090   20.3570   32.0140 H   0  0  0  0  0  0  0  0  0  0  0  0
   36.8250   17.9210   31.9620 H   0  0  0  0  0  0  0  0  0  0  0  0
   38.1050   24.8010   36.7280 C   0  0  0  0  0  2  0  0  0  0  0  0
   37.6710   24.5810   37.7460 H   0  0  0  0  0  0  0  0  0  0  0  0
   39.4840   22.9530   37.6810 C   0  0  0  0  0  2  0  0  0  0  0  0
   40.2580   22.2330   37.3640 H   0  0  0  0  0  0  0  0  0  0  0  0
  1 20  1  0  0  0  0
  1 22  1  0  0  0  0
  2  1  1  0  0  0  0
  3  2  1  0  0  0  0
  4  3  1  0  0  0  0
  5  4  2  0  0  0  0
  6  9  1  1  0  0  0
  6  4  1  0  0  0  0
  6  7  1  0  0  0  0
  7  3  1  0  0  0  0
  7  8  1  1  0  0  0
  8  1  1  0  0  0  0
  9 10  2  0  0  0  0
 11  9  1  0  0  0  0
 12 11  1  0  0  0  0
 12 17  1  0  0  0  0
 13 12  2  0  0  0  0
 14 15  2  0  0  0  0
 14 13  1  0  0  0  0
 15 16  1  0  0  0  0
 16 11  2  0  0  0  0
 18 13  1  0  0  0  0
 19 15  1  0  0  0  0
 20 21  1  0  0  0  0
 23 22  1  0  0  0  0
M  END
>  <minimizedAffinity>
-4.22436333

$$$$

 OpenBabel03262522013D

 23 25  0  0  1  0  0  0  0  0999 V2000
   38.3770   26.0270   35.2370 C   0  0  0  0  0  0  0  0  0  0  0  0
   38.1130   25.4310   36.5810 C   0  0  0  0  0  2  0  0  0  0  0  0
   38.7000   24.1060   36.6250 N   0  0  0  0  0  0  0  0  0  0  0  0
   39.4590   22.9610   37.0050 C   0  0  0  0  0  0  0  0  0  0  0  0
   40.1220   22.5630   37.9980 O   0  0  0  0  0  0  0  0  0  0  0  0
   39.2130   22.2650   35.7130 C   0  0  1  0  0  3  0  0  0  0  0  0
   38.2010   23.3320   35.5010 C   0  0  2  0  0  3  0  0  0  0  0  0
   38.6360   24.5450   34.1920 S   0  0  0  0  0  0  0  0  0  0  0  0
   40.3870   22.2360   34.8060 C   0  0  0  0  0  0  0  0  0  0  0  0
   40.1730   21.7230   33.6820 O   0  0  0  0  0  0  0  0  0  0  0  0
   41.6740   22.7690   35.2180 C   0  0  0  0  0  0  0  0  0  0  0  0
   42.6090   21.8420   35.6820 C   0  0  0  0  0  0  0  0  0  0  0  0
   43.8710   22.3270   36.0900 C   0  0  0  0  0  0  0  0  0  0  0  0
   44.0900   23.6720   36.0020 N   0  0  0  0  0  0  0  0  0  0  0  0
   43.1660   24.5230   35.5510 C   0  0  0  0  0  0  0  0  0  0  0  0
   41.9550   24.0710   35.1580 N   0  0  0  0  0  0  0  0  0  0  0  0
   42.4730   20.7700   35.7660 H   0  0  0  0  0  0  0  0  0  0  0  0
   44.6590   21.6710   36.4650 H   0  0  0  0  0  0  0  0  0  0  0  0
   43.4340   25.5710   35.5190 H   0  0  0  0  0  0  0  0  0  0  0  0
   39.5140   26.9920   35.1760 C   0  0  0  0  0  2  0  0  0  0  0  0
   39.2520   27.7350   34.3680 H   0  0  0  0  0  0  0  0  0  0  0  0
   37.0880   26.6600   34.6950 C   0  0  0  0  0  2  0  0  0  0  0  0
   36.2760   25.9490   34.9230 H   0  0  0  0  0  0  0  0  0  0  0  0
  1  2  1  0  0  0  0
  2  3  1  0  0  0  0
  3  4  1  0  0  0  0
  4  5  2  0  0  0  0
  6  9  1  6  0  0  0
  6  4  1  0  0  0  0
  7  8  1  6  0  0  0
  7  6  1  0  0  0  0
  7  3  1  0  0  0  0
  8  1  1  0  0  0  0
  9 11  1  0  0  0  0
 10  9  2  0  0  0  0
 11 12  1  0  0  0  0
 12 17  1  0  0  0  0
 12 13  2  0  0  0  0
 13 18  1  0  0  0  0
 14 13  1  0  0  0  0
 15 14  2  0  0  0  0
 16 11  2  0  0  0  0
 16 15  1  0  0  0  0
 19 15  1  0  0  0  0
 20  1  1  0  0  0  0
 21 20  1  0  0  0  0
 22 23  1  0  0  0  0
 22  1  1  0  0  0  0
M  END
>  <minimizedAffinity>
-4.22336626

$$$$
