
 OpenBabel03262521173D

 32 34  0  0  1  0  0  0  0  0999 V2000
   38.3070   31.3750   46.5600 C   0  0  0  0  0  0  0  0  0  0  0  0
   39.4330   32.1310   46.9090 C   0  0  0  0  0  0  0  0  0  0  0  0
   39.9170   33.0680   46.0010 C   0  0  0  0  0  0  0  0  0  0  0  0
   39.2610   33.1990   44.8080 N   0  0  0  0  0  0  0  0  0  0  0  0
   38.1640   32.4430   44.5020 C   0  0  0  0  0  0  0  0  0  0  0  0
   37.7180   31.5590   45.3730 N   0  0  0  0  0  0  0  0  0  0  0  0
   39.9880   32.0700   47.8330 H   0  0  0  0  0  0  0  0  0  0  0  0
   40.7860   33.6770   46.2250 H   0  0  0  0  0  0  0  0  0  0  0  0
   37.9430   30.4880   47.5610 O   0  0  0  0  0  0  0  0  0  0  0  0
   36.6040   30.4320   47.8880 C   0  0  0  0  0  0  0  0  0  0  0  0
   36.2490   31.4960   48.0000 H   0  0  0  0  0  0  0  0  0  0  0  0
   35.9450   30.0110   47.0980 H   0  0  0  0  0  0  0  0  0  0  0  0
   36.6890   29.7250   49.0270 C   0  0  0  0  0  0  0  0  0  0  0  0
   35.7260   29.8040   49.6160 H   0  0  0  0  0  0  0  0  0  0  0  0
   36.7330   28.6100   48.8900 H   0  0  0  0  0  0  0  0  0  0  0  0
   37.7960   30.0530   49.9730 C   0  0  0  0  0  0  0  0  0  0  0  0
   38.0810   31.1160   49.8060 H   0  0  0  0  0  0  0  0  0  0  0  0
   38.7250   29.4740   49.7990 H   0  0  0  0  0  0  0  0  0  0  0  0
   37.2970   29.9130   51.6930 S   0  0  0  0  0  0  0  0  0  0  0  0
   38.0450   30.7340   52.5610 H   0  0  0  0  0  0  0  0  0  0  0  0
   37.4670   32.6020   43.1980 C   0  0  0  0  0  2  0  0  0  0  0  0
   38.4120   32.1310   42.1300 C   0  0  2  0  0  0  0  0  0  0  0  0
   37.8860   30.9800   41.3120 C   0  0  0  0  0  2  0  0  0  0  0  0
   38.0600   29.7700   42.0480 N   0  0  0  0  0  0  0  0  0  0  0  0
   37.7730   28.5310   42.6960 C   0  0  0  0  0  0  0  0  0  0  0  0
   36.9370   27.5910   42.5960 O   0  0  0  0  0  0  0  0  0  0  0  0
   38.9250   28.8000   43.5970 C   0  0  0  0  0  3  0  0  0  0  0  0
   38.5960   29.4240   44.4500 H   0  0  0  0  0  0  0  0  0  0  0  0
   39.4250   29.6160   42.4520 C   0  0  2  0  0  3  0  0  0  0  0  0
   39.8550   31.3420   42.9020 S   0  0  0  0  0  0  0  0  0  0  0  0
   38.8090   33.3010   41.2740 C   0  0  0  0  0  2  0  0  0  0  0  0
   38.6060   33.1420   40.1810 H   0  0  0  0  0  0  0  0  0  0  0  0
  1  2  1  0  0  0  0
  1  9  1  0  0  0  0
  2  7  1  0  0  0  0
  3  8  1  0  0  0  0
  3  2  2  0  0  0  0
  4  3  1  0  0  0  0
  5  4  2  0  0  0  0
  5  6  1  0  0  0  0
  6  1  2  0  0  0  0
  9 10  1  0  0  0  0
 10 11  1  0  0  0  0
 10 13  1  0  0  0  0
 12 10  1  0  0  0  0
 13 14  1  0  0  0  0
 13 16  1  0  0  0  0
 15 13  1  0  0  0  0
 16 19  1  0  0  0  0
 17 16  1  0  0  0  0
 18 16  1  0  0  0  0
 19 20  1  0  0  0  0
 21  5  1  0  0  0  0
 22 31  1  6  0  0  0
 22 30  1  0  0  0  0
 22 21  1  0  0  0  0
 23 24  1  0  0  0  0
 23 22  1  0  0  0  0
 24 29  1  0  0  0  0
 24 25  1  0  0  0  0
 25 27  1  0  0  0  0
 26 25  2  0  0  0  0
 27 28  1  0  0  0  0
 29 30  1  1  0  0  0
 29 27  1  0  0  0  0
 32 31  1  0  0  0  0
M  END
>  <minimizedAffinity>
-4.52973604

>  <minimizedRMSD>
1.84639812

$$$$
