
     RDKit          3D

 31 33  0  0  0  0  0  0  0  0999 V2000
   37.6245   30.3946   49.7008 C   0  0  0  0  0  0  0  0  0  0  0  0
   38.3247   31.5841   49.9087 C   0  0  0  0  0  0  0  0  0  0  0  0
   38.5712   32.4088   48.7890 C   0  0  0  0  0  0  0  0  0  0  0  0
   38.1064   31.9843   47.5770 N   0  0  0  0  0  0  0  0  0  0  0  0
   37.4398   30.8366   47.4242 C   0  0  0  0  0  0  0  0  0  0  0  0
   37.1989   30.0411   48.4883 N   0  0  0  0  0  0  0  0  0  0  0  0
   37.3888   29.5711   50.8743 C   0  0  0  0  0  0  0  0  0  0  0  0
   37.3997   30.0114   52.0478 O   0  0  0  0  0  0  0  0  0  0  0  0
   38.7087   31.9544   50.8517 H   0  0  0  0  0  0  0  0  0  0  0  0
   39.1110   33.3551   48.8631 H   0  0  0  0  0  0  0  0  0  0  0  0
   37.1118   30.5866   46.4239 H   0  0  0  0  0  0  0  0  0  0  0  0
   32.8838   29.5443   49.0812 C   0  0  0  0  0  0  0  0  0  0  0  0
   32.4975   29.9754   48.1118 H   0  0  0  0  0  0  0  0  0  0  0  0
   33.8338   28.4571   48.7034 C   0  0  0  0  0  0  0  0  0  0  0  0
   33.5217   27.9171   47.3003 C   0  0  0  0  0  0  0  0  0  0  0  0
   34.1561   27.0233   47.1666 H   0  0  0  0  0  0  0  0  0  0  0  0
   33.9243   27.3203   49.6667 C   0  0  0  0  0  0  0  0  0  0  0  0
   35.1054   27.5019   50.4886 N   0  0  0  0  0  0  0  0  0  0  0  0
   35.9858   27.6406   51.5994 C   0  0  0  0  0  0  0  0  0  0  0  0
   35.9587   27.4669   52.8458 O   0  0  0  0  0  0  0  0  0  0  0  0
   37.1129   28.1184   50.7541 C   0  0  1  0  0  0  0  0  0  0  0  0
   36.2610   27.6675   49.6239 C   0  0  2  0  0  0  0  0  0  0  0  0
   35.5715   29.0276   48.5993 S   0  0  0  0  0  0  0  0  0  0  0  0
   33.2847   30.3518   49.6879 H   0  0  0  0  0  0  0  0  0  0  0  0
   31.9740   29.0437   49.5152 H   0  0  0  0  0  0  0  0  0  0  0  0
   33.9101   28.6646   46.5490 H   0  0  0  0  0  0  0  0  0  0  0  0
   32.4456   27.7435   47.1673 H   0  0  0  0  0  0  0  0  0  0  0  0
   34.0822   26.3762   49.0822 H   0  0  0  0  0  0  0  0  0  0  0  0
   33.0455   27.2026   50.3102 H   0  0  0  0  0  0  0  0  0  0  0  0
   38.0183   27.4693   50.8364 H   0  0  0  0  0  0  0  0  0  0  0  0
   36.5807   26.7985   49.0534 H   0  0  0  0  0  0  0  0  0  0  0  0
  1  2  2  0
  1  7  1  0
  3  2  1  0
  4  3  2  0
  5  4  1  0
  5  6  2  0
  6  1  1  0
  7  8  2  0
  2  9  1  0
  3 10  1  0
  5 11  1  0
 12 13  1  0
 12 14  1  0
 14 15  1  0
 15 16  1  0
 14 17  1  0
 17 18  1  0
 18 19  1  0
 19 20  2  0
 19 21  1  0
 21 22  1  0
 22 23  1  0
 23 14  1  0
 22 18  1  0
 12 24  1  0
 12 25  1  0
 15 26  1  0
 15 27  1  0
 17 28  1  0
 17 29  1  0
 21 30  1  1
 22 31  1  6
  7 21  1  0
M  ISO  5   9  14  10  14  11  14  13   8  16   8
M  END
>  <DihAtoms>  (1) 
0,6,20,18

>  <DihDeg>  (1) 
60.001502800982806

$$$$
