
 OpenBabel03272500223D

 40 44  0  0  1  0  0  0  0  0999 V2000
   34.9200   28.3280   49.6800 C   0  0  0  0  0  0  0  0  0  0  0  0
   35.4690   29.2990   48.7920 C   0  0  0  0  0  0  0  0  0  0  0  0
   35.1150   29.2610   47.4410 C   0  0  0  0  0  0  0  0  0  0  0  0
   34.2470   28.2710   47.0690 N   0  0  0  0  0  0  0  0  0  0  0  0
   33.7460   27.3830   47.8840 C   0  0  0  0  0  0  0  0  0  0  0  0
   34.0680   27.3930   49.1910 N   0  0  0  0  0  0  0  0  0  0  0  0
   35.1830   28.3440   50.7290 H   0  0  0  0  0  0  0  0  0  0  0  0
   30.8630   28.2600   47.5520 Cl  0  0  0  0  0  0  0  0  0  0  0  0
   31.4740   26.6520   47.1610 C   0  0  0  0  0  0  0  0  0  0  0  0
   32.8190   26.3640   47.3540 C   0  0  0  0  0  0  0  0  0  0  0  0
   33.3600   25.1030   47.0610 C   0  0  0  0  0  0  0  0  0  0  0  0
   32.4610   24.1620   46.5640 C   0  0  0  0  0  0  0  0  0  0  0  0
   31.1310   24.4250   46.3660 C   0  0  0  0  0  0  0  0  0  0  0  0
   30.1190   23.1470   45.7360 Cl  0  0  0  0  0  0  0  0  0  0  0  0
   30.6370   25.6870   46.6690 C   0  0  0  0  0  0  0  0  0  0  0  0
   34.4100   24.8840   47.2130 H   0  0  0  0  0  0  0  0  0  0  0  0
   32.8650   23.1860   46.3330 H   0  0  0  0  0  0  0  0  0  0  0  0
   29.2030   25.9920   46.4630 C   0  0  0  0  0  0  0  0  0  0  0  0
   28.5040   24.8140   46.1540 F   0  0  0  0  0  0  0  0  0  0  0  0
   29.0080   26.9150   45.4880 F   0  0  0  0  0  0  0  0  0  0  0  0
   28.6580   26.4720   47.6300 F   0  0  0  0  0  0  0  0  0  0  0  0
   36.4070   30.3200   49.3590 C   0  0  0  0  0  0  0  0  0  0  0  0
   37.6310   30.2950   48.7000 F   0  0  0  0  0  0  0  0  0  0  0  0
   35.8500   31.5660   49.1370 F   0  0  0  0  0  0  0  0  0  0  0  0
   36.5990   30.1820   50.7100 F   0  0  0  0  0  0  0  0  0  0  0  0
   35.6650   30.2530   46.5240 C   0  0  0  0  0  0  0  0  0  0  0  0
   35.5060   31.2600   46.9760 H   0  0  0  0  0  0  0  0  0  0  0  0
   36.7310   30.0870   46.2580 H   0  0  0  0  0  0  0  0  0  0  0  0
   33.2840   27.7010   42.8170 C   0  0  0  0  0  0  0  0  0  0  0  0
   32.6810   28.9920   43.1890 C   0  0  0  0  0  2  0  0  0  0  0  0
   33.2410   29.5350   44.3570 N   0  0  2  0  0  0  0  0  0  0  0  0
   33.4490   30.4060   45.4580 C   0  0  2  0  0  0  0  0  0  0  0  0
   32.6160   31.0260   46.1990 O   0  0  0  0  0  1  0  0  0  0  0  0
   34.9210   30.1600   45.2110 C   0  0  2  0  0  3  0  0  0  0  0  0
   34.3820   28.8180   44.9080 C   0  0  2  0  0  0  0  0  0  0  0  0
   35.0000   27.9510   43.4450 S   0  0  0  0  0  0  0  0  0  0  0  0
   33.3060   27.4410   41.3330 C   0  0  0  0  0  2  0  0  0  0  0  0
   33.6200   28.3810   40.8460 H   0  0  0  0  0  0  0  0  0  0  0  0
   32.6290   26.5950   43.6150 C   0  0  0  0  0  2  0  0  0  0  0  0
   33.0290   26.6970   44.6640 H   0  0  0  0  0  0  0  0  0  0  0  0
  1  7  1  0  0  0  0
  2 22  1  0  0  0  0
  2  1  2  0  0  0  0
  3  2  1  0  0  0  0
  4  3  2  0  0  0  0
  4  5  1  0  0  0  0
  5  6  2  0  0  0  0
  6  1  1  0  0  0  0
  9 10  1  0  0  0  0
  9  8  1  0  0  0  0
 10  5  1  0  0  0  0
 11 16  1  0  0  0  0
 11 10  2  0  0  0  0
 12 11  1  0  0  0  0
 13 12  2  0  0  0  0
 13 15  1  0  0  0  0
 14 13  1  0  0  0  0
 15  9  2  0  0  0  0
 17 12  1  0  0  0  0
 18 15  1  0  0  0  0
 18 21  1  0  0  0  0
 19 18  1  0  0  0  0
 20 18  1  0  0  0  0
 22 25  1  0  0  0  0
 23 22  1  0  0  0  0
 24 22  1  0  0  0  0
 26 27  1  0  0  0  0
 26  3  1  0  0  0  0
 28 26  1  0  0  0  0
 29 30  1  0  0  0  0
 29 36  1  0  0  0  0
 29 39  1  0  0  0  0
 31 30  1  6  0  0  0
 31 35  1  0  0  0  0
 31 32  1  0  0  0  0
 32 33  1  1  0  0  0
 34 32  1  0  0  0  0
 34 26  1  1  0  0  0
 35 36  1  1  0  0  0
 35 34  1  0  0  0  0
 35 32  1  0  0  0  0
 37 29  1  0  0  0  0
 38 37  1  0  0  0  0
 39 40  1  0  0  0  0
M  END
>  <minimizedAffinity>
-4.74783993

>  <minimizedRMSD>
2.40970826

$$$$
