
 OpenBabel03272507123D

 43 48  0  0  1  0  0  0  0  0999 V2000
   37.2600   29.7480   50.0950 C   0  0  0  0  0  0  0  0  0  0  0  0
   37.8690   29.1760   51.0380 O   0  0  0  0  0  0  0  0  0  0  0  0
   37.8290   30.8050   49.3010 C   0  0  0  0  0  0  0  0  0  0  0  0
   37.6520   32.1050   49.7440 C   0  0  0  0  0  0  0  0  0  0  0  0
   38.1860   33.1590   49.0090 C   0  0  0  0  0  0  0  0  0  0  0  0
   38.8640   32.8280   47.8690 N   0  0  0  0  0  0  0  0  0  0  0  0
   39.0280   31.5720   47.4510 C   0  0  0  0  0  0  0  0  0  0  0  0
   38.5050   30.5710   48.1770 N   0  0  0  0  0  0  0  0  0  0  0  0
   37.1060   32.3270   50.6570 H   0  0  0  0  0  0  0  0  0  0  0  0
   38.0890   34.1970   49.2910 H   0  0  0  0  0  0  0  0  0  0  0  0
   39.7670   31.2470   46.2150 C   0  0  0  0  0  2  0  0  0  0  0  0
   39.1800   32.0620   45.0840 C   0  0  2  0  0  0  0  0  0  0  0  0
   37.6980   32.1420   45.2780 C   0  0  0  0  0  2  0  0  0  0  0  0
   37.0880   32.1880   43.9660 N   0  0  0  0  0  0  0  0  0  0  0  0
   36.3010   32.5910   42.8260 C   0  0  0  0  0  0  0  0  0  0  0  0
   35.2600   33.3090   42.6790 O   0  0  0  0  0  0  0  0  0  0  0  0
   37.1970   31.8270   41.8900 C   0  0  0  0  0  3  0  0  0  0  0  0
   38.0430   32.4090   41.4720 H   0  0  0  0  0  0  0  0  0  0  0  0
   37.5250   31.0690   43.1510 C   0  0  1  0  0  3  0  0  0  0  0  0
   39.2920   31.0550   43.5750 S   0  0  0  0  0  0  0  0  0  0  0  0
   39.8560   33.3820   44.9390 C   0  0  0  0  0  2  0  0  0  0  0  0
   39.3840   33.9900   44.1660 H   0  0  0  0  0  0  0  0  0  0  0  0
   35.9020   29.3280   49.7800 C   0  0  0  0  0  0  0  0  0  0  0  0
   34.8240   29.8120   50.4340 C   0  0  0  0  0  0  0  0  0  0  0  0
   33.7000   29.1970   49.8790 C   0  0  0  0  0  0  0  0  0  0  0  0
   34.1910   28.3440   48.8820 C   0  0  0  0  0  0  0  0  0  0  0  0
   35.4840   28.4710   48.8810 O   0  0  0  0  0  0  0  0  0  0  0  0
   34.7980   30.5390   51.2400 H   0  0  0  0  0  0  0  0  0  0  0  0
   32.7020   29.4060   50.2210 H   0  0  0  0  0  0  0  0  0  0  0  0
   33.7870   26.6610   47.0990 C   0  0  0  0  0  0  0  0  0  0  0  0
   33.3000   27.5240   48.0730 C   0  0  0  0  0  0  0  0  0  0  0  0
   31.9460   27.6320   48.3120 C   0  0  0  0  0  0  0  0  0  0  0  0
   31.0940   26.8600   47.5540 C   0  0  0  0  0  0  0  0  0  0  0  0
   29.7490   26.7730   47.5810 N   0  0  0  0  0  0  0  0  0  0  0  0
   29.3830   25.8870   46.6570 N   0  0  0  0  0  0  0  0  0  0  0  0
   30.5000   25.4190   46.0510 C   0  0  0  0  0  0  0  0  0  0  0  0
   31.6120   26.0150   46.5940 C   0  0  0  0  0  0  0  0  0  0  0  0
   32.9610   25.8940   46.3440 C   0  0  0  0  0  0  0  0  0  0  0  0
   34.8700   26.5990   46.9350 H   0  0  0  0  0  0  0  0  0  0  0  0
   31.4990   28.2930   49.0650 H   0  0  0  0  0  0  0  0  0  0  0  0
   29.0470   27.2680   48.1790 H   0  0  0  0  0  0  0  0  0  0  0  0
   30.4820   24.6830   45.2590 H   0  0  0  0  0  0  0  0  0  0  0  0
   33.3120   25.2210   45.5850 H   0  0  0  0  0  0  0  0  0  0  0  0
  1  2  2  0  0  0  0
  3  4  1  0  0  0  0
  3  1  1  0  0  0  0
  4  9  1  0  0  0  0
  5 10  1  0  0  0  0
  5  4  2  0  0  0  0
  6  5  1  0  0  0  0
  7  6  2  0  0  0  0
  7  8  1  0  0  0  0
  8  3  2  0  0  0  0
 11  7  1  0  0  0  0
 12 21  1  6  0  0  0
 12 13  1  0  0  0  0
 12 11  1  0  0  0  0
 14 13  1  0  0  0  0
 15 14  1  0  0  0  0
 16 15  2  0  0  0  0
 17 15  1  0  0  0  0
 18 17  1  0  0  0  0
 19 17  1  6  0  0  0
 19 20  1  0  0  0  0
 19 14  1  0  0  0  0
 20 12  1  0  0  0  0
 22 21  1  0  0  0  0
 23  1  1  0  0  0  0
 23 24  2  0  0  0  0
 24 28  1  0  0  0  0
 25 29  1  0  0  0  0
 25 24  1  0  0  0  0
 26 25  2  0  0  0  0
 27 26  1  0  0  0  0
 27 23  1  0  0  0  0
 30 31  1  0  0  0  0
 31 32  2  0  0  0  0
 31 26  1  0  0  0  0
 32 40  1  0  0  0  0
 33 34  1  0  0  0  0
 33 32  1  0  0  0  0
 34 41  1  0  0  0  0
 35 34  1  0  0  0  0
 36 37  1  0  0  0  0
 36 35  2  0  0  0  0
 37 33  2  0  0  0  0
 38 37  1  0  0  0  0
 38 30  2  0  0  0  0
 39 30  1  0  0  0  0
 42 36  1  0  0  0  0
 43 38  1  0  0  0  0
M  END
>  <minimizedAffinity>
-7.12010908

>  <minimizedRMSD>
0.974811018

$$$$
