REMARK  Name = 
REMARK  5 active torsions:
REMARK  status: ('A' for Active; 'I' for Inactive)
REMARK    1  A    between atoms: N_1  and  C_6
REMARK    2  A    between atoms: C_2  and  C_12
REMARK    3  A    between atoms: C_12  and  C_33
REMARK    4  A    between atoms: C_24  and  C_26
REMARK    5  A    between atoms: C_26  and  C_27
REMARK                            x       y       z     vdW  Elec       q    Type
REMARK                         _______ _______ _______ _____ _____    ______ ____
ROOT
ATOM      1  N   UNL     1      36.532  29.777  49.188  0.00  0.00    +0.000 N 
ATOM      2  C   UNL     1      37.273  30.919  48.779  0.00  0.00    +0.000 C 
ATOM      3  C   UNL     1      37.973  31.408  50.015  0.00  0.00    +0.000 C 
ATOM      4  C   UNL     1      37.520  30.416  51.118  0.00  0.00    +0.000 C 
ATOM      5  C   UNL     1      37.258  29.197  50.287  0.00  0.00    +0.000 C 
ATOM      6  H   UNL     1      36.495  31.772  48.554  0.00  0.00    +0.000 HD
ATOM      7  H   UNL     1      37.709  32.437  50.318  0.00  0.00    +0.000 HD
ATOM      8  H   UNL     1      39.075  31.262  49.939  0.00  0.00    +0.000 HD
ATOM      9  H   UNL     1      36.590  30.762  51.582  0.00  0.00    +0.000 HD
ATOM     10  H   UNL     1      38.352  30.268  51.849  0.00  0.00    +0.000 HD
ATOM     11  H   UNL     1      36.584  28.540  50.894  0.00  0.00    +0.000 HD
ATOM     12  H   UNL     1      38.189  28.673  50.004  0.00  0.00    +0.000 HD
ENDROOT
BRANCH   1  13
ATOM     13  C   UNL     1      35.313  29.323  48.623  0.00  0.00    +0.000 A 
ATOM     14  C   UNL     1      34.722  30.089  47.605  0.00  0.00    +0.000 A 
ATOM     15  C   UNL     1      33.518  29.656  47.036  0.00  0.00    +0.000 A 
ATOM     16  N   UNL     1      32.991  28.488  47.525  0.00  0.00    +0.000 NA
ATOM     17  C   UNL     1      33.585  27.773  48.506  0.00  0.00    +0.000 A 
ATOM     18  N   UNL     1      34.765  28.184  49.074  0.00  0.00    +0.000 NA
ATOM     19  H   UNL     1      35.142  31.009  47.224  0.00  0.00    +0.000 HD
ATOM     20  H   UNL     1      33.045  30.228  46.252  0.00  0.00    +0.000 HD
ATOM     21  H   UNL     1      33.155  26.864  48.870  0.00  0.00    +0.000 HD
ENDBRANCH   1  13
BRANCH   2  22
ATOM     22  C   UNL     1      38.098  30.801  47.589  0.00  0.00    +0.000 C 
ATOM     23  O   UNL     1      39.059  31.495  47.412  0.00  0.00    +0.000 OA
BRANCH  22  29
ATOM     24  C   UNL     1      36.163  29.484  43.004  0.00  0.00    +0.000 C 
ATOM     25  C   UNL     1      36.997  30.752  43.237  0.00  0.00    +0.000 C 
ATOM     26  N   UNL     1      37.875  30.436  44.383  0.00  0.00    +0.000 N 
ATOM     27  C   UNL     1      38.887  30.127  45.377  0.00  0.00    +0.000 C 
ATOM     28  O   UNL     1      40.094  30.208  44.956  0.00  0.00    +0.000 OA
ATOM     29  C   UNL     1      37.901  29.863  46.433  0.00  0.00    +0.000 C 
ATOM     30  C   UNL     1      36.911  30.382  45.466  0.00  0.00    +0.000 C 
ATOM     31  S   UNL     1      35.779  29.112  44.767  0.00  0.00    +0.000 S 
BRANCH  24  32
ATOM     32  C   UNL     1      34.929  29.828  42.233  0.00  0.00    +0.000 C 
ATOM     33  H   UNL     1      35.172  30.637  41.528  0.00  0.00    +0.000 HD
ENDBRANCH  24  32
BRANCH  24  34
ATOM     34  C   UNL     1      36.971  28.382  42.395  0.00  0.00    +0.000 C 
ATOM     35  H   UNL     1      36.437  27.425  42.626  0.00  0.00    +0.000 HD
ENDBRANCH  24  34
ENDBRANCH  22  29
ENDBRANCH   2  22
TORSDOF 5
