
     RDKit          3D

 55 59  0  0  0  0  0  0  0  0999 V2000
   34.8260   28.3730   49.4155 C   0  0  0  0  0  0  0  0  0  0  0  0
   33.5896   28.3190   48.5561 C   0  0  0  0  0  0  0  0  0  0  0  0
   33.6715   28.7139   47.1771 C   0  0  0  0  0  0  0  0  0  0  0  0
   32.0003   28.4689   46.6464 S   0  0  0  0  0  0  0  0  0  0  0  0
   31.3982   27.8707   48.3262 C   0  0  0  0  0  0  0  0  0  0  0  0
   32.4100   27.9371   48.9480 N   0  0  0  0  0  0  0  0  0  0  0  0
   30.0851   27.4421   48.7751 N   0  0  0  0  0  0  0  0  0  0  0  0
   29.2550   26.8113   47.8029 C   0  0  0  0  0  0  0  0  0  0  0  0
   27.7964   26.8078   48.1533 C   0  0  0  0  0  0  0  0  0  0  0  0
   27.4820   27.5380   49.3657 N   0  0  0  0  0  0  0  0  0  0  0  0
   28.3760   27.0452   50.3976 C   0  0  0  0  0  0  0  0  0  0  0  0
   29.7154   27.6811   50.1566 C   0  0  0  0  0  0  0  0  0  0  0  0
   34.9556   29.6655   50.1231 C   0  0  0  0  0  0  0  0  0  0  0  0
   37.5130   32.2927   49.5493 C   0  0  0  0  0  0  0  0  0  0  0  0
   38.2857   31.7476   48.5241 C   0  0  0  0  0  0  0  0  0  0  0  0
   37.9293   30.4776   48.0290 C   0  0  0  0  0  0  0  0  0  0  0  0
   36.8521   29.8690   48.5875 N   0  0  0  0  0  0  0  0  0  0  0  0
   36.1382   30.4411   49.5782 C   0  0  0  0  0  0  0  0  0  0  0  0
   36.4618   31.6344   50.0534 N   0  0  0  0  0  0  0  0  0  0  0  0
   34.7981   27.5067   50.1386 H   0  0  0  0  0  0  0  0  0  0  0  0
   35.7272   28.1756   48.7960 H   0  0  0  0  0  0  0  0  0  0  0  0
   34.5298   29.0531   46.6670 H   0  0  0  0  0  0  0  0  0  0  0  0
   29.4551   27.2474   46.7840 H   0  0  0  0  0  0  0  0  0  0  0  0
   29.5827   25.7536   47.7106 H   0  0  0  0  0  0  0  0  0  0  0  0
   27.1638   27.2511   47.3406 H   0  0  0  0  0  0  0  0  0  0  0  0
   27.3925   25.7809   48.2767 H   0  0  0  0  0  0  0  0  0  0  0  0
   26.5046   27.2586   49.6293 H   0  0  0  0  0  0  0  0  0  0  0  0
   28.4759   25.9417   50.3370 H   0  0  0  0  0  0  0  0  0  0  0  0
   27.9823   27.3844   51.3875 H   0  0  0  0  0  0  0  0  0  0  0  0
   30.5251   27.2572   50.8103 H   0  0  0  0  0  0  0  0  0  0  0  0
   29.6356   28.7827   50.3595 H   0  0  0  0  0  0  0  0  0  0  0  0
   35.2741   29.4529   51.1844 H   0  0  0  0  0  0  0  0  0  0  0  0
   34.0489   30.3046   50.1218 H   0  0  0  0  0  0  0  0  0  0  0  0
   37.8060   33.2696   49.9136 H   0  0  0  0  0  0  0  0  0  0  0  0
   39.1452   32.2138   48.0661 H   0  0  0  0  0  0  0  0  0  0  0  0
   38.6200   29.7548   46.9626 C   0  0  0  0  0  0  0  0  0  0  0  0
   39.8004   30.4421   46.3634 C   0  0  1  0  0  0  0  0  0  0  0  0
   40.4026   29.5718   45.2810 C   0  0  0  0  0  0  0  0  0  0  0  0
   40.8184   30.2347   44.4950 H   0  0  0  0  0  0  0  0  0  0  0  0
   39.5239   31.8080   45.8161 C   0  0  0  0  0  0  0  0  0  0  0  0
   39.8237   32.7778   46.8344 N   0  0  0  0  0  0  0  0  0  0  0  0
   39.7805   33.8395   47.7926 C   0  0  0  0  0  0  0  0  0  0  0  0
   38.8852   34.7201   47.9399 O   0  0  0  0  0  0  0  0  0  0  0  0
   41.0754   33.4640   48.4177 C   0  0  1  0  0  0  0  0  0  0  0  0
   41.7592   34.3556   48.3172 H   0  0  0  0  0  0  0  0  0  0  0  0
   41.2235   32.5750   47.2388 C   0  0  1  0  0  0  0  0  0  0  0  0
   41.1091   30.7730   47.5810 S   0  0  0  0  0  0  0  0  0  0  0  0
   38.9743   28.7754   47.3418 H   0  0  0  0  0  0  0  0  0  0  0  0
   37.9262   29.5330   46.1262 H   0  0  0  0  0  0  0  0  0  0  0  0
   39.6551   28.8717   44.8754 H   0  0  0  0  0  0  0  0  0  0  0  0
   41.2890   29.0195   45.6847 H   0  0  0  0  0  0  0  0  0  0  0  0
   40.1893   31.9639   44.9360 H   0  0  0  0  0  0  0  0  0  0  0  0
   38.4911   31.9008   45.4942 H   0  0  0  0  0  0  0  0  0  0  0  0
   41.0325   33.0300   49.4161 H   0  0  0  0  0  0  0  0  0  0  0  0
   41.9507   32.8365   46.4563 H   0  0  0  0  0  0  0  0  0  0  0  0
  1 13  1  0
  2  6  1  0
  2  1  1  0
  3  2  2  0
  4  3  1  0
  4  5  1  0
  5  7  1  0
  5  6  2  0
  7 12  1  0
  8  9  1  0
  8  7  1  0
  9 10  1  0
 10 11  1  0
 12 11  1  0
 14 19  2  0
 15 14  1  0
 16 15  2  0
 16 17  1  0
 17 18  2  0
 18 19  1  0
 18 13  1  0
  1 20  1  0
  1 21  1  0
  3 22  1  0
  8 23  1  0
  8 24  1  0
  9 25  1  0
  9 26  1  0
 10 27  1  0
 11 28  1  0
 11 29  1  0
 12 30  1  0
 12 31  1  0
 13 32  1  0
 13 33  1  0
 14 34  1  0
 15 35  1  0
 37 36  1  1
 37 38  1  0
 38 39  1  0
 37 40  1  0
 40 41  1  0
 41 42  1  0
 42 43  2  0
 42 44  1  0
 44 45  1  1
 44 46  1  0
 46 47  1  0
 47 37  1  0
 46 41  1  0
 36 48  1  0
 36 49  1  0
 38 50  1  0
 38 51  1  0
 40 52  1  0
 40 53  1  0
 44 54  1  0
 46 55  1  6
 16 36  1  0
M  ISO  8  20   8  21   8  22  14  23  13  24  13  25  13  26  13  27   5
M  ISO  8  28  13  29  13  30  13  31  13  32   8  33   8  34  14  35  14
M  ISO  2  39   8  45  15
M  END
>  <DihAtoms>  (1) 
14,15,35,36

>  <DihDeg>  (1) 
89.99995418271867

$$$$
