
 OpenBabel03272507323D

 39 43  0  0  1  0  0  0  0  0999 V2000
   33.0180   27.4740   48.1060 C   0  0  0  0  0  0  0  0  0  0  0  0
   31.7760   27.4460   48.3980 O   0  0  0  0  0  0  0  0  0  0  0  0
   35.7510   29.0910   49.7520 C   0  0  0  0  0  0  0  0  0  0  0  0
   34.7210   29.5890   50.5170 C   0  0  0  0  0  0  0  0  0  0  0  0
   33.5280   29.0560   50.0100 C   0  0  0  0  0  0  0  0  0  0  0  0
   33.9130   28.2560   48.9560 C   0  0  0  0  0  0  0  0  0  0  0  0
   35.2220   28.3070   48.8430 O   0  0  0  0  0  0  0  0  0  0  0  0
   34.7310   30.2690   51.3660 H   0  0  0  0  0  0  0  0  0  0  0  0
   32.5090   29.1880   50.3130 H   0  0  0  0  0  0  0  0  0  0  0  0
   37.1410   29.4380   49.9990 C   0  0  0  0  0  0  0  0  0  0  0  0
   37.7720   28.8270   50.8740 O   0  0  0  0  0  0  0  0  0  0  0  0
   37.7040   30.4870   49.1960 C   0  0  0  0  0  0  0  0  0  0  0  0
   38.0450   31.6620   49.8430 C   0  0  0  0  0  0  0  0  0  0  0  0
   38.5940   32.7040   49.0910 C   0  0  0  0  0  0  0  0  0  0  0  0
   38.7660   32.5060   47.7380 N   0  0  0  0  0  0  0  0  0  0  0  0
   38.4230   31.3560   47.1480 C   0  0  0  0  0  0  0  0  0  0  0  0
   37.8960   30.3510   47.8640 N   0  0  0  0  0  0  0  0  0  0  0  0
   37.8890   31.7650   50.9120 H   0  0  0  0  0  0  0  0  0  0  0  0
   38.8500   33.6060   49.6220 H   0  0  0  0  0  0  0  0  0  0  0  0
   38.6000   31.3100   46.0860 H   0  0  0  0  0  0  0  0  0  0  0  0
   33.5530   26.7200   46.9260 C   0  0  1  0  0  0  0  0  0  0  0  0
   33.8050   25.2130   47.3200 C   0  0  0  0  0  0  0  0  0  0  0  0
   32.8000   25.6320   46.3120 C   0  0  1  0  0  0  0  0  0  0  0  0
   34.5190   27.1160   46.5550 H   0  0  0  0  0  0  0  0  0  0  0  0
   34.7300   24.7510   46.9900 H   0  0  0  0  0  0  0  0  0  0  0  0
   33.4270   24.8760   48.2820 H   0  0  0  0  0  0  0  0  0  0  0  0
   33.0880   25.4080   45.2430 H   0  0  0  0  0  0  0  0  0  0  0  0
   31.3680   25.3640   46.6030 C   0  0  0  0  0  2  0  0  0  0  0  0
   30.6670   24.7390   45.4110 C   0  0  2  0  0  0  0  0  0  0  0  0
   29.2590   24.4280   45.8310 C   0  0  0  0  0  2  0  0  0  0  0  0
   28.8980   23.1240   45.3640 N   0  0  0  0  0  0  0  0  0  0  0  0
   28.2590   22.0130   44.7400 C   0  0  0  0  0  0  0  0  0  0  0  0
   27.1620   21.7920   44.1620 O   0  0  0  0  0  0  0  0  0  0  0  0
   29.3870   21.0830   44.9960 C   0  0  0  0  0  3  0  0  0  0  0  0
   30.0540   20.8690   44.1500 H   0  0  0  0  0  0  0  0  0  0  0  0
   29.8910   22.1680   45.8790 C   0  0  1  0  0  3  0  0  0  0  0  0
   31.3820   23.0530   45.2670 S   0  0  0  0  0  0  0  0  0  0  0  0
   30.7990   25.5140   44.1530 C   0  0  0  0  0  2  0  0  0  0  0  0
   31.7460   25.2980   43.6270 H   0  0  0  0  0  0  0  0  0  0  0  0
  1  2  2  0  0  0  0
  1  6  1  0  0  0  0
  3 10  1  0  0  0  0
  3  4  2  0  0  0  0
  4  8  1  0  0  0  0
  5  9  1  0  0  0  0
  5  4  1  0  0  0  0
  6  5  2  0  0  0  0
  7  6  1  0  0  0  0
  7  3  1  0  0  0  0
 10 11  2  0  0  0  0
 12 13  1  0  0  0  0
 12 10  1  0  0  0  0
 13 18  1  0  0  0  0
 14 19  1  0  0  0  0
 14 13  2  0  0  0  0
 15 14  1  0  0  0  0
 16 15  2  0  0  0  0
 16 17  1  0  0  0  0
 17 12  2  0  0  0  0
 20 16  1  0  0  0  0
 21 24  1  6  0  0  0
 21 22  1  0  0  0  0
 21  1  1  0  0  0  0
 22 26  1  0  0  0  0
 23 27  1  6  0  0  0
 23 28  1  0  0  0  0
 23 21  1  0  0  0  0
 23 22  1  0  0  0  0
 25 22  1  0  0  0  0
 29 38  1  6  0  0  0
 29 30  1  0  0  0  0
 29 28  1  0  0  0  0
 31 30  1  0  0  0  0
 31 36  1  0  0  0  0
 32 34  1  0  0  0  0
 32 31  1  0  0  0  0
 33 32  2  0  0  0  0
 35 34  1  0  0  0  0
 36 34  1  6  0  0  0
 37 29  1  0  0  0  0
 37 36  1  0  0  0  0
 39 38  1  0  0  0  0
M  END
>  <minimizedAffinity>
-5.45121527

>  <minimizedRMSD>
0.809831738

$$$$
