
 OpenBabel03272500223D

 40 44  0  0  1  0  0  0  0  0999 V2000
   35.6540   31.2580   49.6530 C   0  0  0  0  0  0  0  0  0  0  0  0
   36.7960   31.3340   48.8030 C   0  0  0  0  0  0  0  0  0  0  0  0
   36.8290   30.5610   47.6390 C   0  0  0  0  0  0  0  0  0  0  0  0
   35.7350   29.7740   47.4020 N   0  0  0  0  0  0  0  0  0  0  0  0
   34.6910   29.7070   48.1830 C   0  0  0  0  0  0  0  0  0  0  0  0
   34.6300   30.4380   49.3110 N   0  0  0  0  0  0  0  0  0  0  0  0
   35.6120   31.8500   50.5580 H   0  0  0  0  0  0  0  0  0  0  0  0
   32.6830   30.8440   46.2170 Cl  0  0  0  0  0  0  0  0  0  0  0  0
   32.5940   29.2290   46.9220 C   0  0  0  0  0  0  0  0  0  0  0  0
   33.5750   28.8150   47.8140 C   0  0  0  0  0  0  0  0  0  0  0  0
   33.5550   27.5420   48.4040 C   0  0  0  0  0  0  0  0  0  0  0  0
   32.4890   26.7240   48.0370 C   0  0  0  0  0  0  0  0  0  0  0  0
   31.5110   27.1110   47.1590 C   0  0  0  0  0  0  0  0  0  0  0  0
   30.2320   25.9790   46.7910 Cl  0  0  0  0  0  0  0  0  0  0  0  0
   31.5700   28.3800   46.5980 C   0  0  0  0  0  0  0  0  0  0  0  0
   34.3230   27.2240   49.0990 H   0  0  0  0  0  0  0  0  0  0  0  0
   32.4620   25.7400   48.4840 H   0  0  0  0  0  0  0  0  0  0  0  0
   30.5230   28.8200   45.6480 C   0  0  0  0  0  0  0  0  0  0  0  0
   29.5280   27.8350   45.5430 F   0  0  0  0  0  0  0  0  0  0  0  0
   31.0270   29.1000   44.4190 F   0  0  0  0  0  0  0  0  0  0  0  0
   29.9030   29.9480   46.1290 F   0  0  0  0  0  0  0  0  0  0  0  0
   37.9130   32.2470   49.2050 C   0  0  0  0  0  0  0  0  0  0  0  0
   38.9500   31.5380   49.7990 F   0  0  0  0  0  0  0  0  0  0  0  0
   38.4190   32.8190   48.0520 F   0  0  0  0  0  0  0  0  0  0  0  0
   37.5060   33.2640   50.0310 F   0  0  0  0  0  0  0  0  0  0  0  0
   37.9890   30.6350   46.7580 C   0  0  0  0  0  0  0  0  0  0  0  0
   38.7920   31.1880   47.2990 H   0  0  0  0  0  0  0  0  0  0  0  0
   38.3470   29.6490   46.3910 H   0  0  0  0  0  0  0  0  0  0  0  0
   38.9480   32.6930   42.2020 C   0  0  0  0  0  0  0  0  0  0  0  0
   37.6390   32.0350   42.3390 C   0  0  0  0  0  2  0  0  0  0  0  0
   37.5250   31.2960   43.5280 N   0  0  2  0  0  0  0  0  0  0  0  0
   36.9880   30.4300   44.5160 C   0  0  2  0  0  0  0  0  0  0  0  0
   36.3130   29.3530   44.4020 O   0  0  0  0  0  1  0  0  0  0  0  0
   37.5990   31.3940   45.5100 C   0  0  2  0  0  3  0  0  0  0  0  0
   38.6380   31.4170   44.4610 C   0  0  2  0  0  0  0  0  0  0  0  0
   39.3380   33.0130   43.9760 S   0  0  0  0  0  0  0  0  0  0  0  0
   38.9040   33.9900   41.4370 C   0  0  0  0  0  2  0  0  0  0  0  0
   38.0180   34.5450   41.7960 H   0  0  0  0  0  0  0  0  0  0  0  0
   39.9510   31.7020   41.6540 C   0  0  0  0  0  2  0  0  0  0  0  0
   40.1800   30.9970   42.5020 H   0  0  0  0  0  0  0  0  0  0  0  0
  1  7  1  0  0  0  0
  2 22  1  0  0  0  0
  2  1  2  0  0  0  0
  3  2  1  0  0  0  0
  4  3  2  0  0  0  0
  4  5  1  0  0  0  0
  5  6  2  0  0  0  0
  6  1  1  0  0  0  0
  8  9  1  0  0  0  0
  9 10  1  0  0  0  0
 10  5  1  0  0  0  0
 10 11  2  0  0  0  0
 11 16  1  0  0  0  0
 12 11  1  0  0  0  0
 12 17  1  0  0  0  0
 13 12  2  0  0  0  0
 14 13  1  0  0  0  0
 15  9  2  0  0  0  0
 15 13  1  0  0  0  0
 18 21  1  0  0  0  0
 18 15  1  0  0  0  0
 19 18  1  0  0  0  0
 20 18  1  0  0  0  0
 22 23  1  0  0  0  0
 22 25  1  0  0  0  0
 24 22  1  0  0  0  0
 26 27  1  0  0  0  0
 26  3  1  0  0  0  0
 28 26  1  0  0  0  0
 29 30  1  0  0  0  0
 29 36  1  0  0  0  0
 31 30  1  1  0  0  0
 31 35  1  0  0  0  0
 31 32  1  0  0  0  0
 32 33  1  1  0  0  0
 32 34  1  0  0  0  0
 34 26  1  1  0  0  0
 35 36  1  6  0  0  0
 35 32  1  0  0  0  0
 35 34  1  0  0  0  0
 37 38  1  0  0  0  0
 37 29  1  0  0  0  0
 39 29  1  0  0  0  0
 39 40  1  0  0  0  0
M  END
>  <minimizedAffinity>
-6.4421382

>  <minimizedRMSD>
1.65558624

$$$$
