
 OpenBabel03272507123D

 43 48  0  0  1  0  0  0  0  0999 V2000
   37.0660   29.7820   50.2760 C   0  0  0  0  0  0  0  0  0  0  0  0
   37.6320   29.3000   51.2940 O   0  0  0  0  0  0  0  0  0  0  0  0
   37.6640   30.7780   49.4250 C   0  0  0  0  0  0  0  0  0  0  0  0
   37.6280   32.0930   49.8570 C   0  0  0  0  0  0  0  0  0  0  0  0
   38.1940   33.0900   49.0680 C   0  0  0  0  0  0  0  0  0  0  0  0
   38.7590   32.6900   47.8890 N   0  0  0  0  0  0  0  0  0  0  0  0
   38.7880   31.4190   47.4830 C   0  0  0  0  0  0  0  0  0  0  0  0
   38.2360   30.4740   48.2620 N   0  0  0  0  0  0  0  0  0  0  0  0
   37.1680   32.3710   50.8020 H   0  0  0  0  0  0  0  0  0  0  0  0
   38.2040   34.1360   49.3370 H   0  0  0  0  0  0  0  0  0  0  0  0
   39.4070   31.0190   46.2040 C   0  0  0  0  0  2  0  0  0  0  0  0
   38.4610   31.3890   45.0830 C   0  0  2  0  0  0  0  0  0  0  0  0
   37.0600   31.1360   45.5420 C   0  0  0  0  0  2  0  0  0  0  0  0
   36.2880   30.7360   44.3850 N   0  0  0  0  0  0  0  0  0  0  0  0
   35.2690   30.6660   43.3660 C   0  0  0  0  0  0  0  0  0  0  0  0
   34.0560   31.0490   43.2990 O   0  0  0  0  0  0  0  0  0  0  0  0
   36.2070   29.9650   42.4230 C   0  0  0  0  0  3  0  0  0  0  0  0
   36.7860   30.6350   41.7540 H   0  0  0  0  0  0  0  0  0  0  0  0
   36.9090   29.6120   43.7090 C   0  0  1  0  0  3  0  0  0  0  0  0
   38.6470   30.1350   43.7810 S   0  0  0  0  0  0  0  0  0  0  0  0
   38.7070   32.7710   44.5820 C   0  0  0  0  0  2  0  0  0  0  0  0
   37.9800   33.0550   43.8210 H   0  0  0  0  0  0  0  0  0  0  0  0
   35.7320   29.3150   49.9290 C   0  0  0  0  0  0  0  0  0  0  0  0
   34.6170   29.8140   50.5050 C   0  0  0  0  0  0  0  0  0  0  0  0
   33.5310   29.1440   49.9410 C   0  0  0  0  0  0  0  0  0  0  0  0
   34.0800   28.2430   49.0200 C   0  0  0  0  0  0  0  0  0  0  0  0
   35.3690   28.3980   49.0660 O   0  0  0  0  0  0  0  0  0  0  0  0
   34.5420   30.5880   51.2640 H   0  0  0  0  0  0  0  0  0  0  0  0
   32.5140   29.3520   50.2260 H   0  0  0  0  0  0  0  0  0  0  0  0
   33.7820   26.3140   47.4820 C   0  0  0  0  0  0  0  0  0  0  0  0
   33.2410   27.3570   48.2240 C   0  0  0  0  0  0  0  0  0  0  0  0
   31.8820   27.5900   48.2360 C   0  0  0  0  0  0  0  0  0  0  0  0
   31.0800   26.7580   47.4890 C   0  0  0  0  0  0  0  0  0  0  0  0
   29.7410   26.7630   47.3270 N   0  0  0  0  0  0  0  0  0  0  0  0
   29.4300   25.7590   46.5090 N   0  0  0  0  0  0  0  0  0  0  0  0
   30.5750   25.1260   46.1590 C   0  0  0  0  0  0  0  0  0  0  0  0
   31.6490   25.7320   46.7630 C   0  0  0  0  0  0  0  0  0  0  0  0
   33.0040   25.4850   46.7410 C   0  0  0  0  0  0  0  0  0  0  0  0
   34.8660   26.1560   47.4950 H   0  0  0  0  0  0  0  0  0  0  0  0
   31.3960   28.3950   48.8000 H   0  0  0  0  0  0  0  0  0  0  0  0
   29.0090   27.3950   47.7270 H   0  0  0  0  0  0  0  0  0  0  0  0
   30.6020   24.2710   45.4990 H   0  0  0  0  0  0  0  0  0  0  0  0
   33.3950   24.6740   46.1590 H   0  0  0  0  0  0  0  0  0  0  0  0
  1  2  2  0  0  0  0
  3  4  1  0  0  0  0
  3  1  1  0  0  0  0
  4  9  1  0  0  0  0
  5 10  1  0  0  0  0
  5  4  2  0  0  0  0
  6  5  1  0  0  0  0
  7  6  2  0  0  0  0
  7  8  1  0  0  0  0
  8  3  2  0  0  0  0
 11  7  1  0  0  0  0
 12 21  1  6  0  0  0
 12 13  1  0  0  0  0
 12 11  1  0  0  0  0
 14 13  1  0  0  0  0
 15 14  1  0  0  0  0
 16 15  2  0  0  0  0
 17 15  1  0  0  0  0
 18 17  1  0  0  0  0
 19 17  1  6  0  0  0
 19 20  1  0  0  0  0
 19 14  1  0  0  0  0
 20 12  1  0  0  0  0
 22 21  1  0  0  0  0
 23  1  1  0  0  0  0
 23 24  2  0  0  0  0
 24 28  1  0  0  0  0
 25 29  1  0  0  0  0
 25 24  1  0  0  0  0
 26 27  1  0  0  0  0
 26 25  2  0  0  0  0
 27 23  1  0  0  0  0
 30 39  1  0  0  0  0
 30 31  1  0  0  0  0
 31 32  2  0  0  0  0
 31 26  1  0  0  0  0
 32 40  1  0  0  0  0
 33 32  1  0  0  0  0
 34 33  1  0  0  0  0
 34 41  1  0  0  0  0
 35 34  1  0  0  0  0
 36 35  2  0  0  0  0
 36 37  1  0  0  0  0
 37 33  2  0  0  0  0
 38 37  1  0  0  0  0
 38 30  2  0  0  0  0
 42 36  1  0  0  0  0
 43 38  1  0  0  0  0
M  END
>  <minimizedAffinity>
-6.75350809

>  <minimizedRMSD>
0.770955265

$$$$
