
     RDKit          3D

 53 57  0  0  0  0  0  0  0  0999 V2000
   38.2496   31.0190   47.8278 Cl  0  0  0  0  0  0  0  0  0  0  0  0
   36.9879   30.6047   46.7017 C   0  0  0  0  0  0  0  0  0  0  0  0
   35.8366   30.0656   47.1621 C   0  0  0  0  0  0  0  0  0  0  0  0
   34.8739   29.7934   46.1920 C   0  0  0  0  0  0  0  0  0  0  0  0
   35.0112   30.0260   44.8580 C   0  0  0  0  0  0  0  0  0  0  0  0
   36.2052   30.5765   44.4386 C   0  0  0  0  0  0  0  0  0  0  0  0
   37.2066   30.8700   45.3649 C   0  0  0  0  0  0  0  0  0  0  0  0
   36.5187   29.1535   50.7424 C   0  0  0  0  0  0  0  0  0  0  0  0
   36.7226   29.3845   49.3733 C   0  0  0  0  0  0  0  0  0  0  0  0
   35.6563   29.8072   48.5683 C   0  0  0  0  0  0  0  0  0  0  0  0
   34.4402   29.9742   49.1758 N   0  0  0  0  0  0  0  0  0  0  0  0
   34.2617   29.7471   50.4889 C   0  0  0  0  0  0  0  0  0  0  0  0
   35.2917   29.3379   51.2800 N   0  0  0  0  0  0  0  0  0  0  0  0
   38.4569   31.4254   44.9095 N   0  0  0  0  0  0  0  0  0  0  0  0
   38.7487   32.8446   44.8336 C   0  0  0  0  0  0  0  0  0  0  0  0
   40.0682   32.9623   44.0879 C   0  0  0  0  0  0  0  0  0  0  0  0
   39.9142   32.2496   42.8679 N   0  0  0  0  0  0  0  0  0  0  0  0
   39.8099   30.8406   43.0544 C   0  0  0  0  0  0  0  0  0  0  0  0
   39.4999   30.4968   44.4951 C   0  0  2  0  0  0  0  0  0  0  0  0
   33.9271   29.3567   46.5211 H   0  0  0  0  0  0  0  0  0  0  0  0
   34.2375   29.7997   44.1402 H   0  0  0  0  0  0  0  0  0  0  0  0
   36.4292   30.8053   43.4060 H   0  0  0  0  0  0  0  0  0  0  0  0
   37.2773   28.8293   51.4380 H   0  0  0  0  0  0  0  0  0  0  0  0
   37.7362   29.1599   49.1134 H   0  0  0  0  0  0  0  0  0  0  0  0
   33.2365   29.9341   50.7738 H   0  0  0  0  0  0  0  0  0  0  0  0
   38.8418   33.2987   45.8230 H   0  0  0  0  0  0  0  0  0  0  0  0
   37.9714   33.3588   44.2345 H   0  0  0  0  0  0  0  0  0  0  0  0
   40.1491   34.0438   43.8245 H   0  0  0  0  0  0  0  0  0  0  0  0
   40.9365   32.7239   44.6943 H   0  0  0  0  0  0  0  0  0  0  0  0
   40.6403   32.5678   42.1987 H   0  0  0  0  0  0  0  0  0  0  0  0
   38.9353   30.5003   42.4614 H   0  0  0  0  0  0  0  0  0  0  0  0
   40.7758   30.4148   42.7211 H   0  0  0  0  0  0  0  0  0  0  0  0
   40.4016   30.7265   45.0948 H   0  0  0  0  0  0  0  0  0  0  0  0
   39.1002   29.0997   44.7297 C   0  0  0  0  0  0  0  0  0  0  0  0
   38.3870   28.3779   43.6521 C   0  0  2  0  0  0  0  0  0  0  0  0
   38.1175   26.9822   44.1933 C   0  0  0  0  0  0  0  0  0  0  0  0
   37.4180   26.4435   43.5496 H   0  0  0  0  0  0  0  0  0  0  0  0
   39.0870   28.2323   42.3551 C   0  0  0  0  0  0  0  0  0  0  0  0
   38.4894   29.1072   41.3816 N   0  0  0  0  0  0  0  0  0  0  0  0
   38.2493   30.0745   40.3651 C   0  0  0  0  0  0  0  0  0  0  0  0
   38.9758   30.6808   39.5114 O   0  0  0  0  0  0  0  0  0  0  0  0
   36.7775   30.1546   40.6395 C   0  0  1  0  0  0  0  0  0  0  0  0
   36.4594   31.0185   41.2300 H   0  0  0  0  0  0  0  0  0  0  0  0
   37.0525   28.8956   41.3911 C   0  0  2  0  0  0  0  0  0  0  0  0
   36.7723   29.0389   43.2040 S   0  0  0  0  0  0  0  0  0  0  0  0
   38.4672   29.0422   45.6409 H   0  0  0  0  0  0  0  0  0  0  0  0
   40.0017   28.4960   44.9497 H   0  0  0  0  0  0  0  0  0  0  0  0
   37.8010   27.0381   45.2609 H   0  0  0  0  0  0  0  0  0  0  0  0
   39.0858   26.4335   44.2225 H   0  0  0  0  0  0  0  0  0  0  0  0
   39.0445   27.2013   41.9221 H   0  0  0  0  0  0  0  0  0  0  0  0
   40.1472   28.4771   42.4859 H   0  0  0  0  0  0  0  0  0  0  0  0
   36.1548   29.9920   39.7392 H   0  0  0  0  0  0  0  0  0  0  0  0
   36.6977   27.9432   40.9729 H   0  0  0  0  0  0  0  0  0  0  0  0
  2  3  2  0
  2  1  1  0
  3 10  1  0
  4  3  1  0
  5  4  2  0
  6  5  1  0
  6  7  2  0
  7  2  1  0
  8 13  2  0
  9  8  1  0
 10 11  1  0
 10  9  2  0
 11 12  2  0
 12 13  1  0
 14  7  1  0
 15 14  1  0
 16 15  1  0
 17 18  1  0
 17 16  1  0
 18 19  1  0
 19 14  1  0
  4 20  1  0
  5 21  1  0
  6 22  1  0
  8 23  1  0
  9 24  1  0
 12 25  1  0
 15 26  1  0
 15 27  1  0
 16 28  1  0
 16 29  1  0
 17 30  1  0
 18 31  1  0
 18 32  1  0
 19 33  1  1
 35 34  1  1
 35 36  1  0
 36 37  1  0
 35 38  1  0
 38 39  1  0
 39 40  1  0
 40 41  2  0
 40 42  1  0
 42 43  1  1
 42 44  1  0
 44 45  1  0
 45 35  1  0
 44 39  1  0
 34 46  1  0
 34 47  1  0
 36 48  1  0
 36 49  1  0
 38 50  1  0
 38 51  1  0
 42 52  1  0
 44 53  1  6
 19 34  1  0
M  ISO  8  20  14  21  14  22  14  23  14  24  14  25  14  26  13  27  13
M  ISO  8  28  13  29  13  30   5  31  13  32  13  33  13  37   8  43  15
M  END
>  <DihAtoms>  (1) 
17,18,33,34

>  <DihDeg>  (1) 
59.46493896910387

$$$$
