
 OpenBabel03262521023D

 40 43  0  0  1  0  0  0  0  0999 V2000
   35.6160   26.1030   31.1310 C   0  0  0  0  0  0  0  0  0  0  0  0
   35.1710   24.8000   31.0780 C   0  0  0  0  0  0  0  0  0  0  0  0
   35.9680   23.8130   31.6140 C   0  0  0  0  0  0  0  0  0  0  0  0
   37.1810   24.1780   32.1840 N   0  0  0  0  0  0  0  0  0  0  0  0
   37.5420   25.4570   32.1990 C   0  0  0  0  0  0  0  0  0  0  0  0
   36.7930   26.4290   31.6880 N   0  0  0  0  0  0  0  0  0  0  0  0
   34.9680   26.8790   30.6980 H   0  0  0  0  0  0  0  0  0  0  0  0
   34.2230   24.4960   30.6350 H   0  0  0  0  0  0  0  0  0  0  0  0
   38.8250   25.8120   32.8110 C   0  0  0  0  0  0  0  0  0  0  0  0
   39.9360   25.5510   32.3100 O   0  0  0  0  0  0  0  0  0  0  0  0
   38.7680   23.4590   36.4780 C   0  0  0  0  0  0  0  0  0  0  0  0
   38.2500   24.7770   37.0030 C   0  0  0  0  0  2  0  0  0  0  0  0
   38.0620   25.6610   35.8670 N   0  0  0  0  0  0  0  0  0  0  0  0
   37.5490   26.5250   34.8440 C   0  0  0  0  0  0  0  0  0  0  0  0
   36.4200   27.0850   34.6410 O   0  0  0  0  0  0  0  0  0  0  0  0
   38.8310   26.5250   34.1050 C   0  0  1  0  0  3  0  0  0  0  0  0
   39.4030   25.8320   35.2830 C   0  0  2  0  0  3  0  0  0  0  0  0
   39.7830   24.0510   35.0640 S   0  0  0  0  0  0  0  0  0  0  0  0
   37.7070   22.4990   36.0580 C   0  0  0  0  0  2  0  0  0  0  0  0
   37.6140   22.3580   34.9550 H   0  0  0  0  0  0  0  0  0  0  0  0
   39.6490   22.8630   37.5490 C   0  0  0  0  0  2  0  0  0  0  0  0
   38.9970   22.7680   38.4600 H   0  0  0  0  0  0  0  0  0  0  0  0
   35.5520   22.0790   31.6340 S   0  0  0  0  0  0  0  0  0  0  0  0
   35.7130   20.2400   33.6370 N   0  0  0  0  0  0  0  0  0  0  0  0
   36.5080   21.2320   32.9540 C   0  0  1  0  0  0  0  0  0  0  0  0
   37.6850   20.5900   32.2790 C   0  0  0  0  0  0  0  0  0  0  0  0
   37.1600   19.6190   31.3340 N   0  0  0  0  0  0  0  0  0  0  0  0
   36.5880   18.5470   32.1730 C   0  0  0  0  0  0  0  0  0  0  0  0
   35.3490   19.1380   32.8070 C   0  0  2  0  0  0  0  0  0  0  0  0
   36.2880   19.8920   34.4130 H   0  0  0  0  0  0  0  0  0  0  0  0
   36.8500   21.9490   33.7110 H   0  0  0  0  0  0  0  0  0  0  0  0
   38.2430   21.4130   31.7500 H   0  0  0  0  0  0  0  0  0  0  0  0
   38.3190   20.0650   33.0060 H   0  0  0  0  0  0  0  0  0  0  0  0
   36.3170   20.0300   30.8460 H   0  0  0  0  0  0  0  0  0  0  0  0
   37.3360   18.3020   32.9440 H   0  0  0  0  0  0  0  0  0  0  0  0
   36.3690   17.6940   31.5250 H   0  0  0  0  0  0  0  0  0  0  0  0
   34.9180   18.3510   33.4790 H   0  0  0  0  0  0  0  0  0  0  0  0
   34.4080   19.4930   31.7680 N   0  0  0  0  0  0  0  0  0  0  0  0
   33.5570   19.8700   32.2610 H   0  0  0  0  0  0  0  0  0  0  0  0
   34.0820   18.6200   31.3070 H   0  0  0  0  0  0  0  0  0  0  0  0
  1  6  1  0  0  0  0
  2  1  2  0  0  0  0
  2  3  1  0  0  0  0
  3 23  1  0  0  0  0
  3  4  2  0  0  0  0
  4  5  1  0  0  0  0
  5  9  1  0  0  0  0
  6  5  2  0  0  0  0
  7  1  1  0  0  0  0
  8  2  1  0  0  0  0
 10  9  2  0  0  0  0
 11 12  1  0  0  0  0
 11 21  1  0  0  0  0
 13 12  1  0  0  0  0
 14 13  1  0  0  0  0
 15 14  2  0  0  0  0
 16  9  1  6  0  0  0
 16 14  1  0  0  0  0
 16 17  1  0  0  0  0
 17 18  1  6  0  0  0
 17 13  1  0  0  0  0
 18 11  1  0  0  0  0
 19 11  1  0  0  0  0
 20 19  1  0  0  0  0
 21 22  1  0  0  0  0
 23 25  1  0  0  0  0
 24 30  1  0  0  0  0
 25 24  1  0  0  0  0
 25 31  1  1  0  0  0
 26 25  1  0  0  0  0
 26 33  1  0  0  0  0
 27 28  1  0  0  0  0
 27 26  1  0  0  0  0
 28 29  1  0  0  0  0
 28 35  1  0  0  0  0
 29 37  1  1  0  0  0
 29 24  1  0  0  0  0
 32 26  1  0  0  0  0
 34 27  1  0  0  0  0
 36 28  1  0  0  0  0
 38 39  1  0  0  0  0
 38 29  1  0  0  0  0
 40 38  1  0  0  0  0
M  END
>  <minimizedAffinity>
-5.97006035

$$$$

 OpenBabel03262521023D

 40 43  0  0  1  0  0  0  0  0999 V2000
   37.8640   27.4790   33.0750 C   0  0  0  0  0  0  0  0  0  0  0  0
   38.1740   27.1450   34.3750 C   0  0  0  0  0  0  0  0  0  0  0  0
   37.9150   25.8610   34.8020 C   0  0  0  0  0  0  0  0  0  0  0  0
   37.3530   24.9650   33.9020 N   0  0  0  0  0  0  0  0  0  0  0  0
   37.0820   25.3610   32.6620 C   0  0  0  0  0  0  0  0  0  0  0  0
   37.3210   26.5930   32.2240 N   0  0  0  0  0  0  0  0  0  0  0  0
   38.0770   28.5070   32.7510 H   0  0  0  0  0  0  0  0  0  0  0  0
   38.6140   27.8340   35.0940 H   0  0  0  0  0  0  0  0  0  0  0  0
   36.4950   24.3920   31.7340 C   0  0  0  0  0  0  0  0  0  0  0  0
   35.2960   24.3890   31.3890 O   0  0  0  0  0  0  0  0  0  0  0  0
   35.8860   20.2720   33.0140 C   0  0  0  0  0  0  0  0  0  0  0  0
   37.3010   20.1790   32.4940 C   0  0  0  0  0  2  0  0  0  0  0  0
   37.7330   21.5210   32.1500 N   0  0  0  0  0  0  0  0  0  0  0  0
   38.3930   22.7900   32.0530 C   0  0  0  0  0  0  0  0  0  0  0  0
   39.4670   23.2710   32.5500 O   0  0  0  0  0  0  0  0  0  0  0  0
   37.3550   23.3400   31.1540 C   0  0  1  0  0  3  0  0  0  0  0  0
   36.8210   21.9600   31.0810 C   0  0  2  0  0  3  0  0  0  0  0  0
   35.2520   21.6550   31.9830 S   0  0  0  0  0  0  0  0  0  0  0  0
   35.7790   20.5530   34.4740 C   0  0  0  0  0  2  0  0  0  0  0  0
   35.4340   21.5820   34.7290 H   0  0  0  0  0  0  0  0  0  0  0  0
   35.1890   18.9810   32.6540 C   0  0  0  0  0  2  0  0  0  0  0  0
   35.7980   18.1650   33.1300 H   0  0  0  0  0  0  0  0  0  0  0  0
   38.2520   25.2560   36.4450 S   0  0  0  0  0  0  0  0  0  0  0  0
   38.5050   22.6770   35.6070 N   0  0  0  0  0  0  0  0  0  0  0  0
   37.7800   23.4840   36.5580 C   0  0  1  0  0  0  0  0  0  0  0  0
   38.0900   23.0510   37.9610 C   0  0  0  0  0  0  0  0  0  0  0  0
   39.5230   23.2050   38.1500 N   0  0  0  0  0  0  0  0  0  0  0  0
   40.1290   22.1600   37.3010 C   0  0  0  0  0  0  0  0  0  0  0  0
   39.9050   22.6080   35.8750 C   0  0  2  0  0  0  0  0  0  0  0  0
   38.1110   21.7310   35.6700 H   0  0  0  0  0  0  0  0  0  0  0  0
   36.7110   23.3510   36.3470 H   0  0  0  0  0  0  0  0  0  0  0  0
   37.5130   23.7360   38.6460 H   0  0  0  0  0  0  0  0  0  0  0  0
   37.8260   21.9970   38.1160 H   0  0  0  0  0  0  0  0  0  0  0  0
   39.8380   24.1070   37.6990 H   0  0  0  0  0  0  0  0  0  0  0  0
   39.5860   21.2220   37.5010 H   0  0  0  0  0  0  0  0  0  0  0  0
   41.1870   22.0870   37.5630 H   0  0  0  0  0  0  0  0  0  0  0  0
   40.3260   21.8090   35.2100 H   0  0  0  0  0  0  0  0  0  0  0  0
   40.5880   23.8630   35.6590 N   0  0  0  0  0  0  0  0  0  0  0  0
   40.4260   24.1150   34.6490 H   0  0  0  0  0  0  0  0  0  0  0  0
   41.6120   23.6970   35.7290 H   0  0  0  0  0  0  0  0  0  0  0  0
  1  2  1  0  0  0  0
  2  3  2  0  0  0  0
  2  8  1  0  0  0  0
  3 23  1  0  0  0  0
  4  3  1  0  0  0  0
  5  4  2  0  0  0  0
  6  5  1  0  0  0  0
  6  1  2  0  0  0  0
  7  1  1  0  0  0  0
  9  5  1  0  0  0  0
 10  9  2  0  0  0  0
 11 19  1  0  0  0  0
 12 11  1  0  0  0  0
 13 12  1  0  0  0  0
 14 13  1  0  0  0  0
 14 15  2  0  0  0  0
 16  9  1  1  0  0  0
 16 14  1  0  0  0  0
 17 16  1  0  0  0  0
 17 18  1  1  0  0  0
 17 13  1  0  0  0  0
 18 11  1  0  0  0  0
 19 20  1  0  0  0  0
 21 11  1  0  0  0  0
 21 22  1  0  0  0  0
 23 25  1  0  0  0  0
 24 30  1  0  0  0  0
 24 29  1  0  0  0  0
 24 25  1  0  0  0  0
 25 31  1  6  0  0  0
 25 26  1  0  0  0  0
 26 33  1  0  0  0  0
 26 27  1  0  0  0  0
 26 32  1  0  0  0  0
 28 35  1  0  0  0  0
 28 36  1  0  0  0  0
 28 27  1  0  0  0  0
 29 37  1  6  0  0  0
 29 28  1  0  0  0  0
 34 27  1  0  0  0  0
 38 40  1  0  0  0  0
 38 29  1  0  0  0  0
 39 38  1  0  0  0  0
M  END
>  <minimizedAffinity>
-5.64301443

$$$$

 OpenBabel03262521023D

 40 43  0  0  1  0  0  0  0  0999 V2000
   36.4820   31.6060   30.6480 C   0  0  0  0  0  0  0  0  0  0  0  0
   37.2210   30.5470   30.1680 C   0  0  0  0  0  0  0  0  0  0  0  0
   36.8450   29.2700   30.5230 C   0  0  0  0  0  0  0  0  0  0  0  0
   35.7390   29.1110   31.3480 N   0  0  0  0  0  0  0  0  0  0  0  0
   35.0750   30.1820   31.7710 C   0  0  0  0  0  0  0  0  0  0  0  0
   35.4160   31.4250   31.4450 N   0  0  0  0  0  0  0  0  0  0  0  0
   36.7960   32.6180   30.3560 H   0  0  0  0  0  0  0  0  0  0  0  0
   38.0910   30.6530   29.5210 H   0  0  0  0  0  0  0  0  0  0  0  0
   33.9100   29.9820   32.6360 C   0  0  0  0  0  0  0  0  0  0  0  0
   32.7270   30.0570   32.2480 O   0  0  0  0  0  0  0  0  0  0  0  0
   35.6200   33.0600   35.2010 C   0  0  0  0  0  0  0  0  0  0  0  0
   35.9410   31.8290   36.0170 C   0  0  0  0  0  2  0  0  0  0  0  0
   35.5640   30.6690   35.2310 N   0  0  0  0  0  0  0  0  0  0  0  0
   35.5260   29.4520   34.4740 C   0  0  0  0  0  0  0  0  0  0  0  0
   36.3750   28.5280   34.2370 O   0  0  0  0  0  0  0  0  0  0  0  0
   34.1210   29.6700   34.0650 C   0  0  1  0  0  3  0  0  0  0  0  0
   34.1100   30.7900   35.0350 C   0  0  2  0  0  3  0  0  0  0  0  0
   34.1190   32.4780   34.3160 S   0  0  0  0  0  0  0  0  0  0  0  0
   36.7040   33.4870   34.2710 C   0  0  0  0  0  2  0  0  0  0  0  0
   36.4940   33.2990   33.1910 H   0  0  0  0  0  0  0  0  0  0  0  0
   35.2690   34.1630   36.1710 C   0  0  0  0  0  2  0  0  0  0  0  0
   36.1660   34.2780   36.8380 H   0  0  0  0  0  0  0  0  0  0  0  0
   37.6820   27.7870   29.9940 S   0  0  0  0  0  0  0  0  0  0  0  0
   36.9150   26.3510   32.1770 N   0  0  0  0  0  0  0  0  0  0  0  0
   38.0980   26.7590   31.4590 C   0  0  1  0  0  0  0  0  0  0  0  0
   38.8380   25.5610   30.9390 C   0  0  0  0  0  0  0  0  0  0  0  0
   37.9300   24.8430   30.0600 N   0  0  0  0  0  0  0  0  0  0  0  0
   36.9030   24.2800   30.9590 C   0  0  0  0  0  0  0  0  0  0  0  0
   36.0850   25.4560   31.4380 C   0  0  2  0  0  0  0  0  0  0  0  0
   37.2420   25.8720   33.0240 H   0  0  0  0  0  0  0  0  0  0  0  0
   38.7270   27.3180   32.1620 H   0  0  0  0  0  0  0  0  0  0  0  0
   39.7300   25.9530   30.3720 H   0  0  0  0  0  0  0  0  0  0  0  0
   39.1340   24.8940   31.7600 H   0  0  0  0  0  0  0  0  0  0  0  0
   37.3930   25.5400   29.4730 H   0  0  0  0  0  0  0  0  0  0  0  0
   37.4320   23.8080   31.8030 H   0  0  0  0  0  0  0  0  0  0  0  0
   36.3160   23.5580   30.3850 H   0  0  0  0  0  0  0  0  0  0  0  0
   35.3200   25.0540   32.1520 H   0  0  0  0  0  0  0  0  0  0  0  0
   35.4430   26.0820   30.3030 N   0  0  0  0  0  0  0  0  0  0  0  0
   34.8660   26.8720   30.6920 H   0  0  0  0  0  0  0  0  0  0  0  0
   34.7490   25.4150   29.9090 H   0  0  0  0  0  0  0  0  0  0  0  0
  1  6  1  0  0  0  0
  2  3  1  0  0  0  0
  2  1  2  0  0  0  0
  3  4  2  0  0  0  0
  4  5  1  0  0  0  0
  5  9  1  0  0  0  0
  6  5  2  0  0  0  0
  7  1  1  0  0  0  0
  8  2  1  0  0  0  0
 10  9  2  0  0  0  0
 11 12  1  0  0  0  0
 11 21  1  0  0  0  0
 13 12  1  0  0  0  0
 14 13  1  0  0  0  0
 15 14  2  0  0  0  0
 16  9  1  6  0  0  0
 16 14  1  0  0  0  0
 16 17  1  0  0  0  0
 17 18  1  6  0  0  0
 17 13  1  0  0  0  0
 18 11  1  0  0  0  0
 19 11  1  0  0  0  0
 20 19  1  0  0  0  0
 21 22  1  0  0  0  0
 23  3  1  0  0  0  0
 23 25  1  0  0  0  0
 24 30  1  0  0  0  0
 25 31  1  1  0  0  0
 25 24  1  0  0  0  0
 26 25  1  0  0  0  0
 26 33  1  0  0  0  0
 27 26  1  0  0  0  0
 27 28  1  0  0  0  0
 28 29  1  0  0  0  0
 28 35  1  0  0  0  0
 29 37  1  1  0  0  0
 29 24  1  0  0  0  0
 32 26  1  0  0  0  0
 34 27  1  0  0  0  0
 36 28  1  0  0  0  0
 38 39  1  0  0  0  0
 38 29  1  0  0  0  0
 40 38  1  0  0  0  0
M  END
>  <minimizedAffinity>
-5.41151905

$$$$

 OpenBabel03262521023D

 40 43  0  0  1  0  0  0  0  0999 V2000
   35.7230   25.7520   31.1140 C   0  0  0  0  0  0  0  0  0  0  0  0
   35.3780   24.4270   31.2590 C   0  0  0  0  0  0  0  0  0  0  0  0
   36.2320   23.5990   31.9530 C   0  0  0  0  0  0  0  0  0  0  0  0
   37.4010   24.1400   32.4730 N   0  0  0  0  0  0  0  0  0  0  0  0
   37.6660   25.4300   32.2920 C   0  0  0  0  0  0  0  0  0  0  0  0
   36.8600   26.2510   31.6260 N   0  0  0  0  0  0  0  0  0  0  0  0
   35.0300   26.3990   30.5570 H   0  0  0  0  0  0  0  0  0  0  0  0
   34.4660   23.9860   30.8590 H   0  0  0  0  0  0  0  0  0  0  0  0
   38.9040   25.9720   32.8560 C   0  0  0  0  0  0  0  0  0  0  0  0
   40.0140   25.9210   32.2890 O   0  0  0  0  0  0  0  0  0  0  0  0
   38.7950   23.4620   36.4140 C   0  0  0  0  0  0  0  0  0  0  0  0
   38.2400   24.7470   36.9820 C   0  0  0  0  0  2  0  0  0  0  0  0
   38.0660   25.6760   35.8810 N   0  0  0  0  0  0  0  0  0  0  0  0
   37.5640   26.5750   34.8830 C   0  0  0  0  0  0  0  0  0  0  0  0
   36.4300   27.1240   34.6740 O   0  0  0  0  0  0  0  0  0  0  0  0
   38.8640   26.6280   34.1790 C   0  0  1  0  0  3  0  0  0  0  0  0
   39.4180   25.8950   35.3410 C   0  0  2  0  0  3  0  0  0  0  0  0
   39.8350   24.1310   35.0550 S   0  0  0  0  0  0  0  0  0  0  0  0
   37.7630   22.5040   35.9250 C   0  0  0  0  0  2  0  0  0  0  0  0
   37.7010   22.4090   34.8150 H   0  0  0  0  0  0  0  0  0  0  0  0
   39.6590   22.8350   37.4820 C   0  0  0  0  0  2  0  0  0  0  0  0
   38.9850   22.6880   38.3700 H   0  0  0  0  0  0  0  0  0  0  0  0
   35.9450   21.8620   32.2390 S   0  0  0  0  0  0  0  0  0  0  0  0
   37.8060   21.0150   30.4400 N   0  0  0  0  0  0  0  0  0  0  0  0
   36.3990   20.9080   30.7360 C   0  0  1  0  0  0  0  0  0  0  0  0
   36.0260   19.4800   31.0120 C   0  0  0  0  0  0  0  0  0  0  0  0
   36.8200   19.0410   32.1470 N   0  0  0  0  0  0  0  0  0  0  0  0
   38.2030   18.9680   31.6330 C   0  0  0  0  0  0  0  0  0  0  0  0
   38.6390   20.3990   31.4210 C   0  0  2  0  0  0  0  0  0  0  0  0
   37.9500   20.5400   29.5410 H   0  0  0  0  0  0  0  0  0  0  0  0
   35.8540   21.2790   29.8590 H   0  0  0  0  0  0  0  0  0  0  0  0
   34.9260   19.4750   31.2580 H   0  0  0  0  0  0  0  0  0  0  0  0
   36.2570   18.8380   30.1520 H   0  0  0  0  0  0  0  0  0  0  0  0
   36.8610   19.8190   32.8630 H   0  0  0  0  0  0  0  0  0  0  0  0
   38.1650   18.4280   30.6730 H   0  0  0  0  0  0  0  0  0  0  0  0
   38.8090   18.4440   32.3770 H   0  0  0  0  0  0  0  0  0  0  0  0
   39.6760   20.3650   30.9950 H   0  0  0  0  0  0  0  0  0  0  0  0
   38.6320   21.0910   32.6900 N   0  0  0  0  0  0  0  0  0  0  0  0
   38.9700   22.0690   32.4920 H   0  0  0  0  0  0  0  0  0  0  0  0
   39.3670   20.6740   33.2970 H   0  0  0  0  0  0  0  0  0  0  0  0
  1  2  2  0  0  0  0
  1  6  1  0  0  0  0
  2  3  1  0  0  0  0
  3 23  1  0  0  0  0
  3  4  2  0  0  0  0
  5  4  1  0  0  0  0
  5  9  1  0  0  0  0
  6  5  2  0  0  0  0
  7  1  1  0  0  0  0
  8  2  1  0  0  0  0
 10  9  2  0  0  0  0
 11 12  1  0  0  0  0
 11 21  1  0  0  0  0
 13 12  1  0  0  0  0
 14 13  1  0  0  0  0
 15 14  2  0  0  0  0
 16  9  1  6  0  0  0
 16 14  1  0  0  0  0
 16 17  1  0  0  0  0
 17 18  1  6  0  0  0
 17 13  1  0  0  0  0
 18 11  1  0  0  0  0
 19 11  1  0  0  0  0
 20 19  1  0  0  0  0
 21 22  1  0  0  0  0
 24 25  1  0  0  0  0
 24 29  1  0  0  0  0
 25 31  1  6  0  0  0
 25 26  1  0  0  0  0
 25 23  1  0  0  0  0
 26 32  1  0  0  0  0
 26 27  1  0  0  0  0
 27 34  1  0  0  0  0
 28 27  1  0  0  0  0
 28 36  1  0  0  0  0
 29 37  1  6  0  0  0
 29 28  1  0  0  0  0
 29 38  1  0  0  0  0
 30 24  1  0  0  0  0
 33 26  1  0  0  0  0
 35 28  1  0  0  0  0
 38 40  1  0  0  0  0
 39 38  1  0  0  0  0
M  END
>  <minimizedAffinity>
-5.37231255

$$$$

 OpenBabel03262521023D

 40 43  0  0  1  0  0  0  0  0999 V2000
   38.1750   23.1510   36.9890 C   0  0  0  0  0  0  0  0  0  0  0  0
   38.0040   22.2680   35.9450 C   0  0  0  0  0  0  0  0  0  0  0  0
   38.0800   22.7520   34.6580 C   0  0  0  0  0  0  0  0  0  0  0  0
   38.3260   24.1060   34.4730 N   0  0  0  0  0  0  0  0  0  0  0  0
   38.4810   24.8970   35.5300 C   0  0  0  0  0  0  0  0  0  0  0  0
   38.4110   24.4570   36.7830 N   0  0  0  0  0  0  0  0  0  0  0  0
   38.1100   22.7490   38.0100 H   0  0  0  0  0  0  0  0  0  0  0  0
   37.8100   21.2040   36.0720 H   0  0  0  0  0  0  0  0  0  0  0  0
   38.7440   26.3200   35.3040 C   0  0  0  0  0  0  0  0  0  0  0  0
   37.8920   27.2200   35.4410 O   0  0  0  0  0  0  0  0  0  0  0  0
   39.8300   25.9500   31.1010 C   0  0  0  0  0  0  0  0  0  0  0  0
   41.2050   25.9900   31.7250 C   0  0  0  0  0  2  0  0  0  0  0  0
   41.0350   25.9670   33.1660 N   0  0  0  0  0  0  0  0  0  0  0  0
   41.0410   25.6510   34.5650 C   0  0  0  0  0  0  0  0  0  0  0  0
   41.6310   24.7650   35.2710 O   0  0  0  0  0  0  0  0  0  0  0  0
   40.0960   26.7430   34.8870 C   0  0  1  0  0  3  0  0  0  0  0  0
   40.2880   27.1950   33.4890 C   0  0  2  0  0  3  0  0  0  0  0  0
   38.8790   26.9070   32.3490 S   0  0  0  0  0  0  0  0  0  0  0  0
   39.2830   24.5780   30.8950 C   0  0  0  0  0  2  0  0  0  0  0  0
   38.4550   24.2960   31.5880 H   0  0  0  0  0  0  0  0  0  0  0  0
   39.9050   26.7070   29.7970 C   0  0  0  0  0  2  0  0  0  0  0  0
   40.6970   26.1900   29.1910 H   0  0  0  0  0  0  0  0  0  0  0  0
   37.8860   21.7550   33.1920 S   0  0  0  0  0  0  0  0  0  0  0  0
   36.0840   21.7380   31.1500 N   0  0  0  0  0  0  0  0  0  0  0  0
   36.1570   21.8870   32.5830 C   0  0  1  0  0  0  0  0  0  0  0  0
   35.3840   20.7970   33.2660 C   0  0  0  0  0  0  0  0  0  0  0  0
   35.9690   19.5320   32.8540 N   0  0  0  0  0  0  0  0  0  0  0  0
   35.6120   19.3980   31.4270 C   0  0  0  0  0  0  0  0  0  0  0  0
   36.4390   20.4320   30.6980 C   0  0  2  0  0  0  0  0  0  0  0  0
   35.1080   21.9230   30.8890 H   0  0  0  0  0  0  0  0  0  0  0  0
   35.7300   22.8660   32.8290 H   0  0  0  0  0  0  0  0  0  0  0  0
   35.5040   20.9600   34.3750 H   0  0  0  0  0  0  0  0  0  0  0  0
   34.3290   20.8110   32.9610 H   0  0  0  0  0  0  0  0  0  0  0  0
   37.0230   19.6260   32.8390 H   0  0  0  0  0  0  0  0  0  0  0  0
   34.5380   19.6290   31.3370 H   0  0  0  0  0  0  0  0  0  0  0  0
   35.8410   18.3750   31.1190 H   0  0  0  0  0  0  0  0  0  0  0  0
   36.1550   20.3730   29.6140 H   0  0  0  0  0  0  0  0  0  0  0  0
   37.8410   20.1290   30.8750 N   0  0  0  0  0  0  0  0  0  0  0  0
   38.3690   20.8570   30.3260 H   0  0  0  0  0  0  0  0  0  0  0  0
   38.0480   19.2320   30.3920 H   0  0  0  0  0  0  0  0  0  0  0  0
  1  7  1  0  0  0  0
  2  8  1  0  0  0  0
  2  1  2  0  0  0  0
  3  2  1  0  0  0  0
  4  3  2  0  0  0  0
  4  5  1  0  0  0  0
  5  6  2  0  0  0  0
  6  1  1  0  0  0  0
  9 10  2  0  0  0  0
  9  5  1  0  0  0  0
 11 12  1  0  0  0  0
 11 18  1  0  0  0  0
 12 13  1  0  0  0  0
 13 17  1  0  0  0  0
 13 14  1  0  0  0  0
 14 16  1  0  0  0  0
 14 15  2  0  0  0  0
 16  9  1  6  0  0  0
 17 18  1  6  0  0  0
 17 16  1  0  0  0  0
 19 11  1  0  0  0  0
 19 20  1  0  0  0  0
 21 11  1  0  0  0  0
 22 21  1  0  0  0  0
 23  3  1  0  0  0  0
 24 25  1  0  0  0  0
 25 31  1  1  0  0  0
 25 23  1  0  0  0  0
 25 26  1  0  0  0  0
 26 32  1  0  0  0  0
 27 26  1  0  0  0  0
 28 27  1  0  0  0  0
 29 37  1  6  0  0  0
 29 38  1  0  0  0  0
 29 24  1  0  0  0  0
 29 28  1  0  0  0  0
 30 24  1  0  0  0  0
 33 26  1  0  0  0  0
 34 27  1  0  0  0  0
 35 28  1  0  0  0  0
 36 28  1  0  0  0  0
 39 38  1  0  0  0  0
 40 38  1  0  0  0  0
M  END
>  <minimizedAffinity>
-5.15584087

$$$$

 OpenBabel03262521023D

 40 43  0  0  1  0  0  0  0  0999 V2000
   38.3610   27.8380   31.2940 C   0  0  0  0  0  0  0  0  0  0  0  0
   38.6710   26.9480   32.2990 C   0  0  0  0  0  0  0  0  0  0  0  0
   37.8100   26.8420   33.3700 C   0  0  0  0  0  0  0  0  0  0  0  0
   36.6710   27.6370   33.3840 N   0  0  0  0  0  0  0  0  0  0  0  0
   36.4390   28.4720   32.3770 C   0  0  0  0  0  0  0  0  0  0  0  0
   37.2530   28.5950   31.3330 N   0  0  0  0  0  0  0  0  0  0  0  0
   39.0590   27.9100   30.4480 H   0  0  0  0  0  0  0  0  0  0  0  0
   39.5590   26.3170   32.3040 H   0  0  0  0  0  0  0  0  0  0  0  0
   35.2280   29.2940   32.4190 C   0  0  0  0  0  0  0  0  0  0  0  0
   34.0780   28.8410   32.5900 O   0  0  0  0  0  0  0  0  0  0  0  0
   34.2460   31.8590   35.8010 C   0  0  0  0  0  0  0  0  0  0  0  0
   34.0890   32.8460   34.6680 C   0  0  0  0  0  2  0  0  0  0  0  0
   34.2410   32.1160   33.4230 N   0  0  0  0  0  0  0  0  0  0  0  0
   34.0700   31.4970   32.1410 C   0  0  0  0  0  0  0  0  0  0  0  0
   33.1630   31.5550   31.2430 O   0  0  0  0  0  0  0  0  0  0  0  0
   35.3460   30.7570   32.2500 C   0  0  1  0  0  3  0  0  0  0  0  0
   35.6130   31.5810   33.4520 C   0  0  2  0  0  3  0  0  0  0  0  0
   35.4830   30.7170   35.0660 S   0  0  0  0  0  0  0  0  0  0  0  0
   32.9880   31.1620   36.1940 C   0  0  0  0  0  2  0  0  0  0  0  0
   32.9360   30.0880   35.8970 H   0  0  0  0  0  0  0  0  0  0  0  0
   34.8430   32.6060   36.9690 C   0  0  0  0  0  2  0  0  0  0  0  0
   34.1280   33.4450   37.1900 H   0  0  0  0  0  0  0  0  0  0  0  0
   38.0510   25.7450   34.7540 S   0  0  0  0  0  0  0  0  0  0  0  0
   40.0860   24.1420   35.5950 N   0  0  0  0  0  0  0  0  0  0  0  0
   39.4300   24.5870   34.3900 C   0  0  1  0  0  0  0  0  0  0  0  0
   38.8260   23.4240   33.6590 C   0  0  0  0  0  0  0  0  0  0  0  0
   37.8690   22.8020   34.5590 N   0  0  0  0  0  0  0  0  0  0  0  0
   38.6950   22.1830   35.6160 C   0  0  0  0  0  0  0  0  0  0  0  0
   39.2550   23.3300   36.4240 C   0  0  2  0  0  0  0  0  0  0  0  0
   40.8960   23.5860   35.2960 H   0  0  0  0  0  0  0  0  0  0  0  0
   40.1920   25.0720   33.7670 H   0  0  0  0  0  0  0  0  0  0  0  0
   38.3130   23.8450   32.7480 H   0  0  0  0  0  0  0  0  0  0  0  0
   39.5910   22.6830   33.3930 H   0  0  0  0  0  0  0  0  0  0  0  0
   37.3330   23.5560   35.0710 H   0  0  0  0  0  0  0  0  0  0  0  0
   39.5060   21.6310   35.1150 H   0  0  0  0  0  0  0  0  0  0  0  0
   38.0490   21.5250   36.2030 H   0  0  0  0  0  0  0  0  0  0  0  0
   39.9170   22.8840   37.2120 H   0  0  0  0  0  0  0  0  0  0  0  0
   38.1660   24.0630   37.0290 N   0  0  0  0  0  0  0  0  0  0  0  0
   38.6090   24.8280   37.6010 H   0  0  0  0  0  0  0  0  0  0  0  0
   37.7020   23.4460   37.7260 H   0  0  0  0  0  0  0  0  0  0  0  0
  1  6  2  0  0  0  0
  1  2  1  0  0  0  0
  2  8  1  0  0  0  0
  2  3  2  0  0  0  0
  3  4  1  0  0  0  0
  3 23  1  0  0  0  0
  5  9  1  0  0  0  0
  5  4  2  0  0  0  0
  6  5  1  0  0  0  0
  7  1  1  0  0  0  0
  9 10  2  0  0  0  0
 11 19  1  0  0  0  0
 11 21  1  0  0  0  0
 12 11  1  0  0  0  0
 13 17  1  0  0  0  0
 13 12  1  0  0  0  0
 14 16  1  0  0  0  0
 14 13  1  0  0  0  0
 15 14  2  0  0  0  0
 16  9  1  1  0  0  0
 16 17  1  0  0  0  0
 17 18  1  1  0  0  0
 18 11  1  0  0  0  0
 20 19  1  0  0  0  0
 21 22  1  0  0  0  0
 24 29  1  0  0  0  0
 25 31  1  6  0  0  0
 25 23  1  0  0  0  0
 25 24  1  0  0  0  0
 26 25  1  0  0  0  0
 26 27  1  0  0  0  0
 27 34  1  0  0  0  0
 27 28  1  0  0  0  0
 28 36  1  0  0  0  0
 28 29  1  0  0  0  0
 29 38  1  0  0  0  0
 29 37  1  1  0  0  0
 30 24  1  0  0  0  0
 32 26  1  0  0  0  0
 33 26  1  0  0  0  0
 35 28  1  0  0  0  0
 38 39  1  0  0  0  0
 38 40  1  0  0  0  0
M  END
>  <minimizedAffinity>
-5.15497732

$$$$

 OpenBabel03262521023D

 40 43  0  0  1  0  0  0  0  0999 V2000
   35.9130   30.6430   30.7630 C   0  0  0  0  0  0  0  0  0  0  0  0
   35.5440   31.0760   32.0180 C   0  0  0  0  0  0  0  0  0  0  0  0
   35.6650   30.2010   33.0760 C   0  0  0  0  0  0  0  0  0  0  0  0
   36.1530   28.9250   32.8260 N   0  0  0  0  0  0  0  0  0  0  0  0
   36.4900   28.5800   31.5880 C   0  0  0  0  0  0  0  0  0  0  0  0
   36.3820   29.4030   30.5490 N   0  0  0  0  0  0  0  0  0  0  0  0
   35.8100   31.3530   29.9310 H   0  0  0  0  0  0  0  0  0  0  0  0
   35.1600   32.0720   32.2310 H   0  0  0  0  0  0  0  0  0  0  0  0
   37.0050   27.2280   31.3570 C   0  0  0  0  0  0  0  0  0  0  0  0
   37.8220   26.9330   30.4620 O   0  0  0  0  0  0  0  0  0  0  0  0
   39.9830   24.9930   33.6190 C   0  0  0  0  0  0  0  0  0  0  0  0
   38.8520   23.9910   33.6110 C   0  0  0  0  0  2  0  0  0  0  0  0
   37.8020   24.5190   32.7600 N   0  0  0  0  0  0  0  0  0  0  0  0
   36.8290   24.7600   31.7350 C   0  0  0  0  0  0  0  0  0  0  0  0
   36.3740   24.0660   30.7640 O   0  0  0  0  0  0  0  0  0  0  0  0
   36.5460   26.1260   32.2270 C   0  0  1  0  0  3  0  0  0  0  0  0
   37.3740   25.7720   33.4040 C   0  0  2  0  0  3  0  0  0  0  0  0
   39.0290   26.5580   33.4910 S   0  0  0  0  0  0  0  0  0  0  0  0
   40.9640   24.8280   32.5090 C   0  0  0  0  0  2  0  0  0  0  0  0
   40.9090   25.6120   31.7170 H   0  0  0  0  0  0  0  0  0  0  0  0
   40.6610   24.8950   34.9650 C   0  0  0  0  0  2  0  0  0  0  0  0
   40.9960   23.8260   35.0580 H   0  0  0  0  0  0  0  0  0  0  0  0
   35.2380   30.5920   34.7620 S   0  0  0  0  0  0  0  0  0  0  0  0
   33.4630   32.6460   34.9710 N   0  0  0  0  0  0  0  0  0  0  0  0
   34.8800   32.3880   34.9070 C   0  0  1  0  0  0  0  0  0  0  0  0
   35.5590   32.8550   36.1610 C   0  0  0  0  0  0  0  0  0  0  0  0
   34.9590   32.1300   37.2690 N   0  0  0  0  0  0  0  0  0  0  0  0
   33.5870   32.6670   37.3710 C   0  0  0  0  0  0  0  0  0  0  0  0
   32.8500   32.1450   36.1590 C   0  0  2  0  0  0  0  0  0  0  0  0
   33.3530   33.6670   34.9500 H   0  0  0  0  0  0  0  0  0  0  0  0
   35.2690   32.9350   34.0390 H   0  0  0  0  0  0  0  0  0  0  0  0
   36.6520   32.6010   36.0530 H   0  0  0  0  0  0  0  0  0  0  0  0
   35.4010   33.9300   36.3190 H   0  0  0  0  0  0  0  0  0  0  0  0
   34.8120   31.1220   36.9850 H   0  0  0  0  0  0  0  0  0  0  0  0
   33.6630   33.7660   37.3340 H   0  0  0  0  0  0  0  0  0  0  0  0
   33.1590   32.3150   38.3140 H   0  0  0  0  0  0  0  0  0  0  0  0
   31.8140   32.5710   36.1970 H   0  0  0  0  0  0  0  0  0  0  0  0
   32.8100   30.7010   36.2130 N   0  0  0  0  0  0  0  0  0  0  0  0
   32.2630   30.3910   35.3670 H   0  0  0  0  0  0  0  0  0  0  0  0
   32.2230   30.4190   37.0240 H   0  0  0  0  0  0  0  0  0  0  0  0
  1  2  1  0  0  0  0
  2  8  1  0  0  0  0
  2  3  2  0  0  0  0
  3 23  1  0  0  0  0
  4  3  1  0  0  0  0
  5  4  2  0  0  0  0
  6  1  2  0  0  0  0
  6  5  1  0  0  0  0
  7  1  1  0  0  0  0
  9  5  1  0  0  0  0
 10  9  2  0  0  0  0
 11 21  1  0  0  0  0
 12 11  1  0  0  0  0
 13 17  1  0  0  0  0
 13 12  1  0  0  0  0
 14 16  1  0  0  0  0
 14 13  1  0  0  0  0
 15 14  2  0  0  0  0
 16  9  1  6  0  0  0
 16 17  1  0  0  0  0
 17 18  1  6  0  0  0
 18 11  1  0  0  0  0
 19 11  1  0  0  0  0
 20 19  1  0  0  0  0
 21 22  1  0  0  0  0
 23 25  1  0  0  0  0
 24 29  1  0  0  0  0
 25 31  1  6  0  0  0
 25 24  1  0  0  0  0
 25 26  1  0  0  0  0
 26 33  1  0  0  0  0
 26 27  1  0  0  0  0
 27 28  1  0  0  0  0
 28 36  1  0  0  0  0
 29 37  1  1  0  0  0
 29 38  1  0  0  0  0
 29 28  1  0  0  0  0
 30 24  1  0  0  0  0
 32 26  1  0  0  0  0
 34 27  1  0  0  0  0
 35 28  1  0  0  0  0
 38 40  1  0  0  0  0
 39 38  1  0  0  0  0
M  END
>  <minimizedAffinity>
-5.10669184

$$$$

 OpenBabel03262521023D

 40 43  0  0  1  0  0  0  0  0999 V2000
   38.1400   26.9710   31.4470 C   0  0  0  0  0  0  0  0  0  0  0  0
   37.3840   27.9490   32.0550 C   0  0  0  0  0  0  0  0  0  0  0  0
   36.8360   27.6820   33.2900 C   0  0  0  0  0  0  0  0  0  0  0  0
   37.0710   26.4400   33.8640 N   0  0  0  0  0  0  0  0  0  0  0  0
   37.8120   25.5460   33.2160 C   0  0  0  0  0  0  0  0  0  0  0  0
   38.3510   25.7770   32.0230 N   0  0  0  0  0  0  0  0  0  0  0  0
   38.5690   27.2000   30.4620 H   0  0  0  0  0  0  0  0  0  0  0  0
   37.1900   28.9290   31.6200 H   0  0  0  0  0  0  0  0  0  0  0  0
   38.0460   24.2450   33.8490 C   0  0  0  0  0  0  0  0  0  0  0  0
   38.2370   23.1850   33.2210 O   0  0  0  0  0  0  0  0  0  0  0  0
   41.6940   22.8880   35.8040 C   0  0  0  0  0  0  0  0  0  0  0  0
   40.6890   22.6000   36.8940 C   0  0  0  0  0  2  0  0  0  0  0  0
   39.3670   22.8620   36.3550 N   0  0  0  0  0  0  0  0  0  0  0  0
   38.0150   22.7880   35.8850 C   0  0  0  0  0  0  0  0  0  0  0  0
   37.1090   21.8890   35.9280 O   0  0  0  0  0  0  0  0  0  0  0  0
   38.0620   24.1560   35.3230 C   0  0  1  0  0  3  0  0  0  0  0  0
   39.3630   24.2950   36.0180 C   0  0  2  0  0  3  0  0  0  0  0  0
   40.8540   24.2800   34.9480 S   0  0  0  0  0  0  0  0  0  0  0  0
   41.9680   21.7390   34.8940 C   0  0  0  0  0  2  0  0  0  0  0  0
   41.5390   21.8420   33.8690 H   0  0  0  0  0  0  0  0  0  0  0  0
   42.9600   23.3650   36.4750 C   0  0  0  0  0  2  0  0  0  0  0  0
   43.2660   22.5370   37.1710 H   0  0  0  0  0  0  0  0  0  0  0  0
   35.8360   28.8290   34.2200 S   0  0  0  0  0  0  0  0  0  0  0  0
   33.8660   30.1240   32.8570 N   0  0  0  0  0  0  0  0  0  0  0  0
   35.2820   30.1940   33.1230 C   0  0  1  0  0  0  0  0  0  0  0  0
   35.6230   31.4720   33.8310 C   0  0  0  0  0  0  0  0  0  0  0  0
   34.8710   31.4880   35.0740 N   0  0  0  0  0  0  0  0  0  0  0  0
   33.4640   31.6600   34.6610 C   0  0  0  0  0  0  0  0  0  0  0  0
   33.0620   30.3550   34.0140 C   0  0  2  0  0  0  0  0  0  0  0  0
   33.6650   30.8550   32.1650 H   0  0  0  0  0  0  0  0  0  0  0  0
   35.7950   30.1490   32.1540 H   0  0  0  0  0  0  0  0  0  0  0  0
   36.7330   31.4480   34.0270 H   0  0  0  0  0  0  0  0  0  0  0  0
   35.3310   32.3450   33.2330 H   0  0  0  0  0  0  0  0  0  0  0  0
   34.8880   30.5210   35.5020 H   0  0  0  0  0  0  0  0  0  0  0  0
   33.4390   32.4810   33.9250 H   0  0  0  0  0  0  0  0  0  0  0  0
   32.8780   31.8910   35.5540 H   0  0  0  0  0  0  0  0  0  0  0  0
   32.0060   30.4770   33.6590 H   0  0  0  0  0  0  0  0  0  0  0  0
   33.1520   29.2930   34.9910 N   0  0  0  0  0  0  0  0  0  0  0  0
   32.8350   28.4160   34.5000 H   0  0  0  0  0  0  0  0  0  0  0  0
   32.4340   29.4600   35.7250 H   0  0  0  0  0  0  0  0  0  0  0  0
  1  6  2  0  0  0  0
  1  2  1  0  0  0  0
  2  3  2  0  0  0  0
  3  4  1  0  0  0  0
  3 23  1  0  0  0  0
  5  9  1  0  0  0  0
  5  4  2  0  0  0  0
  6  5  1  0  0  0  0
  7  1  1  0  0  0  0
  8  2  1  0  0  0  0
 10  9  2  0  0  0  0
 11 21  1  0  0  0  0
 11 12  1  0  0  0  0
 13 12  1  0  0  0  0
 14 15  2  0  0  0  0
 14 13  1  0  0  0  0
 16  9  1  6  0  0  0
 16 14  1  0  0  0  0
 16 17  1  0  0  0  0
 17 18  1  6  0  0  0
 17 13  1  0  0  0  0
 18 11  1  0  0  0  0
 19 11  1  0  0  0  0
 20 19  1  0  0  0  0
 21 22  1  0  0  0  0
 24 25  1  0  0  0  0
 24 29  1  0  0  0  0
 25 31  1  6  0  0  0
 25 26  1  0  0  0  0
 25 23  1  0  0  0  0
 26 32  1  0  0  0  0
 26 27  1  0  0  0  0
 27 34  1  0  0  0  0
 28 27  1  0  0  0  0
 28 36  1  0  0  0  0
 29 37  1  6  0  0  0
 29 28  1  0  0  0  0
 29 38  1  0  0  0  0
 30 24  1  0  0  0  0
 33 26  1  0  0  0  0
 35 28  1  0  0  0  0
 38 40  1  0  0  0  0
 39 38  1  0  0  0  0
M  END
>  <minimizedAffinity>
-5.03368044

$$$$

 OpenBabel03262521023D

 40 43  0  0  1  0  0  0  0  0999 V2000
   36.6430   28.9720   30.7050 C   0  0  0  0  0  0  0  0  0  0  0  0
   35.8520   29.9510   31.2670 C   0  0  0  0  0  0  0  0  0  0  0  0
   35.5530   29.8620   32.6090 C   0  0  0  0  0  0  0  0  0  0  0  0
   36.0620   28.7910   33.3310 N   0  0  0  0  0  0  0  0  0  0  0  0
   36.8180   27.8850   32.7190 C   0  0  0  0  0  0  0  0  0  0  0  0
   37.1220   27.9450   31.4260 N   0  0  0  0  0  0  0  0  0  0  0  0
   36.8720   29.0580   29.6340 H   0  0  0  0  0  0  0  0  0  0  0  0
   35.4450   30.7970   30.7160 H   0  0  0  0  0  0  0  0  0  0  0  0
   37.3450   26.7690   33.5080 C   0  0  0  0  0  0  0  0  0  0  0  0
   37.0800   25.5700   33.2900 O   0  0  0  0  0  0  0  0  0  0  0  0
   41.4340   25.2800   33.3190 C   0  0  0  0  0  0  0  0  0  0  0  0
   41.2940   25.4740   34.8100 C   0  0  0  0  0  2  0  0  0  0  0  0
   39.9150   25.8380   35.0800 N   0  0  0  0  0  0  0  0  0  0  0  0
   38.5540   25.9060   35.5240 C   0  0  0  0  0  0  0  0  0  0  0  0
   37.8600   25.2360   36.3610 O   0  0  0  0  0  0  0  0  0  0  0  0
   38.2500   27.0530   34.6400 C   0  0  1  0  0  3  0  0  0  0  0  0
   39.7060   27.1130   34.3740 C   0  0  2  0  0  3  0  0  0  0  0  0
   40.2460   26.5440   32.7150 S   0  0  0  0  0  0  0  0  0  0  0  0
   41.1030   23.9080   32.8380 C   0  0  0  0  0  2  0  0  0  0  0  0
   40.1420   23.8290   32.2770 H   0  0  0  0  0  0  0  0  0  0  0  0
   42.8470   25.6610   32.9470 C   0  0  0  0  0  2  0  0  0  0  0  0
   43.5130   24.9940   33.5590 H   0  0  0  0  0  0  0  0  0  0  0  0
   34.5490   31.0360   33.4990 S   0  0  0  0  0  0  0  0  0  0  0  0
   36.0590   31.1340   35.7630 N   0  0  0  0  0  0  0  0  0  0  0  0
   34.7420   30.7660   35.3060 C   0  0  1  0  0  0  0  0  0  0  0  0
   33.6970   31.6100   35.9740 C   0  0  0  0  0  0  0  0  0  0  0  0
   33.9840   32.9950   35.6380 N   0  0  0  0  0  0  0  0  0  0  0  0
   35.2310   33.3080   36.3650 C   0  0  0  0  0  0  0  0  0  0  0  0
   36.3220   32.5330   35.6630 C   0  0  2  0  0  0  0  0  0  0  0  0
   36.1100   30.8590   36.7510 H   0  0  0  0  0  0  0  0  0  0  0  0
   34.5950   29.7090   35.5600 H   0  0  0  0  0  0  0  0  0  0  0  0
   32.7020   31.2880   35.5540 H   0  0  0  0  0  0  0  0  0  0  0  0
   33.7370   31.4980   37.0660 H   0  0  0  0  0  0  0  0  0  0  0  0
   34.2680   33.0530   34.6210 H   0  0  0  0  0  0  0  0  0  0  0  0
   35.1050   32.9470   37.3990 H   0  0  0  0  0  0  0  0  0  0  0  0
   35.3820   34.3900   36.3220 H   0  0  0  0  0  0  0  0  0  0  0  0
   37.2740   32.7280   36.2230 H   0  0  0  0  0  0  0  0  0  0  0  0
   36.4300   32.9960   34.2980 N   0  0  0  0  0  0  0  0  0  0  0  0
   37.2190   32.4480   33.8650 H   0  0  0  0  0  0  0  0  0  0  0  0
   36.7660   33.9800   34.3100 H   0  0  0  0  0  0  0  0  0  0  0  0
  1  2  2  0  0  0  0
  1  6  1  0  0  0  0
  2  3  1  0  0  0  0
  3  4  2  0  0  0  0
  3 23  1  0  0  0  0
  5  4  1  0  0  0  0
  5  9  1  0  0  0  0
  6  5  2  0  0  0  0
  7  1  1  0  0  0  0
  8  2  1  0  0  0  0
 10  9  2  0  0  0  0
 11 12  1  0  0  0  0
 12 13  1  0  0  0  0
 13 14  1  0  0  0  0
 14 15  2  0  0  0  0
 16  9  1  6  0  0  0
 16 14  1  0  0  0  0
 17 18  1  6  0  0  0
 17 16  1  0  0  0  0
 17 13  1  0  0  0  0
 18 11  1  0  0  0  0
 19 11  1  0  0  0  0
 20 19  1  0  0  0  0
 21 11  1  0  0  0  0
 21 22  1  0  0  0  0
 23 25  1  0  0  0  0
 24 30  1  0  0  0  0
 25 31  1  1  0  0  0
 25 24  1  0  0  0  0
 25 26  1  0  0  0  0
 26 33  1  0  0  0  0
 27 26  1  0  0  0  0
 27 28  1  0  0  0  0
 28 35  1  0  0  0  0
 29 24  1  0  0  0  0
 29 37  1  1  0  0  0
 29 28  1  0  0  0  0
 32 26  1  0  0  0  0
 34 27  1  0  0  0  0
 36 28  1  0  0  0  0
 38 40  1  0  0  0  0
 38 29  1  0  0  0  0
 39 38  1  0  0  0  0
M  END
>  <minimizedAffinity>
-5.02111435

$$$$
