
 OpenBabel03272507123D

 43 48  0  0  1  0  0  0  0  0999 V2000
   37.3170   29.5220   49.8600 C   0  0  0  0  0  0  0  0  0  0  0  0
   38.0150   28.7490   50.5690 O   0  0  0  0  0  0  0  0  0  0  0  0
   37.8210   30.7300   49.2610 C   0  0  0  0  0  0  0  0  0  0  0  0
   38.4180   31.6580   50.0990 C   0  0  0  0  0  0  0  0  0  0  0  0
   38.9200   32.8410   49.5650 C   0  0  0  0  0  0  0  0  0  0  0  0
   38.7850   33.0080   48.2150 N   0  0  0  0  0  0  0  0  0  0  0  0
   38.2080   32.1070   47.4180 C   0  0  0  0  0  0  0  0  0  0  0  0
   37.7320   30.9730   47.9550 N   0  0  0  0  0  0  0  0  0  0  0  0
   38.5050   31.4870   51.1690 H   0  0  0  0  0  0  0  0  0  0  0  0
   39.3970   33.6110   50.1540 H   0  0  0  0  0  0  0  0  0  0  0  0
   38.0780   32.3180   45.9620 C   0  0  0  0  0  2  0  0  0  0  0  0
   37.7340   30.9910   45.3200 C   0  0  2  0  0  0  0  0  0  0  0  0
   38.9680   30.1440   45.2980 C   0  0  0  0  0  2  0  0  0  0  0  0
   38.9050   29.3150   44.1120 N   0  0  0  0  0  0  0  0  0  0  0  0
   38.9000   28.1780   43.2230 C   0  0  0  0  0  0  0  0  0  0  0  0
   39.3610   26.9940   43.3010 O   0  0  0  0  0  0  0  0  0  0  0  0
   38.1370   28.9480   42.1820 C   0  0  0  0  0  3  0  0  0  0  0  0
   37.0320   28.8610   42.2500 H   0  0  0  0  0  0  0  0  0  0  0  0
   38.7150   30.1260   42.9220 C   0  0  1  0  0  3  0  0  0  0  0  0
   37.4760   31.2980   43.5480 S   0  0  0  0  0  0  0  0  0  0  0  0
   36.5550   30.3490   45.9650 C   0  0  0  0  0  2  0  0  0  0  0  0
   36.3540   29.3650   45.5420 H   0  0  0  0  0  0  0  0  0  0  0  0
   35.9210   29.1860   49.6230 C   0  0  0  0  0  0  0  0  0  0  0  0
   34.9110   29.7630   50.3090 C   0  0  0  0  0  0  0  0  0  0  0  0
   33.7230   29.2110   49.8280 C   0  0  0  0  0  0  0  0  0  0  0  0
   34.1050   28.2960   48.8390 C   0  0  0  0  0  0  0  0  0  0  0  0
   35.4020   28.3340   48.7720 O   0  0  0  0  0  0  0  0  0  0  0  0
   34.9730   30.5140   51.0920 H   0  0  0  0  0  0  0  0  0  0  0  0
   32.7580   29.4980   50.2090 H   0  0  0  0  0  0  0  0  0  0  0  0
   33.5030   26.5890   47.1360 C   0  0  0  0  0  0  0  0  0  0  0  0
   33.1220   27.5150   48.0990 C   0  0  0  0  0  0  0  0  0  0  0  0
   31.7920   27.7270   48.3930 C   0  0  0  0  0  0  0  0  0  0  0  0
   30.8550   26.9940   47.7020 C   0  0  0  0  0  0  0  0  0  0  0  0
   29.5090   27.0040   47.7920 N   0  0  0  0  0  0  0  0  0  0  0  0
   29.0390   26.1160   46.9170 N   0  0  0  0  0  0  0  0  0  0  0  0
   30.0920   25.5500   46.2800 C   0  0  0  0  0  0  0  0  0  0  0  0
   31.2670   26.0830   46.7520 C   0  0  0  0  0  0  0  0  0  0  0  0
   32.5910   25.8580   46.4470 C   0  0  0  0  0  0  0  0  0  0  0  0
   34.5690   26.4440   46.9280 H   0  0  0  0  0  0  0  0  0  0  0  0
   31.4280   28.4430   49.1410 H   0  0  0  0  0  0  0  0  0  0  0  0
   28.8720   27.5670   48.4020 H   0  0  0  0  0  0  0  0  0  0  0  0
   29.9860   24.7920   45.5170 H   0  0  0  0  0  0  0  0  0  0  0  0
   32.8580   25.1370   45.6990 H   0  0  0  0  0  0  0  0  0  0  0  0
  1  2  2  0  0  0  0
  3  1  1  0  0  0  0
  3  4  1  0  0  0  0
  4  9  1  0  0  0  0
  5  4  2  0  0  0  0
  5 10  1  0  0  0  0
  6  5  1  0  0  0  0
  7  8  1  0  0  0  0
  7  6  2  0  0  0  0
  8  3  2  0  0  0  0
 11  7  1  0  0  0  0
 12 11  1  1  0  0  0
 12 21  1  0  0  0  0
 13 12  1  0  0  0  0
 14 13  1  0  0  0  0
 15 16  2  0  0  0  0
 15 14  1  0  0  0  0
 17 18  1  0  0  0  0
 17 15  1  0  0  0  0
 19 17  1  6  0  0  0
 19 20  1  0  0  0  0
 19 14  1  0  0  0  0
 20 12  1  0  0  0  0
 22 21  1  0  0  0  0
 23  1  1  0  0  0  0
 23 24  2  0  0  0  0
 24 28  1  0  0  0  0
 25 29  1  0  0  0  0
 25 24  1  0  0  0  0
 26 25  2  0  0  0  0
 27 26  1  0  0  0  0
 27 23  1  0  0  0  0
 30 31  1  0  0  0  0
 31 32  2  0  0  0  0
 31 26  1  0  0  0  0
 32 40  1  0  0  0  0
 33 34  1  0  0  0  0
 33 32  1  0  0  0  0
 34 41  1  0  0  0  0
 35 34  1  0  0  0  0
 36 37  1  0  0  0  0
 36 35  2  0  0  0  0
 37 33  2  0  0  0  0
 38 37  1  0  0  0  0
 38 30  2  0  0  0  0
 39 30  1  0  0  0  0
 42 36  1  0  0  0  0
 43 38  1  0  0  0  0
M  END
>  <minimizedAffinity>
-6.75157213

>  <minimizedRMSD>
1.30070364

$$$$
