REMARK  Name = 
REMARK  5 active torsions:
REMARK  status: ('A' for Active; 'I' for Inactive)
REMARK    1  A    between atoms: C_3  and  C_10
REMARK    2  A    between atoms: C_7  and  N_14
REMARK    3  A    between atoms: C_19  and  C_34
REMARK    4  A    between atoms: C_34  and  C_35
REMARK    5  A    between atoms: C_35  and  C_36
REMARK                            x       y       z     vdW  Elec       q    Type
REMARK                         _______ _______ _______ _____ _____    ______ ____
ROOT
ATOM      1  N   UNL     1      38.457  31.425  44.910  0.00  0.00    +0.000 N 
ATOM      2  C   UNL     1      38.749  32.845  44.834  0.00  0.00    +0.000 C 
ATOM      3  C   UNL     1      40.068  32.962  44.088  0.00  0.00    +0.000 C 
ATOM      4  N   UNL     1      39.914  32.250  42.868  0.00  0.00    +0.000 NA
ATOM      5  C   UNL     1      39.810  30.841  43.054  0.00  0.00    +0.000 C 
ATOM      6  C   UNL     1      39.500  30.497  44.495  0.00  0.00    +0.000 C 
ATOM      7  H   UNL     1      38.842  33.299  45.823  0.00  0.00    +0.000 HD
ATOM      8  H   UNL     1      37.971  33.359  44.234  0.00  0.00    +0.000 HD
ATOM      9  H   UNL     1      40.149  34.044  43.825  0.00  0.00    +0.000 HD
ATOM     10  H   UNL     1      40.937  32.724  44.694  0.00  0.00    +0.000 HD
ATOM     11  H   UNL     1      40.640  32.568  42.199  0.00  0.00    +0.000 HD
ATOM     12  H   UNL     1      38.935  30.500  42.461  0.00  0.00    +0.000 HD
ATOM     13  H   UNL     1      40.776  30.415  42.721  0.00  0.00    +0.000 HD
ATOM     14  H   UNL     1      40.402  30.727  45.095  0.00  0.00    +0.000 HD
ENDROOT
BRANCH   1  21
ATOM     15 CL   UNL     1      38.250  31.019  47.828  0.00  0.00    +0.000 Cl
ATOM     16  C   UNL     1      36.988  30.605  46.702  0.00  0.00    +0.000 A 
ATOM     17  C   UNL     1      35.837  30.066  47.162  0.00  0.00    +0.000 A 
ATOM     18  C   UNL     1      34.874  29.793  46.192  0.00  0.00    +0.000 A 
ATOM     19  C   UNL     1      35.011  30.026  44.858  0.00  0.00    +0.000 A 
ATOM     20  C   UNL     1      36.205  30.576  44.439  0.00  0.00    +0.000 A 
ATOM     21  C   UNL     1      37.207  30.870  45.365  0.00  0.00    +0.000 A 
ATOM     22  H   UNL     1      33.927  29.357  46.521  0.00  0.00    +0.000 HD
ATOM     23  H   UNL     1      34.237  29.800  44.140  0.00  0.00    +0.000 HD
ATOM     24  H   UNL     1      36.429  30.805  43.406  0.00  0.00    +0.000 HD
BRANCH  17  27
ATOM     25  C   UNL     1      36.519  29.154  50.742  0.00  0.00    +0.000 A 
ATOM     26  C   UNL     1      36.723  29.384  49.373  0.00  0.00    +0.000 A 
ATOM     27  C   UNL     1      35.656  29.807  48.568  0.00  0.00    +0.000 A 
ATOM     28  N   UNL     1      34.440  29.974  49.176  0.00  0.00    +0.000 NA
ATOM     29  C   UNL     1      34.262  29.747  50.489  0.00  0.00    +0.000 A 
ATOM     30  N   UNL     1      35.292  29.338  51.280  0.00  0.00    +0.000 NA
ATOM     31  H   UNL     1      37.277  28.829  51.438  0.00  0.00    +0.000 HD
ATOM     32  H   UNL     1      37.736  29.160  49.113  0.00  0.00    +0.000 HD
ATOM     33  H   UNL     1      33.236  29.934  50.774  0.00  0.00    +0.000 HD
ENDBRANCH  17  27
ENDBRANCH   1  21
BRANCH   6  34
ATOM     34  C   UNL     1      39.100  29.100  44.730  0.00  0.00    +0.000 C 
BRANCH  34  35
ATOM     35  C   UNL     1      39.026  28.182  43.571  0.00  0.00    +0.000 C 
ATOM     36  C   UNL     1      40.268  27.968  42.794  0.00  0.00    +0.000 C 
ATOM     37  N   UNL     1      40.173  28.651  41.531  0.00  0.00    +0.000 N 
ATOM     38  C   UNL     1      40.407  29.460  40.384  0.00  0.00    +0.000 C 
ATOM     39  O   UNL     1      41.426  30.043  39.888  0.00  0.00    +0.000 OA
ATOM     40  C   UNL     1      38.983  29.403  39.920  0.00  0.00    +0.000 C 
ATOM     41  H   UNL     1      38.382  30.287  40.150  0.00  0.00    +0.000 HD
ATOM     42  C   UNL     1      38.920  28.279  40.899  0.00  0.00    +0.000 C 
ATOM     43  S   UNL     1      37.797  28.598  42.321  0.00  0.00    +0.000 S 
BRANCH  35  44
ATOM     44  C   UNL     1      38.593  26.836  44.133  0.00  0.00    +0.000 C 
ATOM     45  H   UNL     1      38.314  26.150  43.330  0.00  0.00    +0.000 HD
ENDBRANCH  35  44
ENDBRANCH  34  35
ENDBRANCH   6  34
TORSDOF 5
