REMARK  Name = 
REMARK  8 active torsions:
REMARK  status: ('A' for Active; 'I' for Inactive)
REMARK    1  A    between atoms: C_1  and  C_2
REMARK    2  A    between atoms: C_1  and  O_5
REMARK    3  A    between atoms: C_2  and  C_3
REMARK    4  A    between atoms: C_3  and  S_4
REMARK    5  A    between atoms: O_5  and  C_6
REMARK    6  A    between atoms: C_10  and  C_21
REMARK    7  A    between atoms: C_21  and  C_22
REMARK    8  A    between atoms: C_22  and  C_23
REMARK                            x       y       z     vdW  Elec       q    Type
REMARK                         _______ _______ _______ _____ _____    ______ ____
ROOT
ATOM      1  C   UNL     1      38.499  32.365  46.331  0.00  0.00    +0.000 A 
ATOM      2  C   UNL     1      39.823  32.810  46.237  0.00  0.00    +0.000 A 
ATOM      3  C   UNL     1      40.338  33.117  44.981  0.00  0.00    +0.000 A 
ATOM      4  N   UNL     1      39.514  32.965  43.899  0.00  0.00    +0.000 NA
ATOM      5  C   UNL     1      38.226  32.528  44.030  0.00  0.00    +0.000 A 
ATOM      6  N   UNL     1      37.753  32.241  45.228  0.00  0.00    +0.000 NA
ATOM      7  H   UNL     1      40.516  32.948  47.054  0.00  0.00    +0.000 HD
ATOM      8  H   UNL     1      41.357  33.465  44.856  0.00  0.00    +0.000 HD
ENDROOT
BRANCH   1   9
ATOM      9  O   UNL     1      38.129  32.100  47.641  0.00  0.00    +0.000 OA
BRANCH   9  10
ATOM     10  C   UNL     1      37.179  31.119  47.834  0.00  0.00    +0.000 C 
ATOM     11  H   UNL     1      36.250  31.632  48.215  0.00  0.00    +0.000 HD
ATOM     12  H   UNL     1      36.841  30.604  46.909  0.00  0.00    +0.000 HD
BRANCH  10  13
ATOM     13  C   UNL     1      37.831  30.359  48.730  0.00  0.00    +0.000 C 
ATOM     14  H   UNL     1      37.276  29.389  48.907  0.00  0.00    +0.000 HD
ATOM     15  H   UNL     1      38.816  29.949  48.375  0.00  0.00    +0.000 HD
BRANCH  13  16
ATOM     16  C   UNL     1      38.106  30.945  50.075  0.00  0.00    +0.000 C 
ATOM     17  H   UNL     1      37.695  31.979  50.085  0.00  0.00    +0.000 HD
ATOM     18  H   UNL     1      39.184  31.061  50.305  0.00  0.00    +0.000 HD
BRANCH  16  19
ATOM     19  S   UNL     1      37.288  30.047  51.398  0.00  0.00    +0.000 S 
ATOM     20  H   UNL     1      37.025  30.840  52.533  0.00  0.00    +0.000 HD
ENDBRANCH  16  19
ENDBRANCH  13  16
ENDBRANCH  10  13
ENDBRANCH   9  10
ENDBRANCH   1   9
BRANCH   5  21
ATOM     21  C   UNL     1      37.348  32.370  42.840  0.00  0.00    +0.000 C 
BRANCH  21  22
ATOM     22  C   UNL     1      36.168  31.543  43.268  0.00  0.00    +0.000 C 
ATOM     23  C   UNL     1      35.099  31.412  42.214  0.00  0.00    +0.000 C 
ATOM     24  N   UNL     1      34.308  32.599  42.204  0.00  0.00    +0.000 N 
ATOM     25  C   UNL     1      33.640  33.772  41.742  0.00  0.00    +0.000 C 
ATOM     26  O   UNL     1      33.148  34.209  40.665  0.00  0.00    +0.000 OA
ATOM     27  C   UNL     1      33.759  34.315  43.121  0.00  0.00    +0.000 C 
ATOM     28  H   UNL     1      34.739  34.815  43.243  0.00  0.00    +0.000 HD
ATOM     29  C   UNL     1      33.797  32.876  43.513  0.00  0.00    +0.000 C 
ATOM     30  S   UNL     1      35.241  32.429  44.555  0.00  0.00    +0.000 S 
BRANCH  22  31
ATOM     31  C   UNL     1      36.655  30.207  43.752  0.00  0.00    +0.000 C 
ATOM     32  H   UNL     1      36.180  29.340  43.221  0.00  0.00    +0.000 HD
ENDBRANCH  22  31
ENDBRANCH  21  22
ENDBRANCH   5  21
TORSDOF 8
