
 OpenBabel03272501313D

 23 25  0  0  1  0  0  0  0  0999 V2000
   41.6820   22.3360   36.2980 C   0  0  0  0  0  0  0  0  0  0  0  0
   40.8450   22.2740   37.5290 C   0  0  0  0  0  2  0  0  0  0  0  0
   39.5460   22.7990   37.2400 N   0  0  0  0  0  0  0  0  0  0  0  0
   38.3570   23.5660   37.3570 C   0  0  0  0  0  0  0  0  0  0  0  0
   37.6980   24.2240   38.2330 O   0  0  0  0  0  0  0  0  0  0  0  0
   38.0470   23.3440   35.9200 C   0  0  2  0  0  3  0  0  0  0  0  0
   39.0060   22.2150   36.0600 C   0  0  1  0  0  3  0  0  0  0  0  0
   40.4530   22.3120   34.9350 S   0  0  0  0  0  0  0  0  0  0  0  0
   38.5340   24.5460   35.1690 C   0  0  0  0  0  0  0  0  0  0  0  0
   39.4690   25.2380   35.6180 O   0  0  0  0  0  0  0  0  0  0  0  0
   36.7420   26.3540   32.4210 C   0  0  0  0  0  0  0  0  0  0  0  0
   37.3890   26.1240   33.6410 C   0  0  0  0  0  0  0  0  0  0  0  0
   37.8540   24.8350   33.9160 C   0  0  0  0  0  0  0  0  0  0  0  0
   37.6430   23.8770   32.9580 N   0  0  0  0  0  0  0  0  0  0  0  0
   37.0190   24.1390   31.8070 C   0  0  0  0  0  0  0  0  0  0  0  0
   36.5690   25.3620   31.5290 N   0  0  0  0  0  0  0  0  0  0  0  0
   36.3670   27.3270   32.1680 H   0  0  0  0  0  0  0  0  0  0  0  0
   37.5310   26.9190   34.3630 H   0  0  0  0  0  0  0  0  0  0  0  0
   36.8630   23.3680   31.0680 H   0  0  0  0  0  0  0  0  0  0  0  0
   42.6410   23.4650   36.2060 C   0  0  0  0  0  2  0  0  0  0  0  0
   43.5670   23.0980   35.6770 H   0  0  0  0  0  0  0  0  0  0  0  0
   42.3700   20.9680   36.1910 C   0  0  0  0  0  2  0  0  0  0  0  0
   41.6290   20.2030   36.5490 H   0  0  0  0  0  0  0  0  0  0  0  0
  1  2  1  0  0  0  0
  3  4  1  0  0  0  0
  3  2  1  0  0  0  0
  4  5  2  0  0  0  0
  6  9  1  6  0  0  0
  6  7  1  0  0  0  0
  6  4  1  0  0  0  0
  7  8  1  6  0  0  0
  7  3  1  0  0  0  0
  8  1  1  0  0  0  0
  9 10  2  0  0  0  0
 11 12  1  0  0  0  0
 12 13  2  0  0  0  0
 12 18  1  0  0  0  0
 13  9  1  0  0  0  0
 14 13  1  0  0  0  0
 15 14  2  0  0  0  0
 16 15  1  0  0  0  0
 16 11  2  0  0  0  0
 17 11  1  0  0  0  0
 19 15  1  0  0  0  0
 20  1  1  0  0  0  0
 21 20  1  0  0  0  0
 22  1  1  0  0  0  0
 22 23  1  0  0  0  0
M  END
>  <minimizedAffinity>
-4.56932306

$$$$

 OpenBabel03272501313D

 23 25  0  0  1  0  0  0  0  0999 V2000
   38.2960   25.9910   34.9160 C   0  0  0  0  0  0  0  0  0  0  0  0
   38.1580   25.0870   36.0920 C   0  0  0  0  0  2  0  0  0  0  0  0
   38.1010   23.7310   35.6370 N   0  0  0  0  0  0  0  0  0  0  0  0
   37.6630   22.3900   35.4820 C   0  0  0  0  0  0  0  0  0  0  0  0
   36.9410   21.5200   36.0810 O   0  0  0  0  0  0  0  0  0  0  0  0
   38.4130   22.2700   34.2050 C   0  0  2  0  0  3  0  0  0  0  0  0
   39.1550   23.4510   34.7230 C   0  0  1  0  0  3  0  0  0  0  0  0
   39.0720   24.9280   33.6380 S   0  0  0  0  0  0  0  0  0  0  0  0
   37.4430   22.5250   33.0920 C   0  0  0  0  0  0  0  0  0  0  0  0
   37.3170   23.6690   32.6110 O   0  0  0  0  0  0  0  0  0  0  0  0
   34.6080   20.3200   32.0280 C   0  0  0  0  0  0  0  0  0  0  0  0
   35.2960   21.4540   32.4760 C   0  0  0  0  0  0  0  0  0  0  0  0
   36.6830   21.3740   32.6290 C   0  0  0  0  0  0  0  0  0  0  0  0
   37.2780   20.1770   32.3240 N   0  0  0  0  0  0  0  0  0  0  0  0
   36.5830   19.1190   31.8990 C   0  0  0  0  0  0  0  0  0  0  0  0
   35.2600   19.1770   31.7480 N   0  0  0  0  0  0  0  0  0  0  0  0
   33.5430   20.3350   31.8970 H   0  0  0  0  0  0  0  0  0  0  0  0
   34.7760   22.3760   32.7030 H   0  0  0  0  0  0  0  0  0  0  0  0
   37.0730   18.1860   31.6660 H   0  0  0  0  0  0  0  0  0  0  0  0
   37.0560   26.6630   34.4500 C   0  0  0  0  0  2  0  0  0  0  0  0
   37.3310   27.6920   34.0800 H   0  0  0  0  0  0  0  0  0  0  0  0
   39.4040   26.9880   35.2820 C   0  0  0  0  0  2  0  0  0  0  0  0
   40.1690   26.4190   35.8760 H   0  0  0  0  0  0  0  0  0  0  0  0
  1 22  1  0  0  0  0
  1  2  1  0  0  0  0
  3  2  1  0  0  0  0
  4  3  1  0  0  0  0
  4  5  2  0  0  0  0
  6  9  1  6  0  0  0
  6  7  1  0  0  0  0
  6  4  1  0  0  0  0
  7  8  1  6  0  0  0
  7  3  1  0  0  0  0
  8  1  1  0  0  0  0
 10  9  2  0  0  0  0
 11 12  1  0  0  0  0
 12 13  2  0  0  0  0
 12 18  1  0  0  0  0
 13  9  1  0  0  0  0
 14 13  1  0  0  0  0
 15 14  2  0  0  0  0
 16 15  1  0  0  0  0
 16 11  2  0  0  0  0
 17 11  1  0  0  0  0
 19 15  1  0  0  0  0
 20  1  1  0  0  0  0
 21 20  1  0  0  0  0
 22 23  1  0  0  0  0
M  END
>  <minimizedAffinity>
-4.51152134

$$$$

 OpenBabel03272501313D

 23 25  0  0  1  0  0  0  0  0999 V2000
   41.1510   26.5690   32.6310 C   0  0  0  0  0  0  0  0  0  0  0  0
   39.9080   27.0280   31.9520 C   0  0  0  0  0  2  0  0  0  0  0  0
   38.7730   26.5910   32.7040 N   0  0  0  0  0  0  0  0  0  0  0  0
   37.5140   26.0110   33.0100 C   0  0  0  0  0  0  0  0  0  0  0  0
   36.4250   25.6710   32.4310 O   0  0  0  0  0  0  0  0  0  0  0  0
   37.8900   25.8950   34.4430 C   0  0  2  0  0  3  0  0  0  0  0  0
   38.9150   26.9130   34.0830 C   0  0  1  0  0  3  0  0  0  0  0  0
   40.6440   26.3800   34.3850 S   0  0  0  0  0  0  0  0  0  0  0  0
   38.3840   24.4970   34.6620 C   0  0  0  0  0  0  0  0  0  0  0  0
   38.6130   23.7470   33.6920 O   0  0  0  0  0  0  0  0  0  0  0  0
   39.7340   22.8510   37.7440 C   0  0  0  0  0  0  0  0  0  0  0  0
   39.5940   23.2090   36.3980 C   0  0  0  0  0  0  0  0  0  0  0  0
   38.5710   24.0940   36.0470 C   0  0  0  0  0  0  0  0  0  0  0  0
   37.7690   24.5560   37.0590 N   0  0  0  0  0  0  0  0  0  0  0  0
   37.9380   24.1890   38.3320 C   0  0  0  0  0  0  0  0  0  0  0  0
   38.9070   23.3440   38.6840 N   0  0  0  0  0  0  0  0  0  0  0  0
   40.5030   22.1740   38.0590 H   0  0  0  0  0  0  0  0  0  0  0  0
   40.2550   22.8140   35.6370 H   0  0  0  0  0  0  0  0  0  0  0  0
   37.2940   24.5650   39.1120 H   0  0  0  0  0  0  0  0  0  0  0  0
   41.8010   25.3560   32.0720 C   0  0  0  0  0  2  0  0  0  0  0  0
   42.9170   25.4750   32.1750 H   0  0  0  0  0  0  0  0  0  0  0  0
   42.0900   27.7830   32.6520 C   0  0  0  0  0  2  0  0  0  0  0  0
   41.4450   28.6890   32.8150 H   0  0  0  0  0  0  0  0  0  0  0  0
  1 22  1  0  0  0  0
  1  8  1  0  0  0  0
  2  1  1  0  0  0  0
  2  3  1  0  0  0  0
  3  4  1  0  0  0  0
  3  7  1  0  0  0  0
  4  6  1  0  0  0  0
  5  4  2  0  0  0  0
  6  9  1  6  0  0  0
  7  8  1  1  0  0  0
  7  6  1  0  0  0  0
  9 13  1  0  0  0  0
 10  9  2  0  0  0  0
 11 17  1  0  0  0  0
 11 16  1  0  0  0  0
 12 11  2  0  0  0  0
 13 12  1  0  0  0  0
 13 14  2  0  0  0  0
 14 15  1  0  0  0  0
 15 16  2  0  0  0  0
 15 19  1  0  0  0  0
 18 12  1  0  0  0  0
 20 21  1  0  0  0  0
 20  1  1  0  0  0  0
 22 23  1  0  0  0  0
M  END
>  <minimizedAffinity>
-4.42984295

$$$$

 OpenBabel03272501313D

 23 25  0  0  1  0  0  0  0  0999 V2000
   36.8500   27.4120   32.2440 C   0  0  0  0  0  0  0  0  0  0  0  0
   38.1460   27.8220   31.6350 C   0  0  0  0  0  2  0  0  0  0  0  0
   39.2190   27.2190   32.3650 N   0  0  0  0  0  0  0  0  0  0  0  0
   40.4390   27.0780   33.0760 C   0  0  0  0  0  0  0  0  0  0  0  0
   41.5520   27.6870   33.2430 O   0  0  0  0  0  0  0  0  0  0  0  0
   39.9700   25.8000   33.6720 C   0  0  2  0  0  3  0  0  0  0  0  0
   38.9990   25.8240   32.5450 C   0  0  1  0  0  3  0  0  0  0  0  0
   37.2400   25.8170   33.0650 S   0  0  0  0  0  0  0  0  0  0  0  0
   39.4240   26.1170   35.0320 C   0  0  0  0  0  0  0  0  0  0  0  0
   39.2120   27.2990   35.3690 O   0  0  0  0  0  0  0  0  0  0  0  0
   37.8750   23.8650   37.5930 C   0  0  0  0  0  0  0  0  0  0  0  0
   38.0800   24.9850   36.7770 C   0  0  0  0  0  0  0  0  0  0  0  0
   39.1680   24.9790   35.9000 C   0  0  0  0  0  0  0  0  0  0  0  0
   39.9650   23.8630   35.8990 N   0  0  0  0  0  0  0  0  0  0  0  0
   39.7330   22.8160   36.6950 C   0  0  0  0  0  0  0  0  0  0  0  0
   38.7010   22.8050   37.5380 N   0  0  0  0  0  0  0  0  0  0  0  0
   37.0540   23.8260   38.2820 H   0  0  0  0  0  0  0  0  0  0  0  0
   37.4190   25.8410   36.8170 H   0  0  0  0  0  0  0  0  0  0  0  0
   40.3750   21.9480   36.6780 H   0  0  0  0  0  0  0  0  0  0  0  0
   36.2030   28.3970   33.1470 C   0  0  0  0  0  2  0  0  0  0  0  0
   35.0860   28.3130   33.0180 H   0  0  0  0  0  0  0  0  0  0  0  0
   35.9470   27.0060   31.0710 C   0  0  0  0  0  2  0  0  0  0  0  0
   36.6050   26.5010   30.3140 H   0  0  0  0  0  0  0  0  0  0  0  0
  1  8  1  0  0  0  0
  1 20  1  0  0  0  0
  2  1  1  0  0  0  0
  2  3  1  0  0  0  0
  3  7  1  0  0  0  0
  3  4  1  0  0  0  0
  4  5  2  0  0  0  0
  4  6  1  0  0  0  0
  6  9  1  1  0  0  0
  7  8  1  1  0  0  0
  7  6  1  0  0  0  0
  9 10  2  0  0  0  0
  9 13  1  0  0  0  0
 11 17  1  0  0  0  0
 12 18  1  0  0  0  0
 12 11  2  0  0  0  0
 13 12  1  0  0  0  0
 14 13  2  0  0  0  0
 14 15  1  0  0  0  0
 15 16  2  0  0  0  0
 16 11  1  0  0  0  0
 19 15  1  0  0  0  0
 21 20  1  0  0  0  0
 22  1  1  0  0  0  0
 23 22  1  0  0  0  0
M  END
>  <minimizedAffinity>
-4.42496824

$$$$

 OpenBabel03272501313D

 23 25  0  0  1  0  0  0  0  0999 V2000
   36.7440   22.0900   31.5600 C   0  0  0  0  0  0  0  0  0  0  0  0
   37.9130   22.6410   30.8190 C   0  0  0  0  0  2  0  0  0  0  0  0
   38.8560   23.1680   31.7560 N   0  0  0  0  0  0  0  0  0  0  0  0
   39.7620   24.0650   32.3800 C   0  0  0  0  0  0  0  0  0  0  0  0
   40.4610   25.1010   32.1070 O   0  0  0  0  0  0  0  0  0  0  0  0
   39.6450   23.3240   33.6640 C   0  0  2  0  0  3  0  0  0  0  0  0
   39.1280   22.2330   32.7950 C   0  0  1  0  0  3  0  0  0  0  0  0
   37.4300   21.6780   33.2120 S   0  0  0  0  0  0  0  0  0  0  0  0
   38.6350   24.0460   34.5040 C   0  0  0  0  0  0  0  0  0  0  0  0
   37.7850   24.7880   33.9740 O   0  0  0  0  0  0  0  0  0  0  0  0
   37.9010   24.1470   38.1750 C   0  0  0  0  0  0  0  0  0  0  0  0
   37.7790   24.3910   36.8030 C   0  0  0  0  0  0  0  0  0  0  0  0
   38.7190   23.8220   35.9390 C   0  0  0  0  0  0  0  0  0  0  0  0
   39.7050   23.0550   36.5050 N   0  0  0  0  0  0  0  0  0  0  0  0
   39.7850   22.8480   37.8220 C   0  0  0  0  0  0  0  0  0  0  0  0
   38.8970   23.3830   38.6590 N   0  0  0  0  0  0  0  0  0  0  0  0
   37.2030   24.5630   38.8760 H   0  0  0  0  0  0  0  0  0  0  0  0
   36.9790   25.0050   36.4080 H   0  0  0  0  0  0  0  0  0  0  0  0
   40.5700   22.2410   38.2450 H   0  0  0  0  0  0  0  0  0  0  0  0
   35.5350   22.9500   31.6220 C   0  0  0  0  0  2  0  0  0  0  0  0
   34.6270   22.2840   31.5860 H   0  0  0  0  0  0  0  0  0  0  0  0
   36.4590   20.7180   30.9320 C   0  0  0  0  0  2  0  0  0  0  0  0
   37.4550   20.2670   30.6730 H   0  0  0  0  0  0  0  0  0  0  0  0
  1 20  1  0  0  0  0
  1  8  1  0  0  0  0
  2  1  1  0  0  0  0
  2  3  1  0  0  0  0
  3  4  1  0  0  0  0
  3  7  1  0  0  0  0
  4  6  1  0  0  0  0
  5  4  2  0  0  0  0
  6  9  1  1  0  0  0
  7  8  1  1  0  0  0
  7  6  1  0  0  0  0
  9 13  1  0  0  0  0
 10  9  2  0  0  0  0
 11 16  1  0  0  0  0
 11 17  1  0  0  0  0
 12 11  2  0  0  0  0
 13 14  2  0  0  0  0
 13 12  1  0  0  0  0
 14 15  1  0  0  0  0
 15 19  1  0  0  0  0
 15 16  2  0  0  0  0
 18 12  1  0  0  0  0
 21 20  1  0  0  0  0
 22  1  1  0  0  0  0
 23 22  1  0  0  0  0
M  END
>  <minimizedAffinity>
-4.37569475

$$$$

 OpenBabel03272501313D

 23 25  0  0  1  0  0  0  0  0999 V2000
   40.0110   26.3910   34.3460 C   0  0  0  0  0  0  0  0  0  0  0  0
   41.3110   25.8200   34.7970 C   0  0  0  0  0  2  0  0  0  0  0  0
   41.1420   24.4240   35.0640 N   0  0  0  0  0  0  0  0  0  0  0  0
   41.2000   23.1750   35.7360 C   0  0  0  0  0  0  0  0  0  0  0  0
   41.8430   22.5990   36.6800 O   0  0  0  0  0  0  0  0  0  0  0  0
   40.1110   22.6390   34.8780 C   0  0  2  0  0  3  0  0  0  0  0  0
   40.4850   23.7690   33.9850 C   0  0  1  0  0  3  0  0  0  0  0  0
   39.1190   24.9470   33.6480 S   0  0  0  0  0  0  0  0  0  0  0  0
   38.8300   22.7850   35.6410 C   0  0  0  0  0  0  0  0  0  0  0  0
   38.7670   23.5360   36.6350 O   0  0  0  0  0  0  0  0  0  0  0  0
   35.6310   20.8410   35.5070 C   0  0  0  0  0  0  0  0  0  0  0  0
   36.6980   21.5840   36.0260 C   0  0  0  0  0  0  0  0  0  0  0  0
   37.7010   22.0100   35.1510 C   0  0  0  0  0  0  0  0  0  0  0  0
   37.5650   21.6680   33.8300 N   0  0  0  0  0  0  0  0  0  0  0  0
   36.5300   20.9570   33.3770 C   0  0  0  0  0  0  0  0  0  0  0  0
   35.5660   20.5410   34.1970 N   0  0  0  0  0  0  0  0  0  0  0  0
   34.8400   20.4920   36.1420 H   0  0  0  0  0  0  0  0  0  0  0  0
   36.7570   21.8270   37.0800 H   0  0  0  0  0  0  0  0  0  0  0  0
   36.4450   20.6980   32.3320 H   0  0  0  0  0  0  0  0  0  0  0  0
   39.2250   27.1310   35.3660 C   0  0  0  0  0  2  0  0  0  0  0  0
   38.6990   27.9860   34.8520 H   0  0  0  0  0  0  0  0  0  0  0  0
   40.3350   27.2490   33.1150 C   0  0  0  0  0  2  0  0  0  0  0  0
   41.1470   26.7140   32.5520 H   0  0  0  0  0  0  0  0  0  0  0  0
  1  2  1  0  0  0  0
  1 20  1  0  0  0  0
  2  3  1  0  0  0  0
  3  4  1  0  0  0  0
  4  5  2  0  0  0  0
  6  9  1  1  0  0  0
  6  4  1  0  0  0  0
  7  8  1  1  0  0  0
  7  6  1  0  0  0  0
  7  3  1  0  0  0  0
  8  1  1  0  0  0  0
  9 10  2  0  0  0  0
 11 12  1  0  0  0  0
 11 17  1  0  0  0  0
 12 18  1  0  0  0  0
 13  9  1  0  0  0  0
 13 12  2  0  0  0  0
 14 13  1  0  0  0  0
 15 14  2  0  0  0  0
 15 16  1  0  0  0  0
 16 11  2  0  0  0  0
 19 15  1  0  0  0  0
 21 20  1  0  0  0  0
 22  1  1  0  0  0  0
 23 22  1  0  0  0  0
M  END
>  <minimizedAffinity>
-4.33442259

$$$$

 OpenBabel03272501313D

 23 25  0  0  1  0  0  0  0  0999 V2000
   38.8490   23.3100   36.2370 C   0  0  0  0  0  0  0  0  0  0  0  0
   40.1120   23.4040   35.4530 C   0  0  0  0  0  2  0  0  0  0  0  0
   40.0240   24.5110   34.5510 N   0  0  0  0  0  0  0  0  0  0  0  0
   40.0860   25.2670   33.3520 C   0  0  0  0  0  0  0  0  0  0  0  0
   40.6300   25.2250   32.1940 O   0  0  0  0  0  0  0  0  0  0  0  0
   39.1820   26.2970   33.9270 C   0  0  2  0  0  3  0  0  0  0  0  0
   39.5880   25.6880   35.2230 C   0  0  1  0  0  3  0  0  0  0  0  0
   38.1920   25.0230   36.2120 S   0  0  0  0  0  0  0  0  0  0  0  0
   37.7950   25.9900   33.4490 C   0  0  0  0  0  0  0  0  0  0  0  0
   37.4690   24.8220   33.1580 O   0  0  0  0  0  0  0  0  0  0  0  0
   35.8000   29.0420   34.3060 C   0  0  0  0  0  0  0  0  0  0  0  0
   36.6830   27.9650   34.4480 C   0  0  0  0  0  0  0  0  0  0  0  0
   36.8870   27.1220   33.3520 C   0  0  0  0  0  0  0  0  0  0  0  0
   36.2010   27.4150   32.2010 N   0  0  0  0  0  0  0  0  0  0  0  0
   35.3670   28.4540   32.1090 C   0  0  0  0  0  0  0  0  0  0  0  0
   35.1600   29.2670   33.1440 N   0  0  0  0  0  0  0  0  0  0  0  0
   35.6120   29.7140   35.1200 H   0  0  0  0  0  0  0  0  0  0  0  0
   37.2010   27.7790   35.3810 H   0  0  0  0  0  0  0  0  0  0  0  0
   34.8370   28.6640   31.1930 H   0  0  0  0  0  0  0  0  0  0  0  0
   37.8640   22.2950   35.7840 C   0  0  0  0  0  2  0  0  0  0  0  0
   37.3500   21.8730   36.6950 H   0  0  0  0  0  0  0  0  0  0  0  0
   39.2770   23.1050   37.6970 C   0  0  0  0  0  2  0  0  0  0  0  0
   40.2050   23.7200   37.8530 H   0  0  0  0  0  0  0  0  0  0  0  0
  1 22  1  0  0  0  0
  2  1  1  0  0  0  0
  3  7  1  0  0  0  0
  3  2  1  0  0  0  0
  4  6  1  0  0  0  0
  4  3  1  0  0  0  0
  5  4  2  0  0  0  0
  6  9  1  6  0  0  0
  6  7  1  0  0  0  0
  7  8  1  1  0  0  0
  8  1  1  0  0  0  0
 10  9  2  0  0  0  0
 11 12  1  0  0  0  0
 11 17  1  0  0  0  0
 12 18  1  0  0  0  0
 13  9  1  0  0  0  0
 13 12  2  0  0  0  0
 14 13  1  0  0  0  0
 15 14  2  0  0  0  0
 15 16  1  0  0  0  0
 16 11  2  0  0  0  0
 19 15  1  0  0  0  0
 20  1  1  0  0  0  0
 20 21  1  0  0  0  0
 22 23  1  0  0  0  0
M  END
>  <minimizedAffinity>
-4.29004431

$$$$

 OpenBabel03272501313D

 23 25  0  0  1  0  0  0  0  0999 V2000
   38.6500   26.2950   34.4160 C   0  0  0  0  0  0  0  0  0  0  0  0
   37.9650   25.0240   34.0490 C   0  0  0  0  0  2  0  0  0  0  0  0
   37.3130   25.1900   32.7870 N   0  0  0  0  0  0  0  0  0  0  0  0
   36.3030   25.1640   31.7900 C   0  0  0  0  0  0  0  0  0  0  0  0
   35.1900   24.5850   31.5370 O   0  0  0  0  0  0  0  0  0  0  0  0
   37.0380   26.1760   30.9870 C   0  0  2  0  0  3  0  0  0  0  0  0
   38.1950   25.7530   31.8220 C   0  0  1  0  0  3  0  0  0  0  0  0
   38.9540   27.1080   32.8000 S   0  0  0  0  0  0  0  0  0  0  0  0
   36.4400   27.5140   31.3020 C   0  0  0  0  0  0  0  0  0  0  0  0
   35.6890   27.6560   32.2870 O   0  0  0  0  0  0  0  0  0  0  0  0
   36.7650   30.9230   29.7840 C   0  0  0  0  0  0  0  0  0  0  0  0
   36.4050   29.9120   30.6830 C   0  0  0  0  0  0  0  0  0  0  0  0
   36.7900   28.5990   30.3980 C   0  0  0  0  0  0  0  0  0  0  0  0
   37.5030   28.3930   29.2460 N   0  0  0  0  0  0  0  0  0  0  0  0
   37.8260   29.3870   28.4150 C   0  0  0  0  0  0  0  0  0  0  0  0
   37.4660   30.6440   28.6700 N   0  0  0  0  0  0  0  0  0  0  0  0
   36.4900   31.9440   29.9610 H   0  0  0  0  0  0  0  0  0  0  0  0
   35.8400   30.1310   31.5810 H   0  0  0  0  0  0  0  0  0  0  0  0
   38.3880   29.2000   27.5120 H   0  0  0  0  0  0  0  0  0  0  0  0
   37.9470   27.1670   35.3910 C   0  0  0  0  0  2  0  0  0  0  0  0
   38.7230   27.6660   36.0400 H   0  0  0  0  0  0  0  0  0  0  0  0
   40.0530   25.8920   34.8910 C   0  0  0  0  0  2  0  0  0  0  0  0
   40.3790   25.0310   34.2460 H   0  0  0  0  0  0  0  0  0  0  0  0
  1 22  1  0  0  0  0
  1 20  1  0  0  0  0
  2  1  1  0  0  0  0
  3  2  1  0  0  0  0
  4  3  1  0  0  0  0
  5  4  2  0  0  0  0
  6  9  1  1  0  0  0
  6  4  1  0  0  0  0
  6  7  1  0  0  0  0
  7  3  1  0  0  0  0
  7  8  1  1  0  0  0
  8  1  1  0  0  0  0
  9 10  2  0  0  0  0
 11 17  1  0  0  0  0
 11 12  1  0  0  0  0
 12 18  1  0  0  0  0
 13 12  2  0  0  0  0
 13  9  1  0  0  0  0
 14 13  1  0  0  0  0
 15 16  1  0  0  0  0
 15 14  2  0  0  0  0
 16 11  2  0  0  0  0
 19 15  1  0  0  0  0
 20 21  1  0  0  0  0
 23 22  1  0  0  0  0
M  END
>  <minimizedAffinity>
-4.24984026

$$$$

 OpenBabel03272501313D

 23 25  0  0  1  0  0  0  0  0999 V2000
   39.4860   26.1450   31.1530 C   0  0  0  0  0  0  0  0  0  0  0  0
   38.6800   27.3340   31.5480 C   0  0  0  0  0  2  0  0  0  0  0  0
   38.3940   27.2630   32.9480 N   0  0  0  0  0  0  0  0  0  0  0  0
   37.6660   27.2830   34.1660 C   0  0  0  0  0  0  0  0  0  0  0  0
   36.5580   27.7120   34.6390 O   0  0  0  0  0  0  0  0  0  0  0  0
   38.7510   26.5330   34.8520 C   0  0  2  0  0  3  0  0  0  0  0  0
   39.5720   26.9990   33.7020 C   0  0  1  0  0  3  0  0  0  0  0  0
   40.3180   25.6460   32.7110 S   0  0  0  0  0  0  0  0  0  0  0  0
   38.3600   25.0860   34.8520 C   0  0  0  0  0  0  0  0  0  0  0  0
   37.6280   24.6270   33.9530 O   0  0  0  0  0  0  0  0  0  0  0  0
   38.7550   23.4420   38.1940 C   0  0  0  0  0  0  0  0  0  0  0  0
   38.2130   24.2300   37.1720 C   0  0  0  0  0  0  0  0  0  0  0  0
   38.8830   24.2820   35.9460 C   0  0  0  0  0  0  0  0  0  0  0  0
   40.0360   23.5490   35.8310 N   0  0  0  0  0  0  0  0  0  0  0  0
   40.5190   22.8100   36.8340 C   0  0  0  0  0  0  0  0  0  0  0  0
   39.8930   22.7490   38.0090 N   0  0  0  0  0  0  0  0  0  0  0  0
   38.2760   23.3720   39.1520 H   0  0  0  0  0  0  0  0  0  0  0  0
   37.2980   24.7900   37.3160 H   0  0  0  0  0  0  0  0  0  0  0  0
   41.4290   22.2420   36.7200 H   0  0  0  0  0  0  0  0  0  0  0  0
   38.7490   25.0350   30.4980 C   0  0  0  0  0  2  0  0  0  0  0  0
   39.4270   24.5710   29.7250 H   0  0  0  0  0  0  0  0  0  0  0  0
   40.6320   26.6850   30.2860 C   0  0  0  0  0  2  0  0  0  0  0  0
   40.9330   27.6750   30.7250 H   0  0  0  0  0  0  0  0  0  0  0  0
  1  2  1  0  0  0  0
  1  8  1  0  0  0  0
  2  3  1  0  0  0  0
  3  7  1  0  0  0  0
  3  4  1  0  0  0  0
  4  5  2  0  0  0  0
  4  6  1  0  0  0  0
  6  9  1  6  0  0  0
  7  8  1  6  0  0  0
  7  6  1  0  0  0  0
  9 13  1  0  0  0  0
 10  9  2  0  0  0  0
 11 17  1  0  0  0  0
 12 18  1  0  0  0  0
 12 11  2  0  0  0  0
 13 12  1  0  0  0  0
 14 13  2  0  0  0  0
 14 15  1  0  0  0  0
 15 16  2  0  0  0  0
 16 11  1  0  0  0  0
 19 15  1  0  0  0  0
 20  1  1  0  0  0  0
 21 20  1  0  0  0  0
 22 23  1  0  0  0  0
 22  1  1  0  0  0  0
M  END
>  <minimizedAffinity>
-4.24183798

$$$$
