REMARK  Name = 
REMARK  7 active torsions:
REMARK  status: ('A' for Active; 'I' for Inactive)
REMARK    1  A    between atoms: C_1  and  C_8
REMARK    2  A    between atoms: C_6  and  N_15
REMARK    3  A    between atoms: C_13  and  O_16
REMARK    4  A    between atoms: O_16  and  C_17
REMARK    5  A    between atoms: C_17  and  C_36
REMARK    6  A    between atoms: C_27  and  C_29
REMARK    7  A    between atoms: C_29  and  C_30
REMARK                            x       y       z     vdW  Elec       q    Type
REMARK                         _______ _______ _______ _____ _____    ______ ____
ROOT
ATOM      1  C   UNL     1      38.113  31.888  47.414  0.00  0.00    +0.000 A 
ATOM      2  C   UNL     1      38.582  32.786  48.327  0.00  0.00    +0.000 A 
ATOM      3  C   UNL     1      38.083  32.862  49.632  0.00  0.00    +0.000 A 
ATOM      4  C   UNL     1      37.029  31.937  49.996  0.00  0.00    +0.000 A 
ATOM      5  C   UNL     1      36.608  31.069  49.042  0.00  0.00    +0.000 A 
ATOM      6  C   UNL     1      37.094  31.006  47.789  0.00  0.00    +0.000 A 
ATOM      7  H   UNL     1      39.384  33.502  48.080  0.00  0.00    +0.000 HD
ATOM      8  H   UNL     1      38.507  33.608  50.310  0.00  0.00    +0.000 HD
ATOM      9  H   UNL     1      36.752  32.110  51.009  0.00  0.00    +0.000 HD
ATOM     10  H   UNL     1      35.856  30.472  49.534  0.00  0.00    +0.000 HD
ENDROOT
BRANCH   1  12
ATOM     11  C   UNL     1      40.003  31.261  45.986  0.00  0.00    +0.000 A 
ATOM     12  C   UNL     1      38.746  31.915  46.116  0.00  0.00    +0.000 A 
ATOM     13  C   UNL     1      38.286  32.494  44.960  0.00  0.00    +0.000 A 
ATOM     14  N   UNL     1      38.996  32.424  43.823  0.00  0.00    +0.000 NA
ATOM     15  C   UNL     1      40.155  31.815  43.721  0.00  0.00    +0.000 A 
ATOM     16  N   UNL     1      40.651  31.237  44.803  0.00  0.00    +0.000 NA
ATOM     17  H   UNL     1      40.454  30.769  46.851  0.00  0.00    +0.000 HD
ATOM     18  H   UNL     1      37.337  32.989  45.058  0.00  0.00    +0.000 HD
ATOM     19  H   UNL     1      40.678  31.793  42.775  0.00  0.00    +0.000 HD
ENDBRANCH   1  12
BRANCH   6  22
ATOM     20  C   UNL     1      35.157  29.974  46.944  0.00  0.00    +0.000 C 
ATOM     21  O   UNL     1      34.520  30.639  47.853  0.00  0.00    +0.000 OA
ATOM     22  N   UNL     1      36.597  30.116  46.871  0.00  0.00    +0.000 N 
ATOM     23  H   UNL     1      37.172  29.597  46.200  0.00  0.00    +0.000 HD
BRANCH  20  24
ATOM     24  O   UNL     1      34.450  29.166  46.094  0.00  0.00    +0.000 OA
BRANCH  24  25
ATOM     25  C   UNL     1      33.366  29.572  45.327  0.00  0.00    +0.000 C 
ATOM     26  O   UNL     1      33.371  30.712  44.669  0.00  0.00    +0.000 OA
BRANCH  25  32
ATOM     27  C   UNL     1      30.659  31.771  43.036  0.00  0.00    +0.000 C 
ATOM     28  C   UNL     1      29.673  30.983  43.871  0.00  0.00    +0.000 C 
ATOM     29  N   UNL     1      30.430  30.131  44.761  0.00  0.00    +0.000 N 
ATOM     30  C   UNL     1      31.001  29.468  45.883  0.00  0.00    +0.000 C 
ATOM     31  O   UNL     1      30.747  29.390  47.102  0.00  0.00    +0.000 OA
ATOM     32  C   UNL     1      32.094  28.835  45.099  0.00  0.00    +0.000 C 
ATOM     33  C   UNL     1      31.281  29.261  43.938  0.00  0.00    +0.000 C 
ATOM     34  S   UNL     1      31.991  30.520  42.840  0.00  0.00    +0.000 S 
BRANCH  27  35
ATOM     35  C   UNL     1      31.162  33.011  43.686  0.00  0.00    +0.000 C 
ATOM     36  H   UNL     1      32.288  32.947  43.711  0.00  0.00    +0.000 HD
ENDBRANCH  27  35
BRANCH  27  37
ATOM     37  C   UNL     1      30.013  31.996  41.687  0.00  0.00    +0.000 C 
ATOM     38  H   UNL     1      29.192  32.721  41.808  0.00  0.00    +0.000 HD
ENDBRANCH  27  37
ENDBRANCH  25  32
ENDBRANCH  24  25
ENDBRANCH  20  24
ENDBRANCH   6  22
TORSDOF 7
