
     RDKit          3D

 51 56  0  0  0  0  0  0  0  0999 V2000
   35.8514   29.1352   49.8138 C   0  0  0  0  0  0  0  0  0  0  0  0
   34.8255   29.6214   50.5463 C   0  0  0  0  0  0  0  0  0  0  0  0
   33.6580   29.0372   50.0514 C   0  0  0  0  0  0  0  0  0  0  0  0
   34.0691   28.1991   49.0066 C   0  0  0  0  0  0  0  0  0  0  0  0
   35.3609   28.3063   48.9246 O   0  0  0  0  0  0  0  0  0  0  0  0
   33.5287   26.4253   47.3518 C   0  0  0  0  0  0  0  0  0  0  0  0
   33.1143   27.4106   48.2391 C   0  0  0  0  0  0  0  0  0  0  0  0
   31.7742   27.6783   48.4268 C   0  0  0  0  0  0  0  0  0  0  0  0
   30.8630   26.9385   47.7075 C   0  0  0  0  0  0  0  0  0  0  0  0
   29.5156   26.9935   47.7006 N   0  0  0  0  0  0  0  0  0  0  0  0
   29.0780   26.0770   46.8403 N   0  0  0  0  0  0  0  0  0  0  0  0
   30.1531   25.4478   46.3082 C   0  0  0  0  0  0  0  0  0  0  0  0
   31.3089   25.9677   46.8349 C   0  0  0  0  0  0  0  0  0  0  0  0
   32.6430   25.6879   46.6358 C   0  0  0  0  0  0  0  0  0  0  0  0
   37.2331   29.5272   50.0499 C   0  0  0  0  0  0  0  0  0  0  0  0
   37.8796   28.9477   50.9634 O   0  0  0  0  0  0  0  0  0  0  0  0
   37.7813   30.5642   49.2157 C   0  0  0  0  0  0  0  0  0  0  0  0
   38.1253   31.7604   49.8247 C   0  0  0  0  0  0  0  0  0  0  0  0
   38.6587   32.7912   49.0579 C   0  0  0  0  0  0  0  0  0  0  0  0
   38.8100   32.5448   47.7217 N   0  0  0  0  0  0  0  0  0  0  0  0
   38.4751   31.3887   47.1462 C   0  0  0  0  0  0  0  0  0  0  0  0
   37.9621   30.4080   47.9055 N   0  0  0  0  0  0  0  0  0  0  0  0
   34.8628   30.3298   51.3676 H   0  0  0  0  0  0  0  0  0  0  0  0
   32.6872   29.2544   50.4608 H   0  0  0  0  0  0  0  0  0  0  0  0
   34.6016   26.2382   47.2265 H   0  0  0  0  0  0  0  0  0  0  0  0
   31.3836   28.4421   49.1113 H   0  0  0  0  0  0  0  0  0  0  0  0
   28.8569   27.6073   48.2362 H   0  0  0  0  0  0  0  0  0  0  0  0
   30.0742   24.6547   45.5765 H   0  0  0  0  0  0  0  0  0  0  0  0
   32.9366   24.9218   45.9446 H   0  0  0  0  0  0  0  0  0  0  0  0
   37.9887   31.9157   50.8921 H   0  0  0  0  0  0  0  0  0  0  0  0
   38.9500   33.7498   49.4611 H   0  0  0  0  0  0  0  0  0  0  0  0
   38.6509   31.1536   45.6987 C   0  0  0  0  0  0  0  0  0  0  0  0
   37.3948   30.4970   45.1695 C   0  0  2  0  0  0  0  0  0  0  0  0
   36.1908   31.3502   45.3763 C   0  0  0  0  0  0  0  0  0  0  0  0
   35.2812   30.8440   45.0531 H   0  0  0  0  0  0  0  0  0  0  0  0
   37.2925   29.1266   45.7607 C   0  0  0  0  0  0  0  0  0  0  0  0
   36.6540   28.2752   44.7790 N   0  0  0  0  0  0  0  0  0  0  0  0
   35.7524   27.3516   44.1335 C   0  0  0  0  0  0  0  0  0  0  0  0
   34.9628   26.4464   44.5555 O   0  0  0  0  0  0  0  0  0  0  0  0
   36.1186   27.8848   42.7762 C   0  0  2  0  0  0  0  0  0  0  0  0
   35.4793   28.7145   42.4109 H   0  0  0  0  0  0  0  0  0  0  0  0
   37.3570   28.3283   43.5096 C   0  0  1  0  0  0  0  0  0  0  0  0
   37.6812   30.1143   43.4168 S   0  0  0  0  0  0  0  0  0  0  0  0
   39.5613   30.5803   45.4390 H   0  0  0  0  0  0  0  0  0  0  0  0
   38.8135   32.1584   45.2096 H   0  0  0  0  0  0  0  0  0  0  0  0
   36.0964   31.5036   46.4751 H   0  0  0  0  0  0  0  0  0  0  0  0
   36.3729   32.3264   44.8988 H   0  0  0  0  0  0  0  0  0  0  0  0
   36.6545   29.1758   46.6424 H   0  0  0  0  0  0  0  0  0  0  0  0
   38.2809   28.7157   46.0823 H   0  0  0  0  0  0  0  0  0  0  0  0
   36.3760   27.1085   42.0272 H   0  0  0  0  0  0  0  0  0  0  0  0
   38.2342   27.6680   43.4110 H   0  0  0  0  0  0  0  0  0  0  0  0
  1 15  1  0
  1  2  2  0
  3  2  1  0
  4  3  2  0
  5  4  1  0
  5  1  1  0
  6  7  2  0
  7  8  1  0
  7  4  1  0
  9  8  2  0
 10  9  1  0
 11 10  1  0
 12 13  1  0
 12 11  2  0
 13  9  1  0
 14 13  2  0
 14  6  1  0
 15 16  2  0
 17 18  2  0
 17 15  1  0
 19 18  1  0
 20 19  2  0
 21 20  1  0
 21 22  2  0
 22 17  1  0
  2 23  1  0
  3 24  1  0
  6 25  1  0
  8 26  1  0
 10 27  1  0
 12 28  1  0
 14 29  1  0
 18 30  1  0
 19 31  1  0
 33 32  1  1
 33 34  1  0
 34 35  1  0
 33 36  1  0
 36 37  1  0
 37 38  1  0
 38 39  2  0
 38 40  1  0
 40 41  1  6
 40 42  1  0
 42 43  1  0
 43 33  1  0
 42 37  1  0
 32 44  1  0
 32 45  1  0
 34 46  1  0
 34 47  1  0
 36 48  1  0
 36 49  1  0
 40 50  1  0
 42 51  1  1
 21 32  1  0
M  ISO  8  23  14  24  14  25  14  26  14  27   9  28  14  29  14  30  14
M  ISO  3  31  14  35   8  41  15
M  END
>  <DihAtoms>  (1) 
19,20,31,32

>  <DihDeg>  (1) 
89.99559162135272

$$$$
