
 OpenBabel03272508363D

 47 51  0  0  1  0  0  0  0  0999 V2000
   40.0070   32.0410   42.9750 N   0  0  0  0  0  0  0  0  0  0  0  0
   39.2750   33.2300   42.7880 C   0  0  0  0  0  0  0  0  0  0  0  0
   37.8690   33.0910   42.3270 C   0  0  0  0  0  0  0  0  0  0  0  0
   37.7170   32.0950   41.3550 O   0  0  0  0  0  0  0  0  0  0  0  0
   38.2030   30.9170   41.8030 C   0  0  0  0  0  0  0  0  0  0  0  0
   39.6820   31.0020   42.1110 C   0  0  1  0  0  0  0  0  0  0  0  0
   39.8420   33.6050   41.8660 H   0  0  0  0  0  0  0  0  0  0  0  0
   39.4140   34.0770   43.4270 H   0  0  0  0  0  0  0  0  0  0  0  0
   37.7190   34.0100   41.6360 H   0  0  0  0  0  0  0  0  0  0  0  0
   37.0530   33.2830   42.9860 H   0  0  0  0  0  0  0  0  0  0  0  0
   37.6050   30.3310   42.4940 H   0  0  0  0  0  0  0  0  0  0  0  0
   38.1940   30.2620   40.8980 H   0  0  0  0  0  0  0  0  0  0  0  0
   39.8630   30.0590   42.6840 H   0  0  0  0  0  0  0  0  0  0  0  0
   40.4310   31.7620   44.2860 C   0  0  0  0  0  0  0  0  0  0  0  0
   41.5390   31.7070   44.3200 H   0  0  0  0  0  0  0  0  0  0  0  0
   40.1260   30.6870   44.4820 H   0  0  0  0  0  0  0  0  0  0  0  0
   39.9190   32.5780   45.3800 C   0  0  0  0  0  0  0  0  0  0  0  0
   39.5130   33.5700   45.2410 H   0  0  0  0  0  0  0  0  0  0  0  0
   40.7720   32.7560   46.1090 H   0  0  0  0  0  0  0  0  0  0  0  0
   37.8020   30.9340   47.7650 C   0  0  0  0  0  0  0  0  0  0  0  0
   37.0820   30.7440   46.6010 C   0  0  0  0  0  0  0  0  0  0  0  0
   37.8070   31.3430   45.5600 C   0  0  0  0  0  0  0  0  0  0  0  0
   38.9020   31.8540   46.1220 N   0  0  0  0  0  0  0  0  0  0  0  0
   38.8930   31.6080   47.4370 N   0  0  0  0  0  0  0  0  0  0  0  0
   36.1120   30.2140   46.5210 H   0  0  0  0  0  0  0  0  0  0  0  0
   37.3840   31.2740   44.6280 H   0  0  0  0  0  0  0  0  0  0  0  0
   37.4270   30.1940   51.4310 C   0  0  0  0  0  0  0  0  0  0  0  0
   37.9650   30.7260   50.2560 C   0  0  0  0  0  0  0  0  0  0  0  0
   37.3580   30.4490   49.0450 C   0  0  0  0  0  0  0  0  0  0  0  0
   36.2510   29.6530   49.1120 N   0  0  0  0  0  0  0  0  0  0  0  0
   35.7470   29.1500   50.2560 C   0  0  0  0  0  0  0  0  0  0  0  0
   36.3490   29.4310   51.4060 N   0  0  0  0  0  0  0  0  0  0  0  0
   37.9800   30.4730   52.3290 H   0  0  0  0  0  0  0  0  0  0  0  0
   38.8410   31.3570   50.1880 H   0  0  0  0  0  0  0  0  0  0  0  0
   34.8620   28.5360   50.1360 H   0  0  0  0  0  0  0  0  0  0  0  0
   40.4800   30.9480   40.8310 C   0  0  0  0  0  0  0  0  0  0  0  0
   41.0630   29.6330   40.5400 C   0  0  1  0  0  0  0  0  0  0  0  0
   40.0470   28.8130   39.7130 C   0  0  0  0  0  0  0  0  0  0  0  0
   40.8130   27.7090   39.1670 N   0  0  0  0  0  0  0  0  0  0  0  0
   41.4220   26.4530   38.8080 C   0  0  0  0  0  0  0  0  0  0  0  0
   41.1070   25.2600   39.0540 O   0  0  0  0  0  0  0  0  0  0  0  0
   42.5190   27.1600   38.0630 C   0  0  0  0  0  0  0  0  0  0  0  0
   43.4770   27.1360   38.5790 H   0  0  0  0  0  0  0  0  0  0  0  0
   41.6680   28.3810   38.1830 C   0  0  2  0  0  0  0  0  0  0  0  0
   42.3390   29.7240   39.2180 S   0  0  0  0  0  0  0  0  0  0  0  0
   41.5260   28.7950   41.6730 C   0  0  0  0  0  0  0  0  0  0  0  0
   41.4430   29.2670   42.6560 H   0  0  0  0  0  0  0  0  0  0  0  0
  1 14  1  0  0  0  0
  2  1  1  0  0  0  0
  2  8  1  0  0  0  0
  3  2  1  0  0  0  0
  3 10  1  0  0  0  0
  4  5  1  0  0  0  0
  4  3  1  0  0  0  0
  5  6  1  0  0  0  0
  5 11  1  0  0  0  0
  6 13  1  1  0  0  0
  6  1  1  0  0  0  0
  7  2  1  0  0  0  0
  9  3  1  0  0  0  0
 12  5  1  0  0  0  0
 14 15  1  0  0  0  0
 14 16  1  0  0  0  0
 14 17  1  0  0  0  0
 17 19  1  0  0  0  0
 17 23  1  0  0  0  0
 18 17  1  0  0  0  0
 20 29  1  0  0  0  0
 21 20  1  0  0  0  0
 22 23  1  0  0  0  0
 22 21  2  0  0  0  0
 23 24  1  0  0  0  0
 24 20  2  0  0  0  0
 25 21  1  0  0  0  0
 26 22  1  0  0  0  0
 27 33  1  0  0  0  0
 28 27  2  0  0  0  0
 29 30  2  0  0  0  0
 29 28  1  0  0  0  0
 30 31  1  0  0  0  0
 31 32  2  0  0  0  0
 32 27  1  0  0  0  0
 34 28  1  0  0  0  0
 35 31  1  0  0  0  0
 36  6  1  0  0  0  0
 37 36  1  1  0  0  0
 37 46  1  0  0  0  0
 38 37  1  0  0  0  0
 39 38  1  0  0  0  0
 40 41  2  0  0  0  0
 40 39  1  0  0  0  0
 42 43  1  0  0  0  0
 42 40  1  0  0  0  0
 44 42  1  1  0  0  0
 44 39  1  0  0  0  0
 44 45  1  0  0  0  0
 45 37  1  0  0  0  0
 46 47  1  0  0  0  0
M  END
>  <minimizedAffinity>
-5.86599588

>  <minimizedRMSD>
2.56807041

$$$$
