
 OpenBabel03272507123D

 43 48  0  0  1  0  0  0  0  0999 V2000
   37.1190   29.5870   50.1850 C   0  0  0  0  0  0  0  0  0  0  0  0
   37.7820   28.9460   51.0440 O   0  0  0  0  0  0  0  0  0  0  0  0
   37.6380   30.7090   49.4490 C   0  0  0  0  0  0  0  0  0  0  0  0
   37.3900   31.9750   49.9530 C   0  0  0  0  0  0  0  0  0  0  0  0
   37.8730   33.0900   49.2750 C   0  0  0  0  0  0  0  0  0  0  0  0
   38.5770   32.8520   48.1280 N   0  0  0  0  0  0  0  0  0  0  0  0
   38.8110   31.6270   47.6520 C   0  0  0  0  0  0  0  0  0  0  0  0
   38.3350   30.5660   48.3230 N   0  0  0  0  0  0  0  0  0  0  0  0
   36.8240   32.1230   50.8700 H   0  0  0  0  0  0  0  0  0  0  0  0
   37.7190   34.1070   49.6060 H   0  0  0  0  0  0  0  0  0  0  0  0
   39.5760   31.4030   46.4090 C   0  0  0  0  0  2  0  0  0  0  0  0
   38.5930   31.1320   45.2900 C   0  0  2  0  0  0  0  0  0  0  0  0
   39.0730   29.9440   44.5160 C   0  0  0  0  0  2  0  0  0  0  0  0
   38.6780   30.1350   43.1370 N   0  0  0  0  0  0  0  0  0  0  0  0
   38.1060   29.9350   41.8270 C   0  0  0  0  0  0  0  0  0  0  0  0
   37.7600   28.9070   41.1600 O   0  0  0  0  0  0  0  0  0  0  0  0
   38.0840   31.4170   41.5700 C   0  0  0  0  0  3  0  0  0  0  0  0
   37.1470   31.9300   41.8660 H   0  0  0  0  0  0  0  0  0  0  0  0
   39.1520   31.4110   42.6310 C   0  0  1  0  0  3  0  0  0  0  0  0
   38.7860   32.4620   44.0670 S   0  0  0  0  0  0  0  0  0  0  0  0
   37.1960   31.0190   45.7920 C   0  0  0  0  0  2  0  0  0  0  0  0
   36.5030   30.7590   44.9910 H   0  0  0  0  0  0  0  0  0  0  0  0
   35.7490   29.1800   49.9110 C   0  0  0  0  0  0  0  0  0  0  0  0
   34.6990   29.6410   50.6260 C   0  0  0  0  0  0  0  0  0  0  0  0
   33.5520   29.0480   50.0960 C   0  0  0  0  0  0  0  0  0  0  0  0
   33.9990   28.2320   49.0490 C   0  0  0  0  0  0  0  0  0  0  0  0
   35.2910   28.3580   48.9990 O   0  0  0  0  0  0  0  0  0  0  0  0
   34.7090   30.3380   51.4590 H   0  0  0  0  0  0  0  0  0  0  0  0
   32.5690   29.2460   50.4860 H   0  0  0  0  0  0  0  0  0  0  0  0
   33.5230   26.5180   47.3130 C   0  0  0  0  0  0  0  0  0  0  0  0
   33.0730   27.4430   48.2480 C   0  0  0  0  0  0  0  0  0  0  0  0
   31.7240   27.6450   48.4530 C   0  0  0  0  0  0  0  0  0  0  0  0
   30.8400   26.9040   47.7020 C   0  0  0  0  0  0  0  0  0  0  0  0
   29.4920   26.9040   47.7020 N   0  0  0  0  0  0  0  0  0  0  0  0
   29.0880   26.0120   46.8000 N   0  0  0  0  0  0  0  0  0  0  0  0
   30.1850   25.4540   46.2350 C   0  0  0  0  0  0  0  0  0  0  0  0
   31.3210   25.9950   46.7820 C   0  0  0  0  0  0  0  0  0  0  0  0
   32.6640   25.7800   46.5660 C   0  0  0  0  0  0  0  0  0  0  0  0
   34.6020   26.3810   47.1760 H   0  0  0  0  0  0  0  0  0  0  0  0
   31.3070   28.3590   49.1740 H   0  0  0  0  0  0  0  0  0  0  0  0
   28.8110   27.4640   48.2680 H   0  0  0  0  0  0  0  0  0  0  0  0
   30.1340   24.6940   45.4670 H   0  0  0  0  0  0  0  0  0  0  0  0
   32.9860   25.0600   45.8380 H   0  0  0  0  0  0  0  0  0  0  0  0
  1  2  2  0  0  0  0
  3  4  1  0  0  0  0
  3  1  1  0  0  0  0
  4  9  1  0  0  0  0
  5 10  1  0  0  0  0
  5  4  2  0  0  0  0
  6  5  1  0  0  0  0
  7  6  2  0  0  0  0
  7  8  1  0  0  0  0
  8  3  2  0  0  0  0
 11  7  1  0  0  0  0
 12 21  1  1  0  0  0
 12 11  1  0  0  0  0
 13 12  1  0  0  0  0
 14 13  1  0  0  0  0
 15 14  1  0  0  0  0
 16 15  2  0  0  0  0
 17 15  1  0  0  0  0
 17 18  1  0  0  0  0
 19 17  1  6  0  0  0
 19 14  1  0  0  0  0
 19 20  1  0  0  0  0
 20 12  1  0  0  0  0
 22 21  1  0  0  0  0
 23  1  1  0  0  0  0
 23 24  2  0  0  0  0
 24 28  1  0  0  0  0
 25 29  1  0  0  0  0
 25 24  1  0  0  0  0
 26 25  2  0  0  0  0
 27 26  1  0  0  0  0
 27 23  1  0  0  0  0
 30 31  1  0  0  0  0
 31 32  2  0  0  0  0
 31 26  1  0  0  0  0
 32 40  1  0  0  0  0
 33 32  1  0  0  0  0
 34 33  1  0  0  0  0
 34 41  1  0  0  0  0
 35 34  1  0  0  0  0
 36 37  1  0  0  0  0
 36 35  2  0  0  0  0
 37 33  2  0  0  0  0
 38 37  1  0  0  0  0
 38 30  2  0  0  0  0
 39 30  1  0  0  0  0
 42 36  1  0  0  0  0
 43 38  1  0  0  0  0
M  END
>  <minimizedAffinity>
-6.97092485

>  <minimizedRMSD>
1.85349751

$$$$
