REMARK  Name = 
REMARK  4 active torsions:
REMARK  status: ('A' for Active; 'I' for Inactive)
REMARK    1  A    between atoms: C_3  and  C_7
REMARK    2  A    between atoms: C_7  and  C_21
REMARK    3  A    between atoms: C_12  and  C_14
REMARK    4  A    between atoms: C_14  and  C_15
REMARK                            x       y       z     vdW  Elec       q    Type
REMARK                         _______ _______ _______ _____ _____    ______ ____
ROOT
ATOM      1  C   UNL     1      40.998  31.921  45.069  0.00  0.00    +0.000 C 
ATOM      2  C   UNL     1      40.865  30.460  44.809  0.00  0.00    +0.000 C 
ATOM      3  N   UNL     1      39.729  29.958  45.519  0.00  0.00    +0.000 N 
ATOM      4  C   UNL     1      38.933  29.135  46.357  0.00  0.00    +0.000 C 
ATOM      5  O   UNL     1      38.930  27.958  46.858  0.00  0.00    +0.000 OA
ATOM      6  C   UNL     1      37.931  30.223  46.511  0.00  0.00    +0.000 C 
ATOM      7  C   UNL     1      38.580  30.766  45.287  0.00  0.00    +0.000 C 
ATOM      8  S   UNL     1      39.291  32.445  45.493  0.00  0.00    +0.000 S 
ENDROOT
BRANCH   6   9
ATOM      9  C   UNL     1      38.234  30.929  47.798  0.00  0.00    +0.000 C 
ATOM     10  O   UNL     1      39.014  31.902  47.818  0.00  0.00    +0.000 OA
BRANCH   9  13
ATOM     11  C   UNL     1      37.356  30.229  51.371  0.00  0.00    +0.000 A 
ATOM     12  C   UNL     1      38.027  30.753  50.260  0.00  0.00    +0.000 A 
ATOM     13  C   UNL     1      37.571  30.410  48.984  0.00  0.00    +0.000 A 
ATOM     14  N   UNL     1      36.485  29.576  48.911  0.00  0.00    +0.000 NA
ATOM     15  C   UNL     1      35.874  29.098  49.998  0.00  0.00    +0.000 A 
ATOM     16  N   UNL     1      36.296  29.414  51.222  0.00  0.00    +0.000 NA
ATOM     17  H   UNL     1      37.671  30.464  52.369  0.00  0.00    +0.000 HD
ATOM     18  H   UNL     1      38.881  31.409  50.374  0.00  0.00    +0.000 HD
ATOM     19  H   UNL     1      35.021  28.442  49.916  0.00  0.00    +0.000 HD
ENDBRANCH   9  13
ENDBRANCH   6   9
BRANCH   1  20
ATOM     20  C   UNL     1      42.006  32.323  46.082  0.00  0.00    +0.000 C 
ATOM     21  H   UNL     1      42.464  33.300  45.754  0.00  0.00    +0.000 HD
ENDBRANCH   1  20
BRANCH   1  22
ATOM     22  C   UNL     1      41.248  32.569  43.699  0.00  0.00    +0.000 C 
ATOM     23  H   UNL     1      40.630  31.999  42.953  0.00  0.00    +0.000 HD
ENDBRANCH   1  22
TORSDOF 4
