
 OpenBabel03262521543D

 42 45  0  0  1  0  0  0  0  0999 V2000
   32.8740   27.0870   48.0000 C   0  0  1  0  0  0  0  0  0  0  0  0
   33.4740   28.4630   48.2040 C   0  0  2  0  0  0  0  0  0  0  0  0
   34.1120   28.8720   46.9200 C   0  0  0  0  0  0  0  0  0  0  0  0
   34.0020   27.9240   45.9250 O   0  0  0  0  0  0  0  0  0  0  0  0
   32.6690   27.6190   45.6370 C   0  0  0  0  0  0  0  0  0  0  0  0
   31.8980   27.2130   46.8460 C   0  0  2  0  0  0  0  0  0  0  0  0
   32.2980   26.7670   48.8810 H   0  0  0  0  0  0  0  0  0  0  0  0
   32.6060   29.1520   48.3810 H   0  0  0  0  0  0  0  0  0  0  0  0
   35.1930   29.1140   47.0250 H   0  0  0  0  0  0  0  0  0  0  0  0
   33.6620   29.8150   46.4920 H   0  0  0  0  0  0  0  0  0  0  0  0
   32.7210   26.7230   44.9580 H   0  0  0  0  0  0  0  0  0  0  0  0
   32.2130   28.4110   45.0260 H   0  0  0  0  0  0  0  0  0  0  0  0
   31.3260   26.2890   46.6970 H   0  0  0  0  0  0  0  0  0  0  0  0
   33.8380   26.1620   47.6190 O   0  0  0  0  0  0  0  0  0  0  0  0
   33.6560   25.3230   48.0810 H   0  0  0  0  0  0  0  0  0  0  0  0
   34.6660   28.4800   49.5700 S   0  0  0  0  0  0  0  0  0  0  0  0
   35.1550   30.1760   49.9530 C   0  0  0  0  0  0  0  0  0  0  0  0
   35.0350   30.7590   48.9970 H   0  0  0  0  0  0  0  0  0  0  0  0
   34.4310   30.6080   50.6500 H   0  0  0  0  0  0  0  0  0  0  0  0
   36.8590   30.3470   50.4540 S   0  0  0  0  0  0  0  0  0  0  0  0
   37.7710   31.1390   49.1310 C   0  0  0  0  0  0  0  0  0  0  0  0
   38.2160   32.4110   49.4260 C   0  0  0  0  0  0  0  0  0  0  0  0
   38.9410   33.1050   48.4450 C   0  0  0  0  0  0  0  0  0  0  0  0
   39.1590   32.4720   47.2530 N   0  0  0  0  0  0  0  0  0  0  0  0
   38.6930   31.2250   47.0310 C   0  0  0  0  0  0  0  0  0  0  0  0
   38.0150   30.5680   47.9430 N   0  0  0  0  0  0  0  0  0  0  0  0
   38.0410   32.9140   50.3770 H   0  0  0  0  0  0  0  0  0  0  0  0
   39.3010   34.1050   48.6530 H   0  0  0  0  0  0  0  0  0  0  0  0
   38.8710   30.7280   46.0790 H   0  0  0  0  0  0  0  0  0  0  0  0
   31.0050   28.2400   47.2190 O   0  0  0  0  0  0  0  0  0  0  0  0
   29.7020   27.8140   47.2160 C   0  0  0  0  0  2  0  0  0  0  0  0
   28.9750   28.5410   46.0770 C   0  0  1  0  0  0  0  0  0  0  0  0
   28.9560   27.5970   44.9080 C   0  0  0  0  0  2  0  0  0  0  0  0
   27.7620   27.8310   44.1610 N   0  0  0  0  0  0  0  0  0  0  0  0
   26.8420   28.1070   43.0860 C   0  0  0  0  0  0  0  0  0  0  0  0
   26.9220   27.9600   41.8340 O   0  0  0  0  0  0  0  0  0  0  0  0
   25.8080   28.6140   44.0420 C   0  0  0  0  0  3  0  0  0  0  0  0
   25.8990   29.7010   44.2390 H   0  0  0  0  0  0  0  0  0  0  0  0
   26.5840   27.7580   45.0110 C   0  0  2  0  0  3  0  0  0  0  0  0
   27.2020   28.6560   46.4680 S   0  0  0  0  0  0  0  0  0  0  0  0
   29.5960   29.8660   45.8090 C   0  0  0  0  0  2  0  0  0  0  0  0
   30.0570   30.2100   46.7640 H   0  0  0  0  0  0  0  0  0  0  0  0
  1  2  1  0  0  0  0
  1  7  1  1  0  0  0
  2  8  1  1  0  0  0
  2 16  1  0  0  0  0
  3  9  1  0  0  0  0
  3  2  1  0  0  0  0
  4  3  1  0  0  0  0
  5  4  1  0  0  0  0
  5  6  1  0  0  0  0
  6 13  1  6  0  0  0
  6 30  1  0  0  0  0
  6  1  1  0  0  0  0
 10  3  1  0  0  0  0
 11  5  1  0  0  0  0
 12  5  1  0  0  0  0
 14  1  1  0  0  0  0
 14 15  1  0  0  0  0
 16 17  1  0  0  0  0
 17 20  1  0  0  0  0
 17 19  1  0  0  0  0
 18 17  1  0  0  0  0
 21 22  1  0  0  0  0
 21 20  1  0  0  0  0
 22 27  1  0  0  0  0
 23 28  1  0  0  0  0
 23 22  2  0  0  0  0
 24 23  1  0  0  0  0
 25 24  2  0  0  0  0
 25 26  1  0  0  0  0
 26 21  2  0  0  0  0
 29 25  1  0  0  0  0
 31 30  1  0  0  0  0
 32 41  1  6  0  0  0
 32 40  1  0  0  0  0
 32 31  1  0  0  0  0
 33 32  1  0  0  0  0
 34 33  1  0  0  0  0
 34 39  1  0  0  0  0
 35 37  1  0  0  0  0
 35 34  1  0  0  0  0
 36 35  2  0  0  0  0
 37 38  1  0  0  0  0
 39 37  1  6  0  0  0
 39 40  1  0  0  0  0
 41 42  1  0  0  0  0
M  END
>  <minimizedAffinity>
-4.6686306

>  <minimizedRMSD>
1.25492394

$$$$
