
 OpenBabel03262521543D

 42 45  0  0  1  0  0  0  0  0999 V2000
   31.4160   27.0350   46.9750 C   0  0  1  0  0  0  0  0  0  0  0  0
   30.7770   28.3510   46.5840 C   0  0  2  0  0  0  0  0  0  0  0  0
   29.8410   28.7410   47.6770 C   0  0  0  0  0  0  0  0  0  0  0  0
   29.7970   27.8320   48.7130 O   0  0  0  0  0  0  0  0  0  0  0  0
   31.0510   27.6450   49.2990 C   0  0  0  0  0  0  0  0  0  0  0  0
   32.0990   27.2720   48.3090 C   0  0  2  0  0  0  0  0  0  0  0  0
   32.1950   26.7400   46.2570 H   0  0  0  0  0  0  0  0  0  0  0  0
   31.6090   29.1040   46.5710 H   0  0  0  0  0  0  0  0  0  0  0  0
   28.7950   28.8910   47.3260 H   0  0  0  0  0  0  0  0  0  0  0  0
   30.1130   29.7280   48.1510 H   0  0  0  0  0  0  0  0  0  0  0  0
   30.9150   26.7660   49.9900 H   0  0  0  0  0  0  0  0  0  0  0  0
   31.3000   28.4880   49.9600 H   0  0  0  0  0  0  0  0  0  0  0  0
   32.6910   26.4010   48.6200 H   0  0  0  0  0  0  0  0  0  0  0  0
   30.4630   26.0450   47.1750 O   0  0  0  0  0  0  0  0  0  0  0  0
   30.8040   25.2110   46.8020 H   0  0  0  0  0  0  0  0  0  0  0  0
   29.9200   28.2340   44.9900 S   0  0  0  0  0  0  0  0  0  0  0  0
   28.9130   29.7070   44.7110 C   0  0  0  0  0  0  0  0  0  0  0  0
   29.2000   30.4390   45.5170 H   0  0  0  0  0  0  0  0  0  0  0  0
   29.2170   30.1750   43.7700 H   0  0  0  0  0  0  0  0  0  0  0  0
   27.1570   29.4280   44.8670 S   0  0  0  0  0  0  0  0  0  0  0  0
   26.7290   29.4120   46.6060 C   0  0  0  0  0  0  0  0  0  0  0  0
   26.7600   30.6500   47.2130 C   0  0  0  0  0  0  0  0  0  0  0  0
   26.4380   30.7290   48.5770 C   0  0  0  0  0  0  0  0  0  0  0  0
   26.1120   29.5660   49.2190 N   0  0  0  0  0  0  0  0  0  0  0  0
   26.1020   28.3870   48.5620 C   0  0  0  0  0  0  0  0  0  0  0  0
   26.4020   28.3040   47.2870 N   0  0  0  0  0  0  0  0  0  0  0  0
   27.0190   31.5760   46.7000 H   0  0  0  0  0  0  0  0  0  0  0  0
   26.4550   31.6900   49.0760 H   0  0  0  0  0  0  0  0  0  0  0  0
   25.8420   27.4670   49.0800 H   0  0  0  0  0  0  0  0  0  0  0  0
   32.9740   28.3580   48.0950 O   0  0  0  0  0  0  0  0  0  0  0  0
   33.6550   28.7010   49.2350 C   0  0  0  0  0  2  0  0  0  0  0  0
   34.9110   29.4760   48.8140 C   0  0  1  0  0  0  0  0  0  0  0  0
   34.7860   30.8520   49.4070 C   0  0  0  0  0  2  0  0  0  0  0  0
   36.0960   31.3310   49.7100 N   0  0  0  0  0  0  0  0  0  0  0  0
   37.2820   32.1470   49.7760 C   0  0  0  0  0  0  0  0  0  0  0  0
   37.4760   33.3890   49.6390 O   0  0  0  0  0  0  0  0  0  0  0  0
   38.1400   30.9550   50.0650 C   0  0  0  0  0  3  0  0  0  0  0  0
   38.5280   30.4710   49.1460 H   0  0  0  0  0  0  0  0  0  0  0  0
   36.8270   30.3850   50.5380 C   0  0  2  0  0  3  0  0  0  0  0  0
   36.3510   28.8300   49.7180 S   0  0  0  0  0  0  0  0  0  0  0  0
   35.0910   29.4390   47.3370 C   0  0  0  0  0  2  0  0  0  0  0  0
   34.6140   28.4970   46.9750 H   0  0  0  0  0  0  0  0  0  0  0  0
  1  7  1  6  0  0  0
  1 14  1  0  0  0  0
  1  6  1  0  0  0  0
  2  8  1  6  0  0  0
  2  1  1  0  0  0  0
  2  3  1  0  0  0  0
  3 10  1  0  0  0  0
  3  4  1  0  0  0  0
  4  5  1  0  0  0  0
  5 12  1  0  0  0  0
  5 11  1  0  0  0  0
  6 13  1  1  0  0  0
  6  5  1  0  0  0  0
  9  3  1  0  0  0  0
 15 14  1  0  0  0  0
 16  2  1  0  0  0  0
 17 20  1  0  0  0  0
 17 16  1  0  0  0  0
 17 18  1  0  0  0  0
 19 17  1  0  0  0  0
 20 21  1  0  0  0  0
 21 22  2  0  0  0  0
 21 26  1  0  0  0  0
 22 23  1  0  0  0  0
 23 28  1  0  0  0  0
 23 24  2  0  0  0  0
 25 29  1  0  0  0  0
 25 24  1  0  0  0  0
 26 25  2  0  0  0  0
 27 22  1  0  0  0  0
 30  6  1  0  0  0  0
 30 31  1  0  0  0  0
 32 41  1  6  0  0  0
 32 31  1  0  0  0  0
 32 33  1  0  0  0  0
 32 40  1  0  0  0  0
 33 34  1  0  0  0  0
 34 35  1  0  0  0  0
 34 39  1  0  0  0  0
 35 37  1  0  0  0  0
 36 35  2  0  0  0  0
 37 39  1  0  0  0  0
 38 37  1  0  0  0  0
 39 40  1  6  0  0  0
 42 41  1  0  0  0  0
M  END
>  <minimizedAffinity>
-5.38673019

>  <minimizedRMSD>
8.4671917

$$$$
