
 OpenBabel03262521543D

 42 45  0  0  1  0  0  0  0  0999 V2000
   33.0610   27.0270   47.8310 C   0  0  1  0  0  0  0  0  0  0  0  0
   33.3940   28.3900   48.4010 C   0  0  2  0  0  0  0  0  0  0  0  0
   33.6130   29.3180   47.2550 C   0  0  0  0  0  0  0  0  0  0  0  0
   33.4700   28.7130   46.0240 O   0  0  0  0  0  0  0  0  0  0  0  0
   32.2000   28.1550   45.8580 C   0  0  0  0  0  0  0  0  0  0  0  0
   31.8360   27.2170   46.9560 C   0  0  2  0  0  0  0  0  0  0  0  0
   32.7880   26.3160   48.6260 H   0  0  0  0  0  0  0  0  0  0  0  0
   32.4690   28.7320   48.9360 H   0  0  0  0  0  0  0  0  0  0  0  0
   34.6140   29.8040   47.2690 H   0  0  0  0  0  0  0  0  0  0  0  0
   32.8900   30.1850   47.2520 H   0  0  0  0  0  0  0  0  0  0  0  0
   32.2750   27.5500   44.9120 H   0  0  0  0  0  0  0  0  0  0  0  0
   31.4590   28.9370   45.6350 H   0  0  0  0  0  0  0  0  0  0  0  0
   31.4490   26.2580   46.5880 H   0  0  0  0  0  0  0  0  0  0  0  0
   34.0780   26.5550   47.0110 O   0  0  0  0  0  0  0  0  0  0  0  0
   34.1880   25.6010   47.1780 H   0  0  0  0  0  0  0  0  0  0  0  0
   34.8440   28.3270   49.4880 S   0  0  0  0  0  0  0  0  0  0  0  0
   35.2230   29.9760   50.1200 C   0  0  0  0  0  0  0  0  0  0  0  0
   35.0040   30.6910   49.2780 H   0  0  0  0  0  0  0  0  0  0  0  0
   34.5100   30.2290   50.9100 H   0  0  0  0  0  0  0  0  0  0  0  0
   36.9370   30.2090   50.5650 S   0  0  0  0  0  0  0  0  0  0  0  0
   37.7770   31.0240   49.2090 C   0  0  0  0  0  0  0  0  0  0  0  0
   38.2170   32.3000   49.4950 C   0  0  0  0  0  0  0  0  0  0  0  0
   38.8870   33.0120   48.4880 C   0  0  0  0  0  0  0  0  0  0  0  0
   39.0610   32.3910   47.2820 N   0  0  0  0  0  0  0  0  0  0  0  0
   38.6040   31.1380   47.0710 C   0  0  0  0  0  0  0  0  0  0  0  0
   37.9770   30.4650   48.0070 N   0  0  0  0  0  0  0  0  0  0  0  0
   38.0770   32.7930   50.4560 H   0  0  0  0  0  0  0  0  0  0  0  0
   39.2420   34.0150   48.6880 H   0  0  0  0  0  0  0  0  0  0  0  0
   38.7470   30.6510   46.1090 H   0  0  0  0  0  0  0  0  0  0  0  0
   30.8640   27.8030   47.7940 O   0  0  0  0  0  0  0  0  0  0  0  0
   29.7770   26.9860   47.9710 C   0  0  0  0  0  2  0  0  0  0  0  0
   28.7600   27.7410   48.8360 C   0  0  1  0  0  0  0  0  0  0  0  0
   28.5380   29.0730   48.1760 C   0  0  0  0  0  2  0  0  0  0  0  0
   27.1900   29.4770   48.4230 N   0  0  0  0  0  0  0  0  0  0  0  0
   26.0330   30.2390   48.8150 C   0  0  0  0  0  0  0  0  0  0  0  0
   25.8320   31.4790   48.9570 O   0  0  0  0  0  0  0  0  0  0  0  0
   25.2130   28.9960   48.9730 C   0  0  0  0  0  3  0  0  0  0  0  0
   25.2720   28.5670   49.9930 H   0  0  0  0  0  0  0  0  0  0  0  0
   26.2470   28.4440   48.0240 C   0  0  2  0  0  3  0  0  0  0  0  0
   27.1210   26.9750   48.6500 S   0  0  0  0  0  0  0  0  0  0  0  0
   29.2100   27.8070   50.2540 C   0  0  0  0  0  2  0  0  0  0  0  0
   29.8550   26.9130   50.4330 H   0  0  0  0  0  0  0  0  0  0  0  0
  1  2  1  0  0  0  0
  1  7  1  1  0  0  0
  2  8  1  1  0  0  0
  2 16  1  0  0  0  0
  3  9  1  0  0  0  0
  3  2  1  0  0  0  0
  4  3  1  0  0  0  0
  5  4  1  0  0  0  0
  5  6  1  0  0  0  0
  6 13  1  6  0  0  0
  6 30  1  0  0  0  0
  6  1  1  0  0  0  0
 10  3  1  0  0  0  0
 11  5  1  0  0  0  0
 12  5  1  0  0  0  0
 14 15  1  0  0  0  0
 14  1  1  0  0  0  0
 16 17  1  0  0  0  0
 17 20  1  0  0  0  0
 17 19  1  0  0  0  0
 18 17  1  0  0  0  0
 21 22  1  0  0  0  0
 21 20  1  0  0  0  0
 22 27  1  0  0  0  0
 23 28  1  0  0  0  0
 23 22  2  0  0  0  0
 24 23  1  0  0  0  0
 25 24  2  0  0  0  0
 25 26  1  0  0  0  0
 26 21  2  0  0  0  0
 29 25  1  0  0  0  0
 30 31  1  0  0  0  0
 32 31  1  6  0  0  0
 32 41  1  0  0  0  0
 33 34  1  0  0  0  0
 33 32  1  0  0  0  0
 34 35  1  0  0  0  0
 35 36  2  0  0  0  0
 35 37  1  0  0  0  0
 37 38  1  0  0  0  0
 39 34  1  0  0  0  0
 39 40  1  1  0  0  0
 39 37  1  0  0  0  0
 40 32  1  0  0  0  0
 41 42  1  0  0  0  0
M  END
>  <minimizedAffinity>
-6.12094975

>  <minimizedRMSD>
0.935889125

$$$$
