
 OpenBabel03262521543D

 42 45  0  0  1  0  0  0  0  0999 V2000
   33.0770   27.0310   47.8510 C   0  0  1  0  0  0  0  0  0  0  0  0
   33.4050   28.3970   48.4180 C   0  0  2  0  0  0  0  0  0  0  0  0
   33.6250   29.3210   47.2700 C   0  0  0  0  0  0  0  0  0  0  0  0
   33.4880   28.7130   46.0400 O   0  0  0  0  0  0  0  0  0  0  0  0
   32.2200   28.1510   45.8720 C   0  0  0  0  0  0  0  0  0  0  0  0
   31.8550   27.2150   46.9720 C   0  0  2  0  0  0  0  0  0  0  0  0
   32.8040   26.3220   48.6470 H   0  0  0  0  0  0  0  0  0  0  0  0
   32.4770   28.7380   48.9490 H   0  0  0  0  0  0  0  0  0  0  0  0
   34.6250   29.8100   47.2850 H   0  0  0  0  0  0  0  0  0  0  0  0
   32.9000   30.1860   47.2620 H   0  0  0  0  0  0  0  0  0  0  0  0
   32.2990   27.5420   44.9280 H   0  0  0  0  0  0  0  0  0  0  0  0
   31.4770   28.9300   45.6450 H   0  0  0  0  0  0  0  0  0  0  0  0
   31.4710   26.2540   46.6060 H   0  0  0  0  0  0  0  0  0  0  0  0
   34.0980   26.5590   47.0360 O   0  0  0  0  0  0  0  0  0  0  0  0
   34.2100   25.6060   47.2060 H   0  0  0  0  0  0  0  0  0  0  0  0
   34.8520   28.3410   49.5090 S   0  0  0  0  0  0  0  0  0  0  0  0
   35.2580   30.0010   50.0950 C   0  0  0  0  0  0  0  0  0  0  0  0
   35.0470   30.6960   49.2340 H   0  0  0  0  0  0  0  0  0  0  0  0
   34.5510   30.2860   50.8790 H   0  0  0  0  0  0  0  0  0  0  0  0
   36.9760   30.2200   50.5280 S   0  0  0  0  0  0  0  0  0  0  0  0
   37.8070   31.0540   49.1790 C   0  0  0  0  0  0  0  0  0  0  0  0
   38.2480   32.3270   49.4800 C   0  0  0  0  0  0  0  0  0  0  0  0
   38.9110   33.0530   48.4790 C   0  0  0  0  0  0  0  0  0  0  0  0
   39.0790   32.4490   47.2640 N   0  0  0  0  0  0  0  0  0  0  0  0
   38.6220   31.1990   47.0380 C   0  0  0  0  0  0  0  0  0  0  0  0
   38.0010   30.5120   47.9680 N   0  0  0  0  0  0  0  0  0  0  0  0
   38.1130   32.8060   50.4490 H   0  0  0  0  0  0  0  0  0  0  0  0
   39.2660   34.0540   48.6910 H   0  0  0  0  0  0  0  0  0  0  0  0
   38.7600   30.7260   46.0680 H   0  0  0  0  0  0  0  0  0  0  0  0
   30.8780   27.8020   47.8050 O   0  0  0  0  0  0  0  0  0  0  0  0
   29.7810   26.9940   47.9590 C   0  0  0  0  0  2  0  0  0  0  0  0
   28.7650   27.7450   48.8280 C   0  0  1  0  0  0  0  0  0  0  0  0
   28.5370   29.0770   48.1680 C   0  0  0  0  0  2  0  0  0  0  0  0
   27.1880   29.4760   48.4190 N   0  0  0  0  0  0  0  0  0  0  0  0
   26.0290   30.2360   48.8150 C   0  0  0  0  0  0  0  0  0  0  0  0
   25.8260   31.4750   48.9560 O   0  0  0  0  0  0  0  0  0  0  0  0
   25.2140   28.9910   48.9760 C   0  0  0  0  0  3  0  0  0  0  0  0
   25.2790   28.5620   49.9960 H   0  0  0  0  0  0  0  0  0  0  0  0
   26.2470   28.4420   48.0240 C   0  0  2  0  0  3  0  0  0  0  0  0
   27.1260   26.9750   48.6460 S   0  0  0  0  0  0  0  0  0  0  0  0
   29.2200   27.8130   50.2430 C   0  0  0  0  0  2  0  0  0  0  0  0
   29.8680   26.9220   50.4210 H   0  0  0  0  0  0  0  0  0  0  0  0
  1  2  1  0  0  0  0
  1  7  1  1  0  0  0
  2  8  1  1  0  0  0
  2 16  1  0  0  0  0
  3  9  1  0  0  0  0
  3  2  1  0  0  0  0
  4  3  1  0  0  0  0
  5  4  1  0  0  0  0
  5  6  1  0  0  0  0
  6 13  1  6  0  0  0
  6 30  1  0  0  0  0
  6  1  1  0  0  0  0
 10  3  1  0  0  0  0
 11  5  1  0  0  0  0
 12  5  1  0  0  0  0
 14 15  1  0  0  0  0
 14  1  1  0  0  0  0
 16 17  1  0  0  0  0
 17 20  1  0  0  0  0
 17 19  1  0  0  0  0
 18 17  1  0  0  0  0
 21 22  1  0  0  0  0
 21 20  1  0  0  0  0
 22 27  1  0  0  0  0
 23 28  1  0  0  0  0
 23 22  2  0  0  0  0
 24 23  1  0  0  0  0
 25 24  2  0  0  0  0
 25 26  1  0  0  0  0
 26 21  2  0  0  0  0
 29 25  1  0  0  0  0
 30 31  1  0  0  0  0
 32 31  1  6  0  0  0
 32 41  1  0  0  0  0
 33 34  1  0  0  0  0
 33 32  1  0  0  0  0
 34 35  1  0  0  0  0
 35 36  2  0  0  0  0
 35 37  1  0  0  0  0
 37 38  1  0  0  0  0
 39 34  1  0  0  0  0
 39 40  1  1  0  0  0
 39 37  1  0  0  0  0
 40 32  1  0  0  0  0
 41 42  1  0  0  0  0
M  END
>  <minimizedAffinity>
-6.1236825

>  <minimizedRMSD>
0.882098794

$$$$
