REMARK  Name = 
REMARK  6 active torsions:
REMARK  status: ('A' for Active; 'I' for Inactive)
REMARK    1  A    between atoms: C_3  and  C_7
REMARK    2  A    between atoms: C_7  and  C_8
REMARK    3  A    between atoms: C_8  and  S_9
REMARK    4  A    between atoms: S_9  and  C_17
REMARK    5  A    between atoms: C_17  and  C_18
REMARK    6  A    between atoms: C_18  and  C_19
REMARK                            x       y       z     vdW  Elec       q    Type
REMARK                         _______ _______ _______ _____ _____    ______ ____
ROOT
ATOM      1  C   UNL     1      38.763  31.827  48.170  0.00  0.00    +0.000 C 
ATOM      2  H   UNL     1      39.159  32.141  47.152  0.00  0.00    +0.000 HD
ATOM      3  H   UNL     1      39.538  31.194  48.582  0.00  0.00    +0.000 HD
ENDROOT
BRANCH   1   4
ATOM      4  C   UNL     1      37.446  31.155  47.851  0.00  0.00    +0.000 C 
ATOM      5  H   UNL     1      36.769  31.980  47.505  0.00  0.00    +0.000 HD
ATOM      6  H   UNL     1      37.621  30.473  47.000  0.00  0.00    +0.000 HD
BRANCH   4   9
ATOM      7  C   UNL     1      37.053  29.401  51.170  0.00  0.00    +0.000 A 
ATOM      8  C   UNL     1      37.670  30.021  50.083  0.00  0.00    +0.000 A 
ATOM      9  C   UNL     1      36.900  30.498  49.051  0.00  0.00    +0.000 A 
ATOM     10  N   UNL     1      35.552  30.334  49.149  0.00  0.00    +0.000 NA
ATOM     11  C   UNL     1      34.978  29.733  50.203  0.00  0.00    +0.000 A 
ATOM     12  N   UNL     1      35.736  29.265  51.221  0.00  0.00    +0.000 NA
ATOM     13  H   UNL     1      37.717  29.040  51.959  0.00  0.00    +0.000 HD
ATOM     14  H   UNL     1      38.741  30.119  50.061  0.00  0.00    +0.000 HD
ATOM     15  H   UNL     1      33.906  29.608  50.281  0.00  0.00    +0.000 HD
ENDBRANCH   4   9
ENDBRANCH   1   4
BRANCH   1  16
ATOM     16  S   UNL     1      38.455  33.368  49.079  0.00  0.00    +0.000 S 
BRANCH  16  17
ATOM     17  C   UNL     1      39.600  34.599  48.426  0.00  0.00    +0.000 C 
BRANCH  17  18
ATOM     18  C   UNL     1      40.885  34.735  49.202  0.00  0.00    +0.000 C 
ATOM     19  C   UNL     1      41.729  33.550  49.017  0.00  0.00    +0.000 C 
ATOM     20  N   UNL     1      43.065  33.952  48.672  0.00  0.00    +0.000 N 
ATOM     21  C   UNL     1      44.489  33.953  48.661  0.00  0.00    +0.000 C 
ATOM     22  O   UNL     1      45.513  33.216  48.785  0.00  0.00    +0.000 OA
ATOM     23  C   UNL     1      44.469  35.397  48.404  0.00  0.00    +0.000 C 
ATOM     24  H   UNL     1      44.289  35.983  49.336  0.00  0.00    +0.000 HD
ATOM     25  C   UNL     1      43.138  35.056  47.766  0.00  0.00    +0.000 C 
ATOM     26  S   UNL     1      41.783  36.106  48.353  0.00  0.00    +0.000 S 
BRANCH  18  27
ATOM     27  C   UNL     1      40.599  35.136  50.632  0.00  0.00    +0.000 C 
ATOM     28  H   UNL     1      39.706  35.820  50.581  0.00  0.00    +0.000 HD
ENDBRANCH  18  27
ENDBRANCH  17  18
ENDBRANCH  16  17
ENDBRANCH   1  16
TORSDOF 6
