
 OpenBabel03272509263D

 28 31  0  0  1  0  0  0  0  0999 V2000
   34.6900   29.3520   47.2380 C   0  0  0  0  0  0  0  0  0  0  0  0
   34.1890   30.3230   47.5510 H   0  0  0  0  0  0  0  0  0  0  0  0
   34.1670   29.0520   46.3390 H   0  0  0  0  0  0  0  0  0  0  0  0
   34.5210   28.4560   48.4440 C   0  0  0  0  0  0  0  0  0  0  0  0
   35.5060   27.9320   48.5640 H   0  0  0  0  0  0  0  0  0  0  0  0
   34.3680   29.1080   49.3220 H   0  0  0  0  0  0  0  0  0  0  0  0
   31.1840   26.6930   48.3520 C   0  0  0  0  0  0  0  0  0  0  0  0
   32.1340   27.6830   48.6050 C   0  0  0  0  0  0  0  0  0  0  0  0
   33.4360   27.4860   48.2160 C   0  0  0  0  0  0  0  0  0  0  0  0
   33.7310   26.3100   47.5950 N   0  0  0  0  0  0  0  0  0  0  0  0
   32.8030   25.3690   47.3630 C   0  0  0  0  0  0  0  0  0  0  0  0
   31.5200   25.5650   47.7440 N   0  0  0  0  0  0  0  0  0  0  0  0
   30.1660   26.9060   48.6870 H   0  0  0  0  0  0  0  0  0  0  0  0
   31.8410   28.5910   49.1020 H   0  0  0  0  0  0  0  0  0  0  0  0
   33.0390   24.4380   46.8650 H   0  0  0  0  0  0  0  0  0  0  0  0
   36.4470   29.7500   47.0170 S   0  0  0  0  0  0  0  0  0  0  0  0
   37.1680   29.8700   48.6660 C   0  0  0  0  0  2  0  0  0  0  0  0
   37.1640   31.2580   49.2540 C   0  0  1  0  0  0  0  0  0  0  0  0
   38.3070   31.4410   50.1550 C   0  0  0  0  0  2  0  0  0  0  0  0
   38.9910   32.6630   49.8320 N   0  0  2  0  0  0  0  0  0  0  0  0
   39.6850   33.8900   50.0380 C   0  0  2  0  0  0  0  0  0  0  0  0
   40.4650   34.5030   50.8260 O   0  0  0  0  0  1  0  0  0  0  0  0
   39.1220   34.3990   48.7830 C   0  0  0  0  0  3  0  0  0  0  0  0
   38.0720   34.7540   48.9110 H   0  0  0  0  0  0  0  0  0  0  0  0
   39.1090   32.9250   48.4310 C   0  0  1  0  0  0  0  0  0  0  0  0
   37.5030   32.3600   47.8120 S   0  0  0  0  0  0  0  0  0  0  0  0
   35.8030   31.5870   49.8240 C   0  0  0  0  0  2  0  0  0  0  0  0
   35.0600   31.0850   49.1420 H   0  0  0  0  0  0  0  0  0  0  0  0
  1  2  1  0  0  0  0
  1  4  1  0  0  0  0
  3  1  1  0  0  0  0
  4  5  1  0  0  0  0
  4  6  1  0  0  0  0
  7  8  1  0  0  0  0
  7 13  1  0  0  0  0
  8 14  1  0  0  0  0
  9  4  1  0  0  0  0
  9  8  2  0  0  0  0
 10  9  1  0  0  0  0
 11 10  2  0  0  0  0
 11 12  1  0  0  0  0
 12  7  2  0  0  0  0
 15 11  1  0  0  0  0
 16  1  1  0  0  0  0
 16 17  1  0  0  0  0
 18 17  1  6  0  0  0
 18 27  1  0  0  0  0
 18 19  1  0  0  0  0
 20 21  1  0  0  0  0
 20 19  1  1  0  0  0
 21 22  1  1  0  0  0
 23 24  1  0  0  0  0
 23 21  1  0  0  0  0
 25 26  1  1  0  0  0
 25 23  1  0  0  0  0
 25 20  1  0  0  0  0
 25 21  1  0  0  0  0
 26 18  1  0  0  0  0
 28 27  1  0  0  0  0
M  END
>  <minimizedAffinity>
-2.46450448

>  <minimizedRMSD>
5.30990696

$$$$
