
 OpenBabel03262522273D

 49 53  0  0  1  0  0  0  0  0999 V2000
   34.7740   30.5150   49.7970 C   0  0  0  0  0  0  0  0  0  0  0  0
   34.0960   30.1140   50.5980 H   0  0  0  0  0  0  0  0  0  0  0  0
   34.6260   31.6050   49.7160 H   0  0  0  0  0  0  0  0  0  0  0  0
   34.5020   27.7750   49.8940 F   0  0  0  0  0  0  0  0  0  0  0  0
   34.3470   28.4240   48.6950 C   0  0  0  0  0  0  0  0  0  0  0  0
   34.4630   29.8050   48.5270 C   0  0  0  0  0  0  0  0  0  0  0  0
   34.2970   30.3880   47.3060 C   0  0  0  0  0  0  0  0  0  0  0  0
   34.0050   29.6090   46.1810 C   0  0  0  0  0  0  0  0  0  0  0  0
   33.8850   28.2460   46.3170 C   0  0  0  0  0  0  0  0  0  0  0  0
   34.0580   27.6700   47.5730 C   0  0  0  0  0  0  0  0  0  0  0  0
   34.4000   31.4510   47.2460 H   0  0  0  0  0  0  0  0  0  0  0  0
   33.8740   30.0750   45.2080 H   0  0  0  0  0  0  0  0  0  0  0  0
   33.6590   27.6570   45.4370 H   0  0  0  0  0  0  0  0  0  0  0  0
   33.9250   26.2830   47.6530 O   0  0  0  0  0  0  0  0  0  0  0  0
   34.1260   25.4390   46.5380 C   0  0  0  0  0  2  0  0  0  0  0  0
   33.3560   24.1500   46.8560 C   0  0  2  0  0  0  0  0  0  0  0  0
   34.1990   23.3200   47.7670 C   0  0  0  0  0  2  0  0  0  0  0  0
   34.2360   21.9730   47.2980 N   0  0  0  0  0  0  0  0  0  0  0  0
   34.1680   20.5550   47.1810 C   0  0  0  0  0  0  0  0  0  0  0  0
   34.0950   19.6250   48.0310 O   0  0  0  0  0  0  0  0  0  0  0  0
   34.2110   20.5370   45.7040 C   0  0  0  0  0  3  0  0  0  0  0  0
   35.0170   19.9130   45.2510 H   0  0  0  0  0  0  0  0  0  0  0  0
   34.6410   21.9650   45.8870 C   0  0  1  0  0  3  0  0  0  0  0  0
   33.3980   23.1840   45.2950 S   0  0  0  0  0  0  0  0  0  0  0  0
   31.9750   24.4320   47.3270 C   0  0  0  0  0  2  0  0  0  0  0  0
   31.7580   25.5020   47.0650 H   0  0  0  0  0  0  0  0  0  0  0  0
   36.4800   30.0860   50.2390 S   0  0  0  0  0  0  0  0  0  0  0  0
   38.7200   32.8550   48.3480 C   0  0  0  0  0  0  0  0  0  0  0  0
   39.0300   32.1910   47.1480 C   0  0  0  0  0  0  0  0  0  0  0  0
   38.5300   30.9330   46.9970 C   0  0  0  0  0  0  0  0  0  0  0  0
   37.7710   30.3920   47.9950 N   0  0  0  0  0  0  0  0  0  0  0  0
   37.5050   31.0390   49.0930 C   0  0  0  0  0  0  0  0  0  0  0  0
   37.9730   32.3160   49.3230 N   0  0  0  0  0  0  0  0  0  0  0  0
   39.0780   33.8570   48.5470 H   0  0  0  0  0  0  0  0  0  0  0  0
   38.7550   30.4010   46.0810 H   0  0  0  0  0  0  0  0  0  0  0  0
   39.7940   32.8360   46.2360 O   0  0  0  0  0  0  0  0  0  0  0  0
   39.9470   32.2980   44.9700 C   0  0  0  0  0  0  0  0  0  0  0  0
   40.6480   31.1690   44.6140 C   0  0  0  0  0  0  0  0  0  0  0  0
   40.6970   30.7820   43.3310 C   0  0  0  0  0  0  0  0  0  0  0  0
   40.0440   31.5230   42.3940 C   0  0  0  0  0  0  0  0  0  0  0  0
   39.3320   32.6720   42.7650 C   0  0  0  0  0  0  0  0  0  0  0  0
   39.2920   33.0520   44.0770 N   0  0  0  0  0  0  0  0  0  0  0  0
   41.1250   30.6670   45.4600 H   0  0  0  0  0  0  0  0  0  0  0  0
   41.2440   29.9070   43.0690 H   0  0  0  0  0  0  0  0  0  0  0  0
   40.0410   31.2690   41.3380 H   0  0  0  0  0  0  0  0  0  0  0  0
   38.6000   33.5030   41.7120 C   0  0  0  0  0  0  0  0  0  0  0  0
   38.2740   32.8720   40.8860 H   0  0  0  0  0  0  0  0  0  0  0  0
   37.8180   34.0310   42.2660 H   0  0  0  0  0  0  0  0  0  0  0  0
   39.3430   34.2720   41.4030 H   0  0  0  0  0  0  0  0  0  0  0  0
  1 27  1  0  0  0  0
  1  2  1  0  0  0  0
  3  1  1  0  0  0  0
  5  4  1  0  0  0  0
  6  5  1  0  0  0  0
  6  1  1  0  0  0  0
  7  6  2  0  0  0  0
  8  9  2  0  0  0  0
  8  7  1  0  0  0  0
  9 10  1  0  0  0  0
 10 14  1  0  0  0  0
 10  5  2  0  0  0  0
 11  7  1  0  0  0  0
 12  8  1  0  0  0  0
 13  9  1  0  0  0  0
 15 14  1  0  0  0  0
 16 15  1  6  0  0  0
 16 25  1  0  0  0  0
 16 17  1  0  0  0  0
 18 17  1  0  0  0  0
 19 18  1  0  0  0  0
 19 20  2  0  0  0  0
 21 23  1  0  0  0  0
 21 19  1  0  0  0  0
 22 21  1  0  0  0  0
 23 24  1  6  0  0  0
 23 18  1  0  0  0  0
 24 16  1  0  0  0  0
 26 25  1  0  0  0  0
 28 34  1  0  0  0  0
 28 33  1  0  0  0  0
 29 28  2  0  0  0  0
 30 29  1  0  0  0  0
 30 31  2  0  0  0  0
 31 32  1  0  0  0  0
 32 33  2  0  0  0  0
 32 27  1  0  0  0  0
 35 30  1  0  0  0  0
 36 29  1  0  0  0  0
 37 36  1  0  0  0  0
 38 37  1  0  0  0  0
 38 43  1  0  0  0  0
 39 38  2  0  0  0  0
 40 41  2  0  0  0  0
 40 39  1  0  0  0  0
 41 42  1  0  0  0  0
 42 37  2  0  0  0  0
 44 39  1  0  0  0  0
 45 40  1  0  0  0  0
 46 48  1  0  0  0  0
 46 41  1  0  0  0  0
 47 46  1  0  0  0  0
 49 46  1  0  0  0  0
M  END
>  <minimizedAffinity>
-5.92764664

>  <minimizedRMSD>
0.27419278

$$$$
