
 OpenBabel03262522303D

 49 53  0  0  1  0  0  0  0  0999 V2000
   36.8150   28.3950   30.2470 C   0  0  0  0  0  0  0  0  0  0  0  0
   36.8820   28.6370   29.1510 H   0  0  0  0  0  0  0  0  0  0  0  0
   36.0630   27.6020   30.3920 H   0  0  0  0  0  0  0  0  0  0  0  0
   35.2700   28.1640   32.5150 F   0  0  0  0  0  0  0  0  0  0  0  0
   35.6840   29.4070   32.1080 C   0  0  0  0  0  0  0  0  0  0  0  0
   36.4680   29.6440   30.9770 C   0  0  0  0  0  0  0  0  0  0  0  0
   36.8460   30.9060   30.6270 C   0  0  0  0  0  0  0  0  0  0  0  0
   36.4530   32.0050   31.3990 C   0  0  0  0  0  0  0  0  0  0  0  0
   35.6810   31.8010   32.5190 C   0  0  0  0  0  0  0  0  0  0  0  0
   35.3060   30.5040   32.8590 C   0  0  0  0  0  0  0  0  0  0  0  0
   37.4450   31.0180   29.7480 H   0  0  0  0  0  0  0  0  0  0  0  0
   36.7550   33.0100   31.1180 H   0  0  0  0  0  0  0  0  0  0  0  0
   35.3860   32.6620   33.1050 H   0  0  0  0  0  0  0  0  0  0  0  0
   34.5230   30.3560   34.0050 O   0  0  0  0  0  0  0  0  0  0  0  0
   33.6390   31.3640   34.4520 C   0  0  0  0  0  2  0  0  0  0  0  0
   32.8570   30.7370   35.6140 C   0  0  2  0  0  0  0  0  0  0  0  0
   33.1490   29.2720   35.6310 C   0  0  0  0  0  2  0  0  0  0  0  0
   31.9320   28.5380   35.7560 N   0  0  0  0  0  0  0  0  0  0  0  0
   30.9010   27.6450   36.1670 C   0  0  0  0  0  0  0  0  0  0  0  0
   30.8880   26.6380   36.9260 O   0  0  0  0  0  0  0  0  0  0  0  0
   29.8310   28.3070   35.3910 C   0  0  0  0  0  3  0  0  0  0  0  0
   29.2640   27.6490   34.6900 H   0  0  0  0  0  0  0  0  0  0  0  0
   30.9940   28.9790   34.7170 C   0  0  1  0  0  3  0  0  0  0  0  0
   31.1040   30.7800   35.0740 S   0  0  0  0  0  0  0  0  0  0  0  0
   33.0890   31.4590   36.8930 C   0  0  0  0  0  2  0  0  0  0  0  0
   33.5570   32.4450   36.6250 H   0  0  0  0  0  0  0  0  0  0  0  0
   38.4630   27.8910   30.8120 S   0  0  0  0  0  0  0  0  0  0  0  0
   37.1090   24.4860   32.4960 C   0  0  0  0  0  0  0  0  0  0  0  0
   38.0080   24.3270   33.5660 C   0  0  0  0  0  0  0  0  0  0  0  0
   38.9740   25.2780   33.7020 C   0  0  0  0  0  0  0  0  0  0  0  0
   39.0200   26.3140   32.8120 N   0  0  0  0  0  0  0  0  0  0  0  0
   38.1690   26.4270   31.8330 C   0  0  0  0  0  0  0  0  0  0  0  0
   37.1630   25.5060   31.6280 N   0  0  0  0  0  0  0  0  0  0  0  0
   36.3140   23.7740   32.3180 H   0  0  0  0  0  0  0  0  0  0  0  0
   39.6780   25.1790   34.5180 H   0  0  0  0  0  0  0  0  0  0  0  0
   37.8570   23.2560   34.3790 O   0  0  0  0  0  0  0  0  0  0  0  0
   38.2300   23.3480   35.7080 C   0  0  0  0  0  0  0  0  0  0  0  0
   37.6120   24.0620   36.7090 C   0  0  0  0  0  0  0  0  0  0  0  0
   38.1070   24.0440   37.9550 C   0  0  0  0  0  0  0  0  0  0  0  0
   39.2260   23.3100   38.2090 C   0  0  0  0  0  0  0  0  0  0  0  0
   39.8490   22.5860   37.1840 C   0  0  0  0  0  0  0  0  0  0  0  0
   39.3320   22.6150   35.9200 N   0  0  0  0  0  0  0  0  0  0  0  0
   36.7260   24.6060   36.3720 H   0  0  0  0  0  0  0  0  0  0  0  0
   37.6190   24.6010   38.7200 H   0  0  0  0  0  0  0  0  0  0  0  0
   39.6810   23.2500   39.1930 H   0  0  0  0  0  0  0  0  0  0  0  0
   41.1050   21.7630   37.4700 C   0  0  0  0  0  0  0  0  0  0  0  0
   41.1020   21.4080   38.5000 H   0  0  0  0  0  0  0  0  0  0  0  0
   41.1250   21.0010   36.6870 H   0  0  0  0  0  0  0  0  0  0  0  0
   41.9460   22.4600   37.2560 H   0  0  0  0  0  0  0  0  0  0  0  0
  1  3  1  0  0  0  0
  1 27  1  0  0  0  0
  1  6  1  0  0  0  0
  2  1  1  0  0  0  0
  5  4  1  0  0  0  0
  5 10  1  0  0  0  0
  6  5  2  0  0  0  0
  7  6  1  0  0  0  0
  7  8  2  0  0  0  0
  8  9  1  0  0  0  0
  9 10  2  0  0  0  0
  9 13  1  0  0  0  0
 10 14  1  0  0  0  0
 11  7  1  0  0  0  0
 12  8  1  0  0  0  0
 14 15  1  0  0  0  0
 16 15  1  6  0  0  0
 16 17  1  0  0  0  0
 16 25  1  0  0  0  0
 17 18  1  0  0  0  0
 18 19  1  0  0  0  0
 19 20  2  0  0  0  0
 21 19  1  0  0  0  0
 22 21  1  0  0  0  0
 23 24  1  1  0  0  0
 23 21  1  0  0  0  0
 23 18  1  0  0  0  0
 24 16  1  0  0  0  0
 26 25  1  0  0  0  0
 27 32  1  0  0  0  0
 28 29  1  0  0  0  0
 29 30  2  0  0  0  0
 29 36  1  0  0  0  0
 30 35  1  0  0  0  0
 31 30  1  0  0  0  0
 32 31  2  0  0  0  0
 33 32  1  0  0  0  0
 33 28  2  0  0  0  0
 34 28  1  0  0  0  0
 36 37  1  0  0  0  0
 37 42  2  0  0  0  0
 37 38  1  0  0  0  0
 38 39  2  0  0  0  0
 39 40  1  0  0  0  0
 39 44  1  0  0  0  0
 40 45  1  0  0  0  0
 41 46  1  0  0  0  0
 41 40  2  0  0  0  0
 42 41  1  0  0  0  0
 43 38  1  0  0  0  0
 46 47  1  0  0  0  0
 48 46  1  0  0  0  0
 49 46  1  0  0  0  0
M  END
>  <minimizedAffinity>
-6.26859474

$$$$

 OpenBabel03262522303D

 49 53  0  0  1  0  0  0  0  0999 V2000
   38.0030   27.9640   29.7510 C   0  0  0  0  0  0  0  0  0  0  0  0
   38.3770   27.9380   28.6920 H   0  0  0  0  0  0  0  0  0  0  0  0
   37.2170   27.1990   29.8710 H   0  0  0  0  0  0  0  0  0  0  0  0
   35.7360   28.2100   31.2970 F   0  0  0  0  0  0  0  0  0  0  0  0
   36.3540   29.3400   30.8260 C   0  0  0  0  0  0  0  0  0  0  0  0
   37.5050   29.3370   30.0350 C   0  0  0  0  0  0  0  0  0  0  0  0
   38.0700   30.4980   29.5990 C   0  0  0  0  0  0  0  0  0  0  0  0
   37.5050   31.7330   29.9350 C   0  0  0  0  0  0  0  0  0  0  0  0
   36.3710   31.7660   30.7120 C   0  0  0  0  0  0  0  0  0  0  0  0
   35.8090   30.5690   31.1480 C   0  0  0  0  0  0  0  0  0  0  0  0
   38.9510   30.4250   28.9960 H   0  0  0  0  0  0  0  0  0  0  0  0
   37.9560   32.6570   29.5860 H   0  0  0  0  0  0  0  0  0  0  0  0
   35.9460   32.7300   30.9630 H   0  0  0  0  0  0  0  0  0  0  0  0
   34.6600   30.6620   31.9340 O   0  0  0  0  0  0  0  0  0  0  0  0
   34.6290   31.3930   33.1430 C   0  0  0  0  0  2  0  0  0  0  0  0
   34.5490   30.3390   34.2560 C   0  0  2  0  0  0  0  0  0  0  0  0
   33.4240   29.4110   33.9340 C   0  0  0  0  0  2  0  0  0  0  0  0
   32.6120   29.2160   35.0910 N   0  0  0  0  0  0  0  0  0  0  0  0
   31.8630   28.6600   36.1680 C   0  0  0  0  0  0  0  0  0  0  0  0
   31.4340   27.4980   36.4060 O   0  0  0  0  0  0  0  0  0  0  0  0
   31.7540   29.9250   36.9250 C   0  0  0  0  0  3  0  0  0  0  0  0
   30.7180   30.2430   37.1900 H   0  0  0  0  0  0  0  0  0  0  0  0
   32.2140   30.5240   35.6260 C   0  0  1  0  0  3  0  0  0  0  0  0
   33.9030   31.2470   35.7140 S   0  0  0  0  0  0  0  0  0  0  0  0
   35.8660   29.6980   34.5090 C   0  0  0  0  0  2  0  0  0  0  0  0
   36.6400   30.3460   34.0130 H   0  0  0  0  0  0  0  0  0  0  0  0
   39.4150   27.6730   30.8520 S   0  0  0  0  0  0  0  0  0  0  0  0
   37.5540   25.5980   33.7660 C   0  0  0  0  0  0  0  0  0  0  0  0
   38.1820   24.3440   33.6610 C   0  0  0  0  0  0  0  0  0  0  0  0
   39.1390   24.2170   32.7000 C   0  0  0  0  0  0  0  0  0  0  0  0
   39.4330   25.2880   31.9050 N   0  0  0  0  0  0  0  0  0  0  0  0
   38.8290   26.4340   32.0330 C   0  0  0  0  0  0  0  0  0  0  0  0
   37.8490   26.6430   32.9810 N   0  0  0  0  0  0  0  0  0  0  0  0
   36.7820   25.7820   34.5030 H   0  0  0  0  0  0  0  0  0  0  0  0
   39.6380   23.2610   32.5990 H   0  0  0  0  0  0  0  0  0  0  0  0
   37.8010   23.3610   34.5080 O   0  0  0  0  0  0  0  0  0  0  0  0
   38.2140   23.3980   35.8280 C   0  0  0  0  0  0  0  0  0  0  0  0
   37.6150   24.0510   36.8810 C   0  0  0  0  0  0  0  0  0  0  0  0
   38.1490   23.9840   38.1090 C   0  0  0  0  0  0  0  0  0  0  0  0
   39.2890   23.2620   38.2930 C   0  0  0  0  0  0  0  0  0  0  0  0
   39.8930   22.5990   37.2160 C   0  0  0  0  0  0  0  0  0  0  0  0
   39.3350   22.6780   35.9710 N   0  0  0  0  0  0  0  0  0  0  0  0
   36.7080   24.5920   36.5980 H   0  0  0  0  0  0  0  0  0  0  0  0
   37.6750   24.4940   38.9140 H   0  0  0  0  0  0  0  0  0  0  0  0
   39.7760   23.1640   39.2590 H   0  0  0  0  0  0  0  0  0  0  0  0
   41.1720   21.7890   37.4240 C   0  0  0  0  0  0  0  0  0  0  0  0
   41.2080   21.3860   38.4350 H   0  0  0  0  0  0  0  0  0  0  0  0
   41.1820   21.0650   36.6050 H   0  0  0  0  0  0  0  0  0  0  0  0
   41.9930   22.5120   37.2170 H   0  0  0  0  0  0  0  0  0  0  0  0
  1  3  1  0  0  0  0
  1  6  1  0  0  0  0
  1 27  1  0  0  0  0
  2  1  1  0  0  0  0
  5 10  1  0  0  0  0
  5  4  1  0  0  0  0
  6  5  2  0  0  0  0
  7  8  2  0  0  0  0
  7  6  1  0  0  0  0
  8  9  1  0  0  0  0
  9 13  1  0  0  0  0
  9 10  2  0  0  0  0
 10 14  1  0  0  0  0
 11  7  1  0  0  0  0
 12  8  1  0  0  0  0
 14 15  1  0  0  0  0
 16 15  1  6  0  0  0
 16 25  1  0  0  0  0
 16 24  1  0  0  0  0
 17 16  1  0  0  0  0
 17 18  1  0  0  0  0
 18 23  1  0  0  0  0
 18 19  1  0  0  0  0
 19 20  2  0  0  0  0
 19 21  1  0  0  0  0
 21 22  1  0  0  0  0
 23 24  1  1  0  0  0
 23 21  1  0  0  0  0
 26 25  1  0  0  0  0
 27 32  1  0  0  0  0
 28 34  1  0  0  0  0
 29 28  1  0  0  0  0
 29 36  1  0  0  0  0
 30 29  2  0  0  0  0
 31 32  2  0  0  0  0
 31 30  1  0  0  0  0
 32 33  1  0  0  0  0
 33 28  2  0  0  0  0
 35 30  1  0  0  0  0
 36 37  1  0  0  0  0
 37 42  2  0  0  0  0
 37 38  1  0  0  0  0
 38 39  2  0  0  0  0
 39 40  1  0  0  0  0
 39 44  1  0  0  0  0
 40 45  1  0  0  0  0
 41 46  1  0  0  0  0
 41 40  2  0  0  0  0
 42 41  1  0  0  0  0
 43 38  1  0  0  0  0
 46 47  1  0  0  0  0
 48 46  1  0  0  0  0
 49 46  1  0  0  0  0
M  END
>  <minimizedAffinity>
-6.18896294

$$$$

 OpenBabel03262522303D

 49 53  0  0  1  0  0  0  0  0999 V2000
   39.7020   27.2330   30.7790 C   0  0  0  0  0  0  0  0  0  0  0  0
   39.8230   27.0500   31.8810 H   0  0  0  0  0  0  0  0  0  0  0  0
   40.6460   27.6410   30.3800 H   0  0  0  0  0  0  0  0  0  0  0  0
   37.8900   27.4790   32.8390 F   0  0  0  0  0  0  0  0  0  0  0  0
   37.7060   28.2080   31.6910 C   0  0  0  0  0  0  0  0  0  0  0  0
   38.5570   28.1630   30.5860 C   0  0  0  0  0  0  0  0  0  0  0  0
   38.3160   28.9140   29.4740 C   0  0  0  0  0  0  0  0  0  0  0  0
   37.2000   29.7550   29.4130 C   0  0  0  0  0  0  0  0  0  0  0  0
   36.3440   29.8190   30.4870 C   0  0  0  0  0  0  0  0  0  0  0  0
   36.6080   29.0440   31.6140 C   0  0  0  0  0  0  0  0  0  0  0  0
   39.0080   28.8330   28.6620 H   0  0  0  0  0  0  0  0  0  0  0  0
   37.0100   30.3520   28.5250 H   0  0  0  0  0  0  0  0  0  0  0  0
   35.4850   30.4750   30.4240 H   0  0  0  0  0  0  0  0  0  0  0  0
   35.7070   29.1480   32.6750 O   0  0  0  0  0  0  0  0  0  0  0  0
   34.3110   29.0260   32.4950 C   0  0  0  0  0  2  0  0  0  0  0  0
   33.6970   30.2290   33.2240 C   0  0  2  0  0  0  0  0  0  0  0  0
   34.4750   30.4550   34.4790 C   0  0  0  0  0  2  0  0  0  0  0  0
   33.5820   30.6280   35.5770 N   0  0  0  0  0  0  0  0  0  0  0  0
   32.8920   31.1130   36.7250 C   0  0  0  0  0  0  0  0  0  0  0  0
   33.1630   32.0000   37.5800 O   0  0  0  0  0  0  0  0  0  0  0  0
   31.7300   30.2120   36.5760 C   0  0  0  0  0  3  0  0  0  0  0  0
   31.4870   29.5830   37.4660 H   0  0  0  0  0  0  0  0  0  0  0  0
   32.6410   29.5010   35.6150 C   0  0  1  0  0  3  0  0  0  0  0  0
   32.0900   29.6170   33.8650 S   0  0  0  0  0  0  0  0  0  0  0  0
   33.5540   31.4070   32.3290 C   0  0  0  0  0  2  0  0  0  0  0  0
   33.6740   31.0280   31.2770 H   0  0  0  0  0  0  0  0  0  0  0  0
   39.2480   25.6620   29.9950 S   0  0  0  0  0  0  0  0  0  0  0  0
   37.2660   23.1350   32.4340 C   0  0  0  0  0  0  0  0  0  0  0  0
   38.0690   23.1740   33.5870 C   0  0  0  0  0  0  0  0  0  0  0  0
   39.1690   23.9750   33.5420 C   0  0  0  0  0  0  0  0  0  0  0  0
   39.4320   24.6840   32.4050 N   0  0  0  0  0  0  0  0  0  0  0  0
   38.6640   24.6220   31.3550 C   0  0  0  0  0  0  0  0  0  0  0  0
   37.5320   23.8350   31.3210 N   0  0  0  0  0  0  0  0  0  0  0  0
   36.3740   22.5230   32.3870 H   0  0  0  0  0  0  0  0  0  0  0  0
   39.8030   24.0230   34.4190 H   0  0  0  0  0  0  0  0  0  0  0  0
   37.7010   22.4230   34.6510 O   0  0  0  0  0  0  0  0  0  0  0  0
   38.1950   22.7290   35.9070 C   0  0  0  0  0  0  0  0  0  0  0  0
   37.6080   23.5110   36.8760 C   0  0  0  0  0  0  0  0  0  0  0  0
   38.2270   23.7080   38.0490 C   0  0  0  0  0  0  0  0  0  0  0  0
   39.4370   23.1230   38.2630 C   0  0  0  0  0  0  0  0  0  0  0  0
   40.0280   22.3280   37.2710 C   0  0  0  0  0  0  0  0  0  0  0  0
   39.3850   22.1380   36.0810 N   0  0  0  0  0  0  0  0  0  0  0  0
   36.6390   23.9190   36.5780 H   0  0  0  0  0  0  0  0  0  0  0  0
   37.7610   24.3150   38.7900 H   0  0  0  0  0  0  0  0  0  0  0  0
   39.9940   23.2390   39.1880 H   0  0  0  0  0  0  0  0  0  0  0  0
   41.3880   21.6730   37.5120 C   0  0  0  0  0  0  0  0  0  0  0  0
   41.5280   21.4620   38.5710 H   0  0  0  0  0  0  0  0  0  0  0  0
   41.4100   20.8170   36.8320 H   0  0  0  0  0  0  0  0  0  0  0  0
   42.1220   22.4100   37.1170 H   0  0  0  0  0  0  0  0  0  0  0  0
  1  2  1  0  0  0  0
  3  1  1  0  0  0  0
  5  4  1  0  0  0  0
  6  1  1  0  0  0  0
  6  5  2  0  0  0  0
  7  6  1  0  0  0  0
  8  7  2  0  0  0  0
  8  9  1  0  0  0  0
  9 10  2  0  0  0  0
 10  5  1  0  0  0  0
 10 14  1  0  0  0  0
 11  7  1  0  0  0  0
 12  8  1  0  0  0  0
 13  9  1  0  0  0  0
 15 14  1  0  0  0  0
 15 16  1  0  0  0  0
 16 25  1  6  0  0  0
 16 24  1  0  0  0  0
 16 17  1  0  0  0  0
 17 18  1  0  0  0  0
 18 23  1  0  0  0  0
 18 19  1  0  0  0  0
 19 20  2  0  0  0  0
 21 19  1  0  0  0  0
 21 22  1  0  0  0  0
 23 24  1  6  0  0  0
 23 21  1  0  0  0  0
 26 25  1  0  0  0  0
 27  1  1  0  0  0  0
 27 32  1  0  0  0  0
 28 29  1  0  0  0  0
 29 36  1  0  0  0  0
 30 29  2  0  0  0  0
 30 35  1  0  0  0  0
 31 30  1  0  0  0  0
 32 31  2  0  0  0  0
 33 32  1  0  0  0  0
 33 28  2  0  0  0  0
 34 28  1  0  0  0  0
 36 37  1  0  0  0  0
 37 42  2  0  0  0  0
 37 38  1  0  0  0  0
 38 39  2  0  0  0  0
 39 40  1  0  0  0  0
 39 44  1  0  0  0  0
 40 45  1  0  0  0  0
 41 46  1  0  0  0  0
 41 40  2  0  0  0  0
 42 41  1  0  0  0  0
 43 38  1  0  0  0  0
 46 47  1  0  0  0  0
 48 46  1  0  0  0  0
 49 46  1  0  0  0  0
M  END
>  <minimizedAffinity>
-6.09067917

$$$$

 OpenBabel03262522303D

 49 53  0  0  1  0  0  0  0  0999 V2000
   35.6820   24.5970   31.4750 C   0  0  0  0  0  0  0  0  0  0  0  0
   35.3650   25.0810   32.4390 H   0  0  0  0  0  0  0  0  0  0  0  0
   34.8090   24.5340   30.8040 H   0  0  0  0  0  0  0  0  0  0  0  0
   37.5700   24.4490   33.4750 F   0  0  0  0  0  0  0  0  0  0  0  0
   37.1950   23.3040   32.8190 C   0  0  0  0  0  0  0  0  0  0  0  0
   36.2500   23.2590   31.7920 C   0  0  0  0  0  0  0  0  0  0  0  0
   35.9230   22.0860   31.1800 C   0  0  0  0  0  0  0  0  0  0  0  0
   36.5300   20.8880   31.5700 C   0  0  0  0  0  0  0  0  0  0  0  0
   37.4640   20.9030   32.5790 C   0  0  0  0  0  0  0  0  0  0  0  0
   37.7860   22.1110   33.1910 C   0  0  0  0  0  0  0  0  0  0  0  0
   35.1920   22.1220   30.4000 H   0  0  0  0  0  0  0  0  0  0  0  0
   36.2680   19.9540   31.0800 H   0  0  0  0  0  0  0  0  0  0  0  0
   37.9250   19.9670   32.8680 H   0  0  0  0  0  0  0  0  0  0  0  0
   38.7390   22.0670   34.2090 O   0  0  0  0  0  0  0  0  0  0  0  0
   38.3850   22.0690   35.5770 C   0  0  0  0  0  2  0  0  0  0  0  0
   39.3270   23.0820   36.2430 C   0  0  2  0  0  0  0  0  0  0  0  0
   40.1300   23.7400   35.1700 C   0  0  0  0  0  2  0  0  0  0  0  0
   41.5080   23.7550   35.5380 N   0  0  0  0  0  0  0  0  0  0  0  0
   42.8490   24.1350   35.8330 C   0  0  0  0  0  0  0  0  0  0  0  0
   43.5200   25.1760   35.5900 O   0  0  0  0  0  0  0  0  0  0  0  0
   43.1970   22.8790   36.5300 C   0  0  0  0  0  3  0  0  0  0  0  0
   44.0950   22.3420   36.1400 H   0  0  0  0  0  0  0  0  0  0  0  0
   41.9270   22.3920   35.8910 C   0  0  1  0  0  3  0  0  0  0  0  0
   40.5840   22.0570   37.1010 S   0  0  0  0  0  0  0  0  0  0  0  0
   38.5980   23.9960   37.1610 C   0  0  0  0  0  2  0  0  0  0  0  0
   37.5900   23.5320   37.3440 H   0  0  0  0  0  0  0  0  0  0  0  0
   37.0230   25.5890   30.7640 S   0  0  0  0  0  0  0  0  0  0  0  0
   36.7600   29.6020   31.0640 C   0  0  0  0  0  0  0  0  0  0  0  0
   35.6210   29.7470   31.8760 C   0  0  0  0  0  0  0  0  0  0  0  0
   35.0060   28.6010   32.2800 C   0  0  0  0  0  0  0  0  0  0  0  0
   35.5140   27.3960   31.8850 N   0  0  0  0  0  0  0  0  0  0  0  0
   36.5720   27.3020   31.1320 C   0  0  0  0  0  0  0  0  0  0  0  0
   37.2510   28.4150   30.6810 N   0  0  0  0  0  0  0  0  0  0  0  0
   37.3060   30.4620   30.6990 H   0  0  0  0  0  0  0  0  0  0  0  0
   34.1270   28.6860   32.9070 H   0  0  0  0  0  0  0  0  0  0  0  0
   35.2160   30.9970   32.1980 O   0  0  0  0  0  0  0  0  0  0  0  0
   35.6420   31.5700   33.3830 C   0  0  0  0  0  0  0  0  0  0  0  0
   35.4220   31.1180   34.6640 C   0  0  0  0  0  0  0  0  0  0  0  0
   35.9090   31.7980   35.7120 C   0  0  0  0  0  0  0  0  0  0  0  0
   36.6220   32.9360   35.4860 C   0  0  0  0  0  0  0  0  0  0  0  0
   36.8420   33.3890   34.1780 C   0  0  0  0  0  0  0  0  0  0  0  0
   36.3390   32.6850   33.1220 N   0  0  0  0  0  0  0  0  0  0  0  0
   34.8370   30.1960   34.7050 H   0  0  0  0  0  0  0  0  0  0  0  0
   35.7310   31.4380   36.6980 H   0  0  0  0  0  0  0  0  0  0  0  0
   37.0460   33.5360   36.2860 H   0  0  0  0  0  0  0  0  0  0  0  0
   37.6420   34.6670   33.9260 C   0  0  0  0  0  0  0  0  0  0  0  0
   38.3790   34.8180   34.7140 H   0  0  0  0  0  0  0  0  0  0  0  0
   38.0260   34.5600   32.9070 H   0  0  0  0  0  0  0  0  0  0  0  0
   36.8730   35.4710   33.8910 H   0  0  0  0  0  0  0  0  0  0  0  0
  1  6  1  0  0  0  0
  1  2  1  0  0  0  0
  3  1  1  0  0  0  0
  5 10  1  0  0  0  0
  5  4  1  0  0  0  0
  6  5  2  0  0  0  0
  7  8  2  0  0  0  0
  7  6  1  0  0  0  0
  8  9  1  0  0  0  0
  9 13  1  0  0  0  0
  9 10  2  0  0  0  0
 10 14  1  0  0  0  0
 11  7  1  0  0  0  0
 12  8  1  0  0  0  0
 14 15  1  0  0  0  0
 16 15  1  6  0  0  0
 16 24  1  0  0  0  0
 16 25  1  0  0  0  0
 17 18  1  0  0  0  0
 17 16  1  0  0  0  0
 18 19  1  0  0  0  0
 18 23  1  0  0  0  0
 19 21  1  0  0  0  0
 20 19  2  0  0  0  0
 22 21  1  0  0  0  0
 23 21  1  1  0  0  0
 23 24  1  0  0  0  0
 25 26  1  0  0  0  0
 27 32  1  0  0  0  0
 27  1  1  0  0  0  0
 28 29  1  0  0  0  0
 29 36  1  0  0  0  0
 29 30  2  0  0  0  0
 30 35  1  0  0  0  0
 31 30  1  0  0  0  0
 32 31  2  0  0  0  0
 33 28  2  0  0  0  0
 33 32  1  0  0  0  0
 34 28  1  0  0  0  0
 36 37  1  0  0  0  0
 37 38  1  0  0  0  0
 38 43  1  0  0  0  0
 38 39  2  0  0  0  0
 39 44  1  0  0  0  0
 40 39  1  0  0  0  0
 40 45  1  0  0  0  0
 41 40  2  0  0  0  0
 42 37  2  0  0  0  0
 42 41  1  0  0  0  0
 46 41  1  0  0  0  0
 46 47  1  0  0  0  0
 48 46  1  0  0  0  0
 49 46  1  0  0  0  0
M  END
>  <minimizedAffinity>
-6.06334543

$$$$

 OpenBabel03262522303D

 49 53  0  0  1  0  0  0  0  0999 V2000
   37.1140   29.1690   31.3140 C   0  0  0  0  0  0  0  0  0  0  0  0
   37.6550   29.3130   30.3400 H   0  0  0  0  0  0  0  0  0  0  0  0
   37.7410   29.5630   32.1310 H   0  0  0  0  0  0  0  0  0  0  0  0
   38.8320   27.6800   32.8700 F   0  0  0  0  0  0  0  0  0  0  0  0
   37.7560   27.0660   32.2810 C   0  0  0  0  0  0  0  0  0  0  0  0
   36.8220   27.7190   31.4730 C   0  0  0  0  0  0  0  0  0  0  0  0
   35.7740   27.0490   30.9170 C   0  0  0  0  0  0  0  0  0  0  0  0
   35.6070   25.6780   31.1430 C   0  0  0  0  0  0  0  0  0  0  0  0
   36.5110   25.0100   31.9340 C   0  0  0  0  0  0  0  0  0  0  0  0
   37.5750   25.7120   32.4930 C   0  0  0  0  0  0  0  0  0  0  0  0
   35.0960   27.6080   30.3070 H   0  0  0  0  0  0  0  0  0  0  0  0
   34.7710   25.1450   30.6970 H   0  0  0  0  0  0  0  0  0  0  0  0
   36.3670   23.9490   32.0990 H   0  0  0  0  0  0  0  0  0  0  0  0
   38.4620   24.9840   33.2880 O   0  0  0  0  0  0  0  0  0  0  0  0
   38.8080   23.6450   33.0010 C   0  0  0  0  0  2  0  0  0  0  0  0
   38.4840   22.8560   34.2770 C   0  0  2  0  0  0  0  0  0  0  0  0
   38.2260   23.8360   35.3740 C   0  0  0  0  0  2  0  0  0  0  0  0
   38.9490   23.4550   36.5430 N   0  0  0  0  0  0  0  0  0  0  0  0
   39.3320   23.1050   37.8690 C   0  0  0  0  0  0  0  0  0  0  0  0
   38.7590   23.2180   38.9880 O   0  0  0  0  0  0  0  0  0  0  0  0
   40.6510   22.5570   37.4900 C   0  0  0  0  0  3  0  0  0  0  0  0
   41.5300   22.9980   38.0190 H   0  0  0  0  0  0  0  0  0  0  0  0
   40.3610   23.2610   36.1940 C   0  0  1  0  0  3  0  0  0  0  0  0
   40.0820   22.1120   34.7860 S   0  0  0  0  0  0  0  0  0  0  0  0
   37.4190   21.8440   34.0480 C   0  0  0  0  0  2  0  0  0  0  0  0
   37.3220   21.7260   32.9340 H   0  0  0  0  0  0  0  0  0  0  0  0
   35.5180   30.0220   31.2010 S   0  0  0  0  0  0  0  0  0  0  0  0
   35.3410   31.7850   34.8240 C   0  0  0  0  0  0  0  0  0  0  0  0
   34.3460   31.0200   35.4580 C   0  0  0  0  0  0  0  0  0  0  0  0
   33.7920   30.0100   34.7300 C   0  0  0  0  0  0  0  0  0  0  0  0
   34.2210   29.7960   33.4510 N   0  0  0  0  0  0  0  0  0  0  0  0
   35.1460   30.5260   32.8980 C   0  0  0  0  0  0  0  0  0  0  0  0
   35.7560   31.5670   33.5670 N   0  0  0  0  0  0  0  0  0  0  0  0
   35.8300   32.6060   35.3310 H   0  0  0  0  0  0  0  0  0  0  0  0
   33.0240   29.4060   35.1970 H   0  0  0  0  0  0  0  0  0  0  0  0
   34.0080   31.3320   36.7300 O   0  0  0  0  0  0  0  0  0  0  0  0
   33.2690   32.4750   36.9800 C   0  0  0  0  0  0  0  0  0  0  0  0
   31.9610   32.7240   36.6370 C   0  0  0  0  0  0  0  0  0  0  0  0
   31.3900   33.8940   36.9580 C   0  0  0  0  0  0  0  0  0  0  0  0
   32.1260   34.8250   37.6250 C   0  0  0  0  0  0  0  0  0  0  0  0
   33.4580   34.5640   37.9710 C   0  0  0  0  0  0  0  0  0  0  0  0
   34.0240   33.3670   37.6370 N   0  0  0  0  0  0  0  0  0  0  0  0
   31.4850   31.8960   36.1060 H   0  0  0  0  0  0  0  0  0  0  0  0
   30.3760   34.0740   36.6870 H   0  0  0  0  0  0  0  0  0  0  0  0
   31.7280   35.7930   37.9170 H   0  0  0  0  0  0  0  0  0  0  0  0
   34.2830   35.6100   38.7200 C   0  0  0  0  0  0  0  0  0  0  0  0
   33.6400   36.2250   39.3490 H   0  0  0  0  0  0  0  0  0  0  0  0
   35.0660   35.0390   39.2270 H   0  0  0  0  0  0  0  0  0  0  0  0
   34.7860   36.1920   37.9150 H   0  0  0  0  0  0  0  0  0  0  0  0
  1  6  1  0  0  0  0
  1  3  1  0  0  0  0
  2  1  1  0  0  0  0
  5 10  1  0  0  0  0
  5  4  1  0  0  0  0
  6  5  2  0  0  0  0
  7  8  2  0  0  0  0
  7  6  1  0  0  0  0
  8  9  1  0  0  0  0
  9 13  1  0  0  0  0
  9 10  2  0  0  0  0
 10 14  1  0  0  0  0
 11  7  1  0  0  0  0
 12  8  1  0  0  0  0
 15 14  1  0  0  0  0
 16 15  1  6  0  0  0
 16 24  1  0  0  0  0
 16 17  1  0  0  0  0
 17 18  1  0  0  0  0
 18 19  1  0  0  0  0
 19 20  2  0  0  0  0
 21 19  1  0  0  0  0
 21 22  1  0  0  0  0
 23 24  1  6  0  0  0
 23 18  1  0  0  0  0
 23 21  1  0  0  0  0
 25 16  1  0  0  0  0
 26 25  1  0  0  0  0
 27  1  1  0  0  0  0
 27 32  1  0  0  0  0
 28 34  1  0  0  0  0
 28 29  1  0  0  0  0
 29 36  1  0  0  0  0
 30 35  1  0  0  0  0
 30 29  2  0  0  0  0
 31 30  1  0  0  0  0
 32 31  2  0  0  0  0
 32 33  1  0  0  0  0
 33 28  2  0  0  0  0
 36 37  1  0  0  0  0
 37 42  1  0  0  0  0
 38 39  1  0  0  0  0
 38 37  2  0  0  0  0
 39 40  2  0  0  0  0
 40 45  1  0  0  0  0
 40 41  1  0  0  0  0
 41 46  1  0  0  0  0
 42 41  2  0  0  0  0
 43 38  1  0  0  0  0
 44 39  1  0  0  0  0
 46 48  1  0  0  0  0
 46 47  1  0  0  0  0
 49 46  1  0  0  0  0
M  END
>  <minimizedAffinity>
-5.94970179

$$$$

 OpenBabel03262522303D

 49 53  0  0  1  0  0  0  0  0999 V2000
   37.5620   28.7230   31.0030 C   0  0  0  0  0  0  0  0  0  0  0  0
   38.0400   28.7280   29.9860 H   0  0  0  0  0  0  0  0  0  0  0  0
   38.2850   29.1120   31.7390 H   0  0  0  0  0  0  0  0  0  0  0  0
   39.2050   27.2040   32.6090 F   0  0  0  0  0  0  0  0  0  0  0  0
   38.0420   26.6570   32.1300 C   0  0  0  0  0  0  0  0  0  0  0  0
   37.1350   27.3310   31.3100 C   0  0  0  0  0  0  0  0  0  0  0  0
   35.9950   26.7290   30.8670 C   0  0  0  0  0  0  0  0  0  0  0  0
   35.7040   25.4080   31.2260 C   0  0  0  0  0  0  0  0  0  0  0  0
   36.5790   24.7210   32.0330 C   0  0  0  0  0  0  0  0  0  0  0  0
   37.7380   25.3540   32.4750 C   0  0  0  0  0  0  0  0  0  0  0  0
   35.3440   27.3010   30.2410 H   0  0  0  0  0  0  0  0  0  0  0  0
   34.7950   24.9300   30.8720 H   0  0  0  0  0  0  0  0  0  0  0  0
   36.3390   23.7000   32.3020 H   0  0  0  0  0  0  0  0  0  0  0  0
   38.5910   24.6090   33.2920 O   0  0  0  0  0  0  0  0  0  0  0  0
   38.1060   23.7470   34.3010 C   0  0  0  0  0  2  0  0  0  0  0  0
   39.0060   23.9990   35.5200 C   0  0  2  0  0  0  0  0  0  0  0  0
   40.3330   24.4720   35.0250 C   0  0  0  0  0  2  0  0  0  0  0  0
   41.3770   23.7550   35.6810 N   0  0  0  0  0  0  0  0  0  0  0  0
   42.5430   23.3850   36.4100 C   0  0  0  0  0  0  0  0  0  0  0  0
   43.5690   24.0240   36.7730 O   0  0  0  0  0  0  0  0  0  0  0  0
   42.1420   21.9750   36.6030 C   0  0  0  0  0  3  0  0  0  0  0  0
   42.8760   21.2110   36.2530 H   0  0  0  0  0  0  0  0  0  0  0  0
   41.1320   22.3130   35.5430 C   0  0  1  0  0  3  0  0  0  0  0  0
   39.4010   22.3260   36.1620 S   0  0  0  0  0  0  0  0  0  0  0  0
   38.3430   24.8660   36.5290 C   0  0  0  0  0  2  0  0  0  0  0  0
   37.2500   24.8860   36.2670 H   0  0  0  0  0  0  0  0  0  0  0  0
   36.0580   29.7330   30.9210 S   0  0  0  0  0  0  0  0  0  0  0  0
   35.7750   32.0660   34.1980 C   0  0  0  0  0  0  0  0  0  0  0  0
   35.5490   31.1080   35.2030 C   0  0  0  0  0  0  0  0  0  0  0  0
   35.4980   29.8050   34.8090 C   0  0  0  0  0  0  0  0  0  0  0  0
   35.6650   29.5020   33.4880 N   0  0  0  0  0  0  0  0  0  0  0  0
   35.8720   30.4170   32.5860 C   0  0  0  0  0  0  0  0  0  0  0  0
   35.9370   31.7570   32.9040 N   0  0  0  0  0  0  0  0  0  0  0  0
   35.8290   33.1220   34.4280 H   0  0  0  0  0  0  0  0  0  0  0  0
   35.3260   29.0490   35.5640 H   0  0  0  0  0  0  0  0  0  0  0  0
   35.3990   31.5370   36.4780 O   0  0  0  0  0  0  0  0  0  0  0  0
   34.3510   32.3830   36.7950 C   0  0  0  0  0  0  0  0  0  0  0  0
   34.4230   33.6530   37.3200 C   0  0  0  0  0  0  0  0  0  0  0  0
   33.3010   34.3430   37.5710 C   0  0  0  0  0  0  0  0  0  0  0  0
   32.0980   33.7670   37.2990 C   0  0  0  0  0  0  0  0  0  0  0  0
   32.0340   32.4730   36.7650 C   0  0  0  0  0  0  0  0  0  0  0  0
   33.1860   31.7840   36.5150 N   0  0  0  0  0  0  0  0  0  0  0  0
   35.4460   33.9970   37.4900 H   0  0  0  0  0  0  0  0  0  0  0  0
   33.3710   35.3250   37.9770 H   0  0  0  0  0  0  0  0  0  0  0  0
   31.1500   34.2670   37.4780 H   0  0  0  0  0  0  0  0  0  0  0  0
   30.6820   31.8270   36.4610 C   0  0  0  0  0  0  0  0  0  0  0  0
   29.9440   32.5870   36.2060 H   0  0  0  0  0  0  0  0  0  0  0  0
   30.8970   31.0740   35.6970 H   0  0  0  0  0  0  0  0  0  0  0  0
   30.4270   31.2700   37.3910 H   0  0  0  0  0  0  0  0  0  0  0  0
  1  6  1  0  0  0  0
  1  3  1  0  0  0  0
  2  1  1  0  0  0  0
  5 10  1  0  0  0  0
  5  4  1  0  0  0  0
  6  5  2  0  0  0  0
  7  8  2  0  0  0  0
  7  6  1  0  0  0  0
  8  9  1  0  0  0  0
  9 13  1  0  0  0  0
  9 10  2  0  0  0  0
 10 14  1  0  0  0  0
 11  7  1  0  0  0  0
 12  8  1  0  0  0  0
 14 15  1  0  0  0  0
 16 15  1  6  0  0  0
 16 24  1  0  0  0  0
 16 25  1  0  0  0  0
 17 16  1  0  0  0  0
 17 18  1  0  0  0  0
 18 19  1  0  0  0  0
 19 21  1  0  0  0  0
 19 20  2  0  0  0  0
 22 21  1  0  0  0  0
 23 18  1  0  0  0  0
 23 24  1  1  0  0  0
 23 21  1  0  0  0  0
 26 25  1  0  0  0  0
 27  1  1  0  0  0  0
 27 32  1  0  0  0  0
 28 34  1  0  0  0  0
 28 29  1  0  0  0  0
 29 36  1  0  0  0  0
 30 29  2  0  0  0  0
 30 35  1  0  0  0  0
 31 30  1  0  0  0  0
 32 33  1  0  0  0  0
 32 31  2  0  0  0  0
 33 28  2  0  0  0  0
 36 37  1  0  0  0  0
 37 38  1  0  0  0  0
 38 43  1  0  0  0  0
 38 39  2  0  0  0  0
 39 44  1  0  0  0  0
 40 45  1  0  0  0  0
 40 39  1  0  0  0  0
 41 40  2  0  0  0  0
 42 41  1  0  0  0  0
 42 37  2  0  0  0  0
 46 41  1  0  0  0  0
 46 49  1  0  0  0  0
 47 46  1  0  0  0  0
 48 46  1  0  0  0  0
M  END
>  <minimizedAffinity>
-5.91902876

$$$$

 OpenBabel03262522303D

 49 53  0  0  1  0  0  0  0  0999 V2000
   39.1900   28.1520   30.2000 C   0  0  0  0  0  0  0  0  0  0  0  0
   40.1560   28.2410   29.6310 H   0  0  0  0  0  0  0  0  0  0  0  0
   39.2610   28.7560   31.1200 H   0  0  0  0  0  0  0  0  0  0  0  0
   38.2350   27.4840   32.6950 F   0  0  0  0  0  0  0  0  0  0  0  0
   38.4670   26.4920   31.7770 C   0  0  0  0  0  0  0  0  0  0  0  0
   38.9500   26.7120   30.4850 C   0  0  0  0  0  0  0  0  0  0  0  0
   39.1600   25.6800   29.6200 C   0  0  0  0  0  0  0  0  0  0  0  0
   38.8940   24.3620   30.0080 C   0  0  0  0  0  0  0  0  0  0  0  0
   38.4180   24.1160   31.2750 C   0  0  0  0  0  0  0  0  0  0  0  0
   38.2110   25.1840   32.1440 C   0  0  0  0  0  0  0  0  0  0  0  0
   39.5320   25.9180   28.6460 H   0  0  0  0  0  0  0  0  0  0  0  0
   39.0630   23.5410   29.3170 H   0  0  0  0  0  0  0  0  0  0  0  0
   38.2180   23.0910   31.5590 H   0  0  0  0  0  0  0  0  0  0  0  0
   37.7260   24.8760   33.4160 O   0  0  0  0  0  0  0  0  0  0  0  0
   38.0880   23.6920   34.0960 C   0  0  0  0  0  2  0  0  0  0  0  0
   39.0660   24.1330   35.1940 C   0  0  2  0  0  0  0  0  0  0  0  0
   40.4550   23.9260   34.6860 C   0  0  0  0  0  2  0  0  0  0  0  0
   41.2370   23.2610   35.6760 N   0  0  0  0  0  0  0  0  0  0  0  0
   42.2500   22.8850   36.6050 C   0  0  0  0  0  0  0  0  0  0  0  0
   43.4390   23.2670   36.7810 O   0  0  0  0  0  0  0  0  0  0  0  0
   41.4240   21.8790   37.3070 C   0  0  0  0  0  3  0  0  0  0  0  0
   41.8600   20.8540   37.3690 H   0  0  0  0  0  0  0  0  0  0  0  0
   40.5370   22.0430   36.1050 C   0  0  1  0  0  3  0  0  0  0  0  0
   38.9260   22.8420   36.4900 S   0  0  0  0  0  0  0  0  0  0  0  0
   38.7550   25.4970   35.6970 C   0  0  0  0  0  2  0  0  0  0  0  0
   37.7180   25.7430   35.3410 H   0  0  0  0  0  0  0  0  0  0  0  0
   37.8480   28.7100   29.1160 S   0  0  0  0  0  0  0  0  0  0  0  0
   35.8310   31.6310   31.0280 C   0  0  0  0  0  0  0  0  0  0  0  0
   35.0600   30.8880   31.9400 C   0  0  0  0  0  0  0  0  0  0  0  0
   35.2090   29.5340   31.9080 C   0  0  0  0  0  0  0  0  0  0  0  0
   36.0800   28.9800   31.0130 N   0  0  0  0  0  0  0  0  0  0  0  0
   36.7770   29.7020   30.1850 C   0  0  0  0  0  0  0  0  0  0  0  0
   36.6830   31.0780   30.1540 N   0  0  0  0  0  0  0  0  0  0  0  0
   35.7700   32.7110   30.9880 H   0  0  0  0  0  0  0  0  0  0  0  0
   34.6270   28.9390   32.6010 H   0  0  0  0  0  0  0  0  0  0  0  0
   34.2320   31.5560   32.7760 O   0  0  0  0  0  0  0  0  0  0  0  0
   34.5870   31.7190   34.1030 C   0  0  0  0  0  0  0  0  0  0  0  0
   35.7950   32.1410   34.6070 C   0  0  0  0  0  0  0  0  0  0  0  0
   35.9750   32.2450   35.9310 C   0  0  0  0  0  0  0  0  0  0  0  0
   34.9450   31.9280   36.7630 C   0  0  0  0  0  0  0  0  0  0  0  0
   33.7160   31.5000   36.2420 C   0  0  0  0  0  0  0  0  0  0  0  0
   33.5500   31.3990   34.8900 N   0  0  0  0  0  0  0  0  0  0  0  0
   36.5350   32.3630   33.8330 H   0  0  0  0  0  0  0  0  0  0  0  0
   36.9160   32.5730   36.3070 H   0  0  0  0  0  0  0  0  0  0  0  0
   35.0190   31.9900   37.8450 H   0  0  0  0  0  0  0  0  0  0  0  0
   32.5610   31.1440   37.1770 C   0  0  0  0  0  0  0  0  0  0  0  0
   32.6190   31.7270   38.0960 H   0  0  0  0  0  0  0  0  0  0  0  0
   31.6600   31.2710   36.5710 H   0  0  0  0  0  0  0  0  0  0  0  0
   32.6740   30.0500   37.3510 H   0  0  0  0  0  0  0  0  0  0  0  0
  1  6  1  0  0  0  0
  1  3  1  0  0  0  0
  2  1  1  0  0  0  0
  5 10  1  0  0  0  0
  5  4  1  0  0  0  0
  6  5  2  0  0  0  0
  7  8  2  0  0  0  0
  7  6  1  0  0  0  0
  8  9  1  0  0  0  0
  9 13  1  0  0  0  0
  9 10  2  0  0  0  0
 10 14  1  0  0  0  0
 11  7  1  0  0  0  0
 12  8  1  0  0  0  0
 14 15  1  0  0  0  0
 16 15  1  6  0  0  0
 16 25  1  0  0  0  0
 16 24  1  0  0  0  0
 17 16  1  0  0  0  0
 17 18  1  0  0  0  0
 18 23  1  0  0  0  0
 18 19  1  0  0  0  0
 19 20  2  0  0  0  0
 19 21  1  0  0  0  0
 21 22  1  0  0  0  0
 23 24  1  1  0  0  0
 23 21  1  0  0  0  0
 26 25  1  0  0  0  0
 27 32  1  0  0  0  0
 27  1  1  0  0  0  0
 28 29  1  0  0  0  0
 29 36  1  0  0  0  0
 30 29  2  0  0  0  0
 30 35  1  0  0  0  0
 31 30  1  0  0  0  0
 32 31  2  0  0  0  0
 33 32  1  0  0  0  0
 33 28  2  0  0  0  0
 34 28  1  0  0  0  0
 36 37  1  0  0  0  0
 37 38  2  0  0  0  0
 37 42  1  0  0  0  0
 38 39  1  0  0  0  0
 39 44  1  0  0  0  0
 39 40  2  0  0  0  0
 40 45  1  0  0  0  0
 41 40  1  0  0  0  0
 41 46  1  0  0  0  0
 42 41  2  0  0  0  0
 43 38  1  0  0  0  0
 46 49  1  0  0  0  0
 46 47  1  0  0  0  0
 48 46  1  0  0  0  0
M  END
>  <minimizedAffinity>
-5.79199886

$$$$

 OpenBabel03262522303D

 49 53  0  0  1  0  0  0  0  0999 V2000
   37.1620   28.6640   29.7050 C   0  0  0  0  0  0  0  0  0  0  0  0
   36.3630   28.0050   30.1410 H   0  0  0  0  0  0  0  0  0  0  0  0
   37.0930   28.6280   28.6050 H   0  0  0  0  0  0  0  0  0  0  0  0
   37.1660   26.8220   31.7540 F   0  0  0  0  0  0  0  0  0  0  0  0
   38.3610   27.2580   31.2410 C   0  0  0  0  0  0  0  0  0  0  0  0
   38.4800   28.1870   30.2050 C   0  0  0  0  0  0  0  0  0  0  0  0
   39.7000   28.5800   29.7400 C   0  0  0  0  0  0  0  0  0  0  0  0
   40.8730   28.0570   30.2950 C   0  0  0  0  0  0  0  0  0  0  0  0
   40.7850   27.1400   31.3170 C   0  0  0  0  0  0  0  0  0  0  0  0
   39.5300   26.7530   31.7770 C   0  0  0  0  0  0  0  0  0  0  0  0
   39.7210   29.2950   28.9460 H   0  0  0  0  0  0  0  0  0  0  0  0
   41.8440   28.3710   29.9240 H   0  0  0  0  0  0  0  0  0  0  0  0
   41.7030   26.7450   31.7350 H   0  0  0  0  0  0  0  0  0  0  0  0
   39.5000   25.8190   32.8150 O   0  0  0  0  0  0  0  0  0  0  0  0
   39.6380   24.4320   32.5870 C   0  0  0  0  0  2  0  0  0  0  0  0
   38.7530   23.7540   33.6420 C   0  0  2  0  0  0  0  0  0  0  0  0
   38.4440   24.7600   34.7010 C   0  0  0  0  0  2  0  0  0  0  0  0
   38.6590   24.1860   35.9900 N   0  0  0  0  0  0  0  0  0  0  0  0
   38.5240   23.7350   37.3340 C   0  0  0  0  0  0  0  0  0  0  0  0
   37.6930   23.9930   38.2480 O   0  0  0  0  0  0  0  0  0  0  0  0
   39.7050   22.8470   37.2990 C   0  0  0  0  0  3  0  0  0  0  0  0
   40.4680   23.0250   38.0940 H   0  0  0  0  0  0  0  0  0  0  0  0
   40.0100   23.6120   36.0420 C   0  0  1  0  0  3  0  0  0  0  0  0
   39.8740   22.5950   34.5170 S   0  0  0  0  0  0  0  0  0  0  0  0
   37.5800   23.0760   33.0300 C   0  0  0  0  0  2  0  0  0  0  0  0
   37.7920   22.9980   31.9280 H   0  0  0  0  0  0  0  0  0  0  0  0
   36.9230   30.3400   30.3540 S   0  0  0  0  0  0  0  0  0  0  0  0
   33.2440   31.0100   31.8640 C   0  0  0  0  0  0  0  0  0  0  0  0
   33.0550   29.8640   32.6560 C   0  0  0  0  0  0  0  0  0  0  0  0
   34.0710   28.9570   32.6750 C   0  0  0  0  0  0  0  0  0  0  0  0
   35.1960   29.2010   31.9410 N   0  0  0  0  0  0  0  0  0  0  0  0
   35.3350   30.2750   31.2200 C   0  0  0  0  0  0  0  0  0  0  0  0
   34.3530   31.2410   31.1470 N   0  0  0  0  0  0  0  0  0  0  0  0
   32.4850   31.7790   31.7940 H   0  0  0  0  0  0  0  0  0  0  0  0
   33.9490   28.0650   33.2780 H   0  0  0  0  0  0  0  0  0  0  0  0
   31.8920   29.7380   33.3370 O   0  0  0  0  0  0  0  0  0  0  0  0
   31.9090   29.7120   34.7200 C   0  0  0  0  0  0  0  0  0  0  0  0
   32.3250   30.7060   35.5760 C   0  0  0  0  0  0  0  0  0  0  0  0
   32.2750   30.5170   36.9030 C   0  0  0  0  0  0  0  0  0  0  0  0
   31.8090   29.3320   37.3830 C   0  0  0  0  0  0  0  0  0  0  0  0
   31.3870   28.3250   36.5050 C   0  0  0  0  0  0  0  0  0  0  0  0
   31.4440   28.5330   35.1560 N   0  0  0  0  0  0  0  0  0  0  0  0
   32.6750   31.6050   35.0630 H   0  0  0  0  0  0  0  0  0  0  0  0
   32.6000   31.2950   37.5540 H   0  0  0  0  0  0  0  0  0  0  0  0
   31.7400   29.1110   38.4450 H   0  0  0  0  0  0  0  0  0  0  0  0
   30.8640   26.9950   37.0450 C   0  0  0  0  0  0  0  0  0  0  0  0
   30.3950   27.1360   38.0190 H   0  0  0  0  0  0  0  0  0  0  0  0
   30.2300   26.5980   36.2480 H   0  0  0  0  0  0  0  0  0  0  0  0
   31.7640   26.3420   37.0890 H   0  0  0  0  0  0  0  0  0  0  0  0
  1  2  1  0  0  0  0
  1  6  1  0  0  0  0
  1 27  1  0  0  0  0
  3  1  1  0  0  0  0
  5  4  1  0  0  0  0
  5 10  1  0  0  0  0
  6  5  2  0  0  0  0
  7  6  1  0  0  0  0
  7  8  2  0  0  0  0
  8  9  1  0  0  0  0
  9 13  1  0  0  0  0
  9 10  2  0  0  0  0
 10 14  1  0  0  0  0
 11  7  1  0  0  0  0
 12  8  1  0  0  0  0
 15 14  1  0  0  0  0
 16 15  1  6  0  0  0
 16 24  1  0  0  0  0
 16 17  1  0  0  0  0
 17 18  1  0  0  0  0
 18 23  1  0  0  0  0
 18 19  1  0  0  0  0
 19 20  2  0  0  0  0
 21 19  1  0  0  0  0
 21 22  1  0  0  0  0
 23 24  1  6  0  0  0
 23 21  1  0  0  0  0
 25 16  1  0  0  0  0
 26 25  1  0  0  0  0
 27 32  1  0  0  0  0
 28 29  1  0  0  0  0
 29 30  2  0  0  0  0
 29 36  1  0  0  0  0
 30 35  1  0  0  0  0
 31 30  1  0  0  0  0
 32 31  2  0  0  0  0
 33 32  1  0  0  0  0
 33 28  2  0  0  0  0
 34 28  1  0  0  0  0
 36 37  1  0  0  0  0
 37 42  2  0  0  0  0
 37 38  1  0  0  0  0
 38 39  2  0  0  0  0
 39 40  1  0  0  0  0
 39 44  1  0  0  0  0
 40 45  1  0  0  0  0
 41 46  1  0  0  0  0
 41 40  2  0  0  0  0
 42 41  1  0  0  0  0
 43 38  1  0  0  0  0
 46 49  1  0  0  0  0
 46 47  1  0  0  0  0
 48 46  1  0  0  0  0
M  END
>  <minimizedAffinity>
-5.76571846

$$$$

 OpenBabel03262522303D

 49 53  0  0  1  0  0  0  0  0999 V2000
   37.4250   27.5380   33.4020 C   0  0  0  0  0  0  0  0  0  0  0  0
   36.7110   26.8860   33.9740 H   0  0  0  0  0  0  0  0  0  0  0  0
   38.1390   27.9910   34.1090 H   0  0  0  0  0  0  0  0  0  0  0  0
   35.6100   29.0320   34.8350 F   0  0  0  0  0  0  0  0  0  0  0  0
   35.7480   29.2540   33.4890 C   0  0  0  0  0  0  0  0  0  0  0  0
   36.6340   28.5580   32.6640 C   0  0  0  0  0  0  0  0  0  0  0  0
   36.7220   28.8280   31.3310 C   0  0  0  0  0  0  0  0  0  0  0  0
   35.9200   29.8180   30.7510 C   0  0  0  0  0  0  0  0  0  0  0  0
   35.0390   30.5180   31.5400 C   0  0  0  0  0  0  0  0  0  0  0  0
   34.9630   30.2280   32.9000 C   0  0  0  0  0  0  0  0  0  0  0  0
   37.4210   28.2580   30.7550 H   0  0  0  0  0  0  0  0  0  0  0  0
   35.9920   30.0300   29.6880 H   0  0  0  0  0  0  0  0  0  0  0  0
   34.4250   31.2800   31.0760 H   0  0  0  0  0  0  0  0  0  0  0  0
   34.0520   30.9700   33.6530 O   0  0  0  0  0  0  0  0  0  0  0  0
   32.6880   30.6140   33.7530 C   0  0  0  0  0  2  0  0  0  0  0  0
   32.4220   30.4330   35.2540 C   0  0  2  0  0  0  0  0  0  0  0  0
   32.3780   28.9680   35.5410 C   0  0  0  0  0  2  0  0  0  0  0  0
   31.2350   28.6660   36.3400 N   0  0  0  0  0  0  0  0  0  0  0  0
   30.3520   28.2000   37.3550 C   0  0  0  0  0  0  0  0  0  0  0  0
   30.4830   27.3670   38.2930 O   0  0  0  0  0  0  0  0  0  0  0  0
   29.2080   29.0360   36.9340 C   0  0  0  0  0  3  0  0  0  0  0  0
   28.2580   28.4880   36.7260 H   0  0  0  0  0  0  0  0  0  0  0  0
   30.0370   29.2160   35.6930 C   0  0  1  0  0  3  0  0  0  0  0  0
   30.6700   30.9290   35.4810 S   0  0  0  0  0  0  0  0  0  0  0  0
   33.3640   31.2280   36.0850 C   0  0  0  0  0  2  0  0  0  0  0  0
   33.8480   31.9740   35.3970 H   0  0  0  0  0  0  0  0  0  0  0  0
   38.2530   26.5080   32.1590 S   0  0  0  0  0  0  0  0  0  0  0  0
   35.3800   23.8510   31.1840 C   0  0  0  0  0  0  0  0  0  0  0  0
   35.7870   22.7200   31.9140 C   0  0  0  0  0  0  0  0  0  0  0  0
   36.9190   22.8460   32.6600 C   0  0  0  0  0  0  0  0  0  0  0  0
   37.5870   24.0370   32.6610 N   0  0  0  0  0  0  0  0  0  0  0  0
   37.1790   25.0630   31.9720 C   0  0  0  0  0  0  0  0  0  0  0  0
   36.0430   25.0160   31.1910 N   0  0  0  0  0  0  0  0  0  0  0  0
   34.4920   23.8330   30.5650 H   0  0  0  0  0  0  0  0  0  0  0  0
   37.2530   21.9890   33.2320 H   0  0  0  0  0  0  0  0  0  0  0  0
   35.0380   21.5960   31.8280 O   0  0  0  0  0  0  0  0  0  0  0  0
   35.6560   20.3760   31.6190 C   0  0  0  0  0  0  0  0  0  0  0  0
   35.6930   19.2940   32.4670 C   0  0  0  0  0  0  0  0  0  0  0  0
   36.3420   18.1770   32.1080 C   0  0  0  0  0  0  0  0  0  0  0  0
   36.9600   18.1350   30.8950 C   0  0  0  0  0  0  0  0  0  0  0  0
   36.9170   19.2420   30.0370 C   0  0  0  0  0  0  0  0  0  0  0  0
   36.2520   20.3720   30.4180 N   0  0  0  0  0  0  0  0  0  0  0  0
   35.1590   19.4590   33.4060 H   0  0  0  0  0  0  0  0  0  0  0  0
   36.3630   17.3470   32.7740 H   0  0  0  0  0  0  0  0  0  0  0  0
   37.5030   17.2640   30.5390 H   0  0  0  0  0  0  0  0  0  0  0  0
   37.6110   19.1930   28.6760 C   0  0  0  0  0  0  0  0  0  0  0  0
   37.6290   18.1730   28.2920 H   0  0  0  0  0  0  0  0  0  0  0  0
   37.0890   19.9380   28.0680 H   0  0  0  0  0  0  0  0  0  0  0  0
   38.6290   19.6000   28.8710 H   0  0  0  0  0  0  0  0  0  0  0  0
  1  2  1  0  0  0  0
  1  3  1  0  0  0  0
  5  4  1  0  0  0  0
  6  1  1  0  0  0  0
  6  5  2  0  0  0  0
  7  6  1  0  0  0  0
  8  7  2  0  0  0  0
  8  9  1  0  0  0  0
  9 10  2  0  0  0  0
 10  5  1  0  0  0  0
 10 14  1  0  0  0  0
 11  7  1  0  0  0  0
 12  8  1  0  0  0  0
 13  9  1  0  0  0  0
 14 15  1  0  0  0  0
 16 15  1  6  0  0  0
 16 24  1  0  0  0  0
 16 17  1  0  0  0  0
 16 25  1  0  0  0  0
 17 18  1  0  0  0  0
 18 19  1  0  0  0  0
 19 20  2  0  0  0  0
 21 19  1  0  0  0  0
 22 21  1  0  0  0  0
 23 24  1  1  0  0  0
 23 18  1  0  0  0  0
 23 21  1  0  0  0  0
 26 25  1  0  0  0  0
 27  1  1  0  0  0  0
 28 33  2  0  0  0  0
 28 29  1  0  0  0  0
 29 30  2  0  0  0  0
 30 31  1  0  0  0  0
 30 35  1  0  0  0  0
 32 27  1  0  0  0  0
 32 31  2  0  0  0  0
 33 32  1  0  0  0  0
 34 28  1  0  0  0  0
 36 29  1  0  0  0  0
 37 36  1  0  0  0  0
 37 38  1  0  0  0  0
 38 43  1  0  0  0  0
 39 38  2  0  0  0  0
 39 44  1  0  0  0  0
 40 39  1  0  0  0  0
 41 42  1  0  0  0  0
 41 40  2  0  0  0  0
 42 37  2  0  0  0  0
 45 40  1  0  0  0  0
 46 49  1  0  0  0  0
 46 41  1  0  0  0  0
 47 46  1  0  0  0  0
 48 46  1  0  0  0  0
M  END
>  <minimizedAffinity>
-5.76120281

$$$$
