
 OpenBabel03262522153D

 48 53  0  0  1  0  0  0  0  0999 V2000
   39.5550   33.3100   43.5880 C   0  0  0  0  0  0  0  0  0  0  0  0
   38.5870   33.6640   43.9370 H   0  0  0  0  0  0  0  0  0  0  0  0
   40.1590   34.1440   43.1480 H   0  0  0  0  0  0  0  0  0  0  0  0
   38.8620   29.9630   42.6970 C   0  0  1  0  0  0  0  0  0  0  0  0
   38.2400   31.3240   42.8840 C   0  0  0  0  0  0  0  0  0  0  0  0
   39.3880   32.2290   42.5410 C   0  0  2  0  0  0  0  0  0  0  0  0
   40.5030   31.4550   42.3820 O   0  0  0  0  0  0  0  0  0  0  0  0
   40.2970   30.2500   43.0480 C   0  0  0  0  0  0  0  0  0  0  0  0
   38.8020   29.6700   41.6400 H   0  0  0  0  0  0  0  0  0  0  0  0
   37.4010   31.4760   42.1790 H   0  0  0  0  0  0  0  0  0  0  0  0
   37.9500   31.4370   43.9460 H   0  0  0  0  0  0  0  0  0  0  0  0
   39.1730   32.7430   41.5700 H   0  0  0  0  0  0  0  0  0  0  0  0
   40.4020   30.3300   44.1390 H   0  0  0  0  0  0  0  0  0  0  0  0
   41.0220   29.5370   42.6180 H   0  0  0  0  0  0  0  0  0  0  0  0
   38.2940   29.0130   43.5510 O   0  0  0  0  0  0  0  0  0  0  0  0
   37.0750   28.5780   43.1150 C   0  0  0  0  0  2  0  0  0  0  0  0
   37.2740   27.2300   42.4100 C   0  0  1  0  0  0  0  0  0  0  0  0
   37.1640   27.3100   40.9580 C   0  0  0  0  0  2  0  0  0  0  0  0
   38.1980   26.6680   40.2850 N   0  0  1  0  0  0  0  0  0  0  0  0
   39.0070   26.2970   39.2010 C   0  0  1  0  0  0  0  0  0  0  0  0
   38.9560   26.0530   37.9710 O   0  0  0  0  0  1  0  0  0  0  0  0
   40.1560   26.2910   40.1780 C   0  0  0  0  0  3  0  0  0  0  0  0
   40.9390   25.5460   39.9300 H   0  0  0  0  0  0  0  0  0  0  0  0
   39.0560   25.8240   41.0760 C   0  0  1  0  0  0  0  0  0  0  0  0
   38.9510   26.6080   42.7040 S   0  0  0  0  0  0  0  0  0  0  0  0
   36.2570   26.2590   42.9980 C   0  0  0  0  0  2  0  0  0  0  0  0
   36.4100   25.2510   42.5770 H   0  0  0  0  0  0  0  0  0  0  0  0
   40.6000   32.6040   44.9040 S   0  0  0  0  0  0  0  0  0  0  0  0
   37.7180   31.5950   47.4360 C   0  0  0  0  0  0  0  0  0  0  0  0
   37.9430   32.4110   48.5510 C   0  0  0  0  0  0  0  0  0  0  0  0
   38.9890   33.3060   48.5750 C   0  0  0  0  0  0  0  0  0  0  0  0
   39.7850   33.3460   47.4530 C   0  0  0  0  0  0  0  0  0  0  0  0
   39.5450   32.5440   46.3820 C   0  0  0  0  0  0  0  0  0  0  0  0
   38.5180   31.6580   46.3460 N   0  0  0  0  0  0  0  0  0  0  0  0
   37.3080   32.3710   49.4320 H   0  0  0  0  0  0  0  0  0  0  0  0
   39.2000   33.9600   49.4230 H   0  0  0  0  0  0  0  0  0  0  0  0
   40.6270   34.0310   47.4080 H   0  0  0  0  0  0  0  0  0  0  0  0
   36.6030   30.6850   47.4870 C   0  0  0  0  0  0  0  0  0  0  0  0
   36.0480   30.2980   46.4620 O   0  0  0  0  0  0  0  0  0  0  0  0
   36.9690   29.5700   49.6560 C   0  0  0  0  0  0  0  0  0  0  0  0
   36.0690   30.1700   48.7640 C   0  0  0  0  0  0  0  0  0  0  0  0
   34.7210   30.2610   49.1030 C   0  0  0  0  0  0  0  0  0  0  0  0
   34.3100   29.7600   50.3050 N   0  0  0  0  0  0  0  0  0  0  0  0
   35.1980   29.1840   51.1490 C   0  0  0  0  0  0  0  0  0  0  0  0
   36.4820   29.0980   50.8270 N   0  0  0  0  0  0  0  0  0  0  0  0
   38.0320   29.4740   49.4370 H   0  0  0  0  0  0  0  0  0  0  0  0
   34.0460   30.7190   48.4160 H   0  0  0  0  0  0  0  0  0  0  0  0
   34.9710   28.7640   52.1120 H   0  0  0  0  0  0  0  0  0  0  0  0
  1  2  1  0  0  0  0
  1 28  1  0  0  0  0
  3  1  1  0  0  0  0
  4  9  1  6  0  0  0
  4  5  1  0  0  0  0
  4  8  1  0  0  0  0
  4 15  1  0  0  0  0
  5 11  1  0  0  0  0
  6 12  1  6  0  0  0
  6  5  1  0  0  0  0
  6  1  1  0  0  0  0
  7  6  1  0  0  0  0
  7  8  1  0  0  0  0
  8 13  1  0  0  0  0
 10  5  1  0  0  0  0
 14  8  1  0  0  0  0
 16 15  1  0  0  0  0
 17 25  1  0  0  0  0
 17 26  1  1  0  0  0
 17 16  1  0  0  0  0
 18 17  1  0  0  0  0
 19 18  1  1  0  0  0
 19 24  1  0  0  0  0
 20 21  1  6  0  0  0
 20 22  1  0  0  0  0
 20 19  1  0  0  0  0
 20 24  1  0  0  0  0
 23 22  1  0  0  0  0
 24 22  1  6  0  0  0
 24 25  1  0  0  0  0
 27 26  1  0  0  0  0
 28 33  1  0  0  0  0
 29 38  1  0  0  0  0
 29 30  1  0  0  0  0
 30 31  2  0  0  0  0
 30 35  1  0  0  0  0
 31 36  1  0  0  0  0
 32 31  1  0  0  0  0
 33 32  2  0  0  0  0
 34 33  1  0  0  0  0
 34 29  2  0  0  0  0
 37 32  1  0  0  0  0
 38 41  1  0  0  0  0
 39 38  2  0  0  0  0
 40 45  1  0  0  0  0
 41 42  1  0  0  0  0
 41 40  2  0  0  0  0
 42 43  2  0  0  0  0
 43 44  1  0  0  0  0
 44 48  1  0  0  0  0
 45 44  2  0  0  0  0
 46 40  1  0  0  0  0
 47 42  1  0  0  0  0
M  END
>  <minimizedAffinity>
-5.44863081

>  <minimizedRMSD>
2.19412899

$$$$
