REMARK  Name = 
REMARK  9 active torsions:
REMARK  status: ('A' for Active; 'I' for Inactive)
REMARK    1  A    between atoms: C_1  and  C_7
REMARK    2  A    between atoms: C_5  and  S_15
REMARK    3  A    between atoms: C_7  and  C_10
REMARK    4  A    between atoms: S_15  and  C_16
REMARK    5  A    between atoms: C_16  and  C_19
REMARK    6  A    between atoms: C_17  and  O_22
REMARK    7  A    between atoms: O_22  and  C_37
REMARK    8  A    between atoms: C_37  and  C_38
REMARK    9  A    between atoms: C_38  and  C_39
REMARK                            x       y       z     vdW  Elec       q    Type
REMARK                         _______ _______ _______ _____ _____    ______ ____
ROOT
ATOM      1  C   UNL     1      39.549  32.933  43.789  0.00  0.00    +0.000 C 
ATOM      2  H   UNL     1      38.492  32.897  44.046  0.00  0.00    +0.000 HD
ATOM      3  H   UNL     1      39.794  33.852  43.198  0.00  0.00    +0.000 HD
ENDROOT
BRANCH   1   6
ATOM      4  C   UNL     1      38.778  29.799  42.353  0.00  0.00    +0.000 C 
ATOM      5  C   UNL     1      38.826  31.281  42.080  0.00  0.00    +0.000 C 
ATOM      6  C   UNL     1      39.947  31.717  42.979  0.00  0.00    +0.000 C 
ATOM      7  O   UNL     1      40.307  30.649  43.752  0.00  0.00    +0.000 OA
ATOM      8  C   UNL     1      39.242  29.753  43.784  0.00  0.00    +0.000 C 
ATOM      9  H   UNL     1      39.512  29.282  41.720  0.00  0.00    +0.000 HD
ATOM     10  H   UNL     1      39.077  31.481  41.021  0.00  0.00    +0.000 HD
ATOM     11  H   UNL     1      37.866  31.730  42.398  0.00  0.00    +0.000 HD
ATOM     12  H   UNL     1      40.826  32.013  42.353  0.00  0.00    +0.000 HD
ATOM     13  H   UNL     1      38.425  30.069  44.448  0.00  0.00    +0.000 HD
ATOM     14  H   UNL     1      39.669  28.783  44.093  0.00  0.00    +0.000 HD
BRANCH   4  15
ATOM     15  O   UNL     1      37.486  29.287  42.205  0.00  0.00    +0.000 OA
BRANCH  15  16
ATOM     16  C   UNL     1      37.428  28.259  41.307  0.00  0.00    +0.000 C 
BRANCH  16  17
ATOM     17  C   UNL     1      38.727  28.265  40.492  0.00  0.00    +0.000 C 
ATOM     18  C   UNL     1      38.989  29.534  39.822  0.00  0.00    +0.000 C 
ATOM     19  N   UNL     1      40.288  29.999  40.000  0.00  0.00    +0.000 N 
ATOM     20  C   UNL     1      41.358  30.905  39.963  0.00  0.00    +0.000 C 
ATOM     21  O   UNL     1      41.834  31.840  39.273  0.00  0.00    +0.000 OA
ATOM     22  C   UNL     1      41.821  30.271  41.249  0.00  0.00    +0.000 C 
ATOM     23  H   UNL     1      42.923  30.275  41.369  0.00  0.00    +0.000 HD
ATOM     24  C   UNL     1      41.231  29.075  40.574  0.00  0.00    +0.000 C 
ATOM     25  S   UNL     1      40.155  28.023  41.582  0.00  0.00    +0.000 S 
BRANCH  17  26
ATOM     26  C   UNL     1      38.641  27.112  39.498  0.00  0.00    +0.000 C 
ATOM     27  H   UNL     1      39.586  27.027  38.937  0.00  0.00    +0.000 HD
ENDBRANCH  17  26
ENDBRANCH  16  17
ENDBRANCH  15  16
ENDBRANCH   4  15
ENDBRANCH   1   6
BRANCH   1  28
ATOM     28  S   UNL     1      40.658  32.983  45.235  0.00  0.00    +0.000 S 
BRANCH  28  33
ATOM     29  C   UNL     1      37.771  31.748  47.659  0.00  0.00    +0.000 A 
ATOM     30  C   UNL     1      37.932  32.533  48.807  0.00  0.00    +0.000 A 
ATOM     31  C   UNL     1      38.933  33.475  48.888  0.00  0.00    +0.000 A 
ATOM     32  C   UNL     1      39.751  33.593  47.787  0.00  0.00    +0.000 A 
ATOM     33  C   UNL     1      39.574  32.820  46.684  0.00  0.00    +0.000 A 
ATOM     34  N   UNL     1      38.592  31.888  46.592  0.00  0.00    +0.000 NA
ATOM     35  H   UNL     1      37.280  32.432  49.671  0.00  0.00    +0.000 HD
ATOM     36  H   UNL     1      39.093  34.107  49.763  0.00  0.00    +0.000 HD
ATOM     37  H   UNL     1      40.560  34.318  47.787  0.00  0.00    +0.000 HD
BRANCH  29  38
ATOM     38  C   UNL     1      36.700  30.785  47.652  0.00  0.00    +0.000 C 
ATOM     39  O   UNL     1      36.208  30.387  46.599  0.00  0.00    +0.000 OA
BRANCH  38  41
ATOM     40  C   UNL     1      37.026  29.637  49.810  0.00  0.00    +0.000 A 
ATOM     41  C   UNL     1      36.139  30.227  48.898  0.00  0.00    +0.000 A 
ATOM     42  C   UNL     1      34.778  30.269  49.191  0.00  0.00    +0.000 A 
ATOM     43  N   UNL     1      34.341  29.730  50.367  0.00  0.00    +0.000 NA
ATOM     44  C   UNL     1      35.217  29.165  51.231  0.00  0.00    +0.000 A 
ATOM     45  N   UNL     1      36.513  29.125  50.953  0.00  0.00    +0.000 NA
ATOM     46  H   UNL     1      38.098  29.579  49.627  0.00  0.00    +0.000 HD
ATOM     47  H   UNL     1      34.113  30.720  48.490  0.00  0.00    +0.000 HD
ATOM     48  H   UNL     1      34.970  28.718  52.176  0.00  0.00    +0.000 HD
ENDBRANCH  38  41
ENDBRANCH  29  38
ENDBRANCH  28  33
ENDBRANCH   1  28
TORSDOF 9
