REMARK  Name = 
REMARK  9 active torsions:
REMARK  status: ('A' for Active; 'I' for Inactive)
REMARK    1  A    between atoms: C_1  and  C_7
REMARK    2  A    between atoms: C_2  and  C_9
REMARK    3  A    between atoms: C_9  and  O_10
REMARK    4  A    between atoms: O_10  and  P_12
REMARK    5  A    between atoms: P_12  and  O_13
REMARK    6  A    between atoms: P_12  and  O_14
REMARK    7  A    between atoms: O_14  and  C_23
REMARK    8  A    between atoms: C_23  and  C_24
REMARK    9  A    between atoms: C_24  and  C_25
REMARK                            x       y       z     vdW  Elec       q    Type
REMARK                         _______ _______ _______ _____ _____    ______ ____
ROOT
ATOM      1  O   UNL     1      29.855  26.573  48.500  0.00  0.00    +0.000 OA
ATOM      2  P   UNL     1      30.636  27.881  48.734  0.00  0.00    +0.000 P 
ENDROOT
BRANCH   2   3
ATOM      3  O   UNL     1      30.399  28.960  47.473  0.00  0.00    +0.000 OA
ATOM      4  H   UNL     1      30.011  28.559  46.670  0.00  0.00    +0.000 HD
ENDBRANCH   2   3
BRANCH   2   5
ATOM      5  O   UNL     1      32.267  27.361  48.712  0.00  0.00    +0.000 OA
BRANCH   5   6
ATOM      6  C   UNL     1      32.946  28.129  47.756  0.00  0.00    +0.000 C 
ATOM      7  H   UNL     1      33.364  27.430  46.984  0.00  0.00    +0.000 HD
ATOM      8  H   UNL     1      32.309  28.856  47.234  0.00  0.00    +0.000 HD
BRANCH   6  10
ATOM      9  C   UNL     1      34.818  28.376  49.358  0.00  0.00    +0.000 C 
ATOM     10  C   UNL     1      34.123  28.810  48.341  0.00  0.00    +0.000 C 
BRANCH   9  15
ATOM     11  C   UNL     1      37.249  30.155  51.452  0.00  0.00    +0.000 A 
ATOM     12  C   UNL     1      38.095  30.729  50.502  0.00  0.00    +0.000 A 
ATOM     13  C   UNL     1      37.822  30.500  49.158  0.00  0.00    +0.000 A 
ATOM     14  N   UNL     1      36.728  29.716  48.855  0.00  0.00    +0.000 NA
ATOM     15  C   UNL     1      35.951  29.190  49.793  0.00  0.00    +0.000 A 
ATOM     16  N   UNL     1      36.219  29.415  51.085  0.00  0.00    +0.000 NA
ATOM     17  H   UNL     1      37.495  30.357  52.506  0.00  0.00    +0.000 HD
ATOM     18  H   UNL     1      38.949  31.339  50.700  0.00  0.00    +0.000 HD
ATOM     19  H   UNL     1      38.433  30.911  48.356  0.00  0.00    +0.000 HD
ENDBRANCH   9  15
ENDBRANCH   6  10
ENDBRANCH   5   6
ENDBRANCH   2   5
BRANCH   2  20
ATOM     20  O   UNL     1      30.235  28.527  50.231  0.00  0.00    +0.000 OA
BRANCH  20  21
ATOM     21  C   UNL     1      30.190  29.917  50.245  0.00  0.00    +0.000 C 
BRANCH  21  22
ATOM     22  C   UNL     1      28.709  30.272  50.263  0.00  0.00    +0.000 C 
ATOM     23  C   UNL     1      28.027  29.608  49.154  0.00  0.00    +0.000 C 
ATOM     24  N   UNL     1      26.811  29.020  49.548  0.00  0.00    +0.000 N 
ATOM     25  C   UNL     1      25.467  28.636  49.552  0.00  0.00    +0.000 C 
ATOM     26  O   UNL     1      24.525  28.513  48.719  0.00  0.00    +0.000 OA
ATOM     27  C   UNL     1      25.519  28.393  51.017  0.00  0.00    +0.000 C 
ATOM     28  H   UNL     1      25.170  29.284  51.553  0.00  0.00    +0.000 HD
ATOM     29  C   UNL     1      26.987  28.324  50.768  0.00  0.00    +0.000 C 
ATOM     30  S   UNL     1      27.974  29.519  51.743  0.00  0.00    +0.000 S 
BRANCH  22  31
ATOM     31  C   UNL     1      28.581  31.775  50.279  0.00  0.00    +0.000 C 
ATOM     32  H   UNL     1      29.488  32.184  50.781  0.00  0.00    +0.000 HD
ENDBRANCH  22  31
ENDBRANCH  21  22
ENDBRANCH  20  21
ENDBRANCH   2  20
TORSDOF 9
