
     RDKit          3D

 28 30  0  0  0  0  0  0  0  0999 V2000
   37.7675   30.5228   49.3325 C   0  0  0  0  0  0  0  0  0  0  0  0
   38.2322   31.7209   49.8462 C   0  0  0  0  0  0  0  0  0  0  0  0
   38.6239   32.7017   48.9183 C   0  0  0  0  0  0  0  0  0  0  0  0
   38.5247   32.4195   47.5800 N   0  0  0  0  0  0  0  0  0  0  0  0
   38.0648   31.2354   47.1545 C   0  0  0  0  0  0  0  0  0  0  0  0
   37.6884   30.2925   48.0218 N   0  0  0  0  0  0  0  0  0  0  0  0
   37.2936   29.3390   50.5896 S   0  0  0  0  0  0  0  0  0  0  0  0
   35.4968   29.3428   50.7292 C   0  0  0  0  0  0  0  0  0  0  0  0
   34.6921   28.4095   49.3999 S   0  0  0  0  0  0  0  0  0  0  0  0
   38.3279   31.9878   50.8906 H   0  0  0  0  0  0  0  0  0  0  0  0
   38.9933   33.6526   49.2516 H   0  0  0  0  0  0  0  0  0  0  0  0
   38.0092   31.0704   46.0853 H   0  0  0  0  0  0  0  0  0  0  0  0
   35.1672   28.8763   51.6897 H   0  0  0  0  0  0  0  0  0  0  0  0
   35.1267   30.3888   50.7260 H   0  0  0  0  0  0  0  0  0  0  0  0
   32.3210   27.5357   50.4670 C   0  0  0  0  0  0  0  0  0  0  0  0
   32.9298   28.5104   49.6815 C   0  0  0  0  0  0  0  0  0  0  0  0
   32.1195   29.5158   49.1573 C   0  0  0  0  0  0  0  0  0  0  0  0
   32.5913   30.2603   48.5561 H   0  0  0  0  0  0  0  0  0  0  0  0
   30.7596   29.5372   49.4131 C   0  0  0  0  0  0  0  0  0  0  0  0
   29.8043   30.4139   49.0056 N   0  0  0  0  0  0  0  0  0  0  0  0
   29.8901   31.2668   48.4070 H   0  0  0  0  0  0  0  0  0  0  0  0
   28.6485   29.9983   49.5186 N   0  0  0  0  0  0  0  0  0  0  0  0
   28.8744   28.8825   50.2343 C   0  0  0  0  0  0  0  0  0  0  0  0
   28.0732   28.3463   50.7592 H   0  0  0  0  0  0  0  0  0  0  0  0
   30.2156   28.5446   50.1980 C   0  0  0  0  0  0  0  0  0  0  0  0
   30.9546   27.5280   50.7439 C   0  0  0  0  0  0  0  0  0  0  0  0
   32.8734   26.7082   50.9212 H   0  0  0  0  0  0  0  0  0  0  0  0
   30.4816   26.7810   51.3472 H   0  0  0  0  0  0  0  0  0  0  0  0
  1  2  2  0
  1  7  1  0
  3  2  1  0
  4  3  2  0
  5  4  1  0
  5  6  2  0
  6  1  1  0
  7  8  1  0
  9  8  1  0
  2 10  1  0
  3 11  1  0
  5 12  1  0
  8 13  1  0
  8 14  1  0
 15 16  2  0
 16 17  1  0
 17 18  1  0
 17 19  2  0
 19 20  1  0
 20 21  1  0
 20 22  1  0
 22 23  2  0
 23 24  1  0
 23 25  1  0
 25 26  2  0
 26 15  1  0
 25 19  1  0
 15 27  1  0
 26 28  1  0
  9 16  1  0
M  ISO  8  10  14  11  14  12  14  13   8  14   8  18  16  21   5  24  15
M  END
>  <DihAtoms>  (1) 
7,8,15,14

>  <DihDeg>  (1) 
-90.00027551485513

$$$$
