
 OpenBabel03272508353D

 34 37  0  0  0  0  0  0  0  0999 V2000
   37.8220   26.0030   33.9550 C   0  0  0  0  0  0  0  0  0  0  0  0
   37.2830   25.2310   33.3710 H   0  0  0  0  0  0  0  0  0  0  0  0
   38.8500   26.1370   33.5610 H   0  0  0  0  0  0  0  0  0  0  0  0
   35.9750   29.0830   34.3010 C   0  0  0  0  0  0  0  0  0  0  0  0
   35.9190   28.8870   32.9360 C   0  0  0  0  0  0  0  0  0  0  0  0
   36.6010   27.7140   32.6440 C   0  0  0  0  0  0  0  0  0  0  0  0
   37.0440   27.2430   33.8340 N   0  0  0  0  0  0  0  0  0  0  0  0
   36.6670   28.0640   34.8090 N   0  0  0  0  0  0  0  0  0  0  0  0
   35.4490   29.4920   32.1720 H   0  0  0  0  0  0  0  0  0  0  0  0
   36.7350   27.2910   31.6660 H   0  0  0  0  0  0  0  0  0  0  0  0
   35.3840   32.2320   36.2520 C   0  0  0  0  0  0  0  0  0  0  0  0
   36.0680   31.1570   35.7000 C   0  0  0  0  0  0  0  0  0  0  0  0
   35.3460   30.2370   34.9190 C   0  0  0  0  0  0  0  0  0  0  0  0
   34.0200   30.4730   34.7640 N   0  0  0  0  0  0  0  0  0  0  0  0
   33.3870   31.5310   35.3180 C   0  0  0  0  0  0  0  0  0  0  0  0
   34.0810   32.4050   36.0610 N   0  0  0  0  0  0  0  0  0  0  0  0
   35.9020   32.9630   36.8590 H   0  0  0  0  0  0  0  0  0  0  0  0
   37.1280   31.0080   35.8500 H   0  0  0  0  0  0  0  0  0  0  0  0
   32.3190   31.5210   35.0610 H   0  0  0  0  0  0  0  0  0  0  0  0
   37.8150   25.5440   35.4060 C   0  0  0  0  0  0  0  0  0  0  0  0
   37.7860   26.3650   36.1280 H   0  0  0  0  0  0  0  0  0  0  0  0
   36.9110   24.8930   35.4950 H   0  0  0  0  0  0  0  0  0  0  0  0
   40.2760   24.9390   34.9700 C   0  0  0  0  0  3  0  0  0  0  0  0
   39.0650   24.7650   35.6040 C   0  0  0  0  0  0  0  0  0  0  0  0
   39.0010   23.7340   36.5450 C   0  0  0  0  0  0  0  0  0  0  0  0
   38.0620   23.5430   37.0880 H   0  0  0  0  0  0  0  0  0  0  0  0
   40.0650   22.9130   36.8540 C   0  0  0  0  0  0  0  0  0  0  0  0
   40.1960   21.8950   37.7080 N   0  0  0  0  0  0  0  0  0  0  0  0
   39.4370   21.5210   38.3410 H   0  0  0  0  0  0  0  0  0  0  0  0
   41.4190   21.4190   37.6470 N   0  0  0  0  0  0  0  0  0  0  0  0
   42.1010   22.1480   36.7280 C   0  0  0  0  0  0  0  0  0  0  0  0
   43.1340   22.0170   36.4370 H   0  0  0  0  0  0  0  0  0  0  0  0
   41.2720   23.1080   36.2040 C   0  0  0  0  0  0  0  0  0  0  0  0
   41.3350   24.1220   35.2770 C   0  0  0  0  0  3  0  0  0  0  0  0
  1 20  1  0  0  0  0
  2  1  1  0  0  0  0
  3  1  1  0  0  0  0
  4  8  2  0  0  0  0
  4 13  1  0  0  0  0
  5  4  1  0  0  0  0
  6  5  2  0  0  0  0
  6  7  1  0  0  0  0
  7  1  1  0  0  0  0
  7  8  1  0  0  0  0
  9  5  1  0  0  0  0
 10  6  1  0  0  0  0
 11 17  1  0  0  0  0
 12 18  1  0  0  0  0
 12 11  2  0  0  0  0
 13 12  1  0  0  0  0
 14 13  2  0  0  0  0
 14 15  1  0  0  0  0
 15 16  2  0  0  0  0
 16 11  1  0  0  0  0
 19 15  1  0  0  0  0
 20 22  1  0  0  0  0
 20 24  1  0  0  0  0
 20 21  1  0  0  0  0
 23 34  2  0  0  0  0
 23 24  1  0  0  0  0
 24 25  2  0  0  0  0
 25 27  1  0  0  0  0
 25 26  1  0  0  0  0
 27 28  1  0  0  0  0
 28 29  1  0  0  0  0
 30 28  1  0  0  0  0
 31 30  2  0  0  0  0
 32 31  1  0  0  0  0
 33 31  1  0  0  0  0
 33 27  2  0  0  0  0
 34 33  1  0  0  0  0
M  END
>  <minimizedAffinity>
-5.60320854

$$$$

 OpenBabel03272508353D

 34 37  0  0  0  0  0  0  0  0999 V2000
   37.6060   25.1680   31.3640 C   0  0  0  0  0  0  0  0  0  0  0  0
   37.5950   26.2060   30.9760 H   0  0  0  0  0  0  0  0  0  0  0  0
   38.4610   24.6050   30.9360 H   0  0  0  0  0  0  0  0  0  0  0  0
   38.1340   24.8120   34.9160 C   0  0  0  0  0  0  0  0  0  0  0  0
   37.5890   26.0790   34.8500 C   0  0  0  0  0  0  0  0  0  0  0  0
   37.3270   26.3630   33.5160 C   0  0  0  0  0  0  0  0  0  0  0  0
   37.7190   25.2660   32.8260 N   0  0  0  0  0  0  0  0  0  0  0  0
   38.1960   24.3540   33.6660 N   0  0  0  0  0  0  0  0  0  0  0  0
   37.3760   26.7810   35.6460 H   0  0  0  0  0  0  0  0  0  0  0  0
   36.9010   27.2740   33.1390 H   0  0  0  0  0  0  0  0  0  0  0  0
   38.2410   23.8690   38.5450 C   0  0  0  0  0  0  0  0  0  0  0  0
   37.8020   24.4720   37.3730 C   0  0  0  0  0  0  0  0  0  0  0  0
   38.5170   24.2270   36.1880 C   0  0  0  0  0  0  0  0  0  0  0  0
   39.5950   23.4090   36.2810 N   0  0  0  0  0  0  0  0  0  0  0  0
   39.9940   22.8390   37.4400 C   0  0  0  0  0  0  0  0  0  0  0  0
   39.3080   23.0760   38.5670 N   0  0  0  0  0  0  0  0  0  0  0  0
   37.7200   24.0310   39.4790 H   0  0  0  0  0  0  0  0  0  0  0  0
   36.9360   25.1170   37.3460 H   0  0  0  0  0  0  0  0  0  0  0  0
   40.8860   22.2190   37.2790 H   0  0  0  0  0  0  0  0  0  0  0  0
   36.2650   24.5460   31.0040 C   0  0  0  0  0  0  0  0  0  0  0  0
   35.4510   24.8360   31.6730 H   0  0  0  0  0  0  0  0  0  0  0  0
   36.0680   24.8800   29.9560 H   0  0  0  0  0  0  0  0  0  0  0  0
   37.5730   22.3500   30.7250 C   0  0  0  0  0  3  0  0  0  0  0  0
   36.4540   23.0730   31.0770 C   0  0  0  0  0  0  0  0  0  0  0  0
   35.3680   22.3400   31.5580 C   0  0  0  0  0  0  0  0  0  0  0  0
   34.4430   22.8580   31.8560 H   0  0  0  0  0  0  0  0  0  0  0  0
   35.3700   20.9670   31.6920 C   0  0  0  0  0  0  0  0  0  0  0  0
   34.4470   20.1050   32.1240 N   0  0  0  0  0  0  0  0  0  0  0  0
   33.4790   20.3580   32.4650 H   0  0  0  0  0  0  0  0  0  0  0  0
   34.9210   18.8810   32.0650 N   0  0  0  0  0  0  0  0  0  0  0  0
   36.1860   18.9510   31.5800 C   0  0  0  0  0  0  0  0  0  0  0  0
   36.8580   18.1210   31.4080 H   0  0  0  0  0  0  0  0  0  0  0  0
   36.5060   20.2610   31.3320 C   0  0  0  0  0  0  0  0  0  0  0  0
   37.5760   20.9840   30.8580 C   0  0  0  0  0  3  0  0  0  0  0  0
  1  7  1  0  0  0  0
  2  1  1  0  0  0  0
  3  1  1  0  0  0  0
  4 13  1  0  0  0  0
  5  4  1  0  0  0  0
  5  9  1  0  0  0  0
  6  5  2  0  0  0  0
  7  6  1  0  0  0  0
  7  8  1  0  0  0  0
  8  4  2  0  0  0  0
 10  6  1  0  0  0  0
 11 16  1  0  0  0  0
 11 17  1  0  0  0  0
 12 11  2  0  0  0  0
 13 14  2  0  0  0  0
 13 12  1  0  0  0  0
 14 15  1  0  0  0  0
 15 16  2  0  0  0  0
 18 12  1  0  0  0  0
 19 15  1  0  0  0  0
 20 24  1  0  0  0  0
 20  1  1  0  0  0  0
 20 21  1  0  0  0  0
 22 20  1  0  0  0  0
 23 34  2  0  0  0  0
 23 24  1  0  0  0  0
 24 25  2  0  0  0  0
 25 27  1  0  0  0  0
 25 26  1  0  0  0  0
 27 28  1  0  0  0  0
 28 29  1  0  0  0  0
 30 28  1  0  0  0  0
 31 30  2  0  0  0  0
 32 31  1  0  0  0  0
 33 31  1  0  0  0  0
 33 27  2  0  0  0  0
 34 33  1  0  0  0  0
M  END
>  <minimizedAffinity>
-5.50790167

$$$$

 OpenBabel03272508353D

 34 37  0  0  0  0  0  0  0  0999 V2000
   36.6070   27.4780   32.3390 C   0  0  0  0  0  0  0  0  0  0  0  0
   36.0900   26.6590   32.8790 H   0  0  0  0  0  0  0  0  0  0  0  0
   36.4010   27.4130   31.2520 H   0  0  0  0  0  0  0  0  0  0  0  0
   35.2360   30.2210   34.2420 C   0  0  0  0  0  0  0  0  0  0  0  0
   35.5490   30.8480   33.0520 C   0  0  0  0  0  0  0  0  0  0  0  0
   36.0990   29.8990   32.2010 C   0  0  0  0  0  0  0  0  0  0  0  0
   36.0980   28.7380   32.8980 N   0  0  0  0  0  0  0  0  0  0  0  0
   35.5850   28.9420   34.1070 N   0  0  0  0  0  0  0  0  0  0  0  0
   35.4210   31.8830   32.7640 H   0  0  0  0  0  0  0  0  0  0  0  0
   36.4440   30.0770   31.2000 H   0  0  0  0  0  0  0  0  0  0  0  0
   34.7000   32.5840   37.1050 C   0  0  0  0  0  0  0  0  0  0  0  0
   35.3500   31.9300   36.0670 C   0  0  0  0  0  0  0  0  0  0  0  0
   34.6400   30.9560   35.3420 C   0  0  0  0  0  0  0  0  0  0  0  0
   33.3560   30.7290   35.7170 N   0  0  0  0  0  0  0  0  0  0  0  0
   32.7550   31.3860   36.7340 C   0  0  0  0  0  0  0  0  0  0  0  0
   33.4380   32.3130   37.4220 N   0  0  0  0  0  0  0  0  0  0  0  0
   35.2100   33.3400   37.6880 H   0  0  0  0  0  0  0  0  0  0  0  0
   36.3760   32.1440   35.8020 H   0  0  0  0  0  0  0  0  0  0  0  0
   31.7200   31.0410   36.8600 H   0  0  0  0  0  0  0  0  0  0  0  0
   38.0890   27.3500   32.6570 C   0  0  0  0  0  0  0  0  0  0  0  0
   38.6480   26.7630   31.9230 H   0  0  0  0  0  0  0  0  0  0  0  0
   38.4630   28.4020   32.7040 H   0  0  0  0  0  0  0  0  0  0  0  0
   38.3740   27.2760   35.2110 C   0  0  0  0  0  3  0  0  0  0  0  0
   38.1770   26.6840   33.9830 C   0  0  0  0  0  0  0  0  0  0  0  0
   38.0430   25.2940   33.9790 C   0  0  0  0  0  0  0  0  0  0  0  0
   37.8830   24.7590   33.0300 H   0  0  0  0  0  0  0  0  0  0  0  0
   38.0980   24.5170   35.1180 C   0  0  0  0  0  0  0  0  0  0  0  0
   37.9930   23.2000   35.3130 N   0  0  0  0  0  0  0  0  0  0  0  0
   37.8370   22.4760   34.5580 H   0  0  0  0  0  0  0  0  0  0  0  0
   38.1130   22.9300   36.5930 N   0  0  0  0  0  0  0  0  0  0  0  0
   38.3020   24.1030   37.2460 C   0  0  0  0  0  0  0  0  0  0  0  0
   38.4360   24.2350   38.3110 H   0  0  0  0  0  0  0  0  0  0  0  0
   38.2970   25.1340   36.3410 C   0  0  0  0  0  0  0  0  0  0  0  0
   38.4290   26.5030   36.3440 C   0  0  0  0  0  3  0  0  0  0  0  0
  1 20  1  0  0  0  0
  1  2  1  0  0  0  0
  1  7  1  0  0  0  0
  3  1  1  0  0  0  0
  4 13  1  0  0  0  0
  5  4  1  0  0  0  0
  6  7  1  0  0  0  0
  6  5  2  0  0  0  0
  7  8  1  0  0  0  0
  8  4  2  0  0  0  0
  9  5  1  0  0  0  0
 10  6  1  0  0  0  0
 11 16  1  0  0  0  0
 11 17  1  0  0  0  0
 12 11  2  0  0  0  0
 13 14  2  0  0  0  0
 13 12  1  0  0  0  0
 14 15  1  0  0  0  0
 15 19  1  0  0  0  0
 15 16  2  0  0  0  0
 18 12  1  0  0  0  0
 20 22  1  0  0  0  0
 20 24  1  0  0  0  0
 21 20  1  0  0  0  0
 23 34  1  0  0  0  0
 24 23  2  0  0  0  0
 25 24  1  0  0  0  0
 25 27  2  0  0  0  0
 26 25  1  0  0  0  0
 27 28  1  0  0  0  0
 27 33  1  0  0  0  0
 28 30  1  0  0  0  0
 29 28  1  0  0  0  0
 30 31  2  0  0  0  0
 31 32  1  0  0  0  0
 33 34  2  0  0  0  0
 33 31  1  0  0  0  0
M  END
>  <minimizedAffinity>
-5.50632572

$$$$

 OpenBabel03272508353D

 34 37  0  0  0  0  0  0  0  0999 V2000
   38.3980   25.9830   32.3280 C   0  0  0  0  0  0  0  0  0  0  0  0
   38.8390   26.3040   31.3630 H   0  0  0  0  0  0  0  0  0  0  0  0
   37.9190   26.8420   32.8390 H   0  0  0  0  0  0  0  0  0  0  0  0
   36.4560   23.0080   31.6940 C   0  0  0  0  0  0  0  0  0  0  0  0
   35.5280   23.9970   31.4340 C   0  0  0  0  0  0  0  0  0  0  0  0
   36.1420   25.2250   31.6400 C   0  0  0  0  0  0  0  0  0  0  0  0
   37.4120   24.9400   32.0140 N   0  0  0  0  0  0  0  0  0  0  0  0
   37.5860   23.6230   32.0430 N   0  0  0  0  0  0  0  0  0  0  0  0
   34.4950   23.9080   31.1240 H   0  0  0  0  0  0  0  0  0  0  0  0
   35.6800   26.1870   31.5190 H   0  0  0  0  0  0  0  0  0  0  0  0
   34.7770   19.6760   32.0790 C   0  0  0  0  0  0  0  0  0  0  0  0
   35.0350   21.0280   32.2640 C   0  0  0  0  0  0  0  0  0  0  0  0
   36.1110   21.6040   31.5660 C   0  0  0  0  0  0  0  0  0  0  0  0
   36.8250   20.7830   30.7550 N   0  0  0  0  0  0  0  0  0  0  0  0
   36.5450   19.4700   30.6000 C   0  0  0  0  0  0  0  0  0  0  0  0
   35.5170   18.9270   31.2690 N   0  0  0  0  0  0  0  0  0  0  0  0
   33.9590   19.1930   32.5970 H   0  0  0  0  0  0  0  0  0  0  0  0
   34.4380   21.6450   32.9200 H   0  0  0  0  0  0  0  0  0  0  0  0
   37.2510   19.0040   29.8990 H   0  0  0  0  0  0  0  0  0  0  0  0
   39.5270   25.3770   33.1490 C   0  0  0  0  0  0  0  0  0  0  0  0
   39.8050   24.3670   32.8380 H   0  0  0  0  0  0  0  0  0  0  0  0
   40.3800   26.0880   33.0300 H   0  0  0  0  0  0  0  0  0  0  0  0
   38.4770   26.3630   35.2790 C   0  0  0  0  0  3  0  0  0  0  0  0
   39.0460   25.3380   34.5560 C   0  0  0  0  0  0  0  0  0  0  0  0
   39.1900   24.1170   35.2180 C   0  0  0  0  0  0  0  0  0  0  0  0
   39.6370   23.2570   34.6950 H   0  0  0  0  0  0  0  0  0  0  0  0
   38.7970   23.9030   36.5230 C   0  0  0  0  0  0  0  0  0  0  0  0
   38.8510   22.8280   37.3130 N   0  0  0  0  0  0  0  0  0  0  0  0
   39.2380   21.8820   37.0410 H   0  0  0  0  0  0  0  0  0  0  0  0
   38.3490   23.1180   38.4920 N   0  0  0  0  0  0  0  0  0  0  0  0
   37.9590   24.4160   38.4660 C   0  0  0  0  0  0  0  0  0  0  0  0
   37.5040   24.9700   39.2760 H   0  0  0  0  0  0  0  0  0  0  0  0
   38.2280   24.9480   37.2310 C   0  0  0  0  0  0  0  0  0  0  0  0
   38.0870   26.1510   36.5780 C   0  0  0  0  0  3  0  0  0  0  0  0
  1  3  1  0  0  0  0
  1 20  1  0  0  0  0
  2  1  1  0  0  0  0
  4  8  2  0  0  0  0
  5  6  2  0  0  0  0
  5  4  1  0  0  0  0
  6  7  1  0  0  0  0
  7  8  1  0  0  0  0
  7  1  1  0  0  0  0
  9  5  1  0  0  0  0
 10  6  1  0  0  0  0
 11 12  1  0  0  0  0
 11 17  1  0  0  0  0
 12 18  1  0  0  0  0
 13  4  1  0  0  0  0
 13 12  2  0  0  0  0
 14 13  1  0  0  0  0
 15 14  2  0  0  0  0
 15 16  1  0  0  0  0
 16 11  2  0  0  0  0
 19 15  1  0  0  0  0
 20 24  1  0  0  0  0
 21 20  1  0  0  0  0
 22 20  1  0  0  0  0
 23 34  1  0  0  0  0
 24 25  1  0  0  0  0
 24 23  2  0  0  0  0
 25 27  2  0  0  0  0
 26 25  1  0  0  0  0
 27 33  1  0  0  0  0
 27 28  1  0  0  0  0
 28 30  1  0  0  0  0
 29 28  1  0  0  0  0
 31 30  2  0  0  0  0
 31 32  1  0  0  0  0
 33 31  1  0  0  0  0
 34 33  2  0  0  0  0
M  END
>  <minimizedAffinity>
-5.4599247

$$$$

 OpenBabel03272508353D

 34 37  0  0  0  0  0  0  0  0999 V2000
   37.4240   27.6870   32.3600 C   0  0  0  0  0  0  0  0  0  0  0  0
   36.3530   27.5580   32.6110 H   0  0  0  0  0  0  0  0  0  0  0  0
   37.6880   28.7640   32.3380 H   0  0  0  0  0  0  0  0  0  0  0  0
   38.7250   25.7130   35.0860 C   0  0  0  0  0  0  0  0  0  0  0  0
   39.8800   26.2830   34.5910 C   0  0  0  0  0  0  0  0  0  0  0  0
   39.5330   27.0880   33.5140 C   0  0  0  0  0  0  0  0  0  0  0  0
   38.1880   26.9790   33.3960 N   0  0  0  0  0  0  0  0  0  0  0  0
   37.7210   26.1610   34.3330 N   0  0  0  0  0  0  0  0  0  0  0  0
   40.9030   26.1700   34.9260 H   0  0  0  0  0  0  0  0  0  0  0  0
   40.2120   27.6660   32.9170 H   0  0  0  0  0  0  0  0  0  0  0  0
   38.0260   24.0670   38.3840 C   0  0  0  0  0  0  0  0  0  0  0  0
   37.9220   24.9780   37.3410 C   0  0  0  0  0  0  0  0  0  0  0  0
   38.7610   24.8120   36.2240 C   0  0  0  0  0  0  0  0  0  0  0  0
   39.6180   23.7610   36.2520 N   0  0  0  0  0  0  0  0  0  0  0  0
   39.6920   22.8940   37.2870 C   0  0  0  0  0  0  0  0  0  0  0  0
   38.8890   23.0580   38.3490 N   0  0  0  0  0  0  0  0  0  0  0  0
   37.3990   24.1590   39.2620 H   0  0  0  0  0  0  0  0  0  0  0  0
   37.2240   25.8020   37.3610 H   0  0  0  0  0  0  0  0  0  0  0  0
   40.4530   22.1260   37.0950 H   0  0  0  0  0  0  0  0  0  0  0  0
   37.6490   27.0090   31.0170 C   0  0  0  0  0  0  0  0  0  0  0  0
   37.2840   27.5870   30.1650 H   0  0  0  0  0  0  0  0  0  0  0  0
   38.7540   26.8530   30.9580 H   0  0  0  0  0  0  0  0  0  0  0  0
   35.5720   25.5140   31.2640 C   0  0  0  0  0  3  0  0  0  0  0  0
   36.9220   25.7140   31.0760 C   0  0  0  0  0  0  0  0  0  0  0  0
   37.7030   24.5660   30.9230 C   0  0  0  0  0  0  0  0  0  0  0  0
   38.7900   24.6570   30.7690 H   0  0  0  0  0  0  0  0  0  0  0  0
   37.1930   23.2850   30.9510 C   0  0  0  0  0  0  0  0  0  0  0  0
   37.7680   22.0860   30.8250 N   0  0  0  0  0  0  0  0  0  0  0  0
   38.7990   21.9110   30.6700 H   0  0  0  0  0  0  0  0  0  0  0  0
   36.8570   21.1440   30.9230 N   0  0  0  0  0  0  0  0  0  0  0  0
   35.6590   21.7480   31.1180 C   0  0  0  0  0  0  0  0  0  0  0  0
   34.7010   21.2600   31.2380 H   0  0  0  0  0  0  0  0  0  0  0  0
   35.8330   23.1090   31.1400 C   0  0  0  0  0  0  0  0  0  0  0  0
   35.0640   24.2400   31.2920 C   0  0  0  0  0  3  0  0  0  0  0  0
  1  2  1  0  0  0  0
  1  7  1  0  0  0  0
  3  1  1  0  0  0  0
  4 13  1  0  0  0  0
  5  9  1  0  0  0  0
  5  4  1  0  0  0  0
  6  5  2  0  0  0  0
  7  6  1  0  0  0  0
  7  8  1  0  0  0  0
  8  4  2  0  0  0  0
 10  6  1  0  0  0  0
 11 17  1  0  0  0  0
 12 18  1  0  0  0  0
 12 11  2  0  0  0  0
 13 14  2  0  0  0  0
 13 12  1  0  0  0  0
 14 15  1  0  0  0  0
 15 16  2  0  0  0  0
 16 11  1  0  0  0  0
 19 15  1  0  0  0  0
 20 24  1  0  0  0  0
 20  1  1  0  0  0  0
 21 20  1  0  0  0  0
 22 20  1  0  0  0  0
 23 34  1  0  0  0  0
 24 23  2  0  0  0  0
 25 27  2  0  0  0  0
 25 24  1  0  0  0  0
 26 25  1  0  0  0  0
 27 33  1  0  0  0  0
 28 30  1  0  0  0  0
 28 27  1  0  0  0  0
 29 28  1  0  0  0  0
 30 31  2  0  0  0  0
 31 33  1  0  0  0  0
 31 32  1  0  0  0  0
 33 34  2  0  0  0  0
M  END
>  <minimizedAffinity>
-5.36660242

$$$$

 OpenBabel03272508353D

 34 37  0  0  0  0  0  0  0  0999 V2000
   37.2020   26.6400   33.0620 C   0  0  0  0  0  0  0  0  0  0  0  0
   36.7950   25.8520   33.7270 H   0  0  0  0  0  0  0  0  0  0  0  0
   37.1630   26.3090   32.0040 H   0  0  0  0  0  0  0  0  0  0  0  0
   35.3910   29.5530   34.1820 C   0  0  0  0  0  0  0  0  0  0  0  0
   35.0050   29.4880   32.8590 C   0  0  0  0  0  0  0  0  0  0  0  0
   35.6350   28.3940   32.2830 C   0  0  0  0  0  0  0  0  0  0  0  0
   36.3750   27.8360   33.2700 N   0  0  0  0  0  0  0  0  0  0  0  0
   36.2230   28.5330   34.3910 N   0  0  0  0  0  0  0  0  0  0  0  0
   34.3400   30.1360   32.3020 H   0  0  0  0  0  0  0  0  0  0  0  0
   35.5370   28.0780   31.2610 H   0  0  0  0  0  0  0  0  0  0  0  0
   35.1900   32.3680   36.6540 C   0  0  0  0  0  0  0  0  0  0  0  0
   35.7530   31.3880   35.8450 C   0  0  0  0  0  0  0  0  0  0  0  0
   34.8960   30.6000   35.0580 C   0  0  0  0  0  0  0  0  0  0  0  0
   33.5680   30.8600   35.1480 N   0  0  0  0  0  0  0  0  0  0  0  0
   33.0550   31.8230   35.9470 C   0  0  0  0  0  0  0  0  0  0  0  0
   33.8780   32.5720   36.6960 N   0  0  0  0  0  0  0  0  0  0  0  0
   35.8140   32.9970   37.2760 H   0  0  0  0  0  0  0  0  0  0  0  0
   36.8190   31.2160   35.8040 H   0  0  0  0  0  0  0  0  0  0  0  0
   31.9610   31.8550   35.8620 H   0  0  0  0  0  0  0  0  0  0  0  0
   38.6220   26.9230   33.5280 C   0  0  0  0  0  0  0  0  0  0  0  0
   39.3490   26.9840   32.7140 H   0  0  0  0  0  0  0  0  0  0  0  0
   38.5530   27.8890   34.0840 H   0  0  0  0  0  0  0  0  0  0  0  0
   40.0380   24.9140   34.2850 C   0  0  0  0  0  3  0  0  0  0  0  0
   38.9960   25.8030   34.4320 C   0  0  0  0  0  0  0  0  0  0  0  0
   38.1930   25.6370   35.5630 C   0  0  0  0  0  0  0  0  0  0  0  0
   37.3440   26.3150   35.7390 H   0  0  0  0  0  0  0  0  0  0  0  0
   38.3960   24.6510   36.5060 C   0  0  0  0  0  0  0  0  0  0  0  0
   37.7500   24.3390   37.6320 N   0  0  0  0  0  0  0  0  0  0  0  0
   36.9020   24.8410   38.0160 H   0  0  0  0  0  0  0  0  0  0  0  0
   38.3250   23.3040   38.2020 N   0  0  0  0  0  0  0  0  0  0  0  0
   39.3730   22.9350   37.4240 C   0  0  0  0  0  0  0  0  0  0  0  0
   40.0570   22.1170   37.6080 H   0  0  0  0  0  0  0  0  0  0  0  0
   39.4500   23.7690   36.3380 C   0  0  0  0  0  0  0  0  0  0  0  0
   40.2400   23.9330   35.2240 C   0  0  0  0  0  3  0  0  0  0  0  0
  1  7  1  0  0  0  0
  1 20  1  0  0  0  0
  1  2  1  0  0  0  0
  3  1  1  0  0  0  0
  4  8  2  0  0  0  0
  4 13  1  0  0  0  0
  5  4  1  0  0  0  0
  6  5  2  0  0  0  0
  6  7  1  0  0  0  0
  7  8  1  0  0  0  0
  9  5  1  0  0  0  0
 10  6  1  0  0  0  0
 11 16  1  0  0  0  0
 11 17  1  0  0  0  0
 12 11  2  0  0  0  0
 13 14  2  0  0  0  0
 13 12  1  0  0  0  0
 14 15  1  0  0  0  0
 15 16  2  0  0  0  0
 18 12  1  0  0  0  0
 19 15  1  0  0  0  0
 20 22  1  0  0  0  0
 20 24  1  0  0  0  0
 21 20  1  0  0  0  0
 23 24  2  0  0  0  0
 23 34  1  0  0  0  0
 24 25  1  0  0  0  0
 25 26  1  0  0  0  0
 25 27  2  0  0  0  0
 27 28  1  0  0  0  0
 28 29  1  0  0  0  0
 28 30  1  0  0  0  0
 31 32  1  0  0  0  0
 31 30  2  0  0  0  0
 33 27  1  0  0  0  0
 33 31  1  0  0  0  0
 34 33  2  0  0  0  0
M  END
>  <minimizedAffinity>
-5.30875444

$$$$

 OpenBabel03272508353D

 34 37  0  0  0  0  0  0  0  0999 V2000
   36.6350   28.7340   33.4820 C   0  0  0  0  0  0  0  0  0  0  0  0
   37.1430   29.4610   34.1460 H   0  0  0  0  0  0  0  0  0  0  0  0
   36.8960   28.9320   32.4220 H   0  0  0  0  0  0  0  0  0  0  0  0
   37.7870   25.7150   35.0870 C   0  0  0  0  0  0  0  0  0  0  0  0
   37.6470   25.2890   33.7820 C   0  0  0  0  0  0  0  0  0  0  0  0
   37.2000   26.3650   33.0270 C   0  0  0  0  0  0  0  0  0  0  0  0
   37.0870   27.3980   33.8950 N   0  0  0  0  0  0  0  0  0  0  0  0
   37.4360   27.0010   35.1130 N   0  0  0  0  0  0  0  0  0  0  0  0
   37.8320   24.3140   33.3510 H   0  0  0  0  0  0  0  0  0  0  0  0
   36.9960   26.3520   31.9730 H   0  0  0  0  0  0  0  0  0  0  0  0
   39.5690   22.9790   36.9350 C   0  0  0  0  0  0  0  0  0  0  0  0
   39.1910   23.8000   35.8800 C   0  0  0  0  0  0  0  0  0  0  0  0
   38.2430   24.8090   36.1260 C   0  0  0  0  0  0  0  0  0  0  0  0
   37.7650   24.9050   37.3920 N   0  0  0  0  0  0  0  0  0  0  0  0
   38.1560   24.0870   38.3950 C   0  0  0  0  0  0  0  0  0  0  0  0
   39.0600   23.1270   38.1530 N   0  0  0  0  0  0  0  0  0  0  0  0
   40.2950   22.1900   36.7880 H   0  0  0  0  0  0  0  0  0  0  0  0
   39.5990   23.6870   34.8860 H   0  0  0  0  0  0  0  0  0  0  0  0
   37.6400   24.3460   39.3290 H   0  0  0  0  0  0  0  0  0  0  0  0
   35.1420   28.8630   33.7440 C   0  0  0  0  0  0  0  0  0  0  0  0
   34.5530   29.0720   32.8470 H   0  0  0  0  0  0  0  0  0  0  0  0
   34.8480   27.8890   34.2050 H   0  0  0  0  0  0  0  0  0  0  0  0
   35.9750   30.7310   35.3030 C   0  0  0  0  0  3  0  0  0  0  0  0
   34.9820   29.9870   34.7040 C   0  0  0  0  0  0  0  0  0  0  0  0
   33.6690   30.3250   35.0370 C   0  0  0  0  0  0  0  0  0  0  0  0
   32.8280   29.7690   34.5930 H   0  0  0  0  0  0  0  0  0  0  0  0
   33.3380   31.3400   35.9100 C   0  0  0  0  0  0  0  0  0  0  0  0
   32.1640   31.8050   36.3450 N   0  0  0  0  0  0  0  0  0  0  0  0
   31.2130   31.4360   36.0640 H   0  0  0  0  0  0  0  0  0  0  0  0
   32.3610   32.7970   37.1820 N   0  0  0  0  0  0  0  0  0  0  0  0
   33.7000   32.9820   37.2950 C   0  0  0  0  0  0  0  0  0  0  0  0
   34.2020   33.7210   37.9050 H   0  0  0  0  0  0  0  0  0  0  0  0
   34.3530   32.0740   36.5000 C   0  0  0  0  0  0  0  0  0  0  0  0
   35.6470   31.7400   36.1720 C   0  0  0  0  0  3  0  0  0  0  0  0
  1 20  1  0  0  0  0
  1  7  1  0  0  0  0
  1  2  1  0  0  0  0
  3  1  1  0  0  0  0
  4  8  2  0  0  0  0
  4 13  1  0  0  0  0
  5  4  1  0  0  0  0
  6  5  2  0  0  0  0
  6  7  1  0  0  0  0
  7  8  1  0  0  0  0
  9  5  1  0  0  0  0
 10  6  1  0  0  0  0
 11 16  1  0  0  0  0
 12 13  1  0  0  0  0
 12 11  2  0  0  0  0
 13 14  2  0  0  0  0
 14 15  1  0  0  0  0
 15 19  1  0  0  0  0
 16 15  2  0  0  0  0
 17 11  1  0  0  0  0
 18 12  1  0  0  0  0
 20 22  1  0  0  0  0
 20 24  1  0  0  0  0
 21 20  1  0  0  0  0
 23 34  1  0  0  0  0
 24 25  1  0  0  0  0
 24 23  2  0  0  0  0
 25 27  2  0  0  0  0
 26 25  1  0  0  0  0
 27 28  1  0  0  0  0
 27 33  1  0  0  0  0
 28 30  1  0  0  0  0
 29 28  1  0  0  0  0
 30 31  2  0  0  0  0
 31 32  1  0  0  0  0
 33 31  1  0  0  0  0
 34 33  2  0  0  0  0
M  END
>  <minimizedAffinity>
-5.26884985

$$$$

 OpenBabel03272508353D

 34 37  0  0  0  0  0  0  0  0999 V2000
   36.2590   28.2400   33.4270 C   0  0  0  0  0  0  0  0  0  0  0  0
   36.9050   28.7160   32.6630 H   0  0  0  0  0  0  0  0  0  0  0  0
   35.2510   28.0420   33.0100 H   0  0  0  0  0  0  0  0  0  0  0  0
   37.8560   25.4080   34.9920 C   0  0  0  0  0  0  0  0  0  0  0  0
   37.8530   25.0180   33.6680 C   0  0  0  0  0  0  0  0  0  0  0  0
   37.2560   26.0280   32.9260 C   0  0  0  0  0  0  0  0  0  0  0  0
   36.9220   26.9890   33.8200 N   0  0  0  0  0  0  0  0  0  0  0  0
   37.2810   26.6090   35.0420 N   0  0  0  0  0  0  0  0  0  0  0  0
   38.2270   24.1080   33.2170 H   0  0  0  0  0  0  0  0  0  0  0  0
   37.1050   26.0220   31.8630 H   0  0  0  0  0  0  0  0  0  0  0  0
   38.4280   23.5730   38.2140 C   0  0  0  0  0  0  0  0  0  0  0  0
   37.8200   24.4120   37.2880 C   0  0  0  0  0  0  0  0  0  0  0  0
   38.4180   24.5550   36.0240 C   0  0  0  0  0  0  0  0  0  0  0  0
   39.5570   23.8530   35.8020 N   0  0  0  0  0  0  0  0  0  0  0  0
   40.1210   23.0460   36.7280 C   0  0  0  0  0  0  0  0  0  0  0  0
   39.5460   22.9130   37.9320 N   0  0  0  0  0  0  0  0  0  0  0  0
   38.0000   23.4350   39.1990 H   0  0  0  0  0  0  0  0  0  0  0  0
   36.9110   24.9520   37.5090 H   0  0  0  0  0  0  0  0  0  0  0  0
   41.0350   22.5810   36.3320 H   0  0  0  0  0  0  0  0  0  0  0  0
   36.2170   29.1830   34.6210 C   0  0  0  0  0  0  0  0  0  0  0  0
   36.2940   28.6760   35.5860 H   0  0  0  0  0  0  0  0  0  0  0  0
   37.0730   29.8840   34.4610 H   0  0  0  0  0  0  0  0  0  0  0  0
   34.5190   31.0070   35.2570 C   0  0  0  0  0  3  0  0  0  0  0  0
   34.9140   29.8940   34.5460 C   0  0  0  0  0  0  0  0  0  0  0  0
   33.9820   29.3700   33.6470 C   0  0  0  0  0  0  0  0  0  0  0  0
   34.2350   28.4820   33.0480 H   0  0  0  0  0  0  0  0  0  0  0  0
   32.7260   29.9050   33.4500 C   0  0  0  0  0  0  0  0  0  0  0  0
   31.7150   29.5520   32.6520 N   0  0  0  0  0  0  0  0  0  0  0  0
   31.7150   28.7340   31.9820 H   0  0  0  0  0  0  0  0  0  0  0  0
   30.7070   30.3780   32.8200 N   0  0  0  0  0  0  0  0  0  0  0  0
   31.0740   31.2920   33.7530 C   0  0  0  0  0  0  0  0  0  0  0  0
   30.4760   32.1130   34.1230 H   0  0  0  0  0  0  0  0  0  0  0  0
   32.3510   31.0230   34.1760 C   0  0  0  0  0  0  0  0  0  0  0  0
   33.2700   31.5380   35.0610 C   0  0  0  0  0  3  0  0  0  0  0  0
  1  7  1  0  0  0  0
  1 20  1  0  0  0  0
  2  1  1  0  0  0  0
  3  1  1  0  0  0  0
  4  8  2  0  0  0  0
  4 13  1  0  0  0  0
  5  4  1  0  0  0  0
  6  5  2  0  0  0  0
  6  7  1  0  0  0  0
  7  8  1  0  0  0  0
  9  5  1  0  0  0  0
 10  6  1  0  0  0  0
 11 17  1  0  0  0  0
 12 18  1  0  0  0  0
 12 11  2  0  0  0  0
 13 12  1  0  0  0  0
 14 13  2  0  0  0  0
 14 15  1  0  0  0  0
 15 16  2  0  0  0  0
 16 11  1  0  0  0  0
 19 15  1  0  0  0  0
 20 21  1  0  0  0  0
 22 20  1  0  0  0  0
 24 20  1  0  0  0  0
 24 23  2  0  0  0  0
 25 24  1  0  0  0  0
 26 25  1  0  0  0  0
 27 25  2  0  0  0  0
 27 33  1  0  0  0  0
 28 30  1  0  0  0  0
 28 27  1  0  0  0  0
 29 28  1  0  0  0  0
 30 31  2  0  0  0  0
 31 32  1  0  0  0  0
 31 33  1  0  0  0  0
 33 34  2  0  0  0  0
 34 23  1  0  0  0  0
M  END
>  <minimizedAffinity>
-5.17376995

$$$$

 OpenBabel03272508353D

 34 37  0  0  0  0  0  0  0  0999 V2000
   36.4310   27.5340   32.7660 C   0  0  0  0  0  0  0  0  0  0  0  0
   35.3930   27.1480   32.8150 H   0  0  0  0  0  0  0  0  0  0  0  0
   36.4280   28.6410   32.7050 H   0  0  0  0  0  0  0  0  0  0  0  0
   38.0580   25.8190   35.4920 C   0  0  0  0  0  0  0  0  0  0  0  0
   38.0780   27.1230   35.9430 C   0  0  0  0  0  0  0  0  0  0  0  0
   37.4740   27.9190   34.9800 C   0  0  0  0  0  0  0  0  0  0  0  0
   37.1100   27.0750   33.9850 N   0  0  0  0  0  0  0  0  0  0  0  0
   37.4620   25.8330   34.2990 N   0  0  0  0  0  0  0  0  0  0  0  0
   38.4750   27.5270   36.8660 H   0  0  0  0  0  0  0  0  0  0  0  0
   37.3360   28.9820   35.0380 H   0  0  0  0  0  0  0  0  0  0  0  0
   38.7120   23.3450   38.2350 C   0  0  0  0  0  0  0  0  0  0  0  0
   38.1090   24.3900   37.5460 C   0  0  0  0  0  0  0  0  0  0  0  0
   38.6220   24.7420   36.2850 C   0  0  0  0  0  0  0  0  0  0  0  0
   39.6810   24.0250   35.8320 N   0  0  0  0  0  0  0  0  0  0  0  0
   40.2430   23.0140   36.5320 C   0  0  0  0  0  0  0  0  0  0  0  0
   39.7490   22.6820   37.7330 N   0  0  0  0  0  0  0  0  0  0  0  0
   38.3480   23.0420   39.2080 H   0  0  0  0  0  0  0  0  0  0  0  0
   37.2650   24.9330   37.9450 H   0  0  0  0  0  0  0  0  0  0  0  0
   41.0840   22.5790   35.9750 H   0  0  0  0  0  0  0  0  0  0  0  0
   37.0850   26.8890   31.5530 C   0  0  0  0  0  0  0  0  0  0  0  0
   38.0200   26.3700   31.7800 H   0  0  0  0  0  0  0  0  0  0  0  0
   36.3150   26.1840   31.1540 H   0  0  0  0  0  0  0  0  0  0  0  0
   38.3040   28.0150   29.5880 C   0  0  0  0  0  3  0  0  0  0  0  0
   37.3610   27.9900   30.5920 C   0  0  0  0  0  0  0  0  0  0  0  0
   36.5670   29.1310   30.7260 C   0  0  0  0  0  0  0  0  0  0  0  0
   35.7940   29.1750   31.5090 H   0  0  0  0  0  0  0  0  0  0  0  0
   36.6870   30.2440   29.9200 C   0  0  0  0  0  0  0  0  0  0  0  0
   36.0330   31.4080   29.8940 N   0  0  0  0  0  0  0  0  0  0  0  0
   35.2480   31.6900   30.5450 H   0  0  0  0  0  0  0  0  0  0  0  0
   36.5110   32.1640   28.9320 N   0  0  0  0  0  0  0  0  0  0  0  0
   37.5020   31.4720   28.3170 C   0  0  0  0  0  0  0  0  0  0  0  0
   38.1030   31.8080   27.4820 H   0  0  0  0  0  0  0  0  0  0  0  0
   37.6420   30.2470   28.9180 C   0  0  0  0  0  0  0  0  0  0  0  0
   38.4230   29.1220   28.7870 C   0  0  0  0  0  3  0  0  0  0  0  0
  1  2  1  0  0  0  0
  1  7  1  0  0  0  0
  3  1  1  0  0  0  0
  4  5  1  0  0  0  0
  4 13  1  0  0  0  0
  5  9  1  0  0  0  0
  6 10  1  0  0  0  0
  6  5  2  0  0  0  0
  7  8  1  0  0  0  0
  7  6  1  0  0  0  0
  8  4  2  0  0  0  0
 11 17  1  0  0  0  0
 12 18  1  0  0  0  0
 12 11  2  0  0  0  0
 13 12  1  0  0  0  0
 14 13  2  0  0  0  0
 14 15  1  0  0  0  0
 15 16  2  0  0  0  0
 16 11  1  0  0  0  0
 19 15  1  0  0  0  0
 20 21  1  0  0  0  0
 20  1  1  0  0  0  0
 22 20  1  0  0  0  0
 23 24  1  0  0  0  0
 24 25  2  0  0  0  0
 24 20  1  0  0  0  0
 25 26  1  0  0  0  0
 27 25  1  0  0  0  0
 28 27  1  0  0  0  0
 28 29  1  0  0  0  0
 30 28  1  0  0  0  0
 31 33  1  0  0  0  0
 31 30  2  0  0  0  0
 32 31  1  0  0  0  0
 33 27  2  0  0  0  0
 34 33  1  0  0  0  0
 34 23  2  0  0  0  0
M  END
>  <minimizedAffinity>
-5.15197468

$$$$
