
 OpenBabel03272504413D

 48 51  0  0  0  0  0  0  0  0999 V2000
   34.7050   29.3650   48.7570 C   0  0  0  0  0  0  0  0  0  0  0  0
   35.6020   29.3860   49.4170 H   0  0  0  0  0  0  0  0  0  0  0  0
   34.0630   30.1950   49.1790 H   0  0  0  0  0  0  0  0  0  0  0  0
   37.4700   30.4260   48.4890 Cl  0  0  0  0  0  0  0  0  0  0  0  0
   36.3390   30.2750   47.1450 C   0  0  0  0  0  0  0  0  0  0  0  0
   36.7290   30.6580   45.9110 C   0  0  0  0  0  0  0  0  0  0  0  0
   35.8550   30.5450   44.8490 C   0  0  0  0  0  0  0  0  0  0  0  0
   34.5790   30.0330   45.0760 C   0  0  0  0  0  0  0  0  0  0  0  0
   34.2520   29.6570   46.3930 C   0  0  0  0  0  0  0  0  0  0  0  0
   35.0930   29.7610   47.4360 C   0  0  0  0  0  0  0  0  0  0  0  0
   36.1920   30.8620   43.8540 H   0  0  0  0  0  0  0  0  0  0  0  0
   33.9830   29.9870   44.1950 H   0  0  0  0  0  0  0  0  0  0  0  0
   33.2840   29.3130   46.3580 H   0  0  0  0  0  0  0  0  0  0  0  0
   39.7180   32.8170   46.0070 C   0  0  0  0  0  0  0  0  0  0  0  0
   40.5950   32.0860   45.1270 C   0  0  0  0  0  0  0  0  0  0  0  0
   40.1200   30.9020   44.5550 C   0  0  0  0  0  0  0  0  0  0  0  0
   38.8610   30.4880   44.8440 N   0  0  0  0  0  0  0  0  0  0  0  0
   38.0580   31.1960   45.6730 C   0  0  0  0  0  0  0  0  0  0  0  0
   38.4890   32.3350   46.2360 N   0  0  0  0  0  0  0  0  0  0  0  0
   40.0860   33.7320   46.4480 H   0  0  0  0  0  0  0  0  0  0  0  0
   41.5740   32.5170   44.9760 H   0  0  0  0  0  0  0  0  0  0  0  0
   41.0070   30.2210   43.7070 N   0  0  0  0  0  0  0  0  0  0  0  0
   40.7850   30.5740   42.7480 H   0  0  0  0  0  0  0  0  0  0  0  0
   41.7640   29.5010   43.8730 H   0  0  0  0  0  0  0  0  0  0  0  0
   34.0230   28.0840   48.9680 C   0  0  0  0  0  0  0  0  0  0  0  0
   34.1140   27.4220   48.0760 H   0  0  0  0  0  0  0  0  0  0  0  0
   34.4710   27.4740   49.8020 H   0  0  0  0  0  0  0  0  0  0  0  0
   32.7060   28.2630   49.2990 O   0  0  0  0  0  0  0  0  0  0  0  0
   32.5100   26.5300   47.3350 O   0  0  0  0  0  0  0  0  0  0  0  0
   31.7170   27.4100   48.2680 P   0  0  2  0  0  0  0  0  0  0  0  0
   30.8510   28.5850   47.3330 O   0  0  0  0  0  0  0  0  0  0  0  0
   29.3620   27.2900   45.9250 C   0  0  0  0  0  3  0  0  0  0  0  0
   30.4260   28.1560   46.0770 C   0  0  0  0  0  0  0  0  0  0  0  0
   31.0310   28.5610   44.9040 C   0  0  0  0  0  0  0  0  0  0  0  0
   31.8800   29.2490   44.9640 H   0  0  0  0  0  0  0  0  0  0  0  0
   30.6050   28.1330   43.6580 C   0  0  0  0  0  0  0  0  0  0  0  0
   30.9770   28.3440   42.3830 N   0  0  0  0  0  0  0  0  0  0  0  0
   31.7800   28.9700   42.1000 H   0  0  0  0  0  0  0  0  0  0  0  0
   30.2090   27.6700   41.5420 N   0  0  0  0  0  0  0  0  0  0  0  0
   29.2870   26.9780   42.2380 C   0  0  0  0  0  0  0  0  0  0  0  0
   28.4920   26.3130   41.8640 H   0  0  0  0  0  0  0  0  0  0  0  0
   29.5340   27.2670   43.5640 C   0  0  0  0  0  0  0  0  0  0  0  0
   28.8830   26.8230   44.7180 C   0  0  0  0  0  3  0  0  0  0  0  0
   30.5650   26.5140   49.0430 O   0  0  0  0  0  0  0  0  0  0  0  0
   29.7570   27.3110   49.8210 C   0  0  0  0  0  0  0  0  0  0  0  0
   29.2910   26.6500   50.9560 F   0  0  0  0  0  0  0  0  0  0  0  0
   30.4410   28.4140   50.2910 F   0  0  0  0  0  0  0  0  0  0  0  0
   28.6580   27.7460   49.0880 F   0  0  0  0  0  0  0  0  0  0  0  0
  1 25  1  0  0  0  0
  1  3  1  0  0  0  0
  1  2  1  0  0  0  0
  5 10  1  0  0  0  0
  5  4  1  0  0  0  0
  6  5  2  0  0  0  0
  7  8  2  0  0  0  0
  7  6  1  0  0  0  0
  8  9  1  0  0  0  0
  9 10  2  0  0  0  0
 10  1  1  0  0  0  0
 11  7  1  0  0  0  0
 12  8  1  0  0  0  0
 13  9  1  0  0  0  0
 14 19  1  0  0  0  0
 14 20  1  0  0  0  0
 15 14  2  0  0  0  0
 16 17  2  0  0  0  0
 16 15  1  0  0  0  0
 17 18  1  0  0  0  0
 18  6  1  0  0  0  0
 18 19  2  0  0  0  0
 21 15  1  0  0  0  0
 22 24  1  0  0  0  0
 22 16  1  0  0  0  0
 23 22  1  0  0  0  0
 25 28  1  0  0  0  0
 25 27  1  0  0  0  0
 26 25  1  0  0  0  0
 30 29  2  6  0  0  0
 30 44  1  0  0  0  0
 30 28  1  0  0  0  0
 31 30  1  0  0  0  0
 32 33  1  0  0  0  0
 33 31  1  0  0  0  0
 34 35  1  0  0  0  0
 34 33  2  0  0  0  0
 36 34  1  0  0  0  0
 37 36  1  0  0  0  0
 38 37  1  0  0  0  0
 39 40  2  0  0  0  0
 39 37  1  0  0  0  0
 40 42  1  0  0  0  0
 41 40  1  0  0  0  0
 42 36  2  0  0  0  0
 42 43  1  0  0  0  0
 43 32  2  0  0  0  0
 44 45  1  0  0  0  0
 45 47  1  0  0  0  0
 45 46  1  0  0  0  0
 48 45  1  0  0  0  0
M  END
>  <minimizedAffinity>
-5.68075848

>  <minimizedRMSD>
0.291135192

$$$$
