
     RDKit          3D

 45 49  0  0  0  0  0  0  0  0999 V2000
   38.9582   32.3721   47.7928 C   0  0  2  0  0  0  0  0  0  0  0  0
   38.0061   32.7404   48.9777 C   0  0  2  0  0  0  0  0  0  0  0  0
   38.9071   33.5368   49.7992 C   0  0  0  0  0  0  0  0  0  0  0  0
   39.7163   34.2805   48.9515 O   0  0  0  0  0  0  0  0  0  0  0  0
   39.6173   33.7742   47.7000 C   0  0  0  0  0  0  0  0  0  0  0  0
   37.3647   29.6941   51.0848 C   0  0  0  0  0  0  0  0  0  0  0  0
   38.0372   30.8329   50.5589 C   0  0  0  0  0  0  0  0  0  0  0  0
   37.3691   31.5890   49.5493 C   0  0  0  0  0  0  0  0  0  0  0  0
   36.1153   31.1925   49.1280 N   0  0  0  0  0  0  0  0  0  0  0  0
   35.5307   30.1094   49.6603 C   0  0  0  0  0  0  0  0  0  0  0  0
   36.1309   29.3597   50.6246 N   0  0  0  0  0  0  0  0  0  0  0  0
   38.2783   32.1332   46.6460 O   0  0  0  0  0  0  0  0  0  0  0  0
   40.9517   31.2558   45.3825 Cl  0  0  0  0  0  0  0  0  0  0  0  0
   39.3662   30.6867   44.9036 C   0  0  0  0  0  0  0  0  0  0  0  0
   38.3267   31.2430   45.6360 C   0  0  0  0  0  0  0  0  0  0  0  0
   37.0635   30.8044   45.2669 C   0  0  0  0  0  0  0  0  0  0  0  0
   36.8688   29.8856   44.2480 C   0  0  0  0  0  0  0  0  0  0  0  0
   37.9367   29.3777   43.5675 C   0  0  0  0  0  0  0  0  0  0  0  0
   39.1991   29.7811   43.8973 C   0  0  0  0  0  0  0  0  0  0  0  0
   39.7438   31.6906   48.1076 H   0  0  0  0  0  0  0  0  0  0  0  0
   37.2529   33.3860   48.4784 H   0  0  0  0  0  0  0  0  0  0  0  0
   38.3452   34.2429   50.4669 H   0  0  0  0  0  0  0  0  0  0  0  0
   39.5909   32.9846   50.4573 H   0  0  0  0  0  0  0  0  0  0  0  0
   39.0090   34.3668   46.9847 H   0  0  0  0  0  0  0  0  0  0  0  0
   40.6161   33.5916   47.2360 H   0  0  0  0  0  0  0  0  0  0  0  0
   37.7902   29.0778   51.8374 H   0  0  0  0  0  0  0  0  0  0  0  0
   38.9979   31.0883   50.9209 H   0  0  0  0  0  0  0  0  0  0  0  0
   34.5513   29.8540   49.2868 H   0  0  0  0  0  0  0  0  0  0  0  0
   36.1338   31.1223   45.7192 H   0  0  0  0  0  0  0  0  0  0  0  0
   35.8974   29.5253   43.9378 H   0  0  0  0  0  0  0  0  0  0  0  0
   37.8087   28.6605   42.7698 H   0  0  0  0  0  0  0  0  0  0  0  0
   41.3320   28.3636   43.6114 C   0  0  0  0  0  0  0  0  0  0  0  0
   40.3783   29.2747   43.2066 C   0  0  0  0  0  0  0  0  0  0  0  0
   40.4854   29.8557   41.9375 C   0  0  0  0  0  0  0  0  0  0  0  0
   39.8102   30.5835   41.4914 H   0  0  0  0  0  0  0  0  0  0  0  0
   41.5295   29.5342   41.0804 C   0  0  0  0  0  0  0  0  0  0  0  0
   41.9141   29.8954   39.8417 N   0  0  0  0  0  0  0  0  0  0  0  0
   41.3938   30.5869   39.2468 H   0  0  0  0  0  0  0  0  0  0  0  0
   43.0351   29.2486   39.5018 N   0  0  0  0  0  0  0  0  0  0  0  0
   43.4168   28.4438   40.5105 C   0  0  0  0  0  0  0  0  0  0  0  0
   44.2906   27.7871   40.5390 H   0  0  0  0  0  0  0  0  0  0  0  0
   42.4741   28.6209   41.5022 C   0  0  0  0  0  0  0  0  0  0  0  0
   42.3658   28.0500   42.7536 C   0  0  0  0  0  0  0  0  0  0  0  0
   41.1397   27.9921   44.5990 H   0  0  0  0  0  0  0  0  0  0  0  0
   43.0685   27.3221   43.1606 H   0  0  0  0  0  0  0  0  0  0  0  0
  1  2  1  0
  2  8  1  0
  2  3  1  0
  4  3  1  0
  5  1  1  0
  5  4  1  0
  7  6  2  0
  8  7  1  0
  9  8  2  0
  9 10  1  0
 10 11  2  0
 11  6  1  0
 12  1  1  0
 14 13  1  0
 14 15  2  0
 15 12  1  0
 16 15  1  0
 17 16  2  0
 18 19  2  0
 18 17  1  0
 19 14  1  0
  1 20  1  1
  2 21  1  6
  3 22  1  0
  3 23  1  0
  5 24  1  0
  5 25  1  0
  6 26  1  0
  7 27  1  0
 10 28  1  0
 16 29  1  0
 17 30  1  0
 18 31  1  0
 32 33  2  0
 33 34  1  0
 34 35  1  0
 34 36  2  0
 36 37  1  0
 37 38  1  0
 37 39  1  0
 39 40  2  0
 40 41  1  0
 40 42  1  0
 42 43  2  0
 43 32  1  0
 42 36  1  0
 32 44  1  0
 43 45  1  0
 19 33  1  0
M  ISO  8  20  13  21  13  22  13  23  13  24  13  25  13  26  14  27  14
M  ISO  7  28  14  29  14  30  14  31  14  35  16  38   5  41  15
M  END
>  <DihAtoms>  (1) 
17,18,32,31

>  <DihDeg>  (1) 
134.71023694791472

$$$$
