
 OpenBabel03272509493D

 36 39  0  0  0  0  0  0  0  0999 V2000
   37.3180   30.1250   51.3310 C   0  0  0  0  0  0  0  0  0  0  0  0
   37.8330   30.7260   50.1540 C   0  0  0  0  0  0  0  0  0  0  0  0
   37.1820   30.5060   48.9590 C   0  0  0  0  0  0  0  0  0  0  0  0
   36.0770   29.7130   49.0240 N   0  0  0  0  0  0  0  0  0  0  0  0
   35.5970   29.1530   50.1280 C   0  0  0  0  0  0  0  0  0  0  0  0
   36.2280   29.3640   51.2940 N   0  0  0  0  0  0  0  0  0  0  0  0
   37.8200   30.2890   52.2810 H   0  0  0  0  0  0  0  0  0  0  0  0
   38.7040   31.3290   50.2060 H   0  0  0  0  0  0  0  0  0  0  0  0
   37.0750   30.7110   46.4860 C   0  0  0  0  0  3  0  0  0  0  0  0
   37.6260   31.0730   47.6930 C   0  0  0  0  0  0  0  0  0  0  0  0
   38.6380   32.0110   47.7110 C   0  0  0  0  0  0  0  0  0  0  0  0
   39.0780   32.3030   48.6710 H   0  0  0  0  0  0  0  0  0  0  0  0
   39.1200   32.6000   46.5580 C   0  0  0  0  0  0  0  0  0  0  0  0
   40.0650   33.5150   46.2510 N   0  0  0  0  0  0  0  0  0  0  0  0
   40.6500   33.9690   46.9930 H   0  0  0  0  0  0  0  0  0  0  0  0
   40.0730   33.6850   44.9400 N   0  0  0  0  0  0  0  0  0  0  0  0
   39.1440   32.8920   44.3780 C   0  0  0  0  0  0  0  0  0  0  0  0
   38.9250   32.8210   43.3080 H   0  0  0  0  0  0  0  0  0  0  0  0
   38.5260   32.1940   45.3870 C   0  0  0  0  0  0  0  0  0  0  0  0
   37.5130   31.2650   45.2930 C   0  0  0  0  0  3  0  0  0  0  0  0
   34.4710   28.4050   49.8970 O   0  0  0  0  0  0  0  0  0  0  0  0
   33.7280   28.6200   48.7120 C   0  0  0  0  0  0  0  0  0  0  0  0
   34.4370   28.8350   47.8830 H   0  0  0  0  0  0  0  0  0  0  0  0
   33.1590   29.5750   48.8500 H   0  0  0  0  0  0  0  0  0  0  0  0
   32.8260   27.4610   48.4260 C   0  0  0  0  0  0  0  0  0  0  0  0
   32.9960   26.5990   49.1110 H   0  0  0  0  0  0  0  0  0  0  0  0
   33.0820   27.0900   47.4110 H   0  0  0  0  0  0  0  0  0  0  0  0
   31.3930   27.8510   48.3870 C   0  0  0  0  0  0  0  0  0  0  0  0
   30.6790   27.7500   49.5650 C   0  0  0  0  0  0  0  0  0  0  0  0
   29.3490   28.0740   49.6800 C   0  0  0  0  0  0  0  0  0  0  0  0
   28.7140   28.5110   48.5930 N   0  0  0  0  0  0  0  0  0  0  0  0
   29.4070   28.6130   47.4330 C   0  0  0  0  0  0  0  0  0  0  0  0
   30.7160   28.2960   47.3140 N   0  0  0  0  0  0  0  0  0  0  0  0
   31.1340   27.3980   50.5040 H   0  0  0  0  0  0  0  0  0  0  0  0
   28.7900   27.9950   50.6020 H   0  0  0  0  0  0  0  0  0  0  0  0
   28.8980   28.9720   46.5270 H   0  0  0  0  0  0  0  0  0  0  0  0
  1  7  1  0  0  0  0
  2  8  1  0  0  0  0
  2  1  2  0  0  0  0
  3  4  2  0  0  0  0
  3  2  1  0  0  0  0
  4  5  1  0  0  0  0
  5  6  2  0  0  0  0
  6  1  1  0  0  0  0
  9 10  1  0  0  0  0
 10 11  2  0  0  0  0
 10  3  1  0  0  0  0
 11 12  1  0  0  0  0
 13 11  1  0  0  0  0
 14 13  1  0  0  0  0
 14 15  1  0  0  0  0
 16 14  1  0  0  0  0
 17 16  2  0  0  0  0
 17 19  1  0  0  0  0
 18 17  1  0  0  0  0
 19 13  2  0  0  0  0
 20 19  1  0  0  0  0
 20  9  2  0  0  0  0
 21  5  1  0  0  0  0
 22 24  1  0  0  0  0
 22 21  1  0  0  0  0
 23 22  1  0  0  0  0
 25 22  1  0  0  0  0
 25 26  1  0  0  0  0
 27 25  1  0  0  0  0
 28 25  1  0  0  0  0
 28 29  1  0  0  0  0
 29 30  2  0  0  0  0
 29 34  1  0  0  0  0
 30 35  1  0  0  0  0
 31 30  1  0  0  0  0
 32 31  2  0  0  0  0
 33 32  1  0  0  0  0
 33 28  2  0  0  0  0
 36 32  1  0  0  0  0
M  END
>  <minimizedAffinity>
-6.89525557

>  <minimizedRMSD>
0.572284341

$$$$
