REMARK  Name = 
REMARK  6 active torsions:
REMARK  status: ('A' for Active; 'I' for Inactive)
REMARK    1  A    between atoms: C_1  and  C_13
REMARK    2  A    between atoms: C_2  and  O_14
REMARK    3  A    between atoms: C_6  and  C_7
REMARK    4  A    between atoms: O_14  and  C_15
REMARK    5  A    between atoms: C_16  and  N_23
REMARK    6  A    between atoms: C_21  and  C_34
REMARK                            x       y       z     vdW  Elec       q    Type
REMARK                         _______ _______ _______ _____ _____    ______ ____
ROOT
ATOM      1  C   UNL     1      36.788  31.205  50.166  0.00  0.00    +0.000 A 
ATOM      2  C   UNL     1      35.657  30.422  49.954  0.00  0.00    +0.000 A 
ATOM      3  C   UNL     1      35.436  29.249  50.642  0.00  0.00    +0.000 A 
ATOM      4  N   UNL     1      36.383  28.883  51.549  0.00  0.00    +0.000 NA
ATOM      5  C   UNL     1      37.492  29.654  51.754  0.00  0.00    +0.000 A 
ATOM      6  N   UNL     1      37.670  30.777  51.073  0.00  0.00    +0.000 NA
ATOM      7  H   UNL     1      34.604  28.601  50.539  0.00  0.00    +0.000 HD
ATOM      8  H   UNL     1      38.225  29.330  52.485  0.00  0.00    +0.000 HD
ENDROOT
BRANCH   2  11
ATOM      9  C   UNL     1      34.131  29.723  48.146  0.00  0.00    +0.000 C 
ATOM     10  O   UNL     1      34.543  28.534  47.871  0.00  0.00    +0.000 OA
ATOM     11  N   UNL     1      34.624  30.702  49.038  0.00  0.00    +0.000 N 
ATOM     12  H   UNL     1      34.294  31.681  49.106  0.00  0.00    +0.000 HD
BRANCH   9  14
ATOM     13  C   UNL     1      32.109  31.095  47.652  0.00  0.00    +0.000 A 
ATOM     14  C   UNL     1      32.941  30.036  47.354  0.00  0.00    +0.000 A 
ATOM     15  C   UNL     1      32.539  29.318  46.249  0.00  0.00    +0.000 A 
ATOM     16  H   UNL     1      33.109  28.465  45.914  0.00  0.00    +0.000 HD
ATOM     17  C   UNL     1      31.429  29.580  45.478  0.00  0.00    +0.000 A 
ATOM     18  N   UNL     1      30.877  29.016  44.389  0.00  0.00    +0.000 N 
ATOM     19  H   UNL     1      31.227  28.188  43.874  0.00  0.00    +0.000 HD
ATOM     20  N   UNL     1      29.793  29.697  44.068  0.00  0.00    +0.000 NA
ATOM     21  C   UNL     1      29.596  30.715  44.919  0.00  0.00    +0.000 A 
ATOM     22  H   UNL     1      28.823  31.455  44.947  0.00  0.00    +0.000 HD
ATOM     23  C   UNL     1      30.634  30.652  45.824  0.00  0.00    +0.000 A 
ATOM     24  C   UNL     1      30.965  31.424  46.917  0.00  0.00    +0.000 A 
ENDBRANCH   9  14
ENDBRANCH   2  11
BRANCH   1  25
ATOM     25  O   UNL     1      36.819  32.314  49.396  0.00  0.00    +0.000 OA
BRANCH  25  27
ATOM     26  C   UNL     1      38.267  32.293  47.398  0.00  0.00    +0.000 A 
ATOM     27  C   UNL     1      37.906  32.735  48.663  0.00  0.00    +0.000 A 
ATOM     28  C   UNL     1      38.673  33.689  49.302  0.00  0.00    +0.000 A 
ATOM     29  C   UNL     1      39.802  34.205  48.680  0.00  0.00    +0.000 A 
ATOM     30  C   UNL     1      40.154  33.758  47.419  0.00  0.00    +0.000 A 
ATOM     31  C   UNL     1      39.373  32.811  46.812  0.00  0.00    +0.000 A 
ATOM     32  H   UNL     1      38.453  34.079  50.285  0.00  0.00    +0.000 HD
ATOM     33  H   UNL     1      40.417  34.957  49.169  0.00  0.00    +0.000 HD
ATOM     34  H   UNL     1      41.027  34.133  46.894  0.00  0.00    +0.000 HD
BRANCH  31  35
ATOM     35  C   UNL     1      39.762  32.340  45.459  0.00  0.00    +0.000 A 
ATOM     36  C   UNL     1      40.621  31.325  45.097  0.00  0.00    +0.000 A 
ATOM     37  C   UNL     1      40.647  31.283  43.706  0.00  0.00    +0.000 A 
ATOM     38  C   UNL     1      39.788  32.291  43.302  0.00  0.00    +0.000 A 
ATOM     39  O   UNL     1      39.277  32.903  44.358  0.00  0.00    +0.000 OA
ATOM     40  H   UNL     1      41.153  30.704  45.821  0.00  0.00    +0.000 HD
ATOM     41  H   UNL     1      41.221  30.602  43.118  0.00  0.00    +0.000 HD
ATOM     42  H   UNL     1      39.554  32.559  42.281  0.00  0.00    +0.000 HD
ENDBRANCH  31  35
BRANCH  26  44
ATOM     43  N   UNL     1      36.760  30.515  46.298  0.00  0.00    +0.000 NA
ATOM     44  C   UNL     1      37.428  31.305  46.799  0.00  0.00    +0.000 C 
ENDBRANCH  26  44
ENDBRANCH  25  27
ENDBRANCH   1  25
TORSDOF 6
