REMARK  Name = 
REMARK  5 active torsions:
REMARK  status: ('A' for Active; 'I' for Inactive)
REMARK    1  A    between atoms: C_1  and  C_2
REMARK    2  A    between atoms: C_1  and  O_9
REMARK    3  A    between atoms: C_2  and  C_3
REMARK    4  A    between atoms: O_9  and  C_14
REMARK    5  A    between atoms: C_12  and  C_26
REMARK                            x       y       z     vdW  Elec       q    Type
REMARK                         _______ _______ _______ _____ _____    ______ ____
ROOT
ATOM      1  C   UNL     1      37.228  30.185  51.292  0.00  0.00    +0.000 A 
ATOM      2  C   UNL     1      37.906  30.621  50.124  0.00  0.00    +0.000 A 
ATOM      3  C   UNL     1      37.430  30.220  48.894  0.00  0.00    +0.000 A 
ATOM      4  N   UNL     1      36.326  29.424  48.917  0.00  0.00    +0.000 NA
ATOM      5  C   UNL     1      35.694  29.018  50.012  0.00  0.00    +0.000 A 
ATOM      6  N   UNL     1      36.154  29.406  51.213  0.00  0.00    +0.000 NA
ATOM      7  H   UNL     1      37.591  30.493  52.269  0.00  0.00    +0.000 HD
ATOM      8  H   UNL     1      38.761  31.242  50.210  0.00  0.00    +0.000 HD
ENDROOT
BRANCH   3  10
ATOM      9  C   UNL     1      38.811  29.743  46.886  0.00  0.00    +0.000 A 
ATOM     10  C   UNL     1      38.049  30.609  47.634  0.00  0.00    +0.000 A 
ATOM     11  C   UNL     1      37.860  31.897  47.178  0.00  0.00    +0.000 A 
ATOM     12  H   UNL     1      37.253  32.590  47.773  0.00  0.00    +0.000 HD
ATOM     13  C   UNL     1      38.409  32.351  45.995  0.00  0.00    +0.000 A 
ATOM     14  N   UNL     1      38.410  33.510  45.300  0.00  0.00    +0.000 N 
ATOM     15  H   UNL     1      37.899  34.355  45.644  0.00  0.00    +0.000 HD
ATOM     16  N   UNL     1      39.131  33.339  44.205  0.00  0.00    +0.000 NA
ATOM     17  C   UNL     1      39.606  32.082  44.169  0.00  0.00    +0.000 A 
ATOM     18  H   UNL     1      40.233  31.657  43.380  0.00  0.00    +0.000 HD
ATOM     19  C   UNL     1      39.159  31.436  45.296  0.00  0.00    +0.000 A 
ATOM     20  C   UNL     1      39.391  30.136  45.689  0.00  0.00    +0.000 A 
ENDBRANCH   3  10
BRANCH   5  21
ATOM     21  O   UNL     1      34.611  28.223  49.736  0.00  0.00    +0.000 OA
BRANCH  21  22
ATOM     22  C   UNL     1      33.730  28.592  48.692  0.00  0.00    +0.000 C 
ATOM     23  H   UNL     1      34.332  28.954  47.831  0.00  0.00    +0.000 HD
ATOM     24  H   UNL     1      33.167  29.496  49.042  0.00  0.00    +0.000 HD
BRANCH  22  25
ATOM     25  C   UNL     1      32.817  27.462  48.335  0.00  0.00    +0.000 C 
ATOM     26  H   UNL     1      32.984  26.555  48.961  0.00  0.00    +0.000 HD
ATOM     27  H   UNL     1      33.065  27.157  47.297  0.00  0.00    +0.000 HD
BRANCH  25  28
ATOM     28  C   UNL     1      31.387  27.864  48.331  0.00  0.00    +0.000 A 
ATOM     29  C   UNL     1      30.693  27.741  49.519  0.00  0.00    +0.000 A 
ATOM     30  C   UNL     1      29.368  28.073  49.665  0.00  0.00    +0.000 A 
ATOM     31  N   UNL     1      28.718  28.540  48.600  0.00  0.00    +0.000 NA
ATOM     32  C   UNL     1      29.391  28.664  47.430  0.00  0.00    +0.000 A 
ATOM     33  N   UNL     1      30.695  28.339  47.281  0.00  0.00    +0.000 NA
ATOM     34  H   UNL     1      31.161  27.363  50.441  0.00  0.00    +0.000 HD
ATOM     35  H   UNL     1      28.824  27.977  50.595  0.00  0.00    +0.000 HD
ATOM     36  H   UNL     1      28.869  29.048  46.542  0.00  0.00    +0.000 HD
ENDBRANCH  25  28
ENDBRANCH  22  25
ENDBRANCH  21  22
ENDBRANCH   5  21
TORSDOF 5
