
 OpenBabel03272509493D

 36 39  0  0  0  0  0  0  0  0999 V2000
   37.1750   30.0760   51.4960 C   0  0  0  0  0  0  0  0  0  0  0  0
   37.7460   30.7530   50.3870 C   0  0  0  0  0  0  0  0  0  0  0  0
   37.2230   30.5260   49.1320 C   0  0  0  0  0  0  0  0  0  0  0  0
   36.1810   29.6530   49.0740 N   0  0  0  0  0  0  0  0  0  0  0  0
   35.6480   29.0210   50.1140 C   0  0  0  0  0  0  0  0  0  0  0  0
   36.1550   29.2390   51.3390 N   0  0  0  0  0  0  0  0  0  0  0  0
   37.5760   30.2450   52.4920 H   0  0  0  0  0  0  0  0  0  0  0  0
   38.5600   31.4170   50.5350 H   0  0  0  0  0  0  0  0  0  0  0  0
   38.8910   31.9100   47.9190 C   0  0  0  0  0  3  0  0  0  0  0  0
   37.7330   31.1680   47.9280 C   0  0  0  0  0  0  0  0  0  0  0  0
   37.0240   31.0220   46.7540 C   0  0  0  0  0  0  0  0  0  0  0  0
   36.1010   30.4310   46.7590 H   0  0  0  0  0  0  0  0  0  0  0  0
   37.4340   31.5950   45.5670 C   0  0  0  0  0  0  0  0  0  0  0  0
   36.9790   31.6370   44.2950 N   0  0  0  0  0  0  0  0  0  0  0  0
   36.0980   31.1480   44.0120 H   0  0  0  0  0  0  0  0  0  0  0  0
   37.8180   32.3620   43.5740 N   0  0  0  0  0  0  0  0  0  0  0  0
   38.8220   32.7980   44.3560 C   0  0  0  0  0  0  0  0  0  0  0  0
   39.6620   33.4200   44.0320 H   0  0  0  0  0  0  0  0  0  0  0  0
   38.5970   32.3230   45.6260 C   0  0  0  0  0  0  0  0  0  0  0  0
   39.3570   32.5110   46.7590 C   0  0  0  0  0  3  0  0  0  0  0  0
   34.6080   28.2000   49.7610 O   0  0  0  0  0  0  0  0  0  0  0  0
   33.7390   28.5950   48.7160 C   0  0  0  0  0  0  0  0  0  0  0  0
   34.3510   28.9790   47.8720 H   0  0  0  0  0  0  0  0  0  0  0  0
   33.1710   29.4890   49.0820 H   0  0  0  0  0  0  0  0  0  0  0  0
   32.8320   27.4730   48.3190 C   0  0  0  0  0  0  0  0  0  0  0  0
   33.0010   26.5470   48.9160 H   0  0  0  0  0  0  0  0  0  0  0  0
   33.0850   27.2030   47.2730 H   0  0  0  0  0  0  0  0  0  0  0  0
   31.4000   27.8690   48.3230 C   0  0  0  0  0  0  0  0  0  0  0  0
   30.7130   27.7430   49.5150 C   0  0  0  0  0  0  0  0  0  0  0  0
   29.3880   28.0690   49.6680 C   0  0  0  0  0  0  0  0  0  0  0  0
   28.7300   28.5350   48.6070 N   0  0  0  0  0  0  0  0  0  0  0  0
   29.3970   28.6620   47.4340 C   0  0  0  0  0  0  0  0  0  0  0  0
   30.7010   28.3420   47.2770 N   0  0  0  0  0  0  0  0  0  0  0  0
   31.1880   27.3660   50.4340 H   0  0  0  0  0  0  0  0  0  0  0  0
   28.8490   27.9700   50.6010 H   0  0  0  0  0  0  0  0  0  0  0  0
   28.8680   29.0450   46.5490 H   0  0  0  0  0  0  0  0  0  0  0  0
  1  7  1  0  0  0  0
  2  8  1  0  0  0  0
  2  1  2  0  0  0  0
  3  2  1  0  0  0  0
  4  3  2  0  0  0  0
  4  5  1  0  0  0  0
  5  6  2  0  0  0  0
  6  1  1  0  0  0  0
  9 10  1  0  0  0  0
 10  3  1  0  0  0  0
 11 12  1  0  0  0  0
 11 10  2  0  0  0  0
 13 19  2  0  0  0  0
 13 11  1  0  0  0  0
 14 13  1  0  0  0  0
 15 14  1  0  0  0  0
 16 14  1  0  0  0  0
 16 17  2  0  0  0  0
 17 19  1  0  0  0  0
 18 17  1  0  0  0  0
 19 20  1  0  0  0  0
 20  9  2  0  0  0  0
 21  5  1  0  0  0  0
 22 24  1  0  0  0  0
 22 21  1  0  0  0  0
 23 22  1  0  0  0  0
 25 28  1  0  0  0  0
 25 22  1  0  0  0  0
 25 26  1  0  0  0  0
 27 25  1  0  0  0  0
 28 29  1  0  0  0  0
 29 30  2  0  0  0  0
 29 34  1  0  0  0  0
 30 35  1  0  0  0  0
 31 30  1  0  0  0  0
 32 31  2  0  0  0  0
 33 32  1  0  0  0  0
 33 28  2  0  0  0  0
 36 32  1  0  0  0  0
M  END
>  <minimizedAffinity>
-6.52070761

>  <minimizedRMSD>
0.633073747

$$$$
