
 OpenBabel03272504413D

 48 51  0  0  0  0  0  0  0  0999 V2000
   34.7140   29.3430   48.6880 C   0  0  0  0  0  0  0  0  0  0  0  0
   35.6070   29.3780   49.3520 H   0  0  0  0  0  0  0  0  0  0  0  0
   34.0550   30.1590   49.1100 H   0  0  0  0  0  0  0  0  0  0  0  0
   37.4800   30.4040   48.4280 Cl  0  0  0  0  0  0  0  0  0  0  0  0
   36.3470   30.2670   47.0830 C   0  0  0  0  0  0  0  0  0  0  0  0
   36.7360   30.6620   45.8520 C   0  0  0  0  0  0  0  0  0  0  0  0
   35.8620   30.5610   44.7900 C   0  0  0  0  0  0  0  0  0  0  0  0
   34.5860   30.0480   45.0140 C   0  0  0  0  0  0  0  0  0  0  0  0
   34.2590   29.6590   46.3270 C   0  0  0  0  0  0  0  0  0  0  0  0
   35.1020   29.7520   47.3710 C   0  0  0  0  0  0  0  0  0  0  0  0
   36.1980   30.8870   43.7990 H   0  0  0  0  0  0  0  0  0  0  0  0
   33.9890   30.0110   44.1320 H   0  0  0  0  0  0  0  0  0  0  0  0
   33.2900   29.3170   46.2900 H   0  0  0  0  0  0  0  0  0  0  0  0
   39.7210   32.8290   45.9490 C   0  0  0  0  0  0  0  0  0  0  0  0
   40.6050   32.0910   45.0820 C   0  0  0  0  0  0  0  0  0  0  0  0
   40.1360   30.9020   44.5180 C   0  0  0  0  0  0  0  0  0  0  0  0
   38.8760   30.4880   44.8020 N   0  0  0  0  0  0  0  0  0  0  0  0
   38.0660   31.2010   45.6190 C   0  0  0  0  0  0  0  0  0  0  0  0
   38.4920   32.3460   46.1750 N   0  0  0  0  0  0  0  0  0  0  0  0
   40.0840   33.7490   46.3850 H   0  0  0  0  0  0  0  0  0  0  0  0
   41.5840   32.5230   44.9330 H   0  0  0  0  0  0  0  0  0  0  0  0
   41.0300   30.2150   43.6810 N   0  0  0  0  0  0  0  0  0  0  0  0
   40.8140   30.5590   42.7180 H   0  0  0  0  0  0  0  0  0  0  0  0
   41.7880   29.4980   43.8590 H   0  0  0  0  0  0  0  0  0  0  0  0
   34.0550   28.0490   48.8900 C   0  0  0  0  0  0  0  0  0  0  0  0
   34.1240   27.4100   47.9790 H   0  0  0  0  0  0  0  0  0  0  0  0
   34.5380   27.4240   49.6930 H   0  0  0  0  0  0  0  0  0  0  0  0
   32.7480   28.2030   49.2690 O   0  0  0  0  0  0  0  0  0  0  0  0
   32.4890   26.5410   47.2520 O   0  0  0  0  0  0  0  0  0  0  0  0
   31.7290   27.4270   48.2070 P   0  0  2  0  0  0  0  0  0  0  0  0
   30.9250   28.6680   47.3030 O   0  0  0  0  0  0  0  0  0  0  0  0
   31.0010   28.5650   44.8820 C   0  0  0  0  0  3  0  0  0  0  0  0
   30.3870   28.2670   46.0810 C   0  0  0  0  0  0  0  0  0  0  0  0
   29.2090   27.5500   45.9810 C   0  0  0  0  0  0  0  0  0  0  0  0
   28.6780   27.2860   46.9010 H   0  0  0  0  0  0  0  0  0  0  0  0
   28.6790   27.1550   44.7660 C   0  0  0  0  0  0  0  0  0  0  0  0
   27.5930   26.4740   44.3600 N   0  0  0  0  0  0  0  0  0  0  0  0
   26.8680   26.0770   45.0170 H   0  0  0  0  0  0  0  0  0  0  0  0
   27.5560   26.3700   43.0400 N   0  0  0  0  0  0  0  0  0  0  0  0
   28.6320   26.9880   42.5160 C   0  0  0  0  0  0  0  0  0  0  0  0
   28.9210   27.0960   41.4590 H   0  0  0  0  0  0  0  0  0  0  0  0
   29.3370   27.4800   43.5960 C   0  0  0  0  0  0  0  0  0  0  0  0
   30.5300   28.2040   43.6360 C   0  0  0  0  0  3  0  0  0  0  0  0
   30.5310   26.5610   48.9470 O   0  0  0  0  0  0  0  0  0  0  0  0
   29.7970   27.3570   49.7960 C   0  0  0  0  0  0  0  0  0  0  0  0
   29.3270   26.6580   50.9060 F   0  0  0  0  0  0  0  0  0  0  0  0
   30.5590   28.3890   50.3030 F   0  0  0  0  0  0  0  0  0  0  0  0
   28.7040   27.8970   49.1250 F   0  0  0  0  0  0  0  0  0  0  0  0
  1 25  1  0  0  0  0
  1  3  1  0  0  0  0
  1  2  1  0  0  0  0
  5 10  1  0  0  0  0
  5  4  1  0  0  0  0
  6  5  2  0  0  0  0
  7  8  2  0  0  0  0
  7  6  1  0  0  0  0
  8  9  1  0  0  0  0
  9 10  2  0  0  0  0
 10  1  1  0  0  0  0
 11  7  1  0  0  0  0
 12  8  1  0  0  0  0
 13  9  1  0  0  0  0
 14 19  1  0  0  0  0
 14 20  1  0  0  0  0
 15 14  2  0  0  0  0
 16 17  2  0  0  0  0
 16 15  1  0  0  0  0
 17 18  1  0  0  0  0
 18  6  1  0  0  0  0
 18 19  2  0  0  0  0
 21 15  1  0  0  0  0
 22 24  1  0  0  0  0
 22 16  1  0  0  0  0
 23 22  1  0  0  0  0
 25 28  1  0  0  0  0
 25 27  1  0  0  0  0
 26 25  1  0  0  0  0
 30 29  2  6  0  0  0
 30 44  1  0  0  0  0
 30 28  1  0  0  0  0
 31 30  1  0  0  0  0
 32 33  1  0  0  0  0
 33 31  1  0  0  0  0
 34 33  2  0  0  0  0
 34 35  1  0  0  0  0
 36 34  1  0  0  0  0
 37 36  1  0  0  0  0
 37 38  1  0  0  0  0
 39 37  1  0  0  0  0
 40 39  2  0  0  0  0
 40 42  1  0  0  0  0
 41 40  1  0  0  0  0
 42 43  1  0  0  0  0
 42 36  2  0  0  0  0
 43 32  2  0  0  0  0
 44 45  1  0  0  0  0
 45 47  1  0  0  0  0
 45 46  1  0  0  0  0
 48 45  1  0  0  0  0
M  END
>  <minimizedAffinity>
-5.83128738

>  <minimizedRMSD>
0.833375096

$$$$
