REMARK  Name = 
REMARK  10 active torsions:
REMARK  status: ('A' for Active; 'I' for Inactive)
REMARK    1  A    between atoms: C_3  and  C_12
REMARK    2  A    between atoms: C_7  and  C_15
REMARK    3  A    between atoms: C_10  and  N_14
REMARK    4  A    between atoms: C_15  and  C_16
REMARK    5  A    between atoms: C_16  and  O_17
REMARK    6  A    between atoms: O_17  and  P_19
REMARK    7  A    between atoms: P_19  and  O_20
REMARK    8  A    between atoms: P_19  and  O_21
REMARK    9  A    between atoms: O_20  and  C_38
REMARK   10  A    between atoms: O_21  and  C_22
REMARK                            x       y       z     vdW  Elec       q    Type
REMARK                         _______ _______ _______ _____ _____    ______ ____
ROOT
ATOM      1  C   UNL     1      34.830  29.424  48.829  0.00  0.00    +0.000 C 
ATOM      2  H   UNL     1      35.731  29.468  49.482  0.00  0.00    +0.000 HD
ATOM      3  H   UNL     1      34.175  30.245  49.249  0.00  0.00    +0.000 HD
ENDROOT
BRANCH   1  10
ATOM      4 CL   UNL     1      37.599  30.462  48.518  0.00  0.00    +0.000 Cl
ATOM      5  C   UNL     1      36.446  30.320  47.191  0.00  0.00    +0.000 A 
ATOM      6  C   UNL     1      36.820  30.700  45.951  0.00  0.00    +0.000 A 
ATOM      7  C   UNL     1      35.929  30.594  44.903  0.00  0.00    +0.000 A 
ATOM      8  C   UNL     1      34.653  30.093  45.150  0.00  0.00    +0.000 A 
ATOM      9  C   UNL     1      34.343  29.720  46.472  0.00  0.00    +0.000 A 
ATOM     10  C   UNL     1      35.201  29.817  47.502  0.00  0.00    +0.000 A 
ATOM     11  H   UNL     1      36.253  30.908  43.903  0.00  0.00    +0.000 HD
ATOM     12  H   UNL     1      34.043  30.052  44.278  0.00  0.00    +0.000 HD
ATOM     13  H   UNL     1      33.371  29.384  46.452  0.00  0.00    +0.000 HD
BRANCH   6  18
ATOM     14  C   UNL     1      39.828  32.835  45.998  0.00  0.00    +0.000 A 
ATOM     15  C   UNL     1      40.686  32.094  45.108  0.00  0.00    +0.000 A 
ATOM     16  C   UNL     1      40.193  30.913  44.546  0.00  0.00    +0.000 A 
ATOM     17  N   UNL     1      38.935  30.510  44.854  0.00  0.00    +0.000 NA
ATOM     18  C   UNL     1      38.150  31.226  45.693  0.00  0.00    +0.000 A 
ATOM     19  N   UNL     1      38.599  32.363  46.247  0.00  0.00    +0.000 NA
ATOM     20  H   UNL     1      40.210  33.748  46.432  0.00  0.00    +0.000 HD
ATOM     21  H   UNL     1      41.666  32.517  44.941  0.00  0.00    +0.000 HD
BRANCH  16  22
ATOM     22  N   UNL     1      41.062  30.223  43.686  0.00  0.00    +0.000 N 
ATOM     23  H   UNL     1      40.829  30.575  42.730  0.00  0.00    +0.000 HD
ATOM     24  H   UNL     1      41.816  29.497  43.843  0.00  0.00    +0.000 HD
ENDBRANCH  16  22
ENDBRANCH   6  18
ENDBRANCH   1  10
BRANCH   1  25
ATOM     25  C   UNL     1      34.175  28.132  49.055  0.00  0.00    +0.000 C 
ATOM     26  H   UNL     1      34.272  27.465  48.167  0.00  0.00    +0.000 HD
ATOM     27  H   UNL     1      34.641  27.537  49.890  0.00  0.00    +0.000 HD
BRANCH  25  28
ATOM     28  O   UNL     1      32.857  28.288  49.395  0.00  0.00    +0.000 OA
BRANCH  28  30
ATOM     29  O   UNL     1      32.662  26.696  47.315  0.00  0.00    +0.000 OA
ATOM     30  P   UNL     1      31.869  27.521  48.298  0.00  0.00    +0.000 P 
BRANCH  30  31
ATOM     31  O   UNL     1      31.030  28.769  47.436  0.00  0.00    +0.000 OA
BRANCH  31  33
ATOM     32  C   UNL     1      29.625  27.444  45.970  0.00  0.00    +0.000 A 
ATOM     33  C   UNL     1      30.581  28.421  46.163  0.00  0.00    +0.000 A 
ATOM     34  C   UNL     1      31.054  29.021  45.013  0.00  0.00    +0.000 A 
ATOM     35  H   UNL     1      31.814  29.803  45.106  0.00  0.00    +0.000 HD
ATOM     36  C   UNL     1      30.605  28.672  43.751  0.00  0.00    +0.000 A 
ATOM     37  N   UNL     1      30.865  29.061  42.490  0.00  0.00    +0.000 N 
ATOM     38  H   UNL     1      31.564  29.812  42.238  0.00  0.00    +0.000 HD
ATOM     39  N   UNL     1      30.134  28.383  41.619  0.00  0.00    +0.000 NA
ATOM     40  C   UNL     1      29.352  27.508  42.280  0.00  0.00    +0.000 A 
ATOM     41  H   UNL     1      28.623  26.788  41.876  0.00  0.00    +0.000 HD
ATOM     42  C   UNL     1      29.646  27.688  43.616  0.00  0.00    +0.000 A 
ATOM     43  C   UNL     1      29.131  27.046  44.745  0.00  0.00    +0.000 A 
ENDBRANCH  31  33
ENDBRANCH  30  31
BRANCH  30  44
ATOM     44  O   UNL     1      30.696  26.590  48.997  0.00  0.00    +0.000 OA
BRANCH  44  45
ATOM     45  C   UNL     1      29.847  27.356  49.763  0.00  0.00    +0.000 C 
ATOM     46  F   UNL     1      29.320  26.648  50.842  0.00  0.00    +0.000 F 
ATOM     47  F   UNL     1      30.504  28.436  50.315  0.00  0.00    +0.000 F 
ATOM     48  F   UNL     1      28.790  27.823  48.990  0.00  0.00    +0.000 F 
ENDBRANCH  44  45
ENDBRANCH  30  44
ENDBRANCH  28  30
ENDBRANCH  25  28
ENDBRANCH   1  25
TORSDOF 10
