
 OpenBabel03262521533D

 26 28  0  0  0  0  0  0  0  0999 V2000
   34.4310   29.1260   48.3120 C   0  0  0  0  0  0  0  0  0  0  0  0
   33.5520   29.5900   48.8240 H   0  0  0  0  0  0  0  0  0  0  0  0
   34.6520   29.7390   47.4140 H   0  0  0  0  0  0  0  0  0  0  0  0
   35.8720   29.1000   49.3940 S   0  0  0  0  0  0  0  0  0  0  0  0
   36.9460   30.4590   48.9380 C   0  0  0  0  0  0  0  0  0  0  0  0
   36.8280   31.5610   49.7660 C   0  0  0  0  0  0  0  0  0  0  0  0
   37.6420   32.6690   49.4710 C   0  0  0  0  0  0  0  0  0  0  0  0
   38.4920   32.5940   48.3980 N   0  0  0  0  0  0  0  0  0  0  0  0
   38.5530   31.4930   47.6380 C   0  0  0  0  0  0  0  0  0  0  0  0
   37.7870   30.4320   47.9040 N   0  0  0  0  0  0  0  0  0  0  0  0
   36.1740   31.6640   50.6230 H   0  0  0  0  0  0  0  0  0  0  0  0
   37.5980   33.5550   50.0760 H   0  0  0  0  0  0  0  0  0  0  0  0
   39.2430   31.4930   46.8030 H   0  0  0  0  0  0  0  0  0  0  0  0
   33.9120   27.4660   47.8010 S   0  0  0  0  0  0  0  0  0  0  0  0
   31.3580   26.6800   47.1820 C   0  0  0  0  0  3  0  0  0  0  0  0
   32.1560   27.3470   48.1080 C   0  0  0  0  0  0  0  0  0  0  0  0
   31.5280   27.8890   49.2280 C   0  0  0  0  0  0  0  0  0  0  0  0
   32.1430   28.4000   49.9340 H   0  0  0  0  0  0  0  0  0  0  0  0
   30.1620   27.7630   49.4070 C   0  0  0  0  0  0  0  0  0  0  0  0
   29.3640   28.2100   50.4130 N   0  0  0  0  0  0  0  0  0  0  0  0
   29.6100   28.7490   51.2740 H   0  0  0  0  0  0  0  0  0  0  0  0
   28.1210   27.8340   50.1220 N   0  0  0  0  0  0  0  0  0  0  0  0
   28.1380   27.1640   48.9560 C   0  0  0  0  0  0  0  0  0  0  0  0
   27.2290   26.7480   48.5010 H   0  0  0  0  0  0  0  0  0  0  0  0
   29.4260   27.0910   48.4560 C   0  0  0  0  0  0  0  0  0  0  0  0
   29.9790   26.5350   47.3330 C   0  0  0  0  0  3  0  0  0  0  0  0
  1  2  1  0  0  0  0
  1  4  1  0  0  0  0
  3  1  1  0  0  0  0
  5  4  1  0  0  0  0
  5  6  1  0  0  0  0
  6 11  1  0  0  0  0
  7  6  2  0  0  0  0
  7 12  1  0  0  0  0
  8  7  1  0  0  0  0
  9 10  1  0  0  0  0
  9  8  2  0  0  0  0
 10  5  2  0  0  0  0
 13  9  1  0  0  0  0
 14 16  1  0  0  0  0
 14  1  1  0  0  0  0
 15 26  2  0  0  0  0
 15 16  1  0  0  0  0
 16 17  2  0  0  0  0
 17 19  1  0  0  0  0
 17 18  1  0  0  0  0
 19 20  1  0  0  0  0
 20 21  1  0  0  0  0
 22 20  1  0  0  0  0
 23 22  2  0  0  0  0
 24 23  1  0  0  0  0
 25 23  1  0  0  0  0
 25 19  2  0  0  0  0
 26 25  1  0  0  0  0
M  END
>  <minimizedAffinity>
-4.8983736

>  <minimizedRMSD>
1.92669535

$$$$
