
 OpenBabel03262522083D

 43 47  0  0  1  0  0  0  0  0999 V2000
   38.7390   26.5100   32.9140 C   0  0  0  0  0  0  0  0  0  0  0  0
   39.8490   26.6740   32.3160 O   0  0  0  0  0  0  0  0  0  0  0  0
   38.7630   23.5630   36.0830 C   0  0  2  0  0  0  0  0  0  0  0  0
   38.1040   24.7010   36.7860 C   0  0  0  0  0  0  0  0  0  0  0  0
   37.9750   25.8270   35.8620 N   0  0  0  0  0  0  0  0  0  0  0  0
   37.5140   26.9120   35.0410 C   0  0  0  0  0  0  0  0  0  0  0  0
   36.4680   27.5740   34.9280 O   0  0  0  0  0  0  0  0  0  0  0  0
   38.7400   27.0350   34.3010 C   0  0  1  0  0  0  0  0  0  0  0  0
   39.2910   26.0930   35.3640 C   0  0  2  0  0  0  0  0  0  0  0  0
   39.7450   24.4410   34.7890 S   0  0  0  0  0  0  0  0  0  0  0  0
   38.5350   24.9820   37.7540 H   0  0  0  0  0  0  0  0  0  0  0  0
   37.0460   24.3690   36.9990 H   0  0  0  0  0  0  0  0  0  0  0  0
   39.3150   27.9830   34.4100 H   0  0  0  0  0  0  0  0  0  0  0  0
   40.0000   26.5400   36.0830 H   0  0  0  0  0  0  0  0  0  0  0  0
   37.8720   22.5030   35.5350 C   0  0  0  0  0  0  0  0  0  0  0  0
   38.3410   21.5020   35.7260 H   0  0  0  0  0  0  0  0  0  0  0  0
   36.8600   22.5720   35.9690 H   0  0  0  0  0  0  0  0  0  0  0  0
   37.7550   22.6500   34.4380 H   0  0  0  0  0  0  0  0  0  0  0  0
   39.8350   22.9760   37.0230 C   0  0  0  0  0  0  0  0  0  0  0  0
   40.3550   22.1390   36.5310 H   0  0  0  0  0  0  0  0  0  0  0  0
   40.5480   23.7900   37.2390 H   0  0  0  0  0  0  0  0  0  0  0  0
   39.2230   22.6200   38.2240 O   0  0  0  0  0  0  0  0  0  0  0  0
   39.9280   22.3170   38.8440 H   0  0  0  0  0  0  0  0  0  0  0  0
   37.6120   25.8780   32.3020 C   0  0  0  0  0  0  0  0  0  0  0  0
   36.6970   26.6700   31.6490 C   0  0  0  0  0  0  0  0  0  0  0  0
   35.5800   26.0350   31.0430 C   0  0  0  0  0  0  0  0  0  0  0  0
   35.4870   24.6670   31.1530 N   0  0  0  0  0  0  0  0  0  0  0  0
   36.3910   23.9460   31.7920 C   0  0  0  0  0  0  0  0  0  0  0  0
   37.4550   24.5320   32.3700 N   0  0  0  0  0  0  0  0  0  0  0  0
   36.8050   27.7550   31.5830 H   0  0  0  0  0  0  0  0  0  0  0  0
   34.8300   26.6110   30.5160 H   0  0  0  0  0  0  0  0  0  0  0  0
   35.0810   21.8980   32.2960 C   0  0  0  0  0  3  0  0  0  0  0  0
   36.2550   22.4960   31.8840 C   0  0  0  0  0  0  0  0  0  0  0  0
   37.3060   21.6610   31.5610 C   0  0  0  0  0  0  0  0  0  0  0  0
   38.2220   22.1630   31.2380 H   0  0  0  0  0  0  0  0  0  0  0  0
   37.2320   20.2790   31.6300 C   0  0  0  0  0  0  0  0  0  0  0  0
   38.1450   19.3100   31.3570 N   0  0  0  0  0  0  0  0  0  0  0  0
   39.1240   19.5080   31.0250 H   0  0  0  0  0  0  0  0  0  0  0  0
   37.5360   18.1370   31.5990 N   0  0  0  0  0  0  0  0  0  0  0  0
   36.2780   18.3650   32.0130 C   0  0  0  0  0  0  0  0  0  0  0  0
   35.5410   17.5950   32.2840 H   0  0  0  0  0  0  0  0  0  0  0  0
   36.0320   19.7230   32.0500 C   0  0  0  0  0  0  0  0  0  0  0  0
   34.9470   20.5060   32.3870 C   0  0  0  0  0  3  0  0  0  0  0  0
  1  8  1  0  0  0  0
  2  1  2  0  0  0  0
  3 15  1  6  0  0  0
  3  4  1  0  0  0  0
  3 19  1  0  0  0  0
  4 12  1  0  0  0  0
  4 11  1  0  0  0  0
  5  4  1  0  0  0  0
  6  5  1  0  0  0  0
  7  6  2  0  0  0  0
  8 13  1  1  0  0  0
  8  6  1  0  0  0  0
  8  9  1  0  0  0  0
  9  5  1  0  0  0  0
  9 14  1  1  0  0  0
 10  9  1  0  0  0  0
 10  3  1  0  0  0  0
 15 16  1  0  0  0  0
 15 17  1  0  0  0  0
 18 15  1  0  0  0  0
 19 21  1  0  0  0  0
 19 22  1  0  0  0  0
 20 19  1  0  0  0  0
 22 23  1  0  0  0  0
 24 29  1  0  0  0  0
 24  1  1  0  0  0  0
 25 24  2  0  0  0  0
 26 27  2  0  0  0  0
 26 25  1  0  0  0  0
 27 28  1  0  0  0  0
 28 33  1  0  0  0  0
 28 29  2  0  0  0  0
 30 25  1  0  0  0  0
 31 26  1  0  0  0  0
 32 43  1  0  0  0  0
 33 32  2  0  0  0  0
 34 36  2  0  0  0  0
 34 33  1  0  0  0  0
 35 34  1  0  0  0  0
 36 42  1  0  0  0  0
 37 39  1  0  0  0  0
 37 36  1  0  0  0  0
 38 37  1  0  0  0  0
 39 40  2  0  0  0  0
 40 42  1  0  0  0  0
 40 41  1  0  0  0  0
 42 43  2  0  0  0  0
M  END
>  <minimizedAffinity>
-6.61567736

$$$$

 OpenBabel03262522083D

 43 47  0  0  1  0  0  0  0  0999 V2000
   37.9630   26.1980   33.7680 C   0  0  0  0  0  0  0  0  0  0  0  0
   38.0320   25.0740   33.1780 O   0  0  0  0  0  0  0  0  0  0  0  0
   42.2530   26.0990   33.2110 C   0  0  2  0  0  0  0  0  0  0  0  0
   42.1530   25.5300   34.5850 C   0  0  0  0  0  0  0  0  0  0  0  0
   40.7450   25.4540   34.9720 N   0  0  0  0  0  0  0  0  0  0  0  0
   39.4370   25.0470   35.4080 C   0  0  0  0  0  0  0  0  0  0  0  0
   38.9400   24.0440   35.9480 O   0  0  0  0  0  0  0  0  0  0  0  0
   38.7880   26.2630   34.9990 C   0  0  1  0  0  0  0  0  0  0  0  0
   40.2110   26.7740   34.8140 C   0  0  2  0  0  0  0  0  0  0  0  0
   40.7100   27.1080   33.1100 S   0  0  0  0  0  0  0  0  0  0  0  0
   42.7870   25.9990   35.3460 H   0  0  0  0  0  0  0  0  0  0  0  0
   42.4970   24.4580   34.5080 H   0  0  0  0  0  0  0  0  0  0  0  0
   38.3390   26.8990   35.7950 H   0  0  0  0  0  0  0  0  0  0  0  0
   40.5520   27.5250   35.5480 H   0  0  0  0  0  0  0  0  0  0  0  0
   42.4040   25.1300   32.0890 C   0  0  0  0  0  0  0  0  0  0  0  0
   43.1490   25.5370   31.3570 H   0  0  0  0  0  0  0  0  0  0  0  0
   42.6970   24.1340   32.4640 H   0  0  0  0  0  0  0  0  0  0  0  0
   41.4230   25.0000   31.5810 H   0  0  0  0  0  0  0  0  0  0  0  0
   43.3810   27.1500   33.2090 C   0  0  0  0  0  0  0  0  0  0  0  0
   44.2600   26.7640   32.6700 H   0  0  0  0  0  0  0  0  0  0  0  0
   42.9830   28.0420   32.6940 H   0  0  0  0  0  0  0  0  0  0  0  0
   43.6520   27.5100   34.5280 O   0  0  0  0  0  0  0  0  0  0  0  0
   44.3200   28.2360   34.5120 H   0  0  0  0  0  0  0  0  0  0  0  0
   37.1630   27.2810   33.2870 C   0  0  0  0  0  0  0  0  0  0  0  0
   37.0060   27.4200   31.9280 C   0  0  0  0  0  0  0  0  0  0  0  0
   36.2100   28.4990   31.4580 C   0  0  0  0  0  0  0  0  0  0  0  0
   35.6490   29.3340   32.3960 N   0  0  0  0  0  0  0  0  0  0  0  0
   35.8280   29.1620   33.6940 C   0  0  0  0  0  0  0  0  0  0  0  0
   36.5780   28.1460   34.1550 N   0  0  0  0  0  0  0  0  0  0  0  0
   37.4680   26.7360   31.2140 H   0  0  0  0  0  0  0  0  0  0  0  0
   36.0530   28.6550   30.3980 H   0  0  0  0  0  0  0  0  0  0  0  0
   35.9670   30.9270   35.4340 C   0  0  0  0  0  3  0  0  0  0  0  0
   35.2140   30.0710   34.6560 C   0  0  0  0  0  0  0  0  0  0  0  0
   33.8440   30.1080   34.8260 C   0  0  0  0  0  0  0  0  0  0  0  0
   33.2750   29.4180   34.1970 H   0  0  0  0  0  0  0  0  0  0  0  0
   33.2100   30.9500   35.7240 C   0  0  0  0  0  0  0  0  0  0  0  0
   31.8960   31.1250   36.0260 N   0  0  0  0  0  0  0  0  0  0  0  0
   31.1150   30.5860   35.5680 H   0  0  0  0  0  0  0  0  0  0  0  0
   31.8480   32.0740   36.9750 N   0  0  0  0  0  0  0  0  0  0  0  0
   33.0970   32.4820   37.2600 C   0  0  0  0  0  0  0  0  0  0  0  0
   33.3690   33.2520   37.9970 H   0  0  0  0  0  0  0  0  0  0  0  0
   34.0080   31.7930   36.4850 C   0  0  0  0  0  0  0  0  0  0  0  0
   35.3820   31.8010   36.3590 C   0  0  0  0  0  3  0  0  0  0  0  0
  1  8  1  0  0  0  0
  2  1  2  0  0  0  0
  3 15  1  6  0  0  0
  3  4  1  0  0  0  0
  4  5  1  0  0  0  0
  4 11  1  0  0  0  0
  5  6  1  0  0  0  0
  6  7  2  0  0  0  0
  8  6  1  0  0  0  0
  8 13  1  1  0  0  0
  9  5  1  0  0  0  0
  9  8  1  0  0  0  0
  9 14  1  1  0  0  0
 10  3  1  0  0  0  0
 10  9  1  0  0  0  0
 12  4  1  0  0  0  0
 15 17  1  0  0  0  0
 16 15  1  0  0  0  0
 18 15  1  0  0  0  0
 19  3  1  0  0  0  0
 19 22  1  0  0  0  0
 20 19  1  0  0  0  0
 21 19  1  0  0  0  0
 23 22  1  0  0  0  0
 24  1  1  0  0  0  0
 24 29  1  0  0  0  0
 25 24  2  0  0  0  0
 26 25  1  0  0  0  0
 26 27  2  0  0  0  0
 27 28  1  0  0  0  0
 28 29  2  0  0  0  0
 28 33  1  0  0  0  0
 30 25  1  0  0  0  0
 31 26  1  0  0  0  0
 32 43  1  0  0  0  0
 33 34  1  0  0  0  0
 33 32  2  0  0  0  0
 34 36  2  0  0  0  0
 35 34  1  0  0  0  0
 36 37  1  0  0  0  0
 36 42  1  0  0  0  0
 37 39  1  0  0  0  0
 38 37  1  0  0  0  0
 39 40  2  0  0  0  0
 40 41  1  0  0  0  0
 42 40  1  0  0  0  0
 43 42  2  0  0  0  0
M  END
>  <minimizedAffinity>
-6.28035545

$$$$

 OpenBabel03262522083D

 43 47  0  0  1  0  0  0  0  0999 V2000
   34.1550   29.7980   32.5510 C   0  0  0  0  0  0  0  0  0  0  0  0
   33.0860   29.1600   32.8080 O   0  0  0  0  0  0  0  0  0  0  0  0
   32.9950   31.7900   36.2130 C   0  0  2  0  0  0  0  0  0  0  0  0
   32.4110   32.7240   35.2090 C   0  0  0  0  0  0  0  0  0  0  0  0
   32.6780   32.2130   33.8650 N   0  0  0  0  0  0  0  0  0  0  0  0
   32.5980   31.7370   32.5120 C   0  0  0  0  0  0  0  0  0  0  0  0
   31.7310   31.6960   31.6220 O   0  0  0  0  0  0  0  0  0  0  0  0
   33.9550   31.2650   32.4670 C   0  0  1  0  0  0  0  0  0  0  0  0
   34.0960   32.0270   33.7790 C   0  0  2  0  0  0  0  0  0  0  0  0
   34.3660   31.0140   35.2500 S   0  0  0  0  0  0  0  0  0  0  0  0
   32.6690   33.7820   35.3290 H   0  0  0  0  0  0  0  0  0  0  0  0
   31.2900   32.6600   35.3330 H   0  0  0  0  0  0  0  0  0  0  0  0
   34.6500   31.7620   31.7520 H   0  0  0  0  0  0  0  0  0  0  0  0
   34.7030   32.9480   33.7370 H   0  0  0  0  0  0  0  0  0  0  0  0
   32.0690   30.8000   36.8310 C   0  0  0  0  0  0  0  0  0  0  0  0
   32.3050   30.7180   37.9250 H   0  0  0  0  0  0  0  0  0  0  0  0
   31.0160   31.0810   36.6580 H   0  0  0  0  0  0  0  0  0  0  0  0
   32.2140   29.8090   36.3490 H   0  0  0  0  0  0  0  0  0  0  0  0
   33.7240   32.6300   37.2810 C   0  0  0  0  0  0  0  0  0  0  0  0
   33.6750   33.7000   37.0220 H   0  0  0  0  0  0  0  0  0  0  0  0
   33.2050   32.4480   38.2370 H   0  0  0  0  0  0  0  0  0  0  0  0
   35.0260   32.1490   37.4080 O   0  0  0  0  0  0  0  0  0  0  0  0
   35.4590   32.6420   38.1440 H   0  0  0  0  0  0  0  0  0  0  0  0
   35.4180   29.1540   32.3600 C   0  0  0  0  0  0  0  0  0  0  0  0
   36.1270   29.4380   31.2160 C   0  0  0  0  0  0  0  0  0  0  0  0
   37.3790   28.7940   31.0340 C   0  0  0  0  0  0  0  0  0  0  0  0
   37.8000   27.9260   32.0140 N   0  0  0  0  0  0  0  0  0  0  0  0
   37.0840   27.6830   33.0970 C   0  0  0  0  0  0  0  0  0  0  0  0
   35.8960   28.2850   33.2860 N   0  0  0  0  0  0  0  0  0  0  0  0
   35.7590   30.1340   30.4590 H   0  0  0  0  0  0  0  0  0  0  0  0
   37.9780   28.9820   30.1510 H   0  0  0  0  0  0  0  0  0  0  0  0
   37.8940   27.1750   35.3890 C   0  0  0  0  0  3  0  0  0  0  0  0
   37.5670   26.7550   34.1140 C   0  0  0  0  0  0  0  0  0  0  0  0
   37.7190   25.4110   33.8380 C   0  0  0  0  0  0  0  0  0  0  0  0
   37.4520   25.1090   32.8210 H   0  0  0  0  0  0  0  0  0  0  0  0
   38.1740   24.4880   34.7650 C   0  0  0  0  0  0  0  0  0  0  0  0
   38.3840   23.1480   34.6780 N   0  0  0  0  0  0  0  0  0  0  0  0
   38.2100   22.5850   33.8050 H   0  0  0  0  0  0  0  0  0  0  0  0
   38.8320   22.7560   35.8810 N   0  0  0  0  0  0  0  0  0  0  0  0
   38.9020   23.8200   36.7000 C   0  0  0  0  0  0  0  0  0  0  0  0
   39.2340   23.8040   37.7480 H   0  0  0  0  0  0  0  0  0  0  0  0
   38.4900   24.9560   36.0320 C   0  0  0  0  0  0  0  0  0  0  0  0
   38.3590   26.2880   36.3680 C   0  0  0  0  0  3  0  0  0  0  0  0
  1  2  2  0  0  0  0
  3 15  1  1  0  0  0
  3 19  1  0  0  0  0
  4 11  1  0  0  0  0
  4 12  1  0  0  0  0
  4  3  1  0  0  0  0
  5  4  1  0  0  0  0
  6  5  1  0  0  0  0
  7  6  2  0  0  0  0
  8 13  1  6  0  0  0
  8  6  1  0  0  0  0
  8  1  1  0  0  0  0
  8  9  1  0  0  0  0
  9 14  1  6  0  0  0
  9  5  1  0  0  0  0
  9 10  1  0  0  0  0
 10  3  1  0  0  0  0
 15 16  1  0  0  0  0
 17 15  1  0  0  0  0
 18 15  1  0  0  0  0
 19 22  1  0  0  0  0
 19 21  1  0  0  0  0
 20 19  1  0  0  0  0
 22 23  1  0  0  0  0
 24  1  1  0  0  0  0
 24 29  1  0  0  0  0
 25 24  2  0  0  0  0
 26 25  1  0  0  0  0
 26 27  2  0  0  0  0
 27 28  1  0  0  0  0
 28 29  2  0  0  0  0
 28 33  1  0  0  0  0
 30 25  1  0  0  0  0
 31 26  1  0  0  0  0
 32 43  1  0  0  0  0
 33 32  2  0  0  0  0
 34 33  1  0  0  0  0
 34 36  2  0  0  0  0
 35 34  1  0  0  0  0
 36 42  1  0  0  0  0
 37 36  1  0  0  0  0
 37 39  1  0  0  0  0
 38 37  1  0  0  0  0
 39 40  2  0  0  0  0
 40 41  1  0  0  0  0
 42 43  2  0  0  0  0
 42 40  1  0  0  0  0
M  END
>  <minimizedAffinity>
-6.20661879

$$$$

 OpenBabel03262522083D

 43 47  0  0  1  0  0  0  0  0999 V2000
   39.0840   26.6840   34.3690 C   0  0  0  0  0  0  0  0  0  0  0  0
   39.7590   27.2630   35.2770 O   0  0  0  0  0  0  0  0  0  0  0  0
   38.0170   23.6210   37.2340 C   0  0  2  0  0  0  0  0  0  0  0  0
   39.2640   23.0310   36.6690 C   0  0  0  0  0  0  0  0  0  0  0  0
   39.8160   23.9410   35.6670 N   0  0  0  0  0  0  0  0  0  0  0  0
   40.6410   24.8130   34.8760 C   0  0  0  0  0  0  0  0  0  0  0  0
   41.8480   25.1040   34.8230 O   0  0  0  0  0  0  0  0  0  0  0  0
   39.5590   25.3110   34.0720 C   0  0  1  0  0  0  0  0  0  0  0  0
   38.7670   24.1820   34.7200 C   0  0  2  0  0  0  0  0  0  0  0  0
   37.4480   24.6940   35.8440 S   0  0  0  0  0  0  0  0  0  0  0  0
   39.1890   21.9950   36.3190 H   0  0  0  0  0  0  0  0  0  0  0  0
   40.0180   23.0230   37.5090 H   0  0  0  0  0  0  0  0  0  0  0  0
   39.5790   25.0800   32.9830 H   0  0  0  0  0  0  0  0  0  0  0  0
   38.5060   23.3370   34.0610 H   0  0  0  0  0  0  0  0  0  0  0  0
   38.1420   24.3450   38.5310 C   0  0  0  0  0  0  0  0  0  0  0  0
   37.2590   24.0890   39.1740 H   0  0  0  0  0  0  0  0  0  0  0  0
   39.0970   24.1030   39.0290 H   0  0  0  0  0  0  0  0  0  0  0  0
   38.1530   25.4410   38.3410 H   0  0  0  0  0  0  0  0  0  0  0  0
   36.9500   22.5110   37.3030 C   0  0  0  0  0  0  0  0  0  0  0  0
   36.9520   22.0430   38.3000 H   0  0  0  0  0  0  0  0  0  0  0  0
   35.9760   22.9950   37.1140 H   0  0  0  0  0  0  0  0  0  0  0  0
   37.1830   21.6090   36.2660 O   0  0  0  0  0  0  0  0  0  0  0  0
   36.4530   20.9460   36.2720 H   0  0  0  0  0  0  0  0  0  0  0  0
   37.9810   27.3060   33.7040 C   0  0  0  0  0  0  0  0  0  0  0  0
   37.8010   27.0520   32.3650 C   0  0  0  0  0  0  0  0  0  0  0  0
   36.7040   27.6740   31.7120 C   0  0  0  0  0  0  0  0  0  0  0  0
   35.8930   28.4920   32.4640 N   0  0  0  0  0  0  0  0  0  0  0  0
   36.1060   28.7080   33.7510 C   0  0  0  0  0  0  0  0  0  0  0  0
   37.1390   28.1260   34.3840 N   0  0  0  0  0  0  0  0  0  0  0  0
   38.4670   26.3960   31.8000 H   0  0  0  0  0  0  0  0  0  0  0  0
   36.5160   27.5090   30.6580 H   0  0  0  0  0  0  0  0  0  0  0  0
   33.8460   29.4650   34.4480 C   0  0  0  0  0  3  0  0  0  0  0  0
   35.2210   29.5820   34.5130 C   0  0  0  0  0  0  0  0  0  0  0  0
   35.7300   30.5690   35.3340 C   0  0  0  0  0  0  0  0  0  0  0  0
   36.8200   30.6380   35.3640 H   0  0  0  0  0  0  0  0  0  0  0  0
   34.9360   31.4260   36.0780 C   0  0  0  0  0  0  0  0  0  0  0  0
   35.2500   32.4400   36.9270 N   0  0  0  0  0  0  0  0  0  0  0  0
   36.2370   32.7320   37.1480 H   0  0  0  0  0  0  0  0  0  0  0  0
   34.0840   32.9350   37.3740 N   0  0  0  0  0  0  0  0  0  0  0  0
   33.0680   32.2500   36.8210 C   0  0  0  0  0  0  0  0  0  0  0  0
   31.9980   32.4310   37.0010 H   0  0  0  0  0  0  0  0  0  0  0  0
   33.5600   31.2710   35.9810 C   0  0  0  0  0  0  0  0  0  0  0  0
   32.9930   30.3030   35.1780 C   0  0  0  0  0  3  0  0  0  0  0  0
  1  2  2  0  0  0  0
  3 19  1  1  0  0  0
  3 15  1  0  0  0  0
  4  3  1  0  0  0  0
  4 12  1  0  0  0  0
  5  4  1  0  0  0  0
  6  5  1  0  0  0  0
  7  6  2  0  0  0  0
  8 13  1  6  0  0  0
  8  1  1  0  0  0  0
  8  9  1  0  0  0  0
  8  6  1  0  0  0  0
  9 14  1  6  0  0  0
  9  5  1  0  0  0  0
  9 10  1  0  0  0  0
 10  3  1  0  0  0  0
 11  4  1  0  0  0  0
 15 17  1  0  0  0  0
 15 16  1  0  0  0  0
 18 15  1  0  0  0  0
 19 20  1  0  0  0  0
 21 19  1  0  0  0  0
 22 23  1  0  0  0  0
 22 19  1  0  0  0  0
 24  1  1  0  0  0  0
 24 29  1  0  0  0  0
 25 24  2  0  0  0  0
 26 25  1  0  0  0  0
 26 27  2  0  0  0  0
 27 28  1  0  0  0  0
 28 29  2  0  0  0  0
 28 33  1  0  0  0  0
 30 25  1  0  0  0  0
 31 26  1  0  0  0  0
 32 33  2  0  0  0  0
 32 43  1  0  0  0  0
 33 34  1  0  0  0  0
 34 35  1  0  0  0  0
 34 36  2  0  0  0  0
 36 37  1  0  0  0  0
 37 38  1  0  0  0  0
 37 39  1  0  0  0  0
 40 41  1  0  0  0  0
 40 39  2  0  0  0  0
 42 36  1  0  0  0  0
 42 40  1  0  0  0  0
 43 42  2  0  0  0  0
M  END
>  <minimizedAffinity>
-6.18829298

$$$$

 OpenBabel03262522083D

 43 47  0  0  1  0  0  0  0  0999 V2000
   35.9450   29.2930   33.3400 C   0  0  0  0  0  0  0  0  0  0  0  0
   36.1610   30.3010   32.5950 O   0  0  0  0  0  0  0  0  0  0  0  0
   32.2320   31.4720   32.9020 C   0  0  2  0  0  0  0  0  0  0  0  0
   32.6390   31.9160   34.2650 C   0  0  0  0  0  0  0  0  0  0  0  0
   33.9170   31.2950   34.6120 N   0  0  0  0  0  0  0  0  0  0  0  0
   35.2700   31.0120   35.0050 C   0  0  0  0  0  0  0  0  0  0  0  0
   36.2090   31.6440   35.5180 O   0  0  0  0  0  0  0  0  0  0  0  0
   35.2320   29.6360   34.5930 C   0  0  1  0  0  0  0  0  0  0  0  0
   33.7350   29.8830   34.4560 C   0  0  2  0  0  0  0  0  0  0  0  0
   33.0840   29.8390   32.7710 S   0  0  0  0  0  0  0  0  0  0  0  0
   31.8810   31.8140   35.0510 H   0  0  0  0  0  0  0  0  0  0  0  0
   32.8590   33.0210   34.1850 H   0  0  0  0  0  0  0  0  0  0  0  0
   35.3380   28.8580   35.3840 H   0  0  0  0  0  0  0  0  0  0  0  0
   33.0940   29.3910   35.2090 H   0  0  0  0  0  0  0  0  0  0  0  0
   32.5380   32.3940   31.7740 C   0  0  0  0  0  0  0  0  0  0  0  0
   31.6660   32.4040   31.0680 H   0  0  0  0  0  0  0  0  0  0  0  0
   32.7790   33.4060   32.1430 H   0  0  0  0  0  0  0  0  0  0  0  0
   33.4420   32.0310   31.2360 H   0  0  0  0  0  0  0  0  0  0  0  0
   30.7350   31.1030   32.9460 C   0  0  0  0  0  0  0  0  0  0  0  0
   30.3090   31.3610   33.9280 H   0  0  0  0  0  0  0  0  0  0  0  0
   30.2410   31.6910   32.1530 H   0  0  0  0  0  0  0  0  0  0  0  0
   30.6020   29.7550   32.6190 O   0  0  0  0  0  0  0  0  0  0  0  0
   29.6380   29.5490   32.5760 H   0  0  0  0  0  0  0  0  0  0  0  0
   36.3590   27.9680   32.9940 C   0  0  0  0  0  0  0  0  0  0  0  0
   36.1210   27.5260   31.7140 C   0  0  0  0  0  0  0  0  0  0  0  0
   36.5350   26.2090   31.3780 C   0  0  0  0  0  0  0  0  0  0  0  0
   37.1450   25.4620   32.3590 N   0  0  0  0  0  0  0  0  0  0  0  0
   37.3510   25.9300   33.5770 C   0  0  0  0  0  0  0  0  0  0  0  0
   36.9670   27.1740   33.9110 N   0  0  0  0  0  0  0  0  0  0  0  0
   35.6340   28.1490   30.9620 H   0  0  0  0  0  0  0  0  0  0  0  0
   36.3720   25.8110   30.3840 H   0  0  0  0  0  0  0  0  0  0  0  0
   39.0070   24.2120   34.2660 C   0  0  0  0  0  3  0  0  0  0  0  0
   38.0040   25.1040   34.5890 C   0  0  0  0  0  0  0  0  0  0  0  0
   37.6370   25.1840   35.9180 C   0  0  0  0  0  0  0  0  0  0  0  0
   36.8400   25.8990   36.1420 H   0  0  0  0  0  0  0  0  0  0  0  0
   38.2220   24.4250   36.9170 C   0  0  0  0  0  0  0  0  0  0  0  0
   37.9980   24.3670   38.2560 N   0  0  0  0  0  0  0  0  0  0  0  0
   37.2780   24.9520   38.7540 H   0  0  0  0  0  0  0  0  0  0  0  0
   38.8530   23.4530   38.7440 N   0  0  0  0  0  0  0  0  0  0  0  0
   39.5910   22.9510   37.7390 C   0  0  0  0  0  0  0  0  0  0  0  0
   40.3740   22.1850   37.8360 H   0  0  0  0  0  0  0  0  0  0  0  0
   39.2260   23.5420   36.5460 C   0  0  0  0  0  0  0  0  0  0  0  0
   39.6350   23.4170   35.2340 C   0  0  0  0  0  3  0  0  0  0  0  0
  1  8  1  0  0  0  0
  2  1  2  0  0  0  0
  3 15  1  6  0  0  0
  3 19  1  0  0  0  0
  3  4  1  0  0  0  0
  4  5  1  0  0  0  0
  4 11  1  0  0  0  0
  5  6  1  0  0  0  0
  6  7  2  0  0  0  0
  8  6  1  0  0  0  0
  8 13  1  1  0  0  0
  9  8  1  0  0  0  0
  9  5  1  0  0  0  0
  9 14  1  1  0  0  0
 10  3  1  0  0  0  0
 10  9  1  0  0  0  0
 12  4  1  0  0  0  0
 15 17  1  0  0  0  0
 16 15  1  0  0  0  0
 18 15  1  0  0  0  0
 19 20  1  0  0  0  0
 21 19  1  0  0  0  0
 22 19  1  0  0  0  0
 23 22  1  0  0  0  0
 24  1  1  0  0  0  0
 24 29  1  0  0  0  0
 25 24  2  0  0  0  0
 26 25  1  0  0  0  0
 26 27  2  0  0  0  0
 27 28  1  0  0  0  0
 28 29  2  0  0  0  0
 28 33  1  0  0  0  0
 30 25  1  0  0  0  0
 31 26  1  0  0  0  0
 32 33  2  0  0  0  0
 32 43  1  0  0  0  0
 33 34  1  0  0  0  0
 34 35  1  0  0  0  0
 34 36  2  0  0  0  0
 36 37  1  0  0  0  0
 37 39  1  0  0  0  0
 37 38  1  0  0  0  0
 40 41  1  0  0  0  0
 40 39  2  0  0  0  0
 42 36  1  0  0  0  0
 42 40  1  0  0  0  0
 43 42  2  0  0  0  0
M  END
>  <minimizedAffinity>
-6.12794399

$$$$

 OpenBabel03262522083D

 43 47  0  0  1  0  0  0  0  0999 V2000
   39.5100   26.5170   34.1380 C   0  0  0  0  0  0  0  0  0  0  0  0
   39.9720   27.0950   35.1720 O   0  0  0  0  0  0  0  0  0  0  0  0
   38.1020   23.6860   37.0930 C   0  0  2  0  0  0  0  0  0  0  0  0
   39.3870   23.0400   36.7000 C   0  0  0  0  0  0  0  0  0  0  0  0
   40.0540   23.8670   35.6960 N   0  0  0  0  0  0  0  0  0  0  0  0
   40.9710   24.6680   34.9330 C   0  0  0  0  0  0  0  0  0  0  0  0
   42.1830   24.9390   34.9810 O   0  0  0  0  0  0  0  0  0  0  0  0
   39.9850   25.1200   33.9900 C   0  0  1  0  0  0  0  0  0  0  0  0
   39.1100   24.0520   34.6340 C   0  0  2  0  0  0  0  0  0  0  0  0
   37.6960   24.6620   35.5800 S   0  0  0  0  0  0  0  0  0  0  0  0
   39.3260   21.9820   36.4190 H   0  0  0  0  0  0  0  0  0  0  0  0
   40.0530   23.0840   37.6100 H   0  0  0  0  0  0  0  0  0  0  0  0
   40.1080   24.8090   32.9280 H   0  0  0  0  0  0  0  0  0  0  0  0
   38.8990   23.1640   34.0130 H   0  0  0  0  0  0  0  0  0  0  0  0
   38.1120   24.5000   38.3410 C   0  0  0  0  0  0  0  0  0  0  0  0
   37.1640   24.3030   38.9080 H   0  0  0  0  0  0  0  0  0  0  0  0
   39.0070   24.2830   38.9480 H   0  0  0  0  0  0  0  0  0  0  0  0
   38.1640   25.5790   38.0750 H   0  0  0  0  0  0  0  0  0  0  0  0
   37.0110   22.5970   37.1330 C   0  0  0  0  0  0  0  0  0  0  0  0
   36.8720   22.2360   38.1640 H   0  0  0  0  0  0  0  0  0  0  0  0
   36.0820   23.0660   36.7670 H   0  0  0  0  0  0  0  0  0  0  0  0
   37.3590   21.5900   36.2340 O   0  0  0  0  0  0  0  0  0  0  0  0
   36.6190   20.9380   36.2110 H   0  0  0  0  0  0  0  0  0  0  0  0
   38.6270   27.1600   33.2170 C   0  0  0  0  0  0  0  0  0  0  0  0
   38.9540   27.1420   31.8810 C   0  0  0  0  0  0  0  0  0  0  0  0
   38.0710   27.7830   30.9720 C   0  0  0  0  0  0  0  0  0  0  0  0
   36.9470   28.3830   31.4890 N   0  0  0  0  0  0  0  0  0  0  0  0
   36.6730   28.3760   32.7810 C   0  0  0  0  0  0  0  0  0  0  0  0
   37.4980   27.7730   33.6550 N   0  0  0  0  0  0  0  0  0  0  0  0
   39.8570   26.6540   31.5080 H   0  0  0  0  0  0  0  0  0  0  0  0
   38.2810   27.7980   29.9090 H   0  0  0  0  0  0  0  0  0  0  0  0
   35.4860   29.8130   34.4230 C   0  0  0  0  0  3  0  0  0  0  0  0
   35.4680   29.0240   33.2890 C   0  0  0  0  0  0  0  0  0  0  0  0
   34.2540   28.8690   32.6500 C   0  0  0  0  0  0  0  0  0  0  0  0
   34.2720   28.2390   31.7570 H   0  0  0  0  0  0  0  0  0  0  0  0
   33.0810   29.4600   33.0890 C   0  0  0  0  0  0  0  0  0  0  0  0
   31.8130   29.4230   32.6010 N   0  0  0  0  0  0  0  0  0  0  0  0
   31.5340   28.8860   31.7390 H   0  0  0  0  0  0  0  0  0  0  0  0
   31.0680   30.1790   33.4230 N   0  0  0  0  0  0  0  0  0  0  0  0
   31.8470   30.6750   34.4010 C   0  0  0  0  0  0  0  0  0  0  0  0
   31.5130   31.3290   35.2190 H   0  0  0  0  0  0  0  0  0  0  0  0
   33.1470   30.2440   34.2320 C   0  0  0  0  0  0  0  0  0  0  0  0
   34.3310   30.4350   34.9130 C   0  0  0  0  0  3  0  0  0  0  0  0
  1  2  2  0  0  0  0
  3 19  1  1  0  0  0
  3 15  1  0  0  0  0
  4  3  1  0  0  0  0
  4 12  1  0  0  0  0
  5  4  1  0  0  0  0
  6  7  2  0  0  0  0
  6  5  1  0  0  0  0
  8 13  1  6  0  0  0
  8  1  1  0  0  0  0
  8  9  1  0  0  0  0
  8  6  1  0  0  0  0
  9 14  1  6  0  0  0
  9 10  1  0  0  0  0
  9  5  1  0  0  0  0
 10  3  1  0  0  0  0
 11  4  1  0  0  0  0
 15 16  1  0  0  0  0
 15 17  1  0  0  0  0
 18 15  1  0  0  0  0
 19 20  1  0  0  0  0
 21 19  1  0  0  0  0
 22 19  1  0  0  0  0
 23 22  1  0  0  0  0
 24 29  1  0  0  0  0
 24  1  1  0  0  0  0
 25 24  2  0  0  0  0
 26 27  2  0  0  0  0
 26 25  1  0  0  0  0
 27 28  1  0  0  0  0
 28 33  1  0  0  0  0
 28 29  2  0  0  0  0
 30 25  1  0  0  0  0
 31 26  1  0  0  0  0
 32 43  1  0  0  0  0
 33 32  2  0  0  0  0
 34 36  2  0  0  0  0
 34 33  1  0  0  0  0
 35 34  1  0  0  0  0
 36 42  1  0  0  0  0
 37 36  1  0  0  0  0
 37 39  1  0  0  0  0
 38 37  1  0  0  0  0
 39 40  2  0  0  0  0
 40 41  1  0  0  0  0
 42 40  1  0  0  0  0
 42 43  2  0  0  0  0
M  END
>  <minimizedAffinity>
-5.99475908

$$$$

 OpenBabel03262522083D

 43 47  0  0  1  0  0  0  0  0999 V2000
   37.6410   25.6680   33.7880 C   0  0  0  0  0  0  0  0  0  0  0  0
   37.5570   24.5910   33.1180 O   0  0  0  0  0  0  0  0  0  0  0  0
   41.8670   24.7370   33.7650 C   0  0  2  0  0  0  0  0  0  0  0  0
   41.4660   24.1110   35.0580 C   0  0  0  0  0  0  0  0  0  0  0  0
   40.0290   24.2980   35.2570 N   0  0  0  0  0  0  0  0  0  0  0  0
   38.6200   24.1380   35.4860 C   0  0  0  0  0  0  0  0  0  0  0  0
   37.8680   23.2230   35.8650 O   0  0  0  0  0  0  0  0  0  0  0  0
   38.2810   25.4830   35.1130 C   0  0  1  0  0  0  0  0  0  0  0  0
   39.7880   25.7060   35.1560 C   0  0  2  0  0  0  0  0  0  0  0  0
   40.5770   26.0420   33.5660 S   0  0  0  0  0  0  0  0  0  0  0  0
   42.0650   24.3910   35.9330 H   0  0  0  0  0  0  0  0  0  0  0  0
   41.6050   22.9990   34.9270 H   0  0  0  0  0  0  0  0  0  0  0  0
   37.8550   26.1450   35.9010 H   0  0  0  0  0  0  0  0  0  0  0  0
   40.1590   26.3230   35.9930 H   0  0  0  0  0  0  0  0  0  0  0  0
   41.9850   23.8320   32.5880 C   0  0  0  0  0  0  0  0  0  0  0  0
   42.8910   24.1260   31.9950 H   0  0  0  0  0  0  0  0  0  0  0  0
   42.0250   22.7750   32.9030 H   0  0  0  0  0  0  0  0  0  0  0  0
   41.0790   23.9370   31.9510 H   0  0  0  0  0  0  0  0  0  0  0  0
   43.1650   25.5350   34.0020 C   0  0  0  0  0  0  0  0  0  0  0  0
   43.9790   24.8560   34.3010 H   0  0  0  0  0  0  0  0  0  0  0  0
   43.4130   26.0260   33.0460 H   0  0  0  0  0  0  0  0  0  0  0  0
   42.9040   26.5350   34.9370 O   0  0  0  0  0  0  0  0  0  0  0  0
   43.7180   27.0860   35.0240 H   0  0  0  0  0  0  0  0  0  0  0  0
   37.1580   26.9240   33.3040 C   0  0  0  0  0  0  0  0  0  0  0  0
   37.4910   27.2990   32.0230 C   0  0  0  0  0  0  0  0  0  0  0  0
   37.0080   28.5480   31.5500 C   0  0  0  0  0  0  0  0  0  0  0  0
   36.2400   29.3020   32.4070 N   0  0  0  0  0  0  0  0  0  0  0  0
   35.9460   28.9010   33.6310 C   0  0  0  0  0  0  0  0  0  0  0  0
   36.3950   27.7210   34.0940 N   0  0  0  0  0  0  0  0  0  0  0  0
   38.1040   26.6730   31.3720 H   0  0  0  0  0  0  0  0  0  0  0  0
   37.2400   28.8910   30.5490 H   0  0  0  0  0  0  0  0  0  0  0  0
   33.7670   29.5300   34.6410 C   0  0  0  0  0  3  0  0  0  0  0  0
   35.1270   29.7300   34.5080 C   0  0  0  0  0  0  0  0  0  0  0  0
   35.6850   30.7580   35.2430 C   0  0  0  0  0  0  0  0  0  0  0  0
   36.7630   30.8920   35.1160 H   0  0  0  0  0  0  0  0  0  0  0  0
   34.9550   31.5750   36.0890 C   0  0  0  0  0  0  0  0  0  0  0  0
   35.3230   32.6180   36.8790 N   0  0  0  0  0  0  0  0  0  0  0  0
   36.3120   32.9720   36.9540 H   0  0  0  0  0  0  0  0  0  0  0  0
   34.2040   33.0470   37.4860 N   0  0  0  0  0  0  0  0  0  0  0  0
   33.1640   32.2950   37.0860 C   0  0  0  0  0  0  0  0  0  0  0  0
   32.1220   32.4130   37.4170 H   0  0  0  0  0  0  0  0  0  0  0  0
   33.5910   31.3360   36.1900 C   0  0  0  0  0  0  0  0  0  0  0  0
   32.9770   30.3250   35.4810 C   0  0  0  0  0  3  0  0  0  0  0  0
  1  8  1  0  0  0  0
  2  1  2  0  0  0  0
  3 15  1  6  0  0  0
  3 19  1  0  0  0  0
  3  4  1  0  0  0  0
  4  5  1  0  0  0  0
  4 11  1  0  0  0  0
  5  6  1  0  0  0  0
  6  7  2  0  0  0  0
  8  9  1  0  0  0  0
  8  6  1  0  0  0  0
  8 13  1  1  0  0  0
  9  5  1  0  0  0  0
  9 14  1  1  0  0  0
 10  3  1  0  0  0  0
 10  9  1  0  0  0  0
 12  4  1  0  0  0  0
 15 17  1  0  0  0  0
 16 15  1  0  0  0  0
 18 15  1  0  0  0  0
 19 20  1  0  0  0  0
 19 22  1  0  0  0  0
 21 19  1  0  0  0  0
 22 23  1  0  0  0  0
 24  1  1  0  0  0  0
 24 29  1  0  0  0  0
 25 24  2  0  0  0  0
 26 25  1  0  0  0  0
 26 27  2  0  0  0  0
 27 28  1  0  0  0  0
 28 29  2  0  0  0  0
 28 33  1  0  0  0  0
 30 25  1  0  0  0  0
 31 26  1  0  0  0  0
 32 43  1  0  0  0  0
 33 32  2  0  0  0  0
 33 34  1  0  0  0  0
 34 36  2  0  0  0  0
 35 34  1  0  0  0  0
 36 42  1  0  0  0  0
 36 37  1  0  0  0  0
 37 38  1  0  0  0  0
 37 39  1  0  0  0  0
 40 41  1  0  0  0  0
 40 39  2  0  0  0  0
 42 40  1  0  0  0  0
 43 42  2  0  0  0  0
M  END
>  <minimizedAffinity>
-5.95431805

$$$$

 OpenBabel03262522083D

 43 47  0  0  1  0  0  0  0  0999 V2000
   37.6400   26.0710   32.3400 C   0  0  0  0  0  0  0  0  0  0  0  0
   37.6790   25.5210   33.4850 O   0  0  0  0  0  0  0  0  0  0  0  0
   36.5140   21.9170   31.8870 C   0  0  2  0  0  0  0  0  0  0  0  0
   37.9200   21.8640   31.3940 C   0  0  0  0  0  0  0  0  0  0  0  0
   38.5120   23.1990   31.4840 N   0  0  0  0  0  0  0  0  0  0  0  0
   39.3330   24.3460   31.7550 C   0  0  0  0  0  0  0  0  0  0  0  0
   40.4700   24.5500   32.2130 O   0  0  0  0  0  0  0  0  0  0  0  0
   38.3630   25.3030   31.2980 C   0  0  1  0  0  0  0  0  0  0  0  0
   37.6400   24.0750   30.7590 C   0  0  2  0  0  0  0  0  0  0  0  0
   36.0680   23.6780   31.5570 S   0  0  0  0  0  0  0  0  0  0  0  0
   38.0700   21.3890   30.4180 H   0  0  0  0  0  0  0  0  0  0  0  0
   38.4920   21.2370   32.1380 H   0  0  0  0  0  0  0  0  0  0  0  0
   38.6260   25.9150   30.4050 H   0  0  0  0  0  0  0  0  0  0  0  0
   37.6390   23.9600   29.6610 H   0  0  0  0  0  0  0  0  0  0  0  0
   36.2790   21.4980   33.2970 C   0  0  0  0  0  0  0  0  0  0  0  0
   35.3370   20.8890   33.3410 H   0  0  0  0  0  0  0  0  0  0  0  0
   37.1460   20.9430   33.6950 H   0  0  0  0  0  0  0  0  0  0  0  0
   36.1620   22.4020   33.9350 H   0  0  0  0  0  0  0  0  0  0  0  0
   35.6320   21.1230   30.9020 C   0  0  0  0  0  0  0  0  0  0  0  0
   34.6800   20.8480   31.3820 H   0  0  0  0  0  0  0  0  0  0  0  0
   35.4450   21.7850   30.0400 H   0  0  0  0  0  0  0  0  0  0  0  0
   36.3600   20.0260   30.4430 O   0  0  0  0  0  0  0  0  0  0  0  0
   35.8160   19.5690   29.7590 H   0  0  0  0  0  0  0  0  0  0  0  0
   36.9660   27.3080   32.0940 C   0  0  0  0  0  0  0  0  0  0  0  0
   37.0080   27.8300   30.8220 C   0  0  0  0  0  0  0  0  0  0  0  0
   36.3360   29.0590   30.5870 C   0  0  0  0  0  0  0  0  0  0  0  0
   35.6890   29.6480   31.6490 N   0  0  0  0  0  0  0  0  0  0  0  0
   35.6770   29.1090   32.8550 C   0  0  0  0  0  0  0  0  0  0  0  0
   36.3070   27.9450   33.0950 N   0  0  0  0  0  0  0  0  0  0  0  0
   37.5320   27.3330   30.0040 H   0  0  0  0  0  0  0  0  0  0  0  0
   36.3370   29.5150   29.6040 H   0  0  0  0  0  0  0  0  0  0  0  0
   33.6590   29.4800   34.2540 C   0  0  0  0  0  3  0  0  0  0  0  0
   34.9770   29.7650   33.9540 C   0  0  0  0  0  0  0  0  0  0  0  0
   35.6120   30.7050   34.7420 C   0  0  0  0  0  0  0  0  0  0  0  0
   36.6540   30.9090   34.4800 H   0  0  0  0  0  0  0  0  0  0  0  0
   34.9960   31.3580   35.7970 C   0  0  0  0  0  0  0  0  0  0  0  0
   35.4510   32.2950   36.6690 N   0  0  0  0  0  0  0  0  0  0  0  0
   36.4290   32.6840   36.6500 H   0  0  0  0  0  0  0  0  0  0  0  0
   34.4260   32.5790   37.4890 N   0  0  0  0  0  0  0  0  0  0  0  0
   33.3580   31.8400   37.1410 C   0  0  0  0  0  0  0  0  0  0  0  0
   32.3750   31.8580   37.6330 H   0  0  0  0  0  0  0  0  0  0  0  0
   33.6710   31.0390   36.0610 C   0  0  0  0  0  0  0  0  0  0  0  0
   32.9840   30.1090   35.3080 C   0  0  0  0  0  3  0  0  0  0  0  0
  1  2  2  0  0  0  0
  3 19  1  6  0  0  0
  3 15  1  0  0  0  0
  4  5  1  0  0  0  0
  4  3  1  0  0  0  0
  4 12  1  0  0  0  0
  5  6  1  0  0  0  0
  6  7  2  0  0  0  0
  8 13  1  6  0  0  0
  8  6  1  0  0  0  0
  8  1  1  0  0  0  0
  9 14  1  6  0  0  0
  9  8  1  0  0  0  0
  9  5  1  0  0  0  0
  9 10  1  0  0  0  0
 10  3  1  0  0  0  0
 11  4  1  0  0  0  0
 15 16  1  0  0  0  0
 15 17  1  0  0  0  0
 15 18  1  0  0  0  0
 19 20  1  0  0  0  0
 21 19  1  0  0  0  0
 22 19  1  0  0  0  0
 23 22  1  0  0  0  0
 24  1  1  0  0  0  0
 24 29  1  0  0  0  0
 25 24  2  0  0  0  0
 26 25  1  0  0  0  0
 26 27  2  0  0  0  0
 27 28  1  0  0  0  0
 28 29  2  0  0  0  0
 28 33  1  0  0  0  0
 30 25  1  0  0  0  0
 31 26  1  0  0  0  0
 32 43  1  0  0  0  0
 33 32  2  0  0  0  0
 33 34  1  0  0  0  0
 34 36  2  0  0  0  0
 35 34  1  0  0  0  0
 36 42  1  0  0  0  0
 36 37  1  0  0  0  0
 37 39  1  0  0  0  0
 38 37  1  0  0  0  0
 40 39  2  0  0  0  0
 40 41  1  0  0  0  0
 42 40  1  0  0  0  0
 43 42  2  0  0  0  0
M  END
>  <minimizedAffinity>
-5.86404037

$$$$

 OpenBabel03262522083D

 43 47  0  0  1  0  0  0  0  0999 V2000
   39.4130   24.1430   32.5620 C   0  0  0  0  0  0  0  0  0  0  0  0
   40.5190   23.5530   32.7730 O   0  0  0  0  0  0  0  0  0  0  0  0
   39.3110   23.0320   36.7430 C   0  0  2  0  0  0  0  0  0  0  0  0
   38.4900   21.9330   36.1580 C   0  0  0  0  0  0  0  0  0  0  0  0
   38.4120   22.1110   34.7090 N   0  0  0  0  0  0  0  0  0  0  0  0
   38.4570   21.9620   33.2800 C   0  0  0  0  0  0  0  0  0  0  0  0
   38.6200   21.0270   32.4780 O   0  0  0  0  0  0  0  0  0  0  0  0
   38.2370   23.3550   33.0050 C   0  0  1  0  0  0  0  0  0  0  0  0
   37.9100   23.4350   34.4910 C   0  0  2  0  0  0  0  0  0  0  0  0
   39.0750   24.3770   35.5010 S   0  0  0  0  0  0  0  0  0  0  0  0
   37.5140   21.7620   36.6270 H   0  0  0  0  0  0  0  0  0  0  0  0
   39.0810   20.9830   36.3090 H   0  0  0  0  0  0  0  0  0  0  0  0
   37.2990   23.6330   32.4730 H   0  0  0  0  0  0  0  0  0  0  0  0
   36.8480   23.5980   34.7420 H   0  0  0  0  0  0  0  0  0  0  0  0
   40.7420   22.7270   37.0240 C   0  0  0  0  0  0  0  0  0  0  0  0
   41.0240   23.1880   38.0070 H   0  0  0  0  0  0  0  0  0  0  0  0
   40.9240   21.6380   37.0140 H   0  0  0  0  0  0  0  0  0  0  0  0
   41.3760   23.1610   36.2190 H   0  0  0  0  0  0  0  0  0  0  0  0
   38.5840   23.5570   37.9970 C   0  0  0  0  0  0  0  0  0  0  0  0
   38.9360   24.5710   38.2440 H   0  0  0  0  0  0  0  0  0  0  0  0
   37.5080   23.5790   37.7540 H   0  0  0  0  0  0  0  0  0  0  0  0
   38.7660   22.6390   39.0300 O   0  0  0  0  0  0  0  0  0  0  0  0
   38.2360   22.9450   39.8030 H   0  0  0  0  0  0  0  0  0  0  0  0
   39.3240   25.4330   31.9530 C   0  0  0  0  0  0  0  0  0  0  0  0
   40.3160   25.8080   31.0760 C   0  0  0  0  0  0  0  0  0  0  0  0
   40.2200   27.0920   30.4750 C   0  0  0  0  0  0  0  0  0  0  0  0
   39.1420   27.8760   30.8120 N   0  0  0  0  0  0  0  0  0  0  0  0
   38.2130   27.4740   31.6610 C   0  0  0  0  0  0  0  0  0  0  0  0
   38.2880   26.2620   32.2380 N   0  0  0  0  0  0  0  0  0  0  0  0
   41.1570   25.1570   30.8330 H   0  0  0  0  0  0  0  0  0  0  0  0
   40.9740   27.4370   29.7770 H   0  0  0  0  0  0  0  0  0  0  0  0
   36.4790   28.3060   33.2320 C   0  0  0  0  0  3  0  0  0  0  0  0
   37.0840   28.3370   31.9910 C   0  0  0  0  0  0  0  0  0  0  0  0
   36.5730   29.2250   31.0650 C   0  0  0  0  0  0  0  0  0  0  0  0
   37.0720   29.2270   30.0920 H   0  0  0  0  0  0  0  0  0  0  0  0
   35.5030   30.0660   31.3250 C   0  0  0  0  0  0  0  0  0  0  0  0
   34.8720   30.9900   30.5540 N   0  0  0  0  0  0  0  0  0  0  0  0
   35.1440   31.2040   29.5590 H   0  0  0  0  0  0  0  0  0  0  0  0
   33.8960   31.5150   31.3130 N   0  0  0  0  0  0  0  0  0  0  0  0
   33.9150   30.9360   32.5260 C   0  0  0  0  0  0  0  0  0  0  0  0
   33.2330   31.1640   33.3580 H   0  0  0  0  0  0  0  0  0  0  0  0
   34.9280   29.9990   32.5860 C   0  0  0  0  0  0  0  0  0  0  0  0
   35.3950   29.1320   33.5520 C   0  0  0  0  0  3  0  0  0  0  0  0
  1  2  2  0  0  0  0
  1  8  1  0  0  0  0
  3 15  1  1  0  0  0
  3 19  1  0  0  0  0
  4 12  1  0  0  0  0
  4 11  1  0  0  0  0
  4  3  1  0  0  0  0
  5  4  1  0  0  0  0
  6  5  1  0  0  0  0
  7  6  2  0  0  0  0
  8 13  1  6  0  0  0
  8  6  1  0  0  0  0
  8  9  1  0  0  0  0
  9  5  1  0  0  0  0
  9 14  1  1  0  0  0
  9 10  1  0  0  0  0
 10  3  1  0  0  0  0
 15 16  1  0  0  0  0
 17 15  1  0  0  0  0
 18 15  1  0  0  0  0
 19 20  1  0  0  0  0
 19 22  1  0  0  0  0
 21 19  1  0  0  0  0
 22 23  1  0  0  0  0
 24 29  1  0  0  0  0
 24  1  1  0  0  0  0
 25 24  2  0  0  0  0
 26 27  2  0  0  0  0
 26 25  1  0  0  0  0
 27 28  1  0  0  0  0
 28 33  1  0  0  0  0
 28 29  2  0  0  0  0
 30 25  1  0  0  0  0
 31 26  1  0  0  0  0
 32 43  1  0  0  0  0
 33 32  2  0  0  0  0
 34 36  2  0  0  0  0
 34 33  1  0  0  0  0
 35 34  1  0  0  0  0
 36 42  1  0  0  0  0
 37 39  1  0  0  0  0
 37 36  1  0  0  0  0
 38 37  1  0  0  0  0
 39 40  2  0  0  0  0
 40 42  1  0  0  0  0
 40 41  1  0  0  0  0
 42 43  2  0  0  0  0
M  END
>  <minimizedAffinity>
-5.81315088

$$$$
