
 OpenBabel03262521523D

 26 28  0  0  0  0  0  0  0  0999 V2000
   34.9860   29.3320   50.0380 C   0  0  0  0  0  0  0  0  0  0  0  0
   34.5090   28.3630   50.3280 H   0  0  0  0  0  0  0  0  0  0  0  0
   34.5820   30.1150   50.7120 H   0  0  0  0  0  0  0  0  0  0  0  0
   36.7780   29.2510   50.2160 S   0  0  0  0  0  0  0  0  0  0  0  0
   37.5000   30.6100   49.3000 C   0  0  0  0  0  0  0  0  0  0  0  0
   37.4150   31.8270   49.9540 C   0  0  0  0  0  0  0  0  0  0  0  0
   37.9620   32.9430   49.2960 C   0  0  0  0  0  0  0  0  0  0  0  0
   38.5390   32.7640   48.0650 N   0  0  0  0  0  0  0  0  0  0  0  0
   38.5860   31.5540   47.4910 C   0  0  0  0  0  0  0  0  0  0  0  0
   38.0710   30.4840   48.1020 N   0  0  0  0  0  0  0  0  0  0  0  0
   36.9710   32.0150   50.9230 H   0  0  0  0  0  0  0  0  0  0  0  0
   37.9270   33.9150   49.7500 H   0  0  0  0  0  0  0  0  0  0  0  0
   39.0540   31.4750   46.5180 H   0  0  0  0  0  0  0  0  0  0  0  0
   34.4690   29.6710   48.3340 S   0  0  0  0  0  0  0  0  0  0  0  0
   32.3830   27.9330   48.7210 C   0  0  0  0  0  3  0  0  0  0  0  0
   33.3820   28.3410   47.8410 C   0  0  0  0  0  0  0  0  0  0  0  0
   33.4740   27.6800   46.6180 C   0  0  0  0  0  0  0  0  0  0  0  0
   34.2410   27.9960   45.9480 H   0  0  0  0  0  0  0  0  0  0  0  0
   32.6000   26.6560   46.2970 C   0  0  0  0  0  0  0  0  0  0  0  0
   32.5170   25.8930   45.1750 N   0  0  0  0  0  0  0  0  0  0  0  0
   33.0990   25.9140   44.3080 H   0  0  0  0  0  0  0  0  0  0  0  0
   31.5060   25.0450   45.3540 N   0  0  0  0  0  0  0  0  0  0  0  0
   30.9650   25.2730   46.5640 C   0  0  0  0  0  0  0  0  0  0  0  0
   30.1110   24.6970   46.9450 H   0  0  0  0  0  0  0  0  0  0  0  0
   31.6320   26.2980   47.2100 C   0  0  0  0  0  0  0  0  0  0  0  0
   31.4860   26.9060   48.4290 C   0  0  0  0  0  3  0  0  0  0  0  0
  1  4  1  0  0  0  0
  1  2  1  0  0  0  0
  1  3  1  0  0  0  0
  5  6  1  0  0  0  0
  5  4  1  0  0  0  0
  6 11  1  0  0  0  0
  7 12  1  0  0  0  0
  7  6  2  0  0  0  0
  8  7  1  0  0  0  0
  9  8  2  0  0  0  0
  9 10  1  0  0  0  0
 10  5  2  0  0  0  0
 13  9  1  0  0  0  0
 14  1  1  0  0  0  0
 16 14  1  0  0  0  0
 16 15  2  0  0  0  0
 17 16  1  0  0  0  0
 18 17  1  0  0  0  0
 19 17  2  0  0  0  0
 19 25  1  0  0  0  0
 20 22  1  0  0  0  0
 20 19  1  0  0  0  0
 21 20  1  0  0  0  0
 22 23  2  0  0  0  0
 23 24  1  0  0  0  0
 23 25  1  0  0  0  0
 25 26  2  0  0  0  0
 26 15  1  0  0  0  0
M  END
>  <minimizedAffinity>
-4.21289968

>  <minimizedRMSD>
3.04586124

$$$$
