
 OpenBabel03262521533D

 26 28  0  0  0  0  0  0  0  0999 V2000
   34.5440   29.6030   48.8180 C   0  0  0  0  0  0  0  0  0  0  0  0
   33.8090   29.5630   49.6600 H   0  0  0  0  0  0  0  0  0  0  0  0
   34.4860   30.6200   48.3770 H   0  0  0  0  0  0  0  0  0  0  0  0
   36.2200   29.2960   49.4040 S   0  0  0  0  0  0  0  0  0  0  0  0
   37.2540   30.6710   48.9100 C   0  0  0  0  0  0  0  0  0  0  0  0
   37.1320   31.7800   49.7290 C   0  0  0  0  0  0  0  0  0  0  0  0
   37.9150   32.9020   49.4030 C   0  0  0  0  0  0  0  0  0  0  0  0
   38.7410   32.8330   48.3110 N   0  0  0  0  0  0  0  0  0  0  0  0
   38.8090   31.7240   47.5620 C   0  0  0  0  0  0  0  0  0  0  0  0
   38.0720   30.6510   47.8570 N   0  0  0  0  0  0  0  0  0  0  0  0
   36.4950   31.8790   50.5990 H   0  0  0  0  0  0  0  0  0  0  0  0
   37.8650   33.7930   49.9990 H   0  0  0  0  0  0  0  0  0  0  0  0
   39.4800   31.7300   46.7120 H   0  0  0  0  0  0  0  0  0  0  0  0
   33.9960   28.3800   47.5980 S   0  0  0  0  0  0  0  0  0  0  0  0
   31.3730   28.4780   46.8000 C   0  0  0  0  0  3  0  0  0  0  0  0
   32.2400   28.1490   47.8380 C   0  0  0  0  0  0  0  0  0  0  0  0
   31.6800   27.6550   49.0150 C   0  0  0  0  0  0  0  0  0  0  0  0
   32.3480   27.4040   49.8070 H   0  0  0  0  0  0  0  0  0  0  0  0
   30.3090   27.5000   49.1380 C   0  0  0  0  0  0  0  0  0  0  0  0
   29.5690   27.0420   50.1820 N   0  0  0  0  0  0  0  0  0  0  0  0
   29.8750   26.7060   51.1230 H   0  0  0  0  0  0  0  0  0  0  0  0
   28.2930   27.0860   49.8040 N   0  0  0  0  0  0  0  0  0  0  0  0
   28.2350   27.5620   48.5470 C   0  0  0  0  0  0  0  0  0  0  0  0
   27.2860   27.6940   48.0110 H   0  0  0  0  0  0  0  0  0  0  0  0
   29.5040   27.8430   48.0750 C   0  0  0  0  0  0  0  0  0  0  0  0
   29.9900   28.3350   46.8910 C   0  0  0  0  0  3  0  0  0  0  0  0
  1  4  1  0  0  0  0
  1  2  1  0  0  0  0
  3  1  1  0  0  0  0
  5  4  1  0  0  0  0
  5  6  1  0  0  0  0
  6 11  1  0  0  0  0
  7  6  2  0  0  0  0
  7 12  1  0  0  0  0
  8  7  1  0  0  0  0
  9 10  1  0  0  0  0
  9  8  2  0  0  0  0
 10  5  2  0  0  0  0
 13  9  1  0  0  0  0
 14 16  1  0  0  0  0
 14  1  1  0  0  0  0
 15 26  2  0  0  0  0
 15 16  1  0  0  0  0
 16 17  2  0  0  0  0
 17 19  1  0  0  0  0
 17 18  1  0  0  0  0
 19 20  1  0  0  0  0
 20 21  1  0  0  0  0
 22 20  1  0  0  0  0
 23 22  2  0  0  0  0
 24 23  1  0  0  0  0
 25 23  1  0  0  0  0
 25 19  2  0  0  0  0
 26 25  1  0  0  0  0
M  END
>  <minimizedAffinity>
-4.79752064

>  <minimizedRMSD>
1.82071674

$$$$
