
 OpenBabel03262522053D

 43 47  0  0  1  0  0  0  0  0999 V2000
   37.7670   31.8640   49.6540 C   0  0  0  0  0  0  0  0  0  0  0  0
   36.7760   32.3790   50.2610 O   0  0  0  0  0  0  0  0  0  0  0  0
   34.5500   29.1610   48.6170 C   0  0  2  0  0  0  0  0  0  0  0  0
   35.1650   28.4160   49.7520 C   0  0  0  0  0  0  0  0  0  0  0  0
   36.2920   29.1860   50.2790 N   0  0  0  0  0  0  0  0  0  0  0  0
   37.2270   29.9100   51.0940 C   0  0  0  0  0  0  0  0  0  0  0  0
   37.4120   30.0870   52.3100 O   0  0  0  0  0  0  0  0  0  0  0  0
   37.9760   30.4340   49.9850 C   0  0  1  0  0  0  0  0  0  0  0  0
   37.1610   29.4400   49.1680 C   0  0  2  0  0  0  0  0  0  0  0  0
   35.9780   30.1610   48.0080 S   0  0  0  0  0  0  0  0  0  0  0  0
   35.4110   27.3650   49.5600 H   0  0  0  0  0  0  0  0  0  0  0  0
   34.3970   28.4110   50.5790 H   0  0  0  0  0  0  0  0  0  0  0  0
   39.0370   30.1120   49.8820 H   0  0  0  0  0  0  0  0  0  0  0  0
   37.7150   28.5690   48.7780 H   0  0  0  0  0  0  0  0  0  0  0  0
   33.3410   29.9770   48.9230 C   0  0  0  0  0  0  0  0  0  0  0  0
   32.6030   29.8560   48.0870 H   0  0  0  0  0  0  0  0  0  0  0  0
   32.9090   29.6930   49.8980 H   0  0  0  0  0  0  0  0  0  0  0  0
   33.6310   31.0480   49.0060 H   0  0  0  0  0  0  0  0  0  0  0  0
   34.2870   28.1610   47.4740 C   0  0  0  0  0  0  0  0  0  0  0  0
   34.9820   27.3090   47.5470 H   0  0  0  0  0  0  0  0  0  0  0  0
   33.2470   27.8110   47.5910 H   0  0  0  0  0  0  0  0  0  0  0  0
   34.3700   28.8430   46.2610 O   0  0  0  0  0  0  0  0  0  0  0  0
   34.1260   28.2130   45.5430 H   0  0  0  0  0  0  0  0  0  0  0  0
   38.5920   32.6020   48.7480 C   0  0  0  0  0  0  0  0  0  0  0  0
   39.1680   33.7680   49.1950 C   0  0  0  0  0  0  0  0  0  0  0  0
   39.9860   34.4950   48.2900 C   0  0  0  0  0  0  0  0  0  0  0  0
   40.1460   33.9840   47.0230 N   0  0  0  0  0  0  0  0  0  0  0  0
   39.5720   32.8580   46.6370 C   0  0  0  0  0  0  0  0  0  0  0  0
   38.7950   32.1580   47.4820 N   0  0  0  0  0  0  0  0  0  0  0  0
   39.0170   34.1420   50.2100 H   0  0  0  0  0  0  0  0  0  0  0  0
   40.4640   35.4190   48.5910 H   0  0  0  0  0  0  0  0  0  0  0  0
   40.5140   31.2140   45.0320 C   0  0  0  0  0  3  0  0  0  0  0  0
   39.7690   32.3500   45.2830 C   0  0  0  0  0  0  0  0  0  0  0  0
   39.2110   32.9900   44.1940 C   0  0  0  0  0  0  0  0  0  0  0  0
   38.6270   33.8850   44.4250 H   0  0  0  0  0  0  0  0  0  0  0  0
   39.3660   32.5510   42.8890 C   0  0  0  0  0  0  0  0  0  0  0  0
   38.9010   33.0400   41.7110 N   0  0  0  0  0  0  0  0  0  0  0  0
   38.3050   33.9050   41.6310 H   0  0  0  0  0  0  0  0  0  0  0  0
   39.3570   32.2160   40.7530 N   0  0  0  0  0  0  0  0  0  0  0  0
   40.0860   31.2380   41.3160 C   0  0  0  0  0  0  0  0  0  0  0  0
   40.5850   30.4180   40.7790 H   0  0  0  0  0  0  0  0  0  0  0  0
   40.1230   31.4060   42.6850 C   0  0  0  0  0  0  0  0  0  0  0  0
   40.7050   30.7240   43.7340 C   0  0  0  0  0  3  0  0  0  0  0  0
  1  8  1  0  0  0  0
  1  2  2  0  0  0  0
  3 19  1  6  0  0  0
  3 15  1  0  0  0  0
  3  4  1  0  0  0  0
  4  5  1  0  0  0  0
  4 12  1  0  0  0  0
  5  6  1  0  0  0  0
  6  7  2  0  0  0  0
  8 13  1  1  0  0  0
  8  6  1  0  0  0  0
  9 14  1  6  0  0  0
  9  8  1  0  0  0  0
  9  5  1  0  0  0  0
 10  3  1  0  0  0  0
 10  9  1  0  0  0  0
 11  4  1  0  0  0  0
 15 18  1  0  0  0  0
 15 17  1  0  0  0  0
 16 15  1  0  0  0  0
 19 20  1  0  0  0  0
 19 21  1  0  0  0  0
 22 19  1  0  0  0  0
 23 22  1  0  0  0  0
 24 25  1  0  0  0  0
 24  1  1  0  0  0  0
 25 30  1  0  0  0  0
 26 31  1  0  0  0  0
 26 25  2  0  0  0  0
 27 26  1  0  0  0  0
 28 27  2  0  0  0  0
 28 29  1  0  0  0  0
 29 24  2  0  0  0  0
 32 33  1  0  0  0  0
 33 28  1  0  0  0  0
 34 35  1  0  0  0  0
 34 33  2  0  0  0  0
 36 34  1  0  0  0  0
 37 36  1  0  0  0  0
 38 37  1  0  0  0  0
 39 40  2  0  0  0  0
 39 37  1  0  0  0  0
 40 42  1  0  0  0  0
 41 40  1  0  0  0  0
 42 36  2  0  0  0  0
 42 43  1  0  0  0  0
 43 32  2  0  0  0  0
M  END
>  <minimizedAffinity>
-6.58061504

>  <minimizedRMSD>
0.571770191

$$$$
