REMARK  Name = 
REMARK  4 active torsions:
REMARK  status: ('A' for Active; 'I' for Inactive)
REMARK    1  A    between atoms: C_1  and  O_12
REMARK    2  A    between atoms: C_2  and  C_8
REMARK    3  A    between atoms: O_12  and  C_15
REMARK    4  A    between atoms: C_19  and  C_33
REMARK                            x       y       z     vdW  Elec       q    Type
REMARK                         _______ _______ _______ _____ _____    ______ ____
ROOT
ATOM      1 CL   UNL     1      40.952  31.256  45.383  0.00  0.00    +0.000 Cl
ATOM      2  C   UNL     1      39.366  30.687  44.904  0.00  0.00    +0.000 A 
ATOM      3  C   UNL     1      38.327  31.243  45.636  0.00  0.00    +0.000 A 
ATOM      4  C   UNL     1      37.063  30.804  45.267  0.00  0.00    +0.000 A 
ATOM      5  C   UNL     1      36.869  29.886  44.248  0.00  0.00    +0.000 A 
ATOM      6  C   UNL     1      37.937  29.378  43.568  0.00  0.00    +0.000 A 
ATOM      7  C   UNL     1      39.199  29.781  43.897  0.00  0.00    +0.000 A 
ATOM      8  H   UNL     1      36.134  31.122  45.719  0.00  0.00    +0.000 HD
ATOM      9  H   UNL     1      35.897  29.525  43.938  0.00  0.00    +0.000 HD
ATOM     10  H   UNL     1      37.809  28.660  42.770  0.00  0.00    +0.000 HD
ENDROOT
BRANCH   7  12
ATOM     11  C   UNL     1      41.176  28.182  43.478  0.00  0.00    +0.000 A 
ATOM     12  C   UNL     1      40.378  29.275  43.207  0.00  0.00    +0.000 A 
ATOM     13  C   UNL     1      40.681  30.083  42.104  0.00  0.00    +0.000 A 
ATOM     14  H   UNL     1      40.142  30.969  41.775  0.00  0.00    +0.000 HD
ATOM     15  C   UNL     1      41.764  29.808  41.281  0.00  0.00    +0.000 A 
ATOM     16  N   UNL     1      42.313  30.360  40.182  0.00  0.00    +0.000 N 
ATOM     17  H   UNL     1      41.938  31.220  39.712  0.00  0.00    +0.000 HD
ATOM     18  N   UNL     1      43.383  29.653  39.798  0.00  0.00    +0.000 NA
ATOM     19  C   UNL     1      43.565  28.616  40.637  0.00  0.00    +0.000 A 
ATOM     20  H   UNL     1      44.351  27.858  40.590  0.00  0.00    +0.000 HD
ATOM     21  C   UNL     1      42.551  28.711  41.568  0.00  0.00    +0.000 A 
ATOM     22  C   UNL     1      42.251  27.916  42.655  0.00  0.00    +0.000 A 
ENDBRANCH   7  12
BRANCH   3  23
ATOM     23  O   UNL     1      38.278  32.133  46.646  0.00  0.00    +0.000 OA
BRANCH  23  24
ATOM     24  C   UNL     1      38.958  32.372  47.793  0.00  0.00    +0.000 C 
ATOM     25  C   UNL     1      38.006  32.740  48.978  0.00  0.00    +0.000 C 
ATOM     26  C   UNL     1      38.907  33.537  49.799  0.00  0.00    +0.000 C 
ATOM     27  O   UNL     1      39.716  34.281  48.952  0.00  0.00    +0.000 OA
ATOM     28  C   UNL     1      39.617  33.774  47.700  0.00  0.00    +0.000 C 
ATOM     29  H   UNL     1      39.744  31.691  48.108  0.00  0.00    +0.000 HD
ATOM     30  H   UNL     1      37.253  33.386  48.478  0.00  0.00    +0.000 HD
ATOM     31  H   UNL     1      38.345  34.243  50.467  0.00  0.00    +0.000 HD
ATOM     32  H   UNL     1      39.591  32.985  50.457  0.00  0.00    +0.000 HD
ATOM     33  H   UNL     1      39.009  34.367  46.985  0.00  0.00    +0.000 HD
ATOM     34  H   UNL     1      40.616  33.592  47.236  0.00  0.00    +0.000 HD
BRANCH  25  37
ATOM     35  C   UNL     1      37.365  29.694  51.085  0.00  0.00    +0.000 A 
ATOM     36  C   UNL     1      38.037  30.833  50.559  0.00  0.00    +0.000 A 
ATOM     37  C   UNL     1      37.369  31.589  49.549  0.00  0.00    +0.000 A 
ATOM     38  N   UNL     1      36.115  31.192  49.128  0.00  0.00    +0.000 NA
ATOM     39  C   UNL     1      35.531  30.109  49.660  0.00  0.00    +0.000 A 
ATOM     40  N   UNL     1      36.131  29.360  50.625  0.00  0.00    +0.000 NA
ATOM     41  H   UNL     1      37.790  29.078  51.837  0.00  0.00    +0.000 HD
ATOM     42  H   UNL     1      38.998  31.088  50.921  0.00  0.00    +0.000 HD
ATOM     43  H   UNL     1      34.551  29.854  49.287  0.00  0.00    +0.000 HD
ENDBRANCH  25  37
ENDBRANCH  23  24
ENDBRANCH   3  23
TORSDOF 4
