
 OpenBabel03272509493D

 36 39  0  0  0  0  0  0  0  0999 V2000
   37.1830   30.2280   51.3860 C   0  0  0  0  0  0  0  0  0  0  0  0
   37.9640   30.8880   50.4010 C   0  0  0  0  0  0  0  0  0  0  0  0
   37.7130   30.6250   49.0720 C   0  0  0  0  0  0  0  0  0  0  0  0
   36.7130   29.7360   48.8220 N   0  0  0  0  0  0  0  0  0  0  0  0
   35.9840   29.1200   49.7460 C   0  0  0  0  0  0  0  0  0  0  0  0
   36.2250   29.3730   51.0430 N   0  0  0  0  0  0  0  0  0  0  0  0
   37.3690   30.4250   52.4380 H   0  0  0  0  0  0  0  0  0  0  0  0
   38.7230   31.5660   50.6970 H   0  0  0  0  0  0  0  0  0  0  0  0
   38.8690   32.5580   48.0230 C   0  0  0  0  0  3  0  0  0  0  0  0
   38.4540   31.2470   47.9820 C   0  0  0  0  0  0  0  0  0  0  0  0
   38.7480   30.4870   46.8700 C   0  0  0  0  0  0  0  0  0  0  0  0
   38.4180   29.4430   46.8340 H   0  0  0  0  0  0  0  0  0  0  0  0
   39.4450   30.9950   45.7920 C   0  0  0  0  0  0  0  0  0  0  0  0
   39.8750   30.5270   44.5990 N   0  0  0  0  0  0  0  0  0  0  0  0
   39.6940   29.5400   44.3000 H   0  0  0  0  0  0  0  0  0  0  0  0
   40.5090   31.5030   43.9700 N   0  0  0  0  0  0  0  0  0  0  0  0
   40.5010   32.6090   44.7340 C   0  0  0  0  0  0  0  0  0  0  0  0
   40.9500   33.5710   44.4710 H   0  0  0  0  0  0  0  0  0  0  0  0
   39.8310   32.3090   45.8960 C   0  0  0  0  0  0  0  0  0  0  0  0
   39.5740   33.1270   46.9740 C   0  0  0  0  0  3  0  0  0  0  0  0
   35.0470   28.2760   49.2070 O   0  0  0  0  0  0  0  0  0  0  0  0
   34.2240   28.7390   48.1530 C   0  0  0  0  0  0  0  0  0  0  0  0
   34.8690   29.1980   47.3730 H   0  0  0  0  0  0  0  0  0  0  0  0
   33.6210   29.5940   48.5580 H   0  0  0  0  0  0  0  0  0  0  0  0
   33.3580   27.6400   47.6250 C   0  0  0  0  0  0  0  0  0  0  0  0
   33.6210   26.6410   48.0440 H   0  0  0  0  0  0  0  0  0  0  0  0
   33.5530   27.5660   46.5340 H   0  0  0  0  0  0  0  0  0  0  0  0
   31.9090   27.9300   47.7800 C   0  0  0  0  0  0  0  0  0  0  0  0
   31.3160   27.5620   48.9720 C   0  0  0  0  0  0  0  0  0  0  0  0
   29.9880   27.7660   49.2570 C   0  0  0  0  0  0  0  0  0  0  0  0
   29.2310   28.3520   48.3300 N   0  0  0  0  0  0  0  0  0  0  0  0
   29.8050   28.7160   47.1570 C   0  0  0  0  0  0  0  0  0  0  0  0
   31.1120   28.5180   46.8720 N   0  0  0  0  0  0  0  0  0  0  0  0
   31.8750   27.0730   49.7850 H   0  0  0  0  0  0  0  0  0  0  0  0
   29.5230   27.4780   50.1900 H   0  0  0  0  0  0  0  0  0  0  0  0
   29.1940   29.2010   46.3830 H   0  0  0  0  0  0  0  0  0  0  0  0
  1  7  1  0  0  0  0
  2  8  1  0  0  0  0
  2  1  2  0  0  0  0
  3  2  1  0  0  0  0
  4  3  2  0  0  0  0
  4  5  1  0  0  0  0
  5  6  2  0  0  0  0
  6  1  1  0  0  0  0
 10  9  1  0  0  0  0
 10  3  1  0  0  0  0
 11 10  2  0  0  0  0
 12 11  1  0  0  0  0
 13 19  2  0  0  0  0
 13 11  1  0  0  0  0
 14 13  1  0  0  0  0
 15 14  1  0  0  0  0
 16 14  1  0  0  0  0
 16 17  2  0  0  0  0
 17 19  1  0  0  0  0
 18 17  1  0  0  0  0
 19 20  1  0  0  0  0
 20  9  2  0  0  0  0
 21  5  1  0  0  0  0
 22 24  1  0  0  0  0
 22 21  1  0  0  0  0
 23 22  1  0  0  0  0
 25 28  1  0  0  0  0
 25 26  1  0  0  0  0
 25 22  1  0  0  0  0
 27 25  1  0  0  0  0
 28 29  1  0  0  0  0
 29 30  2  0  0  0  0
 29 34  1  0  0  0  0
 30 35  1  0  0  0  0
 31 30  1  0  0  0  0
 32 31  2  0  0  0  0
 33 32  1  0  0  0  0
 33 28  2  0  0  0  0
 36 32  1  0  0  0  0
M  END
>  <minimizedAffinity>
-6.63457346

>  <minimizedRMSD>
0.946886241

$$$$
