
 OpenBabel03262521523D

 26 28  0  0  0  0  0  0  0  0999 V2000
   34.0010   28.6460   45.9790 C   0  0  0  0  0  0  0  0  0  0  0  0
   34.2480   27.7130   46.5450 H   0  0  0  0  0  0  0  0  0  0  0  0
   34.4820   29.4920   46.5120 H   0  0  0  0  0  0  0  0  0  0  0  0
   34.6260   28.5640   44.2910 S   0  0  0  0  0  0  0  0  0  0  0  0
   35.2980   30.1660   43.8580 C   0  0  0  0  0  0  0  0  0  0  0  0
   36.5400   30.4160   44.4150 C   0  0  0  0  0  0  0  0  0  0  0  0
   37.1330   31.6560   44.1190 C   0  0  0  0  0  0  0  0  0  0  0  0
   36.4580   32.5320   43.3080 N   0  0  0  0  0  0  0  0  0  0  0  0
   35.2560   32.2230   42.8030 C   0  0  0  0  0  0  0  0  0  0  0  0
   34.6790   31.0500   43.0750 N   0  0  0  0  0  0  0  0  0  0  0  0
   37.1090   29.7570   45.0580 H   0  0  0  0  0  0  0  0  0  0  0  0
   38.0950   31.9100   44.5210 H   0  0  0  0  0  0  0  0  0  0  0  0
   34.7720   32.9550   42.1700 H   0  0  0  0  0  0  0  0  0  0  0  0
   32.1990   28.8290   46.0490 S   0  0  0  0  0  0  0  0  0  0  0  0
   31.0830   30.2020   43.9520 C   0  0  0  0  0  3  0  0  0  0  0  0
   31.7880   30.3170   45.1480 C   0  0  0  0  0  0  0  0  0  0  0  0
   32.1300   31.5980   45.5750 C   0  0  0  0  0  0  0  0  0  0  0  0
   32.6700   31.6810   46.4910 H   0  0  0  0  0  0  0  0  0  0  0  0
   31.7810   32.7120   44.8300 C   0  0  0  0  0  0  0  0  0  0  0  0
   32.0140   34.0300   45.0620 N   0  0  0  0  0  0  0  0  0  0  0  0
   32.5120   34.4930   45.8570 H   0  0  0  0  0  0  0  0  0  0  0  0
   31.4760   34.7070   44.0500 N   0  0  0  0  0  0  0  0  0  0  0  0
   30.9160   33.8290   43.1990 C   0  0  0  0  0  0  0  0  0  0  0  0
   30.4050   34.1430   42.2800 H   0  0  0  0  0  0  0  0  0  0  0  0
   31.0850   32.5330   43.6560 C   0  0  0  0  0  0  0  0  0  0  0  0
   30.7160   31.3030   43.1790 C   0  0  0  0  0  3  0  0  0  0  0  0
  1 14  1  0  0  0  0
  1  3  1  0  0  0  0
  1  2  1  0  0  0  0
  4  1  1  0  0  0  0
  5  4  1  0  0  0  0
  5  6  1  0  0  0  0
  6 11  1  0  0  0  0
  7  6  2  0  0  0  0
  7 12  1  0  0  0  0
  8  7  1  0  0  0  0
  9 10  1  0  0  0  0
  9  8  2  0  0  0  0
 10  5  2  0  0  0  0
 13  9  1  0  0  0  0
 15 16  1  0  0  0  0
 16 17  2  0  0  0  0
 16 14  1  0  0  0  0
 17 18  1  0  0  0  0
 19 20  1  0  0  0  0
 19 17  1  0  0  0  0
 20 21  1  0  0  0  0
 22 20  1  0  0  0  0
 23 25  1  0  0  0  0
 23 22  2  0  0  0  0
 24 23  1  0  0  0  0
 25 19  2  0  0  0  0
 26 25  1  0  0  0  0
 26 15  2  0  0  0  0
M  END
>  <minimizedAffinity>
-3.16026068

>  <minimizedRMSD>
6.31865835

$$$$
