
 OpenBabel03272506463D

 45 49  0  0  1  0  0  0  0  0999 V2000
   30.4520   27.1060   45.6090 O   0  0  0  0  0  0  0  0  0  0  0  0
   31.5710   28.4180   47.3080 C   0  0  2  0  0  0  0  0  0  0  0  0
   32.7620   28.0180   48.1260 C   0  0  1  0  0  0  0  0  0  0  0  0
   32.8800   26.6620   48.0640 O   0  0  0  0  0  0  0  0  0  0  0  0
   32.0600   26.1800   47.0480 C   0  0  0  0  0  0  0  0  0  0  0  0
   31.6800   27.3470   46.1770 C   0  0  1  0  0  0  0  0  0  0  0  0
   30.6060   28.3680   47.8000 H   0  0  0  0  0  0  0  0  0  0  0  0
   32.7000   28.4300   49.1520 H   0  0  0  0  0  0  0  0  0  0  0  0
   31.2540   25.6340   47.5100 H   0  0  0  0  0  0  0  0  0  0  0  0
   32.7350   25.5310   46.4250 H   0  0  0  0  0  0  0  0  0  0  0  0
   32.4770   27.7120   45.5370 H   0  0  0  0  0  0  0  0  0  0  0  0
   31.7600   29.6990   46.7490 O   0  0  0  0  0  0  0  0  0  0  0  0
   32.5180   29.6190   46.1150 H   0  0  0  0  0  0  0  0  0  0  0  0
   34.2490   28.7590   47.3370 S   0  0  0  0  0  0  0  0  0  0  0  0
   36.1060   29.3920   50.7820 C   0  0  0  0  0  0  0  0  0  0  0  0
   36.8040   30.5890   50.5940 C   0  0  0  0  0  0  0  0  0  0  0  0
   36.7010   31.2220   49.3670 C   0  0  0  0  0  0  0  0  0  0  0  0
   35.9240   30.6520   48.3980 N   0  0  0  0  0  0  0  0  0  0  0  0
   35.2630   29.4950   48.6160 C   0  0  0  0  0  0  0  0  0  0  0  0
   35.3440   28.8480   49.8070 N   0  0  0  0  0  0  0  0  0  0  0  0
   36.1270   28.8290   51.7030 H   0  0  0  0  0  0  0  0  0  0  0  0
   37.4010   30.9840   51.4060 H   0  0  0  0  0  0  0  0  0  0  0  0
   37.2140   32.1380   49.1730 H   0  0  0  0  0  0  0  0  0  0  0  0
   29.5260   29.5750   44.3010 Cl  0  0  0  0  0  0  0  0  0  0  0  0
   28.7430   28.6470   45.5570 C   0  0  0  0  0  0  0  0  0  0  0  0
   29.2730   27.4950   46.0860 C   0  0  0  0  0  0  0  0  0  0  0  0
   28.5400   26.8250   47.0700 C   0  0  0  0  0  0  0  0  0  0  0  0
   27.3220   27.3140   47.4920 C   0  0  0  0  0  0  0  0  0  0  0  0
   26.7800   28.4740   46.9660 C   0  0  0  0  0  0  0  0  0  0  0  0
   27.5070   29.1430   45.9870 C   0  0  0  0  0  0  0  0  0  0  0  0
   28.8770   25.9150   47.5340 H   0  0  0  0  0  0  0  0  0  0  0  0
   26.7630   26.8000   48.2470 H   0  0  0  0  0  0  0  0  0  0  0  0
   25.8260   28.8540   47.3010 H   0  0  0  0  0  0  0  0  0  0  0  0
   26.7810   31.3970   46.3700 C   0  0  0  0  0  3  0  0  0  0  0  0
   26.9180   30.3430   45.4570 C   0  0  0  0  0  0  0  0  0  0  0  0
   26.4710   30.5900   44.1810 C   0  0  0  0  0  0  0  0  0  0  0  0
   26.5770   29.7870   43.4930 H   0  0  0  0  0  0  0  0  0  0  0  0
   25.9210   31.7970   43.8070 C   0  0  0  0  0  0  0  0  0  0  0  0
   25.4400   32.2040   42.6180 N   0  0  0  0  0  0  0  0  0  0  0  0
   25.4240   31.6070   41.7590 H   0  0  0  0  0  0  0  0  0  0  0  0
   25.0310   33.4480   42.8010 N   0  0  0  0  0  0  0  0  0  0  0  0
   25.2310   33.8510   44.0600 C   0  0  0  0  0  0  0  0  0  0  0  0
   25.0060   34.8020   44.5190 H   0  0  0  0  0  0  0  0  0  0  0  0
   25.8090   32.8030   44.7440 C   0  0  0  0  0  0  0  0  0  0  0  0
   26.2370   32.6230   46.0460 C   0  0  0  0  0  3  0  0  0  0  0  0
  1 26  1  0  0  0  0
  1  6  1  0  0  0  0
  2  7  1  1  0  0  0
  2  3  1  0  0  0  0
  3  8  1  1  0  0  0
  4  3  1  0  0  0  0
  5  9  1  0  0  0  0
  5  4  1  0  0  0  0
  6 11  1  6  0  0  0
  6  5  1  0  0  0  0
  6  2  1  0  0  0  0
 10  5  1  0  0  0  0
 12  2  1  0  0  0  0
 13 12  1  0  0  0  0
 14  3  1  0  0  0  0
 14 19  1  0  0  0  0
 15 21  1  0  0  0  0
 16 15  1  0  0  0  0
 16 22  1  0  0  0  0
 17 16  2  0  0  0  0
 18 19  2  0  0  0  0
 18 17  1  0  0  0  0
 19 20  1  0  0  0  0
 20 15  2  0  0  0  0
 23 17  1  0  0  0  0
 24 25  1  0  0  0  0
 25 30  2  0  0  0  0
 25 26  1  0  0  0  0
 26 27  2  0  0  0  0
 27 28  1  0  0  0  0
 27 31  1  0  0  0  0
 28 32  1  0  0  0  0
 29 33  1  0  0  0  0
 29 28  2  0  0  0  0
 30 29  1  0  0  0  0
 35 30  1  0  0  0  0
 35 34  2  0  0  0  0
 36 35  1  0  0  0  0
 37 36  1  0  0  0  0
 38 36  2  0  0  0  0
 38 44  1  0  0  0  0
 39 41  1  0  0  0  0
 39 38  1  0  0  0  0
 40 39  1  0  0  0  0
 41 42  2  0  0  0  0
 42 43  1  0  0  0  0
 42 44  1  0  0  0  0
 44 45  2  0  0  0  0
 45 34  1  0  0  0  0
M  END
>  <minimizedAffinity>
-6.23576355

>  <minimizedRMSD>
1.09532368

$$$$
