
 OpenBabel03272506463D

 45 49  0  0  1  0  0  0  0  0999 V2000
   31.4600   26.8270   45.7530 O   0  0  0  0  0  0  0  0  0  0  0  0
   32.1640   28.4160   47.4380 C   0  0  2  0  0  0  0  0  0  0  0  0
   33.3880   28.3410   48.3000 C   0  0  1  0  0  0  0  0  0  0  0  0
   33.8380   27.0560   48.2840 O   0  0  0  0  0  0  0  0  0  0  0  0
   33.1970   26.3610   47.2620 C   0  0  0  0  0  0  0  0  0  0  0  0
   32.5710   27.3770   46.3450 C   0  0  1  0  0  0  0  0  0  0  0  0
   31.2250   28.1410   47.9060 H   0  0  0  0  0  0  0  0  0  0  0  0
   33.1930   28.7500   49.3100 H   0  0  0  0  0  0  0  0  0  0  0  0
   32.5350   25.6450   47.7200 H   0  0  0  0  0  0  0  0  0  0  0  0
   34.0310   25.8850   46.6790 H   0  0  0  0  0  0  0  0  0  0  0  0
   33.2750   27.9120   45.7150 H   0  0  0  0  0  0  0  0  0  0  0  0
   32.0500   29.6900   46.8440 O   0  0  0  0  0  0  0  0  0  0  0  0
   32.8260   29.7840   46.2330 H   0  0  0  0  0  0  0  0  0  0  0  0
   34.6730   29.4070   47.5270 S   0  0  0  0  0  0  0  0  0  0  0  0
   37.1540   29.2940   50.6180 C   0  0  0  0  0  0  0  0  0  0  0  0
   37.6300   30.6030   50.7400 C   0  0  0  0  0  0  0  0  0  0  0  0
   37.1720   31.5520   49.8410 C   0  0  0  0  0  0  0  0  0  0  0  0
   36.2800   31.1700   48.8790 N   0  0  0  0  0  0  0  0  0  0  0  0
   35.8430   29.8950   48.7920 C   0  0  0  0  0  0  0  0  0  0  0  0
   36.2710   28.9400   49.6570 N   0  0  0  0  0  0  0  0  0  0  0  0
   37.4540   28.4880   51.2720 H   0  0  0  0  0  0  0  0  0  0  0  0
   38.3360   30.8360   51.5260 H   0  0  0  0  0  0  0  0  0  0  0  0
   37.5050   32.5650   49.8910 H   0  0  0  0  0  0  0  0  0  0  0  0
   30.1250   28.7410   43.9580 Cl  0  0  0  0  0  0  0  0  0  0  0  0
   29.4700   27.9140   45.3510 C   0  0  0  0  0  0  0  0  0  0  0  0
   30.1940   27.0260   46.1110 C   0  0  0  0  0  0  0  0  0  0  0  0
   29.5540   26.4070   47.1870 C   0  0  0  0  0  0  0  0  0  0  0  0
   28.2330   26.6840   47.4710 C   0  0  0  0  0  0  0  0  0  0  0  0
   27.4950   27.5760   46.7130 C   0  0  0  0  0  0  0  0  0  0  0  0
   28.1310   28.1940   45.6410 C   0  0  0  0  0  0  0  0  0  0  0  0
   30.0430   25.6970   47.8310 H   0  0  0  0  0  0  0  0  0  0  0  0
   27.7440   26.2080   48.2970 H   0  0  0  0  0  0  0  0  0  0  0  0
   26.4620   27.7900   46.9400 H   0  0  0  0  0  0  0  0  0  0  0  0
   26.6160   28.5430   43.8140 C   0  0  0  0  0  3  0  0  0  0  0  0
   27.3400   29.1140   44.8690 C   0  0  0  0  0  0  0  0  0  0  0  0
   27.2020   30.4720   45.0290 C   0  0  0  0  0  0  0  0  0  0  0  0
   27.7530   30.9000   45.8300 H   0  0  0  0  0  0  0  0  0  0  0  0
   26.4040   31.2400   44.2080 C   0  0  0  0  0  0  0  0  0  0  0  0
   26.1570   32.5620   44.2210 N   0  0  0  0  0  0  0  0  0  0  0  0
   26.5730   33.2270   44.9120 H   0  0  0  0  0  0  0  0  0  0  0  0
   25.3220   32.7840   43.2200 N   0  0  0  0  0  0  0  0  0  0  0  0
   25.0260   31.6560   42.5670 C   0  0  0  0  0  0  0  0  0  0  0  0
   24.3820   31.5060   41.7150 H   0  0  0  0  0  0  0  0  0  0  0  0
   25.7120   30.6290   43.1830 C   0  0  0  0  0  0  0  0  0  0  0  0
   25.8050   29.2670   42.9640 C   0  0  0  0  0  3  0  0  0  0  0  0
  1 26  1  0  0  0  0
  1  6  1  0  0  0  0
  2  7  1  1  0  0  0
  2  3  1  0  0  0  0
  3  8  1  1  0  0  0
  4  3  1  0  0  0  0
  5  9  1  0  0  0  0
  5  4  1  0  0  0  0
  6 11  1  6  0  0  0
  6  5  1  0  0  0  0
  6  2  1  0  0  0  0
 10  5  1  0  0  0  0
 12  2  1  0  0  0  0
 13 12  1  0  0  0  0
 14  3  1  0  0  0  0
 14 19  1  0  0  0  0
 15 16  1  0  0  0  0
 15 21  1  0  0  0  0
 16 22  1  0  0  0  0
 17 23  1  0  0  0  0
 17 16  2  0  0  0  0
 18 17  1  0  0  0  0
 19 18  2  0  0  0  0
 19 20  1  0  0  0  0
 20 15  2  0  0  0  0
 24 25  1  0  0  0  0
 25 30  2  0  0  0  0
 25 26  1  0  0  0  0
 26 27  2  0  0  0  0
 27 28  1  0  0  0  0
 27 31  1  0  0  0  0
 28 32  1  0  0  0  0
 29 33  1  0  0  0  0
 29 28  2  0  0  0  0
 30 29  1  0  0  0  0
 34 35  1  0  0  0  0
 35 36  2  0  0  0  0
 35 30  1  0  0  0  0
 36 37  1  0  0  0  0
 38 39  1  0  0  0  0
 38 36  1  0  0  0  0
 39 40  1  0  0  0  0
 41 39  1  0  0  0  0
 42 44  1  0  0  0  0
 42 41  2  0  0  0  0
 43 42  1  0  0  0  0
 44 38  2  0  0  0  0
 45 44  1  0  0  0  0
 45 34  2  0  0  0  0
M  END
>  <minimizedAffinity>
-5.74269295

>  <minimizedRMSD>
0.66737771

$$$$
