
 OpenBabel03272504413D

 48 51  0  0  0  0  0  0  0  0999 V2000
   34.7060   29.3590   48.7850 C   0  0  0  0  0  0  0  0  0  0  0  0
   35.6030   29.3860   49.4450 H   0  0  0  0  0  0  0  0  0  0  0  0
   34.0600   30.1860   49.2070 H   0  0  0  0  0  0  0  0  0  0  0  0
   37.4690   30.4220   48.5120 Cl  0  0  0  0  0  0  0  0  0  0  0  0
   36.3360   30.2700   47.1700 C   0  0  0  0  0  0  0  0  0  0  0  0
   36.7230   30.6540   45.9350 C   0  0  0  0  0  0  0  0  0  0  0  0
   35.8480   30.5410   44.8750 C   0  0  0  0  0  0  0  0  0  0  0  0
   34.5730   30.0280   45.1040 C   0  0  0  0  0  0  0  0  0  0  0  0
   34.2490   29.6520   46.4220 C   0  0  0  0  0  0  0  0  0  0  0  0
   35.0920   29.7560   47.4640 C   0  0  0  0  0  0  0  0  0  0  0  0
   36.1830   30.8580   43.8800 H   0  0  0  0  0  0  0  0  0  0  0  0
   33.9760   29.9820   44.2240 H   0  0  0  0  0  0  0  0  0  0  0  0
   33.2800   29.3070   46.3890 H   0  0  0  0  0  0  0  0  0  0  0  0
   39.7130   32.8140   46.0280 C   0  0  0  0  0  0  0  0  0  0  0  0
   40.5870   32.0840   45.1450 C   0  0  0  0  0  0  0  0  0  0  0  0
   40.1110   30.9020   44.5710 C   0  0  0  0  0  0  0  0  0  0  0  0
   38.8530   30.4870   44.8620 N   0  0  0  0  0  0  0  0  0  0  0  0
   38.0520   31.1920   45.6950 C   0  0  0  0  0  0  0  0  0  0  0  0
   38.4850   32.3300   46.2600 N   0  0  0  0  0  0  0  0  0  0  0  0
   40.0820   33.7280   46.4710 H   0  0  0  0  0  0  0  0  0  0  0  0
   41.5660   32.5160   44.9910 H   0  0  0  0  0  0  0  0  0  0  0  0
   40.9960   30.2230   43.7180 N   0  0  0  0  0  0  0  0  0  0  0  0
   40.7710   30.5780   42.7610 H   0  0  0  0  0  0  0  0  0  0  0  0
   41.7540   29.5030   43.8800 H   0  0  0  0  0  0  0  0  0  0  0  0
   34.0310   28.0750   48.9980 C   0  0  0  0  0  0  0  0  0  0  0  0
   34.1380   27.4070   48.1120 H   0  0  0  0  0  0  0  0  0  0  0  0
   34.4740   27.4750   49.8420 H   0  0  0  0  0  0  0  0  0  0  0  0
   32.7090   28.2460   49.3110 O   0  0  0  0  0  0  0  0  0  0  0  0
   32.5470   26.4660   47.3870 O   0  0  0  0  0  0  0  0  0  0  0  0
   31.7390   27.3790   48.2750 P   0  0  2  0  0  0  0  0  0  0  0  0
   30.9160   28.5400   47.2850 O   0  0  0  0  0  0  0  0  0  0  0  0
   31.1140   28.3320   44.8770 C   0  0  0  0  0  3  0  0  0  0  0  0
   30.4540   28.0640   46.0590 C   0  0  0  0  0  0  0  0  0  0  0  0
   29.3140   27.2940   45.9390 C   0  0  0  0  0  0  0  0  0  0  0  0
   28.7500   27.0490   46.8440 H   0  0  0  0  0  0  0  0  0  0  0  0
   28.8590   26.8220   44.7200 C   0  0  0  0  0  0  0  0  0  0  0  0
   27.8210   26.0790   44.2960 N   0  0  0  0  0  0  0  0  0  0  0  0
   27.0820   25.6800   44.9370 H   0  0  0  0  0  0  0  0  0  0  0  0
   27.8520   25.9140   42.9830 N   0  0  0  0  0  0  0  0  0  0  0  0
   28.9270   26.5540   42.4800 C   0  0  0  0  0  0  0  0  0  0  0  0
   29.2620   26.6280   41.4340 H   0  0  0  0  0  0  0  0  0  0  0  0
   29.5580   27.1220   43.5680 C   0  0  0  0  0  0  0  0  0  0  0  0
   30.7190   27.8970   43.6290 C   0  0  0  0  0  3  0  0  0  0  0  0
   30.5530   26.5180   49.0380 O   0  0  0  0  0  0  0  0  0  0  0  0
   29.7730   27.3370   49.8230 C   0  0  0  0  0  0  0  0  0  0  0  0
   29.2900   26.6840   50.9560 F   0  0  0  0  0  0  0  0  0  0  0  0
   30.4930   28.4140   50.2960 F   0  0  0  0  0  0  0  0  0  0  0  0
   28.6870   27.8100   49.0960 F   0  0  0  0  0  0  0  0  0  0  0  0
  1 25  1  0  0  0  0
  1  3  1  0  0  0  0
  1  2  1  0  0  0  0
  5 10  1  0  0  0  0
  5  4  1  0  0  0  0
  6  5  2  0  0  0  0
  7  8  2  0  0  0  0
  7  6  1  0  0  0  0
  8  9  1  0  0  0  0
  9 10  2  0  0  0  0
 10  1  1  0  0  0  0
 11  7  1  0  0  0  0
 12  8  1  0  0  0  0
 13  9  1  0  0  0  0
 14 19  1  0  0  0  0
 14 20  1  0  0  0  0
 15 14  2  0  0  0  0
 16 17  2  0  0  0  0
 16 15  1  0  0  0  0
 17 18  1  0  0  0  0
 18  6  1  0  0  0  0
 18 19  2  0  0  0  0
 21 15  1  0  0  0  0
 22 24  1  0  0  0  0
 22 16  1  0  0  0  0
 23 22  1  0  0  0  0
 25 28  1  0  0  0  0
 25 27  1  0  0  0  0
 26 25  1  0  0  0  0
 30 29  2  6  0  0  0
 30 44  1  0  0  0  0
 30 28  1  0  0  0  0
 31 30  1  0  0  0  0
 32 33  1  0  0  0  0
 33 31  1  0  0  0  0
 34 33  2  0  0  0  0
 34 35  1  0  0  0  0
 36 34  1  0  0  0  0
 37 36  1  0  0  0  0
 37 38  1  0  0  0  0
 39 37  1  0  0  0  0
 40 39  2  0  0  0  0
 40 42  1  0  0  0  0
 41 40  1  0  0  0  0
 42 43  1  0  0  0  0
 42 36  2  0  0  0  0
 43 32  2  0  0  0  0
 44 45  1  0  0  0  0
 45 47  1  0  0  0  0
 45 46  1  0  0  0  0
 48 45  1  0  0  0  0
M  END
>  <minimizedAffinity>
-5.83477211

>  <minimizedRMSD>
0.399727553

$$$$
