
     RDKit          3D

 30 32  0  0  0  0  0  0  0  0999 V2000
   37.0559   29.4066   51.1751 C   0  0  0  0  0  0  0  0  0  0  0  0
   37.6680   30.0179   50.0825 C   0  0  0  0  0  0  0  0  0  0  0  0
   36.9093   30.4927   49.0396 C   0  0  0  0  0  0  0  0  0  0  0  0
   35.5608   30.3230   49.1571 N   0  0  0  0  0  0  0  0  0  0  0  0
   34.9808   29.7369   50.2057 C   0  0  0  0  0  0  0  0  0  0  0  0
   35.7203   29.2744   51.2216 N   0  0  0  0  0  0  0  0  0  0  0  0
   37.4511   31.1524   47.8419 C   0  0  0  0  0  0  0  0  0  0  0  0
   38.7505   31.8402   48.1509 C   0  0  0  0  0  0  0  0  0  0  0  0
   38.4564   33.3590   49.1026 S   0  0  0  0  0  0  0  0  0  0  0  0
   37.7263   29.0576   51.9595 H   0  0  0  0  0  0  0  0  0  0  0  0
   38.7221   30.1217   50.0468 H   0  0  0  0  0  0  0  0  0  0  0  0
   33.9097   29.6088   50.2860 H   0  0  0  0  0  0  0  0  0  0  0  0
   36.7626   31.9630   47.4718 H   0  0  0  0  0  0  0  0  0  0  0  0
   37.6141   30.3874   47.0407 H   0  0  0  0  0  0  0  0  0  0  0  0
   39.1249   32.2060   47.1488 H   0  0  0  0  0  0  0  0  0  0  0  0
   39.5492   31.2135   48.5334 H   0  0  0  0  0  0  0  0  0  0  0  0
   40.6443   35.1114   48.6843 C   0  0  0  0  0  0  0  0  0  0  0  0
   40.0088   34.1645   49.4618 C   0  0  0  0  0  0  0  0  0  0  0  0
   40.5621   33.7386   50.6582 C   0  0  0  0  0  0  0  0  0  0  0  0
   40.1364   32.9990   51.3368 H   0  0  0  0  0  0  0  0  0  0  0  0
   41.7742   34.2556   51.1063 C   0  0  0  0  0  0  0  0  0  0  0  0
   42.5547   34.0467   52.2068 N   0  0  0  0  0  0  0  0  0  0  0  0
   42.3037   33.3671   52.9718 H   0  0  0  0  0  0  0  0  0  0  0  0
   43.6162   34.8191   52.1204 N   0  0  0  0  0  0  0  0  0  0  0  0
   43.5676   35.5458   50.9826 C   0  0  0  0  0  0  0  0  0  0  0  0
   44.3197   36.2603   50.6710 H   0  0  0  0  0  0  0  0  0  0  0  0
   42.4123   35.2130   50.3156 C   0  0  0  0  0  0  0  0  0  0  0  0
   41.8464   35.6149   49.1427 C   0  0  0  0  0  0  0  0  0  0  0  0
   40.1289   35.3743   47.7704 H   0  0  0  0  0  0  0  0  0  0  0  0
   42.3212   36.3496   48.5207 H   0  0  0  0  0  0  0  0  0  0  0  0
  1  6  2  0
  2  1  1  0
  3  4  1  0
  3  2  2  0
  4  5  2  0
  5  6  1  0
  7  8  1  0
  7  3  1  0
  8  9  1  0
  1 10  1  0
  2 11  1  0
  5 12  1  0
  7 13  1  0
  7 14  1  0
  8 15  1  0
  8 16  1  0
 17 18  2  0
 18 19  1  0
 19 20  1  0
 19 21  2  0
 21 22  1  0
 22 23  1  0
 22 24  1  0
 24 25  2  0
 25 26  1  0
 25 27  1  0
 27 28  2  0
 28 17  1  0
 27 21  1  0
 17 29  1  0
 28 30  1  0
  9 18  1  0
M  ISO  8  10  14  11  14  12  14  13   8  14   8  15   8  16   8  20  16
M  ISO  2  23   5  26  15
M  END
>  <DihAtoms>  (1) 
7,8,17,16

>  <DihDeg>  (1) 
90.00143795082741

$$$$
