
 OpenBabel03272504413D

 48 51  0  0  0  0  0  0  0  0999 V2000
   34.6860   29.3590   48.7320 C   0  0  0  0  0  0  0  0  0  0  0  0
   35.5770   29.3890   49.3990 H   0  0  0  0  0  0  0  0  0  0  0  0
   34.0330   30.1830   49.1500 H   0  0  0  0  0  0  0  0  0  0  0  0
   37.4520   30.4180   48.4800 Cl  0  0  0  0  0  0  0  0  0  0  0  0
   36.3270   30.2720   47.1300 C   0  0  0  0  0  0  0  0  0  0  0  0
   36.7230   30.6590   45.8990 C   0  0  0  0  0  0  0  0  0  0  0  0
   35.8540   30.5500   44.8330 C   0  0  0  0  0  0  0  0  0  0  0  0
   34.5770   30.0390   45.0530 C   0  0  0  0  0  0  0  0  0  0  0  0
   34.2430   29.6590   46.3670 C   0  0  0  0  0  0  0  0  0  0  0  0
   35.0800   29.7590   47.4140 C   0  0  0  0  0  0  0  0  0  0  0  0
   36.1950   30.8690   43.8400 H   0  0  0  0  0  0  0  0  0  0  0  0
   33.9850   29.9960   44.1690 H   0  0  0  0  0  0  0  0  0  0  0  0
   33.2750   29.3160   46.3270 H   0  0  0  0  0  0  0  0  0  0  0  0
   39.7150   32.8140   46.0150 C   0  0  0  0  0  0  0  0  0  0  0  0
   40.5940   32.0840   45.1370 C   0  0  0  0  0  0  0  0  0  0  0  0
   40.1200   30.9040   44.5580 C   0  0  0  0  0  0  0  0  0  0  0  0
   38.8590   30.4900   44.8400 N   0  0  0  0  0  0  0  0  0  0  0  0
   38.0540   31.1960   45.6690 C   0  0  0  0  0  0  0  0  0  0  0  0
   38.4850   32.3320   46.2380 N   0  0  0  0  0  0  0  0  0  0  0  0
   40.0820   33.7270   46.4620 H   0  0  0  0  0  0  0  0  0  0  0  0
   41.5740   32.5150   44.9910 H   0  0  0  0  0  0  0  0  0  0  0  0
   41.0100   30.2250   43.7100 N   0  0  0  0  0  0  0  0  0  0  0  0
   40.7920   30.5810   42.7520 H   0  0  0  0  0  0  0  0  0  0  0  0
   41.7660   29.5030   43.8770 H   0  0  0  0  0  0  0  0  0  0  0  0
   34.0150   28.0720   48.9380 C   0  0  0  0  0  0  0  0  0  0  0  0
   34.0930   27.4220   48.0360 H   0  0  0  0  0  0  0  0  0  0  0  0
   34.4800   27.4530   49.7560 H   0  0  0  0  0  0  0  0  0  0  0  0
   32.7020   28.2390   49.2950 O   0  0  0  0  0  0  0  0  0  0  0  0
   32.4750   26.5370   47.3080 O   0  0  0  0  0  0  0  0  0  0  0  0
   31.6980   27.4190   48.2530 P   0  0  2  0  0  0  0  0  0  0  0  0
   30.8550   28.6220   47.3330 O   0  0  0  0  0  0  0  0  0  0  0  0
   29.1870   27.4310   46.0380 C   0  0  0  0  0  3  0  0  0  0  0  0
   30.3370   28.1910   46.1130 C   0  0  0  0  0  0  0  0  0  0  0  0
   30.9310   28.4880   44.9010 C   0  0  0  0  0  0  0  0  0  0  0  0
   31.8460   29.0880   44.9010 H   0  0  0  0  0  0  0  0  0  0  0  0
   30.4130   28.0570   43.6930 C   0  0  0  0  0  0  0  0  0  0  0  0
   30.7500   28.1810   42.3970 N   0  0  0  0  0  0  0  0  0  0  0  0
   31.5980   28.7110   42.0570 H   0  0  0  0  0  0  0  0  0  0  0  0
   29.8860   27.5540   41.6130 N   0  0  0  0  0  0  0  0  0  0  0  0
   28.9300   26.9850   42.3720 C   0  0  0  0  0  0  0  0  0  0  0  0
   28.0590   26.3900   42.0590 H   0  0  0  0  0  0  0  0  0  0  0  0
   29.2590   27.2990   43.6760 C   0  0  0  0  0  0  0  0  0  0  0  0
   28.6150   26.9680   44.8710 C   0  0  0  0  0  3  0  0  0  0  0  0
   30.5290   26.5340   49.0160 O   0  0  0  0  0  0  0  0  0  0  0  0
   29.7580   27.3310   49.8320 C   0  0  0  0  0  0  0  0  0  0  0  0
   29.3110   26.6550   50.9660 F   0  0  0  0  0  0  0  0  0  0  0  0
   30.4750   28.4100   50.3030 F   0  0  0  0  0  0  0  0  0  0  0  0
   28.6480   27.8000   49.1380 F   0  0  0  0  0  0  0  0  0  0  0  0
  1 25  1  0  0  0  0
  1  3  1  0  0  0  0
  1  2  1  0  0  0  0
  5 10  1  0  0  0  0
  5  4  1  0  0  0  0
  6  5  2  0  0  0  0
  7  8  2  0  0  0  0
  7  6  1  0  0  0  0
  8  9  1  0  0  0  0
  9 10  2  0  0  0  0
 10  1  1  0  0  0  0
 11  7  1  0  0  0  0
 12  8  1  0  0  0  0
 13  9  1  0  0  0  0
 14 19  1  0  0  0  0
 14 20  1  0  0  0  0
 15 14  2  0  0  0  0
 16 17  2  0  0  0  0
 16 15  1  0  0  0  0
 17 18  1  0  0  0  0
 18  6  1  0  0  0  0
 18 19  2  0  0  0  0
 21 15  1  0  0  0  0
 22 24  1  0  0  0  0
 22 16  1  0  0  0  0
 23 22  1  0  0  0  0
 25 28  1  0  0  0  0
 25 27  1  0  0  0  0
 26 25  1  0  0  0  0
 30 29  2  6  0  0  0
 30 44  1  0  0  0  0
 30 28  1  0  0  0  0
 31 30  1  0  0  0  0
 32 33  1  0  0  0  0
 33 31  1  0  0  0  0
 34 35  1  0  0  0  0
 34 33  2  0  0  0  0
 36 34  1  0  0  0  0
 37 36  1  0  0  0  0
 38 37  1  0  0  0  0
 39 40  2  0  0  0  0
 39 37  1  0  0  0  0
 40 42  1  0  0  0  0
 41 40  1  0  0  0  0
 42 36  2  0  0  0  0
 42 43  1  0  0  0  0
 43 32  2  0  0  0  0
 44 45  1  0  0  0  0
 45 47  1  0  0  0  0
 45 46  1  0  0  0  0
 48 45  1  0  0  0  0
M  END
>  <minimizedAffinity>
-5.71640825

>  <minimizedRMSD>
0.498380333

$$$$
