
 OpenBabel03272506463D

 45 49  0  0  1  0  0  0  0  0999 V2000
   30.4040   27.3570   45.5300 O   0  0  0  0  0  0  0  0  0  0  0  0
   31.5800   28.5890   47.2520 C   0  0  2  0  0  0  0  0  0  0  0  0
   32.7250   28.1080   48.0890 C   0  0  1  0  0  0  0  0  0  0  0  0
   32.7520   26.7480   48.0270 O   0  0  0  0  0  0  0  0  0  0  0  0
   31.9200   26.3230   46.9950 C   0  0  0  0  0  0  0  0  0  0  0  0
   31.6350   27.5130   46.1200 C   0  0  1  0  0  0  0  0  0  0  0  0
   30.6040   28.6040   47.7260 H   0  0  0  0  0  0  0  0  0  0  0  0
   32.6740   28.5230   49.1150 H   0  0  0  0  0  0  0  0  0  0  0  0
   31.0710   25.8330   47.4420 H   0  0  0  0  0  0  0  0  0  0  0  0
   32.5600   25.6300   46.3840 H   0  0  0  0  0  0  0  0  0  0  0  0
   32.4670   27.8240   45.4950 H   0  0  0  0  0  0  0  0  0  0  0  0
   31.8640   29.8550   46.6980 O   0  0  0  0  0  0  0  0  0  0  0  0
   32.6270   29.7240   46.0770 H   0  0  0  0  0  0  0  0  0  0  0  0
   34.2730   28.7480   47.3280 S   0  0  0  0  0  0  0  0  0  0  0  0
   36.1010   29.3920   50.7860 C   0  0  0  0  0  0  0  0  0  0  0  0
   36.7950   30.5920   50.6030 C   0  0  0  0  0  0  0  0  0  0  0  0
   36.6980   31.2230   49.3740 C   0  0  0  0  0  0  0  0  0  0  0  0
   35.9320   30.6490   48.4000 N   0  0  0  0  0  0  0  0  0  0  0  0
   35.2740   29.4890   48.6140 C   0  0  0  0  0  0  0  0  0  0  0  0
   35.3490   28.8440   49.8060 N   0  0  0  0  0  0  0  0  0  0  0  0
   36.1180   28.8300   51.7080 H   0  0  0  0  0  0  0  0  0  0  0  0
   37.3840   30.9900   51.4190 H   0  0  0  0  0  0  0  0  0  0  0  0
   37.2090   32.1410   49.1840 H   0  0  0  0  0  0  0  0  0  0  0  0
   29.4450   29.8830   44.3630 Cl  0  0  0  0  0  0  0  0  0  0  0  0
   28.6870   28.8900   45.5850 C   0  0  0  0  0  0  0  0  0  0  0  0
   29.2310   27.7150   46.0460 C   0  0  0  0  0  0  0  0  0  0  0  0
   28.5190   26.9930   47.0080 C   0  0  0  0  0  0  0  0  0  0  0  0
   27.3060   27.4540   47.4740 C   0  0  0  0  0  0  0  0  0  0  0  0
   26.7490   28.6360   47.0160 C   0  0  0  0  0  0  0  0  0  0  0  0
   27.4560   29.3560   46.0590 C   0  0  0  0  0  0  0  0  0  0  0  0
   28.8680   26.0630   47.4200 H   0  0  0  0  0  0  0  0  0  0  0  0
   26.7620   26.9000   48.2110 H   0  0  0  0  0  0  0  0  0  0  0  0
   25.8000   28.9930   47.3850 H   0  0  0  0  0  0  0  0  0  0  0  0
   26.5370   30.6160   44.2370 C   0  0  0  0  0  3  0  0  0  0  0  0
   26.8540   30.5780   45.6000 C   0  0  0  0  0  0  0  0  0  0  0  0
   26.5500   31.7090   46.3220 C   0  0  0  0  0  0  0  0  0  0  0  0
   26.7930   31.6760   47.3550 H   0  0  0  0  0  0  0  0  0  0  0  0
   25.9680   32.8210   45.7500 C   0  0  0  0  0  0  0  0  0  0  0  0
   25.6090   33.9950   46.2980 N   0  0  0  0  0  0  0  0  0  0  0  0
   25.7370   34.2300   47.3100 H   0  0  0  0  0  0  0  0  0  0  0  0
   25.0980   34.7130   45.3120 N   0  0  0  0  0  0  0  0  0  0  0  0
   25.1160   34.0430   44.1560 C   0  0  0  0  0  0  0  0  0  0  0  0
   24.7750   34.3510   43.1790 H   0  0  0  0  0  0  0  0  0  0  0  0
   25.6770   32.8070   44.4020 C   0  0  0  0  0  0  0  0  0  0  0  0
   25.9560   31.7030   43.6170 C   0  0  0  0  0  3  0  0  0  0  0  0
  1 26  1  0  0  0  0
  1  6  1  0  0  0  0
  2  7  1  1  0  0  0
  2  3  1  0  0  0  0
  3  8  1  1  0  0  0
  4  3  1  0  0  0  0
  5  9  1  0  0  0  0
  5  4  1  0  0  0  0
  6 11  1  6  0  0  0
  6  5  1  0  0  0  0
  6  2  1  0  0  0  0
 10  5  1  0  0  0  0
 12  2  1  0  0  0  0
 13 12  1  0  0  0  0
 14  3  1  0  0  0  0
 14 19  1  0  0  0  0
 15 21  1  0  0  0  0
 16 15  1  0  0  0  0
 16 22  1  0  0  0  0
 17 16  2  0  0  0  0
 18 19  2  0  0  0  0
 18 17  1  0  0  0  0
 19 20  1  0  0  0  0
 20 15  2  0  0  0  0
 23 17  1  0  0  0  0
 24 25  1  0  0  0  0
 25 26  2  0  0  0  0
 25 30  1  0  0  0  0
 26 27  1  0  0  0  0
 27 31  1  0  0  0  0
 27 28  2  0  0  0  0
 28 32  1  0  0  0  0
 29 33  1  0  0  0  0
 29 28  1  0  0  0  0
 30 29  2  0  0  0  0
 34 35  1  0  0  0  0
 35 30  1  0  0  0  0
 35 36  2  0  0  0  0
 36 37  1  0  0  0  0
 38 39  1  0  0  0  0
 38 36  1  0  0  0  0
 39 40  1  0  0  0  0
 41 39  1  0  0  0  0
 42 44  1  0  0  0  0
 42 41  2  0  0  0  0
 43 42  1  0  0  0  0
 44 38  2  0  0  0  0
 45 34  2  0  0  0  0
 45 44  1  0  0  0  0
M  END
>  <minimizedAffinity>
-6.39526558

>  <minimizedRMSD>
1.28152716

$$$$
