
 OpenBabel03262522053D

 43 47  0  0  1  0  0  0  0  0999 V2000
   37.7700   31.8730   49.5920 C   0  0  0  0  0  0  0  0  0  0  0  0
   36.7620   32.3680   50.1870 O   0  0  0  0  0  0  0  0  0  0  0  0
   34.5540   29.1510   48.6050 C   0  0  2  0  0  0  0  0  0  0  0  0
   35.1940   28.4070   49.7270 C   0  0  0  0  0  0  0  0  0  0  0  0
   36.3250   29.1830   50.2350 N   0  0  0  0  0  0  0  0  0  0  0  0
   37.2700   29.9110   51.0360 C   0  0  0  0  0  0  0  0  0  0  0  0
   37.4760   30.0850   52.2490 O   0  0  0  0  0  0  0  0  0  0  0  0
   37.9950   30.4440   49.9150 C   0  0  1  0  0  0  0  0  0  0  0  0
   37.1720   29.4460   49.1100 C   0  0  2  0  0  0  0  0  0  0  0  0
   35.9640   30.1620   47.9740 S   0  0  0  0  0  0  0  0  0  0  0  0
   35.4440   27.3580   49.5270 H   0  0  0  0  0  0  0  0  0  0  0  0
   34.4410   28.3940   50.5680 H   0  0  0  0  0  0  0  0  0  0  0  0
   39.0570   30.1280   49.7920 H   0  0  0  0  0  0  0  0  0  0  0  0
   37.7250   28.5800   48.7070 H   0  0  0  0  0  0  0  0  0  0  0  0
   33.3450   29.9570   48.9350 C   0  0  0  0  0  0  0  0  0  0  0  0
   32.5930   29.8340   48.1120 H   0  0  0  0  0  0  0  0  0  0  0  0
   32.9320   29.6680   49.9170 H   0  0  0  0  0  0  0  0  0  0  0  0
   33.6290   31.0300   49.0160 H   0  0  0  0  0  0  0  0  0  0  0  0
   34.2770   28.1520   47.4640 C   0  0  0  0  0  0  0  0  0  0  0  0
   34.9670   27.2960   47.5320 H   0  0  0  0  0  0  0  0  0  0  0  0
   33.2360   27.8090   47.5890 H   0  0  0  0  0  0  0  0  0  0  0  0
   34.3550   28.8340   46.2500 O   0  0  0  0  0  0  0  0  0  0  0  0
   34.1020   28.2050   45.5340 H   0  0  0  0  0  0  0  0  0  0  0  0
   38.5980   32.6300   48.7050 C   0  0  0  0  0  0  0  0  0  0  0  0
   39.2060   33.7640   49.1920 C   0  0  0  0  0  0  0  0  0  0  0  0
   40.0270   34.5100   48.3050 C   0  0  0  0  0  0  0  0  0  0  0  0
   40.1580   34.0490   47.0160 N   0  0  0  0  0  0  0  0  0  0  0  0
   39.5540   32.9530   46.5920 C   0  0  0  0  0  0  0  0  0  0  0  0
   38.7740   32.2350   47.4190 N   0  0  0  0  0  0  0  0  0  0  0  0
   39.0780   34.0980   50.2230 H   0  0  0  0  0  0  0  0  0  0  0  0
   40.5290   35.4100   48.6360 H   0  0  0  0  0  0  0  0  0  0  0  0
   39.2260   33.2160   44.1440 C   0  0  0  0  0  3  0  0  0  0  0  0
   39.7200   32.4980   45.2160 C   0  0  0  0  0  0  0  0  0  0  0  0
   40.3840   31.3210   44.9310 C   0  0  0  0  0  0  0  0  0  0  0  0
   40.7630   30.7750   45.7990 H   0  0  0  0  0  0  0  0  0  0  0  0
   40.5690   30.8420   43.6450 C   0  0  0  0  0  0  0  0  0  0  0  0
   41.1850   29.7250   43.1750 N   0  0  0  0  0  0  0  0  0  0  0  0
   41.6460   29.0090   43.7960 H   0  0  0  0  0  0  0  0  0  0  0  0
   41.0680   29.7600   41.8390 N   0  0  0  0  0  0  0  0  0  0  0  0
   40.3970   30.8680   41.4790 C   0  0  0  0  0  0  0  0  0  0  0  0
   40.1520   31.1640   40.4490 H   0  0  0  0  0  0  0  0  0  0  0  0
   40.0550   31.5970   42.5990 C   0  0  0  0  0  0  0  0  0  0  0  0
   39.3830   32.7820   42.8220 C   0  0  0  0  0  3  0  0  0  0  0  0
  1  8  1  0  0  0  0
  1  2  2  0  0  0  0
  3 19  1  6  0  0  0
  3 15  1  0  0  0  0
  3  4  1  0  0  0  0
  4  5  1  0  0  0  0
  4 12  1  0  0  0  0
  5  6  1  0  0  0  0
  6  7  2  0  0  0  0
  8 13  1  1  0  0  0
  8  6  1  0  0  0  0
  9 14  1  6  0  0  0
  9  8  1  0  0  0  0
  9  5  1  0  0  0  0
 10  3  1  0  0  0  0
 10  9  1  0  0  0  0
 11  4  1  0  0  0  0
 15 18  1  0  0  0  0
 15 17  1  0  0  0  0
 16 15  1  0  0  0  0
 19 20  1  0  0  0  0
 19 21  1  0  0  0  0
 22 19  1  0  0  0  0
 23 22  1  0  0  0  0
 24 25  1  0  0  0  0
 24  1  1  0  0  0  0
 25 30  1  0  0  0  0
 26 31  1  0  0  0  0
 26 25  2  0  0  0  0
 27 26  1  0  0  0  0
 28 27  2  0  0  0  0
 28 29  1  0  0  0  0
 29 24  2  0  0  0  0
 32 33  1  0  0  0  0
 33 28  1  0  0  0  0
 34 33  2  0  0  0  0
 34 35  1  0  0  0  0
 36 34  1  0  0  0  0
 37 36  1  0  0  0  0
 37 38  1  0  0  0  0
 39 37  1  0  0  0  0
 40 39  2  0  0  0  0
 40 42  1  0  0  0  0
 41 40  1  0  0  0  0
 42 43  1  0  0  0  0
 42 36  2  0  0  0  0
 43 32  2  0  0  0  0
M  END
>  <minimizedAffinity>
-6.84793472

>  <minimizedRMSD>
0.260119528

$$$$
