
 OpenBabel03272504413D

 48 51  0  0  0  0  0  0  0  0999 V2000
   34.6210   29.3230   48.8780 C   0  0  0  0  0  0  0  0  0  0  0  0
   35.5020   29.3320   49.5590 H   0  0  0  0  0  0  0  0  0  0  0  0
   33.9770   30.1570   49.2900 H   0  0  0  0  0  0  0  0  0  0  0  0
   37.3800   30.4160   48.6930 Cl  0  0  0  0  0  0  0  0  0  0  0  0
   36.2920   30.2520   47.3150 C   0  0  0  0  0  0  0  0  0  0  0  0
   36.7150   30.6400   46.0930 C   0  0  0  0  0  0  0  0  0  0  0  0
   35.8740   30.5170   45.0060 C   0  0  0  0  0  0  0  0  0  0  0  0
   34.5980   29.9910   45.1950 C   0  0  0  0  0  0  0  0  0  0  0  0
   34.2360   29.6110   46.5010 C   0  0  0  0  0  0  0  0  0  0  0  0
   35.0440   29.7240   47.5690 C   0  0  0  0  0  0  0  0  0  0  0  0
   36.2370   30.8380   44.0220 H   0  0  0  0  0  0  0  0  0  0  0  0
   34.0300   29.9380   44.2960 H   0  0  0  0  0  0  0  0  0  0  0  0
   33.2730   29.2560   46.4370 H   0  0  0  0  0  0  0  0  0  0  0  0
   39.6980   32.7960   46.3300 C   0  0  0  0  0  0  0  0  0  0  0  0
   40.5830   32.1150   45.4190 C   0  0  0  0  0  0  0  0  0  0  0  0
   40.1150   30.9630   44.7800 C   0  0  0  0  0  0  0  0  0  0  0  0
   38.8550   30.5320   45.0360 N   0  0  0  0  0  0  0  0  0  0  0  0
   38.0440   31.1920   45.8960 C   0  0  0  0  0  0  0  0  0  0  0  0
   38.4690   32.3000   46.5230 N   0  0  0  0  0  0  0  0  0  0  0  0
   40.0610   33.6870   46.8230 H   0  0  0  0  0  0  0  0  0  0  0  0
   41.5620   32.5560   45.2980 H   0  0  0  0  0  0  0  0  0  0  0  0
   41.0110   30.3310   43.9020 N   0  0  0  0  0  0  0  0  0  0  0  0
   40.7950   30.7350   42.9630 H   0  0  0  0  0  0  0  0  0  0  0  0
   41.7690   29.6050   44.0350 H   0  0  0  0  0  0  0  0  0  0  0  0
   33.9230   28.0480   49.0650 C   0  0  0  0  0  0  0  0  0  0  0  0
   34.0740   27.3700   48.1930 H   0  0  0  0  0  0  0  0  0  0  0  0
   34.3110   27.4520   49.9380 H   0  0  0  0  0  0  0  0  0  0  0  0
   32.5870   28.2340   49.3010 O   0  0  0  0  0  0  0  0  0  0  0  0
   32.5060   26.3270   47.4970 O   0  0  0  0  0  0  0  0  0  0  0  0
   31.6690   27.3340   48.2450 P   0  0  2  0  0  0  0  0  0  0  0  0
   30.9880   28.4530   47.1090 O   0  0  0  0  0  0  0  0  0  0  0  0
   28.7110   28.4630   46.2800 C   0  0  0  0  0  3  0  0  0  0  0  0
   29.9870   27.9390   46.2870 C   0  0  0  0  0  0  0  0  0  0  0  0
   30.1950   26.8750   45.4300 C   0  0  0  0  0  0  0  0  0  0  0  0
   31.1880   26.4180   45.3950 H   0  0  0  0  0  0  0  0  0  0  0  0
   29.1970   26.3690   44.6170 C   0  0  0  0  0  0  0  0  0  0  0  0
   29.0960   25.3790   43.7110 N   0  0  0  0  0  0  0  0  0  0  0  0
   29.8950   24.7410   43.4450 H   0  0  0  0  0  0  0  0  0  0  0  0
   27.8750   25.3140   43.2040 N   0  0  0  0  0  0  0  0  0  0  0  0
   27.1100   26.2720   43.7640 C   0  0  0  0  0  0  0  0  0  0  0  0
   26.0500   26.5070   43.5800 H   0  0  0  0  0  0  0  0  0  0  0  0
   27.9370   26.9320   44.6490 C   0  0  0  0  0  0  0  0  0  0  0  0
   27.6690   28.0100   45.4970 C   0  0  0  0  0  3  0  0  0  0  0  0
   30.3830   26.5790   48.9580 O   0  0  0  0  0  0  0  0  0  0  0  0
   29.7700   27.4040   49.8740 C   0  0  0  0  0  0  0  0  0  0  0  0
   29.3390   26.7140   51.0060 F   0  0  0  0  0  0  0  0  0  0  0  0
   30.6370   28.3720   50.3390 F   0  0  0  0  0  0  0  0  0  0  0  0
   28.6700   28.0290   49.2980 F   0  0  0  0  0  0  0  0  0  0  0  0
  1 25  1  0  0  0  0
  1  3  1  0  0  0  0
  1  2  1  0  0  0  0
  5 10  1  0  0  0  0
  5  4  1  0  0  0  0
  6  5  2  0  0  0  0
  7  8  2  0  0  0  0
  7  6  1  0  0  0  0
  8  9  1  0  0  0  0
  9 10  2  0  0  0  0
 10  1  1  0  0  0  0
 11  7  1  0  0  0  0
 12  8  1  0  0  0  0
 13  9  1  0  0  0  0
 14 19  1  0  0  0  0
 14 20  1  0  0  0  0
 15 14  2  0  0  0  0
 16 17  2  0  0  0  0
 16 15  1  0  0  0  0
 17 18  1  0  0  0  0
 18  6  1  0  0  0  0
 18 19  2  0  0  0  0
 21 15  1  0  0  0  0
 22 24  1  0  0  0  0
 22 16  1  0  0  0  0
 23 22  1  0  0  0  0
 25 28  1  0  0  0  0
 25 27  1  0  0  0  0
 26 25  1  0  0  0  0
 30 29  2  6  0  0  0
 30 44  1  0  0  0  0
 30 28  1  0  0  0  0
 31 30  1  0  0  0  0
 32 33  1  0  0  0  0
 33 31  1  0  0  0  0
 34 33  2  0  0  0  0
 35 34  1  0  0  0  0
 36 42  2  0  0  0  0
 36 34  1  0  0  0  0
 37 36  1  0  0  0  0
 38 37  1  0  0  0  0
 39 37  1  0  0  0  0
 39 40  2  0  0  0  0
 40 42  1  0  0  0  0
 41 40  1  0  0  0  0
 42 43  1  0  0  0  0
 43 32  2  0  0  0  0
 44 45  1  0  0  0  0
 45 47  1  0  0  0  0
 45 46  1  0  0  0  0
 48 45  1  0  0  0  0
M  END
>  <minimizedAffinity>
-6.08768511

>  <minimizedRMSD>
1.00044477

$$$$
