
     RDKit          3D

 38 41  0  0  0  0  0  0  0  0999 V2000
   33.7303   28.5921   48.6922 C   0  0  0  0  0  0  0  0  0  0  0  0
   32.8174   27.4622   48.3351 C   0  0  0  0  0  0  0  0  0  0  0  0
   31.3874   27.8638   48.3314 C   0  0  0  0  0  0  0  0  0  0  0  0
   30.6933   27.7405   49.5193 C   0  0  0  0  0  0  0  0  0  0  0  0
   29.3680   28.0728   49.6651 C   0  0  0  0  0  0  0  0  0  0  0  0
   28.7185   28.5399   48.5997 N   0  0  0  0  0  0  0  0  0  0  0  0
   29.3912   28.6643   47.4302 C   0  0  0  0  0  0  0  0  0  0  0  0
   30.6955   28.3388   47.2808 N   0  0  0  0  0  0  0  0  0  0  0  0
   34.6107   28.2231   49.7362 O   0  0  0  0  0  0  0  0  0  0  0  0
   37.2277   30.1852   51.2921 C   0  0  0  0  0  0  0  0  0  0  0  0
   37.9060   30.6211   50.1245 C   0  0  0  0  0  0  0  0  0  0  0  0
   37.4300   30.2204   48.8944 C   0  0  0  0  0  0  0  0  0  0  0  0
   36.3264   29.4244   48.9171 N   0  0  0  0  0  0  0  0  0  0  0  0
   35.6937   29.0182   50.0121 C   0  0  0  0  0  0  0  0  0  0  0  0
   36.1541   29.4061   51.2127 N   0  0  0  0  0  0  0  0  0  0  0  0
   34.3317   28.9538   47.8305 H   0  0  0  0  0  0  0  0  0  0  0  0
   33.1666   29.4961   49.0423 H   0  0  0  0  0  0  0  0  0  0  0  0
   32.9841   26.5548   48.9612 H   0  0  0  0  0  0  0  0  0  0  0  0
   33.0648   27.1575   47.2971 H   0  0  0  0  0  0  0  0  0  0  0  0
   31.1609   27.3628   50.4412 H   0  0  0  0  0  0  0  0  0  0  0  0
   28.8240   27.9765   50.5948 H   0  0  0  0  0  0  0  0  0  0  0  0
   28.8695   29.0480   46.5425 H   0  0  0  0  0  0  0  0  0  0  0  0
   37.5914   30.4931   52.2685 H   0  0  0  0  0  0  0  0  0  0  0  0
   38.7606   31.2423   50.2096 H   0  0  0  0  0  0  0  0  0  0  0  0
   38.0091   29.8132   46.5131 C   0  0  0  0  0  0  0  0  0  0  0  0
   38.0491   30.6094   47.6338 C   0  0  0  0  0  0  0  0  0  0  0  0
   38.6987   31.8238   47.5675 C   0  0  0  0  0  0  0  0  0  0  0  0
   38.7323   32.4607   48.4593 H   0  0  0  0  0  0  0  0  0  0  0  0
   39.3126   32.2718   46.4148 C   0  0  0  0  0  0  0  0  0  0  0  0
   40.0046   33.3705   46.0404 N   0  0  0  0  0  0  0  0  0  0  0  0
   40.1891   34.1555   46.7075 H   0  0  0  0  0  0  0  0  0  0  0  0
   40.3538   33.2328   44.7722 N   0  0  0  0  0  0  0  0  0  0  0  0
   39.9004   32.0562   44.3055 C   0  0  0  0  0  0  0  0  0  0  0  0
   40.0394   31.6739   43.2904 H   0  0  0  0  0  0  0  0  0  0  0  0
   39.2359   31.4290   45.3319 C   0  0  0  0  0  0  0  0  0  0  0  0
   38.6055   30.2044   45.3242 C   0  0  0  0  0  0  0  0  0  0  0  0
   37.5113   28.8555   46.5214 H   0  0  0  0  0  0  0  0  0  0  0  0
   38.5742   29.5732   44.4345 H   0  0  0  0  0  0  0  0  0  0  0  0
  1  9  1  0
  2  1  1  0
  3  2  1  0
  3  4  2  0
  4  5  1  0
  6  5  2  0
  7  6  1  0
  8  7  2  0
  8  3  1  0
  9 14  1  0
 11 10  2  0
 12 11  1  0
 13 12  2  0
 13 14  1  0
 14 15  2  0
 15 10  1  0
  1 16  1  0
  1 17  1  0
  2 18  1  0
  2 19  1  0
  4 20  1  0
  5 21  1  0
  7 22  1  0
 10 23  1  0
 11 24  1  0
 25 26  2  0
 26 27  1  0
 27 28  1  0
 27 29  2  0
 29 30  1  0
 30 31  1  0
 30 32  1  0
 32 33  2  0
 33 34  1  0
 33 35  1  0
 35 36  2  0
 36 25  1  0
 35 29  1  0
 25 37  1  0
 36 38  1  0
 12 26  1  0
M  ISO  8  16   8  17   8  18   8  19   8  20  14  21  14  22  14  23  14
M  ISO  4  24  14  28  16  31   5  34  15
M  END
>  <DihAtoms>  (1) 
10,11,25,24

>  <DihDeg>  (1) 
0.0030333395522380113

$$$$
