
 OpenBabel03272504413D

 48 51  0  0  0  0  0  0  0  0999 V2000
   34.7150   29.3480   48.7090 C   0  0  0  0  0  0  0  0  0  0  0  0
   35.6090   29.3760   49.3730 H   0  0  0  0  0  0  0  0  0  0  0  0
   34.0620   30.1680   49.1330 H   0  0  0  0  0  0  0  0  0  0  0  0
   37.4810   30.4070   48.4500 Cl  0  0  0  0  0  0  0  0  0  0  0  0
   36.3500   30.2700   47.1040 C   0  0  0  0  0  0  0  0  0  0  0  0
   36.7400   30.6630   45.8730 C   0  0  0  0  0  0  0  0  0  0  0  0
   35.8650   30.5610   44.8110 C   0  0  0  0  0  0  0  0  0  0  0  0
   34.5890   30.0490   45.0340 C   0  0  0  0  0  0  0  0  0  0  0  0
   34.2620   29.6620   46.3480 C   0  0  0  0  0  0  0  0  0  0  0  0
   35.1030   29.7560   47.3920 C   0  0  0  0  0  0  0  0  0  0  0  0
   36.2020   30.8860   43.8190 H   0  0  0  0  0  0  0  0  0  0  0  0
   33.9930   30.0120   44.1530 H   0  0  0  0  0  0  0  0  0  0  0  0
   33.2920   29.3200   46.3100 H   0  0  0  0  0  0  0  0  0  0  0  0
   39.7280   32.8240   45.9760 C   0  0  0  0  0  0  0  0  0  0  0  0
   40.6090   32.0890   45.1030 C   0  0  0  0  0  0  0  0  0  0  0  0
   40.1370   30.9040   44.5330 C   0  0  0  0  0  0  0  0  0  0  0  0
   38.8770   30.4900   44.8170 N   0  0  0  0  0  0  0  0  0  0  0  0
   38.0700   31.2000   45.6400 C   0  0  0  0  0  0  0  0  0  0  0  0
   38.4990   32.3410   46.2020 N   0  0  0  0  0  0  0  0  0  0  0  0
   40.0940   33.7400   46.4170 H   0  0  0  0  0  0  0  0  0  0  0  0
   41.5890   32.5210   44.9550 H   0  0  0  0  0  0  0  0  0  0  0  0
   41.0280   30.2210   43.6900 N   0  0  0  0  0  0  0  0  0  0  0  0
   40.8100   30.5700   42.7290 H   0  0  0  0  0  0  0  0  0  0  0  0
   41.7850   29.5010   43.8620 H   0  0  0  0  0  0  0  0  0  0  0  0
   34.0480   28.0580   48.9110 C   0  0  0  0  0  0  0  0  0  0  0  0
   34.1240   27.4130   48.0050 H   0  0  0  0  0  0  0  0  0  0  0  0
   34.5180   27.4360   49.7240 H   0  0  0  0  0  0  0  0  0  0  0  0
   32.7370   28.2210   49.2740 O   0  0  0  0  0  0  0  0  0  0  0  0
   32.5010   26.5390   47.2700 O   0  0  0  0  0  0  0  0  0  0  0  0
   31.7290   27.4210   48.2190 P   0  0  2  0  0  0  0  0  0  0  0  0
   30.9040   28.6420   47.3070 O   0  0  0  0  0  0  0  0  0  0  0  0
   31.0240   28.5830   44.8860 C   0  0  0  0  0  3  0  0  0  0  0  0
   30.4070   28.2340   46.0700 C   0  0  0  0  0  0  0  0  0  0  0  0
   29.2720   27.4560   45.9410 C   0  0  0  0  0  0  0  0  0  0  0  0
   28.7420   27.1500   46.8470 H   0  0  0  0  0  0  0  0  0  0  0  0
   28.7820   27.0540   44.7110 C   0  0  0  0  0  0  0  0  0  0  0  0
   27.7400   26.3220   44.2780 N   0  0  0  0  0  0  0  0  0  0  0  0
   27.0280   25.8760   44.9170 H   0  0  0  0  0  0  0  0  0  0  0  0
   27.7280   26.2370   42.9560 N   0  0  0  0  0  0  0  0  0  0  0  0
   28.7780   26.9200   42.4590 C   0  0  0  0  0  0  0  0  0  0  0  0
   29.0770   27.0620   41.4090 H   0  0  0  0  0  0  0  0  0  0  0  0
   29.4390   27.4310   43.5570 C   0  0  0  0  0  0  0  0  0  0  0  0
   30.5920   28.2170   43.6270 C   0  0  0  0  0  3  0  0  0  0  0  0
   30.5450   26.5420   48.9670 O   0  0  0  0  0  0  0  0  0  0  0  0
   29.7850   27.3380   49.7940 C   0  0  0  0  0  0  0  0  0  0  0  0
   29.3180   26.6500   50.9120 F   0  0  0  0  0  0  0  0  0  0  0  0
   30.5210   28.3940   50.2910 F   0  0  0  0  0  0  0  0  0  0  0  0
   28.6900   27.8430   49.1030 F   0  0  0  0  0  0  0  0  0  0  0  0
  1 25  1  0  0  0  0
  1  3  1  0  0  0  0
  1  2  1  0  0  0  0
  5 10  1  0  0  0  0
  5  4  1  0  0  0  0
  6  5  2  0  0  0  0
  7  8  2  0  0  0  0
  7  6  1  0  0  0  0
  8  9  1  0  0  0  0
  9 10  2  0  0  0  0
 10  1  1  0  0  0  0
 11  7  1  0  0  0  0
 12  8  1  0  0  0  0
 13  9  1  0  0  0  0
 14 19  1  0  0  0  0
 14 20  1  0  0  0  0
 15 14  2  0  0  0  0
 16 17  2  0  0  0  0
 16 15  1  0  0  0  0
 17 18  1  0  0  0  0
 18  6  1  0  0  0  0
 18 19  2  0  0  0  0
 21 15  1  0  0  0  0
 22 24  1  0  0  0  0
 22 16  1  0  0  0  0
 23 22  1  0  0  0  0
 25 28  1  0  0  0  0
 25 27  1  0  0  0  0
 26 25  1  0  0  0  0
 30 29  2  6  0  0  0
 30 44  1  0  0  0  0
 30 28  1  0  0  0  0
 31 30  1  0  0  0  0
 32 33  1  0  0  0  0
 33 31  1  0  0  0  0
 34 33  2  0  0  0  0
 34 35  1  0  0  0  0
 36 34  1  0  0  0  0
 37 36  1  0  0  0  0
 37 38  1  0  0  0  0
 39 37  1  0  0  0  0
 40 39  2  0  0  0  0
 40 42  1  0  0  0  0
 41 40  1  0  0  0  0
 42 43  1  0  0  0  0
 42 36  2  0  0  0  0
 43 32  2  0  0  0  0
 44 45  1  0  0  0  0
 45 47  1  0  0  0  0
 45 46  1  0  0  0  0
 48 45  1  0  0  0  0
M  END
>  <minimizedAffinity>
-5.80695438

>  <minimizedRMSD>
0.431583911

$$$$
