
 OpenBabel03272507423D

 44 48  0  0  0  0  0  0  0  0999 V2000
   36.7960   31.2080   50.1210 C   0  0  0  0  0  0  0  0  0  0  0  0
   35.7520   30.3200   49.8760 C   0  0  0  0  0  0  0  0  0  0  0  0
   35.5670   29.1800   50.6280 C   0  0  0  0  0  0  0  0  0  0  0  0
   36.4580   28.9560   51.6320 N   0  0  0  0  0  0  0  0  0  0  0  0
   37.4810   29.8300   51.8680 C   0  0  0  0  0  0  0  0  0  0  0  0
   37.6280   30.9170   51.1240 N   0  0  0  0  0  0  0  0  0  0  0  0
   34.8000   28.4590   50.5060 H   0  0  0  0  0  0  0  0  0  0  0  0
   38.1720   29.6180   52.6770 H   0  0  0  0  0  0  0  0  0  0  0  0
   34.3310   29.3410   48.1140 C   0  0  0  0  0  0  0  0  0  0  0  0
   34.7410   28.1210   48.0640 O   0  0  0  0  0  0  0  0  0  0  0  0
   34.7830   30.4510   48.8630 N   0  0  0  0  0  0  0  0  0  0  0  0
   34.4650   31.4290   48.7480 H   0  0  0  0  0  0  0  0  0  0  0  0
   32.2250   28.5640   47.0290 C   0  0  0  0  0  3  0  0  0  0  0  0
   33.1980   29.5250   47.2060 C   0  0  0  0  0  0  0  0  0  0  0  0
   32.9930   30.6590   46.4510 C   0  0  0  0  0  0  0  0  0  0  0  0
   33.6860   31.4840   46.5010 H   0  0  0  0  0  0  0  0  0  0  0  0
   31.9410   30.8710   45.5870 C   0  0  0  0  0  0  0  0  0  0  0  0
   31.5680   31.8810   44.7790 N   0  0  0  0  0  0  0  0  0  0  0  0
   32.0580   32.7820   44.6450 H   0  0  0  0  0  0  0  0  0  0  0  0
   30.4490   31.5350   44.1690 N   0  0  0  0  0  0  0  0  0  0  0  0
   30.0540   30.3100   44.5460 C   0  0  0  0  0  0  0  0  0  0  0  0
   29.2020   29.7350   44.2480 H   0  0  0  0  0  0  0  0  0  0  0  0
   30.9970   29.8750   45.4520 C   0  0  0  0  0  0  0  0  0  0  0  0
   31.1290   28.7070   46.1720 C   0  0  0  0  0  3  0  0  0  0  0  0
   36.8050   32.2630   49.2780 O   0  0  0  0  0  0  0  0  0  0  0  0
   38.2590   32.2520   47.2840 C   0  0  0  0  0  0  0  0  0  0  0  0
   37.8980   32.6830   48.5530 C   0  0  0  0  0  0  0  0  0  0  0  0
   38.6700   33.6240   49.2040 C   0  0  0  0  0  0  0  0  0  0  0  0
   39.8050   34.1380   48.5920 C   0  0  0  0  0  0  0  0  0  0  0  0
   40.1570   33.7020   47.3270 C   0  0  0  0  0  0  0  0  0  0  0  0
   39.3710   32.7680   46.7070 C   0  0  0  0  0  0  0  0  0  0  0  0
   38.4500   34.0050   50.1910 H   0  0  0  0  0  0  0  0  0  0  0  0
   40.4240   34.8800   49.0910 H   0  0  0  0  0  0  0  0  0  0  0  0
   41.0350   34.0760   46.8090 H   0  0  0  0  0  0  0  0  0  0  0  0
   39.7610   32.3090   45.3500 C   0  0  0  0  0  0  0  0  0  0  0  0
   40.5950   31.2760   44.9800 C   0  0  0  0  0  0  0  0  0  0  0  0
   40.6340   31.2560   43.5890 C   0  0  0  0  0  0  0  0  0  0  0  0
   39.8070   32.2940   43.1930 C   0  0  0  0  0  0  0  0  0  0  0  0
   39.3030   32.9030   44.2540 O   0  0  0  0  0  0  0  0  0  0  0  0
   41.1020   30.6290   45.6980 H   0  0  0  0  0  0  0  0  0  0  0  0
   41.1950   30.5700   42.9950 H   0  0  0  0  0  0  0  0  0  0  0  0
   39.5910   32.5860   42.1750 H   0  0  0  0  0  0  0  0  0  0  0  0
   36.7420   30.4980   46.1600 N   0  0  0  0  0  0  0  0  0  0  0  0
   37.4140   31.2770   46.6720 C   0  0  0  0  0  0  0  0  0  0  0  0
  1  6  1  0  0  0  0
  2  1  2  0  0  0  0
  2  3  1  0  0  0  0
  3  4  2  0  0  0  0
  4  5  1  0  0  0  0
  5  8  1  0  0  0  0
  6  5  2  0  0  0  0
  7  3  1  0  0  0  0
  9 11  1  0  0  0  0
 10  9  2  0  0  0  0
 11  2  1  0  0  0  0
 12 11  1  0  0  0  0
 13 14  1  0  0  0  0
 14  9  1  0  0  0  0
 15 16  1  0  0  0  0
 15 14  2  0  0  0  0
 17 15  1  0  0  0  0
 18 17  1  0  0  0  0
 19 18  1  0  0  0  0
 20 21  2  0  0  0  0
 20 18  1  0  0  0  0
 21 23  1  0  0  0  0
 22 21  1  0  0  0  0
 23 17  2  0  0  0  0
 23 24  1  0  0  0  0
 24 13  2  0  0  0  0
 25  1  1  0  0  0  0
 26 27  1  0  0  0  0
 27 28  2  0  0  0  0
 27 25  1  0  0  0  0
 28 32  1  0  0  0  0
 29 33  1  0  0  0  0
 29 28  1  0  0  0  0
 30 29  2  0  0  0  0
 31 26  2  0  0  0  0
 31 30  1  0  0  0  0
 34 30  1  0  0  0  0
 35 31  1  0  0  0  0
 36 35  2  0  0  0  0
 36 40  1  0  0  0  0
 37 36  1  0  0  0  0
 38 37  2  0  0  0  0
 38 39  1  0  0  0  0
 39 35  1  0  0  0  0
 41 37  1  0  0  0  0
 42 38  1  0  0  0  0
 43 44  3  0  0  0  0
 44 26  1  0  0  0  0
M  END
>  <minimizedAffinity>
-6.39495611

>  <minimizedRMSD>
0.772114336

$$$$
