
 OpenBabel03272504413D

 48 51  0  0  0  0  0  0  0  0999 V2000
   34.7310   29.3380   48.7050 C   0  0  0  0  0  0  0  0  0  0  0  0
   35.6290   29.3590   49.3640 H   0  0  0  0  0  0  0  0  0  0  0  0
   34.0840   30.1600   49.1360 H   0  0  0  0  0  0  0  0  0  0  0  0
   37.4960   30.3990   48.4390 Cl  0  0  0  0  0  0  0  0  0  0  0  0
   36.3590   30.2660   47.0970 C   0  0  0  0  0  0  0  0  0  0  0  0
   36.7450   30.6640   45.8660 C   0  0  0  0  0  0  0  0  0  0  0  0
   35.8670   30.5660   44.8070 C   0  0  0  0  0  0  0  0  0  0  0  0
   34.5920   30.0530   45.0330 C   0  0  0  0  0  0  0  0  0  0  0  0
   34.2690   29.6610   46.3460 C   0  0  0  0  0  0  0  0  0  0  0  0
   35.1140   29.7510   47.3870 C   0  0  0  0  0  0  0  0  0  0  0  0
   36.2000   30.8940   43.8150 H   0  0  0  0  0  0  0  0  0  0  0  0
   33.9920   30.0190   44.1530 H   0  0  0  0  0  0  0  0  0  0  0  0
   33.3000   29.3190   46.3110 H   0  0  0  0  0  0  0  0  0  0  0  0
   39.7300   32.8300   45.9580 C   0  0  0  0  0  0  0  0  0  0  0  0
   40.6120   32.0930   45.0880 C   0  0  0  0  0  0  0  0  0  0  0  0
   40.1410   30.9040   44.5230 C   0  0  0  0  0  0  0  0  0  0  0  0
   38.8820   30.4900   44.8100 N   0  0  0  0  0  0  0  0  0  0  0  0
   38.0740   31.2020   45.6300 C   0  0  0  0  0  0  0  0  0  0  0  0
   38.5010   32.3470   46.1870 N   0  0  0  0  0  0  0  0  0  0  0  0
   40.0940   33.7490   46.3940 H   0  0  0  0  0  0  0  0  0  0  0  0
   41.5900   32.5250   44.9370 H   0  0  0  0  0  0  0  0  0  0  0  0
   41.0330   30.2190   43.6830 N   0  0  0  0  0  0  0  0  0  0  0  0
   40.8150   30.5640   42.7210 H   0  0  0  0  0  0  0  0  0  0  0  0
   41.7910   29.5010   43.8580 H   0  0  0  0  0  0  0  0  0  0  0  0
   34.0590   28.0510   48.9040 C   0  0  0  0  0  0  0  0  0  0  0  0
   34.1330   27.4080   47.9960 H   0  0  0  0  0  0  0  0  0  0  0  0
   34.5270   27.4250   49.7150 H   0  0  0  0  0  0  0  0  0  0  0  0
   32.7480   28.2170   49.2670 O   0  0  0  0  0  0  0  0  0  0  0  0
   32.5060   26.5360   47.2630 O   0  0  0  0  0  0  0  0  0  0  0  0
   31.7370   27.4210   48.2120 P   0  0  2  0  0  0  0  0  0  0  0  0
   30.9170   28.6450   47.3000 O   0  0  0  0  0  0  0  0  0  0  0  0
   31.0300   28.5870   44.8780 C   0  0  0  0  0  3  0  0  0  0  0  0
   30.4170   28.2380   46.0640 C   0  0  0  0  0  0  0  0  0  0  0  0
   29.2800   27.4620   45.9370 C   0  0  0  0  0  0  0  0  0  0  0  0
   28.7520   27.1550   46.8450 H   0  0  0  0  0  0  0  0  0  0  0  0
   28.7860   27.0600   44.7080 C   0  0  0  0  0  0  0  0  0  0  0  0
   27.7430   26.3300   44.2770 N   0  0  0  0  0  0  0  0  0  0  0  0
   27.0310   25.8850   44.9190 H   0  0  0  0  0  0  0  0  0  0  0  0
   27.7280   26.2480   42.9560 N   0  0  0  0  0  0  0  0  0  0  0  0
   28.7760   26.9290   42.4550 C   0  0  0  0  0  0  0  0  0  0  0  0
   29.0720   27.0720   41.4050 H   0  0  0  0  0  0  0  0  0  0  0  0
   29.4400   27.4390   43.5530 C   0  0  0  0  0  0  0  0  0  0  0  0
   30.5950   28.2240   43.6200 C   0  0  0  0  0  3  0  0  0  0  0  0
   30.5510   26.5470   48.9610 O   0  0  0  0  0  0  0  0  0  0  0  0
   29.7960   27.3450   49.7890 C   0  0  0  0  0  0  0  0  0  0  0  0
   29.3200   26.6550   50.9030 F   0  0  0  0  0  0  0  0  0  0  0  0
   30.5390   28.3930   50.2930 F   0  0  0  0  0  0  0  0  0  0  0  0
   28.7050   27.8610   49.0980 F   0  0  0  0  0  0  0  0  0  0  0  0
  1 25  1  0  0  0  0
  1  3  1  0  0  0  0
  1  2  1  0  0  0  0
  5 10  1  0  0  0  0
  5  4  1  0  0  0  0
  6  5  2  0  0  0  0
  7  8  2  0  0  0  0
  7  6  1  0  0  0  0
  8  9  1  0  0  0  0
  9 10  2  0  0  0  0
 10  1  1  0  0  0  0
 11  7  1  0  0  0  0
 12  8  1  0  0  0  0
 13  9  1  0  0  0  0
 14 19  1  0  0  0  0
 14 20  1  0  0  0  0
 15 14  2  0  0  0  0
 16 17  2  0  0  0  0
 16 15  1  0  0  0  0
 17 18  1  0  0  0  0
 18  6  1  0  0  0  0
 18 19  2  0  0  0  0
 21 15  1  0  0  0  0
 22 24  1  0  0  0  0
 22 16  1  0  0  0  0
 23 22  1  0  0  0  0
 25 28  1  0  0  0  0
 25 27  1  0  0  0  0
 26 25  1  0  0  0  0
 30 29  2  6  0  0  0
 30 44  1  0  0  0  0
 30 28  1  0  0  0  0
 31 30  1  0  0  0  0
 32 33  1  0  0  0  0
 33 31  1  0  0  0  0
 34 33  2  0  0  0  0
 34 35  1  0  0  0  0
 36 34  1  0  0  0  0
 37 36  1  0  0  0  0
 37 38  1  0  0  0  0
 39 37  1  0  0  0  0
 40 39  2  0  0  0  0
 40 42  1  0  0  0  0
 41 40  1  0  0  0  0
 42 43  1  0  0  0  0
 42 36  2  0  0  0  0
 43 32  2  0  0  0  0
 44 45  1  0  0  0  0
 45 47  1  0  0  0  0
 45 46  1  0  0  0  0
 48 45  1  0  0  0  0
M  END
>  <minimizedAffinity>
-5.81362772

>  <minimizedRMSD>
0.262837142

$$$$
