
 OpenBabel03272509493D

 36 39  0  0  0  0  0  0  0  0999 V2000
   37.2850   30.1190   51.2990 C   0  0  0  0  0  0  0  0  0  0  0  0
   37.7990   30.7300   50.1260 C   0  0  0  0  0  0  0  0  0  0  0  0
   37.1700   30.4860   48.9230 C   0  0  0  0  0  0  0  0  0  0  0  0
   36.0870   29.6630   48.9770 N   0  0  0  0  0  0  0  0  0  0  0  0
   35.6090   29.0930   50.0770 C   0  0  0  0  0  0  0  0  0  0  0  0
   36.2190   29.3270   51.2510 N   0  0  0  0  0  0  0  0  0  0  0  0
   37.7700   30.3010   52.2550 H   0  0  0  0  0  0  0  0  0  0  0  0
   38.6510   31.3580   50.1870 H   0  0  0  0  0  0  0  0  0  0  0  0
   37.0610   30.7080   46.4520 C   0  0  0  0  0  0  0  0  0  0  0  0
   37.6140   31.0610   47.6610 C   0  0  0  0  0  0  0  0  0  0  0  0
   38.6290   31.9960   47.6840 C   0  0  0  0  0  0  0  0  0  0  0  0
   39.0710   32.2790   48.6460 H   0  0  0  0  0  0  0  0  0  0  0  0
   39.1110   32.5910   46.5350 C   0  0  0  0  0  0  0  0  0  0  0  0
   40.0590   33.5070   46.2340 N   0  0  0  0  0  0  0  0  0  0  0  0
   40.6460   33.9520   46.9770 H   0  0  0  0  0  0  0  0  0  0  0  0
   40.0660   33.6840   44.9240 N   0  0  0  0  0  0  0  0  0  0  0  0
   39.1340   32.8980   44.3570 C   0  0  0  0  0  0  0  0  0  0  0  0
   38.9150   32.8340   43.2880 H   0  0  0  0  0  0  0  0  0  0  0  0
   38.5150   32.1950   45.3620 C   0  0  0  0  0  0  0  0  0  0  0  0
   37.4990   31.2700   45.2620 C   0  0  0  0  0  0  0  0  0  0  0  0
   34.5080   28.3120   49.8350 O   0  0  0  0  0  0  0  0  0  0  0  0
   33.7030   28.5830   48.7030 C   0  0  0  0  0  0  0  0  0  0  0  0
   34.3660   28.8380   47.8490 H   0  0  0  0  0  0  0  0  0  0  0  0
   33.1440   29.5310   48.9180 H   0  0  0  0  0  0  0  0  0  0  0  0
   32.7830   27.4400   48.4120 C   0  0  0  0  0  0  0  0  0  0  0  0
   32.9420   26.5710   49.0920 H   0  0  0  0  0  0  0  0  0  0  0  0
   33.0320   27.0720   47.3950 H   0  0  0  0  0  0  0  0  0  0  0  0
   31.3560   27.8500   48.3790 C   0  0  0  0  0  0  0  0  0  0  0  0
   30.6420   27.7470   49.5570 C   0  0  0  0  0  0  0  0  0  0  0  0
   29.3170   28.0890   49.6760 C   0  0  0  0  0  0  0  0  0  0  0  0
   28.6870   28.5460   48.5950 N   0  0  0  0  0  0  0  0  0  0  0  0
   29.3800   28.6510   47.4350 C   0  0  0  0  0  0  0  0  0  0  0  0
   30.6850   28.3160   47.3110 N   0  0  0  0  0  0  0  0  0  0  0  0
   31.0920   27.3780   50.4910 H   0  0  0  0  0  0  0  0  0  0  0  0
   28.7570   28.0080   50.5980 H   0  0  0  0  0  0  0  0  0  0  0  0
   28.8760   29.0260   46.5330 H   0  0  0  0  0  0  0  0  0  0  0  0
  1  7  1  0  0  0  0
  2  8  1  0  0  0  0
  2  1  2  0  0  0  0
  3  4  2  0  0  0  0
  3  2  1  0  0  0  0
  4  5  1  0  0  0  0
  5  6  2  0  0  0  0
  6  1  1  0  0  0  0
  9 10  1  0  0  0  0
 10 11  2  0  0  0  0
 10  3  1  0  0  0  0
 11 12  1  0  0  0  0
 13 11  1  0  0  0  0
 14 13  1  0  0  0  0
 14 15  1  0  0  0  0
 16 14  1  0  0  0  0
 17 16  2  0  0  0  0
 17 19  1  0  0  0  0
 18 17  1  0  0  0  0
 19 13  2  0  0  0  0
 20 19  1  0  0  0  0
 20  9  2  0  0  0  0
 21  5  1  0  0  0  0
 22 24  1  0  0  0  0
 22 21  1  0  0  0  0
 23 22  1  0  0  0  0
 25 22  1  0  0  0  0
 25 26  1  0  0  0  0
 27 25  1  0  0  0  0
 28 25  1  0  0  0  0
 28 29  1  0  0  0  0
 29 30  2  0  0  0  0
 29 34  1  0  0  0  0
 30 35  1  0  0  0  0
 31 30  1  0  0  0  0
 32 31  2  0  0  0  0
 33 32  1  0  0  0  0
 33 28  2  0  0  0  0
 36 32  1  0  0  0  0
M  END
>  <minimizedAffinity>
-6.89756918

>  <minimizedRMSD>
0.784053445

$$$$
