REMARK  Name = 
REMARK  4 active torsions:
REMARK  status: ('A' for Active; 'I' for Inactive)
REMARK    1  A    between atoms: C_1  and  S_7
REMARK    2  A    between atoms: S_7  and  C_8
REMARK    3  A    between atoms: C_8  and  S_9
REMARK    4  A    between atoms: S_9  and  C_16
REMARK                            x       y       z     vdW  Elec       q    Type
REMARK                         _______ _______ _______ _____ _____    ______ ____
ROOT
ATOM      1  C   UNL     1      35.497  29.343  50.729  0.00  0.00    +0.000 C 
ATOM      2  H   UNL     1      35.167  28.876  51.690  0.00  0.00    +0.000 HD
ATOM      3  H   UNL     1      35.127  30.389  50.726  0.00  0.00    +0.000 HD
ENDROOT
BRANCH   1   4
ATOM      4  S   UNL     1      37.294  29.339  50.590  0.00  0.00    +0.000 S 
BRANCH   4   5
ATOM      5  C   UNL     1      37.767  30.523  49.333  0.00  0.00    +0.000 A 
ATOM      6  C   UNL     1      38.232  31.721  49.846  0.00  0.00    +0.000 A 
ATOM      7  C   UNL     1      38.624  32.702  48.918  0.00  0.00    +0.000 A 
ATOM      8  N   UNL     1      38.525  32.419  47.580  0.00  0.00    +0.000 NA
ATOM      9  C   UNL     1      38.065  31.235  47.154  0.00  0.00    +0.000 A 
ATOM     10  N   UNL     1      37.688  30.293  48.022  0.00  0.00    +0.000 NA
ATOM     11  H   UNL     1      38.328  31.988  50.891  0.00  0.00    +0.000 HD
ATOM     12  H   UNL     1      38.993  33.653  49.252  0.00  0.00    +0.000 HD
ATOM     13  H   UNL     1      38.009  31.070  46.085  0.00  0.00    +0.000 HD
ENDBRANCH   4   5
ENDBRANCH   1   4
BRANCH   1  14
ATOM     14  S   UNL     1      34.692  28.410  49.400  0.00  0.00    +0.000 S 
BRANCH  14  16
ATOM     15  C   UNL     1      32.170  29.351  48.872  0.00  0.00    +0.000 A 
ATOM     16  C   UNL     1      32.930  28.510  49.681  0.00  0.00    +0.000 A 
ATOM     17  C   UNL     1      32.263  27.792  50.672  0.00  0.00    +0.000 A 
ATOM     18  H   UNL     1      32.850  27.149  51.289  0.00  0.00    +0.000 HD
ATOM     19  C   UNL     1      30.895  27.915  50.839  0.00  0.00    +0.000 A 
ATOM     20  N   UNL     1      30.062  27.314  51.729  0.00  0.00    +0.000 N 
ATOM     21  H   UNL     1      30.276  26.625  52.486  0.00  0.00    +0.000 HD
ATOM     22  N   UNL     1      28.834  27.764  51.481  0.00  0.00    +0.000 NA
ATOM     23  C   UNL     1      28.895  28.631  50.455  0.00  0.00    +0.000 A 
ATOM     24  H   UNL     1      28.007  29.141  50.060  0.00  0.00    +0.000 HD
ATOM     25  C   UNL     1      30.197  28.762  50.006  0.00  0.00    +0.000 A 
ATOM     26  C   UNL     1      30.791  29.497  49.014  0.00  0.00    +0.000 A 
ENDBRANCH  14  16
ENDBRANCH   1  14
TORSDOF 4
