
 OpenBabel03272506463D

 45 49  0  0  1  0  0  0  0  0999 V2000
   30.4470   27.1090   45.6110 O   0  0  0  0  0  0  0  0  0  0  0  0
   31.5690   28.4200   47.3090 C   0  0  2  0  0  0  0  0  0  0  0  0
   32.7590   28.0180   48.1270 C   0  0  1  0  0  0  0  0  0  0  0  0
   32.8750   26.6620   48.0650 O   0  0  0  0  0  0  0  0  0  0  0  0
   32.0540   26.1810   47.0490 C   0  0  0  0  0  0  0  0  0  0  0  0
   31.6750   27.3480   46.1780 C   0  0  1  0  0  0  0  0  0  0  0  0
   30.6040   28.3720   47.8020 H   0  0  0  0  0  0  0  0  0  0  0  0
   32.6980   28.4300   49.1530 H   0  0  0  0  0  0  0  0  0  0  0  0
   31.2470   25.6370   47.5120 H   0  0  0  0  0  0  0  0  0  0  0  0
   32.7270   25.5310   46.4270 H   0  0  0  0  0  0  0  0  0  0  0  0
   32.4730   27.7120   45.5380 H   0  0  0  0  0  0  0  0  0  0  0  0
   31.7590   29.7010   46.7500 O   0  0  0  0  0  0  0  0  0  0  0  0
   32.5180   29.6190   46.1150 H   0  0  0  0  0  0  0  0  0  0  0  0
   34.2470   28.7570   47.3370 S   0  0  0  0  0  0  0  0  0  0  0  0
   36.1050   29.3930   50.7810 C   0  0  0  0  0  0  0  0  0  0  0  0
   36.8030   30.5890   50.5930 C   0  0  0  0  0  0  0  0  0  0  0  0
   36.6990   31.2210   49.3640 C   0  0  0  0  0  0  0  0  0  0  0  0
   35.9220   30.6510   48.3960 N   0  0  0  0  0  0  0  0  0  0  0  0
   35.2620   29.4930   48.6150 C   0  0  0  0  0  0  0  0  0  0  0  0
   35.3430   28.8480   49.8070 N   0  0  0  0  0  0  0  0  0  0  0  0
   36.1260   28.8300   51.7030 H   0  0  0  0  0  0  0  0  0  0  0  0
   37.4000   30.9850   51.4030 H   0  0  0  0  0  0  0  0  0  0  0  0
   37.2120   32.1370   49.1700 H   0  0  0  0  0  0  0  0  0  0  0  0
   29.5220   29.5780   44.3010 Cl  0  0  0  0  0  0  0  0  0  0  0  0
   28.7390   28.6520   45.5590 C   0  0  0  0  0  0  0  0  0  0  0  0
   29.2680   27.4990   46.0880 C   0  0  0  0  0  0  0  0  0  0  0  0
   28.5360   26.8310   47.0730 C   0  0  0  0  0  0  0  0  0  0  0  0
   27.3190   27.3220   47.4960 C   0  0  0  0  0  0  0  0  0  0  0  0
   26.7770   28.4820   46.9700 C   0  0  0  0  0  0  0  0  0  0  0  0
   27.5040   29.1490   45.9890 C   0  0  0  0  0  0  0  0  0  0  0  0
   28.8730   25.9210   47.5380 H   0  0  0  0  0  0  0  0  0  0  0  0
   26.7600   26.8090   48.2520 H   0  0  0  0  0  0  0  0  0  0  0  0
   25.8240   28.8630   47.3040 H   0  0  0  0  0  0  0  0  0  0  0  0
   26.7770   31.4030   46.3700 C   0  0  0  0  0  3  0  0  0  0  0  0
   26.9160   30.3490   45.4590 C   0  0  0  0  0  0  0  0  0  0  0  0
   26.4710   30.5960   44.1810 C   0  0  0  0  0  0  0  0  0  0  0  0
   26.5760   29.7920   43.4940 H   0  0  0  0  0  0  0  0  0  0  0  0
   25.9200   31.8020   43.8060 C   0  0  0  0  0  0  0  0  0  0  0  0
   25.4410   32.2090   42.6170 N   0  0  0  0  0  0  0  0  0  0  0  0
   25.4250   31.6110   41.7590 H   0  0  0  0  0  0  0  0  0  0  0  0
   25.0310   33.4530   42.7990 N   0  0  0  0  0  0  0  0  0  0  0  0
   25.2300   33.8570   44.0580 C   0  0  0  0  0  0  0  0  0  0  0  0
   25.0040   34.8070   44.5170 H   0  0  0  0  0  0  0  0  0  0  0  0
   25.8070   32.8080   44.7420 C   0  0  0  0  0  0  0  0  0  0  0  0
   26.2340   32.6280   46.0460 C   0  0  0  0  0  3  0  0  0  0  0  0
  1 26  1  0  0  0  0
  1  6  1  0  0  0  0
  2  7  1  1  0  0  0
  2  3  1  0  0  0  0
  3  8  1  1  0  0  0
  4  3  1  0  0  0  0
  5  9  1  0  0  0  0
  5  4  1  0  0  0  0
  6 11  1  6  0  0  0
  6  5  1  0  0  0  0
  6  2  1  0  0  0  0
 10  5  1  0  0  0  0
 12  2  1  0  0  0  0
 13 12  1  0  0  0  0
 14  3  1  0  0  0  0
 14 19  1  0  0  0  0
 15 21  1  0  0  0  0
 16 15  1  0  0  0  0
 16 22  1  0  0  0  0
 17 16  2  0  0  0  0
 18 19  2  0  0  0  0
 18 17  1  0  0  0  0
 19 20  1  0  0  0  0
 20 15  2  0  0  0  0
 23 17  1  0  0  0  0
 24 25  1  0  0  0  0
 25 30  2  0  0  0  0
 25 26  1  0  0  0  0
 26 27  2  0  0  0  0
 27 28  1  0  0  0  0
 27 31  1  0  0  0  0
 28 32  1  0  0  0  0
 29 33  1  0  0  0  0
 29 28  2  0  0  0  0
 30 29  1  0  0  0  0
 35 30  1  0  0  0  0
 35 34  2  0  0  0  0
 36 35  1  0  0  0  0
 37 36  1  0  0  0  0
 38 36  2  0  0  0  0
 38 44  1  0  0  0  0
 39 41  1  0  0  0  0
 39 38  1  0  0  0  0
 40 39  1  0  0  0  0
 41 42  2  0  0  0  0
 42 43  1  0  0  0  0
 42 44  1  0  0  0  0
 44 45  2  0  0  0  0
 45 34  1  0  0  0  0
M  END
>  <minimizedAffinity>
-6.23498154

>  <minimizedRMSD>
1.08591914

$$$$
