
 OpenBabel03262521473D

 33 35  0  0  0  0  0  0  0  0999 V2000
   34.7270   30.6490   49.2920 O   0  0  0  0  0  0  0  0  0  0  0  0
   34.5010   29.4540   50.2040 P   0  0  2  0  0  0  0  0  0  0  0  0
   33.0380   29.7230   50.9840 O   0  0  0  0  0  0  0  0  0  0  0  0
   33.1000   29.3530   51.8920 H   0  0  0  0  0  0  0  0  0  0  0  0
   35.7840   29.3830   51.3120 O   0  0  0  0  0  0  0  0  0  0  0  0
   37.0110   29.2450   50.6530 C   0  0  0  0  0  0  0  0  0  0  0  0
   36.8570   29.0550   49.5890 H   0  0  0  0  0  0  0  0  0  0  0  0
   37.5540   28.3470   51.0630 H   0  0  0  0  0  0  0  0  0  0  0  0
   37.7810   30.5080   50.8390 C   0  0  0  0  0  0  0  0  0  0  0  0
   38.7230   30.2780   51.4090 H   0  0  0  0  0  0  0  0  0  0  0  0
   37.2450   31.2490   51.4950 H   0  0  0  0  0  0  0  0  0  0  0  0
   38.1360   31.2100   49.6030 C   0  0  0  0  0  0  0  0  0  0  0  0
   38.5680   32.5320   49.5940 C   0  0  0  0  0  0  0  0  0  0  0  0
   38.8800   33.0940   48.3470 C   0  0  0  0  0  0  0  0  0  0  0  0
   38.7450   32.3270   47.2210 N   0  0  0  0  0  0  0  0  0  0  0  0
   38.3140   31.0280   47.2910 C   0  0  0  0  0  0  0  0  0  0  0  0
   38.0120   30.4780   48.4880 N   0  0  0  0  0  0  0  0  0  0  0  0
   38.6560   33.0910   50.5140 H   0  0  0  0  0  0  0  0  0  0  0  0
   39.2200   34.1190   48.2820 H   0  0  0  0  0  0  0  0  0  0  0  0
   38.2280   30.4720   46.3640 H   0  0  0  0  0  0  0  0  0  0  0  0
   34.3930   28.0370   49.3070 O   0  0  0  0  0  0  0  0  0  0  0  0
   32.2070   27.6360   48.4230 C   0  0  0  0  0  3  0  0  0  0  0  0
   33.5270   28.0000   48.2210 C   0  0  0  0  0  0  0  0  0  0  0  0
   33.8700   28.3010   46.9240 C   0  0  0  0  0  0  0  0  0  0  0  0
   34.8950   28.5870   46.7410 H   0  0  0  0  0  0  0  0  0  0  0  0
   32.9410   28.2390   45.8990 C   0  0  0  0  0  0  0  0  0  0  0  0
   33.0600   28.4840   44.5990 N   0  0  0  0  0  0  0  0  0  0  0  0
   33.8990   28.7870   44.0320 H   0  0  0  0  0  0  0  0  0  0  0  0
   31.8780   28.2880   44.0010 N   0  0  0  0  0  0  0  0  0  0  0  0
   30.9720   27.9060   44.9370 C   0  0  0  0  0  0  0  0  0  0  0  0
   29.9100   27.6630   44.8040 H   0  0  0  0  0  0  0  0  0  0  0  0
   31.6250   27.8680   46.1510 C   0  0  0  0  0  0  0  0  0  0  0  0
   31.2450   27.5610   47.4260 C   0  0  0  0  0  3  0  0  0  0  0  0
  2  1  2  6  0  0  0
  2  3  1  0  0  0  0
  2  5  1  0  0  0  0
  3  4  1  0  0  0  0
  6  9  1  0  0  0  0
  6  8  1  0  0  0  0
  6  5  1  0  0  0  0
  7  6  1  0  0  0  0
  9 10  1  0  0  0  0
  9 11  1  0  0  0  0
 12  9  1  0  0  0  0
 13 12  1  0  0  0  0
 13 18  1  0  0  0  0
 14 13  2  0  0  0  0
 15 16  2  0  0  0  0
 15 14  1  0  0  0  0
 16 17  1  0  0  0  0
 17 12  2  0  0  0  0
 19 14  1  0  0  0  0
 20 16  1  0  0  0  0
 21  2  1  0  0  0  0
 23 22  1  0  0  0  0
 23 21  1  0  0  0  0
 24 23  2  0  0  0  0
 25 24  1  0  0  0  0
 26 32  2  0  0  0  0
 26 24  1  0  0  0  0
 27 26  1  0  0  0  0
 28 27  1  0  0  0  0
 29 27  1  0  0  0  0
 29 30  2  0  0  0  0
 30 32  1  0  0  0  0
 31 30  1  0  0  0  0
 32 33  1  0  0  0  0
 33 22  2  0  0  0  0
M  END
>  <minimizedAffinity>
-5.39119482

>  <minimizedRMSD>
0.894648194

$$$$
