
 OpenBabel03272510243D

 35 39  0  0  0  0  0  0  0  0999 V2000
   35.9880   30.1070   46.9760 C   0  0  0  0  0  0  0  0  0  0  0  0
   36.9040   30.6590   47.8550 C   0  0  0  0  0  0  0  0  0  0  0  0
   37.8800   31.5340   47.4050 C   0  0  0  0  0  0  0  0  0  0  0  0
   37.8820   31.8200   46.0350 C   0  0  0  0  0  0  0  0  0  0  0  0
   38.7260   32.6360   45.3540 N   0  0  0  0  0  0  0  0  0  0  0  0
   38.3480   32.6000   44.0690 C   0  0  0  0  0  0  0  0  0  0  0  0
   37.3000   31.7930   43.9170 N   0  0  0  0  0  0  0  0  0  0  0  0
   36.9890   31.2910   45.1290 C   0  0  0  0  0  0  0  0  0  0  0  0
   36.0180   30.4140   45.6140 C   0  0  0  0  0  0  0  0  0  0  0  0
   35.2370   29.4350   47.3240 H   0  0  0  0  0  0  0  0  0  0  0  0
   38.5830   31.9560   48.0850 H   0  0  0  0  0  0  0  0  0  0  0  0
   39.5250   33.1910   45.7650 H   0  0  0  0  0  0  0  0  0  0  0  0
   35.2990   29.9810   44.9220 H   0  0  0  0  0  0  0  0  0  0  0  0
   37.5440   30.1400   51.5250 C   0  0  0  0  0  0  0  0  0  0  0  0
   37.7720   30.5500   50.2220 C   0  0  0  0  0  0  0  0  0  0  0  0
   36.8070   30.2900   49.2620 C   0  0  0  0  0  0  0  0  0  0  0  0
   35.6690   29.6330   49.6590 N   0  0  0  0  0  0  0  0  0  0  0  0
   35.4870   29.2510   50.9380 C   0  0  0  0  0  0  0  0  0  0  0  0
   36.4080   29.5000   51.8530 N   0  0  0  0  0  0  0  0  0  0  0  0
   38.3510   30.3820   52.2200 H   0  0  0  0  0  0  0  0  0  0  0  0
   38.6700   31.0730   49.8870 H   0  0  0  0  0  0  0  0  0  0  0  0
   34.5790   28.7290   51.2490 H   0  0  0  0  0  0  0  0  0  0  0  0
   39.0130   33.3360   43.0850 O   0  0  0  0  0  0  0  0  0  0  0  0
   40.0310   31.6200   41.8890 C   0  0  0  0  0  3  0  0  0  0  0  0
   39.2190   32.7550   41.8470 C   0  0  0  0  0  0  0  0  0  0  0  0
   38.7320   33.1520   40.6010 C   0  0  0  0  0  0  0  0  0  0  0  0
   38.1220   34.0240   40.6460 H   0  0  0  0  0  0  0  0  0  0  0  0
   39.0650   32.4210   39.4820 C   0  0  0  0  0  0  0  0  0  0  0  0
   38.7080   32.6260   38.2030 N   0  0  0  0  0  0  0  0  0  0  0  0
   38.1060   33.3880   37.8220 H   0  0  0  0  0  0  0  0  0  0  0  0
   39.2490   31.6820   37.4340 N   0  0  0  0  0  0  0  0  0  0  0  0
   39.9680   30.8450   38.1950 C   0  0  0  0  0  0  0  0  0  0  0  0
   40.5600   29.9630   37.9920 H   0  0  0  0  0  0  0  0  0  0  0  0
   39.8640   31.2980   39.5070 C   0  0  0  0  0  0  0  0  0  0  0  0
   40.3510   30.9020   40.7580 C   0  0  0  0  0  3  0  0  0  0  0  0
  1 10  1  0  0  0  0
  1  2  1  0  0  0  0
  2 16  1  0  0  0  0
  3  2  2  0  0  0  0
  3 11  1  0  0  0  0
  4  3  1  0  0  0  0
  5 12  1  0  0  0  0
  5  4  1  0  0  0  0
  6  5  1  0  0  0  0
  7  6  2  0  0  0  0
  7  8  1  0  0  0  0
  8  9  1  0  0  0  0
  8  4  2  0  0  0  0
  9  1  2  0  0  0  0
 13  9  1  0  0  0  0
 14 19  1  0  0  0  0
 14 20  1  0  0  0  0
 15 14  2  0  0  0  0
 16 17  2  0  0  0  0
 16 15  1  0  0  0  0
 17 18  1  0  0  0  0
 18 22  1  0  0  0  0
 18 19  2  0  0  0  0
 21 15  1  0  0  0  0
 23  6  1  0  0  0  0
 25 24  1  0  0  0  0
 25 23  1  0  0  0  0
 26 27  1  0  0  0  0
 26 25  2  0  0  0  0
 28 34  2  0  0  0  0
 28 26  1  0  0  0  0
 29 28  1  0  0  0  0
 30 29  1  0  0  0  0
 31 32  2  0  0  0  0
 31 29  1  0  0  0  0
 32 34  1  0  0  0  0
 33 32  1  0  0  0  0
 34 35  1  0  0  0  0
 35 24  2  0  0  0  0
M  END
>  <minimizedAffinity>
-5.62070942

>  <minimizedRMSD>
2.11101651

$$$$
