
     RDKit          3D

 35 37  0  0  0  0  0  0  0  0999 V2000
   37.7242   30.5081   50.8305 C   0  0  0  0  0  0  0  0  0  0  0  0
   38.1114   31.2132   49.6065 C   0  0  0  0  0  0  0  0  0  0  0  0
   38.5389   32.5358   49.6107 C   0  0  0  0  0  0  0  0  0  0  0  0
   38.8825   33.1020   48.3753 C   0  0  0  0  0  0  0  0  0  0  0  0
   38.7816   32.3363   47.2440 N   0  0  0  0  0  0  0  0  0  0  0  0
   38.3534   31.0356   47.2997 C   0  0  0  0  0  0  0  0  0  0  0  0
   38.0205   30.4834   48.4874 N   0  0  0  0  0  0  0  0  0  0  0  0
   36.9556   29.2470   50.6215 C   0  0  0  0  0  0  0  0  0  0  0  0
   35.7090   29.3902   51.2410 O   0  0  0  0  0  0  0  0  0  0  0  0
   34.6895   30.5408   49.1337 O   0  0  0  0  0  0  0  0  0  0  0  0
   34.4545   29.3888   50.0971 P   0  0  2  0  0  0  0  0  0  0  0  0
   32.9676   29.6753   50.8238 O   0  0  0  0  0  0  0  0  0  0  0  0
   34.3904   27.9276   49.2679 O   0  0  0  0  0  0  0  0  0  0  0  0
   38.6511   30.2731   51.4230 H   0  0  0  0  0  0  0  0  0  0  0  0
   37.1728   31.2479   51.4762 H   0  0  0  0  0  0  0  0  0  0  0  0
   38.5995   33.0938   50.5340 H   0  0  0  0  0  0  0  0  0  0  0  0
   39.2217   34.1282   48.3212 H   0  0  0  0  0  0  0  0  0  0  0  0
   38.2948   30.4811   46.3695 H   0  0  0  0  0  0  0  0  0  0  0  0
   36.8350   29.0566   49.5533 H   0  0  0  0  0  0  0  0  0  0  0  0
   37.4816   28.3481   51.0492 H   0  0  0  0  0  0  0  0  0  0  0  0
   33.0113   29.3502   51.7514 H   0  0  0  0  0  0  0  0  0  0  0  0
   32.5850   27.6995   47.7154 C   0  0  0  0  0  0  0  0  0  0  0  0
   33.9291   27.9259   47.9568 C   0  0  0  0  0  0  0  0  0  0  0  0
   34.7086   28.1348   46.8438 C   0  0  0  0  0  0  0  0  0  0  0  0
   35.7602   28.3136   47.0069 H   0  0  0  0  0  0  0  0  0  0  0  0
   34.1656   28.1162   45.5700 C   0  0  0  0  0  0  0  0  0  0  0  0
   34.7289   28.2910   44.3803 N   0  0  0  0  0  0  0  0  0  0  0  0
   35.7337   28.4875   44.1197 H   0  0  0  0  0  0  0  0  0  0  0  0
   33.7943   28.1822   43.4273 N   0  0  0  0  0  0  0  0  0  0  0  0
   32.5979   27.9310   44.0141 C   0  0  0  0  0  0  0  0  0  0  0  0
   31.6182   27.7845   43.5406 H   0  0  0  0  0  0  0  0  0  0  0  0
   32.8086   27.8845   45.3759 C   0  0  0  0  0  0  0  0  0  0  0  0
   32.0014   27.6726   46.4575 C   0  0  0  0  0  0  0  0  0  0  0  0
   31.9180   27.5273   48.5639 H   0  0  0  0  0  0  0  0  0  0  0  0
   30.9484   27.4917   46.3270 H   0  0  0  0  0  0  0  0  0  0  0  0
  2  1  1  0
  3  2  2  0
  4  3  1  0
  5  6  1  0
  5  4  2  0
  6  7  2  0
  7  2  1  0
  8  1  1  0
  8  9  1  0
 10 11  2  0
 11 12  1  1
 11  9  1  0
 13 11  1  0
  1 14  1  0
  1 15  1  0
  3 16  1  0
  4 17  1  0
  6 18  1  0
  8 19  1  0
  8 20  1  0
 12 21  1  0
 22 23  2  0
 23 24  1  0
 24 25  1  0
 24 26  2  0
 26 27  1  0
 27 28  1  0
 27 29  1  0
 29 30  2  0
 30 31  1  0
 30 32  1  0
 32 33  2  0
 33 22  1  0
 32 26  1  0
 22 34  1  0
 33 35  1  0
 13 23  1  0
M  ISO  8  14   8  15   8  16  14  17  14  18  14  19   8  20   8  21   3
M  ISO  3  25  16  28   5  31  15
M  END
>  <DihAtoms>  (1) 
10,12,22,21

>  <DihDeg>  (1) 
87.61513838628973

$$$$
