
 OpenBabel03272510243D

 35 39  0  0  0  0  0  0  0  0999 V2000
   36.0120   30.0600   46.5580 C   0  0  0  0  0  0  0  0  0  0  0  0
   36.9230   30.6710   47.4030 C   0  0  0  0  0  0  0  0  0  0  0  0
   37.8770   31.5440   46.9040 C   0  0  0  0  0  0  0  0  0  0  0  0
   37.8630   31.7650   45.5230 C   0  0  0  0  0  0  0  0  0  0  0  0
   38.6840   32.5660   44.7960 N   0  0  0  0  0  0  0  0  0  0  0  0
   38.2980   32.4620   43.5180 C   0  0  0  0  0  0  0  0  0  0  0  0
   37.2660   31.6260   43.4120 N   0  0  0  0  0  0  0  0  0  0  0  0
   36.9740   31.1760   44.6500 C   0  0  0  0  0  0  0  0  0  0  0  0
   36.0250   30.3030   45.1830 C   0  0  0  0  0  0  0  0  0  0  0  0
   35.2780   29.3890   46.9430 H   0  0  0  0  0  0  0  0  0  0  0  0
   38.5760   32.0110   47.5580 H   0  0  0  0  0  0  0  0  0  0  0  0
   39.4750   33.1550   45.1750 H   0  0  0  0  0  0  0  0  0  0  0  0
   35.3110   29.8240   44.5180 H   0  0  0  0  0  0  0  0  0  0  0  0
   37.5680   30.3970   51.0980 C   0  0  0  0  0  0  0  0  0  0  0  0
   37.7720   30.7600   49.7770 C   0  0  0  0  0  0  0  0  0  0  0  0
   36.8440   30.3660   48.8260 C   0  0  0  0  0  0  0  0  0  0  0  0
   35.7660   29.6300   49.2490 N   0  0  0  0  0  0  0  0  0  0  0  0
   35.6050   29.2990   50.5450 C   0  0  0  0  0  0  0  0  0  0  0  0
   36.4890   29.6750   51.4510 N   0  0  0  0  0  0  0  0  0  0  0  0
   38.3420   30.7460   51.7850 H   0  0  0  0  0  0  0  0  0  0  0  0
   38.6230   31.3440   49.4220 H   0  0  0  0  0  0  0  0  0  0  0  0
   34.7430   28.7140   50.8770 H   0  0  0  0  0  0  0  0  0  0  0  0
   38.9390   33.1640   42.4950 O   0  0  0  0  0  0  0  0  0  0  0  0
   36.8490   33.7660   41.6710 C   0  0  0  0  0  3  0  0  0  0  0  0
   38.2010   33.5550   41.3940 C   0  0  0  0  0  0  0  0  0  0  0  0
   38.6260   33.7590   40.0810 C   0  0  0  0  0  0  0  0  0  0  0  0
   39.6680   33.5800   39.9440 H   0  0  0  0  0  0  0  0  0  0  0  0
   37.7150   34.1510   39.1270 C   0  0  0  0  0  0  0  0  0  0  0  0
   37.9130   34.4000   37.8210 N   0  0  0  0  0  0  0  0  0  0  0  0
   38.8060   34.3380   37.2870 H   0  0  0  0  0  0  0  0  0  0  0  0
   36.7580   34.7560   37.2580 N   0  0  0  0  0  0  0  0  0  0  0  0
   35.7890   34.7470   38.1830 C   0  0  0  0  0  0  0  0  0  0  0  0
   34.7300   34.9640   38.1660 H   0  0  0  0  0  0  0  0  0  0  0  0
   36.3780   34.3630   39.3850 C   0  0  0  0  0  0  0  0  0  0  0  0
   35.9520   34.1600   40.7020 C   0  0  0  0  0  3  0  0  0  0  0  0
  1 10  1  0  0  0  0
  1  2  1  0  0  0  0
  2 16  1  0  0  0  0
  3  2  2  0  0  0  0
  3 11  1  0  0  0  0
  4  3  1  0  0  0  0
  5 12  1  0  0  0  0
  5  4  1  0  0  0  0
  6  5  1  0  0  0  0
  7  6  2  0  0  0  0
  7  8  1  0  0  0  0
  8  9  1  0  0  0  0
  8  4  2  0  0  0  0
  9  1  2  0  0  0  0
 13  9  1  0  0  0  0
 14 19  1  0  0  0  0
 14 20  1  0  0  0  0
 15 14  2  0  0  0  0
 16 17  2  0  0  0  0
 16 15  1  0  0  0  0
 17 18  1  0  0  0  0
 18 22  1  0  0  0  0
 18 19  2  0  0  0  0
 21 15  1  0  0  0  0
 23  6  1  0  0  0  0
 25 24  1  0  0  0  0
 25 23  1  0  0  0  0
 26 25  2  0  0  0  0
 27 26  1  0  0  0  0
 28 34  2  0  0  0  0
 28 26  1  0  0  0  0
 29 28  1  0  0  0  0
 30 29  1  0  0  0  0
 31 29  1  0  0  0  0
 31 32  2  0  0  0  0
 32 34  1  0  0  0  0
 33 32  1  0  0  0  0
 34 35  1  0  0  0  0
 35 24  2  0  0  0  0
M  END
>  <minimizedAffinity>
-5.50464153

>  <minimizedRMSD>
2.35028768

$$$$
