
     RDKit          3D

 35 37  0  0  0  0  0  0  0  0999 V2000
   37.7242   30.5081   50.8305 C   0  0  0  0  0  0  0  0  0  0  0  0
   38.1114   31.2132   49.6065 C   0  0  0  0  0  0  0  0  0  0  0  0
   38.5389   32.5358   49.6107 C   0  0  0  0  0  0  0  0  0  0  0  0
   38.8825   33.1020   48.3753 C   0  0  0  0  0  0  0  0  0  0  0  0
   38.7816   32.3363   47.2440 N   0  0  0  0  0  0  0  0  0  0  0  0
   38.3534   31.0356   47.2997 C   0  0  0  0  0  0  0  0  0  0  0  0
   38.0205   30.4834   48.4874 N   0  0  0  0  0  0  0  0  0  0  0  0
   36.9556   29.2470   50.6215 C   0  0  0  0  0  0  0  0  0  0  0  0
   35.7090   29.3902   51.2410 O   0  0  0  0  0  0  0  0  0  0  0  0
   34.6895   30.5408   49.1337 O   0  0  0  0  0  0  0  0  0  0  0  0
   34.4545   29.3888   50.0971 P   0  0  2  0  0  0  0  0  0  0  0  0
   32.9676   29.6753   50.8238 O   0  0  0  0  0  0  0  0  0  0  0  0
   34.3904   27.9276   49.2679 O   0  0  0  0  0  0  0  0  0  0  0  0
   38.6511   30.2731   51.4230 H   0  0  0  0  0  0  0  0  0  0  0  0
   37.1728   31.2479   51.4762 H   0  0  0  0  0  0  0  0  0  0  0  0
   38.5995   33.0938   50.5340 H   0  0  0  0  0  0  0  0  0  0  0  0
   39.2217   34.1282   48.3212 H   0  0  0  0  0  0  0  0  0  0  0  0
   38.2948   30.4811   46.3695 H   0  0  0  0  0  0  0  0  0  0  0  0
   36.8350   29.0566   49.5533 H   0  0  0  0  0  0  0  0  0  0  0  0
   37.4816   28.3481   51.0492 H   0  0  0  0  0  0  0  0  0  0  0  0
   33.0113   29.3502   51.7514 H   0  0  0  0  0  0  0  0  0  0  0  0
   34.7324   28.4504   46.9589 C   0  0  0  0  0  0  0  0  0  0  0  0
   33.9291   27.9259   47.9568 C   0  0  0  0  0  0  0  0  0  0  0  0
   32.7115   27.4363   47.5474 C   0  0  0  0  0  0  0  0  0  0  0  0
   32.0675   27.0221   48.3078 H   0  0  0  0  0  0  0  0  0  0  0  0
   32.3302   27.4741   46.2166 C   0  0  0  0  0  0  0  0  0  0  0  0
   31.2190   27.0633   45.6168 N   0  0  0  0  0  0  0  0  0  0  0  0
   30.3538   26.6060   46.0150 H   0  0  0  0  0  0  0  0  0  0  0  0
   31.3065   27.3118   44.3038 N   0  0  0  0  0  0  0  0  0  0  0  0
   32.5025   27.8973   44.0477 C   0  0  0  0  0  0  0  0  0  0  0  0
   32.9094   28.2355   43.0857 H   0  0  0  0  0  0  0  0  0  0  0  0
   33.1709   28.0110   45.2483 C   0  0  0  0  0  0  0  0  0  0  0  0
   34.3893   28.5074   45.6163 C   0  0  0  0  0  0  0  0  0  0  0  0
   35.7120   28.8539   47.2273 H   0  0  0  0  0  0  0  0  0  0  0  0
   35.0538   28.9270   44.8807 H   0  0  0  0  0  0  0  0  0  0  0  0
  2  1  1  0
  3  2  2  0
  4  3  1  0
  5  6  1  0
  5  4  2  0
  6  7  2  0
  7  2  1  0
  8  1  1  0
  8  9  1  0
 10 11  2  0
 11 12  1  1
 11  9  1  0
 13 11  1  0
  1 14  1  0
  1 15  1  0
  3 16  1  0
  4 17  1  0
  6 18  1  0
  8 19  1  0
  8 20  1  0
 12 21  1  0
 22 23  2  0
 23 24  1  0
 24 25  1  0
 24 26  2  0
 26 27  1  0
 27 28  1  0
 27 29  1  0
 29 30  2  0
 30 31  1  0
 30 32  1  0
 32 33  2  0
 33 22  1  0
 32 26  1  0
 22 34  1  0
 33 35  1  0
 13 23  1  0
M  ISO  8  14   8  15   8  16  14  17  14  18  14  19   8  20   8  21   3
M  ISO  3  25  16  28   5  31  15
M  END
>  <DihAtoms>  (1) 
10,12,22,21

>  <DihDeg>  (1) 
87.61513838628973

$$$$
