
 OpenBabel03262521473D

 33 35  0  0  0  0  0  0  0  0999 V2000
   34.7260   30.5450   49.1670 O   0  0  0  0  0  0  0  0  0  0  0  0
   34.4790   29.4150   50.1530 P   0  0  2  0  0  0  0  0  0  0  0  0
   33.0180   29.7560   50.9080 O   0  0  0  0  0  0  0  0  0  0  0  0
   33.0720   29.4430   51.8390 H   0  0  0  0  0  0  0  0  0  0  0  0
   35.7580   29.3970   51.2700 O   0  0  0  0  0  0  0  0  0  0  0  0
   36.9910   29.2590   50.6210 C   0  0  0  0  0  0  0  0  0  0  0  0
   36.8460   29.0780   49.5540 H   0  0  0  0  0  0  0  0  0  0  0  0
   37.5260   28.3560   51.0290 H   0  0  0  0  0  0  0  0  0  0  0  0
   37.7630   30.5180   50.8240 C   0  0  0  0  0  0  0  0  0  0  0  0
   38.6980   30.2800   51.4030 H   0  0  0  0  0  0  0  0  0  0  0  0
   37.2220   31.2580   51.4770 H   0  0  0  0  0  0  0  0  0  0  0  0
   38.1360   31.2250   49.5960 C   0  0  0  0  0  0  0  0  0  0  0  0
   38.5620   32.5490   49.5980 C   0  0  0  0  0  0  0  0  0  0  0  0
   38.8920   33.1170   48.3590 C   0  0  0  0  0  0  0  0  0  0  0  0
   38.7800   32.3520   47.2280 N   0  0  0  0  0  0  0  0  0  0  0  0
   38.3540   31.0520   47.2870 C   0  0  0  0  0  0  0  0  0  0  0  0
   38.0340   30.4970   48.4770 N   0  0  0  0  0  0  0  0  0  0  0  0
   38.6310   33.1060   50.5210 H   0  0  0  0  0  0  0  0  0  0  0  0
   39.2280   34.1440   48.3020 H   0  0  0  0  0  0  0  0  0  0  0  0
   38.2870   30.4980   46.3570 H   0  0  0  0  0  0  0  0  0  0  0  0
   34.3540   27.9450   49.3490 O   0  0  0  0  0  0  0  0  0  0  0  0
   33.9010   27.8760   47.0010 C   0  0  0  0  0  3  0  0  0  0  0  0
   33.4420   27.8310   48.3070 C   0  0  0  0  0  0  0  0  0  0  0  0
   32.0850   27.6740   48.4570 C   0  0  0  0  0  0  0  0  0  0  0  0
   31.7030   27.6350   49.4650 H   0  0  0  0  0  0  0  0  0  0  0  0
   31.2450   27.5690   47.3600 C   0  0  0  0  0  0  0  0  0  0  0  0
   29.9280   27.4140   47.2830 N   0  0  0  0  0  0  0  0  0  0  0  0
   29.2010   27.3340   48.0450 H   0  0  0  0  0  0  0  0  0  0  0  0
   29.5630   27.3640   45.9960 N   0  0  0  0  0  0  0  0  0  0  0  0
   30.6710   27.4880   45.2220 C   0  0  0  0  0  0  0  0  0  0  0  0
   30.7450   27.4900   44.1260 H   0  0  0  0  0  0  0  0  0  0  0  0
   31.7510   27.6190   46.0670 C   0  0  0  0  0  0  0  0  0  0  0  0
   33.0950   27.7750   45.8760 C   0  0  0  0  0  3  0  0  0  0  0  0
  2  1  2  6  0  0  0
  2  3  1  0  0  0  0
  2  5  1  0  0  0  0
  3  4  1  0  0  0  0
  6  9  1  0  0  0  0
  6  8  1  0  0  0  0
  6  5  1  0  0  0  0
  7  6  1  0  0  0  0
  9 10  1  0  0  0  0
  9 11  1  0  0  0  0
 12 13  1  0  0  0  0
 12  9  1  0  0  0  0
 13 18  1  0  0  0  0
 14 13  2  0  0  0  0
 15 16  2  0  0  0  0
 15 14  1  0  0  0  0
 16 17  1  0  0  0  0
 17 12  2  0  0  0  0
 19 14  1  0  0  0  0
 20 16  1  0  0  0  0
 21  2  1  0  0  0  0
 22 23  1  0  0  0  0
 23 24  2  0  0  0  0
 23 21  1  0  0  0  0
 24 25  1  0  0  0  0
 26 24  1  0  0  0  0
 27 26  1  0  0  0  0
 27 28  1  0  0  0  0
 29 27  1  0  0  0  0
 30 29  2  0  0  0  0
 30 32  1  0  0  0  0
 31 30  1  0  0  0  0
 32 26  2  0  0  0  0
 33 32  1  0  0  0  0
 33 22  2  0  0  0  0
M  END
>  <minimizedAffinity>
-5.49890089

>  <minimizedRMSD>
1.05925119

$$$$
