
 OpenBabel03272510243D

 35 39  0  0  0  0  0  0  0  0999 V2000
   35.9670   30.1810   46.9330 C   0  0  0  0  0  0  0  0  0  0  0  0
   37.0620   30.2880   47.7720 C   0  0  0  0  0  0  0  0  0  0  0  0
   38.3160   30.5950   47.2650 C   0  0  0  0  0  0  0  0  0  0  0  0
   38.4020   30.7860   45.8820 C   0  0  0  0  0  0  0  0  0  0  0  0
   39.5030   31.0920   45.1490 N   0  0  0  0  0  0  0  0  0  0  0  0
   39.1080   31.1770   43.8720 C   0  0  0  0  0  0  0  0  0  0  0  0
   37.8020   30.9360   43.7740 N   0  0  0  0  0  0  0  0  0  0  0  0
   37.3360   30.6880   45.0150 C   0  0  0  0  0  0  0  0  0  0  0  0
   36.0880   30.3780   45.5560 C   0  0  0  0  0  0  0  0  0  0  0  0
   35.0030   29.9450   47.3240 H   0  0  0  0  0  0  0  0  0  0  0  0
   39.1560   30.6760   47.9150 H   0  0  0  0  0  0  0  0  0  0  0  0
   40.4810   31.2350   45.5220 H   0  0  0  0  0  0  0  0  0  0  0  0
   35.2280   30.2950   44.8950 H   0  0  0  0  0  0  0  0  0  0  0  0
   37.4170   30.1480   51.5140 C   0  0  0  0  0  0  0  0  0  0  0  0
   37.7480   30.4190   50.1970 C   0  0  0  0  0  0  0  0  0  0  0  0
   36.8550   30.0680   49.1980 C   0  0  0  0  0  0  0  0  0  0  0  0
   35.6800   29.4640   49.5720 N   0  0  0  0  0  0  0  0  0  0  0  0
   35.3960   29.2180   50.8670 C   0  0  0  0  0  0  0  0  0  0  0  0
   36.2490   29.5540   51.8180 N   0  0  0  0  0  0  0  0  0  0  0  0
   38.1720   30.4550   52.2400 H   0  0  0  0  0  0  0  0  0  0  0  0
   38.6770   30.8970   49.8800 H   0  0  0  0  0  0  0  0  0  0  0  0
   34.4590   28.7390   51.1590 H   0  0  0  0  0  0  0  0  0  0  0  0
   40.0030   31.4800   42.8420 O   0  0  0  0  0  0  0  0  0  0  0  0
   38.9860   33.3640   41.9340 C   0  0  0  0  0  3  0  0  0  0  0  0
   39.5200   32.0960   41.7030 C   0  0  0  0  0  0  0  0  0  0  0  0
   39.5000   31.6190   40.3910 C   0  0  0  0  0  0  0  0  0  0  0  0
   39.9240   30.6470   40.2900 H   0  0  0  0  0  0  0  0  0  0  0  0
   38.9650   32.4050   39.3950 C   0  0  0  0  0  0  0  0  0  0  0  0
   38.8500   32.1410   38.0820 N   0  0  0  0  0  0  0  0  0  0  0  0
   39.1490   31.2810   37.5750 H   0  0  0  0  0  0  0  0  0  0  0  0
   38.2710   33.1750   37.4710 N   0  0  0  0  0  0  0  0  0  0  0  0
   38.0000   34.1300   38.3710 C   0  0  0  0  0  0  0  0  0  0  0  0
   37.5450   35.1100   38.3150 H   0  0  0  0  0  0  0  0  0  0  0  0
   38.4340   33.6590   39.6070 C   0  0  0  0  0  0  0  0  0  0  0  0
   38.4550   34.1360   40.9230 C   0  0  0  0  0  3  0  0  0  0  0  0
  1 10  1  0  0  0  0
  1  2  1  0  0  0  0
  2 16  1  0  0  0  0
  3  2  2  0  0  0  0
  3 11  1  0  0  0  0
  4  3  1  0  0  0  0
  5 12  1  0  0  0  0
  5  4  1  0  0  0  0
  6  5  1  0  0  0  0
  7  6  2  0  0  0  0
  7  8  1  0  0  0  0
  8  9  1  0  0  0  0
  8  4  2  0  0  0  0
  9  1  2  0  0  0  0
 13  9  1  0  0  0  0
 14 19  1  0  0  0  0
 14 20  1  0  0  0  0
 15 14  2  0  0  0  0
 16 17  2  0  0  0  0
 16 15  1  0  0  0  0
 17 18  1  0  0  0  0
 18 22  1  0  0  0  0
 18 19  2  0  0  0  0
 21 15  1  0  0  0  0
 23  6  1  0  0  0  0
 25 24  1  0  0  0  0
 25 23  1  0  0  0  0
 26 25  2  0  0  0  0
 27 26  1  0  0  0  0
 28 34  2  0  0  0  0
 28 26  1  0  0  0  0
 29 28  1  0  0  0  0
 30 29  1  0  0  0  0
 31 29  1  0  0  0  0
 31 32  2  0  0  0  0
 32 34  1  0  0  0  0
 33 32  1  0  0  0  0
 34 35  1  0  0  0  0
 35 24  2  0  0  0  0
M  END
>  <minimizedAffinity>
-5.50459385

>  <minimizedRMSD>
2.16768241

$$$$
