
 OpenBabel03262521473D

 33 35  0  0  0  0  0  0  0  0999 V2000
   34.7390   30.4620   49.1040 O   0  0  0  0  0  0  0  0  0  0  0  0
   34.4950   29.3640   50.1260 P   0  0  2  0  0  0  0  0  0  0  0  0
   32.9970   29.6840   50.8160 O   0  0  0  0  0  0  0  0  0  0  0  0
   33.0290   29.4100   51.7600 H   0  0  0  0  0  0  0  0  0  0  0  0
   35.7330   29.4330   51.2840 O   0  0  0  0  0  0  0  0  0  0  0  0
   36.9890   29.2600   50.6900 C   0  0  0  0  0  0  0  0  0  0  0  0
   36.8830   29.0210   49.6300 H   0  0  0  0  0  0  0  0  0  0  0  0
   37.5070   28.3810   51.1660 H   0  0  0  0  0  0  0  0  0  0  0  0
   37.7560   30.5280   50.8530 C   0  0  0  0  0  0  0  0  0  0  0  0
   38.6940   30.3110   51.4350 H   0  0  0  0  0  0  0  0  0  0  0  0
   37.2140   31.2830   51.4880 H   0  0  0  0  0  0  0  0  0  0  0  0
   38.1200   31.2020   49.6030 C   0  0  0  0  0  0  0  0  0  0  0  0
   38.5500   32.5240   49.5670 C   0  0  0  0  0  0  0  0  0  0  0  0
   38.8700   33.0580   48.3100 C   0  0  0  0  0  0  0  0  0  0  0  0
   38.7450   32.2640   47.2010 N   0  0  0  0  0  0  0  0  0  0  0  0
   38.3150   30.9670   47.2980 C   0  0  0  0  0  0  0  0  0  0  0  0
   38.0050   30.4440   48.5050 N   0  0  0  0  0  0  0  0  0  0  0  0
   38.6290   33.1040   50.4740 H   0  0  0  0  0  0  0  0  0  0  0  0
   39.2090   34.0820   48.2240 H   0  0  0  0  0  0  0  0  0  0  0  0
   38.2370   30.3890   46.3840 H   0  0  0  0  0  0  0  0  0  0  0  0
   34.4460   27.8590   49.3780 O   0  0  0  0  0  0  0  0  0  0  0  0
   33.2470   28.8650   47.5690 C   0  0  0  0  0  3  0  0  0  0  0  0
   33.8930   27.7650   48.1060 C   0  0  0  0  0  0  0  0  0  0  0  0
   33.9300   26.6460   47.3090 C   0  0  0  0  0  0  0  0  0  0  0  0
   34.4290   25.7750   47.7060 H   0  0  0  0  0  0  0  0  0  0  0  0
   33.3520   26.6380   46.0500 C   0  0  0  0  0  0  0  0  0  0  0  0
   33.2740   25.6820   45.1320 N   0  0  0  0  0  0  0  0  0  0  0  0
   33.6380   24.6900   45.1430 H   0  0  0  0  0  0  0  0  0  0  0  0
   32.6140   26.1460   44.0640 N   0  0  0  0  0  0  0  0  0  0  0  0
   32.2550   27.4320   44.2950 C   0  0  0  0  0  0  0  0  0  0  0  0
   31.7040   28.1210   43.6400 H   0  0  0  0  0  0  0  0  0  0  0  0
   32.7130   27.7680   45.5520 C   0  0  0  0  0  0  0  0  0  0  0  0
   32.6560   28.9000   46.3140 C   0  0  0  0  0  3  0  0  0  0  0  0
  2  1  2  6  0  0  0
  2  3  1  0  0  0  0
  2  5  1  0  0  0  0
  3  4  1  0  0  0  0
  6  9  1  0  0  0  0
  6  8  1  0  0  0  0
  6  5  1  0  0  0  0
  7  6  1  0  0  0  0
  9 10  1  0  0  0  0
  9 11  1  0  0  0  0
 12  9  1  0  0  0  0
 13 12  1  0  0  0  0
 13 18  1  0  0  0  0
 14 13  2  0  0  0  0
 15 16  2  0  0  0  0
 15 14  1  0  0  0  0
 16 17  1  0  0  0  0
 17 12  2  0  0  0  0
 19 14  1  0  0  0  0
 20 16  1  0  0  0  0
 21  2  1  0  0  0  0
 22 23  1  0  0  0  0
 23 21  1  0  0  0  0
 24 25  1  0  0  0  0
 24 23  2  0  0  0  0
 26 24  1  0  0  0  0
 27 28  1  0  0  0  0
 27 26  1  0  0  0  0
 29 30  2  0  0  0  0
 29 27  1  0  0  0  0
 30 32  1  0  0  0  0
 31 30  1  0  0  0  0
 32 26  2  0  0  0  0
 32 33  1  0  0  0  0
 33 22  2  0  0  0  0
M  END
>  <minimizedAffinity>
-5.26358795

>  <minimizedRMSD>
0.331472307

$$$$
