
 OpenBabel03272506083D

 47 51  0  0  0  0  0  0  0  0999 V2000
   34.7850   28.4590   49.0260 C   0  0  0  0  0  0  0  0  0  0  0  0
   34.8780   27.5610   49.6870 H   0  0  0  0  0  0  0  0  0  0  0  0
   35.6570   28.3850   48.3390 H   0  0  0  0  0  0  0  0  0  0  0  0
   33.5080   28.3460   48.2320 C   0  0  0  0  0  0  0  0  0  0  0  0
   33.5170   28.6820   46.8260 C   0  0  0  0  0  0  0  0  0  0  0  0
   31.8320   28.3850   46.4040 S   0  0  0  0  0  0  0  0  0  0  0  0
   31.3170   27.8530   48.1330 C   0  0  0  0  0  0  0  0  0  0  0  0
   32.3550   27.9630   48.6990 N   0  0  0  0  0  0  0  0  0  0  0  0
   30.0400   27.4240   48.6740 N   0  0  0  0  0  0  0  0  0  0  0  0
   29.1640   26.7480   47.7610 C   0  0  0  0  0  0  0  0  0  0  0  0
   27.7350   26.7170   48.2010 C   0  0  0  0  0  0  0  0  0  0  0  0
   27.4700   27.5090   49.3960 N   0  0  0  0  0  0  0  0  0  0  0  0
   28.4280   27.0490   50.4060 C   0  0  0  0  0  0  0  0  0  0  0  0
   29.7390   27.6920   50.0520 C   0  0  0  0  0  0  0  0  0  0  0  0
   34.3400   29.0090   46.2690 H   0  0  0  0  0  0  0  0  0  0  0  0
   29.5030   25.7000   47.5440 H   0  0  0  0  0  0  0  0  0  0  0  0
   29.2140   27.2770   46.7860 H   0  0  0  0  0  0  0  0  0  0  0  0
   27.0490   27.1050   47.4130 H   0  0  0  0  0  0  0  0  0  0  0  0
   27.4070   25.6740   48.4130 H   0  0  0  0  0  0  0  0  0  0  0  0
   26.5290   27.2860   49.7350 H   0  0  0  0  0  0  0  0  0  0  0  0
   28.4980   25.9620   50.3950 H   0  0  0  0  0  0  0  0  0  0  0  0
   28.0550   27.4170   51.3970 H   0  0  0  0  0  0  0  0  0  0  0  0
   30.5300   27.1970   50.6710 H   0  0  0  0  0  0  0  0  0  0  0  0
   29.7370   28.7690   50.3000 H   0  0  0  0  0  0  0  0  0  0  0  0
   34.8070   29.6810   49.8470 C   0  0  0  0  0  0  0  0  0  0  0  0
   34.9440   29.4690   50.9210 H   0  0  0  0  0  0  0  0  0  0  0  0
   33.8500   30.2570   49.7550 H   0  0  0  0  0  0  0  0  0  0  0  0
   37.3890   32.3570   49.7460 C   0  0  0  0  0  0  0  0  0  0  0  0
   37.9660   32.1860   48.4760 C   0  0  0  0  0  0  0  0  0  0  0  0
   37.4490   31.1560   47.6960 C   0  0  0  0  0  0  0  0  0  0  0  0
   36.4490   30.3880   48.1690 N   0  0  0  0  0  0  0  0  0  0  0  0
   35.9290   30.6060   49.4150 C   0  0  0  0  0  0  0  0  0  0  0  0
   36.3970   31.5740   50.1820 N   0  0  0  0  0  0  0  0  0  0  0  0
   37.8030   33.1630   50.3430 H   0  0  0  0  0  0  0  0  0  0  0  0
   38.7540   32.7970   48.1120 H   0  0  0  0  0  0  0  0  0  0  0  0
   37.0240   30.5360   45.3890 C   0  0  0  0  0  3  0  0  0  0  0  0
   37.9490   30.8620   46.3590 C   0  0  0  0  0  0  0  0  0  0  0  0
   39.2710   30.8880   45.9970 C   0  0  0  0  0  0  0  0  0  0  0  0
   40.0030   31.1370   46.7250 H   0  0  0  0  0  0  0  0  0  0  0  0
   39.6820   30.6000   44.7140 C   0  0  0  0  0  0  0  0  0  0  0  0
   40.8700   30.5430   44.0750 N   0  0  0  0  0  0  0  0  0  0  0  0
   41.8030   30.7370   44.5100 H   0  0  0  0  0  0  0  0  0  0  0  0
   40.7020   30.2060   42.7970 N   0  0  0  0  0  0  0  0  0  0  0  0
   39.4080   30.0210   42.5180 C   0  0  0  0  0  0  0  0  0  0  0  0
   38.9270   29.7460   41.6010 H   0  0  0  0  0  0  0  0  0  0  0  0
   38.7830   30.2700   43.7220 C   0  0  0  0  0  0  0  0  0  0  0  0
   37.4360   30.2410   44.0830 C   0  0  0  0  0  3  0  0  0  0  0  0
  1  2  1  0  0  0  0
  1 25  1  0  0  0  0
  3  1  1  0  0  0  0
  4  8  1  0  0  0  0
  4  1  1  0  0  0  0
  5  4  2  0  0  0  0
  6  5  1  0  0  0  0
  6  7  1  0  0  0  0
  7  9  1  0  0  0  0
  7  8  2  0  0  0  0
  9 14  1  0  0  0  0
 10 11  1  0  0  0  0
 10  9  1  0  0  0  0
 11 19  1  0  0  0  0
 11 12  1  0  0  0  0
 12 20  1  0  0  0  0
 12 13  1  0  0  0  0
 13 22  1  0  0  0  0
 14 24  1  0  0  0  0
 14 13  1  0  0  0  0
 14 23  1  0  0  0  0
 15  5  1  0  0  0  0
 16 10  1  0  0  0  0
 17 10  1  0  0  0  0
 18 11  1  0  0  0  0
 21 13  1  0  0  0  0
 25 26  1  0  0  0  0
 27 25  1  0  0  0  0
 28 33  1  0  0  0  0
 28 34  1  0  0  0  0
 29 28  2  0  0  0  0
 30 31  2  0  0  0  0
 30 29  1  0  0  0  0
 31 32  1  0  0  0  0
 32 25  1  0  0  0  0
 32 33  2  0  0  0  0
 35 29  1  0  0  0  0
 36 37  1  0  0  0  0
 37 30  1  0  0  0  0
 38 37  2  0  0  0  0
 38 39  1  0  0  0  0
 40 38  1  0  0  0  0
 41 42  1  0  0  0  0
 41 40  1  0  0  0  0
 43 41  1  0  0  0  0
 44 43  2  0  0  0  0
 44 46  1  0  0  0  0
 45 44  1  0  0  0  0
 46 47  1  0  0  0  0
 46 40  2  0  0  0  0
 47 36  2  0  0  0  0
M  END
>  <minimizedAffinity>
-7.36742306

>  <minimizedRMSD>
1.27341652

$$$$
