REMARK  Name = 
REMARK  4 active torsions:
REMARK  status: ('A' for Active; 'I' for Inactive)
REMARK    1  A    between atoms: C_1  and  C_2
REMARK    2  A    between atoms: C_1  and  C_13
REMARK    3  A    between atoms: C_13  and  C_18
REMARK    4  A    between atoms: C_16  and  C_37
REMARK                            x       y       z     vdW  Elec       q    Type
REMARK                         _______ _______ _______ _____ _____    ______ ____
ROOT
ATOM      1  C   UNL     1      34.827  28.364  49.417  0.00  0.00    +0.000 C 
ATOM      2  H   UNL     1      34.776  27.535  50.168  0.00  0.00    +0.000 HD
ATOM      3  H   UNL     1      35.720  28.121  48.800  0.00  0.00    +0.000 HD
ENDROOT
BRANCH   1   4
ATOM      4  C   UNL     1      33.590  28.313  48.555  0.00  0.00    +0.000 A 
ATOM      5  C   UNL     1      33.679  28.709  47.168  0.00  0.00    +0.000 A 
ATOM      6  S   UNL     1      32.012  28.467  46.648  0.00  0.00    +0.000 S 
ATOM      7  C   UNL     1      31.398  27.872  48.323  0.00  0.00    +0.000 A 
ATOM      8  N   UNL     1      32.408  27.935  48.946  0.00  0.00    +0.000 NA
ATOM      9  N   UNL     1      30.087  27.447  48.779  0.00  0.00    +0.000 N 
ATOM     10  C   UNL     1      29.247  26.831  47.794  0.00  0.00    +0.000 C 
ATOM     11  C   UNL     1      27.796  26.811  48.159  0.00  0.00    +0.000 C 
ATOM     12  N   UNL     1      27.485  27.556  49.373  0.00  0.00    +0.000 NA
ATOM     13  C   UNL     1      28.381  27.033  50.409  0.00  0.00    +0.000 C 
ATOM     14  C   UNL     1      29.720  27.662  50.150  0.00  0.00    +0.000 C 
ATOM     15  H   UNL     1      34.536  29.042  46.668  0.00  0.00    +0.000 HD
ATOM     16  H   UNL     1      29.576  25.786  47.548  0.00  0.00    +0.000 HD
ATOM     17  H   UNL     1      29.357  27.400  46.847  0.00  0.00    +0.000 HD
ATOM     18  H   UNL     1      27.160  27.248  47.355  0.00  0.00    +0.000 HD
ATOM     19  H   UNL     1      27.438  25.768  48.307  0.00  0.00    +0.000 HD
ATOM     20  H   UNL     1      26.524  27.339  49.653  0.00  0.00    +0.000 HD
ATOM     21  H   UNL     1      28.430  25.946  50.353  0.00  0.00    +0.000 HD
ATOM     22  H   UNL     1      27.964  27.365  51.395  0.00  0.00    +0.000 HD
ATOM     23  H   UNL     1      30.469  27.124  50.786  0.00  0.00    +0.000 HD
ATOM     24  H   UNL     1      29.726  28.727  50.446  0.00  0.00    +0.000 HD
ENDBRANCH   1   4
BRANCH   1  25
ATOM     25  C   UNL     1      34.949  29.655  50.115  0.00  0.00    +0.000 C 
ATOM     26  H   UNL     1      35.086  29.538  51.203  0.00  0.00    +0.000 HD
ATOM     27  H   UNL     1      34.034  30.287  49.975  0.00  0.00    +0.000 HD
BRANCH  25  32
ATOM     28  C   UNL     1      37.505  32.295  49.539  0.00  0.00    +0.000 A 
ATOM     29  C   UNL     1      38.295  31.746  48.515  0.00  0.00    +0.000 A 
ATOM     30  C   UNL     1      37.924  30.486  48.056  0.00  0.00    +0.000 A 
ATOM     31  N   UNL     1      36.858  29.860  48.590  0.00  0.00    +0.000 NA
ATOM     32  C   UNL     1      36.128  30.449  49.586  0.00  0.00    +0.000 A 
ATOM     33  N   UNL     1      36.453  31.644  50.045  0.00  0.00    +0.000 NA
ATOM     34  H   UNL     1      37.806  33.278  49.887  0.00  0.00    +0.000 HD
ATOM     35  H   UNL     1      39.134  32.248  48.100  0.00  0.00    +0.000 HD
BRANCH  30  37
ATOM     36  C   UNL     1      38.661  28.416  47.028  0.00  0.00    +0.000 A 
ATOM     37  C   UNL     1      38.651  29.794  46.999  0.00  0.00    +0.000 A 
ATOM     38  C   UNL     1      39.324  30.416  45.978  0.00  0.00    +0.000 A 
ATOM     39  H   UNL     1      39.331  31.477  45.933  0.00  0.00    +0.000 HD
ATOM     40  C   UNL     1      39.994  29.705  45.006  0.00  0.00    +0.000 A 
ATOM     41  N   UNL     1      40.721  30.021  43.915  0.00  0.00    +0.000 N 
ATOM     42  H   UNL     1      40.925  30.993  43.581  0.00  0.00    +0.000 HD
ATOM     43  N   UNL     1      41.157  28.920  43.304  0.00  0.00    +0.000 NA
ATOM     44  C   UNL     1      40.747  27.823  43.949  0.00  0.00    +0.000 A 
ATOM     45  H   UNL     1      40.916  26.786  43.732  0.00  0.00    +0.000 HD
ATOM     46  C   UNL     1      40.023  28.327  45.008  0.00  0.00    +0.000 A 
ATOM     47  C   UNL     1      39.340  27.687  46.043  0.00  0.00    +0.000 A 
ENDBRANCH  30  37
ENDBRANCH  25  32
ENDBRANCH   1  25
TORSDOF 4
