REMARK  Name = 
REMARK  5 active torsions:
REMARK  status: ('A' for Active; 'I' for Inactive)
REMARK    1  A    between atoms: N_1  and  C_6
REMARK    2  A    between atoms: C_3  and  C_18
REMARK    3  A    between atoms: C_10  and  S_12
REMARK    4  A    between atoms: S_12  and  C_13
REMARK    5  A    between atoms: C_16  and  C_34
REMARK                            x       y       z     vdW  Elec       q    Type
REMARK                         _______ _______ _______ _____ _____    ______ ____
ROOT
ATOM      1  C   UNL     1      35.248  29.421  47.895  0.00  0.00    +0.000 A 
ATOM      2  C   UNL     1      35.117  30.020  46.640  0.00  0.00    +0.000 A 
ATOM      3  C   UNL     1      33.989  29.685  45.892  0.00  0.00    +0.000 A 
ATOM      4  N   UNL     1      33.096  28.795  46.448  0.00  0.00    +0.000 NA
ATOM      5  C   UNL     1      33.264  28.249  47.653  0.00  0.00    +0.000 A 
ATOM      6  N   UNL     1      34.339  28.560  48.380  0.00  0.00    +0.000 NA
ATOM      7  H   UNL     1      35.802  30.705  46.208  0.00  0.00    +0.000 HD
ATOM      8  H   UNL     1      33.822  30.102  44.925  0.00  0.00    +0.000 HD
ENDROOT
BRANCH   1   9
ATOM      9  N   UNL     1      36.414  29.766  48.671  0.00  0.00    +0.000 N 
ATOM     10  C   UNL     1      37.540  30.532  48.232  0.00  0.00    +0.000 C 
ATOM     11  C   UNL     1      38.034  31.160  49.528  0.00  0.00    +0.000 C 
ATOM     12  C   UNL     1      37.025  30.762  50.595  0.00  0.00    +0.000 C 
ATOM     13  C   UNL     1      36.662  29.394  50.056  0.00  0.00    +0.000 C 
ATOM     14  H   UNL     1      38.324  29.817  47.859  0.00  0.00    +0.000 HD
ATOM     15  H   UNL     1      37.325  31.262  47.447  0.00  0.00    +0.000 HD
ATOM     16  H   UNL     1      38.998  30.684  49.833  0.00  0.00    +0.000 HD
ATOM     17  H   UNL     1      36.108  31.378  50.550  0.00  0.00    +0.000 HD
ATOM     18  H   UNL     1      37.469  30.708  51.593  0.00  0.00    +0.000 HD
ATOM     19  H   UNL     1      35.722  29.059  50.492  0.00  0.00    +0.000 HD
ATOM     20  H   UNL     1      37.495  28.680  50.154  0.00  0.00    +0.000 HD
BRANCH  11  21
ATOM     21  C   UNL     1      38.187  32.650  49.426  0.00  0.00    +0.000 C 
ATOM     22  F   UNL     1      37.038  33.206  49.960  0.00  0.00    +0.000 F 
ATOM     23  F   UNL     1      38.198  32.960  48.091  0.00  0.00    +0.000 F 
ATOM     24  F   UNL     1      39.314  33.120  50.052  0.00  0.00    +0.000 F 
ENDBRANCH  11  21
ENDBRANCH   1   9
BRANCH   5  25
ATOM     25  S   UNL     1      32.067  27.107  48.305  0.00  0.00    +0.000 S 
BRANCH  25  26
ATOM     26  C   UNL     1      30.573  27.718  48.799  0.00  0.00    +0.000 A 
ATOM     27  C   UNL     1      29.809  27.855  49.922  0.00  0.00    +0.000 A 
ATOM     28  C   UNL     1      28.585  28.430  49.960  0.00  0.00    +0.000 A 
ATOM     29  C   UNL     1      28.115  28.921  48.637  0.00  0.00    +0.000 A 
ATOM     30  S   UNL     1      29.478  28.502  47.503  0.00  0.00    +0.000 S 
ATOM     31  H   UNL     1      30.299  27.446  50.793  0.00  0.00    +0.000 HD
ATOM     32  H   UNL     1      27.976  28.544  50.834  0.00  0.00    +0.000 HD
BRANCH  29  34
ATOM     33  C   UNL     1      25.717  28.890  48.077  0.00  0.00    +0.000 A 
ATOM     34  C   UNL     1      26.879  29.556  48.408  0.00  0.00    +0.000 A 
ATOM     35  C   UNL     1      26.913  30.929  48.541  0.00  0.00    +0.000 A 
ATOM     36  H   UNL     1      27.794  31.505  48.798  0.00  0.00    +0.000 HD
ATOM     37  C   UNL     1      25.770  31.714  48.348  0.00  0.00    +0.000 A 
ATOM     38  N   UNL     1      25.490  33.029  48.403  0.00  0.00    +0.000 N 
ATOM     39  H   UNL     1      26.176  33.771  48.630  0.00  0.00    +0.000 HD
ATOM     40  N   UNL     1      24.205  33.194  48.120  0.00  0.00    +0.000 NA
ATOM     41  C   UNL     1      23.630  31.992  47.876  0.00  0.00    +0.000 A 
ATOM     42  H   UNL     1      22.597  31.746  47.614  0.00  0.00    +0.000 HD
ATOM     43  C   UNL     1      24.614  31.036  48.017  0.00  0.00    +0.000 A 
ATOM     44  C   UNL     1      24.593  29.664  47.887  0.00  0.00    +0.000 A 
ENDBRANCH  29  34
ENDBRANCH  25  26
ENDBRANCH   5  25
TORSDOF 5
