
 OpenBabel03272503313D

 44 48  0  0  1  0  0  0  0  0999 V2000
   35.2320   29.3530   47.9030 C   0  0  0  0  0  0  0  0  0  0  0  0
   35.0590   30.0220   46.6900 C   0  0  0  0  0  0  0  0  0  0  0  0
   33.9420   29.6770   45.9290 C   0  0  0  0  0  0  0  0  0  0  0  0
   33.1020   28.7080   46.4330 N   0  0  0  0  0  0  0  0  0  0  0  0
   33.3090   28.0970   47.5990 C   0  0  0  0  0  0  0  0  0  0  0  0
   34.3740   28.4170   48.3380 N   0  0  0  0  0  0  0  0  0  0  0  0
   35.7030   30.7680   46.2980 H   0  0  0  0  0  0  0  0  0  0  0  0
   33.7450   30.1450   44.9910 H   0  0  0  0  0  0  0  0  0  0  0  0
   36.3860   29.7080   48.6920 N   0  0  0  0  0  0  0  0  0  0  0  0
   37.5220   30.4630   48.2580 C   0  0  0  0  0  0  0  0  0  0  0  0
   37.9960   31.1130   49.5510 C   0  0  2  0  0  0  0  0  0  0  0  0
   36.9680   30.7380   50.6080 C   0  0  0  0  0  0  0  0  0  0  0  0
   36.6100   29.3610   50.0880 C   0  0  0  0  0  0  0  0  0  0  0  0
   38.3100   29.7390   47.9120 H   0  0  0  0  0  0  0  0  0  0  0  0
   37.3230   31.1790   47.4570 H   0  0  0  0  0  0  0  0  0  0  0  0
   38.9530   30.6400   49.8810 H   0  0  0  0  0  0  0  0  0  0  0  0
   36.0540   31.3550   50.5360 H   0  0  0  0  0  0  0  0  0  0  0  0
   37.3950   30.7000   51.6140 H   0  0  0  0  0  0  0  0  0  0  0  0
   35.6620   29.0370   50.5140 H   0  0  0  0  0  0  0  0  0  0  0  0
   37.4390   28.6460   50.2130 H   0  0  0  0  0  0  0  0  0  0  0  0
   38.1560   32.6000   49.4240 C   0  0  0  0  0  0  0  0  0  0  0  0
   37.0110   33.1700   49.9520 F   0  0  0  0  0  0  0  0  0  0  0  0
   38.1650   32.8890   48.0840 F   0  0  0  0  0  0  0  0  0  0  0  0
   39.2860   33.0750   50.0400 F   0  0  0  0  0  0  0  0  0  0  0  0
   32.1790   26.8550   48.1850 S   0  0  0  0  0  0  0  0  0  0  0  0
   30.7030   27.3630   48.8270 C   0  0  0  0  0  0  0  0  0  0  0  0
   29.9430   27.2350   49.9540 C   0  0  0  0  0  0  0  0  0  0  0  0
   28.7360   27.8160   50.1440 C   0  0  0  0  0  0  0  0  0  0  0  0
   28.2800   28.6350   48.9890 C   0  0  0  0  0  0  0  0  0  0  0  0
   29.6310   28.4770   47.7770 S   0  0  0  0  0  0  0  0  0  0  0  0
   30.4220   26.6080   50.6910 H   0  0  0  0  0  0  0  0  0  0  0  0
   28.1310   27.7240   51.0230 H   0  0  0  0  0  0  0  0  0  0  0  0
   25.8660   28.8570   49.4210 C   0  0  0  0  0  3  0  0  0  0  0  0
   27.0630   29.3410   48.9360 C   0  0  0  0  0  0  0  0  0  0  0  0
   27.1540   30.5860   48.3470 C   0  0  0  0  0  0  0  0  0  0  0  0
   28.0640   31.0180   47.9480 H   0  0  0  0  0  0  0  0  0  0  0  0
   26.0360   31.4190   48.2130 C   0  0  0  0  0  0  0  0  0  0  0  0
   25.8090   32.6430   47.7040 N   0  0  0  0  0  0  0  0  0  0  0  0
   26.5300   33.2460   47.2690 H   0  0  0  0  0  0  0  0  0  0  0  0
   24.5230   32.9270   47.8590 N   0  0  0  0  0  0  0  0  0  0  0  0
   23.8940   31.8940   48.4690 C   0  0  0  0  0  0  0  0  0  0  0  0
   22.8450   31.7780   48.7540 H   0  0  0  0  0  0  0  0  0  0  0  0
   24.8450   30.9220   48.7030 C   0  0  0  0  0  0  0  0  0  0  0  0
   24.7670   29.6770   49.2890 C   0  0  0  0  0  3  0  0  0  0  0  0
  1  6  1  0  0  0  0
  1  9  1  0  0  0  0
  2  1  2  0  0  0  0
  3  4  2  0  0  0  0
  3  2  1  0  0  0  0
  4  5  1  0  0  0  0
  5 25  1  0  0  0  0
  5  6  2  0  0  0  0
  7  2  1  0  0  0  0
  8  3  1  0  0  0  0
  9 13  1  0  0  0  0
 10  9  1  0  0  0  0
 10 11  1  0  0  0  0
 11 16  1  1  0  0  0
 11 12  1  0  0  0  0
 12 18  1  0  0  0  0
 13 20  1  0  0  0  0
 13 19  1  0  0  0  0
 13 12  1  0  0  0  0
 14 10  1  0  0  0  0
 15 10  1  0  0  0  0
 17 12  1  0  0  0  0
 21 11  1  0  0  0  0
 21 22  1  0  0  0  0
 21 24  1  0  0  0  0
 23 21  1  0  0  0  0
 25 26  1  0  0  0  0
 26 27  2  0  0  0  0
 27 28  1  0  0  0  0
 27 31  1  0  0  0  0
 28 32  1  0  0  0  0
 29 28  2  0  0  0  0
 30 26  1  0  0  0  0
 30 29  1  0  0  0  0
 34 29  1  0  0  0  0
 34 33  2  0  0  0  0
 35 34  1  0  0  0  0
 36 35  1  0  0  0  0
 37 35  2  0  0  0  0
 37 43  1  0  0  0  0
 38 40  1  0  0  0  0
 38 37  1  0  0  0  0
 39 38  1  0  0  0  0
 40 41  2  0  0  0  0
 41 43  1  0  0  0  0
 41 42  1  0  0  0  0
 43 44  2  0  0  0  0
 44 33  1  0  0  0  0
M  END
>  <minimizedAffinity>
-7.66565847

>  <minimizedRMSD>
0.517500818

$$$$
