
 OpenBabel03272506083D

 47 51  0  0  0  0  0  0  0  0999 V2000
   34.1640   27.9760   48.9710 C   0  0  0  0  0  0  0  0  0  0  0  0
   34.3340   26.9080   49.2620 H   0  0  0  0  0  0  0  0  0  0  0  0
   34.9770   28.1960   48.2440 H   0  0  0  0  0  0  0  0  0  0  0  0
   32.8270   28.0830   48.2800 C   0  0  0  0  0  0  0  0  0  0  0  0
   32.7650   28.6290   46.9440 C   0  0  0  0  0  0  0  0  0  0  0  0
   31.0340   28.5270   46.6260 S   0  0  0  0  0  0  0  0  0  0  0  0
   30.6010   27.7760   48.2940 C   0  0  0  0  0  0  0  0  0  0  0  0
   31.6830   27.7190   48.7810 N   0  0  0  0  0  0  0  0  0  0  0  0
   29.3340   27.3650   48.8720 N   0  0  0  0  0  0  0  0  0  0  0  0
   28.3400   26.9050   47.9460 C   0  0  0  0  0  0  0  0  0  0  0  0
   26.9480   26.9130   48.4960 C   0  0  0  0  0  0  0  0  0  0  0  0
   26.8390   27.5290   49.8130 N   0  0  0  0  0  0  0  0  0  0  0  0
   27.8250   26.8500   50.6590 C   0  0  0  0  0  0  0  0  0  0  0  0
   29.1570   27.4400   50.2940 C   0  0  0  0  0  0  0  0  0  0  0  0
   33.5710   28.9750   46.3730 H   0  0  0  0  0  0  0  0  0  0  0  0
   28.5700   25.8810   47.5490 H   0  0  0  0  0  0  0  0  0  0  0  0
   28.3640   27.5720   47.0590 H   0  0  0  0  0  0  0  0  0  0  0  0
   26.2440   27.4680   47.8340 H   0  0  0  0  0  0  0  0  0  0  0  0
   26.5470   25.8780   48.5780 H   0  0  0  0  0  0  0  0  0  0  0  0
   25.9100   27.3280   50.1920 H   0  0  0  0  0  0  0  0  0  0  0  0
   27.7990   25.7750   50.4820 H   0  0  0  0  0  0  0  0  0  0  0  0
   27.5570   27.0870   51.7220 H   0  0  0  0  0  0  0  0  0  0  0  0
   29.9450   26.7980   50.7650 H   0  0  0  0  0  0  0  0  0  0  0  0
   29.2660   28.4630   50.6980 H   0  0  0  0  0  0  0  0  0  0  0  0
   34.2240   28.8290   50.1700 C   0  0  0  0  0  0  0  0  0  0  0  0
   34.0370   28.2680   51.1010 H   0  0  0  0  0  0  0  0  0  0  0  0
   33.4590   29.6480   50.1320 H   0  0  0  0  0  0  0  0  0  0  0  0
   37.4500   30.1340   51.4840 C   0  0  0  0  0  0  0  0  0  0  0  0
   38.0300   30.7290   50.3510 C   0  0  0  0  0  0  0  0  0  0  0  0
   37.2950   30.6610   49.1720 C   0  0  0  0  0  0  0  0  0  0  0  0
   36.0940   30.0510   49.1590 N   0  0  0  0  0  0  0  0  0  0  0  0
   35.5830   29.4910   50.2980 C   0  0  0  0  0  0  0  0  0  0  0  0
   36.2550   29.5370   51.4340 N   0  0  0  0  0  0  0  0  0  0  0  0
   38.0350   30.1940   52.3960 H   0  0  0  0  0  0  0  0  0  0  0  0
   38.9780   31.2080   50.3710 H   0  0  0  0  0  0  0  0  0  0  0  0
   37.1820   30.7970   46.7530 C   0  0  0  0  0  0  0  0  0  0  0  0
   37.7720   31.2330   47.9190 C   0  0  0  0  0  0  0  0  0  0  0  0
   38.7640   32.1760   47.8190 C   0  0  0  0  0  0  0  0  0  0  0  0
   39.2340   32.5290   48.7040 H   0  0  0  0  0  0  0  0  0  0  0  0
   39.1720   32.6790   46.6030 C   0  0  0  0  0  0  0  0  0  0  0  0
   40.0890   33.5810   46.1960 N   0  0  0  0  0  0  0  0  0  0  0  0
   40.7310   34.1210   46.8240 H   0  0  0  0  0  0  0  0  0  0  0  0
   40.0760   33.7000   44.8690 N   0  0  0  0  0  0  0  0  0  0  0  0
   39.1590   32.8930   44.3270 C   0  0  0  0  0  0  0  0  0  0  0  0
   38.8880   32.7400   43.3000 H   0  0  0  0  0  0  0  0  0  0  0  0
   38.6030   32.2620   45.4190 C   0  0  0  0  0  0  0  0  0  0  0  0
   37.5920   31.3040   45.5130 C   0  0  0  0  0  0  0  0  0  0  0  0
  1  2  1  0  0  0  0
  1 25  1  0  0  0  0
  3  1  1  0  0  0  0
  4  8  1  0  0  0  0
  4  1  1  0  0  0  0
  5  4  2  0  0  0  0
  6  5  1  0  0  0  0
  6  7  1  0  0  0  0
  7  8  2  0  0  0  0
  7  9  1  0  0  0  0
  9 14  1  0  0  0  0
 10 11  1  0  0  0  0
 10  9  1  0  0  0  0
 11 19  1  0  0  0  0
 11 12  1  0  0  0  0
 12 20  1  0  0  0  0
 12 13  1  0  0  0  0
 13 22  1  0  0  0  0
 14 13  1  0  0  0  0
 14 24  1  0  0  0  0
 14 23  1  0  0  0  0
 15  5  1  0  0  0  0
 16 10  1  0  0  0  0
 17 10  1  0  0  0  0
 18 11  1  0  0  0  0
 21 13  1  0  0  0  0
 25 32  1  0  0  0  0
 25 26  1  0  0  0  0
 27 25  1  0  0  0  0
 28 34  1  0  0  0  0
 29 35  1  0  0  0  0
 29 28  2  0  0  0  0
 30 29  1  0  0  0  0
 31 30  2  0  0  0  0
 31 32  1  0  0  0  0
 32 33  2  0  0  0  0
 33 28  1  0  0  0  0
 36 37  1  0  0  0  0
 37 30  1  0  0  0  0
 38 37  2  0  0  0  0
 38 39  1  0  0  0  0
 40 38  1  0  0  0  0
 41 40  1  0  0  0  0
 41 42  1  0  0  0  0
 43 41  1  0  0  0  0
 44 43  2  0  0  0  0
 44 46  1  0  0  0  0
 45 44  1  0  0  0  0
 46 47  1  0  0  0  0
 46 40  2  0  0  0  0
 47 36  2  0  0  0  0
M  END
>  <minimizedAffinity>
-8.60390759

>  <minimizedRMSD>
2.47031999

$$$$
