
 OpenBabel03272503323D

 44 48  0  0  1  0  0  0  0  0999 V2000
   35.2320   29.3530   47.9030 C   0  0  0  0  0  0  0  0  0  0  0  0
   35.0590   30.0230   46.6900 C   0  0  0  0  0  0  0  0  0  0  0  0
   33.9420   29.6770   45.9290 C   0  0  0  0  0  0  0  0  0  0  0  0
   33.1020   28.7090   46.4330 N   0  0  0  0  0  0  0  0  0  0  0  0
   33.3090   28.0970   47.6000 C   0  0  0  0  0  0  0  0  0  0  0  0
   34.3740   28.4170   48.3380 N   0  0  0  0  0  0  0  0  0  0  0  0
   35.7030   30.7690   46.2980 H   0  0  0  0  0  0  0  0  0  0  0  0
   33.7450   30.1450   44.9920 H   0  0  0  0  0  0  0  0  0  0  0  0
   36.3860   29.7090   48.6930 N   0  0  0  0  0  0  0  0  0  0  0  0
   37.5220   30.4630   48.2590 C   0  0  0  0  0  0  0  0  0  0  0  0
   37.9960   31.1130   49.5510 C   0  0  2  0  0  0  0  0  0  0  0  0
   36.9680   30.7380   50.6080 C   0  0  0  0  0  0  0  0  0  0  0  0
   36.6100   29.3620   50.0880 C   0  0  0  0  0  0  0  0  0  0  0  0
   38.3100   29.7390   47.9120 H   0  0  0  0  0  0  0  0  0  0  0  0
   37.3230   31.1790   47.4570 H   0  0  0  0  0  0  0  0  0  0  0  0
   38.9530   30.6400   49.8810 H   0  0  0  0  0  0  0  0  0  0  0  0
   36.0540   31.3560   50.5360 H   0  0  0  0  0  0  0  0  0  0  0  0
   37.3950   30.7010   51.6140 H   0  0  0  0  0  0  0  0  0  0  0  0
   35.6610   29.0380   50.5140 H   0  0  0  0  0  0  0  0  0  0  0  0
   37.4380   28.6470   50.2130 H   0  0  0  0  0  0  0  0  0  0  0  0
   38.1560   32.6010   49.4240 C   0  0  0  0  0  0  0  0  0  0  0  0
   37.0110   33.1710   49.9520 F   0  0  0  0  0  0  0  0  0  0  0  0
   38.1660   32.8890   48.0850 F   0  0  0  0  0  0  0  0  0  0  0  0
   39.2870   33.0760   50.0400 F   0  0  0  0  0  0  0  0  0  0  0  0
   32.1790   26.8550   48.1850 S   0  0  0  0  0  0  0  0  0  0  0  0
   30.7030   27.3640   48.8270 C   0  0  0  0  0  0  0  0  0  0  0  0
   29.9440   27.2350   49.9540 C   0  0  0  0  0  0  0  0  0  0  0  0
   28.7360   27.8160   50.1440 C   0  0  0  0  0  0  0  0  0  0  0  0
   28.2800   28.6360   48.9900 C   0  0  0  0  0  0  0  0  0  0  0  0
   29.6310   28.4770   47.7770 S   0  0  0  0  0  0  0  0  0  0  0  0
   30.4220   26.6080   50.6910 H   0  0  0  0  0  0  0  0  0  0  0  0
   28.1310   27.7240   51.0230 H   0  0  0  0  0  0  0  0  0  0  0  0
   25.8660   28.8560   49.4210 C   0  0  0  0  0  3  0  0  0  0  0  0
   27.0630   29.3410   48.9360 C   0  0  0  0  0  0  0  0  0  0  0  0
   27.1530   30.5870   48.3470 C   0  0  0  0  0  0  0  0  0  0  0  0
   28.0640   31.0180   47.9490 H   0  0  0  0  0  0  0  0  0  0  0  0
   26.0350   31.4180   48.2130 C   0  0  0  0  0  0  0  0  0  0  0  0
   25.8090   32.6430   47.7040 N   0  0  0  0  0  0  0  0  0  0  0  0
   26.5290   33.2470   47.2700 H   0  0  0  0  0  0  0  0  0  0  0  0
   24.5230   32.9270   47.8580 N   0  0  0  0  0  0  0  0  0  0  0  0
   23.8950   31.8940   48.4690 C   0  0  0  0  0  0  0  0  0  0  0  0
   22.8440   31.7780   48.7530 H   0  0  0  0  0  0  0  0  0  0  0  0
   24.8450   30.9220   48.7020 C   0  0  0  0  0  0  0  0  0  0  0  0
   24.7660   29.6780   49.2890 C   0  0  0  0  0  3  0  0  0  0  0  0
  1  6  1  0  0  0  0
  1  9  1  0  0  0  0
  2  1  2  0  0  0  0
  3  4  2  0  0  0  0
  3  2  1  0  0  0  0
  4  5  1  0  0  0  0
  5 25  1  0  0  0  0
  5  6  2  0  0  0  0
  7  2  1  0  0  0  0
  8  3  1  0  0  0  0
  9 13  1  0  0  0  0
 10  9  1  0  0  0  0
 10 11  1  0  0  0  0
 11 16  1  1  0  0  0
 11 12  1  0  0  0  0
 12 18  1  0  0  0  0
 13 20  1  0  0  0  0
 13 19  1  0  0  0  0
 13 12  1  0  0  0  0
 14 10  1  0  0  0  0
 15 10  1  0  0  0  0
 17 12  1  0  0  0  0
 21 11  1  0  0  0  0
 21 22  1  0  0  0  0
 21 24  1  0  0  0  0
 23 21  1  0  0  0  0
 25 26  1  0  0  0  0
 26 27  2  0  0  0  0
 27 28  1  0  0  0  0
 27 31  1  0  0  0  0
 28 32  1  0  0  0  0
 29 28  2  0  0  0  0
 30 26  1  0  0  0  0
 30 29  1  0  0  0  0
 34 29  1  0  0  0  0
 34 33  2  0  0  0  0
 35 34  1  0  0  0  0
 36 35  1  0  0  0  0
 37 35  2  0  0  0  0
 37 43  1  0  0  0  0
 38 40  1  0  0  0  0
 38 37  1  0  0  0  0
 39 38  1  0  0  0  0
 40 41  2  0  0  0  0
 41 43  1  0  0  0  0
 41 42  1  0  0  0  0
 43 44  2  0  0  0  0
 44 33  1  0  0  0  0
M  END
>  <minimizedAffinity>
-7.66572475

>  <minimizedRMSD>
0.560751736

$$$$
