
 OpenBabel03272503323D

 44 48  0  0  1  0  0  0  0  0999 V2000
   35.9500   29.8510   47.5540 C   0  0  0  0  0  0  0  0  0  0  0  0
   36.0390   30.5230   46.3330 C   0  0  0  0  0  0  0  0  0  0  0  0
   35.2750   30.0260   45.2780 C   0  0  0  0  0  0  0  0  0  0  0  0
   34.4940   28.9170   45.5230 N   0  0  0  0  0  0  0  0  0  0  0  0
   34.4410   28.3090   46.7090 C   0  0  0  0  0  0  0  0  0  0  0  0
   35.1680   28.7730   47.7270 N   0  0  0  0  0  0  0  0  0  0  0  0
   36.6380   31.3770   46.1410 H   0  0  0  0  0  0  0  0  0  0  0  0
   35.2920   30.4870   44.3170 H   0  0  0  0  0  0  0  0  0  0  0  0
   36.7390   30.3630   48.6480 N   0  0  0  0  0  0  0  0  0  0  0  0
   38.0980   30.8070   48.5890 C   0  0  0  0  0  0  0  0  0  0  0  0
   38.1560   31.8340   49.7110 C   0  0  2  0  0  0  0  0  0  0  0  0
   36.7330   31.9570   50.2370 C   0  0  0  0  0  0  0  0  0  0  0  0
   36.2940   30.5230   50.0240 C   0  0  0  0  0  0  0  0  0  0  0  0
   38.7600   29.9400   48.8630 H   0  0  0  0  0  0  0  0  0  0  0  0
   38.4150   31.2000   47.6200 H   0  0  0  0  0  0  0  0  0  0  0  0
   38.7560   31.4290   50.5620 H   0  0  0  0  0  0  0  0  0  0  0  0
   36.1020   32.5860   49.5820 H   0  0  0  0  0  0  0  0  0  0  0  0
   36.6990   32.2480   51.2900 H   0  0  0  0  0  0  0  0  0  0  0  0
   35.2070   30.4600   50.0400 H   0  0  0  0  0  0  0  0  0  0  0  0
   36.8060   29.8310   50.7120 H   0  0  0  0  0  0  0  0  0  0  0  0
   38.7040   33.1550   49.2570 C   0  0  0  0  0  0  0  0  0  0  0  0
   37.6190   33.9910   49.0600 F   0  0  0  0  0  0  0  0  0  0  0  0
   39.2780   32.9490   48.0290 F   0  0  0  0  0  0  0  0  0  0  0  0
   39.6060   33.6970   50.1390 F   0  0  0  0  0  0  0  0  0  0  0  0
   33.4090   26.8810   46.9490 S   0  0  0  0  0  0  0  0  0  0  0  0
   31.8850   27.1080   47.6380 C   0  0  0  0  0  0  0  0  0  0  0  0
   31.0550   26.5520   48.5670 C   0  0  0  0  0  0  0  0  0  0  0  0
   29.8280   27.0220   48.8890 C   0  0  0  0  0  0  0  0  0  0  0  0
   29.4360   28.2380   48.1260 C   0  0  0  0  0  0  0  0  0  0  0  0
   30.8660   28.5590   47.0450 S   0  0  0  0  0  0  0  0  0  0  0  0
   31.4930   25.6780   49.0260 H   0  0  0  0  0  0  0  0  0  0  0  0
   29.1670   26.5960   49.6160 H   0  0  0  0  0  0  0  0  0  0  0  0
   28.0070   30.2300   47.8970 C   0  0  0  0  0  3  0  0  0  0  0  0
   28.2120   28.9200   48.2740 C   0  0  0  0  0  0  0  0  0  0  0  0
   27.2060   28.1630   48.8380 C   0  0  0  0  0  0  0  0  0  0  0  0
   27.3090   27.1310   49.1530 H   0  0  0  0  0  0  0  0  0  0  0  0
   25.9260   28.6880   49.0570 C   0  0  0  0  0  0  0  0  0  0  0  0
   24.7730   28.2210   49.5680 N   0  0  0  0  0  0  0  0  0  0  0  0
   24.6330   27.2620   49.9340 H   0  0  0  0  0  0  0  0  0  0  0  0
   23.8720   29.1910   49.5200 N   0  0  0  0  0  0  0  0  0  0  0  0
   24.4230   30.3030   48.9760 C   0  0  0  0  0  0  0  0  0  0  0  0
   23.9800   31.2860   48.7830 H   0  0  0  0  0  0  0  0  0  0  0  0
   25.7340   30.0000   48.6750 C   0  0  0  0  0  0  0  0  0  0  0  0
   26.7470   30.7470   48.1120 C   0  0  0  0  0  3  0  0  0  0  0  0
  1  6  1  0  0  0  0
  1  9  1  0  0  0  0
  2  1  2  0  0  0  0
  3  4  2  0  0  0  0
  3  2  1  0  0  0  0
  4  5  1  0  0  0  0
  5 25  1  0  0  0  0
  5  6  2  0  0  0  0
  7  2  1  0  0  0  0
  8  3  1  0  0  0  0
  9 13  1  0  0  0  0
 10  9  1  0  0  0  0
 10 14  1  0  0  0  0
 10 11  1  0  0  0  0
 11 12  1  0  0  0  0
 11 16  1  1  0  0  0
 12 18  1  0  0  0  0
 13 19  1  0  0  0  0
 13 12  1  0  0  0  0
 13 20  1  0  0  0  0
 15 10  1  0  0  0  0
 17 12  1  0  0  0  0
 21 11  1  0  0  0  0
 21 24  1  0  0  0  0
 22 21  1  0  0  0  0
 23 21  1  0  0  0  0
 25 26  1  0  0  0  0
 26 27  2  0  0  0  0
 27 28  1  0  0  0  0
 27 31  1  0  0  0  0
 28 32  1  0  0  0  0
 29 34  1  0  0  0  0
 29 28  2  0  0  0  0
 30 26  1  0  0  0  0
 30 29  1  0  0  0  0
 33 44  2  0  0  0  0
 33 34  1  0  0  0  0
 34 35  2  0  0  0  0
 35 37  1  0  0  0  0
 35 36  1  0  0  0  0
 37 38  1  0  0  0  0
 38 39  1  0  0  0  0
 40 38  1  0  0  0  0
 41 40  2  0  0  0  0
 42 41  1  0  0  0  0
 43 41  1  0  0  0  0
 43 37  2  0  0  0  0
 44 43  1  0  0  0  0
M  END
>  <minimizedAffinity>
-6.63850975

>  <minimizedRMSD>
1.50435591

$$$$
