
     RDKit          3D

 46 50  0  0  0  0  0  0  0  0999 V2000
   36.4138   29.7658   48.6707 N   0  0  0  0  0  0  0  0  0  0  0  0
   37.5404   30.5317   48.2316 C   0  0  0  0  0  0  0  0  0  0  0  0
   38.0337   31.1597   49.5284 C   0  0  2  0  0  0  0  0  0  0  0  0
   37.0251   30.7620   50.5946 C   0  0  0  0  0  0  0  0  0  0  0  0
   36.6622   29.3942   50.0558 C   0  0  0  0  0  0  0  0  0  0  0  0
   35.2476   29.4213   47.8955 C   0  0  0  0  0  0  0  0  0  0  0  0
   35.1171   30.0196   46.6396 C   0  0  0  0  0  0  0  0  0  0  0  0
   33.9895   29.6854   45.8921 C   0  0  0  0  0  0  0  0  0  0  0  0
   33.0957   28.7950   46.4477 N   0  0  0  0  0  0  0  0  0  0  0  0
   33.2641   28.2491   47.6532 C   0  0  0  0  0  0  0  0  0  0  0  0
   34.3391   28.5598   48.3803 N   0  0  0  0  0  0  0  0  0  0  0  0
   32.0670   27.1069   48.3054 S   0  0  0  0  0  0  0  0  0  0  0  0
   30.5734   27.7183   48.7990 C   0  0  0  0  0  0  0  0  0  0  0  0
   29.8093   27.8552   49.9218 C   0  0  0  0  0  0  0  0  0  0  0  0
   28.5852   28.4303   49.9598 C   0  0  0  0  0  0  0  0  0  0  0  0
   28.1149   28.9213   48.6368 C   0  0  0  0  0  0  0  0  0  0  0  0
   29.4778   28.5016   47.5031 S   0  0  0  0  0  0  0  0  0  0  0  0
   38.1870   32.6495   49.4259 C   0  0  0  0  0  0  0  0  0  0  0  0
   37.0379   33.2058   49.9598 F   0  0  0  0  0  0  0  0  0  0  0  0
   38.1980   32.9604   48.0914 F   0  0  0  0  0  0  0  0  0  0  0  0
   39.3139   33.1203   50.0516 F   0  0  0  0  0  0  0  0  0  0  0  0
   38.3244   29.8169   47.8591 H   0  0  0  0  0  0  0  0  0  0  0  0
   37.3246   31.2616   47.4468 H   0  0  0  0  0  0  0  0  0  0  0  0
   38.9980   30.6838   49.8327 H   0  0  0  0  0  0  0  0  0  0  0  0
   36.1079   31.3785   50.5501 H   0  0  0  0  0  0  0  0  0  0  0  0
   37.4690   30.7079   51.5931 H   0  0  0  0  0  0  0  0  0  0  0  0
   35.7218   29.0592   50.4917 H   0  0  0  0  0  0  0  0  0  0  0  0
   37.4952   28.6798   50.1536 H   0  0  0  0  0  0  0  0  0  0  0  0
   35.8018   30.7051   46.2076 H   0  0  0  0  0  0  0  0  0  0  0  0
   33.8221   30.1020   44.9252 H   0  0  0  0  0  0  0  0  0  0  0  0
   30.2989   27.4461   50.7929 H   0  0  0  0  0  0  0  0  0  0  0  0
   27.9762   28.5437   50.8341 H   0  0  0  0  0  0  0  0  0  0  0  0
   25.7172   28.8898   48.0772 C   0  0  0  0  0  0  0  0  0  0  0  0
   26.8788   29.5559   48.4078 C   0  0  0  0  0  0  0  0  0  0  0  0
   26.9126   30.9289   48.5413 C   0  0  0  0  0  0  0  0  0  0  0  0
   27.7938   31.5047   48.7985 H   0  0  0  0  0  0  0  0  0  0  0  0
   25.7695   31.7141   48.3477 C   0  0  0  0  0  0  0  0  0  0  0  0
   25.4900   33.0293   48.4031 N   0  0  0  0  0  0  0  0  0  0  0  0
   26.1756   33.7708   48.6301 H   0  0  0  0  0  0  0  0  0  0  0  0
   24.2053   33.1945   48.1199 N   0  0  0  0  0  0  0  0  0  0  0  0
   23.6301   31.9922   47.8764 C   0  0  0  0  0  0  0  0  0  0  0  0
   22.5966   31.7461   47.6140 H   0  0  0  0  0  0  0  0  0  0  0  0
   24.6141   31.0357   48.0174 C   0  0  0  0  0  0  0  0  0  0  0  0
   24.5925   29.6643   47.8869 C   0  0  0  0  0  0  0  0  0  0  0  0
   25.8110   27.8181   48.0010 H   0  0  0  0  0  0  0  0  0  0  0  0
   23.6974   29.0993   47.6274 H   0  0  0  0  0  0  0  0  0  0  0  0
  1  5  1  0
  2  1  1  0
  2  3  1  0
  3  4  1  0
  5  4  1  0
  6 11  1  0
  6  1  1  0
  7  6  2  0
  8  9  2  0
  8  7  1  0
  9 10  1  0
 10 12  1  0
 10 11  2  0
 12 13  1  0
 13 14  2  0
 14 15  1  0
 16 15  2  0
 17 16  1  0
 17 13  1  0
 18  3  1  0
 18 19  1  0
 18 21  1  0
 20 18  1  0
  2 22  1  0
  2 23  1  0
  3 24  1  1
  4 25  1  0
  4 26  1  0
  5 27  1  0
  5 28  1  0
  7 29  1  0
  8 30  1  0
 14 31  1  0
 15 32  1  0
 33 34  2  0
 34 35  1  0
 35 36  1  0
 35 37  2  0
 37 38  1  0
 38 39  1  0
 38 40  1  0
 40 41  2  0
 41 42  1  0
 41 43  1  0
 43 44  2  0
 44 33  1  0
 43 37  1  0
 33 45  1  0
 44 46  1  0
 16 34  1  0
M  ISO  8  22  13  23  13  24  13  25  13  26  13  27  13  28  13  29  14
M  ISO  6  30  14  31  14  32  14  36  16  39   5  42  15
M  END
>  <DihAtoms>  (1) 
14,15,33,32

>  <DihDeg>  (1) 
-0.0012474635755704963

$$$$
