
     RDKit          3D

 40 44  0  0  0  0  0  0  0  0999 V2000
   37.5761   31.2683   48.4008 C   0  0  0  0  0  0  0  0  0  0  0  0
   38.4598   32.2635   48.3205 C   0  0  0  0  0  0  0  0  0  0  0  0
   38.8410   32.7258   47.1128 C   0  0  0  0  0  0  0  0  0  0  0  0
   38.2804   32.1273   46.0014 C   0  0  0  0  0  0  0  0  0  0  0  0
   37.1744   30.8640   46.7332 S   0  0  0  0  0  0  0  0  0  0  0  0
   41.1502   32.1993   44.9823 Cl  0  0  0  0  0  0  0  0  0  0  0  0
   39.6926   32.3907   44.0549 C   0  0  0  0  0  0  0  0  0  0  0  0
   38.4392   32.3463   44.5802 C   0  0  0  0  0  0  0  0  0  0  0  0
   37.2646   32.4895   43.9017 C   0  0  0  0  0  0  0  0  0  0  0  0
   37.3316   32.7053   42.5215 C   0  0  0  0  0  0  0  0  0  0  0  0
   38.5733   32.7619   41.9209 C   0  0  0  0  0  0  0  0  0  0  0  0
   38.7112   33.0302   40.1939 Cl  0  0  0  0  0  0  0  0  0  0  0  0
   39.7349   32.6078   42.6713 C   0  0  0  0  0  0  0  0  0  0  0  0
   37.0408   29.8031   51.8298 C   0  0  0  0  0  0  0  0  0  0  0  0
   37.6794   30.4924   50.7738 C   0  0  0  0  0  0  0  0  0  0  0  0
   36.9850   30.5712   49.5483 C   0  0  0  0  0  0  0  0  0  0  0  0
   35.7820   30.0052   49.4388 N   0  0  0  0  0  0  0  0  0  0  0  0
   35.2089   29.3570   50.4712 C   0  0  0  0  0  0  0  0  0  0  0  0
   35.8345   29.2613   51.6459 N   0  0  0  0  0  0  0  0  0  0  0  0
   38.8490   32.6747   49.2478 H   0  0  0  0  0  0  0  0  0  0  0  0
   39.5446   33.5223   46.9040 H   0  0  0  0  0  0  0  0  0  0  0  0
   36.2776   32.4477   44.3590 H   0  0  0  0  0  0  0  0  0  0  0  0
   36.4117   32.8231   41.9539 H   0  0  0  0  0  0  0  0  0  0  0  0
   40.6758   32.6611   42.1500 H   0  0  0  0  0  0  0  0  0  0  0  0
   37.6323   29.7813   52.7436 H   0  0  0  0  0  0  0  0  0  0  0  0
   38.6582   30.9492   50.8736 H   0  0  0  0  0  0  0  0  0  0  0  0
   32.8041   29.5280   49.9388 C   0  0  0  0  0  0  0  0  0  0  0  0
   33.8919   28.7610   50.2835 C   0  0  0  0  0  0  0  0  0  0  0  0
   33.7094   27.4042   50.4494 C   0  0  0  0  0  0  0  0  0  0  0  0
   34.5135   26.7433   50.7183 H   0  0  0  0  0  0  0  0  0  0  0  0
   32.4357   26.8679   50.2619 C   0  0  0  0  0  0  0  0  0  0  0  0
   31.9195   25.6295   50.3396 N   0  0  0  0  0  0  0  0  0  0  0  0
   32.4323   24.7570   50.5791 H   0  0  0  0  0  0  0  0  0  0  0  0
   30.6216   25.6387   50.0648 N   0  0  0  0  0  0  0  0  0  0  0  0
   30.2324   26.9119   49.7910 C   0  0  0  0  0  0  0  0  0  0  0  0
   29.2563   27.2946   49.5278 H   0  0  0  0  0  0  0  0  0  0  0  0
   31.3724   27.6898   49.9141 C   0  0  0  0  0  0  0  0  0  0  0  0
   31.5414   29.0415   49.7461 C   0  0  0  0  0  0  0  0  0  0  0  0
   32.9986   30.6036   49.8178 H   0  0  0  0  0  0  0  0  0  0  0  0
   30.7640   29.7450   49.4763 H   0  0  0  0  0  0  0  0  0  0  0  0
  1 16  1  0
  2  1  2  0
  3  2  1  0
  4  5  1  0
  4  3  2  0
  5  1  1  0
  7  8  2  0
  7  6  1  0
  8  4  1  0
  9  8  1  0
 10  9  2  0
 11 10  1  0
 11 13  2  0
 12 11  1  0
 13  7  1  0
 15 14  2  0
 16 15  1  0
 17 16  2  0
 17 18  1  0
 18 19  2  0
 19 14  1  0
  2 20  1  0
  3 21  1  0
  9 22  1  0
 10 23  1  0
 13 24  1  0
 14 25  1  0
 15 26  1  0
 27 28  2  0
 28 29  1  0
 29 30  1  0
 29 31  2  0
 31 32  1  0
 32 33  1  0
 32 34  1  0
 34 35  2  0
 35 36  1  0
 35 37  1  0
 37 38  2  0
 38 27  1  0
 37 31  1  0
 27 39  1  0
 38 40  1  0
 18 28  1  0
M  ISO  8  20  14  21  14  22  14  23  14  24  14  25  14  26  14  30  16
M  ISO  2  33   5  36  15
M  END
>  <DihAtoms>  (1) 
16,17,27,26

>  <DihDeg>  (1) 
0.00061781342963372

$$$$
