
     RDKit          3D

 40 43  0  0  0  0  0  0  0  0999 V2000
   36.7493   31.1805   49.0834 C   0  0  0  0  0  0  0  0  0  0  0  0
   37.1995   32.2256   49.8892 C   0  0  0  0  0  0  0  0  0  0  0  0
   38.1590   33.1067   49.3687 C   0  0  0  0  0  0  0  0  0  0  0  0
   38.5948   32.8804   48.0905 N   0  0  0  0  0  0  0  0  0  0  0  0
   38.1305   31.8569   47.3496 C   0  0  0  0  0  0  0  0  0  0  0  0
   37.2199   31.0165   47.8367 N   0  0  0  0  0  0  0  0  0  0  0  0
   38.6580   31.7241   46.0371 N   0  0  0  0  0  0  0  0  0  0  0  0
   39.8476   30.9075   45.8208 C   0  0  0  0  0  0  0  0  0  0  0  0
   40.8164   31.5726   44.8729 C   0  0  0  0  0  0  0  0  0  0  0  0
   40.1682   32.1094   43.7082 N   0  0  0  0  0  0  0  0  0  0  0  0
   38.7551   31.8604   43.6452 C   0  0  0  0  0  0  0  0  0  0  0  0
   38.0493   32.3783   44.8932 C   0  0  1  0  0  0  0  0  0  0  0  0
   35.7286   30.2400   49.6320 C   0  0  0  0  0  0  0  0  0  0  0  0
   34.4916   30.8810   49.7035 F   0  0  0  0  0  0  0  0  0  0  0  0
   35.7316   29.1196   48.8819 F   0  0  0  0  0  0  0  0  0  0  0  0
   36.0976   29.9896   50.9652 F   0  0  0  0  0  0  0  0  0  0  0  0
   36.8228   32.3709   50.9106 H   0  0  0  0  0  0  0  0  0  0  0  0
   38.5464   33.9266   49.9301 H   0  0  0  0  0  0  0  0  0  0  0  0
   39.5118   29.9650   45.3396 H   0  0  0  0  0  0  0  0  0  0  0  0
   40.3591   30.6678   46.7602 H   0  0  0  0  0  0  0  0  0  0  0  0
   41.5130   30.7786   44.5251 H   0  0  0  0  0  0  0  0  0  0  0  0
   41.4323   32.3605   45.3542 H   0  0  0  0  0  0  0  0  0  0  0  0
   40.5828   31.8130   42.8102 H   0  0  0  0  0  0  0  0  0  0  0  0
   38.5320   30.7896   43.5919 H   0  0  0  0  0  0  0  0  0  0  0  0
   38.3551   32.4556   42.7982 H   0  0  0  0  0  0  0  0  0  0  0  0
   38.1662   33.4829   44.9618 H   0  0  0  0  0  0  0  0  0  0  0  0
   35.6482   33.0281   44.7596 C   0  0  0  0  0  0  0  0  0  0  0  0
   36.6129   32.0326   44.7226 C   0  0  0  0  0  0  0  0  0  0  0  0
   36.2403   30.7191   44.5273 C   0  0  0  0  0  0  0  0  0  0  0  0
   36.9581   29.9009   44.4902 H   0  0  0  0  0  0  0  0  0  0  0  0
   34.9095   30.3885   44.3680 C   0  0  0  0  0  0  0  0  0  0  0  0
   34.1719   29.2773   44.1652 N   0  0  0  0  0  0  0  0  0  0  0  0
   34.5974   28.3134   44.0840 H   0  0  0  0  0  0  0  0  0  0  0  0
   32.8841   29.5605   44.0854 N   0  0  0  0  0  0  0  0  0  0  0  0
   32.6731   30.8876   44.2305 C   0  0  0  0  0  0  0  0  0  0  0  0
   31.7450   31.4224   44.2138 H   0  0  0  0  0  0  0  0  0  0  0  0
   33.9481   31.3881   44.4058 C   0  0  0  0  0  0  0  0  0  0  0  0
   34.3103   32.7185   44.6022 C   0  0  0  0  0  0  0  0  0  0  0  0
   36.0177   34.0420   44.9177 H   0  0  0  0  0  0  0  0  0  0  0  0
   33.6276   33.5568   44.6450 H   0  0  0  0  0  0  0  0  0  0  0  0
  1 13  1  0
  1  2  2  0
  3  2  1  0
  4  3  2  0
  5  6  2  0
  5  4  1  0
  6  1  1  0
  7  5  1  0
  8  7  1  0
  9  8  1  0
 10  9  1  0
 11 10  1  0
 11 12  1  0
 12  7  1  0
 13 14  1  0
 13 16  1  0
 15 13  1  0
  2 17  1  0
  3 18  1  0
  8 19  1  0
  8 20  1  0
  9 21  1  0
  9 22  1  0
 10 23  1  0
 11 24  1  0
 11 25  1  0
 12 26  1  1
 27 28  2  0
 28 29  1  0
 29 30  1  0
 29 31  2  0
 31 32  1  0
 32 33  1  0
 32 34  1  0
 34 35  2  0
 35 36  1  0
 35 37  1  0
 37 38  2  0
 38 27  1  0
 37 31  1  0
 27 39  1  0
 38 40  1  0
 12 28  1  0
M  ISO  8  17  14  18  14  19  13  20  13  21  13  22  13  23   5  24  13
M  ISO  5  25  13  26  13  30  16  33   5  36  15
M  END
>  <DihAtoms>  (1) 
10,11,27,26

>  <DihDeg>  (1) 
-107.76651559501151

$$$$
