
 OpenBabel03272505343D

 38 41  0  0  1  0  0  0  0  0999 V2000
   36.7910   31.0860   48.9410 C   0  0  0  0  0  0  0  0  0  0  0  0
   37.0610   32.2490   49.6640 C   0  0  0  0  0  0  0  0  0  0  0  0
   37.9700   33.1740   49.1300 C   0  0  0  0  0  0  0  0  0  0  0  0
   38.5380   32.8720   47.9200 N   0  0  0  0  0  0  0  0  0  0  0  0
   38.2450   31.7370   47.2590 C   0  0  0  0  0  0  0  0  0  0  0  0
   37.3840   30.8550   47.7600 N   0  0  0  0  0  0  0  0  0  0  0  0
   38.8980   31.5350   46.0130 N   0  0  0  0  0  0  0  0  0  0  0  0
   40.1780   30.8350   45.9780 C   0  0  0  0  0  0  0  0  0  0  0  0
   41.1550   31.5060   45.0430 C   0  0  0  0  0  0  0  0  0  0  0  0
   40.5630   31.8530   43.7810 N   0  0  0  0  0  0  0  0  0  0  0  0
   39.1930   31.4470   43.6350 C   0  0  0  0  0  0  0  0  0  0  0  0
   38.3310   32.0040   44.7620 C   0  0  1  0  0  0  0  0  0  0  0  0
   36.5830   32.4510   50.6330 H   0  0  0  0  0  0  0  0  0  0  0  0
   38.2210   34.0820   49.6290 H   0  0  0  0  0  0  0  0  0  0  0  0
   39.9820   29.8190   45.5750 H   0  0  0  0  0  0  0  0  0  0  0  0
   40.6250   30.7450   46.9740 H   0  0  0  0  0  0  0  0  0  0  0  0
   41.9560   30.7630   44.8370 H   0  0  0  0  0  0  0  0  0  0  0  0
   41.6440   32.4000   45.4840 H   0  0  0  0  0  0  0  0  0  0  0  0
   41.0830   31.5170   42.9550 H   0  0  0  0  0  0  0  0  0  0  0  0
   39.0830   30.3590   43.6790 H   0  0  0  0  0  0  0  0  0  0  0  0
   38.8120   31.9100   42.7010 H   0  0  0  0  0  0  0  0  0  0  0  0
   38.3300   33.1170   44.7220 H   0  0  0  0  0  0  0  0  0  0  0  0
   36.6160   30.2030   44.9080 C   0  0  0  0  0  3  0  0  0  0  0  0
   36.9570   31.4900   44.5180 C   0  0  0  0  0  0  0  0  0  0  0  0
   36.0200   32.2930   43.9020 C   0  0  0  0  0  0  0  0  0  0  0  0
   36.2380   33.3110   43.5770 H   0  0  0  0  0  0  0  0  0  0  0  0
   34.7430   31.8250   43.6720 C   0  0  0  0  0  0  0  0  0  0  0  0
   33.5950   32.2750   43.1250 N   0  0  0  0  0  0  0  0  0  0  0  0
   33.4970   33.2450   42.7150 H   0  0  0  0  0  0  0  0  0  0  0  0
   32.6450   31.3590   43.1740 N   0  0  0  0  0  0  0  0  0  0  0  0
   33.0950   30.2290   43.7590 C   0  0  0  0  0  0  0  0  0  0  0  0
   32.5670   29.3150   43.9440 H   0  0  0  0  0  0  0  0  0  0  0  0
   34.4070   30.5370   44.0630 C   0  0  0  0  0  0  0  0  0  0  0  0
   35.3420   29.7150   44.6860 C   0  0  0  0  0  3  0  0  0  0  0  0
   35.8250   30.0990   49.5060 C   0  0  0  0  0  0  0  0  0  0  0  0
   34.5800   30.7050   49.6740 F   0  0  0  0  0  0  0  0  0  0  0  0
   35.8100   29.0120   48.7090 F   0  0  0  0  0  0  0  0  0  0  0  0
   36.2750   29.8030   50.8040 F   0  0  0  0  0  0  0  0  0  0  0  0
  1 35  1  0  0  0  0
  1  2  1  0  0  0  0
  2 13  1  0  0  0  0
  3 14  1  0  0  0  0
  3  2  2  0  0  0  0
  4  3  1  0  0  0  0
  5  6  1  0  0  0  0
  5  4  2  0  0  0  0
  6  1  2  0  0  0  0
  7  5  1  0  0  0  0
  8  7  1  0  0  0  0
  8 16  1  0  0  0  0
  9 18  1  0  0  0  0
  9  8  1  0  0  0  0
 10  9  1  0  0  0  0
 11 20  1  0  0  0  0
 11 10  1  0  0  0  0
 11 12  1  0  0  0  0
 12 22  1  6  0  0  0
 12  7  1  0  0  0  0
 15  8  1  0  0  0  0
 17  9  1  0  0  0  0
 19 10  1  0  0  0  0
 21 11  1  0  0  0  0
 24 12  1  0  0  0  0
 24 23  2  0  0  0  0
 25 24  1  0  0  0  0
 26 25  1  0  0  0  0
 27 25  2  0  0  0  0
 27 33  1  0  0  0  0
 28 30  1  0  0  0  0
 28 27  1  0  0  0  0
 29 28  1  0  0  0  0
 30 31  2  0  0  0  0
 31 32  1  0  0  0  0
 31 33  1  0  0  0  0
 33 34  2  0  0  0  0
 34 23  1  0  0  0  0
 35 36  1  0  0  0  0
 35 38  1  0  0  0  0
 37 35  1  0  0  0  0
M  END
>  <minimizedAffinity>
-5.49237347

>  <minimizedRMSD>
0.799987316

$$$$
