REMARK  Name = 
REMARK  2 active torsions:
REMARK  status: ('A' for Active; 'I' for Inactive)
REMARK    1  A    between atoms: C_1  and  C_13
REMARK    2  A    between atoms: C_12  and  C_28
REMARK                            x       y       z     vdW  Elec       q    Type
REMARK                         _______ _______ _______ _____ _____    ______ ____
ROOT
ATOM      1  C   UNL     1      36.749  31.180  49.083  0.00  0.00    +0.000 A 
ATOM      2  C   UNL     1      37.200  32.226  49.889  0.00  0.00    +0.000 A 
ATOM      3  C   UNL     1      38.159  33.107  49.369  0.00  0.00    +0.000 A 
ATOM      4  N   UNL     1      38.595  32.880  48.090  0.00  0.00    +0.000 NA
ATOM      5  C   UNL     1      38.130  31.857  47.350  0.00  0.00    +0.000 A 
ATOM      6  N   UNL     1      37.220  31.017  47.837  0.00  0.00    +0.000 NA
ATOM      7  N   UNL     1      38.658  31.724  46.037  0.00  0.00    +0.000 N 
ATOM      8  C   UNL     1      39.848  30.907  45.821  0.00  0.00    +0.000 C 
ATOM      9  C   UNL     1      40.816  31.573  44.873  0.00  0.00    +0.000 C 
ATOM     10  N   UNL     1      40.168  32.109  43.708  0.00  0.00    +0.000 NA
ATOM     11  C   UNL     1      38.755  31.860  43.645  0.00  0.00    +0.000 C 
ATOM     12  C   UNL     1      38.049  32.378  44.893  0.00  0.00    +0.000 C 
ATOM     13  H   UNL     1      36.823  32.371  50.911  0.00  0.00    +0.000 HD
ATOM     14  H   UNL     1      38.546  33.927  49.930  0.00  0.00    +0.000 HD
ATOM     15  H   UNL     1      39.512  29.965  45.340  0.00  0.00    +0.000 HD
ATOM     16  H   UNL     1      40.359  30.668  46.760  0.00  0.00    +0.000 HD
ATOM     17  H   UNL     1      41.513  30.779  44.525  0.00  0.00    +0.000 HD
ATOM     18  H   UNL     1      41.432  32.361  45.354  0.00  0.00    +0.000 HD
ATOM     19  H   UNL     1      40.583  31.813  42.810  0.00  0.00    +0.000 HD
ATOM     20  H   UNL     1      38.532  30.790  43.592  0.00  0.00    +0.000 HD
ATOM     21  H   UNL     1      38.355  32.456  42.798  0.00  0.00    +0.000 HD
ATOM     22  H   UNL     1      38.166  33.483  44.962  0.00  0.00    +0.000 HD
ENDROOT
BRANCH  12  24
ATOM     23  C   UNL     1      35.835  31.724  45.828  0.00  0.00    +0.000 A 
ATOM     24  C   UNL     1      36.613  32.033  44.723  0.00  0.00    +0.000 A 
ATOM     25  C   UNL     1      36.054  32.019  43.462  0.00  0.00    +0.000 A 
ATOM     26  H   UNL     1      36.621  32.253  42.562  0.00  0.00    +0.000 HD
ATOM     27  C   UNL     1      34.722  31.699  43.294  0.00  0.00    +0.000 A 
ATOM     28  N   UNL     1      33.842  31.579  42.278  0.00  0.00    +0.000 N 
ATOM     29  H   UNL     1      34.105  31.748  41.268  0.00  0.00    +0.000 HD
ATOM     30  N   UNL     1      32.645  31.233  42.714  0.00  0.00    +0.000 NA
ATOM     31  C   UNL     1      32.643  31.096  44.059  0.00  0.00    +0.000 A 
ATOM     32  H   UNL     1      31.830  30.826  44.703  0.00  0.00    +0.000 HD
ATOM     33  C   UNL     1      33.948  31.391  44.403  0.00  0.00    +0.000 A 
ATOM     34  C   UNL     1      34.499  31.402  45.682  0.00  0.00    +0.000 A 
ENDBRANCH  12  24
BRANCH   1  35
ATOM     35  C   UNL     1      35.729  30.240  49.632  0.00  0.00    +0.000 C 
ATOM     36  F   UNL     1      34.492  30.881  49.703  0.00  0.00    +0.000 F 
ATOM     37  F   UNL     1      35.732  29.120  48.882  0.00  0.00    +0.000 F 
ATOM     38  F   UNL     1      36.098  29.990  50.965  0.00  0.00    +0.000 F 
ENDBRANCH   1  35
TORSDOF 2
