REMARK  Name = 
REMARK  3 active torsions:
REMARK  status: ('A' for Active; 'I' for Inactive)
REMARK    1  A    between atoms: C_1  and  C_7
REMARK    2  A    between atoms: C_1  and  C_9
REMARK    3  A    between atoms: C_12  and  C_20
REMARK                            x       y       z     vdW  Elec       q    Type
REMARK                         _______ _______ _______ _____ _____    ______ ____
ROOT
ATOM      1  C   UNL     1      36.507  30.900  49.422  0.00  0.00    +0.000 A 
ATOM      2  C   UNL     1      37.307  30.217  50.330  0.00  0.00    +0.000 A 
ATOM      3  C   UNL     1      38.440  31.022  50.427  0.00  0.00    +0.000 A 
ATOM      4  C   UNL     1      38.285  32.113  49.608  0.00  0.00    +0.000 A 
ATOM      5  O   UNL     1      37.112  32.005  49.020  0.00  0.00    +0.000 OA
ATOM      6  H   UNL     1      37.080  29.298  50.819  0.00  0.00    +0.000 HD
ATOM      7  H   UNL     1      39.302  30.811  51.054  0.00  0.00    +0.000 HD
ENDROOT
BRANCH   4   9
ATOM      8  C   UNL     1      39.158  34.322  50.222  0.00  0.00    +0.000 A 
ATOM      9  C   UNL     1      39.230  33.205  49.406  0.00  0.00    +0.000 A 
ATOM     10  C   UNL     1      40.181  33.096  48.400  0.00  0.00    +0.000 A 
ATOM     11  H   UNL     1      40.235  32.217  47.760  0.00  0.00    +0.000 HD
ATOM     12  C   UNL     1      41.091  34.123  48.188  0.00  0.00    +0.000 A 
ATOM     13  N   UNL     1      42.104  34.322  47.324  0.00  0.00    +0.000 N 
ATOM     14  H   UNL     1      42.363  33.607  46.594  0.00  0.00    +0.000 HD
ATOM     15  N   UNL     1      42.628  35.511  47.600  0.00  0.00    +0.000 NA
ATOM     16  C   UNL     1      41.968  36.079  48.629  0.00  0.00    +0.000 A 
ATOM     17  H   UNL     1      42.207  37.052  49.041  0.00  0.00    +0.000 HD
ATOM     18  C   UNL     1      40.969  35.209  49.031  0.00  0.00    +0.000 A 
ATOM     19  C   UNL     1      40.056  35.382  50.044  0.00  0.00    +0.000 A 
ENDBRANCH   4   9
BRANCH   1  20
ATOM     20  C   UNL     1      35.192  30.438  48.992  0.00  0.00    +0.000 C 
ATOM     21  O   UNL     1      34.339  30.186  49.860  0.00  0.00    +0.000 OA
BRANCH  20  26
ATOM     22  C   UNL     1      33.321  30.085  45.883  0.00  0.00    +0.000 A 
ATOM     23  C   UNL     1      34.316  30.006  44.916  0.00  0.00    +0.000 A 
ATOM     24  C   UNL     1      35.638  30.072  45.309  0.00  0.00    +0.000 A 
ATOM     25  N   UNL     1      35.904  30.211  46.627  0.00  0.00    +0.000 NA
ATOM     26  C   UNL     1      34.919  30.287  47.563  0.00  0.00    +0.000 A 
ATOM     27  N   UNL     1      33.630  30.223  47.177  0.00  0.00    +0.000 NA
ATOM     28  H   UNL     1      32.280  30.035  45.587  0.00  0.00    +0.000 HD
ATOM     29  H   UNL     1      34.056  29.894  43.867  0.00  0.00    +0.000 HD
ATOM     30  H   UNL     1      36.446  30.016  44.607  0.00  0.00    +0.000 HD
ENDBRANCH  20  26
ENDBRANCH   1  20
TORSDOF 3
