
     RDKit          3D

 37 40  0  0  0  0  0  0  0  0999 V2000
   37.3562   29.4139   50.6849 C   0  0  0  0  0  0  0  0  0  0  0  0
   37.5659   30.8044   50.6736 C   0  0  0  0  0  0  0  0  0  0  0  0
   36.8255   31.5587   49.7535 C   0  0  0  0  0  0  0  0  0  0  0  0
   35.9606   30.8937   48.9409 N   0  0  0  0  0  0  0  0  0  0  0  0
   35.7873   29.5698   48.9795 C   0  0  0  0  0  0  0  0  0  0  0  0
   36.4870   28.8231   49.8549 N   0  0  0  0  0  0  0  0  0  0  0  0
   34.8861   28.9569   48.1084 N   0  0  0  0  0  0  0  0  0  0  0  0
   34.1617   27.7328   48.4789 C   0  0  0  0  0  0  0  0  0  0  0  0
   32.7020   27.9214   48.3143 C   0  0  0  0  0  0  0  0  0  0  0  0
   32.2853   29.0237   47.5808 N   0  0  0  0  0  0  0  0  0  0  0  0
   33.1289   29.6194   46.6045 C   0  0  0  0  0  0  0  0  0  0  0  0
   34.5984   29.4593   46.7938 C   0  0  1  0  0  0  0  0  0  0  0  0
   37.9532   28.8719   51.4157 H   0  0  0  0  0  0  0  0  0  0  0  0
   38.2718   31.2809   51.3481 H   0  0  0  0  0  0  0  0  0  0  0  0
   36.9514   32.6417   49.7046 H   0  0  0  0  0  0  0  0  0  0  0  0
   34.4337   27.4900   49.5321 H   0  0  0  0  0  0  0  0  0  0  0  0
   34.5609   26.9108   47.8716 H   0  0  0  0  0  0  0  0  0  0  0  0
   32.2227   27.9219   49.3319 H   0  0  0  0  0  0  0  0  0  0  0  0
   32.3030   26.9870   47.8280 H   0  0  0  0  0  0  0  0  0  0  0  0
   31.3358   28.9323   47.1904 H   0  0  0  0  0  0  0  0  0  0  0  0
   32.8379   29.2280   45.6090 H   0  0  0  0  0  0  0  0  0  0  0  0
   32.8659   30.6961   46.5666 H   0  0  0  0  0  0  0  0  0  0  0  0
   34.9004   28.5551   46.1234 H   0  0  0  0  0  0  0  0  0  0  0  0
   36.6750   30.5819   47.0306 C   0  0  0  0  0  0  0  0  0  0  0  0
   35.4460   30.5715   46.3501 C   0  0  0  0  0  0  0  0  0  0  0  0
   35.2834   31.5791   45.4244 C   0  0  0  0  0  0  0  0  0  0  0  0
   34.3270   31.5300   44.9272 H   0  0  0  0  0  0  0  0  0  0  0  0
   36.2578   32.5252   45.1872 C   0  0  0  0  0  0  0  0  0  0  0  0
   36.2088   33.5420   44.3177 N   0  0  0  0  0  0  0  0  0  0  0  0
   35.4562   33.8319   43.6556 H   0  0  0  0  0  0  0  0  0  0  0  0
   37.3429   34.2159   44.3955 N   0  0  0  0  0  0  0  0  0  0  0  0
   38.1361   33.6302   45.3252 C   0  0  0  0  0  0  0  0  0  0  0  0
   39.1372   33.8814   45.6786 H   0  0  0  0  0  0  0  0  0  0  0  0
   37.4646   32.5454   45.8471 C   0  0  0  0  0  0  0  0  0  0  0  0
   37.6330   31.5399   46.7742 C   0  0  0  0  0  0  0  0  0  0  0  0
   36.9834   29.8587   47.8025 H   0  0  0  0  0  0  0  0  0  0  0  0
   38.5995   31.5546   47.3040 H   0  0  0  0  0  0  0  0  0  0  0  0
  2  1  2  0
  3  2  1  0
  4  5  1  0
  4  3  2  0
  5  6  2  0
  6  1  1  0
  7  8  1  0
  7  5  1  0
  9  8  1  0
 10  9  1  0
 11 12  1  0
 11 10  1  0
 12  7  1  0
  1 13  1  0
  2 14  1  0
  3 15  1  0
  8 16  1  0
  8 17  1  0
  9 18  1  0
  9 19  1  0
 10 20  1  0
 11 21  1  0
 11 22  1  0
 12 23  1  6
 24 25  2  0
 25 26  1  0
 26 27  1  0
 26 28  2  0
 28 29  1  0
 29 30  1  0
 29 31  1  0
 31 32  2  0
 32 33  1  0
 32 34  1  0
 34 35  2  0
 35 24  1  0
 34 28  1  0
 24 36  1  0
 35 37  1  0
 12 25  1  0
M  ISO  8  13  14  14  14  15  14  16  13  17  13  18  13  19  13  20   5
M  ISO  6  21  13  22  13  23  13  27  16  30   5  33  15
M  END
>  <DihAtoms>  (1) 
10,11,24,23

>  <DihDeg>  (1) 
-174.06257488914943

$$$$
