
 OpenBabel03272503193D

 38 42  0  0  0  0  0  0  0  0999 V2000
   36.1530   29.6250   50.5820 C   0  0  0  0  0  0  0  0  0  0  0  0
   36.8870   30.3520   49.6180 C   0  0  0  0  0  0  0  0  0  0  0  0
   36.4940   30.2080   48.2700 C   0  0  0  0  0  0  0  0  0  0  0  0
   35.4680   29.4100   47.9690 N   0  0  0  0  0  0  0  0  0  0  0  0
   34.7940   28.7350   48.9190 C   0  0  0  0  0  0  0  0  0  0  0  0
   35.1360   28.8440   50.2040 N   0  0  0  0  0  0  0  0  0  0  0  0
   36.5100   29.7820   51.5980 H   0  0  0  0  0  0  0  0  0  0  0  0
   37.7190   30.9980   49.8750 H   0  0  0  0  0  0  0  0  0  0  0  0
   32.4050   28.1150   48.9680 C   0  0  0  0  0  3  0  0  0  0  0  0
   33.6830   27.8790   48.5200 C   0  0  0  0  0  0  0  0  0  0  0  0
   33.8940   26.8070   47.6790 C   0  0  0  0  0  0  0  0  0  0  0  0
   34.8670   26.5630   47.2900 H   0  0  0  0  0  0  0  0  0  0  0  0
   32.8090   26.0100   47.3180 C   0  0  0  0  0  0  0  0  0  0  0  0
   32.6610   24.9220   46.5430 N   0  0  0  0  0  0  0  0  0  0  0  0
   33.4110   24.4290   46.0160 H   0  0  0  0  0  0  0  0  0  0  0  0
   31.3960   24.5260   46.5170 N   0  0  0  0  0  0  0  0  0  0  0  0
   30.6520   25.3580   47.2930 C   0  0  0  0  0  0  0  0  0  0  0  0
   29.5920   25.3410   47.5060 H   0  0  0  0  0  0  0  0  0  0  0  0
   31.5380   26.2940   47.8000 C   0  0  0  0  0  0  0  0  0  0  0  0
   31.3150   27.3580   48.6370 C   0  0  0  0  0  3  0  0  0  0  0  0
   37.2020   30.9280   47.2070 C   0  0  0  0  0  0  0  0  0  0  0  0
   38.1320   31.8840   47.2430 C   0  0  0  0  0  0  0  0  0  0  0  0
   38.6260   32.3820   46.0920 C   0  0  0  0  0  0  0  0  0  0  0  0
   38.1300   31.8590   44.9120 C   0  0  0  0  0  0  0  0  0  0  0  0
   36.9170   30.6170   45.4960 S   0  0  0  0  0  0  0  0  0  0  0  0
   38.4630   32.2350   48.2160 H   0  0  0  0  0  0  0  0  0  0  0  0
   39.3770   33.1530   45.9760 H   0  0  0  0  0  0  0  0  0  0  0  0
   40.7680   30.7680   43.8490 Cl  0  0  0  0  0  0  0  0  0  0  0  0
   39.5700   31.6770   42.9770 C   0  0  0  0  0  0  0  0  0  0  0  0
   38.4100   32.1340   43.5200 C   0  0  0  0  0  0  0  0  0  0  0  0
   37.4380   32.8480   42.8850 C   0  0  0  0  0  0  0  0  0  0  0  0
   37.6330   33.1560   41.5350 C   0  0  0  0  0  0  0  0  0  0  0  0
   38.7890   32.7240   40.9180 C   0  0  0  0  0  0  0  0  0  0  0  0
   39.0810   33.0840   39.2270 Cl  0  0  0  0  0  0  0  0  0  0  0  0
   39.7430   31.9970   41.6240 C   0  0  0  0  0  0  0  0  0  0  0  0
   36.5200   33.1980   43.3550 H   0  0  0  0  0  0  0  0  0  0  0  0
   36.8750   33.7260   41.0020 H   0  0  0  0  0  0  0  0  0  0  0  0
   40.6270   31.6850   41.0920 H   0  0  0  0  0  0  0  0  0  0  0  0
  1  7  1  0  0  0  0
  2  8  1  0  0  0  0
  2  1  2  0  0  0  0
  3  2  1  0  0  0  0
  4  3  2  0  0  0  0
  4  5  1  0  0  0  0
  5  6  2  0  0  0  0
  6  1  1  0  0  0  0
 10  5  1  0  0  0  0
 10  9  2  0  0  0  0
 11 10  1  0  0  0  0
 12 11  1  0  0  0  0
 13 11  2  0  0  0  0
 13 19  1  0  0  0  0
 14 13  1  0  0  0  0
 15 14  1  0  0  0  0
 16 14  1  0  0  0  0
 16 17  2  0  0  0  0
 17 18  1  0  0  0  0
 17 19  1  0  0  0  0
 19 20  2  0  0  0  0
 20  9  1  0  0  0  0
 21 22  2  0  0  0  0
 21  3  1  0  0  0  0
 22 26  1  0  0  0  0
 23 22  1  0  0  0  0
 24 25  1  0  0  0  0
 24 23  2  0  0  0  0
 25 21  1  0  0  0  0
 27 23  1  0  0  0  0
 29 30  1  0  0  0  0
 29 28  1  0  0  0  0
 30 24  1  0  0  0  0
 31 36  1  0  0  0  0
 31 30  2  0  0  0  0
 32 31  1  0  0  0  0
 33 32  2  0  0  0  0
 33 35  1  0  0  0  0
 34 33  1  0  0  0  0
 35 29  2  0  0  0  0
 37 32  1  0  0  0  0
 38 35  1  0  0  0  0
M  END
>  <minimizedAffinity>
-6.0900898

>  <minimizedRMSD>
1.96614933

$$$$
