
 OpenBabel03272508433D

 30 33  0  0  0  0  0  0  0  0999 V2000
   34.2300   28.8590   48.5380 C   0  0  0  0  0  0  0  0  0  0  0  0
   34.8520   28.3120   49.6530 C   0  0  0  0  0  0  0  0  0  0  0  0
   35.9890   29.1030   49.8060 C   0  0  0  0  0  0  0  0  0  0  0  0
   36.0070   30.0560   48.8180 C   0  0  0  0  0  0  0  0  0  0  0  0
   34.9350   29.8780   48.0750 O   0  0  0  0  0  0  0  0  0  0  0  0
   34.5150   27.4840   50.2330 H   0  0  0  0  0  0  0  0  0  0  0  0
   36.7340   28.9770   50.5870 H   0  0  0  0  0  0  0  0  0  0  0  0
   37.3090   31.9690   49.6340 C   0  0  0  0  0  3  0  0  0  0  0  0
   37.0160   31.0870   48.6070 C   0  0  0  0  0  0  0  0  0  0  0  0
   37.6580   31.1600   47.3780 C   0  0  0  0  0  0  0  0  0  0  0  0
   37.4250   30.4650   46.5710 H   0  0  0  0  0  0  0  0  0  0  0  0
   38.6220   32.1330   47.1520 C   0  0  0  0  0  0  0  0  0  0  0  0
   39.4030   32.4620   46.1060 N   0  0  0  0  0  0  0  0  0  0  0  0
   39.3660   31.9330   45.1940 H   0  0  0  0  0  0  0  0  0  0  0  0
   40.1430   33.5000   46.4790 N   0  0  0  0  0  0  0  0  0  0  0  0
   39.8490   33.8440   47.7490 C   0  0  0  0  0  0  0  0  0  0  0  0
   40.3190   34.6620   48.2810 H   0  0  0  0  0  0  0  0  0  0  0  0
   38.8700   32.9810   48.2120 C   0  0  0  0  0  0  0  0  0  0  0  0
   38.2740   32.9650   49.4510 C   0  0  0  0  0  3  0  0  0  0  0  0
   32.9790   28.3580   47.9790 C   0  0  0  0  0  0  0  0  0  0  0  0
   32.2330   27.6820   48.7070 O   0  0  0  0  0  0  0  0  0  0  0  0
   31.1860   29.7190   45.1120 C   0  0  0  0  0  0  0  0  0  0  0  0
   31.9390   29.2880   44.0270 C   0  0  0  0  0  0  0  0  0  0  0  0
   33.0690   28.5280   44.2560 C   0  0  0  0  0  0  0  0  0  0  0  0
   33.3910   28.2370   45.5360 N   0  0  0  0  0  0  0  0  0  0  0  0
   32.6430   28.6660   46.5890 C   0  0  0  0  0  0  0  0  0  0  0  0
   31.5420   29.4080   46.3630 N   0  0  0  0  0  0  0  0  0  0  0  0
   30.2970   30.3170   44.9450 H   0  0  0  0  0  0  0  0  0  0  0  0
   31.6430   29.5460   43.0140 H   0  0  0  0  0  0  0  0  0  0  0  0
   33.6870   28.1690   43.4580 H   0  0  0  0  0  0  0  0  0  0  0  0
  1  2  2  0  0  0  0
  2  3  1  0  0  0  0
  2  6  1  0  0  0  0
  3  7  1  0  0  0  0
  4  3  2  0  0  0  0
  5  1  1  0  0  0  0
  5  4  1  0  0  0  0
  9  4  1  0  0  0  0
  9  8  2  0  0  0  0
 10  9  1  0  0  0  0
 11 10  1  0  0  0  0
 12 10  2  0  0  0  0
 12 18  1  0  0  0  0
 13 15  1  0  0  0  0
 13 12  1  0  0  0  0
 14 13  1  0  0  0  0
 15 16  2  0  0  0  0
 16 18  1  0  0  0  0
 16 17  1  0  0  0  0
 18 19  2  0  0  0  0
 19  8  1  0  0  0  0
 20  1  1  0  0  0  0
 20 21  2  0  0  0  0
 22 27  1  0  0  0  0
 23 24  1  0  0  0  0
 23 22  2  0  0  0  0
 24 25  2  0  0  0  0
 25 26  1  0  0  0  0
 26 20  1  0  0  0  0
 27 26  2  0  0  0  0
 28 22  1  0  0  0  0
 29 23  1  0  0  0  0
 30 24  1  0  0  0  0
M  END
>  <minimizedAffinity>
-5.78971815

>  <minimizedRMSD>
3.24492621

$$$$
