REMARK  Name = 
REMARK  5 active torsions:
REMARK  status: ('A' for Active; 'I' for Inactive)
REMARK    1  A    between atoms: C_1  and  C_7
REMARK    2  A    between atoms: C_2  and  C_14
REMARK    3  A    between atoms: C_5  and  C_9
REMARK    4  A    between atoms: C_14  and  C_15
REMARK    5  A    between atoms: C_20  and  C_35
REMARK                            x       y       z     vdW  Elec       q    Type
REMARK                         _______ _______ _______ _____ _____    ______ ____
ROOT
ATOM      1  C   UNL     1      33.608  26.935  46.905  0.00  0.00    +0.000 A 
ATOM      2  C   UNL     1      33.804  25.620  47.320  0.00  0.00    +0.000 A 
ATOM      3  C   UNL     1      34.203  24.650  46.441  0.00  0.00    +0.000 A 
ATOM      4  C   UNL     1      34.423  24.941  45.115  0.00  0.00    +0.000 A 
ATOM      5  C   UNL     1      34.232  26.237  44.696  0.00  0.00    +0.000 A 
ATOM      6  C   UNL     1      33.828  27.238  45.569  0.00  0.00    +0.000 A 
ATOM      7  H   UNL     1      33.607  25.489  48.374  0.00  0.00    +0.000 HD
ATOM      8  H   UNL     1      34.304  23.701  46.930  0.00  0.00    +0.000 HD
ATOM      9  H   UNL     1      34.735  24.113  44.500  0.00  0.00    +0.000 HD
ATOM     10  H   UNL     1      34.438  26.337  43.627  0.00  0.00    +0.000 HD
ENDROOT
BRANCH   6  12
ATOM     11  C   UNL     1      33.458  28.786  43.553  0.00  0.00    +0.000 A 
ATOM     12  C   UNL     1      33.730  28.498  44.854  0.00  0.00    +0.000 A 
ATOM     13  C   UNL     1      33.990  29.635  45.634  0.00  0.00    +0.000 A 
ATOM     14  H   UNL     1      34.224  29.547  46.705  0.00  0.00    +0.000 HD
ATOM     15  C   UNL     1      33.987  30.939  45.188  0.00  0.00    +0.000 A 
ATOM     16  N   UNL     1      34.202  32.131  45.750  0.00  0.00    +0.000 N 
ATOM     17  H   UNL     1      34.440  32.299  46.755  0.00  0.00    +0.000 HD
ATOM     18  N   UNL     1      34.060  33.053  44.812  0.00  0.00    +0.000 NA
ATOM     19  C   UNL     1      33.752  32.506  43.620  0.00  0.00    +0.000 A 
ATOM     20  H   UNL     1      33.571  32.973  42.662  0.00  0.00    +0.000 HD
ATOM     21  C   UNL     1      33.704  31.161  43.856  0.00  0.00    +0.000 A 
ATOM     22  C   UNL     1      33.443  30.068  43.058  0.00  0.00    +0.000 A 
ENDBRANCH   6  12
BRANCH   1  23
ATOM     23  C   UNL     1      33.169  28.053  47.784  0.00  0.00    +0.000 C 
ATOM     24  H   UNL     1      32.548  27.573  48.590  0.00  0.00    +0.000 HD
ATOM     25  H   UNL     1      32.490  28.707  47.246  0.00  0.00    +0.000 HD
BRANCH  23  27
ATOM     26  C   UNL     1      35.011  28.377  49.459  0.00  0.00    +0.000 C 
ATOM     27  C   UNL     1      34.276  28.769  48.448  0.00  0.00    +0.000 C 
BRANCH  26  32
ATOM     28  C   UNL     1      37.387  30.173  51.570  0.00  0.00    +0.000 A 
ATOM     29  C   UNL     1      38.090  30.937  50.620  0.00  0.00    +0.000 A 
ATOM     30  C   UNL     1      37.722  30.817  49.272  0.00  0.00    +0.000 A 
ATOM     31  N   UNL     1      36.694  29.959  48.957  0.00  0.00    +0.000 NA
ATOM     32  C   UNL     1      36.063  29.255  49.927  0.00  0.00    +0.000 A 
ATOM     33  N   UNL     1      36.395  29.354  51.206  0.00  0.00    +0.000 NA
ATOM     34  H   UNL     1      37.654  30.251  52.605  0.00  0.00    +0.000 HD
ATOM     35  H   UNL     1      38.884  31.595  50.882  0.00  0.00    +0.000 HD
BRANCH  30  36
ATOM     36  C   UNL     1      38.380  31.565  48.200  0.00  0.00    +0.000 A 
ATOM     37  C   UNL     1      38.587  31.038  46.946  0.00  0.00    +0.000 A 
ATOM     38  C   UNL     1      39.235  32.022  46.184  0.00  0.00    +0.000 A 
ATOM     39  N   UNL     1      39.390  33.090  47.004  0.00  0.00    +0.000 N 
ATOM     40  N   UNL     1      38.880  32.812  48.198  0.00  0.00    +0.000 NA
ATOM     41  H   UNL     1      38.321  30.062  46.570  0.00  0.00    +0.000 HD
ATOM     42  H   UNL     1      39.531  31.901  45.149  0.00  0.00    +0.000 HD
ATOM     43  H   UNL     1      39.846  33.961  46.683  0.00  0.00    +0.000 HD
ENDBRANCH  30  36
ENDBRANCH  26  32
ENDBRANCH  23  27
ENDBRANCH   1  23
TORSDOF 5
