
 OpenBabel03272508383D

 47 51  0  0  1  0  0  0  0  0999 V2000
   38.3310   23.8250   36.5780 N   0  0  0  0  0  0  0  0  0  0  0  0
   38.8440   23.3630   37.8040 C   0  0  0  0  0  0  0  0  0  0  0  0
   40.1170   22.6300   37.7550 C   0  0  0  0  0  0  0  0  0  0  0  0
   40.2160   21.7730   36.6480 O   0  0  0  0  0  0  0  0  0  0  0  0
   40.0510   22.4990   35.5060 C   0  0  0  0  0  0  0  0  0  0  0  0
   38.6590   23.0810   35.4400 C   0  0  1  0  0  0  0  0  0  0  0  0
   38.0390   22.6190   38.0450 H   0  0  0  0  0  0  0  0  0  0  0  0
   38.7780   23.9780   38.6960 H   0  0  0  0  0  0  0  0  0  0  0  0
   40.0190   21.8050   38.5520 H   0  0  0  0  0  0  0  0  0  0  0  0
   41.0350   23.0350   38.1510 H   0  0  0  0  0  0  0  0  0  0  0  0
   40.0410   21.7200   34.6760 H   0  0  0  0  0  0  0  0  0  0  0  0
   40.8530   23.1700   35.2080 H   0  0  0  0  0  0  0  0  0  0  0  0
   38.8060   23.8970   34.6420 H   0  0  0  0  0  0  0  0  0  0  0  0
   36.6880   21.4520   35.4940 C   0  0  0  0  0  3  0  0  0  0  0  0
   37.6510   22.1940   34.8480 C   0  0  0  0  0  0  0  0  0  0  0  0
   37.5730   22.0080   33.4590 C   0  0  0  0  0  0  0  0  0  0  0  0
   38.3020   22.5580   32.8420 H   0  0  0  0  0  0  0  0  0  0  0  0
   36.6770   21.2060   32.7830 C   0  0  0  0  0  0  0  0  0  0  0  0
   36.5220   20.9630   31.4690 N   0  0  0  0  0  0  0  0  0  0  0  0
   37.0900   21.3640   30.6750 H   0  0  0  0  0  0  0  0  0  0  0  0
   35.5100   20.1170   31.3840 N   0  0  0  0  0  0  0  0  0  0  0  0
   35.0180   19.8150   32.5970 C   0  0  0  0  0  0  0  0  0  0  0  0
   34.1930   19.1550   32.8620 H   0  0  0  0  0  0  0  0  0  0  0  0
   35.7560   20.5080   33.5310 C   0  0  0  0  0  0  0  0  0  0  0  0
   35.7570   20.6290   34.9000 C   0  0  0  0  0  3  0  0  0  0  0  0
   38.1930   25.2220   36.4560 C   0  0  0  0  0  0  0  0  0  0  0  0
   38.3780   25.6480   37.4780 H   0  0  0  0  0  0  0  0  0  0  0  0
   37.0850   25.4160   36.3200 H   0  0  0  0  0  0  0  0  0  0  0  0
   38.8950   25.9330   35.4060 C   0  0  0  0  0  0  0  0  0  0  0  0
   39.5920   25.4970   34.7200 H   0  0  0  0  0  0  0  0  0  0  0  0
   39.5270   26.7220   35.9340 H   0  0  0  0  0  0  0  0  0  0  0  0
   36.4670   28.1330   33.9280 C   0  0  0  0  0  0  0  0  0  0  0  0
   36.7890   27.3480   32.8390 C   0  0  0  0  0  0  0  0  0  0  0  0
   37.7480   26.4230   33.2760 C   0  0  0  0  0  0  0  0  0  0  0  0
   37.9590   26.6790   34.5660 N   0  0  0  0  0  0  0  0  0  0  0  0
   37.1910   27.7040   34.9570 N   0  0  0  0  0  0  0  0  0  0  0  0
   36.3610   27.4450   31.8220 H   0  0  0  0  0  0  0  0  0  0  0  0
   38.1030   25.7570   32.5780 H   0  0  0  0  0  0  0  0  0  0  0  0
   34.4900   31.2620   34.5390 C   0  0  0  0  0  0  0  0  0  0  0  0
   35.4830   30.3080   34.6940 C   0  0  0  0  0  0  0  0  0  0  0  0
   35.5010   29.1950   33.8700 C   0  0  0  0  0  0  0  0  0  0  0  0
   34.4980   29.1490   32.9510 N   0  0  0  0  0  0  0  0  0  0  0  0
   33.5420   30.0780   32.8080 C   0  0  0  0  0  0  0  0  0  0  0  0
   33.5450   31.1320   33.6060 N   0  0  0  0  0  0  0  0  0  0  0  0
   34.5470   32.0960   35.2190 H   0  0  0  0  0  0  0  0  0  0  0  0
   36.2670   30.3770   35.4390 H   0  0  0  0  0  0  0  0  0  0  0  0
   32.7910   29.9350   32.0370 H   0  0  0  0  0  0  0  0  0  0  0  0
  1  2  1  0  0  0  0
  2  7  1  0  0  0  0
  2  8  1  0  0  0  0
  3  2  1  0  0  0  0
  3 10  1  0  0  0  0
  3  9  1  0  0  0  0
  4  3  1  0  0  0  0
  5  4  1  0  0  0  0
  6 13  1  6  0  0  0
  6  5  1  0  0  0  0
  6  1  1  0  0  0  0
 11  5  1  0  0  0  0
 12  5  1  0  0  0  0
 15  6  1  0  0  0  0
 15 14  2  0  0  0  0
 16 15  1  0  0  0  0
 17 16  1  0  0  0  0
 18 16  2  0  0  0  0
 18 24  1  0  0  0  0
 19 18  1  0  0  0  0
 20 19  1  0  0  0  0
 21 19  1  0  0  0  0
 21 22  2  0  0  0  0
 22 23  1  0  0  0  0
 22 24  1  0  0  0  0
 24 25  2  0  0  0  0
 25 14  1  0  0  0  0
 26  1  1  0  0  0  0
 26 27  1  0  0  0  0
 28 26  1  0  0  0  0
 29 31  1  0  0  0  0
 29 26  1  0  0  0  0
 30 29  1  0  0  0  0
 32 36  2  0  0  0  0
 33 34  2  0  0  0  0
 33 32  1  0  0  0  0
 34 35  1  0  0  0  0
 35 36  1  0  0  0  0
 35 29  1  0  0  0  0
 37 33  1  0  0  0  0
 38 34  1  0  0  0  0
 39 40  1  0  0  0  0
 39 45  1  0  0  0  0
 40 46  1  0  0  0  0
 41 32  1  0  0  0  0
 41 40  2  0  0  0  0
 42 41  1  0  0  0  0
 43 42  2  0  0  0  0
 43 44  1  0  0  0  0
 44 39  2  0  0  0  0
 47 43  1  0  0  0  0
M  END
>  <minimizedAffinity>
-6.22455835

$$$$

 OpenBabel03272508383D

 47 51  0  0  1  0  0  0  0  0999 V2000
   38.1800   23.8050   36.4940 N   0  0  0  0  0  0  0  0  0  0  0  0
   38.7100   23.3760   37.7250 C   0  0  0  0  0  0  0  0  0  0  0  0
   40.0120   22.6940   37.6830 C   0  0  0  0  0  0  0  0  0  0  0  0
   40.1450   21.8320   36.5840 O   0  0  0  0  0  0  0  0  0  0  0  0
   39.9520   22.5390   35.4350 C   0  0  0  0  0  0  0  0  0  0  0  0
   38.5380   23.0650   35.3640 C   0  0  1  0  0  0  0  0  0  0  0  0
   37.9350   22.6030   37.9730 H   0  0  0  0  0  0  0  0  0  0  0  0
   38.6190   23.9970   38.6110 H   0  0  0  0  0  0  0  0  0  0  0  0
   39.9460   21.8730   38.4880 H   0  0  0  0  0  0  0  0  0  0  0  0
   40.9120   23.1390   38.0750 H   0  0  0  0  0  0  0  0  0  0  0  0
   39.9740   21.7530   34.6120 H   0  0  0  0  0  0  0  0  0  0  0  0
   40.7260   23.2390   35.1320 H   0  0  0  0  0  0  0  0  0  0  0  0
   38.6520   23.8780   34.5580 H   0  0  0  0  0  0  0  0  0  0  0  0
   36.5830   21.4160   35.4240 C   0  0  0  0  0  3  0  0  0  0  0  0
   37.5670   22.1330   34.7800 C   0  0  0  0  0  0  0  0  0  0  0  0
   37.5520   21.8660   33.4020 C   0  0  0  0  0  0  0  0  0  0  0  0
   38.3030   22.3890   32.7870 H   0  0  0  0  0  0  0  0  0  0  0  0
   36.6960   21.0160   32.7340 C   0  0  0  0  0  0  0  0  0  0  0  0
   36.6030   20.6960   31.4310 N   0  0  0  0  0  0  0  0  0  0  0  0
   37.2010   21.0580   30.6410 H   0  0  0  0  0  0  0  0  0  0  0  0
   35.6040   19.8330   31.3500 N   0  0  0  0  0  0  0  0  0  0  0  0
   35.0610   19.5950   32.5560 C   0  0  0  0  0  0  0  0  0  0  0  0
   34.2320   18.9400   32.8220 H   0  0  0  0  0  0  0  0  0  0  0  0
   35.7500   20.3500   33.4800 C   0  0  0  0  0  0  0  0  0  0  0  0
   35.6880   20.5490   34.8380 C   0  0  0  0  0  3  0  0  0  0  0  0
   37.9860   25.1950   36.3600 C   0  0  0  0  0  0  0  0  0  0  0  0
   37.7700   25.5840   37.3890 H   0  0  0  0  0  0  0  0  0  0  0  0
   36.9830   25.3220   35.8470 H   0  0  0  0  0  0  0  0  0  0  0  0
   38.9530   25.9970   35.6360 C   0  0  0  0  0  0  0  0  0  0  0  0
   39.8980   25.6500   35.2710 H   0  0  0  0  0  0  0  0  0  0  0  0
   39.2550   26.8360   36.3480 H   0  0  0  0  0  0  0  0  0  0  0  0
   38.0050   27.4410   32.4840 C   0  0  0  0  0  0  0  0  0  0  0  0
   36.8990   27.7570   33.2470 C   0  0  0  0  0  0  0  0  0  0  0  0
   37.1320   27.2440   34.5310 C   0  0  0  0  0  0  0  0  0  0  0  0
   38.3280   26.6600   34.4920 N   0  0  0  0  0  0  0  0  0  0  0  0
   38.8520   26.7770   33.2650 N   0  0  0  0  0  0  0  0  0  0  0  0
   36.0070   28.3100   32.8950 H   0  0  0  0  0  0  0  0  0  0  0  0
   36.3950   27.3920   35.2310 H   0  0  0  0  0  0  0  0  0  0  0  0
   39.2030   27.8960   28.9580 C   0  0  0  0  0  0  0  0  0  0  0  0
   39.1930   27.4670   30.2760 C   0  0  0  0  0  0  0  0  0  0  0  0
   38.1370   27.8130   31.1030 C   0  0  0  0  0  0  0  0  0  0  0  0
   37.1740   28.5720   30.5110 N   0  0  0  0  0  0  0  0  0  0  0  0
   37.1930   28.9800   29.2340 C   0  0  0  0  0  0  0  0  0  0  0  0
   38.2110   28.6380   28.4640 N   0  0  0  0  0  0  0  0  0  0  0  0
   40.0590   27.5830   28.3830 H   0  0  0  0  0  0  0  0  0  0  0  0
   39.9790   26.8630   30.7150 H   0  0  0  0  0  0  0  0  0  0  0  0
   36.3670   29.5840   28.8710 H   0  0  0  0  0  0  0  0  0  0  0  0
  1  2  1  0  0  0  0
  2  7  1  0  0  0  0
  2  8  1  0  0  0  0
  3  2  1  0  0  0  0
  3 10  1  0  0  0  0
  3  9  1  0  0  0  0
  4  3  1  0  0  0  0
  5  4  1  0  0  0  0
  6 13  1  6  0  0  0
  6  5  1  0  0  0  0
  6  1  1  0  0  0  0
 11  5  1  0  0  0  0
 12  5  1  0  0  0  0
 15  6  1  0  0  0  0
 15 14  2  0  0  0  0
 16 15  1  0  0  0  0
 17 16  1  0  0  0  0
 18 16  2  0  0  0  0
 18 24  1  0  0  0  0
 19 18  1  0  0  0  0
 20 19  1  0  0  0  0
 21 19  1  0  0  0  0
 21 22  2  0  0  0  0
 22 23  1  0  0  0  0
 22 24  1  0  0  0  0
 24 25  2  0  0  0  0
 25 14  1  0  0  0  0
 26  1  1  0  0  0  0
 26 27  1  0  0  0  0
 28 26  1  0  0  0  0
 29 31  1  0  0  0  0
 29 26  1  0  0  0  0
 30 29  1  0  0  0  0
 32 33  1  0  0  0  0
 32 36  2  0  0  0  0
 33 34  2  0  0  0  0
 34 38  1  0  0  0  0
 35 34  1  0  0  0  0
 35 29  1  0  0  0  0
 36 35  1  0  0  0  0
 37 33  1  0  0  0  0
 39 40  1  0  0  0  0
 40 46  1  0  0  0  0
 40 41  2  0  0  0  0
 41 32  1  0  0  0  0
 42 41  1  0  0  0  0
 43 42  2  0  0  0  0
 44 39  2  0  0  0  0
 44 43  1  0  0  0  0
 45 39  1  0  0  0  0
 47 43  1  0  0  0  0
M  END
>  <minimizedAffinity>
-6.1028161

$$$$

 OpenBabel03272508383D

 47 51  0  0  1  0  0  0  0  0999 V2000
   35.1200   29.1170   32.3650 N   0  0  0  0  0  0  0  0  0  0  0  0
   35.4950   30.1320   31.4660 C   0  0  0  0  0  0  0  0  0  0  0  0
   36.0560   31.3590   32.0490 C   0  0  0  0  0  0  0  0  0  0  0  0
   35.4120   31.7480   33.2340 O   0  0  0  0  0  0  0  0  0  0  0  0
   35.4830   30.7280   34.1360 C   0  0  0  0  0  0  0  0  0  0  0  0
   34.7180   29.5240   33.6400 C   0  0  1  0  0  0  0  0  0  0  0  0
   34.4740   30.3850   31.0740 H   0  0  0  0  0  0  0  0  0  0  0  0
   35.9800   29.8860   30.5260 H   0  0  0  0  0  0  0  0  0  0  0  0
   35.6530   32.2150   31.3930 H   0  0  0  0  0  0  0  0  0  0  0  0
   37.0920   31.6340   31.9360 H   0  0  0  0  0  0  0  0  0  0  0  0
   34.8550   31.0850   35.0150 H   0  0  0  0  0  0  0  0  0  0  0  0
   36.4480   30.5150   34.5890 H   0  0  0  0  0  0  0  0  0  0  0  0
   35.1530   28.7010   34.3150 H   0  0  0  0  0  0  0  0  0  0  0  0
   32.2190   29.3050   33.1350 C   0  0  0  0  0  3  0  0  0  0  0  0
   33.2890   29.5260   33.9740 C   0  0  0  0  0  0  0  0  0  0  0  0
   32.8490   29.7730   35.2840 C   0  0  0  0  0  0  0  0  0  0  0  0
   33.6270   29.9650   36.0410 H   0  0  0  0  0  0  0  0  0  0  0  0
   31.5420   29.8030   35.7240 C   0  0  0  0  0  0  0  0  0  0  0  0
   31.0230   30.0290   36.9450 N   0  0  0  0  0  0  0  0  0  0  0  0
   31.5520   30.2350   37.8340 H   0  0  0  0  0  0  0  0  0  0  0  0
   29.7130   29.9370   36.7930 N   0  0  0  0  0  0  0  0  0  0  0  0
   29.3830   29.6620   35.5200 C   0  0  0  0  0  0  0  0  0  0  0  0
   28.3980   29.5250   35.0770 H   0  0  0  0  0  0  0  0  0  0  0  0
   30.5520   29.5680   34.7970 C   0  0  0  0  0  0  0  0  0  0  0  0
   30.8890   29.3160   33.4890 C   0  0  0  0  0  3  0  0  0  0  0  0
   35.8070   27.8930   32.2310 C   0  0  0  0  0  0  0  0  0  0  0  0
   35.5750   27.5120   31.2010 H   0  0  0  0  0  0  0  0  0  0  0  0
   35.2530   27.1510   32.8840 H   0  0  0  0  0  0  0  0  0  0  0  0
   37.2140   27.8090   32.5680 C   0  0  0  0  0  0  0  0  0  0  0  0
   37.7600   28.5320   33.1380 H   0  0  0  0  0  0  0  0  0  0  0  0
   37.7720   27.8050   31.5730 H   0  0  0  0  0  0  0  0  0  0  0  0
   38.0760   25.0380   34.6900 C   0  0  0  0  0  0  0  0  0  0  0  0
   37.8560   24.3810   33.4960 C   0  0  0  0  0  0  0  0  0  0  0  0
   37.5040   25.3580   32.5540 C   0  0  0  0  0  0  0  0  0  0  0  0
   37.5240   26.5250   33.1960 N   0  0  0  0  0  0  0  0  0  0  0  0
   37.8670   26.3330   34.4760 N   0  0  0  0  0  0  0  0  0  0  0  0
   37.9460   23.2890   33.3330 H   0  0  0  0  0  0  0  0  0  0  0  0
   37.3010   25.0320   31.6010 H   0  0  0  0  0  0  0  0  0  0  0  0
   38.2890   23.7360   38.2010 C   0  0  0  0  0  0  0  0  0  0  0  0
   37.8020   24.4340   37.1070 C   0  0  0  0  0  0  0  0  0  0  0  0
   38.4690   24.3640   35.8960 C   0  0  0  0  0  0  0  0  0  0  0  0
   39.5840   23.5830   35.9020 N   0  0  0  0  0  0  0  0  0  0  0  0
   40.0460   22.9100   36.9660 C   0  0  0  0  0  0  0  0  0  0  0  0
   39.3930   22.9920   38.1130 N   0  0  0  0  0  0  0  0  0  0  0  0
   37.7130   23.8430   39.1050 H   0  0  0  0  0  0  0  0  0  0  0  0
   36.9090   25.0480   37.1390 H   0  0  0  0  0  0  0  0  0  0  0  0
   40.9480   22.3170   36.8520 H   0  0  0  0  0  0  0  0  0  0  0  0
  1  6  1  0  0  0  0
  2  3  1  0  0  0  0
  2  1  1  0  0  0  0
  3  4  1  0  0  0  0
  4  5  1  0  0  0  0
  5 12  1  0  0  0  0
  5 11  1  0  0  0  0
  6 15  1  0  0  0  0
  6  5  1  0  0  0  0
  6 13  1  1  0  0  0
  7  2  1  0  0  0  0
  8  2  1  0  0  0  0
  9  3  1  0  0  0  0
 10  3  1  0  0  0  0
 14 25  2  0  0  0  0
 14 15  1  0  0  0  0
 15 16  2  0  0  0  0
 16 18  1  0  0  0  0
 16 17  1  0  0  0  0
 18 19  1  0  0  0  0
 19 20  1  0  0  0  0
 21 19  1  0  0  0  0
 22 21  2  0  0  0  0
 23 22  1  0  0  0  0
 24 22  1  0  0  0  0
 24 18  2  0  0  0  0
 25 24  1  0  0  0  0
 26  1  1  0  0  0  0
 26 29  1  0  0  0  0
 26 28  1  0  0  0  0
 27 26  1  0  0  0  0
 29 30  1  0  0  0  0
 29 35  1  0  0  0  0
 31 29  1  0  0  0  0
 32 41  1  0  0  0  0
 33 32  1  0  0  0  0
 34 35  1  0  0  0  0
 34 33  2  0  0  0  0
 35 36  1  0  0  0  0
 36 32  2  0  0  0  0
 37 33  1  0  0  0  0
 38 34  1  0  0  0  0
 39 45  1  0  0  0  0
 40 46  1  0  0  0  0
 40 39  2  0  0  0  0
 41 42  2  0  0  0  0
 41 40  1  0  0  0  0
 42 43  1  0  0  0  0
 43 44  2  0  0  0  0
 44 39  1  0  0  0  0
 47 43  1  0  0  0  0
M  END
>  <minimizedAffinity>
-5.81613541

$$$$

 OpenBabel03272508383D

 47 51  0  0  1  0  0  0  0  0999 V2000
   38.4550   25.6610   33.6070 N   0  0  0  0  0  0  0  0  0  0  0  0
   37.2640   26.3060   33.9900 C   0  0  0  0  0  0  0  0  0  0  0  0
   37.4000   27.4960   34.8420 C   0  0  0  0  0  0  0  0  0  0  0  0
   38.4060   27.3640   35.8120 O   0  0  0  0  0  0  0  0  0  0  0  0
   39.5900   27.0960   35.1930 C   0  0  0  0  0  0  0  0  0  0  0  0
   39.5340   25.7610   34.4900 C   0  0  1  0  0  0  0  0  0  0  0  0
   36.8340   25.4870   34.6250 H   0  0  0  0  0  0  0  0  0  0  0  0
   36.4460   26.4190   33.2840 H   0  0  0  0  0  0  0  0  0  0  0  0
   36.5080   27.4470   35.5700 H   0  0  0  0  0  0  0  0  0  0  0  0
   37.1800   28.4900   34.4900 H   0  0  0  0  0  0  0  0  0  0  0  0
   40.3180   26.9040   36.0470 H   0  0  0  0  0  0  0  0  0  0  0  0
   40.0670   27.8980   34.6360 H   0  0  0  0  0  0  0  0  0  0  0  0
   40.4320   25.8560   33.7760 H   0  0  0  0  0  0  0  0  0  0  0  0
   39.0790   23.9420   36.2300 C   0  0  0  0  0  3  0  0  0  0  0  0
   39.8810   24.6100   35.3310 C   0  0  0  0  0  0  0  0  0  0  0  0
   41.1630   24.0420   35.2930 C   0  0  0  0  0  0  0  0  0  0  0  0
   41.8900   24.5010   34.6030 H   0  0  0  0  0  0  0  0  0  0  0  0
   41.6120   22.9650   36.0290 C   0  0  0  0  0  0  0  0  0  0  0  0
   42.8090   22.3520   36.0640 N   0  0  0  0  0  0  0  0  0  0  0  0
   43.6680   22.5990   35.5030 H   0  0  0  0  0  0  0  0  0  0  0  0
   42.6810   21.3780   36.9490 N   0  0  0  0  0  0  0  0  0  0  0  0
   41.4450   21.3520   37.4760 C   0  0  0  0  0  0  0  0  0  0  0  0
   41.0280   20.6780   38.2230 H   0  0  0  0  0  0  0  0  0  0  0  0
   40.7240   22.3730   36.8990 C   0  0  0  0  0  0  0  0  0  0  0  0
   39.4440   22.8630   37.0030 C   0  0  0  0  0  3  0  0  0  0  0  0
   38.7140   25.6200   32.2220 C   0  0  0  0  0  0  0  0  0  0  0  0
   39.4300   24.7720   32.0600 H   0  0  0  0  0  0  0  0  0  0  0  0
   39.3650   26.5210   32.0000 H   0  0  0  0  0  0  0  0  0  0  0  0
   37.6150   25.6290   31.2770 C   0  0  0  0  0  0  0  0  0  0  0  0
   37.7030   25.8030   30.2240 H   0  0  0  0  0  0  0  0  0  0  0  0
   36.9250   26.4740   31.6110 H   0  0  0  0  0  0  0  0  0  0  0  0
   36.2860   22.3060   31.6170 C   0  0  0  0  0  0  0  0  0  0  0  0
   35.1180   23.0310   31.4840 C   0  0  0  0  0  0  0  0  0  0  0  0
   35.4890   24.3750   31.3400 C   0  0  0  0  0  0  0  0  0  0  0  0
   36.8200   24.4060   31.3910 N   0  0  0  0  0  0  0  0  0  0  0  0
   37.2980   23.1660   31.5570 N   0  0  0  0  0  0  0  0  0  0  0  0
   34.0930   22.6130   31.4920 H   0  0  0  0  0  0  0  0  0  0  0  0
   34.7290   25.0580   31.2320 H   0  0  0  0  0  0  0  0  0  0  0  0
   35.3870   18.7260   32.2840 C   0  0  0  0  0  0  0  0  0  0  0  0
   35.2320   20.0980   32.1610 C   0  0  0  0  0  0  0  0  0  0  0  0
   36.3090   20.8790   31.7770 C   0  0  0  0  0  0  0  0  0  0  0  0
   37.4610   20.1910   31.5490 N   0  0  0  0  0  0  0  0  0  0  0  0
   37.6000   18.8620   31.6690 C   0  0  0  0  0  0  0  0  0  0  0  0
   36.5580   18.1370   32.0370 N   0  0  0  0  0  0  0  0  0  0  0  0
   34.5020   18.1920   32.5870 H   0  0  0  0  0  0  0  0  0  0  0  0
   34.2980   20.6130   32.3520 H   0  0  0  0  0  0  0  0  0  0  0  0
   38.5700   18.4220   31.4600 H   0  0  0  0  0  0  0  0  0  0  0  0
  1  2  1  0  0  0  0
  1  6  1  0  0  0  0
  2  7  1  0  0  0  0
  2  3  1  0  0  0  0
  3  9  1  0  0  0  0
  3  4  1  0  0  0  0
  5  4  1  0  0  0  0
  5 11  1  0  0  0  0
  6 13  1  6  0  0  0
  6  5  1  0  0  0  0
  6 15  1  0  0  0  0
  8  2  1  0  0  0  0
 10  3  1  0  0  0  0
 12  5  1  0  0  0  0
 14 25  1  0  0  0  0
 15 14  2  0  0  0  0
 16 15  1  0  0  0  0
 16 18  2  0  0  0  0
 17 16  1  0  0  0  0
 18 19  1  0  0  0  0
 18 24  1  0  0  0  0
 19 21  1  0  0  0  0
 20 19  1  0  0  0  0
 21 22  2  0  0  0  0
 22 23  1  0  0  0  0
 24 25  2  0  0  0  0
 24 22  1  0  0  0  0
 26  1  1  0  0  0  0
 27 26  1  0  0  0  0
 28 26  1  0  0  0  0
 29 35  1  0  0  0  0
 29 31  1  0  0  0  0
 29 26  1  0  0  0  0
 30 29  1  0  0  0  0
 32 41  1  0  0  0  0
 33 37  1  0  0  0  0
 33 32  1  0  0  0  0
 34 35  1  0  0  0  0
 34 33  2  0  0  0  0
 35 36  1  0  0  0  0
 36 32  2  0  0  0  0
 38 34  1  0  0  0  0
 39 45  1  0  0  0  0
 40 39  1  0  0  0  0
 40 46  1  0  0  0  0
 41 40  2  0  0  0  0
 42 43  2  0  0  0  0
 42 41  1  0  0  0  0
 43 44  1  0  0  0  0
 44 39  2  0  0  0  0
 47 43  1  0  0  0  0
M  END
>  <minimizedAffinity>
-5.80744314

$$$$

 OpenBabel03272508383D

 47 51  0  0  1  0  0  0  0  0999 V2000
   39.1260   27.2680   29.9540 N   0  0  0  0  0  0  0  0  0  0  0  0
   38.9620   27.8690   28.6920 C   0  0  0  0  0  0  0  0  0  0  0  0
   37.9380   28.9180   28.5860 C   0  0  0  0  0  0  0  0  0  0  0  0
   36.7780   28.6300   29.3220 O   0  0  0  0  0  0  0  0  0  0  0  0
   37.1150   28.4370   30.6280 C   0  0  0  0  0  0  0  0  0  0  0  0
   37.9970   27.2200   30.7780 C   0  0  1  0  0  0  0  0  0  0  0  0
   38.5800   26.9720   28.1350 H   0  0  0  0  0  0  0  0  0  0  0  0
   39.8250   28.0970   28.0730 H   0  0  0  0  0  0  0  0  0  0  0  0
   37.4710   28.7770   27.5430 H   0  0  0  0  0  0  0  0  0  0  0  0
   38.1860   29.9570   28.4390 H   0  0  0  0  0  0  0  0  0  0  0  0
   36.1440   28.1100   31.1250 H   0  0  0  0  0  0  0  0  0  0  0  0
   37.4130   29.3050   31.2110 H   0  0  0  0  0  0  0  0  0  0  0  0
   38.4430   27.4050   31.8220 H   0  0  0  0  0  0  0  0  0  0  0  0
   35.9500   25.7650   31.2620 C   0  0  0  0  0  3  0  0  0  0  0  0
   37.2730   25.9530   30.9290 C   0  0  0  0  0  0  0  0  0  0  0  0
   37.9150   24.7210   30.7320 C   0  0  0  0  0  0  0  0  0  0  0  0
   38.9820   24.7550   30.4610 H   0  0  0  0  0  0  0  0  0  0  0  0
   37.3490   23.4680   30.8440 C   0  0  0  0  0  0  0  0  0  0  0  0
   37.8740   22.2400   30.6770 N   0  0  0  0  0  0  0  0  0  0  0  0
   38.8680   22.0020   30.4170 H   0  0  0  0  0  0  0  0  0  0  0  0
   36.8810   21.3980   30.9090 N   0  0  0  0  0  0  0  0  0  0  0  0
   35.7460   22.0480   31.2160 C   0  0  0  0  0  0  0  0  0  0  0  0
   34.7630   21.6440   31.4560 H   0  0  0  0  0  0  0  0  0  0  0  0
   36.0160   23.3980   31.1830 C   0  0  0  0  0  0  0  0  0  0  0  0
   35.3060   24.5550   31.3950 C   0  0  0  0  0  3  0  0  0  0  0  0
   40.3930   27.4260   30.5500 C   0  0  0  0  0  0  0  0  0  0  0  0
   40.3150   28.3210   31.2230 H   0  0  0  0  0  0  0  0  0  0  0  0
   41.0770   27.8090   29.7320 H   0  0  0  0  0  0  0  0  0  0  0  0
   41.0470   26.2940   31.1770 C   0  0  0  0  0  0  0  0  0  0  0  0
   42.0920   26.0680   31.1120 H   0  0  0  0  0  0  0  0  0  0  0  0
   40.5630   25.3660   30.7230 H   0  0  0  0  0  0  0  0  0  0  0  0
   39.9980   25.5380   34.5300 C   0  0  0  0  0  0  0  0  0  0  0  0
   40.5940   26.7680   34.7250 C   0  0  0  0  0  0  0  0  0  0  0  0
   41.0610   27.1960   33.4740 C   0  0  0  0  0  0  0  0  0  0  0  0
   40.7390   26.2390   32.6050 N   0  0  0  0  0  0  0  0  0  0  0  0
   40.1020   25.2460   33.2380 N   0  0  0  0  0  0  0  0  0  0  0  0
   40.6780   27.3000   35.6930 H   0  0  0  0  0  0  0  0  0  0  0  0
   41.5400   28.1050   33.4430 H   0  0  0  0  0  0  0  0  0  0  0  0
   37.7880   24.3590   37.3230 C   0  0  0  0  0  0  0  0  0  0  0  0
   38.2760   25.1780   36.3170 C   0  0  0  0  0  0  0  0  0  0  0  0
   39.3890   24.7850   35.5910 C   0  0  0  0  0  0  0  0  0  0  0  0
   39.9120   23.5830   35.9550 N   0  0  0  0  0  0  0  0  0  0  0  0
   39.4310   22.7980   36.9300 C   0  0  0  0  0  0  0  0  0  0  0  0
   38.3680   23.1930   37.6090 N   0  0  0  0  0  0  0  0  0  0  0  0
   36.9210   24.7370   37.8380 H   0  0  0  0  0  0  0  0  0  0  0  0
   37.8330   26.1320   36.0540 H   0  0  0  0  0  0  0  0  0  0  0  0
   39.9330   21.8560   37.1320 H   0  0  0  0  0  0  0  0  0  0  0  0
  1 26  1  0  0  0  0
  1  6  1  0  0  0  0
  2  1  1  0  0  0  0
  3  2  1  0  0  0  0
  3  4  1  0  0  0  0
  4  5  1  0  0  0  0
  5  6  1  0  0  0  0
  5 11  1  0  0  0  0
  5 12  1  0  0  0  0
  6 15  1  0  0  0  0
  6 13  1  1  0  0  0
  7  2  1  0  0  0  0
  8  2  1  0  0  0  0
  9  3  1  0  0  0  0
 10  3  1  0  0  0  0
 14 25  1  0  0  0  0
 15 14  2  0  0  0  0
 16 18  2  0  0  0  0
 16 15  1  0  0  0  0
 17 16  1  0  0  0  0
 18 24  1  0  0  0  0
 19 18  1  0  0  0  0
 19 21  1  0  0  0  0
 20 19  1  0  0  0  0
 21 22  2  0  0  0  0
 22 23  1  0  0  0  0
 24 22  1  0  0  0  0
 24 25  2  0  0  0  0
 26 29  1  0  0  0  0
 26 27  1  0  0  0  0
 28 26  1  0  0  0  0
 29 35  1  0  0  0  0
 30 29  1  0  0  0  0
 31 29  1  0  0  0  0
 32 33  1  0  0  0  0
 32 41  1  0  0  0  0
 33 37  1  0  0  0  0
 34 33  2  0  0  0  0
 35 36  1  0  0  0  0
 35 34  1  0  0  0  0
 36 32  2  0  0  0  0
 38 34  1  0  0  0  0
 39 44  1  0  0  0  0
 39 45  1  0  0  0  0
 40 39  2  0  0  0  0
 41 42  2  0  0  0  0
 41 40  1  0  0  0  0
 42 43  1  0  0  0  0
 43 47  1  0  0  0  0
 43 44  2  0  0  0  0
 46 40  1  0  0  0  0
M  END
>  <minimizedAffinity>
-5.74599838

$$$$

 OpenBabel03272508383D

 47 51  0  0  1  0  0  0  0  0999 V2000
   36.6700   21.8240   33.4230 N   0  0  0  0  0  0  0  0  0  0  0  0
   35.5910   20.9210   33.4240 C   0  0  0  0  0  0  0  0  0  0  0  0
   35.3720   20.1500   32.1920 C   0  0  0  0  0  0  0  0  0  0  0  0
   35.5840   20.9040   31.0270 O   0  0  0  0  0  0  0  0  0  0  0  0
   36.8510   21.4050   31.0440 C   0  0  0  0  0  0  0  0  0  0  0  0
   37.0250   22.3760   32.1880 C   0  0  1  0  0  0  0  0  0  0  0  0
   34.7560   21.6660   33.5050 H   0  0  0  0  0  0  0  0  0  0  0  0
   35.3710   20.3250   34.3050 H   0  0  0  0  0  0  0  0  0  0  0  0
   34.2270   20.0670   32.0900 H   0  0  0  0  0  0  0  0  0  0  0  0
   35.5490   19.0880   32.1330 H   0  0  0  0  0  0  0  0  0  0  0  0
   36.9000   22.0780   30.1280 H   0  0  0  0  0  0  0  0  0  0  0  0
   37.6750   20.7130   30.8890 H   0  0  0  0  0  0  0  0  0  0  0  0
   38.1720   22.4230   32.2570 H   0  0  0  0  0  0  0  0  0  0  0  0
   35.4880   24.2030   31.2700 C   0  0  0  0  0  3  0  0  0  0  0  0
   36.6390   23.7580   31.8820 C   0  0  0  0  0  0  0  0  0  0  0  0
   37.4740   24.8360   32.2120 C   0  0  0  0  0  0  0  0  0  0  0  0
   38.4270   24.5920   32.7090 H   0  0  0  0  0  0  0  0  0  0  0  0
   37.2280   26.1730   31.9790 C   0  0  0  0  0  0  0  0  0  0  0  0
   37.9570   27.2700   32.2550 N   0  0  0  0  0  0  0  0  0  0  0  0
   38.9010   27.3060   32.7240 H   0  0  0  0  0  0  0  0  0  0  0  0
   37.2410   28.2900   31.8130 N   0  0  0  0  0  0  0  0  0  0  0  0
   36.0830   27.8780   31.2680 C   0  0  0  0  0  0  0  0  0  0  0  0
   35.2840   28.4680   30.8200 H   0  0  0  0  0  0  0  0  0  0  0  0
   36.0440   26.5050   31.3600 C   0  0  0  0  0  0  0  0  0  0  0  0
   35.1630   25.5140   31.0000 C   0  0  0  0  0  3  0  0  0  0  0  0
   37.6840   21.5730   34.3680 C   0  0  0  0  0  0  0  0  0  0  0  0
   38.6570   21.6560   33.8170 H   0  0  0  0  0  0  0  0  0  0  0  0
   37.6350   20.4630   34.5910 H   0  0  0  0  0  0  0  0  0  0  0  0
   37.6840   22.2750   35.6370 C   0  0  0  0  0  0  0  0  0  0  0  0
   38.0270   21.8740   36.5680 H   0  0  0  0  0  0  0  0  0  0  0  0
   36.5900   22.5160   35.8580 H   0  0  0  0  0  0  0  0  0  0  0  0
   39.8170   25.0940   34.9860 C   0  0  0  0  0  0  0  0  0  0  0  0
   38.8040   25.7050   35.6980 C   0  0  0  0  0  0  0  0  0  0  0  0
   37.8780   24.7050   36.0260 C   0  0  0  0  0  0  0  0  0  0  0  0
   38.3530   23.5700   35.5160 N   0  0  0  0  0  0  0  0  0  0  0  0
   39.5160   23.8030   34.8930 N   0  0  0  0  0  0  0  0  0  0  0  0
   38.7500   26.7820   35.9510 H   0  0  0  0  0  0  0  0  0  0  0  0
   37.0500   24.9960   36.5600 H   0  0  0  0  0  0  0  0  0  0  0  0
   43.2950   26.2910   34.2510 C   0  0  0  0  0  0  0  0  0  0  0  0
   42.2800   25.5250   34.8020 C   0  0  0  0  0  0  0  0  0  0  0  0
   40.9610   25.8030   34.4840 C   0  0  0  0  0  0  0  0  0  0  0  0
   40.7880   26.8460   33.6270 N   0  0  0  0  0  0  0  0  0  0  0  0
   41.7780   27.5800   33.0980 C   0  0  0  0  0  0  0  0  0  0  0  0
   43.0300   27.2960   33.4160 N   0  0  0  0  0  0  0  0  0  0  0  0
   44.2920   26.0090   34.5490 H   0  0  0  0  0  0  0  0  0  0  0  0
   42.4550   24.7000   35.4830 H   0  0  0  0  0  0  0  0  0  0  0  0
   41.5190   28.3900   32.4230 H   0  0  0  0  0  0  0  0  0  0  0  0
  1  2  1  0  0  0  0
  1 26  1  0  0  0  0
  2  7  1  0  0  0  0
  2  8  1  0  0  0  0
  3  2  1  0  0  0  0
  4  5  1  0  0  0  0
  4  3  1  0  0  0  0
  5  6  1  0  0  0  0
  6 13  1  1  0  0  0
  6  1  1  0  0  0  0
  9  3  1  0  0  0  0
 10  3  1  0  0  0  0
 11  5  1  0  0  0  0
 12  5  1  0  0  0  0
 14 15  1  0  0  0  0
 15  6  1  0  0  0  0
 15 16  2  0  0  0  0
 16 17  1  0  0  0  0
 18 16  1  0  0  0  0
 18 19  1  0  0  0  0
 19 20  1  0  0  0  0
 21 19  1  0  0  0  0
 22 24  1  0  0  0  0
 22 21  2  0  0  0  0
 23 22  1  0  0  0  0
 24 18  2  0  0  0  0
 25 14  2  0  0  0  0
 25 24  1  0  0  0  0
 26 28  1  0  0  0  0
 26 29  1  0  0  0  0
 27 26  1  0  0  0  0
 29 31  1  0  0  0  0
 29 30  1  0  0  0  0
 32 33  1  0  0  0  0
 33 37  1  0  0  0  0
 33 34  2  0  0  0  0
 34 38  1  0  0  0  0
 35 29  1  0  0  0  0
 35 34  1  0  0  0  0
 36 32  2  0  0  0  0
 36 35  1  0  0  0  0
 39 45  1  0  0  0  0
 39 40  1  0  0  0  0
 40 46  1  0  0  0  0
 41 40  2  0  0  0  0
 41 32  1  0  0  0  0
 42 41  1  0  0  0  0
 43 44  1  0  0  0  0
 43 42  2  0  0  0  0
 44 39  2  0  0  0  0
 47 43  1  0  0  0  0
M  END
>  <minimizedAffinity>
-5.71919966

$$$$

 OpenBabel03272508383D

 47 51  0  0  1  0  0  0  0  0999 V2000
   36.7320   26.8120   32.9750 N   0  0  0  0  0  0  0  0  0  0  0  0
   36.4330   26.0720   31.8160 C   0  0  0  0  0  0  0  0  0  0  0  0
   36.7710   26.6950   30.5280 C   0  0  0  0  0  0  0  0  0  0  0  0
   36.5140   28.0750   30.5010 O   0  0  0  0  0  0  0  0  0  0  0  0
   37.2080   28.6780   31.5070 C   0  0  0  0  0  0  0  0  0  0  0  0
   36.7140   28.2040   32.8540 C   0  0  1  0  0  0  0  0  0  0  0  0
   35.3140   26.0760   31.9060 H   0  0  0  0  0  0  0  0  0  0  0  0
   36.5960   24.9990   31.7890 H   0  0  0  0  0  0  0  0  0  0  0  0
   35.9210   26.3880   29.8140 H   0  0  0  0  0  0  0  0  0  0  0  0
   37.5630   26.3270   29.8960 H   0  0  0  0  0  0  0  0  0  0  0  0
   36.8630   29.7620   31.4770 H   0  0  0  0  0  0  0  0  0  0  0  0
   38.2870   28.7560   31.4060 H   0  0  0  0  0  0  0  0  0  0  0  0
   37.5890   28.5250   33.5280 H   0  0  0  0  0  0  0  0  0  0  0  0
   35.5420   29.7900   34.4830 C   0  0  0  0  0  3  0  0  0  0  0  0
   35.5720   28.9560   33.3870 C   0  0  0  0  0  0  0  0  0  0  0  0
   34.3090   28.8870   32.7800 C   0  0  0  0  0  0  0  0  0  0  0  0
   34.2200   28.2440   31.8900 H   0  0  0  0  0  0  0  0  0  0  0  0
   33.1630   29.5420   33.1820 C   0  0  0  0  0  0  0  0  0  0  0  0
   31.9180   29.5410   32.6730 N   0  0  0  0  0  0  0  0  0  0  0  0
   31.5750   29.0100   31.8290 H   0  0  0  0  0  0  0  0  0  0  0  0
   31.2170   30.3450   33.4560 N   0  0  0  0  0  0  0  0  0  0  0  0
   31.9740   30.8540   34.4420 C   0  0  0  0  0  0  0  0  0  0  0  0
   31.6960   31.5410   35.2400 H   0  0  0  0  0  0  0  0  0  0  0  0
   33.2470   30.3510   34.2920 C   0  0  0  0  0  0  0  0  0  0  0  0
   34.4460   30.4800   34.9520 C   0  0  0  0  0  3  0  0  0  0  0  0
   37.6560   26.2210   33.8600 C   0  0  0  0  0  0  0  0  0  0  0  0
   38.6630   26.6330   33.5850 H   0  0  0  0  0  0  0  0  0  0  0  0
   37.7510   25.1390   33.5360 H   0  0  0  0  0  0  0  0  0  0  0  0
   37.4040   26.2310   35.2880 C   0  0  0  0  0  0  0  0  0  0  0  0
   36.4380   26.2580   35.7470 H   0  0  0  0  0  0  0  0  0  0  0  0
   37.8940   27.1830   35.6820 H   0  0  0  0  0  0  0  0  0  0  0  0
   39.5330   23.5320   36.3390 C   0  0  0  0  0  0  0  0  0  0  0  0
   38.6650   23.5990   37.4100 C   0  0  0  0  0  0  0  0  0  0  0  0
   37.7580   24.6310   37.1340 C   0  0  0  0  0  0  0  0  0  0  0  0
   38.1030   25.1290   35.9480 N   0  0  0  0  0  0  0  0  0  0  0  0
   39.1680   24.4700   35.4710 N   0  0  0  0  0  0  0  0  0  0  0  0
   38.6950   22.9510   38.3080 H   0  0  0  0  0  0  0  0  0  0  0  0
   37.0360   24.8180   37.8420 H   0  0  0  0  0  0  0  0  0  0  0  0
   42.2080   21.1910   35.1410 C   0  0  0  0  0  0  0  0  0  0  0  0
   41.1800   22.1190   35.0840 C   0  0  0  0  0  0  0  0  0  0  0  0
   40.6040   22.5790   36.2570 C   0  0  0  0  0  0  0  0  0  0  0  0
   41.1290   22.0500   37.3960 N   0  0  0  0  0  0  0  0  0  0  0  0
   42.1260   21.1540   37.4400 C   0  0  0  0  0  0  0  0  0  0  0  0
   42.6600   20.7290   36.3070 N   0  0  0  0  0  0  0  0  0  0  0  0
   42.6010   20.8860   34.1850 H   0  0  0  0  0  0  0  0  0  0  0  0
   40.7860   22.5190   34.1560 H   0  0  0  0  0  0  0  0  0  0  0  0
   42.4640   20.8020   38.4100 H   0  0  0  0  0  0  0  0  0  0  0  0
  1 26  1  0  0  0  0
  2  7  1  0  0  0  0
  2  1  1  0  0  0  0
  3  2  1  0  0  0  0
  4  3  1  0  0  0  0
  4  5  1  0  0  0  0
  5  6  1  0  0  0  0
  6  1  1  0  0  0  0
  6 15  1  0  0  0  0
  6 13  1  1  0  0  0
  8  2  1  0  0  0  0
  9  3  1  0  0  0  0
 10  3  1  0  0  0  0
 11  5  1  0  0  0  0
 12  5  1  0  0  0  0
 14 25  1  0  0  0  0
 15 14  2  0  0  0  0
 16 18  2  0  0  0  0
 16 15  1  0  0  0  0
 17 16  1  0  0  0  0
 18 24  1  0  0  0  0
 19 18  1  0  0  0  0
 19 21  1  0  0  0  0
 20 19  1  0  0  0  0
 21 22  2  0  0  0  0
 22 23  1  0  0  0  0
 24 22  1  0  0  0  0
 24 25  2  0  0  0  0
 26 29  1  0  0  0  0
 27 26  1  0  0  0  0
 28 26  1  0  0  0  0
 29 31  1  0  0  0  0
 29 30  1  0  0  0  0
 29 35  1  0  0  0  0
 32 33  1  0  0  0  0
 33 37  1  0  0  0  0
 34 33  2  0  0  0  0
 34 38  1  0  0  0  0
 35 34  1  0  0  0  0
 36 35  1  0  0  0  0
 36 32  2  0  0  0  0
 39 44  1  0  0  0  0
 40 39  2  0  0  0  0
 40 41  1  0  0  0  0
 41 32  1  0  0  0  0
 41 42  2  0  0  0  0
 42 43  1  0  0  0  0
 43 47  1  0  0  0  0
 44 43  2  0  0  0  0
 45 39  1  0  0  0  0
 46 40  1  0  0  0  0
M  END
>  <minimizedAffinity>
-5.68362427

$$$$

 OpenBabel03272508383D

 47 51  0  0  1  0  0  0  0  0999 V2000
   38.7850   26.6850   33.1790 N   0  0  0  0  0  0  0  0  0  0  0  0
   39.6890   27.0970   34.1760 C   0  0  0  0  0  0  0  0  0  0  0  0
   39.1850   27.1280   35.5560 C   0  0  0  0  0  0  0  0  0  0  0  0
   37.8640   27.5940   35.6470 O   0  0  0  0  0  0  0  0  0  0  0  0
   37.0600   26.8100   34.8740 C   0  0  0  0  0  0  0  0  0  0  0  0
   37.4310   26.9400   33.4160 C   0  0  1  0  0  0  0  0  0  0  0  0
   39.8220   28.1610   33.8430 H   0  0  0  0  0  0  0  0  0  0  0  0
   40.7280   26.7800   34.1430 H   0  0  0  0  0  0  0  0  0  0  0  0
   39.6830   28.0490   36.0360 H   0  0  0  0  0  0  0  0  0  0  0  0
   39.5190   26.4360   36.3110 H   0  0  0  0  0  0  0  0  0  0  0  0
   36.0420   27.3150   34.9240 H   0  0  0  0  0  0  0  0  0  0  0  0
   36.8540   25.7990   35.2160 H   0  0  0  0  0  0  0  0  0  0  0  0
   36.9220   26.0050   32.9810 H   0  0  0  0  0  0  0  0  0  0  0  0
   37.0750   28.5620   31.4700 C   0  0  0  0  0  3  0  0  0  0  0  0
   36.7770   28.0500   32.7130 C   0  0  0  0  0  0  0  0  0  0  0  0
   35.7050   28.7460   33.2930 C   0  0  0  0  0  0  0  0  0  0  0  0
   35.3830   28.4170   34.2940 H   0  0  0  0  0  0  0  0  0  0  0  0
   35.0100   29.8010   32.7390 C   0  0  0  0  0  0  0  0  0  0  0  0
   33.9790   30.5260   33.2090 N   0  0  0  0  0  0  0  0  0  0  0  0
   33.4900   30.4130   34.1370 H   0  0  0  0  0  0  0  0  0  0  0  0
   33.7100   31.4100   32.2630 N   0  0  0  0  0  0  0  0  0  0  0  0
   34.5340   31.2700   31.2110 C   0  0  0  0  0  0  0  0  0  0  0  0
   34.5690   31.8390   30.2820 H   0  0  0  0  0  0  0  0  0  0  0  0
   35.3930   30.2310   31.4890 C   0  0  0  0  0  0  0  0  0  0  0  0
   36.4350   29.6080   30.8440 C   0  0  0  0  0  3  0  0  0  0  0  0
   39.1410   25.5200   32.4710 C   0  0  0  0  0  0  0  0  0  0  0  0
   39.0070   24.6630   33.1840 H   0  0  0  0  0  0  0  0  0  0  0  0
   40.2680   25.5550   32.3560 H   0  0  0  0  0  0  0  0  0  0  0  0
   38.5750   25.2650   31.1600 C   0  0  0  0  0  0  0  0  0  0  0  0
   39.1350   25.0570   30.2720 H   0  0  0  0  0  0  0  0  0  0  0  0
   38.0070   26.2140   30.8780 H   0  0  0  0  0  0  0  0  0  0  0  0
   36.6430   22.2490   31.4570 C   0  0  0  0  0  0  0  0  0  0  0  0
   35.6440   23.1600   31.1730 C   0  0  0  0  0  0  0  0  0  0  0  0
   36.2640   24.4090   31.0290 C   0  0  0  0  0  0  0  0  0  0  0  0
   37.5660   24.2090   31.2240 N   0  0  0  0  0  0  0  0  0  0  0  0
   37.7930   22.9140   31.4810 N   0  0  0  0  0  0  0  0  0  0  0  0
   34.5650   22.9280   31.0820 H   0  0  0  0  0  0  0  0  0  0  0  0
   35.6530   25.2080   30.8160 H   0  0  0  0  0  0  0  0  0  0  0  0
   36.9690   18.5280   31.8020 C   0  0  0  0  0  0  0  0  0  0  0  0
   37.3420   19.8450   31.5860 C   0  0  0  0  0  0  0  0  0  0  0  0
   36.3920   20.8500   31.6630 C   0  0  0  0  0  0  0  0  0  0  0  0
   35.1330   20.4230   31.9540 N   0  0  0  0  0  0  0  0  0  0  0  0
   34.7820   19.1460   32.1630 C   0  0  0  0  0  0  0  0  0  0  0  0
   35.7070   18.2040   32.0850 N   0  0  0  0  0  0  0  0  0  0  0  0
   37.7680   17.8090   31.7250 H   0  0  0  0  0  0  0  0  0  0  0  0
   38.3570   20.1490   31.3550 H   0  0  0  0  0  0  0  0  0  0  0  0
   33.7440   18.9240   32.3900 H   0  0  0  0  0  0  0  0  0  0  0  0
  1  6  1  0  0  0  0
  1  2  1  0  0  0  0
  2  3  1  0  0  0  0
  3  4  1  0  0  0  0
  3  9  1  0  0  0  0
  3 10  1  0  0  0  0
  5 11  1  0  0  0  0
  5 12  1  0  0  0  0
  5  4  1  0  0  0  0
  6 13  1  6  0  0  0
  6  5  1  0  0  0  0
  7  2  1  0  0  0  0
  8  2  1  0  0  0  0
 14 15  1  0  0  0  0
 15 16  2  0  0  0  0
 15  6  1  0  0  0  0
 16 17  1  0  0  0  0
 18 19  1  0  0  0  0
 18 16  1  0  0  0  0
 19 20  1  0  0  0  0
 21 19  1  0  0  0  0
 22 24  1  0  0  0  0
 22 21  2  0  0  0  0
 23 22  1  0  0  0  0
 24 18  2  0  0  0  0
 25 14  2  0  0  0  0
 25 24  1  0  0  0  0
 26  1  1  0  0  0  0
 26 27  1  0  0  0  0
 28 26  1  0  0  0  0
 29 35  1  0  0  0  0
 29 26  1  0  0  0  0
 30 29  1  0  0  0  0
 31 29  1  0  0  0  0
 32 36  2  0  0  0  0
 32 41  1  0  0  0  0
 33 32  1  0  0  0  0
 34 33  2  0  0  0  0
 34 35  1  0  0  0  0
 35 36  1  0  0  0  0
 37 33  1  0  0  0  0
 38 34  1  0  0  0  0
 39 44  1  0  0  0  0
 40 41  1  0  0  0  0
 40 39  2  0  0  0  0
 41 42  2  0  0  0  0
 42 43  1  0  0  0  0
 43 47  1  0  0  0  0
 44 43  2  0  0  0  0
 45 39  1  0  0  0  0
 46 40  1  0  0  0  0
M  END
>  <minimizedAffinity>
-5.66220617

$$$$

 OpenBabel03272508383D

 47 51  0  0  1  0  0  0  0  0999 V2000
   38.5280   25.8870   32.7260 N   0  0  0  0  0  0  0  0  0  0  0  0
   39.1580   25.5270   31.5200 C   0  0  0  0  0  0  0  0  0  0  0  0
   38.5500   24.4270   30.7580 C   0  0  0  0  0  0  0  0  0  0  0  0
   38.0750   23.3900   31.5760 O   0  0  0  0  0  0  0  0  0  0  0  0
   37.1730   23.8980   32.4620 C   0  0  0  0  0  0  0  0  0  0  0  0
   37.8400   24.8750   33.4010 C   0  0  1  0  0  0  0  0  0  0  0  0
   40.1220   25.1440   31.9500 H   0  0  0  0  0  0  0  0  0  0  0  0
   39.5590   26.2890   30.8590 H   0  0  0  0  0  0  0  0  0  0  0  0
   39.4380   23.8460   30.3100 H   0  0  0  0  0  0  0  0  0  0  0  0
   38.0520   24.5810   29.8150 H   0  0  0  0  0  0  0  0  0  0  0  0
   36.9220   23.0210   33.1430 H   0  0  0  0  0  0  0  0  0  0  0  0
   36.2020   24.2030   32.0820 H   0  0  0  0  0  0  0  0  0  0  0  0
   36.9230   25.4310   33.8180 H   0  0  0  0  0  0  0  0  0  0  0  0
   38.0850   24.4340   35.9090 C   0  0  0  0  0  3  0  0  0  0  0  0
   38.4460   24.2660   34.5910 C   0  0  0  0  0  0  0  0  0  0  0  0
   39.5350   23.3880   34.4820 C   0  0  0  0  0  0  0  0  0  0  0  0
   39.9080   23.1820   33.4660 H   0  0  0  0  0  0  0  0  0  0  0  0
   40.1900   22.7540   35.5180 C   0  0  0  0  0  0  0  0  0  0  0  0
   41.2330   21.9030   35.5180 N   0  0  0  0  0  0  0  0  0  0  0  0
   41.7660   21.5490   34.6790 H   0  0  0  0  0  0  0  0  0  0  0  0
   41.4460   21.6070   36.7890 N   0  0  0  0  0  0  0  0  0  0  0  0
   40.5760   22.2390   37.5940 C   0  0  0  0  0  0  0  0  0  0  0  0
   40.4900   22.2040   38.6790 H   0  0  0  0  0  0  0  0  0  0  0  0
   39.7440   22.9950   36.7970 C   0  0  0  0  0  0  0  0  0  0  0  0
   38.6810   23.8420   37.0000 C   0  0  0  0  0  3  0  0  0  0  0  0
   38.0300   27.2040   32.7900 C   0  0  0  0  0  0  0  0  0  0  0  0
   38.8810   27.8780   32.5060 H   0  0  0  0  0  0  0  0  0  0  0  0
   37.9040   27.4370   33.8920 H   0  0  0  0  0  0  0  0  0  0  0  0
   36.7860   27.5430   32.1260 C   0  0  0  0  0  0  0  0  0  0  0  0
   35.9530   26.8830   31.9950 H   0  0  0  0  0  0  0  0  0  0  0  0
   37.0690   27.8020   31.0510 H   0  0  0  0  0  0  0  0  0  0  0  0
   35.2420   30.1470   34.0620 C   0  0  0  0  0  0  0  0  0  0  0  0
   35.5520   30.8420   32.9100 C   0  0  0  0  0  0  0  0  0  0  0  0
   36.1740   29.9330   32.0430 C   0  0  0  0  0  0  0  0  0  0  0  0
   36.2130   28.7660   32.6860 N   0  0  0  0  0  0  0  0  0  0  0  0
   35.6540   28.8950   33.8960 N   0  0  0  0  0  0  0  0  0  0  0  0
   35.3420   31.9130   32.7240 H   0  0  0  0  0  0  0  0  0  0  0  0
   36.4760   30.2940   31.1300 H   0  0  0  0  0  0  0  0  0  0  0  0
   32.7510   31.1540   36.6800 C   0  0  0  0  0  0  0  0  0  0  0  0
   33.2740   30.5010   35.5750 C   0  0  0  0  0  0  0  0  0  0  0  0
   34.5800   30.7490   35.1860 C   0  0  0  0  0  0  0  0  0  0  0  0
   35.2460   31.6480   35.9620 N   0  0  0  0  0  0  0  0  0  0  0  0
   34.7300   32.2730   37.0310 C   0  0  0  0  0  0  0  0  0  0  0  0
   33.4810   32.0200   37.3840 N   0  0  0  0  0  0  0  0  0  0  0  0
   31.7290   30.9050   36.9160 H   0  0  0  0  0  0  0  0  0  0  0  0
   32.7130   29.7900   34.9790 H   0  0  0  0  0  0  0  0  0  0  0  0
   35.3580   32.9710   37.5760 H   0  0  0  0  0  0  0  0  0  0  0  0
  1 26  1  0  0  0  0
  1  6  1  0  0  0  0
  2  7  1  0  0  0  0
  2  1  1  0  0  0  0
  3  2  1  0  0  0  0
  3  4  1  0  0  0  0
  4  5  1  0  0  0  0
  5 11  1  0  0  0  0
  5  6  1  0  0  0  0
  6 13  1  1  0  0  0
  6 15  1  0  0  0  0
  8  2  1  0  0  0  0
  9  3  1  0  0  0  0
 10  3  1  0  0  0  0
 12  5  1  0  0  0  0
 14 25  1  0  0  0  0
 15 14  2  0  0  0  0
 16 15  1  0  0  0  0
 16 18  2  0  0  0  0
 17 16  1  0  0  0  0
 18 19  1  0  0  0  0
 18 24  1  0  0  0  0
 19 21  1  0  0  0  0
 20 19  1  0  0  0  0
 21 22  2  0  0  0  0
 22 23  1  0  0  0  0
 24 25  2  0  0  0  0
 24 22  1  0  0  0  0
 26 28  1  0  0  0  0
 27 26  1  0  0  0  0
 29 35  1  0  0  0  0
 29 26  1  0  0  0  0
 30 29  1  0  0  0  0
 31 29  1  0  0  0  0
 32 41  1  0  0  0  0
 33 32  1  0  0  0  0
 34 35  1  0  0  0  0
 34 33  2  0  0  0  0
 35 36  1  0  0  0  0
 36 32  2  0  0  0  0
 37 33  1  0  0  0  0
 38 34  1  0  0  0  0
 39 45  1  0  0  0  0
 39 44  1  0  0  0  0
 40 39  2  0  0  0  0
 41 40  1  0  0  0  0
 41 42  2  0  0  0  0
 42 43  1  0  0  0  0
 43 44  2  0  0  0  0
 43 47  1  0  0  0  0
 46 40  1  0  0  0  0
M  END
>  <minimizedAffinity>
-5.6524334

$$$$
