
 OpenBabel03272501413D

 48 53  0  0  1  0  0  0  0  0999 V2000
   35.3250   24.7170   31.0200 C   0  0  0  0  0  0  0  0  0  0  0  0
   36.4790   24.0390   31.3530 C   0  0  0  0  0  0  0  0  0  0  0  0
   37.5870   24.6740   31.9260 C   0  0  0  0  0  0  0  0  0  0  0  0
   37.4870   25.9600   32.1440 N   0  0  0  0  0  0  0  0  0  0  0  0
   36.3370   26.6230   31.8090 C   0  0  0  0  0  0  0  0  0  0  0  0
   35.2860   26.0210   31.2620 N   0  0  0  0  0  0  0  0  0  0  0  0
   34.4870   24.2000   30.5780 H   0  0  0  0  0  0  0  0  0  0  0  0
   36.4710   22.9670   31.1390 H   0  0  0  0  0  0  0  0  0  0  0  0
   36.2020   28.0540   32.0630 C   0  0  0  0  0  0  0  0  0  0  0  0
   36.2930   29.1420   31.2320 C   0  0  0  0  0  0  0  0  0  0  0  0
   36.1060   30.3880   31.6920 C   0  0  0  0  0  0  0  0  0  0  0  0
   35.8210   30.4880   33.0530 C   0  0  0  0  0  0  0  0  0  0  0  0
   35.8300   28.7450   33.6430 S   0  0  0  0  0  0  0  0  0  0  0  0
   36.5250   28.9160   30.1810 H   0  0  0  0  0  0  0  0  0  0  0  0
   36.1590   31.2910   31.1070 H   0  0  0  0  0  0  0  0  0  0  0  0
   35.5840   32.8850   33.4200 C   0  0  0  0  0  3  0  0  0  0  0  0
   35.5570   31.6120   33.9400 C   0  0  0  0  0  0  0  0  0  0  0  0
   35.3040   31.2320   35.2360 C   0  0  0  0  0  0  0  0  0  0  0  0
   35.2940   30.2310   35.5910 H   0  0  0  0  0  0  0  0  0  0  0  0
   35.0430   32.2700   36.1350 C   0  0  0  0  0  0  0  0  0  0  0  0
   34.7560   32.3420   37.4470 N   0  0  0  0  0  0  0  0  0  0  0  0
   34.6870   31.4830   38.0390 H   0  0  0  0  0  0  0  0  0  0  0  0
   34.5980   33.6080   37.7980 N   0  0  0  0  0  0  0  0  0  0  0  0
   34.7730   34.4280   36.7260 C   0  0  0  0  0  0  0  0  0  0  0  0
   34.7060   35.5120   36.7090 H   0  0  0  0  0  0  0  0  0  0  0  0
   35.0530   33.5840   35.6830 C   0  0  0  0  0  0  0  0  0  0  0  0
   35.3190   33.8810   34.3470 C   0  0  0  0  0  3  0  0  0  0  0  0
   38.7430   23.8480   32.1180 C   0  0  1  0  0  0  0  0  0  0  0  0
   39.5430   24.5900   31.7050 H   0  0  0  0  0  0  0  0  0  0  0  0
   39.1510   23.5690   33.5480 C   0  0  2  0  0  0  0  0  0  0  0  0
   38.6040   22.1840   33.8970 C   0  0  0  0  0  0  0  0  0  0  0  0
   38.1540   23.4280   34.5800 C   0  0  1  0  0  0  0  0  0  0  0  0
   40.2140   23.7690   33.7330 H   0  0  0  0  0  0  0  0  0  0  0  0
   37.8390   21.6650   33.3320 H   0  0  0  0  0  0  0  0  0  0  0  0
   39.3490   21.5360   34.3980 H   0  0  0  0  0  0  0  0  0  0  0  0
   37.1820   23.9090   34.3430 H   0  0  0  0  0  0  0  0  0  0  0  0
   38.4180   23.4350   36.0270 C   0  0  0  0  0  0  0  0  0  0  0  0
   39.5330   22.7790   36.4800 C   0  0  0  0  0  0  0  0  0  0  0  0
   39.7670   22.8240   37.8290 C   0  0  0  0  0  0  0  0  0  0  0  0
   38.9480   23.4850   38.7260 C   0  0  0  0  0  0  0  0  0  0  0  0
   37.8260   24.1380   38.2260 C   0  0  0  0  0  0  0  0  0  0  0  0
   37.5890   24.0990   36.9040 N   0  0  0  0  0  0  0  0  0  0  0  0
   40.2270   22.2390   35.8530 H   0  0  0  0  0  0  0  0  0  0  0  0
   40.6510   22.3090   38.2250 H   0  0  0  0  0  0  0  0  0  0  0  0
   39.1140   23.5310   39.7800 H   0  0  0  0  0  0  0  0  0  0  0  0
   37.1120   24.6860   38.8220 H   0  0  0  0  0  0  0  0  0  0  0  0
   39.0510   22.8850   31.2880 O   0  0  0  0  0  0  0  0  0  0  0  0
   38.4050   22.1350   31.2770 H   0  0  0  0  0  0  0  0  0  0  0  0
  1  6  2  0  0  0  0
  1  2  1  0  0  0  0
  2  3  2  0  0  0  0
  3 28  1  0  0  0  0
  3  4  1  0  0  0  0
  5  9  1  0  0  0  0
  5  4  2  0  0  0  0
  6  5  1  0  0  0  0
  7  1  1  0  0  0  0
  8  2  1  0  0  0  0
  9 13  1  0  0  0  0
 10 11  1  0  0  0  0
 10  9  2  0  0  0  0
 11 12  2  0  0  0  0
 12 13  1  0  0  0  0
 12 17  1  0  0  0  0
 14 10  1  0  0  0  0
 15 11  1  0  0  0  0
 16 17  2  0  0  0  0
 16 27  1  0  0  0  0
 17 18  1  0  0  0  0
 18 19  1  0  0  0  0
 18 20  2  0  0  0  0
 20 21  1  0  0  0  0
 21 23  1  0  0  0  0
 21 22  1  0  0  0  0
 24 23  2  0  0  0  0
 25 24  1  0  0  0  0
 26 20  1  0  0  0  0
 26 24  1  0  0  0  0
 27 26  2  0  0  0  0
 28 29  1  6  0  0  0
 28 30  1  0  0  0  0
 30 33  1  1  0  0  0
 30 31  1  0  0  0  0
 30 32  1  0  0  0  0
 31 35  1  0  0  0  0
 31 32  1  0  0  0  0
 32 36  1  6  0  0  0
 32 37  1  0  0  0  0
 34 31  1  0  0  0  0
 37 38  2  0  0  0  0
 37 42  1  0  0  0  0
 38 39  1  0  0  0  0
 39 44  1  0  0  0  0
 39 40  2  0  0  0  0
 40 45  1  0  0  0  0
 41 40  1  0  0  0  0
 41 46  1  0  0  0  0
 42 41  2  0  0  0  0
 43 38  1  0  0  0  0
 47 28  1  0  0  0  0
 48 47  1  0  0  0  0
M  END
>  <minimizedAffinity>
-6.96077776

$$$$

 OpenBabel03272501413D

 48 53  0  0  1  0  0  0  0  0999 V2000
   36.4020   29.0440   30.6830 C   0  0  0  0  0  0  0  0  0  0  0  0
   37.2630   28.0840   31.1740 C   0  0  0  0  0  0  0  0  0  0  0  0
   37.2980   27.7240   32.5260 C   0  0  0  0  0  0  0  0  0  0  0  0
   36.4670   28.3390   33.3260 N   0  0  0  0  0  0  0  0  0  0  0  0
   35.6160   29.2910   32.8290 C   0  0  0  0  0  0  0  0  0  0  0  0
   35.5850   29.6350   31.5460 N   0  0  0  0  0  0  0  0  0  0  0  0
   36.3990   29.3000   29.6350 H   0  0  0  0  0  0  0  0  0  0  0  0
   37.9190   27.6210   30.4330 H   0  0  0  0  0  0  0  0  0  0  0  0
   34.6690   29.9720   33.7050 C   0  0  0  0  0  0  0  0  0  0  0  0
   33.4280   29.6100   34.1670 C   0  0  0  0  0  0  0  0  0  0  0  0
   32.7360   30.4020   34.9980 C   0  0  0  0  0  0  0  0  0  0  0  0
   33.3620   31.5980   35.3470 C   0  0  0  0  0  0  0  0  0  0  0  0
   34.9660   31.5440   34.4470 S   0  0  0  0  0  0  0  0  0  0  0  0
   33.0560   28.6380   33.8100 H   0  0  0  0  0  0  0  0  0  0  0  0
   31.7600   30.1900   35.4050 H   0  0  0  0  0  0  0  0  0  0  0  0
   31.7670   33.3280   35.9800 C   0  0  0  0  0  3  0  0  0  0  0  0
   32.9790   32.7160   36.1970 C   0  0  0  0  0  0  0  0  0  0  0  0
   33.9240   33.0230   37.1470 C   0  0  0  0  0  0  0  0  0  0  0  0
   34.8500   32.5190   37.2760 H   0  0  0  0  0  0  0  0  0  0  0  0
   33.6110   34.0900   37.9940 C   0  0  0  0  0  0  0  0  0  0  0  0
   34.2280   34.7000   39.0220 N   0  0  0  0  0  0  0  0  0  0  0  0
   35.1690   34.3910   39.3550 H   0  0  0  0  0  0  0  0  0  0  0  0
   33.4660   35.6820   39.4780 N   0  0  0  0  0  0  0  0  0  0  0  0
   32.3080   35.7590   38.7660 C   0  0  0  0  0  0  0  0  0  0  0  0
   31.4940   36.4620   38.9100 H   0  0  0  0  0  0  0  0  0  0  0  0
   32.4030   34.7580   37.8350 C   0  0  0  0  0  0  0  0  0  0  0  0
   31.4990   34.3790   36.8430 C   0  0  0  0  0  3  0  0  0  0  0  0
   38.3190   26.7850   32.8900 C   0  0  1  0  0  0  0  0  0  0  0  0
   39.2390   27.4930   32.7770 H   0  0  0  0  0  0  0  0  0  0  0  0
   38.3370   26.3230   34.3310 C   0  0  2  0  0  0  0  0  0  0  0  0
   39.7380   26.6180   34.8690 C   0  0  0  0  0  0  0  0  0  0  0  0
   39.1940   25.2380   34.7410 C   0  0  1  0  0  0  0  0  0  0  0  0
   37.4740   26.6860   34.9030 H   0  0  0  0  0  0  0  0  0  0  0  0
   40.6010   26.8330   34.2500 H   0  0  0  0  0  0  0  0  0  0  0  0
   39.7270   27.1110   35.8600 H   0  0  0  0  0  0  0  0  0  0  0  0
   39.4980   24.5610   33.9160 H   0  0  0  0  0  0  0  0  0  0  0  0
   39.1050   24.5200   36.0210 C   0  0  0  0  0  0  0  0  0  0  0  0
   38.1210   24.8910   36.9000 C   0  0  0  0  0  0  0  0  0  0  0  0
   38.0460   24.1880   38.0740 C   0  0  0  0  0  0  0  0  0  0  0  0
   38.8980   23.1480   38.3970 C   0  0  0  0  0  0  0  0  0  0  0  0
   39.8830   22.8020   37.4790 C   0  0  0  0  0  0  0  0  0  0  0  0
   39.9640   23.4870   36.3250 N   0  0  0  0  0  0  0  0  0  0  0  0
   37.4120   25.6890   36.7310 H   0  0  0  0  0  0  0  0  0  0  0  0
   37.2690   24.4600   38.7990 H   0  0  0  0  0  0  0  0  0  0  0  0
   38.8550   22.5890   39.3060 H   0  0  0  0  0  0  0  0  0  0  0  0
   40.6070   22.0120   37.6140 H   0  0  0  0  0  0  0  0  0  0  0  0
   38.7690   25.8910   32.0480 O   0  0  0  0  0  0  0  0  0  0  0  0
   38.1030   25.2050   31.7880 H   0  0  0  0  0  0  0  0  0  0  0  0
  1  2  2  0  0  0  0
  1  6  1  0  0  0  0
  2  3  1  0  0  0  0
  3 28  1  0  0  0  0
  3  4  2  0  0  0  0
  5  4  1  0  0  0  0
  5  9  1  0  0  0  0
  6  5  2  0  0  0  0
  7  1  1  0  0  0  0
  8  2  1  0  0  0  0
  9 10  2  0  0  0  0
  9 13  1  0  0  0  0
 10 11  1  0  0  0  0
 11 12  2  0  0  0  0
 11 15  1  0  0  0  0
 12 17  1  0  0  0  0
 13 12  1  0  0  0  0
 14 10  1  0  0  0  0
 16 17  2  0  0  0  0
 16 27  1  0  0  0  0
 17 18  1  0  0  0  0
 18 19  1  0  0  0  0
 18 20  2  0  0  0  0
 20 21  1  0  0  0  0
 21 22  1  0  0  0  0
 21 23  1  0  0  0  0
 24 25  1  0  0  0  0
 24 23  2  0  0  0  0
 26 20  1  0  0  0  0
 26 24  1  0  0  0  0
 27 26  2  0  0  0  0
 28 29  1  1  0  0  0
 28 30  1  0  0  0  0
 30 32  1  0  0  0  0
 30 31  1  0  0  0  0
 30 33  1  1  0  0  0
 31 35  1  0  0  0  0
 32 36  1  6  0  0  0
 32 31  1  0  0  0  0
 32 37  1  0  0  0  0
 34 31  1  0  0  0  0
 37 42  2  0  0  0  0
 37 38  1  0  0  0  0
 38 39  2  0  0  0  0
 39 40  1  0  0  0  0
 39 44  1  0  0  0  0
 40 45  1  0  0  0  0
 41 46  1  0  0  0  0
 41 40  2  0  0  0  0
 42 41  1  0  0  0  0
 43 38  1  0  0  0  0
 47 28  1  0  0  0  0
 48 47  1  0  0  0  0
M  END
>  <minimizedAffinity>
-6.80679417

$$$$

 OpenBabel03272501413D

 48 53  0  0  1  0  0  0  0  0999 V2000
   39.6780   25.9070   30.0760 C   0  0  0  0  0  0  0  0  0  0  0  0
   39.4590   24.6300   30.5530 C   0  0  0  0  0  0  0  0  0  0  0  0
   38.5190   24.3510   31.5520 C   0  0  0  0  0  0  0  0  0  0  0  0
   37.8380   25.3610   32.0260 N   0  0  0  0  0  0  0  0  0  0  0  0
   38.0640   26.6240   31.5450 C   0  0  0  0  0  0  0  0  0  0  0  0
   38.9580   26.8900   30.5990 N   0  0  0  0  0  0  0  0  0  0  0  0
   40.4110   26.0910   29.3060 H   0  0  0  0  0  0  0  0  0  0  0  0
   40.0720   23.8480   30.0960 H   0  0  0  0  0  0  0  0  0  0  0  0
   37.2970   27.7590   32.0500 C   0  0  0  0  0  0  0  0  0  0  0  0
   36.8390   28.8970   31.4360 C   0  0  0  0  0  0  0  0  0  0  0  0
   36.1210   29.8100   32.1060 C   0  0  0  0  0  0  0  0  0  0  0  0
   35.8840   29.5180   33.4480 C   0  0  0  0  0  0  0  0  0  0  0  0
   36.7210   27.9000   33.7110 S   0  0  0  0  0  0  0  0  0  0  0  0
   37.1010   28.9990   30.3720 H   0  0  0  0  0  0  0  0  0  0  0  0
   35.7260   30.7260   31.6980 H   0  0  0  0  0  0  0  0  0  0  0  0
   35.8800   31.0460   35.3460 C   0  0  0  0  0  3  0  0  0  0  0  0
   35.1730   30.2120   34.5130 C   0  0  0  0  0  0  0  0  0  0  0  0
   33.8290   29.9270   34.5410 C   0  0  0  0  0  0  0  0  0  0  0  0
   33.3260   29.2730   33.8730 H   0  0  0  0  0  0  0  0  0  0  0  0
   33.0930   30.5660   35.5430 C   0  0  0  0  0  0  0  0  0  0  0  0
   31.8000   30.5710   35.9170 N   0  0  0  0  0  0  0  0  0  0  0  0
   31.0850   30.0000   35.4130 H   0  0  0  0  0  0  0  0  0  0  0  0
   31.6420   31.3740   36.9580 N   0  0  0  0  0  0  0  0  0  0  0  0
   32.8300   31.9340   37.3150 C   0  0  0  0  0  0  0  0  0  0  0  0
   33.0100   32.6310   38.1280 H   0  0  0  0  0  0  0  0  0  0  0  0
   33.7390   31.4240   36.4250 C   0  0  0  0  0  0  0  0  0  0  0  0
   35.1100   31.6580   36.3230 C   0  0  0  0  0  3  0  0  0  0  0  0
   38.4860   22.9910   32.0070 C   0  0  1  0  0  0  0  0  0  0  0  0
   39.3820   22.5880   31.3790 H   0  0  0  0  0  0  0  0  0  0  0  0
   38.8600   22.7470   33.4520 C   0  0  2  0  0  0  0  0  0  0  0  0
   37.8250   21.7720   34.0140 C   0  0  0  0  0  0  0  0  0  0  0  0
   37.9820   23.1650   34.5160 C   0  0  1  0  0  0  0  0  0  0  0  0
   39.9230   22.5060   33.5800 H   0  0  0  0  0  0  0  0  0  0  0  0
   36.8710   21.5530   33.5500 H   0  0  0  0  0  0  0  0  0  0  0  0
   38.2790   20.9400   34.5870 H   0  0  0  0  0  0  0  0  0  0  0  0
   37.2770   23.9730   34.2340 H   0  0  0  0  0  0  0  0  0  0  0  0
   38.3450   23.2400   35.9400 C   0  0  0  0  0  0  0  0  0  0  0  0
   39.5250   22.6660   36.3340 C   0  0  0  0  0  0  0  0  0  0  0  0
   39.8490   22.7740   37.6610 C   0  0  0  0  0  0  0  0  0  0  0  0
   39.0560   23.4200   38.5910 C   0  0  0  0  0  0  0  0  0  0  0  0
   37.8660   23.9900   38.1510 C   0  0  0  0  0  0  0  0  0  0  0  0
   37.5410   23.8880   36.8510 N   0  0  0  0  0  0  0  0  0  0  0  0
   40.2060   22.1420   35.6780 H   0  0  0  0  0  0  0  0  0  0  0  0
   40.7880   22.3250   38.0100 H   0  0  0  0  0  0  0  0  0  0  0  0
   39.2920   23.5150   39.6280 H   0  0  0  0  0  0  0  0  0  0  0  0
   37.1640   24.5190   38.7780 H   0  0  0  0  0  0  0  0  0  0  0  0
   37.6270   22.1250   31.5350 O   0  0  0  0  0  0  0  0  0  0  0  0
   36.6830   22.3200   31.7640 H   0  0  0  0  0  0  0  0  0  0  0  0
  1  2  2  0  0  0  0
  1  6  1  0  0  0  0
  2  3  1  0  0  0  0
  3 28  1  0  0  0  0
  3  4  2  0  0  0  0
  5  4  1  0  0  0  0
  5  9  1  0  0  0  0
  6  5  2  0  0  0  0
  7  1  1  0  0  0  0
  8  2  1  0  0  0  0
  9 13  1  0  0  0  0
 10  9  2  0  0  0  0
 10 11  1  0  0  0  0
 11 12  2  0  0  0  0
 12 13  1  0  0  0  0
 12 17  1  0  0  0  0
 14 10  1  0  0  0  0
 15 11  1  0  0  0  0
 16 27  1  0  0  0  0
 17 18  1  0  0  0  0
 17 16  2  0  0  0  0
 18 20  2  0  0  0  0
 19 18  1  0  0  0  0
 20 21  1  0  0  0  0
 20 26  1  0  0  0  0
 21 23  1  0  0  0  0
 22 21  1  0  0  0  0
 23 24  2  0  0  0  0
 24 25  1  0  0  0  0
 26 24  1  0  0  0  0
 27 26  2  0  0  0  0
 28 29  1  6  0  0  0
 28 30  1  0  0  0  0
 30 33  1  1  0  0  0
 30 31  1  0  0  0  0
 30 32  1  0  0  0  0
 31 32  1  0  0  0  0
 31 35  1  0  0  0  0
 32 36  1  6  0  0  0
 32 37  1  0  0  0  0
 34 31  1  0  0  0  0
 37 38  2  0  0  0  0
 37 42  1  0  0  0  0
 38 39  1  0  0  0  0
 39 44  1  0  0  0  0
 39 40  2  0  0  0  0
 40 45  1  0  0  0  0
 41 40  1  0  0  0  0
 41 46  1  0  0  0  0
 42 41  2  0  0  0  0
 43 38  1  0  0  0  0
 47 48  1  0  0  0  0
 47 28  1  0  0  0  0
M  END
>  <minimizedAffinity>
-6.68257236

$$$$

 OpenBabel03272501413D

 48 53  0  0  1  0  0  0  0  0999 V2000
   36.0530   25.4700   31.3290 C   0  0  0  0  0  0  0  0  0  0  0  0
   35.8130   26.8260   31.4230 C   0  0  0  0  0  0  0  0  0  0  0  0
   36.2970   27.6040   32.4820 C   0  0  0  0  0  0  0  0  0  0  0  0
   37.0040   26.9910   33.3950 N   0  0  0  0  0  0  0  0  0  0  0  0
   37.2360   25.6450   33.2910 C   0  0  0  0  0  0  0  0  0  0  0  0
   36.7740   24.9050   32.2880 N   0  0  0  0  0  0  0  0  0  0  0  0
   35.6650   24.8970   30.5010 H   0  0  0  0  0  0  0  0  0  0  0  0
   35.2160   27.2540   30.6140 H   0  0  0  0  0  0  0  0  0  0  0  0
   38.0390   24.9490   34.2910 C   0  0  0  0  0  0  0  0  0  0  0  0
   38.0490   25.0150   35.6620 C   0  0  0  0  0  0  0  0  0  0  0  0
   38.8750   24.2500   36.3910 C   0  0  0  0  0  0  0  0  0  0  0  0
   39.7060   23.4020   35.6600 C   0  0  0  0  0  0  0  0  0  0  0  0
   39.2640   23.7400   33.9060 S   0  0  0  0  0  0  0  0  0  0  0  0
   37.3390   25.7290   36.1060 H   0  0  0  0  0  0  0  0  0  0  0  0
   38.9430   24.2410   37.4660 H   0  0  0  0  0  0  0  0  0  0  0  0
   40.8330   22.0660   37.3580 C   0  0  0  0  0  3  0  0  0  0  0  0
   40.7250   22.4320   36.0370 C   0  0  0  0  0  0  0  0  0  0  0  0
   41.4750   21.9930   34.9720 C   0  0  0  0  0  0  0  0  0  0  0  0
   41.3530   22.3070   33.9650 H   0  0  0  0  0  0  0  0  0  0  0  0
   42.4700   21.0580   35.2730 C   0  0  0  0  0  0  0  0  0  0  0  0
   43.3960   20.3930   34.5590 N   0  0  0  0  0  0  0  0  0  0  0  0
   43.4880   20.5250   33.5270 H   0  0  0  0  0  0  0  0  0  0  0  0
   44.0990   19.6110   35.3640 N   0  0  0  0  0  0  0  0  0  0  0  0
   43.6630   19.7300   36.6490 C   0  0  0  0  0  0  0  0  0  0  0  0
   44.0470   19.2140   37.5230 H   0  0  0  0  0  0  0  0  0  0  0  0
   42.6400   20.6400   36.5870 C   0  0  0  0  0  0  0  0  0  0  0  0
   41.8320   21.1380   37.6090 C   0  0  0  0  0  3  0  0  0  0  0  0
   35.8740   28.9740   32.4870 C   0  0  1  0  0  0  0  0  0  0  0  0
   34.9900   28.8740   31.7320 H   0  0  0  0  0  0  0  0  0  0  0  0
   35.2570   29.4930   33.7670 C   0  0  2  0  0  0  0  0  0  0  0  0
   33.7550   29.6230   33.5100 C   0  0  0  0  0  0  0  0  0  0  0  0
   34.6310   30.7910   33.8050 C   0  0  1  0  0  0  0  0  0  0  0  0
   35.5860   28.9340   34.6520 H   0  0  0  0  0  0  0  0  0  0  0  0
   33.2980   29.6260   32.5280 H   0  0  0  0  0  0  0  0  0  0  0  0
   33.1370   29.1950   34.3220 H   0  0  0  0  0  0  0  0  0  0  0  0
   34.9720   31.4850   33.0100 H   0  0  0  0  0  0  0  0  0  0  0  0
   34.2510   31.5170   35.0260 C   0  0  0  0  0  0  0  0  0  0  0  0
   35.2090   31.7060   35.9870 C   0  0  0  0  0  0  0  0  0  0  0  0
   34.8330   32.4080   37.1020 C   0  0  0  0  0  0  0  0  0  0  0  0
   33.5620   32.9200   37.2900 C   0  0  0  0  0  0  0  0  0  0  0  0
   32.6190   32.7070   36.2920 C   0  0  0  0  0  0  0  0  0  0  0  0
   32.9790   32.0190   35.1950 N   0  0  0  0  0  0  0  0  0  0  0  0
   36.2250   31.3420   35.9250 H   0  0  0  0  0  0  0  0  0  0  0  0
   35.5770   32.5760   37.8910 H   0  0  0  0  0  0  0  0  0  0  0  0
   33.2510   33.4690   38.1510 H   0  0  0  0  0  0  0  0  0  0  0  0
   31.5970   33.0550   36.3210 H   0  0  0  0  0  0  0  0  0  0  0  0
   36.4990   29.8940   31.7970 O   0  0  0  0  0  0  0  0  0  0  0  0
   37.4200   30.0820   32.1090 H   0  0  0  0  0  0  0  0  0  0  0  0
  1  2  2  0  0  0  0
  1  6  1  0  0  0  0
  2  3  1  0  0  0  0
  3 28  1  0  0  0  0
  3  4  2  0  0  0  0
  5  4  1  0  0  0  0
  5  9  1  0  0  0  0
  6  5  2  0  0  0  0
  7  1  1  0  0  0  0
  8  2  1  0  0  0  0
  9 10  2  0  0  0  0
 10 14  1  0  0  0  0
 10 11  1  0  0  0  0
 11 15  1  0  0  0  0
 12 17  1  0  0  0  0
 12 11  2  0  0  0  0
 13  9  1  0  0  0  0
 13 12  1  0  0  0  0
 16 27  1  0  0  0  0
 17 16  2  0  0  0  0
 18 20  2  0  0  0  0
 18 17  1  0  0  0  0
 19 18  1  0  0  0  0
 20 26  1  0  0  0  0
 21 20  1  0  0  0  0
 21 23  1  0  0  0  0
 22 21  1  0  0  0  0
 23 24  2  0  0  0  0
 24 25  1  0  0  0  0
 26 24  1  0  0  0  0
 26 27  2  0  0  0  0
 28 29  1  6  0  0  0
 28 30  1  0  0  0  0
 30 32  1  0  0  0  0
 30 33  1  1  0  0  0
 31 30  1  0  0  0  0
 31 32  1  0  0  0  0
 31 35  1  0  0  0  0
 32 36  1  6  0  0  0
 32 37  1  0  0  0  0
 34 31  1  0  0  0  0
 37 42  2  0  0  0  0
 37 38  1  0  0  0  0
 38 39  2  0  0  0  0
 39 40  1  0  0  0  0
 39 44  1  0  0  0  0
 40 45  1  0  0  0  0
 41 46  1  0  0  0  0
 41 40  2  0  0  0  0
 42 41  1  0  0  0  0
 43 38  1  0  0  0  0
 47 48  1  0  0  0  0
 47 28  1  0  0  0  0
M  END
>  <minimizedAffinity>
-6.39328146

$$$$

 OpenBabel03272501413D

 48 53  0  0  1  0  0  0  0  0999 V2000
   39.5220   25.9710   29.4690 C   0  0  0  0  0  0  0  0  0  0  0  0
   40.2410   25.1880   30.3500 C   0  0  0  0  0  0  0  0  0  0  0  0
   40.1120   25.3060   31.7390 C   0  0  0  0  0  0  0  0  0  0  0  0
   39.2670   26.1980   32.1840 N   0  0  0  0  0  0  0  0  0  0  0  0
   38.5580   26.9690   31.3000 C   0  0  0  0  0  0  0  0  0  0  0  0
   38.6820   26.8610   29.9820 N   0  0  0  0  0  0  0  0  0  0  0  0
   39.6440   25.8570   28.4030 H   0  0  0  0  0  0  0  0  0  0  0  0
   40.9210   24.4680   29.8890 H   0  0  0  0  0  0  0  0  0  0  0  0
   37.5960   27.9560   31.7800 C   0  0  0  0  0  0  0  0  0  0  0  0
   37.0230   29.0440   31.1720 C   0  0  0  0  0  0  0  0  0  0  0  0
   36.1280   29.8100   31.8130 C   0  0  0  0  0  0  0  0  0  0  0  0
   35.8340   29.4220   33.1200 C   0  0  0  0  0  0  0  0  0  0  0  0
   36.8780   27.9320   33.3910 S   0  0  0  0  0  0  0  0  0  0  0  0
   37.3480   29.2340   30.1380 H   0  0  0  0  0  0  0  0  0  0  0  0
   35.6340   30.6780   31.4080 H   0  0  0  0  0  0  0  0  0  0  0  0
   33.6700   29.4520   34.2410 C   0  0  0  0  0  3  0  0  0  0  0  0
   34.9480   29.9530   34.1460 C   0  0  0  0  0  0  0  0  0  0  0  0
   35.5340   30.9290   34.9150 C   0  0  0  0  0  0  0  0  0  0  0  0
   36.5280   31.2840   34.8030 H   0  0  0  0  0  0  0  0  0  0  0  0
   34.7300   31.4770   35.9190 C   0  0  0  0  0  0  0  0  0  0  0  0
   34.8990   32.4200   36.8630 N   0  0  0  0  0  0  0  0  0  0  0  0
   35.8040   32.9330   36.9670 H   0  0  0  0  0  0  0  0  0  0  0  0
   33.7840   32.5500   37.5660 N   0  0  0  0  0  0  0  0  0  0  0  0
   32.8290   31.6930   37.1110 C   0  0  0  0  0  0  0  0  0  0  0  0
   31.8190   31.5740   37.4900 H   0  0  0  0  0  0  0  0  0  0  0  0
   33.4270   31.0210   36.0770 C   0  0  0  0  0  0  0  0  0  0  0  0
   32.9110   30.0240   35.2500 C   0  0  0  0  0  3  0  0  0  0  0  0
   41.0030   24.4920   32.5140 C   0  0  1  0  0  0  0  0  0  0  0  0
   41.9780   25.1090   32.3410 H   0  0  0  0  0  0  0  0  0  0  0  0
   40.7890   24.4840   34.0110 C   0  0  2  0  0  0  0  0  0  0  0  0
   41.2750   23.1240   34.5160 C   0  0  0  0  0  0  0  0  0  0  0  0
   39.8560   23.5640   34.6120 C   0  0  1  0  0  0  0  0  0  0  0  0
   41.1760   25.3870   34.5000 H   0  0  0  0  0  0  0  0  0  0  0  0
   41.4480   22.2610   33.8850 H   0  0  0  0  0  0  0  0  0  0  0  0
   41.9230   23.1990   35.4100 H   0  0  0  0  0  0  0  0  0  0  0  0
   39.0760   23.1880   33.9180 H   0  0  0  0  0  0  0  0  0  0  0  0
   39.3550   23.6390   35.9930 C   0  0  0  0  0  0  0  0  0  0  0  0
   38.2600   24.4260   36.2380 C   0  0  0  0  0  0  0  0  0  0  0  0
   37.8000   24.4570   37.5290 C   0  0  0  0  0  0  0  0  0  0  0  0
   38.3800   23.7460   38.5630 C   0  0  0  0  0  0  0  0  0  0  0  0
   39.4900   22.9600   38.2740 C   0  0  0  0  0  0  0  0  0  0  0  0
   39.9470   22.9240   37.0100 N   0  0  0  0  0  0  0  0  0  0  0  0
   37.7440   25.0140   35.4920 H   0  0  0  0  0  0  0  0  0  0  0  0
   36.9250   25.0770   37.7590 H   0  0  0  0  0  0  0  0  0  0  0  0
   38.0370   23.7570   39.5740 H   0  0  0  0  0  0  0  0  0  0  0  0
   40.0300   22.3610   38.9920 H   0  0  0  0  0  0  0  0  0  0  0  0
   41.5000   23.3750   32.0490 O   0  0  0  0  0  0  0  0  0  0  0  0
   40.8300   22.6600   31.9030 H   0  0  0  0  0  0  0  0  0  0  0  0
  1  6  2  0  0  0  0
  1  2  1  0  0  0  0
  2  3  2  0  0  0  0
  3  4  1  0  0  0  0
  3 28  1  0  0  0  0
  5  9  1  0  0  0  0
  5  4  2  0  0  0  0
  6  5  1  0  0  0  0
  7  1  1  0  0  0  0
  8  2  1  0  0  0  0
  9 13  1  0  0  0  0
 10  9  2  0  0  0  0
 10 11  1  0  0  0  0
 11 12  2  0  0  0  0
 12 13  1  0  0  0  0
 12 17  1  0  0  0  0
 14 10  1  0  0  0  0
 15 11  1  0  0  0  0
 16 27  1  0  0  0  0
 17 16  2  0  0  0  0
 17 18  1  0  0  0  0
 18 20  2  0  0  0  0
 19 18  1  0  0  0  0
 20 26  1  0  0  0  0
 20 21  1  0  0  0  0
 21 22  1  0  0  0  0
 21 23  1  0  0  0  0
 24 25  1  0  0  0  0
 24 23  2  0  0  0  0
 26 24  1  0  0  0  0
 27 26  2  0  0  0  0
 28 29  1  6  0  0  0
 28 30  1  0  0  0  0
 30 33  1  1  0  0  0
 30 31  1  0  0  0  0
 30 32  1  0  0  0  0
 31 32  1  0  0  0  0
 31 35  1  0  0  0  0
 32 36  1  6  0  0  0
 32 37  1  0  0  0  0
 34 31  1  0  0  0  0
 37 38  2  0  0  0  0
 37 42  1  0  0  0  0
 38 39  1  0  0  0  0
 39 44  1  0  0  0  0
 39 40  2  0  0  0  0
 40 45  1  0  0  0  0
 41 40  1  0  0  0  0
 41 46  1  0  0  0  0
 42 41  2  0  0  0  0
 43 38  1  0  0  0  0
 47 28  1  0  0  0  0
 48 47  1  0  0  0  0
M  END
>  <minimizedAffinity>
-6.25732851

$$$$

 OpenBabel03272501413D

 48 53  0  0  1  0  0  0  0  0999 V2000
   35.2300   24.7700   30.9820 C   0  0  0  0  0  0  0  0  0  0  0  0
   36.3640   24.0610   31.3190 C   0  0  0  0  0  0  0  0  0  0  0  0
   37.4820   24.6650   31.9080 C   0  0  0  0  0  0  0  0  0  0  0  0
   37.4110   25.9510   32.1370 N   0  0  0  0  0  0  0  0  0  0  0  0
   36.2800   26.6440   31.7980 C   0  0  0  0  0  0  0  0  0  0  0  0
   35.2200   26.0720   31.2360 N   0  0  0  0  0  0  0  0  0  0  0  0
   34.3840   24.2770   30.5280 H   0  0  0  0  0  0  0  0  0  0  0  0
   36.3330   22.9920   31.0950 H   0  0  0  0  0  0  0  0  0  0  0  0
   36.1770   28.0760   32.0640 C   0  0  0  0  0  0  0  0  0  0  0  0
   36.3380   29.1700   31.2520 C   0  0  0  0  0  0  0  0  0  0  0  0
   36.1690   30.4150   31.7190 C   0  0  0  0  0  0  0  0  0  0  0  0
   35.8240   30.5080   33.0670 C   0  0  0  0  0  0  0  0  0  0  0  0
   35.7540   28.7590   33.6340 S   0  0  0  0  0  0  0  0  0  0  0  0
   36.6110   28.9490   30.2090 H   0  0  0  0  0  0  0  0  0  0  0  0
   36.2760   31.3230   31.1480 H   0  0  0  0  0  0  0  0  0  0  0  0
   35.5810   32.9040   33.4380 C   0  0  0  0  0  3  0  0  0  0  0  0
   35.5540   31.6300   33.9550 C   0  0  0  0  0  0  0  0  0  0  0  0
   35.2970   31.2460   35.2490 C   0  0  0  0  0  0  0  0  0  0  0  0
   35.2870   30.2440   35.6020 H   0  0  0  0  0  0  0  0  0  0  0  0
   35.0290   32.2820   36.1490 C   0  0  0  0  0  0  0  0  0  0  0  0
   34.7360   32.3500   37.4600 N   0  0  0  0  0  0  0  0  0  0  0  0
   34.6660   31.4890   38.0490 H   0  0  0  0  0  0  0  0  0  0  0  0
   34.5740   33.6150   37.8140 N   0  0  0  0  0  0  0  0  0  0  0  0
   34.7530   34.4380   36.7440 C   0  0  0  0  0  0  0  0  0  0  0  0
   34.6830   35.5210   36.7290 H   0  0  0  0  0  0  0  0  0  0  0  0
   35.0390   33.5970   35.7010 C   0  0  0  0  0  0  0  0  0  0  0  0
   35.3100   33.8980   34.3670 C   0  0  0  0  0  3  0  0  0  0  0  0
   38.6170   23.8100   32.1030 C   0  0  1  0  0  0  0  0  0  0  0  0
   39.4180   24.4860   31.5920 H   0  0  0  0  0  0  0  0  0  0  0  0
   39.0920   23.6220   33.5270 C   0  0  2  0  0  0  0  0  0  0  0  0
   40.3890   24.4210   33.6650 C   0  0  0  0  0  0  0  0  0  0  0  0
   40.3310   22.9390   33.8010 C   0  0  1  0  0  0  0  0  0  0  0  0
   38.2980   23.7910   34.2640 H   0  0  0  0  0  0  0  0  0  0  0  0
   40.9780   24.7850   32.8320 H   0  0  0  0  0  0  0  0  0  0  0  0
   40.4200   25.0430   34.5800 H   0  0  0  0  0  0  0  0  0  0  0  0
   40.6670   22.2610   32.9890 H   0  0  0  0  0  0  0  0  0  0  0  0
   40.7620   22.4510   35.1200 C   0  0  0  0  0  0  0  0  0  0  0  0
   40.0510   22.8570   36.2190 C   0  0  0  0  0  0  0  0  0  0  0  0
   40.4590   22.3670   37.4320 C   0  0  0  0  0  0  0  0  0  0  0  0
   41.5280   21.5040   37.5860 C   0  0  0  0  0  0  0  0  0  0  0  0
   42.2240   21.1160   36.4470 C   0  0  0  0  0  0  0  0  0  0  0  0
   41.8300   21.5920   35.2530 N   0  0  0  0  0  0  0  0  0  0  0  0
   39.2040   23.5270   36.1920 H   0  0  0  0  0  0  0  0  0  0  0  0
   39.9110   22.6720   38.3320 H   0  0  0  0  0  0  0  0  0  0  0  0
   41.8610   21.1110   38.5220 H   0  0  0  0  0  0  0  0  0  0  0  0
   43.0730   20.4490   36.4360 H   0  0  0  0  0  0  0  0  0  0  0  0
   38.8430   22.7760   31.3350 O   0  0  0  0  0  0  0  0  0  0  0  0
   38.1710   22.0530   31.4150 H   0  0  0  0  0  0  0  0  0  0  0  0
  1  6  2  0  0  0  0
  1  2  1  0  0  0  0
  2  3  2  0  0  0  0
  3 28  1  0  0  0  0
  3  4  1  0  0  0  0
  5  9  1  0  0  0  0
  5  4  2  0  0  0  0
  6  5  1  0  0  0  0
  7  1  1  0  0  0  0
  8  2  1  0  0  0  0
  9 13  1  0  0  0  0
 10 11  1  0  0  0  0
 10  9  2  0  0  0  0
 11 12  2  0  0  0  0
 12 13  1  0  0  0  0
 12 17  1  0  0  0  0
 14 10  1  0  0  0  0
 15 11  1  0  0  0  0
 16 17  2  0  0  0  0
 16 27  1  0  0  0  0
 17 18  1  0  0  0  0
 18 19  1  0  0  0  0
 18 20  2  0  0  0  0
 20 21  1  0  0  0  0
 21 23  1  0  0  0  0
 21 22  1  0  0  0  0
 24 23  2  0  0  0  0
 25 24  1  0  0  0  0
 26 20  1  0  0  0  0
 26 24  1  0  0  0  0
 27 26  2  0  0  0  0
 28 29  1  6  0  0  0
 28 30  1  0  0  0  0
 30 31  1  0  0  0  0
 30 32  1  0  0  0  0
 30 33  1  1  0  0  0
 31 32  1  0  0  0  0
 31 35  1  0  0  0  0
 32 36  1  6  0  0  0
 32 37  1  0  0  0  0
 34 31  1  0  0  0  0
 37 42  2  0  0  0  0
 37 38  1  0  0  0  0
 38 39  2  0  0  0  0
 39 40  1  0  0  0  0
 39 44  1  0  0  0  0
 40 45  1  0  0  0  0
 41 40  2  0  0  0  0
 42 41  1  0  0  0  0
 43 38  1  0  0  0  0
 46 41  1  0  0  0  0
 47 48  1  0  0  0  0
 47 28  1  0  0  0  0
M  END
>  <minimizedAffinity>
-6.24913788

$$$$

 OpenBabel03272501413D

 48 53  0  0  1  0  0  0  0  0999 V2000
   35.5000   24.8350   30.9540 C   0  0  0  0  0  0  0  0  0  0  0  0
   36.3830   24.0680   31.6860 C   0  0  0  0  0  0  0  0  0  0  0  0
   37.2290   24.6150   32.6580 C   0  0  0  0  0  0  0  0  0  0  0  0
   37.1500   25.9050   32.8570 N   0  0  0  0  0  0  0  0  0  0  0  0
   36.2690   26.6560   32.1250 C   0  0  0  0  0  0  0  0  0  0  0  0
   35.4680   26.1380   31.2000 N   0  0  0  0  0  0  0  0  0  0  0  0
   34.8610   24.3840   30.2110 H   0  0  0  0  0  0  0  0  0  0  0  0
   36.3790   23.0000   31.4550 H   0  0  0  0  0  0  0  0  0  0  0  0
   36.1540   28.0940   32.3490 C   0  0  0  0  0  0  0  0  0  0  0  0
   36.2450   29.1620   31.4930 C   0  0  0  0  0  0  0  0  0  0  0  0
   36.0780   30.4200   31.9260 C   0  0  0  0  0  0  0  0  0  0  0  0
   35.8120   30.5530   33.2890 C   0  0  0  0  0  0  0  0  0  0  0  0
   35.8100   28.8240   33.9170 S   0  0  0  0  0  0  0  0  0  0  0  0
   36.4600   28.9100   30.4430 H   0  0  0  0  0  0  0  0  0  0  0  0
   36.1330   31.3090   31.3210 H   0  0  0  0  0  0  0  0  0  0  0  0
   35.8670   32.9580   33.6810 C   0  0  0  0  0  3  0  0  0  0  0  0
   35.5730   31.7000   34.1540 C   0  0  0  0  0  0  0  0  0  0  0  0
   35.0620   31.3550   35.3820 C   0  0  0  0  0  0  0  0  0  0  0  0
   34.8500   30.3650   35.7020 H   0  0  0  0  0  0  0  0  0  0  0  0
   34.8100   32.4160   36.2560 C   0  0  0  0  0  0  0  0  0  0  0  0
   34.3280   32.5230   37.5070 N   0  0  0  0  0  0  0  0  0  0  0  0
   34.0410   31.6810   38.0550 H   0  0  0  0  0  0  0  0  0  0  0  0
   34.2990   33.7980   37.8640 N   0  0  0  0  0  0  0  0  0  0  0  0
   34.7620   34.5880   36.8570 C   0  0  0  0  0  0  0  0  0  0  0  0
   34.8540   35.6700   36.8600 H   0  0  0  0  0  0  0  0  0  0  0  0
   35.0820   33.7170   35.8490 C   0  0  0  0  0  0  0  0  0  0  0  0
   35.6010   33.9780   34.5810 C   0  0  0  0  0  3  0  0  0  0  0  0
   38.1580   23.7000   33.2560 C   0  0  1  0  0  0  0  0  0  0  0  0
   38.4440   23.1070   32.2930 H   0  0  0  0  0  0  0  0  0  0  0  0
   39.4550   24.2850   33.7710 C   0  0  2  0  0  0  0  0  0  0  0  0
   40.5450   23.8770   32.7790 C   0  0  0  0  0  0  0  0  0  0  0  0
   40.5280   23.4230   34.1980 C   0  0  1  0  0  0  0  0  0  0  0  0
   39.3650   25.3460   34.0360 H   0  0  0  0  0  0  0  0  0  0  0  0
   40.4420   23.0900   32.0420 H   0  0  0  0  0  0  0  0  0  0  0  0
   41.2060   24.7170   32.4920 H   0  0  0  0  0  0  0  0  0  0  0  0
   40.2060   22.4000   34.4830 H   0  0  0  0  0  0  0  0  0  0  0  0
   41.7080   23.8480   34.9660 C   0  0  0  0  0  0  0  0  0  0  0  0
   42.1690   23.0140   35.9500 C   0  0  0  0  0  0  0  0  0  0  0  0
   43.2850   23.4240   36.6320 C   0  0  0  0  0  0  0  0  0  0  0  0
   43.9450   24.6120   36.3740 C   0  0  0  0  0  0  0  0  0  0  0  0
   43.4450   25.4310   35.3680 C   0  0  0  0  0  0  0  0  0  0  0  0
   42.3510   25.0360   34.6940 N   0  0  0  0  0  0  0  0  0  0  0  0
   41.7180   22.0700   36.2200 H   0  0  0  0  0  0  0  0  0  0  0  0
   43.6800   22.7790   37.4270 H   0  0  0  0  0  0  0  0  0  0  0  0
   44.8150   24.9480   36.8940 H   0  0  0  0  0  0  0  0  0  0  0  0
   43.8690   26.3790   35.0720 H   0  0  0  0  0  0  0  0  0  0  0  0
   37.7610   22.6440   33.9180 O   0  0  0  0  0  0  0  0  0  0  0  0
   37.2800   22.8480   34.7600 H   0  0  0  0  0  0  0  0  0  0  0  0
  1  6  2  0  0  0  0
  1  2  1  0  0  0  0
  2  3  2  0  0  0  0
  3  4  1  0  0  0  0
  3 28  1  0  0  0  0
  5  9  1  0  0  0  0
  5  4  2  0  0  0  0
  6  5  1  0  0  0  0
  7  1  1  0  0  0  0
  8  2  1  0  0  0  0
  9 13  1  0  0  0  0
 10 11  1  0  0  0  0
 10  9  2  0  0  0  0
 11 12  2  0  0  0  0
 12 13  1  0  0  0  0
 12 17  1  0  0  0  0
 14 10  1  0  0  0  0
 15 11  1  0  0  0  0
 16 17  2  0  0  0  0
 16 27  1  0  0  0  0
 17 18  1  0  0  0  0
 18 19  1  0  0  0  0
 18 20  2  0  0  0  0
 20 21  1  0  0  0  0
 21 23  1  0  0  0  0
 21 22  1  0  0  0  0
 24 25  1  0  0  0  0
 24 23  2  0  0  0  0
 26 20  1  0  0  0  0
 26 24  1  0  0  0  0
 27 26  2  0  0  0  0
 28 29  1  6  0  0  0
 28 30  1  0  0  0  0
 28 47  1  0  0  0  0
 30 33  1  1  0  0  0
 30 32  1  0  0  0  0
 31 30  1  0  0  0  0
 31 32  1  0  0  0  0
 32 36  1  1  0  0  0
 32 37  1  0  0  0  0
 34 31  1  0  0  0  0
 35 31  1  0  0  0  0
 37 38  1  0  0  0  0
 38 43  1  0  0  0  0
 38 39  2  0  0  0  0
 39 44  1  0  0  0  0
 40 39  1  0  0  0  0
 40 45  1  0  0  0  0
 41 40  2  0  0  0  0
 42 37  2  0  0  0  0
 42 41  1  0  0  0  0
 46 41  1  0  0  0  0
 47 48  1  0  0  0  0
M  END
>  <minimizedAffinity>
-6.23742437

$$$$

 OpenBabel03272501413D

 48 53  0  0  1  0  0  0  0  0999 V2000
   37.5230   28.1100   30.0870 C   0  0  0  0  0  0  0  0  0  0  0  0
   36.4900   28.9760   30.3820 C   0  0  0  0  0  0  0  0  0  0  0  0
   36.0220   29.1710   31.6870 C   0  0  0  0  0  0  0  0  0  0  0  0
   36.6110   28.4940   32.6380 N   0  0  0  0  0  0  0  0  0  0  0  0
   37.6350   27.6370   32.3330 C   0  0  0  0  0  0  0  0  0  0  0  0
   38.0780   27.4490   31.0950 N   0  0  0  0  0  0  0  0  0  0  0  0
   37.8620   27.9800   29.0710 H   0  0  0  0  0  0  0  0  0  0  0  0
   36.0600   29.5020   29.5260 H   0  0  0  0  0  0  0  0  0  0  0  0
   38.3170   26.8890   33.3850 C   0  0  0  0  0  0  0  0  0  0  0  0
   38.2450   26.9640   34.7530 C   0  0  0  0  0  0  0  0  0  0  0  0
   38.9600   26.1430   35.5350 C   0  0  0  0  0  0  0  0  0  0  0  0
   39.7670   25.2270   34.8610 C   0  0  0  0  0  0  0  0  0  0  0  0
   39.4640   25.5840   33.0820 S   0  0  0  0  0  0  0  0  0  0  0  0
   37.5670   27.7350   35.1490 H   0  0  0  0  0  0  0  0  0  0  0  0
   38.9590   26.1380   36.6120 H   0  0  0  0  0  0  0  0  0  0  0  0
   41.8980   24.0580   34.6770 C   0  0  0  0  0  3  0  0  0  0  0  0
   40.6800   24.1830   35.3050 C   0  0  0  0  0  0  0  0  0  0  0  0
   40.1790   23.4290   36.3390 C   0  0  0  0  0  0  0  0  0  0  0  0
   39.2290   23.5640   36.7920 H   0  0  0  0  0  0  0  0  0  0  0  0
   41.0140   22.4100   36.8080 C   0  0  0  0  0  0  0  0  0  0  0  0
   40.9210   21.4720   37.7680 N   0  0  0  0  0  0  0  0  0  0  0  0
   40.0710   21.3890   38.3700 H   0  0  0  0  0  0  0  0  0  0  0  0
   42.0280   20.7460   37.7880 N   0  0  0  0  0  0  0  0  0  0  0  0
   42.9000   21.1770   36.8360 C   0  0  0  0  0  0  0  0  0  0  0  0
   43.8850   20.7770   36.6170 H   0  0  0  0  0  0  0  0  0  0  0  0
   42.2600   22.2220   36.2230 C   0  0  0  0  0  0  0  0  0  0  0  0
   42.6900   23.0360   35.1760 C   0  0  0  0  0  3  0  0  0  0  0  0
   34.8770   30.0260   31.8120 C   0  0  1  0  0  0  0  0  0  0  0  0
   34.0640   29.2580   31.4830 H   0  0  0  0  0  0  0  0  0  0  0  0
   34.4930   30.4500   33.2120 C   0  0  2  0  0  0  0  0  0  0  0  0
   33.1340   29.8130   33.5060 C   0  0  0  0  0  0  0  0  0  0  0  0
   33.3390   31.2860   33.4340 C   0  0  1  0  0  0  0  0  0  0  0  0
   35.3030   30.3030   33.9370 H   0  0  0  0  0  0  0  0  0  0  0  0
   32.4730   29.4020   32.7530 H   0  0  0  0  0  0  0  0  0  0  0  0
   33.0890   29.3250   34.4990 H   0  0  0  0  0  0  0  0  0  0  0  0
   33.0290   31.8790   32.5480 H   0  0  0  0  0  0  0  0  0  0  0  0
   33.0230   31.9870   34.6870 C   0  0  0  0  0  0  0  0  0  0  0  0
   33.6360   31.5590   35.8360 C   0  0  0  0  0  0  0  0  0  0  0  0
   33.3420   32.2470   36.9840 C   0  0  0  0  0  0  0  0  0  0  0  0
   32.4760   33.3240   37.0280 C   0  0  0  0  0  0  0  0  0  0  0  0
   31.8740   33.7270   35.8420 C   0  0  0  0  0  0  0  0  0  0  0  0
   32.1570   33.0580   34.7110 N   0  0  0  0  0  0  0  0  0  0  0  0
   34.3250   30.7280   35.8940 H   0  0  0  0  0  0  0  0  0  0  0  0
   33.8160   31.9300   37.9210 H   0  0  0  0  0  0  0  0  0  0  0  0
   32.2350   33.8720   37.9130 H   0  0  0  0  0  0  0  0  0  0  0  0
   31.1820   34.5510   35.7470 H   0  0  0  0  0  0  0  0  0  0  0  0
   34.5680   30.9070   30.8950 O   0  0  0  0  0  0  0  0  0  0  0  0
   35.2230   31.6450   30.8010 H   0  0  0  0  0  0  0  0  0  0  0  0
  1  2  2  0  0  0  0
  1  6  1  0  0  0  0
  2  3  1  0  0  0  0
  3 28  1  0  0  0  0
  3  4  2  0  0  0  0
  5  4  1  0  0  0  0
  5  9  1  0  0  0  0
  6  5  2  0  0  0  0
  7  1  1  0  0  0  0
  8  2  1  0  0  0  0
  9 10  2  0  0  0  0
 10 14  1  0  0  0  0
 10 11  1  0  0  0  0
 11 15  1  0  0  0  0
 12 17  1  0  0  0  0
 12 11  2  0  0  0  0
 13  9  1  0  0  0  0
 13 12  1  0  0  0  0
 16 27  2  0  0  0  0
 16 17  1  0  0  0  0
 17 18  2  0  0  0  0
 18 19  1  0  0  0  0
 18 20  1  0  0  0  0
 20 21  1  0  0  0  0
 21 23  1  0  0  0  0
 21 22  1  0  0  0  0
 24 23  2  0  0  0  0
 25 24  1  0  0  0  0
 26 20  2  0  0  0  0
 26 24  1  0  0  0  0
 27 26  1  0  0  0  0
 28 29  1  6  0  0  0
 28 30  1  0  0  0  0
 30 32  1  0  0  0  0
 30 31  1  0  0  0  0
 30 33  1  1  0  0  0
 31 35  1  0  0  0  0
 32 36  1  6  0  0  0
 32 31  1  0  0  0  0
 32 37  1  0  0  0  0
 34 31  1  0  0  0  0
 37 42  2  0  0  0  0
 37 38  1  0  0  0  0
 38 43  1  0  0  0  0
 38 39  2  0  0  0  0
 39 40  1  0  0  0  0
 39 44  1  0  0  0  0
 40 45  1  0  0  0  0
 41 40  2  0  0  0  0
 42 41  1  0  0  0  0
 46 41  1  0  0  0  0
 47 28  1  0  0  0  0
 48 47  1  0  0  0  0
M  END
>  <minimizedAffinity>
-6.23229885

$$$$

 OpenBabel03272501413D

 48 53  0  0  1  0  0  0  0  0999 V2000
   40.8580   26.5230   31.2690 C   0  0  0  0  0  0  0  0  0  0  0  0
   40.5010   25.2940   30.7530 C   0  0  0  0  0  0  0  0  0  0  0  0
   39.1670   24.8910   30.6190 C   0  0  0  0  0  0  0  0  0  0  0  0
   38.2490   25.7400   31.0040 N   0  0  0  0  0  0  0  0  0  0  0  0
   38.6150   26.9570   31.5150 C   0  0  0  0  0  0  0  0  0  0  0  0
   39.8810   27.3380   31.6450 N   0  0  0  0  0  0  0  0  0  0  0  0
   41.8950   26.8040   31.3600 H   0  0  0  0  0  0  0  0  0  0  0  0
   41.3340   24.6520   30.4540 H   0  0  0  0  0  0  0  0  0  0  0  0
   37.6020   27.9230   31.9300 C   0  0  0  0  0  0  0  0  0  0  0  0
   36.9340   28.9010   31.2380 C   0  0  0  0  0  0  0  0  0  0  0  0
   36.0100   29.6690   31.8330 C   0  0  0  0  0  0  0  0  0  0  0  0
   35.7890   29.4020   33.1840 C   0  0  0  0  0  0  0  0  0  0  0  0
   36.9440   28.0210   33.5640 S   0  0  0  0  0  0  0  0  0  0  0  0
   37.2100   29.0020   30.1770 H   0  0  0  0  0  0  0  0  0  0  0  0
   35.4430   30.4550   31.3620 H   0  0  0  0  0  0  0  0  0  0  0  0
   33.5640   29.6650   34.1440 C   0  0  0  0  0  3  0  0  0  0  0  0
   34.9030   29.9780   34.1850 C   0  0  0  0  0  0  0  0  0  0  0  0
   35.5540   30.7950   35.0780 C   0  0  0  0  0  0  0  0  0  0  0  0
   36.5940   31.0070   35.0700 H   0  0  0  0  0  0  0  0  0  0  0  0
   34.7540   31.3780   36.0650 C   0  0  0  0  0  0  0  0  0  0  0  0
   34.9740   32.2110   37.0990 N   0  0  0  0  0  0  0  0  0  0  0  0
   35.9300   32.5750   37.3120 H   0  0  0  0  0  0  0  0  0  0  0  0
   33.8330   32.4490   37.7270 N   0  0  0  0  0  0  0  0  0  0  0  0
   32.8090   31.7800   37.1310 C   0  0  0  0  0  0  0  0  0  0  0  0
   31.7630   31.7820   37.4230 H   0  0  0  0  0  0  0  0  0  0  0  0
   33.3900   31.1080   36.0880 C   0  0  0  0  0  0  0  0  0  0  0  0
   32.8110   30.2640   35.1410 C   0  0  0  0  0  3  0  0  0  0  0  0
   38.9690   23.5470   30.1620 C   0  0  1  0  0  0  0  0  0  0  0  0
   40.0600   23.1620   30.3120 H   0  0  0  0  0  0  0  0  0  0  0  0
   38.1020   22.6550   31.0230 C   0  0  2  0  0  0  0  0  0  0  0  0
   39.0390   21.6540   31.7010 C   0  0  0  0  0  0  0  0  0  0  0  0
   37.9830   21.2480   30.7320 C   0  0  1  0  0  0  0  0  0  0  0  0
   37.4040   23.2220   31.6520 H   0  0  0  0  0  0  0  0  0  0  0  0
   40.0560   21.4540   31.3860 H   0  0  0  0  0  0  0  0  0  0  0  0
   38.8440   21.5440   32.7850 H   0  0  0  0  0  0  0  0  0  0  0  0
   38.2220   20.9770   29.6830 H   0  0  0  0  0  0  0  0  0  0  0  0
   36.9760   20.3420   31.3050 C   0  0  0  0  0  0  0  0  0  0  0  0
   35.7130   20.8320   31.5120 C   0  0  0  0  0  0  0  0  0  0  0  0
   34.7890   19.9580   32.0220 C   0  0  0  0  0  0  0  0  0  0  0  0
   35.0720   18.6400   32.3280 C   0  0  0  0  0  0  0  0  0  0  0  0
   36.3650   18.1810   32.1040 C   0  0  0  0  0  0  0  0  0  0  0  0
   37.2780   19.0320   31.6040 N   0  0  0  0  0  0  0  0  0  0  0  0
   35.4030   21.8460   31.3020 H   0  0  0  0  0  0  0  0  0  0  0  0
   33.7690   20.3190   32.2000 H   0  0  0  0  0  0  0  0  0  0  0  0
   34.3660   17.9440   32.7260 H   0  0  0  0  0  0  0  0  0  0  0  0
   36.7100   17.1760   32.3020 H   0  0  0  0  0  0  0  0  0  0  0  0
   38.9250   23.2490   28.8890 O   0  0  0  0  0  0  0  0  0  0  0  0
   38.1440   23.6230   28.4090 H   0  0  0  0  0  0  0  0  0  0  0  0
  1  7  1  0  0  0  0
  1  6  1  0  0  0  0
  2  1  2  0  0  0  0
  3  2  1  0  0  0  0
  3  4  2  0  0  0  0
  4  5  1  0  0  0  0
  5  6  2  0  0  0  0
  5  9  1  0  0  0  0
  8  2  1  0  0  0  0
  9 13  1  0  0  0  0
 10 11  1  0  0  0  0
 10  9  2  0  0  0  0
 11 12  2  0  0  0  0
 12 13  1  0  0  0  0
 12 17  1  0  0  0  0
 14 10  1  0  0  0  0
 15 11  1  0  0  0  0
 16 17  2  0  0  0  0
 16 27  1  0  0  0  0
 17 18  1  0  0  0  0
 18 20  2  0  0  0  0
 19 18  1  0  0  0  0
 20 26  1  0  0  0  0
 20 21  1  0  0  0  0
 21 22  1  0  0  0  0
 21 23  1  0  0  0  0
 24 25  1  0  0  0  0
 24 23  2  0  0  0  0
 26 24  1  0  0  0  0
 27 26  2  0  0  0  0
 28 29  1  1  0  0  0
 28  3  1  0  0  0  0
 28 30  1  0  0  0  0
 30 33  1  1  0  0  0
 30 31  1  0  0  0  0
 31 35  1  0  0  0  0
 32 36  1  6  0  0  0
 32 30  1  0  0  0  0
 32 37  1  0  0  0  0
 32 31  1  0  0  0  0
 34 31  1  0  0  0  0
 37 38  2  0  0  0  0
 37 42  1  0  0  0  0
 38 39  1  0  0  0  0
 39 44  1  0  0  0  0
 39 40  2  0  0  0  0
 40 45  1  0  0  0  0
 41 46  1  0  0  0  0
 41 40  1  0  0  0  0
 42 41  2  0  0  0  0
 43 38  1  0  0  0  0
 47 28  1  0  0  0  0
 48 47  1  0  0  0  0
M  END
>  <minimizedAffinity>
-6.17033672

$$$$
