
 OpenBabel03272502193D

 36 39  0  0  1  0  0  0  0  0999 V2000
   37.4790   26.7350   34.8300 C   0  0  0  0  0  0  0  0  0  0  0  0
   37.3010   26.1250   33.5830 C   0  0  0  0  0  0  0  0  0  0  0  0
   36.6070   26.8110   32.5970 C   0  0  0  0  0  0  0  0  0  0  0  0
   36.1310   28.0620   32.9060 N   0  0  0  0  0  0  0  0  0  0  0  0
   36.3120   28.6250   34.0980 C   0  0  0  0  0  0  0  0  0  0  0  0
   36.9850   27.9480   35.0400 N   0  0  0  0  0  0  0  0  0  0  0  0
   37.6630   25.1450   33.3140 H   0  0  0  0  0  0  0  0  0  0  0  0
   36.4300   26.4000   31.6090 H   0  0  0  0  0  0  0  0  0  0  0  0
   35.3440   30.7660   33.3460 C   0  0  0  0  0  3  0  0  0  0  0  0
   35.7870   29.9590   34.3800 C   0  0  0  0  0  0  0  0  0  0  0  0
   35.7490   30.3880   35.7040 C   0  0  0  0  0  0  0  0  0  0  0  0
   36.0990   29.7450   36.5090 H   0  0  0  0  0  0  0  0  0  0  0  0
   35.2610   31.6400   36.0160 C   0  0  0  0  0  0  0  0  0  0  0  0
   35.1200   32.2750   37.1890 N   0  0  0  0  0  0  0  0  0  0  0  0
   35.3630   31.9350   38.1660 H   0  0  0  0  0  0  0  0  0  0  0  0
   34.5950   33.4870   36.9780 N   0  0  0  0  0  0  0  0  0  0  0  0
   34.3990   33.6200   35.6360 C   0  0  0  0  0  0  0  0  0  0  0  0
   33.9960   34.4500   35.0850 H   0  0  0  0  0  0  0  0  0  0  0  0
   34.8130   32.4670   35.0190 C   0  0  0  0  0  0  0  0  0  0  0  0
   34.8700   32.0050   33.7240 C   0  0  0  0  0  3  0  0  0  0  0  0
   38.3830   25.7330   35.9760 S   0  0  0  0  0  0  0  0  0  0  0  0
   37.8420   23.2250   36.8210 N   0  0  0  0  0  0  0  0  0  0  0  0
   38.1580   23.9560   35.6140 C   0  0  2  0  0  0  0  0  0  0  0  0
   39.4540   23.4070   35.0710 C   0  0  0  0  0  0  0  0  0  0  0  0
   39.7440   22.1430   35.6270 O   0  0  0  0  0  0  0  0  0  0  0  0
   40.0740   22.4180   36.9730 C   0  0  0  0  0  0  0  0  0  0  0  0
   39.0020   23.2150   37.6600 C   0  0  2  0  0  0  0  0  0  0  0  0
   37.0250   23.5880   37.3400 H   0  0  0  0  0  0  0  0  0  0  0  0
   37.3430   23.8900   34.8790 H   0  0  0  0  0  0  0  0  0  0  0  0
   39.3430   23.2430   33.9870 H   0  0  0  0  0  0  0  0  0  0  0  0
   40.3060   24.0880   35.2560 H   0  0  0  0  0  0  0  0  0  0  0  0
   40.1440   21.4280   37.4700 H   0  0  0  0  0  0  0  0  0  0  0  0
   41.0870   22.8600   37.0620 H   0  0  0  0  0  0  0  0  0  0  0  0
   39.3540   24.2490   37.8080 H   0  0  0  0  0  0  0  0  0  0  0  0
   38.6550   22.6090   38.8810 O   0  0  0  0  0  0  0  0  0  0  0  0
   39.2850   23.0440   39.5390 H   0  0  0  0  0  0  0  0  0  0  0  0
  1  6  1  0  0  0  0
  1 21  1  0  0  0  0
  2  1  2  0  0  0  0
  3  4  2  0  0  0  0
  3  2  1  0  0  0  0
  4  5  1  0  0  0  0
  5 10  1  0  0  0  0
  5  6  2  0  0  0  0
  7  2  1  0  0  0  0
  8  3  1  0  0  0  0
  9 20  2  0  0  0  0
  9 10  1  0  0  0  0
 10 11  2  0  0  0  0
 11 13  1  0  0  0  0
 11 12  1  0  0  0  0
 13 14  1  0  0  0  0
 14 15  1  0  0  0  0
 16 14  1  0  0  0  0
 17 16  2  0  0  0  0
 18 17  1  0  0  0  0
 19 17  1  0  0  0  0
 19 13  2  0  0  0  0
 20 19  1  0  0  0  0
 22 28  1  0  0  0  0
 22 27  1  0  0  0  0
 23 29  1  6  0  0  0
 23 21  1  0  0  0  0
 23 22  1  0  0  0  0
 24 31  1  0  0  0  0
 24 23  1  0  0  0  0
 24 25  1  0  0  0  0
 25 26  1  0  0  0  0
 26 33  1  0  0  0  0
 26 32  1  0  0  0  0
 26 27  1  0  0  0  0
 27 34  1  1  0  0  0
 27 35  1  0  0  0  0
 30 24  1  0  0  0  0
 35 36  1  0  0  0  0
M  END
>  <minimizedAffinity>
-6.09163809

$$$$

 OpenBabel03272502193D

 36 39  0  0  1  0  0  0  0  0999 V2000
   37.7180   26.7520   34.7320 C   0  0  0  0  0  0  0  0  0  0  0  0
   38.3850   26.4980   33.5280 C   0  0  0  0  0  0  0  0  0  0  0  0
   38.0030   27.1970   32.3930 C   0  0  0  0  0  0  0  0  0  0  0  0
   36.9810   28.1060   32.5180 N   0  0  0  0  0  0  0  0  0  0  0  0
   36.3590   28.3340   33.6720 C   0  0  0  0  0  0  0  0  0  0  0  0
   36.7410   27.6500   34.7610 N   0  0  0  0  0  0  0  0  0  0  0  0
   39.1890   25.7910   33.4030 H   0  0  0  0  0  0  0  0  0  0  0  0
   38.4740   27.0510   31.4270 H   0  0  0  0  0  0  0  0  0  0  0  0
   35.3290   30.3300   34.6920 C   0  0  0  0  0  3  0  0  0  0  0  0
   35.2770   29.3120   33.7550 C   0  0  0  0  0  0  0  0  0  0  0  0
   34.2050   29.1890   32.8760 C   0  0  0  0  0  0  0  0  0  0  0  0
   34.1740   28.3840   32.1430 H   0  0  0  0  0  0  0  0  0  0  0  0
   33.1620   30.0890   32.9190 C   0  0  0  0  0  0  0  0  0  0  0  0
   32.0370   30.1860   32.1940 N   0  0  0  0  0  0  0  0  0  0  0  0
   31.6970   29.5660   31.4020 H   0  0  0  0  0  0  0  0  0  0  0  0
   31.3280   31.2400   32.6140 N   0  0  0  0  0  0  0  0  0  0  0  0
   32.0240   31.8230   33.6300 C   0  0  0  0  0  0  0  0  0  0  0  0
   31.7770   32.6900   34.2160 H   0  0  0  0  0  0  0  0  0  0  0  0
   33.1780   31.1110   33.8320 C   0  0  0  0  0  0  0  0  0  0  0  0
   34.2550   31.1970   34.6840 C   0  0  0  0  0  3  0  0  0  0  0  0
   38.3210   25.7840   36.0850 S   0  0  0  0  0  0  0  0  0  0  0  0
   37.9000   23.2080   36.7850 N   0  0  0  0  0  0  0  0  0  0  0  0
   38.3420   24.0060   35.6620 C   0  0  2  0  0  0  0  0  0  0  0  0
   39.7600   23.6030   35.3430 C   0  0  0  0  0  0  0  0  0  0  0  0
   40.0770   22.3550   35.9200 O   0  0  0  0  0  0  0  0  0  0  0  0
   40.1430   22.6160   37.3070 C   0  0  0  0  0  0  0  0  0  0  0  0
   38.8960   23.2830   37.8110 C   0  0  2  0  0  0  0  0  0  0  0  0
   36.9740   23.4740   37.1610 H   0  0  0  0  0  0  0  0  0  0  0  0
   37.6750   23.8850   34.7960 H   0  0  0  0  0  0  0  0  0  0  0  0
   39.8520   23.4640   34.2530 H   0  0  0  0  0  0  0  0  0  0  0  0
   40.4950   24.3570   35.6820 H   0  0  0  0  0  0  0  0  0  0  0  0
   40.2280   21.6220   37.7930 H   0  0  0  0  0  0  0  0  0  0  0  0
   41.0770   23.1510   37.5760 H   0  0  0  0  0  0  0  0  0  0  0  0
   39.1110   24.3400   38.0330 H   0  0  0  0  0  0  0  0  0  0  0  0
   38.4080   22.6060   38.9440 O   0  0  0  0  0  0  0  0  0  0  0  0
   38.8710   23.0790   39.7080 H   0  0  0  0  0  0  0  0  0  0  0  0
  1  6  1  0  0  0  0
  1 21  1  0  0  0  0
  2  1  2  0  0  0  0
  3  4  2  0  0  0  0
  3  2  1  0  0  0  0
  4  5  1  0  0  0  0
  5 10  1  0  0  0  0
  5  6  2  0  0  0  0
  7  2  1  0  0  0  0
  8  3  1  0  0  0  0
 10  9  2  0  0  0  0
 11 13  2  0  0  0  0
 11 10  1  0  0  0  0
 12 11  1  0  0  0  0
 13 19  1  0  0  0  0
 14 16  1  0  0  0  0
 14 13  1  0  0  0  0
 15 14  1  0  0  0  0
 16 17  2  0  0  0  0
 17 19  1  0  0  0  0
 17 18  1  0  0  0  0
 19 20  2  0  0  0  0
 20  9  1  0  0  0  0
 22 28  1  0  0  0  0
 22 27  1  0  0  0  0
 23 29  1  6  0  0  0
 23 21  1  0  0  0  0
 23 22  1  0  0  0  0
 24 23  1  0  0  0  0
 24 31  1  0  0  0  0
 24 25  1  0  0  0  0
 25 26  1  0  0  0  0
 26 33  1  0  0  0  0
 26 32  1  0  0  0  0
 26 27  1  0  0  0  0
 27 34  1  1  0  0  0
 27 35  1  0  0  0  0
 30 24  1  0  0  0  0
 35 36  1  0  0  0  0
M  END
>  <minimizedAffinity>
-5.97607231

$$$$

 OpenBabel03272502193D

 36 39  0  0  1  0  0  0  0  0999 V2000
   37.6020   25.9290   34.3810 C   0  0  0  0  0  0  0  0  0  0  0  0
   37.6050   25.0440   33.2970 C   0  0  0  0  0  0  0  0  0  0  0  0
   37.0550   25.4600   32.0940 C   0  0  0  0  0  0  0  0  0  0  0  0
   36.5320   26.7300   32.0370 N   0  0  0  0  0  0  0  0  0  0  0  0
   36.5390   27.5560   33.0800 C   0  0  0  0  0  0  0  0  0  0  0  0
   37.0760   27.1380   34.2360 N   0  0  0  0  0  0  0  0  0  0  0  0
   38.0080   24.0450   33.3150 H   0  0  0  0  0  0  0  0  0  0  0  0
   37.0220   24.8280   31.2130 H   0  0  0  0  0  0  0  0  0  0  0  0
   35.7170   29.6410   34.1100 C   0  0  0  0  0  3  0  0  0  0  0  0
   35.9720   28.8980   32.9710 C   0  0  0  0  0  0  0  0  0  0  0  0
   35.6990   29.3990   31.7000 C   0  0  0  0  0  0  0  0  0  0  0  0
   35.9040   28.8060   30.8110 H   0  0  0  0  0  0  0  0  0  0  0  0
   35.1630   30.6610   31.5500 C   0  0  0  0  0  0  0  0  0  0  0  0
   34.8180   31.3590   30.4580 N   0  0  0  0  0  0  0  0  0  0  0  0
   34.8860   31.0760   29.4350 H   0  0  0  0  0  0  0  0  0  0  0  0
   34.3360   32.5510   30.8260 N   0  0  0  0  0  0  0  0  0  0  0  0
   34.3790   32.6070   32.1870 C   0  0  0  0  0  0  0  0  0  0  0  0
   34.0790   33.4010   32.8470 H   0  0  0  0  0  0  0  0  0  0  0  0
   34.8970   31.4270   32.6550 C   0  0  0  0  0  0  0  0  0  0  0  0
   35.1800   30.8940   33.8920 C   0  0  0  0  0  3  0  0  0  0  0  0
   38.3400   25.2520   35.8410 S   0  0  0  0  0  0  0  0  0  0  0  0
   38.1440   22.7730   36.8980 N   0  0  0  0  0  0  0  0  0  0  0  0
   38.5600   23.4440   35.6860 C   0  0  2  0  0  0  0  0  0  0  0  0
   40.0250   23.1520   35.4800 C   0  0  0  0  0  0  0  0  0  0  0  0
   40.4360   22.0410   36.2460 O   0  0  0  0  0  0  0  0  0  0  0  0
   40.4060   22.5040   37.5810 C   0  0  0  0  0  0  0  0  0  0  0  0
   39.0750   23.1000   37.9360 C   0  0  2  0  0  0  0  0  0  0  0  0
   37.1790   22.9900   37.1980 H   0  0  0  0  0  0  0  0  0  0  0  0
   37.9520   23.1300   34.8250 H   0  0  0  0  0  0  0  0  0  0  0  0
   40.1850   22.8690   34.4270 H   0  0  0  0  0  0  0  0  0  0  0  0
   40.6630   24.0200   35.7290 H   0  0  0  0  0  0  0  0  0  0  0  0
   40.5650   21.6050   38.2110 H   0  0  0  0  0  0  0  0  0  0  0  0
   41.2670   23.1680   37.8000 H   0  0  0  0  0  0  0  0  0  0  0  0
   39.1710   24.1950   38.0070 H   0  0  0  0  0  0  0  0  0  0  0  0
   38.6010   22.5450   39.1400 O   0  0  0  0  0  0  0  0  0  0  0  0
   38.9750   23.1680   39.8410 H   0  0  0  0  0  0  0  0  0  0  0  0
  1 21  1  0  0  0  0
  2  7  1  0  0  0  0
  2  1  2  0  0  0  0
  3  2  1  0  0  0  0
  4  3  2  0  0  0  0
  4  5  1  0  0  0  0
  5  6  2  0  0  0  0
  6  1  1  0  0  0  0
  8  3  1  0  0  0  0
 10  5  1  0  0  0  0
 10  9  2  0  0  0  0
 11 10  1  0  0  0  0
 12 11  1  0  0  0  0
 13 11  2  0  0  0  0
 13 19  1  0  0  0  0
 14 16  1  0  0  0  0
 14 13  1  0  0  0  0
 15 14  1  0  0  0  0
 16 17  2  0  0  0  0
 17 19  1  0  0  0  0
 17 18  1  0  0  0  0
 19 20  2  0  0  0  0
 20  9  1  0  0  0  0
 22 28  1  0  0  0  0
 22 27  1  0  0  0  0
 23 29  1  6  0  0  0
 23 21  1  0  0  0  0
 23 22  1  0  0  0  0
 24 23  1  0  0  0  0
 24 31  1  0  0  0  0
 24 25  1  0  0  0  0
 25 26  1  0  0  0  0
 26 33  1  0  0  0  0
 26 27  1  0  0  0  0
 26 32  1  0  0  0  0
 27 34  1  1  0  0  0
 27 35  1  0  0  0  0
 30 24  1  0  0  0  0
 35 36  1  0  0  0  0
M  END
>  <minimizedAffinity>
-5.96210289

$$$$

 OpenBabel03272502193D

 36 39  0  0  1  0  0  0  0  0999 V2000
   35.6900   29.4390   33.9730 C   0  0  0  0  0  0  0  0  0  0  0  0
   35.8660   29.8050   32.6340 C   0  0  0  0  0  0  0  0  0  0  0  0
   36.5620   28.9490   31.7930 C   0  0  0  0  0  0  0  0  0  0  0  0
   37.0420   27.7790   32.3300 N   0  0  0  0  0  0  0  0  0  0  0  0
   36.8630   27.4480   33.6060 C   0  0  0  0  0  0  0  0  0  0  0  0
   36.1880   28.2880   34.4060 N   0  0  0  0  0  0  0  0  0  0  0  0
   35.5010   30.7160   32.1870 H   0  0  0  0  0  0  0  0  0  0  0  0
   36.7370   29.1680   30.7450 H   0  0  0  0  0  0  0  0  0  0  0  0
   37.7700   25.1800   33.2680 C   0  0  0  0  0  3  0  0  0  0  0  0
   37.3920   26.1930   34.1320 C   0  0  0  0  0  0  0  0  0  0  0  0
   37.5020   26.0470   35.5130 C   0  0  0  0  0  0  0  0  0  0  0  0
   37.2020   26.8510   36.1840 H   0  0  0  0  0  0  0  0  0  0  0  0
   37.9960   24.8790   36.0530 C   0  0  0  0  0  0  0  0  0  0  0  0
   38.1980   24.5000   37.3240 N   0  0  0  0  0  0  0  0  0  0  0  0
   38.0130   25.0400   38.2200 H   0  0  0  0  0  0  0  0  0  0  0  0
   38.7010   23.2600   37.3430 N   0  0  0  0  0  0  0  0  0  0  0  0
   38.8200   22.8470   36.0500 C   0  0  0  0  0  0  0  0  0  0  0  0
   39.1850   21.9130   35.6630 H   0  0  0  0  0  0  0  0  0  0  0  0
   38.3810   23.8540   35.2290 C   0  0  0  0  0  0  0  0  0  0  0  0
   38.2560   24.0370   33.8710 C   0  0  0  0  0  3  0  0  0  0  0  0
   34.7840   30.6340   34.9130 S   0  0  0  0  0  0  0  0  0  0  0  0
   35.2240   32.0860   37.1480 N   0  0  0  0  0  0  0  0  0  0  0  0
   35.9040   31.6350   35.9540 C   0  0  2  0  0  0  0  0  0  0  0  0
   36.3220   32.8580   35.1750 C   0  0  0  0  0  0  0  0  0  0  0  0
   36.3030   34.0110   35.9890 O   0  0  0  0  0  0  0  0  0  0  0  0
   34.9310   34.2560   36.2200 C   0  0  0  0  0  0  0  0  0  0  0  0
   34.2310   33.0450   36.7680 C   0  0  2  0  0  0  0  0  0  0  0  0
   34.7970   31.3300   37.7090 H   0  0  0  0  0  0  0  0  0  0  0  0
   36.7600   30.9910   36.1990 H   0  0  0  0  0  0  0  0  0  0  0  0
   37.3680   32.7320   34.8540 H   0  0  0  0  0  0  0  0  0  0  0  0
   35.6810   33.0280   34.2900 H   0  0  0  0  0  0  0  0  0  0  0  0
   34.8970   35.0560   36.9880 H   0  0  0  0  0  0  0  0  0  0  0  0
   34.4390   34.6910   35.3260 H   0  0  0  0  0  0  0  0  0  0  0  0
   33.5860   32.6120   35.9870 H   0  0  0  0  0  0  0  0  0  0  0  0
   33.4930   33.3910   37.9150 O   0  0  0  0  0  0  0  0  0  0  0  0
   32.5900   33.6400   37.5380 H   0  0  0  0  0  0  0  0  0  0  0  0
  1  6  1  0  0  0  0
  1 21  1  0  0  0  0
  2  1  2  0  0  0  0
  3  4  2  0  0  0  0
  3  2  1  0  0  0  0
  4  5  1  0  0  0  0
  5 10  1  0  0  0  0
  5  6  2  0  0  0  0
  7  2  1  0  0  0  0
  8  3  1  0  0  0  0
  9 20  2  0  0  0  0
  9 10  1  0  0  0  0
 10 11  2  0  0  0  0
 11 13  1  0  0  0  0
 11 12  1  0  0  0  0
 13 14  1  0  0  0  0
 14 16  1  0  0  0  0
 14 15  1  0  0  0  0
 17 16  2  0  0  0  0
 18 17  1  0  0  0  0
 19 17  1  0  0  0  0
 19 13  2  0  0  0  0
 20 19  1  0  0  0  0
 21 23  1  0  0  0  0
 22 28  1  0  0  0  0
 23 29  1  1  0  0  0
 23 22  1  0  0  0  0
 24 23  1  0  0  0  0
 24 25  1  0  0  0  0
 25 26  1  0  0  0  0
 26 27  1  0  0  0  0
 26 32  1  0  0  0  0
 27 34  1  6  0  0  0
 27 22  1  0  0  0  0
 27 35  1  0  0  0  0
 30 24  1  0  0  0  0
 31 24  1  0  0  0  0
 33 26  1  0  0  0  0
 36 35  1  0  0  0  0
M  END
>  <minimizedAffinity>
-5.93934059

$$$$

 OpenBabel03272502193D

 36 39  0  0  1  0  0  0  0  0999 V2000
   37.4270   26.6870   33.2750 C   0  0  0  0  0  0  0  0  0  0  0  0
   37.8490   27.0540   31.9920 C   0  0  0  0  0  0  0  0  0  0  0  0
   37.4140   28.2610   31.4660 C   0  0  0  0  0  0  0  0  0  0  0  0
   36.5850   29.0340   32.2430 N   0  0  0  0  0  0  0  0  0  0  0  0
   36.1960   28.6670   33.4620 C   0  0  0  0  0  0  0  0  0  0  0  0
   36.6270   27.4960   33.9560 N   0  0  0  0  0  0  0  0  0  0  0  0
   38.4970   26.4670   31.3620 H   0  0  0  0  0  0  0  0  0  0  0  0
   37.6990   28.6090   30.4780 H   0  0  0  0  0  0  0  0  0  0  0  0
   33.9410   29.4230   34.1150 C   0  0  0  0  0  3  0  0  0  0  0  0
   35.3140   29.5230   34.2510 C   0  0  0  0  0  0  0  0  0  0  0  0
   35.8920   30.4330   35.1330 C   0  0  0  0  0  0  0  0  0  0  0  0
   36.9740   30.5040   35.2330 H   0  0  0  0  0  0  0  0  0  0  0  0
   35.0980   31.2610   35.8980 C   0  0  0  0  0  0  0  0  0  0  0  0
   35.4030   32.2030   36.8040 N   0  0  0  0  0  0  0  0  0  0  0  0
   36.3600   32.5230   37.1370 H   0  0  0  0  0  0  0  0  0  0  0  0
   34.2760   32.7410   37.2830 N   0  0  0  0  0  0  0  0  0  0  0  0
   33.2320   32.1220   36.6630 C   0  0  0  0  0  0  0  0  0  0  0  0
   32.1760   32.2810   36.7850 H   0  0  0  0  0  0  0  0  0  0  0  0
   33.7340   31.1900   35.7910 C   0  0  0  0  0  0  0  0  0  0  0  0
   33.2030   30.2780   34.9070 C   0  0  0  0  0  3  0  0  0  0  0  0
   38.0680   25.1240   33.8030 S   0  0  0  0  0  0  0  0  0  0  0  0
   39.5150   24.0120   35.7950 N   0  0  0  0  0  0  0  0  0  0  0  0
   38.9120   25.2720   35.4170 C   0  0  2  0  0  0  0  0  0  0  0  0
   37.8870   25.6230   36.4670 C   0  0  0  0  0  0  0  0  0  0  0  0
   38.0980   24.8860   37.6510 O   0  0  0  0  0  0  0  0  0  0  0  0
   37.7370   23.5620   37.3090 C   0  0  0  0  0  0  0  0  0  0  0  0
   38.4680   23.0810   36.0890 C   0  0  2  0  0  0  0  0  0  0  0  0
   40.1610   23.6180   35.0910 H   0  0  0  0  0  0  0  0  0  0  0  0
   39.6690   26.0600   35.3000 H   0  0  0  0  0  0  0  0  0  0  0  0
   38.0140   26.6820   36.7430 H   0  0  0  0  0  0  0  0  0  0  0  0
   36.8530   25.4550   36.1130 H   0  0  0  0  0  0  0  0  0  0  0  0
   38.0490   22.9380   38.1720 H   0  0  0  0  0  0  0  0  0  0  0  0
   36.6370   23.4440   37.2490 H   0  0  0  0  0  0  0  0  0  0  0  0
   37.7690   23.0380   35.2380 H   0  0  0  0  0  0  0  0  0  0  0  0
   39.0550   21.8270   36.3390 O   0  0  0  0  0  0  0  0  0  0  0  0
   38.3320   21.1780   36.0620 H   0  0  0  0  0  0  0  0  0  0  0  0
  1 21  1  0  0  0  0
  1  6  1  0  0  0  0
  2  1  2  0  0  0  0
  3  2  1  0  0  0  0
  3  4  2  0  0  0  0
  4  5  1  0  0  0  0
  5  6  2  0  0  0  0
  5 10  1  0  0  0  0
  7  2  1  0  0  0  0
  8  3  1  0  0  0  0
  9 10  2  0  0  0  0
  9 20  1  0  0  0  0
 10 11  1  0  0  0  0
 11 12  1  0  0  0  0
 11 13  2  0  0  0  0
 13 14  1  0  0  0  0
 14 15  1  0  0  0  0
 14 16  1  0  0  0  0
 17 18  1  0  0  0  0
 17 16  2  0  0  0  0
 19 13  1  0  0  0  0
 19 17  1  0  0  0  0
 20 19  2  0  0  0  0
 21 23  1  0  0  0  0
 22 27  1  0  0  0  0
 23 29  1  6  0  0  0
 23 22  1  0  0  0  0
 23 24  1  0  0  0  0
 24 30  1  0  0  0  0
 24 25  1  0  0  0  0
 26 25  1  0  0  0  0
 26 32  1  0  0  0  0
 27 34  1  6  0  0  0
 27 35  1  0  0  0  0
 27 26  1  0  0  0  0
 28 22  1  0  0  0  0
 31 24  1  0  0  0  0
 33 26  1  0  0  0  0
 36 35  1  0  0  0  0
M  END
>  <minimizedAffinity>
-5.90198135

$$$$

 OpenBabel03272502193D

 36 39  0  0  1  0  0  0  0  0999 V2000
   37.4620   24.0660   32.9880 C   0  0  0  0  0  0  0  0  0  0  0  0
   36.7140   23.2090   32.1720 C   0  0  0  0  0  0  0  0  0  0  0  0
   35.8670   23.7620   31.2220 C   0  0  0  0  0  0  0  0  0  0  0  0
   35.8130   25.1320   31.1380 N   0  0  0  0  0  0  0  0  0  0  0  0
   36.5330   25.9290   31.9230 C   0  0  0  0  0  0  0  0  0  0  0  0
   37.3460   25.3780   32.8360 N   0  0  0  0  0  0  0  0  0  0  0  0
   36.7380   22.1320   32.2180 H   0  0  0  0  0  0  0  0  0  0  0  0
   35.2580   23.1600   30.5570 H   0  0  0  0  0  0  0  0  0  0  0  0
   36.0970   28.1570   32.8890 C   0  0  0  0  0  3  0  0  0  0  0  0
   36.4410   27.3810   31.7950 C   0  0  0  0  0  0  0  0  0  0  0  0
   36.7060   27.9540   30.5540 C   0  0  0  0  0  0  0  0  0  0  0  0
   36.9760   27.3350   29.7000 H   0  0  0  0  0  0  0  0  0  0  0  0
   36.6310   29.3210   30.3870 C   0  0  0  0  0  0  0  0  0  0  0  0
   36.8360   30.1010   29.3150 N   0  0  0  0  0  0  0  0  0  0  0  0
   37.1110   29.8210   28.3280 H   0  0  0  0  0  0  0  0  0  0  0  0
   36.6410   31.3810   29.6530 N   0  0  0  0  0  0  0  0  0  0  0  0
   36.3030   31.4080   30.9730 C   0  0  0  0  0  0  0  0  0  0  0  0
   36.0720   32.2500   31.6010 H   0  0  0  0  0  0  0  0  0  0  0  0
   36.2940   30.1210   31.4470 C   0  0  0  0  0  0  0  0  0  0  0  0
   36.0380   29.5160   32.6560 C   0  0  0  0  0  3  0  0  0  0  0  0
   38.4910   23.2080   34.1450 S   0  0  0  0  0  0  0  0  0  0  0  0
   39.9840   23.6490   36.3540 N   0  0  0  0  0  0  0  0  0  0  0  0
   39.0580   24.3280   35.4730 C   0  0  2  0  0  0  0  0  0  0  0  0
   37.8640   24.7450   36.2960 C   0  0  0  0  0  0  0  0  0  0  0  0
   38.1640   24.7260   37.6750 O   0  0  0  0  0  0  0  0  0  0  0  0
   38.2840   23.3540   37.9900 C   0  0  0  0  0  0  0  0  0  0  0  0
   39.2610   22.6550   37.0890 C   0  0  2  0  0  0  0  0  0  0  0  0
   40.7960   23.2240   35.8750 H   0  0  0  0  0  0  0  0  0  0  0  0
   39.5340   25.1850   34.9750 H   0  0  0  0  0  0  0  0  0  0  0  0
   37.6160   25.7910   36.0550 H   0  0  0  0  0  0  0  0  0  0  0  0
   36.9840   24.1030   36.1080 H   0  0  0  0  0  0  0  0  0  0  0  0
   38.6800   23.3200   39.0260 H   0  0  0  0  0  0  0  0  0  0  0  0
   37.2920   22.8610   38.0430 H   0  0  0  0  0  0  0  0  0  0  0  0
   38.7120   22.0100   36.3850 H   0  0  0  0  0  0  0  0  0  0  0  0
   40.1840   21.9180   37.8530 O   0  0  0  0  0  0  0  0  0  0  0  0
   39.7410   21.0150   37.9360 H   0  0  0  0  0  0  0  0  0  0  0  0
  1 21  1  0  0  0  0
  2  7  1  0  0  0  0
  2  1  2  0  0  0  0
  3  2  1  0  0  0  0
  4  3  2  0  0  0  0
  4  5  1  0  0  0  0
  5  6  2  0  0  0  0
  6  1  1  0  0  0  0
  8  3  1  0  0  0  0
 10  5  1  0  0  0  0
 10  9  2  0  0  0  0
 11 10  1  0  0  0  0
 12 11  1  0  0  0  0
 13 11  2  0  0  0  0
 13 19  1  0  0  0  0
 14 16  1  0  0  0  0
 14 13  1  0  0  0  0
 15 14  1  0  0  0  0
 16 17  2  0  0  0  0
 17 19  1  0  0  0  0
 17 18  1  0  0  0  0
 19 20  2  0  0  0  0
 20  9  1  0  0  0  0
 21 23  1  0  0  0  0
 22 27  1  0  0  0  0
 23 29  1  6  0  0  0
 23 24  1  0  0  0  0
 23 22  1  0  0  0  0
 24 25  1  0  0  0  0
 25 26  1  0  0  0  0
 26 33  1  0  0  0  0
 26 32  1  0  0  0  0
 27 34  1  6  0  0  0
 27 35  1  0  0  0  0
 27 26  1  0  0  0  0
 28 22  1  0  0  0  0
 30 24  1  0  0  0  0
 31 24  1  0  0  0  0
 35 36  1  0  0  0  0
M  END
>  <minimizedAffinity>
-5.89131784

$$$$

 OpenBabel03272502193D

 36 39  0  0  1  0  0  0  0  0999 V2000
   37.2290   27.5360   32.6530 C   0  0  0  0  0  0  0  0  0  0  0  0
   37.5290   28.1660   31.4400 C   0  0  0  0  0  0  0  0  0  0  0  0
   36.9740   29.4100   31.1790 C   0  0  0  0  0  0  0  0  0  0  0  0
   36.1530   29.9560   32.1360 N   0  0  0  0  0  0  0  0  0  0  0  0
   35.8810   29.3400   33.2840 C   0  0  0  0  0  0  0  0  0  0  0  0
   36.4260   28.1370   33.5210 N   0  0  0  0  0  0  0  0  0  0  0  0
   38.1690   27.7610   30.6730 H   0  0  0  0  0  0  0  0  0  0  0  0
   37.1620   29.9560   30.2610 H   0  0  0  0  0  0  0  0  0  0  0  0
   33.6570   29.6380   34.3080 C   0  0  0  0  0  3  0  0  0  0  0  0
   35.0020   29.9610   34.2720 C   0  0  0  0  0  0  0  0  0  0  0  0
   35.5530   30.8770   35.1640 C   0  0  0  0  0  0  0  0  0  0  0  0
   36.6130   31.1240   35.1270 H   0  0  0  0  0  0  0  0  0  0  0  0
   34.7610   31.4870   36.1130 C   0  0  0  0  0  0  0  0  0  0  0  0
   35.0450   32.3860   37.0680 N   0  0  0  0  0  0  0  0  0  0  0  0
   35.9780   32.8370   37.3050 H   0  0  0  0  0  0  0  0  0  0  0  0
   33.9310   32.6800   37.7480 N   0  0  0  0  0  0  0  0  0  0  0  0
   32.9170   31.9460   37.2080 C   0  0  0  0  0  0  0  0  0  0  0  0
   31.8790   31.9110   37.4840 H   0  0  0  0  0  0  0  0  0  0  0  0
   33.4240   31.1930   36.1800 C   0  0  0  0  0  0  0  0  0  0  0  0
   32.9190   30.2830   35.2800 C   0  0  0  0  0  3  0  0  0  0  0  0
   38.0130   25.9590   32.8360 S   0  0  0  0  0  0  0  0  0  0  0  0
   36.6620   25.2650   30.6020 N   0  0  0  0  0  0  0  0  0  0  0  0
   37.9030   24.9890   31.2910 C   0  0  2  0  0  0  0  0  0  0  0  0
   37.9180   23.5220   31.6410 C   0  0  0  0  0  0  0  0  0  0  0  0
   36.9730   22.8060   30.8750 O   0  0  0  0  0  0  0  0  0  0  0  0
   35.7210   23.2240   31.3810 C   0  0  0  0  0  0  0  0  0  0  0  0
   35.5860   24.7200   31.3740 C   0  0  2  0  0  0  0  0  0  0  0  0
   36.4940   26.2660   30.4060 H   0  0  0  0  0  0  0  0  0  0  0  0
   38.7730   25.2760   30.6820 H   0  0  0  0  0  0  0  0  0  0  0  0
   38.9020   23.1040   31.3740 H   0  0  0  0  0  0  0  0  0  0  0  0
   37.7210   23.3470   32.7150 H   0  0  0  0  0  0  0  0  0  0  0  0
   34.9650   22.8030   30.6880 H   0  0  0  0  0  0  0  0  0  0  0  0
   35.5050   22.7600   32.3650 H   0  0  0  0  0  0  0  0  0  0  0  0
   35.6520   25.0980   32.4070 H   0  0  0  0  0  0  0  0  0  0  0  0
   34.3750   25.0940   30.7630 O   0  0  0  0  0  0  0  0  0  0  0  0
   33.7280   25.1220   31.5380 H   0  0  0  0  0  0  0  0  0  0  0  0
  1 21  1  0  0  0  0
  1  6  1  0  0  0  0
  2  1  2  0  0  0  0
  3  2  1  0  0  0  0
  3  4  2  0  0  0  0
  4  5  1  0  0  0  0
  5  6  2  0  0  0  0
  5 10  1  0  0  0  0
  7  2  1  0  0  0  0
  8  3  1  0  0  0  0
  9 20  1  0  0  0  0
 10  9  2  0  0  0  0
 10 11  1  0  0  0  0
 11 13  2  0  0  0  0
 12 11  1  0  0  0  0
 13 19  1  0  0  0  0
 13 14  1  0  0  0  0
 14 15  1  0  0  0  0
 14 16  1  0  0  0  0
 17 18  1  0  0  0  0
 17 16  2  0  0  0  0
 19 17  1  0  0  0  0
 20 19  2  0  0  0  0
 22 23  1  0  0  0  0
 22 27  1  0  0  0  0
 23 29  1  6  0  0  0
 23 24  1  0  0  0  0
 23 21  1  0  0  0  0
 24 31  1  0  0  0  0
 25 26  1  0  0  0  0
 25 24  1  0  0  0  0
 26 33  1  0  0  0  0
 27 26  1  0  0  0  0
 27 34  1  1  0  0  0
 28 22  1  0  0  0  0
 30 24  1  0  0  0  0
 32 26  1  0  0  0  0
 35 27  1  0  0  0  0
 35 36  1  0  0  0  0
M  END
>  <minimizedAffinity>
-5.84844589

$$$$

 OpenBabel03272502193D

 36 39  0  0  1  0  0  0  0  0999 V2000
   37.3430   24.6420   32.7940 C   0  0  0  0  0  0  0  0  0  0  0  0
   36.5410   23.8740   31.9420 C   0  0  0  0  0  0  0  0  0  0  0  0
   35.6040   24.5170   31.1470 C   0  0  0  0  0  0  0  0  0  0  0  0
   35.5180   25.8850   31.2440 N   0  0  0  0  0  0  0  0  0  0  0  0
   36.2910   26.5970   32.0600 C   0  0  0  0  0  0  0  0  0  0  0  0
   37.1920   25.9590   32.8220 N   0  0  0  0  0  0  0  0  0  0  0  0
   36.5880   22.8010   31.8470 H   0  0  0  0  0  0  0  0  0  0  0  0
   34.9490   23.9860   30.4650 H   0  0  0  0  0  0  0  0  0  0  0  0
   36.3030   28.8170   30.9830 C   0  0  0  0  0  3  0  0  0  0  0  0
   36.1620   28.0510   32.1270 C   0  0  0  0  0  0  0  0  0  0  0  0
   35.8980   28.6350   33.3640 C   0  0  0  0  0  0  0  0  0  0  0  0
   35.7880   28.0230   34.2570 H   0  0  0  0  0  0  0  0  0  0  0  0
   35.7690   30.0030   33.4740 C   0  0  0  0  0  0  0  0  0  0  0  0
   35.5190   30.7930   34.5300 N   0  0  0  0  0  0  0  0  0  0  0  0
   35.3610   30.5210   35.5450 H   0  0  0  0  0  0  0  0  0  0  0  0
   35.4870   32.0690   34.1320 N   0  0  0  0  0  0  0  0  0  0  0  0
   35.7230   32.0850   32.7890 C   0  0  0  0  0  0  0  0  0  0  0  0
   35.7750   32.9220   32.1160 H   0  0  0  0  0  0  0  0  0  0  0  0
   35.9010   30.7940   32.3630 C   0  0  0  0  0  0  0  0  0  0  0  0
   36.1640   30.1780   31.1610 C   0  0  0  0  0  3  0  0  0  0  0  0
   38.4860   23.6760   33.7390 S   0  0  0  0  0  0  0  0  0  0  0  0
   39.9410   23.7760   36.0130 N   0  0  0  0  0  0  0  0  0  0  0  0
   39.0760   24.6020   35.2000 C   0  0  2  0  0  0  0  0  0  0  0  0
   37.8840   24.9830   36.0430 C   0  0  0  0  0  0  0  0  0  0  0  0
   38.1460   24.7890   37.4160 O   0  0  0  0  0  0  0  0  0  0  0  0
   38.1860   23.3840   37.5690 C   0  0  0  0  0  0  0  0  0  0  0  0
   39.1490   22.7440   36.6120 C   0  0  2  0  0  0  0  0  0  0  0  0
   40.7430   23.3650   35.5050 H   0  0  0  0  0  0  0  0  0  0  0  0
   39.6070   25.4830   34.8160 H   0  0  0  0  0  0  0  0  0  0  0  0
   37.6960   26.0620   35.9210 H   0  0  0  0  0  0  0  0  0  0  0  0
   36.9760   24.4170   35.7630 H   0  0  0  0  0  0  0  0  0  0  0  0
   38.5530   23.2090   38.6020 H   0  0  0  0  0  0  0  0  0  0  0  0
   37.1690   22.9430   37.5440 H   0  0  0  0  0  0  0  0  0  0  0  0
   38.5870   22.2150   35.8270 H   0  0  0  0  0  0  0  0  0  0  0  0
   40.0130   21.8740   37.3030 O   0  0  0  0  0  0  0  0  0  0  0  0
   39.5220   20.9920   37.2700 H   0  0  0  0  0  0  0  0  0  0  0  0
  1  6  1  0  0  0  0
  1 21  1  0  0  0  0
  2  1  2  0  0  0  0
  3  4  2  0  0  0  0
  3  2  1  0  0  0  0
  4  5  1  0  0  0  0
  5 10  1  0  0  0  0
  5  6  2  0  0  0  0
  7  2  1  0  0  0  0
  8  3  1  0  0  0  0
  9 20  2  0  0  0  0
  9 10  1  0  0  0  0
 10 11  2  0  0  0  0
 11 13  1  0  0  0  0
 11 12  1  0  0  0  0
 13 14  1  0  0  0  0
 14 15  1  0  0  0  0
 16 14  1  0  0  0  0
 17 16  2  0  0  0  0
 18 17  1  0  0  0  0
 19 17  1  0  0  0  0
 19 13  2  0  0  0  0
 20 19  1  0  0  0  0
 21 23  1  0  0  0  0
 22 27  1  0  0  0  0
 23 29  1  6  0  0  0
 23 22  1  0  0  0  0
 23 24  1  0  0  0  0
 24 25  1  0  0  0  0
 25 26  1  0  0  0  0
 26 32  1  0  0  0  0
 27 34  1  6  0  0  0
 27 35  1  0  0  0  0
 27 26  1  0  0  0  0
 28 22  1  0  0  0  0
 30 24  1  0  0  0  0
 31 24  1  0  0  0  0
 33 26  1  0  0  0  0
 36 35  1  0  0  0  0
M  END
>  <minimizedAffinity>
-5.72993517

$$$$

 OpenBabel03272502193D

 36 39  0  0  1  0  0  0  0  0999 V2000
   37.9340   26.6020   34.6470 C   0  0  0  0  0  0  0  0  0  0  0  0
   36.7720   27.3760   34.7450 C   0  0  0  0  0  0  0  0  0  0  0  0
   36.3980   28.1580   33.6630 C   0  0  0  0  0  0  0  0  0  0  0  0
   37.1990   28.1270   32.5470 N   0  0  0  0  0  0  0  0  0  0  0  0
   38.2990   27.3840   32.4740 C   0  0  0  0  0  0  0  0  0  0  0  0
   38.6470   26.6320   33.5300 N   0  0  0  0  0  0  0  0  0  0  0  0
   36.1260   27.4180   35.6080 H   0  0  0  0  0  0  0  0  0  0  0  0
   35.5110   28.7830   33.6680 H   0  0  0  0  0  0  0  0  0  0  0  0
   40.4770   27.1310   31.3440 C   0  0  0  0  0  3  0  0  0  0  0  0
   39.1190   27.3840   31.2650 C   0  0  0  0  0  0  0  0  0  0  0  0
   38.4990   27.6440   30.0450 C   0  0  0  0  0  0  0  0  0  0  0  0
   37.4300   27.8410   29.9940 H   0  0  0  0  0  0  0  0  0  0  0  0
   39.2340   27.6530   28.8790 C   0  0  0  0  0  0  0  0  0  0  0  0
   38.8800   27.8720   27.6030 N   0  0  0  0  0  0  0  0  0  0  0  0
   37.9190   28.0920   27.2050 H   0  0  0  0  0  0  0  0  0  0  0  0
   39.9590   27.7740   26.8190 N   0  0  0  0  0  0  0  0  0  0  0  0
   41.0220   27.4860   27.6210 C   0  0  0  0  0  0  0  0  0  0  0  0
   42.0530   27.3320   27.3580 H   0  0  0  0  0  0  0  0  0  0  0  0
   40.5810   27.4070   28.9170 C   0  0  0  0  0  0  0  0  0  0  0  0
   41.1560   27.1560   30.1420 C   0  0  0  0  0  3  0  0  0  0  0  0
   38.2740   25.6610   36.1080 S   0  0  0  0  0  0  0  0  0  0  0  0
   37.9580   23.0880   36.8680 N   0  0  0  0  0  0  0  0  0  0  0  0
   38.3770   23.8760   35.7300 C   0  0  2  0  0  0  0  0  0  0  0  0
   39.8150   23.5280   35.4350 C   0  0  0  0  0  0  0  0  0  0  0  0
   40.1810   22.3100   36.0470 O   0  0  0  0  0  0  0  0  0  0  0  0
   40.2190   22.6090   37.4280 C   0  0  0  0  0  0  0  0  0  0  0  0
   38.9380   23.2320   37.9020 C   0  0  2  0  0  0  0  0  0  0  0  0
   37.0170   23.3210   37.2280 H   0  0  0  0  0  0  0  0  0  0  0  0
   37.7260   23.7050   34.8610 H   0  0  0  0  0  0  0  0  0  0  0  0
   39.9250   23.3670   34.3510 H   0  0  0  0  0  0  0  0  0  0  0  0
   40.5120   24.3220   35.7630 H   0  0  0  0  0  0  0  0  0  0  0  0
   40.3420   21.6320   37.9400 H   0  0  0  0  0  0  0  0  0  0  0  0
   41.1250   23.1910   37.6930 H   0  0  0  0  0  0  0  0  0  0  0  0
   39.1040   24.3030   38.1000 H   0  0  0  0  0  0  0  0  0  0  0  0
   38.4680   22.5620   39.0470 O   0  0  0  0  0  0  0  0  0  0  0  0
   38.9010   23.0730   39.8030 H   0  0  0  0  0  0  0  0  0  0  0  0
  1  2  1  0  0  0  0
  1 21  1  0  0  0  0
  2  7  1  0  0  0  0
  3  8  1  0  0  0  0
  3  2  2  0  0  0  0
  4  3  1  0  0  0  0
  5  4  2  0  0  0  0
  5  6  1  0  0  0  0
  6  1  2  0  0  0  0
 10  9  1  0  0  0  0
 10  5  1  0  0  0  0
 11 10  2  0  0  0  0
 12 11  1  0  0  0  0
 13 19  2  0  0  0  0
 13 11  1  0  0  0  0
 14 13  1  0  0  0  0
 15 14  1  0  0  0  0
 16 14  1  0  0  0  0
 16 17  2  0  0  0  0
 17 19  1  0  0  0  0
 18 17  1  0  0  0  0
 19 20  1  0  0  0  0
 20  9  2  0  0  0  0
 22 28  1  0  0  0  0
 22 27  1  0  0  0  0
 23 29  1  6  0  0  0
 23 21  1  0  0  0  0
 23 22  1  0  0  0  0
 24 23  1  0  0  0  0
 24 31  1  0  0  0  0
 24 25  1  0  0  0  0
 25 26  1  0  0  0  0
 26 33  1  0  0  0  0
 26 27  1  0  0  0  0
 26 32  1  0  0  0  0
 27 34  1  1  0  0  0
 27 35  1  0  0  0  0
 30 24  1  0  0  0  0
 35 36  1  0  0  0  0
M  END
>  <minimizedAffinity>
-5.63020277

$$$$
