
 OpenBabel03272509073D

 43 47  0  0  0  0  0  0  0  0999 V2000
   33.5310   26.9920   47.0330 C   0  0  0  0  0  0  0  0  0  0  0  0
   33.8860   25.6750   47.3130 C   0  0  0  0  0  0  0  0  0  0  0  0
   34.2280   24.8050   46.3140 C   0  0  0  0  0  0  0  0  0  0  0  0
   34.2310   25.2020   44.9970 C   0  0  0  0  0  0  0  0  0  0  0  0
   33.8820   26.5010   44.7110 C   0  0  0  0  0  0  0  0  0  0  0  0
   33.5320   27.4020   45.7080 C   0  0  0  0  0  0  0  0  0  0  0  0
   33.8540   25.4570   48.3700 H   0  0  0  0  0  0  0  0  0  0  0  0
   34.4720   23.8380   46.7080 H   0  0  0  0  0  0  0  0  0  0  0  0
   34.5140   24.4470   44.2810 H   0  0  0  0  0  0  0  0  0  0  0  0
   33.9230   26.6900   43.6350 H   0  0  0  0  0  0  0  0  0  0  0  0
   32.0790   29.4030   45.0130 C   0  0  0  0  0  3  0  0  0  0  0  0
   33.2340   28.6940   45.1140 C   0  0  0  0  0  0  0  0  0  0  0  0
   34.3290   29.3220   44.5030 C   0  0  0  0  0  0  0  0  0  0  0  0
   35.3270   28.8590   44.5100 H   0  0  0  0  0  0  0  0  0  0  0  0
   34.3030   30.5370   43.8500 C   0  0  0  0  0  0  0  0  0  0  0  0
   35.2060   31.2900   43.2180 N   0  0  0  0  0  0  0  0  0  0  0  0
   36.2190   31.0560   43.0950 H   0  0  0  0  0  0  0  0  0  0  0  0
   34.5930   32.3760   42.7780 N   0  0  0  0  0  0  0  0  0  0  0  0
   33.2850   32.3730   43.1020 C   0  0  0  0  0  0  0  0  0  0  0  0
   32.5120   33.1000   42.8970 H   0  0  0  0  0  0  0  0  0  0  0  0
   33.0980   31.2030   43.7830 C   0  0  0  0  0  0  0  0  0  0  0  0
   31.9990   30.6160   44.3730 C   0  0  0  0  0  3  0  0  0  0  0  0
   33.1380   28.0060   48.0500 C   0  0  0  0  0  0  0  0  0  0  0  0
   32.6550   27.4230   48.8820 H   0  0  0  0  0  0  0  0  0  0  0  0
   32.3570   28.6480   47.6550 H   0  0  0  0  0  0  0  0  0  0  0  0
   35.0700   28.3860   49.6070 C   0  0  0  0  0  3  0  0  0  0  0  0
   34.2740   28.7480   48.6320 C   0  0  0  0  0  3  0  0  0  0  0  0
   37.5280   30.2700   51.5400 C   0  0  0  0  0  0  0  0  0  0  0  0
   38.1850   30.9990   50.5310 C   0  0  0  0  0  0  0  0  0  0  0  0
   37.7590   30.8260   49.2060 C   0  0  0  0  0  0  0  0  0  0  0  0
   36.7220   29.9530   48.9700 N   0  0  0  0  0  0  0  0  0  0  0  0
   36.1380   29.2850   49.9940 C   0  0  0  0  0  0  0  0  0  0  0  0
   36.5250   29.4350   51.2520 N   0  0  0  0  0  0  0  0  0  0  0  0
   37.8400   30.3890   52.5580 H   0  0  0  0  0  0  0  0  0  0  0  0
   38.9870   31.6690   50.7320 H   0  0  0  0  0  0  0  0  0  0  0  0
   38.3650   31.5330   48.0780 C   0  0  0  0  0  0  0  0  0  0  0  0
   38.4800   30.9740   46.8260 C   0  0  0  0  0  0  0  0  0  0  0  0
   39.1020   31.9250   46.0020 C   0  0  0  0  0  0  0  0  0  0  0  0
   39.3330   33.0060   46.7860 N   0  0  0  0  0  0  0  0  0  0  0  0
   38.8930   32.7670   48.0160 N   0  0  0  0  0  0  0  0  0  0  0  0
   38.1680   29.9970   46.4900 H   0  0  0  0  0  0  0  0  0  0  0  0
   39.3290   31.7740   44.9540 H   0  0  0  0  0  0  0  0  0  0  0  0
   39.7890   33.8580   46.4170 H   0  0  0  0  0  0  0  0  0  0  0  0
  1  2  1  0  0  0  0
  1 23  1  0  0  0  0
  2  7  1  0  0  0  0
  3  8  1  0  0  0  0
  3  2  2  0  0  0  0
  4  3  1  0  0  0  0
  5  4  2  0  0  0  0
  5  6  1  0  0  0  0
  6  1  2  0  0  0  0
  9  4  1  0  0  0  0
 10  5  1  0  0  0  0
 11 12  1  0  0  0  0
 12  6  1  0  0  0  0
 13 14  1  0  0  0  0
 13 12  2  0  0  0  0
 15 13  1  0  0  0  0
 16 15  1  0  0  0  0
 17 16  1  0  0  0  0
 18 19  2  0  0  0  0
 18 16  1  0  0  0  0
 19 21  1  0  0  0  0
 20 19  1  0  0  0  0
 21 15  2  0  0  0  0
 21 22  1  0  0  0  0
 22 11  2  0  0  0  0
 23 27  1  0  0  0  0
 23 24  1  0  0  0  0
 25 23  1  0  0  0  0
 26 32  1  0  0  0  0
 27 26  2  0  0  0  0
 28 34  1  0  0  0  0
 29 35  1  0  0  0  0
 29 28  2  0  0  0  0
 30 29  1  0  0  0  0
 31 30  2  0  0  0  0
 31 32  1  0  0  0  0
 32 33  2  0  0  0  0
 33 28  1  0  0  0  0
 36 30  1  0  0  0  0
 37 36  1  0  0  0  0
 38 39  1  0  0  0  0
 38 37  2  0  0  0  0
 39 40  1  0  0  0  0
 40 36  2  0  0  0  0
 41 37  1  0  0  0  0
 42 38  1  0  0  0  0
 43 39  1  0  0  0  0
M  END
>  <minimizedAffinity>
-6.56126261

>  <minimizedRMSD>
1.04645836

$$$$
