
 OpenBabel03272509073D

 43 47  0  0  0  0  0  0  0  0999 V2000
   33.5990   26.9810   46.8710 C   0  0  0  0  0  0  0  0  0  0  0  0
   33.7540   25.6590   47.2830 C   0  0  0  0  0  0  0  0  0  0  0  0
   34.1490   24.6840   46.4070 C   0  0  0  0  0  0  0  0  0  0  0  0
   34.4040   24.9770   45.0880 C   0  0  0  0  0  0  0  0  0  0  0  0
   34.2530   26.2790   44.6720 C   0  0  0  0  0  0  0  0  0  0  0  0
   33.8550   27.2850   45.5420 C   0  0  0  0  0  0  0  0  0  0  0  0
   33.5320   25.5280   48.3320 H   0  0  0  0  0  0  0  0  0  0  0  0
   34.2160   23.7310   46.8930 H   0  0  0  0  0  0  0  0  0  0  0  0
   34.7090   24.1440   44.4750 H   0  0  0  0  0  0  0  0  0  0  0  0
   34.4840   26.3790   43.6090 H   0  0  0  0  0  0  0  0  0  0  0  0
   32.7730   29.2260   44.2540 C   0  0  0  0  0  3  0  0  0  0  0  0
   33.8020   28.5500   44.8320 C   0  0  0  0  0  0  0  0  0  0  0  0
   35.0430   29.1900   44.6830 C   0  0  0  0  0  0  0  0  0  0  0  0
   35.9600   28.7520   45.1040 H   0  0  0  0  0  0  0  0  0  0  0  0
   35.2640   30.3830   44.0290 C   0  0  0  0  0  0  0  0  0  0  0  0
   36.3350   31.1400   43.7820 N   0  0  0  0  0  0  0  0  0  0  0  0
   37.3150   30.9300   44.0820 H   0  0  0  0  0  0  0  0  0  0  0  0
   35.9340   32.1980   43.0950 N   0  0  0  0  0  0  0  0  0  0  0  0
   34.6060   32.1700   42.8720 C   0  0  0  0  0  0  0  0  0  0  0  0
   33.9700   32.8710   42.3500 H   0  0  0  0  0  0  0  0  0  0  0  0
   34.1770   31.0160   43.4660 C   0  0  0  0  0  0  0  0  0  0  0  0
   32.9410   30.4190   43.5910 C   0  0  0  0  0  3  0  0  0  0  0  0
   33.1680   28.1040   47.7470 C   0  0  0  0  0  0  0  0  0  0  0  0
   32.5360   27.6320   48.5500 H   0  0  0  0  0  0  0  0  0  0  0  0
   32.5000   28.7660   47.2040 H   0  0  0  0  0  0  0  0  0  0  0  0
   34.9930   28.4150   49.4430 C   0  0  0  0  0  3  0  0  0  0  0  0
   34.2790   28.8080   48.4170 C   0  0  0  0  0  3  0  0  0  0  0  0
   37.3960   30.1680   51.5590 C   0  0  0  0  0  0  0  0  0  0  0  0
   38.1010   30.9350   50.6130 C   0  0  0  0  0  0  0  0  0  0  0  0
   37.7250   30.8320   49.2660 C   0  0  0  0  0  0  0  0  0  0  0  0
   36.6870   29.9870   48.9480 N   0  0  0  0  0  0  0  0  0  0  0  0
   36.0550   29.2790   49.9140 C   0  0  0  0  0  0  0  0  0  0  0  0
   36.3950   29.3620   51.1920 N   0  0  0  0  0  0  0  0  0  0  0  0
   37.6690   30.2330   52.5940 H   0  0  0  0  0  0  0  0  0  0  0  0
   38.9020   31.5830   50.8780 H   0  0  0  0  0  0  0  0  0  0  0  0
   38.3840   31.5850   48.1980 C   0  0  0  0  0  0  0  0  0  0  0  0
   38.5920   31.0640   46.9420 C   0  0  0  0  0  0  0  0  0  0  0  0
   39.2410   32.0520   46.1850 C   0  0  0  0  0  0  0  0  0  0  0  0
   39.3950   33.1160   47.0100 N   0  0  0  0  0  0  0  0  0  0  0  0
   38.8840   32.8320   48.2030 N   0  0  0  0  0  0  0  0  0  0  0  0
   38.3270   30.0900   46.5610 H   0  0  0  0  0  0  0  0  0  0  0  0
   39.5380   31.9350   45.1500 H   0  0  0  0  0  0  0  0  0  0  0  0
   39.8510   33.9880   46.6940 H   0  0  0  0  0  0  0  0  0  0  0  0
  1  2  1  0  0  0  0
  1 23  1  0  0  0  0
  2  7  1  0  0  0  0
  3  8  1  0  0  0  0
  3  2  2  0  0  0  0
  4  3  1  0  0  0  0
  5  4  2  0  0  0  0
  5  6  1  0  0  0  0
  6  1  2  0  0  0  0
  9  4  1  0  0  0  0
 10  5  1  0  0  0  0
 11 12  1  0  0  0  0
 12  6  1  0  0  0  0
 13 12  2  0  0  0  0
 13 14  1  0  0  0  0
 15 13  1  0  0  0  0
 16 15  1  0  0  0  0
 16 17  1  0  0  0  0
 18 16  1  0  0  0  0
 19 18  2  0  0  0  0
 19 21  1  0  0  0  0
 20 19  1  0  0  0  0
 21 22  1  0  0  0  0
 21 15  2  0  0  0  0
 22 11  2  0  0  0  0
 23 27  1  0  0  0  0
 23 24  1  0  0  0  0
 25 23  1  0  0  0  0
 26 32  1  0  0  0  0
 27 26  2  0  0  0  0
 28 34  1  0  0  0  0
 29 35  1  0  0  0  0
 29 28  2  0  0  0  0
 30 29  1  0  0  0  0
 31 30  2  0  0  0  0
 31 32  1  0  0  0  0
 32 33  2  0  0  0  0
 33 28  1  0  0  0  0
 36 40  2  0  0  0  0
 36 30  1  0  0  0  0
 37 36  1  0  0  0  0
 38 37  2  0  0  0  0
 38 39  1  0  0  0  0
 39 40  1  0  0  0  0
 41 37  1  0  0  0  0
 42 38  1  0  0  0  0
 43 39  1  0  0  0  0
M  END
>  <minimizedAffinity>
-6.69863415

>  <minimizedRMSD>
0.930067539

$$$$
