
 OpenBabel03272506283D

 45 49  0  0  0  0  0  0  0  0999 V2000
   37.6830   26.0810   32.5000 S   0  0  0  0  0  0  0  0  0  0  0  0
   39.6430   24.9170   33.9050 C   0  0  0  0  0  0  0  0  0  0  0  0
   40.8770   24.9260   34.5230 C   0  0  0  0  0  0  0  0  0  0  0  0
   41.7370   26.0310   34.5230 C   0  0  0  0  0  0  0  0  0  0  0  0
   41.3150   27.2010   33.8520 C   0  0  0  0  0  0  0  0  0  0  0  0
   40.0910   27.1640   33.2490 C   0  0  0  0  0  0  0  0  0  0  0  0
   39.2560   26.0860   33.2530 C   0  0  0  0  0  0  0  0  0  0  0  0
   41.2280   24.0300   35.0500 H   0  0  0  0  0  0  0  0  0  0  0  0
   42.6950   25.9140   35.0530 H   0  0  0  0  0  0  0  0  0  0  0  0
   42.0690   27.9560   33.9350 H   0  0  0  0  0  0  0  0  0  0  0  0
   39.9880   28.1250   32.8020 H   0  0  0  0  0  0  0  0  0  0  0  0
   38.8790   22.8870   32.8360 C   0  0  0  0  0  0  0  0  0  0  0  0
   38.8960   23.6880   33.9840 C   0  0  0  0  0  0  0  0  0  0  0  0
   38.1930   23.2440   35.1120 C   0  0  0  0  0  0  0  0  0  0  0  0
   37.5310   22.0610   35.0440 N   0  0  0  0  0  0  0  0  0  0  0  0
   37.5310   21.2990   33.9110 C   0  0  0  0  0  0  0  0  0  0  0  0
   38.2070   21.7150   32.8110 N   0  0  0  0  0  0  0  0  0  0  0  0
   39.4110   23.2040   31.9520 H   0  0  0  0  0  0  0  0  0  0  0  0
   36.9800   20.3640   33.9270 H   0  0  0  0  0  0  0  0  0  0  0  0
   38.1200   23.9890   36.3990 C   0  0  0  0  0  0  0  0  0  0  0  0
   39.2480   23.6750   37.1840 F   0  0  0  0  0  0  0  0  0  0  0  0
   38.0290   25.3320   36.3000 F   0  0  0  0  0  0  0  0  0  0  0  0
   37.0520   23.5140   37.1570 F   0  0  0  0  0  0  0  0  0  0  0  0
   36.5380   27.6350   34.9370 Cl  0  0  0  0  0  0  0  0  0  0  0  0
   36.5050   28.3300   33.3400 C   0  0  0  0  0  0  0  0  0  0  0  0
   36.9930   27.6880   32.2170 C   0  0  0  0  0  0  0  0  0  0  0  0
   36.9440   28.2670   30.9770 C   0  0  0  0  0  0  0  0  0  0  0  0
   36.3780   29.5450   30.8800 C   0  0  0  0  0  0  0  0  0  0  0  0
   35.8850   30.1990   31.9980 C   0  0  0  0  0  0  0  0  0  0  0  0
   35.9410   29.6010   33.2420 C   0  0  0  0  0  0  0  0  0  0  0  0
   37.2560   27.8550   30.0570 H   0  0  0  0  0  0  0  0  0  0  0  0
   36.3030   30.0690   29.9380 H   0  0  0  0  0  0  0  0  0  0  0  0
   35.4530   31.1900   31.8850 H   0  0  0  0  0  0  0  0  0  0  0  0
   36.0620   31.1090   35.3210 C   0  0  0  0  0  3  0  0  0  0  0  0
   35.4070   30.3260   34.3920 C   0  0  0  0  0  0  0  0  0  0  0  0
   34.0230   30.1790   34.5350 C   0  0  0  0  0  0  0  0  0  0  0  0
   33.4040   29.5780   33.8510 H   0  0  0  0  0  0  0  0  0  0  0  0
   33.3120   30.7760   35.5480 C   0  0  0  0  0  0  0  0  0  0  0  0
   32.0270   30.8090   35.9180 N   0  0  0  0  0  0  0  0  0  0  0  0
   31.2240   30.3140   35.4280 H   0  0  0  0  0  0  0  0  0  0  0  0
   31.8610   31.5500   36.9950 N   0  0  0  0  0  0  0  0  0  0  0  0
   33.0620   32.0330   37.3680 C   0  0  0  0  0  0  0  0  0  0  0  0
   33.3570   32.6820   38.2020 H   0  0  0  0  0  0  0  0  0  0  0  0
   33.9740   31.5430   36.4540 C   0  0  0  0  0  0  0  0  0  0  0  0
   35.3390   31.7020   36.3320 C   0  0  0  0  0  3  0  0  0  0  0  0
  1  7  1  0  0  0  0
  2 13  1  0  0  0  0
  2  3  1  0  0  0  0
  3  8  1  0  0  0  0
  4  3  2  0  0  0  0
  4  9  1  0  0  0  0
  5 10  1  0  0  0  0
  5  4  1  0  0  0  0
  6  7  1  0  0  0  0
  6  5  2  0  0  0  0
  7  2  2  0  0  0  0
 11  6  1  0  0  0  0
 12 13  1  0  0  0  0
 13 14  2  0  0  0  0
 14 20  1  0  0  0  0
 15 14  1  0  0  0  0
 16 19  1  0  0  0  0
 16 15  2  0  0  0  0
 17 12  2  0  0  0  0
 17 16  1  0  0  0  0
 18 12  1  0  0  0  0
 20 23  1  0  0  0  0
 20 21  1  0  0  0  0
 22 20  1  0  0  0  0
 25 24  1  0  0  0  0
 26  1  1  0  0  0  0
 26 25  2  0  0  0  0
 27 26  1  0  0  0  0
 28 27  2  0  0  0  0
 28 29  1  0  0  0  0
 29 30  2  0  0  0  0
 30 25  1  0  0  0  0
 30 35  1  0  0  0  0
 31 27  1  0  0  0  0
 32 28  1  0  0  0  0
 33 29  1  0  0  0  0
 34 45  1  0  0  0  0
 35 36  1  0  0  0  0
 35 34  2  0  0  0  0
 36 38  2  0  0  0  0
 37 36  1  0  0  0  0
 38 39  1  0  0  0  0
 38 44  1  0  0  0  0
 39 41  1  0  0  0  0
 40 39  1  0  0  0  0
 41 42  2  0  0  0  0
 42 43  1  0  0  0  0
 44 42  1  0  0  0  0
 45 44  2  0  0  0  0
M  END
>  <minimizedAffinity>
-7.11747074

$$$$

 OpenBabel03272506283D

 45 49  0  0  0  0  0  0  0  0999 V2000
   38.2550   26.1940   32.6530 S   0  0  0  0  0  0  0  0  0  0  0  0
   38.0860   23.5440   32.9970 C   0  0  0  0  0  0  0  0  0  0  0  0
   37.4610   22.3260   32.8280 C   0  0  0  0  0  0  0  0  0  0  0  0
   36.2390   22.1650   32.1630 C   0  0  0  0  0  0  0  0  0  0  0  0
   35.6150   23.3180   31.6360 C   0  0  0  0  0  0  0  0  0  0  0  0
   36.2550   24.5100   31.8180 C   0  0  0  0  0  0  0  0  0  0  0  0
   37.4450   24.6610   32.4650 C   0  0  0  0  0  0  0  0  0  0  0  0
   37.9250   21.4160   33.2290 H   0  0  0  0  0  0  0  0  0  0  0  0
   35.8430   21.1410   32.0920 H   0  0  0  0  0  0  0  0  0  0  0  0
   34.6960   23.0450   31.1590 H   0  0  0  0  0  0  0  0  0  0  0  0
   35.6120   25.2270   31.3640 H   0  0  0  0  0  0  0  0  0  0  0  0
   40.4990   23.3840   32.9720 C   0  0  0  0  0  0  0  0  0  0  0  0
   39.3290   23.5310   33.7260 C   0  0  0  0  0  0  0  0  0  0  0  0
   39.4480   23.6540   35.1170 C   0  0  0  0  0  0  0  0  0  0  0  0
   40.6870   23.6250   35.6710 N   0  0  0  0  0  0  0  0  0  0  0  0
   41.8120   23.4800   34.9100 C   0  0  0  0  0  0  0  0  0  0  0  0
   41.7140   23.3610   33.5640 N   0  0  0  0  0  0  0  0  0  0  0  0
   40.4380   23.2870   31.8990 H   0  0  0  0  0  0  0  0  0  0  0  0
   42.7710   23.4660   35.4200 H   0  0  0  0  0  0  0  0  0  0  0  0
   38.2940   23.8140   36.0450 C   0  0  0  0  0  0  0  0  0  0  0  0
   38.7700   23.9030   37.3680 F   0  0  0  0  0  0  0  0  0  0  0  0
   37.4890   24.8710   35.8090 F   0  0  0  0  0  0  0  0  0  0  0  0
   37.5300   22.6500   36.0490 F   0  0  0  0  0  0  0  0  0  0  0  0
   36.9800   27.7680   35.0120 Cl  0  0  0  0  0  0  0  0  0  0  0  0
   36.7230   28.2690   33.3640 C   0  0  0  0  0  0  0  0  0  0  0  0
   37.2570   27.6080   32.2730 C   0  0  0  0  0  0  0  0  0  0  0  0
   37.0270   28.0310   30.9910 C   0  0  0  0  0  0  0  0  0  0  0  0
   36.2250   29.1660   30.8170 C   0  0  0  0  0  0  0  0  0  0  0  0
   35.6830   29.8370   31.9020 C   0  0  0  0  0  0  0  0  0  0  0  0
   35.9240   29.3970   33.1890 C   0  0  0  0  0  0  0  0  0  0  0  0
   37.3570   27.5850   30.0930 H   0  0  0  0  0  0  0  0  0  0  0  0
   35.9970   29.5630   29.8370 H   0  0  0  0  0  0  0  0  0  0  0  0
   35.0650   30.7140   31.7280 H   0  0  0  0  0  0  0  0  0  0  0  0
   35.9020   31.0630   35.1470 C   0  0  0  0  0  3  0  0  0  0  0  0
   35.3310   30.1340   34.3030 C   0  0  0  0  0  0  0  0  0  0  0  0
   33.9830   29.8200   34.5070 C   0  0  0  0  0  0  0  0  0  0  0  0
   33.4300   29.0930   33.8920 H   0  0  0  0  0  0  0  0  0  0  0  0
   33.2270   30.3950   35.4990 C   0  0  0  0  0  0  0  0  0  0  0  0
   31.9600   30.2900   35.9140 N   0  0  0  0  0  0  0  0  0  0  0  0
   31.2160   29.6590   35.4910 H   0  0  0  0  0  0  0  0  0  0  0  0
   31.7260   31.0840   36.9390 N   0  0  0  0  0  0  0  0  0  0  0  0
   32.8630   31.7450   37.2310 C   0  0  0  0  0  0  0  0  0  0  0  0
   33.0930   32.4900   38.0040 H   0  0  0  0  0  0  0  0  0  0  0  0
   33.8060   31.3090   36.3220 C   0  0  0  0  0  0  0  0  0  0  0  0
   35.1350   31.6330   36.1380 C   0  0  0  0  0  3  0  0  0  0  0  0
  2 13  1  0  0  0  0
  3  2  1  0  0  0  0
  3  8  1  0  0  0  0
  4  3  2  0  0  0  0
  5  6  2  0  0  0  0
  5  4  1  0  0  0  0
  6  7  1  0  0  0  0
  7  1  1  0  0  0  0
  7  2  2  0  0  0  0
  9  4  1  0  0  0  0
 10  5  1  0  0  0  0
 11  6  1  0  0  0  0
 12 17  2  0  0  0  0
 12 13  1  0  0  0  0
 13 14  2  0  0  0  0
 14 15  1  0  0  0  0
 14 20  1  0  0  0  0
 16 19  1  0  0  0  0
 16 15  2  0  0  0  0
 17 16  1  0  0  0  0
 18 12  1  0  0  0  0
 20 23  1  0  0  0  0
 20 21  1  0  0  0  0
 22 20  1  0  0  0  0
 25 24  1  0  0  0  0
 26  1  1  0  0  0  0
 26 25  2  0  0  0  0
 27 26  1  0  0  0  0
 28 27  2  0  0  0  0
 28 29  1  0  0  0  0
 29 30  2  0  0  0  0
 30 25  1  0  0  0  0
 30 35  1  0  0  0  0
 31 27  1  0  0  0  0
 32 28  1  0  0  0  0
 33 29  1  0  0  0  0
 34 45  1  0  0  0  0
 35 36  1  0  0  0  0
 35 34  2  0  0  0  0
 36 38  2  0  0  0  0
 37 36  1  0  0  0  0
 38 39  1  0  0  0  0
 38 44  1  0  0  0  0
 39 41  1  0  0  0  0
 40 39  1  0  0  0  0
 41 42  2  0  0  0  0
 42 43  1  0  0  0  0
 44 42  1  0  0  0  0
 45 44  2  0  0  0  0
M  END
>  <minimizedAffinity>
-7.07901192

$$$$

 OpenBabel03272506283D

 45 49  0  0  0  0  0  0  0  0999 V2000
   35.9680   28.6850   34.2050 S   0  0  0  0  0  0  0  0  0  0  0  0
   34.5200   30.8150   33.4710 C   0  0  0  0  0  0  0  0  0  0  0  0
   34.2070   31.8410   32.6030 C   0  0  0  0  0  0  0  0  0  0  0  0
   34.9060   32.0950   31.4170 C   0  0  0  0  0  0  0  0  0  0  0  0
   35.9930   31.2520   31.0930 C   0  0  0  0  0  0  0  0  0  0  0  0
   36.2800   30.2450   31.9690 C   0  0  0  0  0  0  0  0  0  0  0  0
   35.5960   30.0000   33.1220 C   0  0  0  0  0  0  0  0  0  0  0  0
   33.3690   32.5110   32.8330 H   0  0  0  0  0  0  0  0  0  0  0  0
   34.5590   32.9440   30.8080 H   0  0  0  0  0  0  0  0  0  0  0  0
   36.4280   31.5640   30.1660 H   0  0  0  0  0  0  0  0  0  0  0  0
   37.1250   29.7570   31.5420 H   0  0  0  0  0  0  0  0  0  0  0  0
   32.5440   29.9420   34.5570 C   0  0  0  0  0  0  0  0  0  0  0  0
   33.7110   30.7090   34.6580 C   0  0  0  0  0  0  0  0  0  0  0  0
   34.0040   31.3120   35.8880 C   0  0  0  0  0  0  0  0  0  0  0  0
   33.1480   31.1260   36.9260 N   0  0  0  0  0  0  0  0  0  0  0  0
   32.0160   30.3720   36.8000 C   0  0  0  0  0  0  0  0  0  0  0  0
   31.7190   29.7830   35.6160 N   0  0  0  0  0  0  0  0  0  0  0  0
   32.2920   29.4670   33.6210 H   0  0  0  0  0  0  0  0  0  0  0  0
   31.3770   30.2660   37.6710 H   0  0  0  0  0  0  0  0  0  0  0  0
   35.2050   32.1540   36.1430 C   0  0  0  0  0  0  0  0  0  0  0  0
   36.3520   31.3360   36.1600 F   0  0  0  0  0  0  0  0  0  0  0  0
   35.4130   33.1640   35.2730 F   0  0  0  0  0  0  0  0  0  0  0  0
   35.1520   32.6690   37.4360 F   0  0  0  0  0  0  0  0  0  0  0  0
   38.2490   27.2580   35.7630 Cl  0  0  0  0  0  0  0  0  0  0  0  0
   37.7650   26.7040   34.1840 C   0  0  0  0  0  0  0  0  0  0  0  0
   36.7630   27.2990   33.4400 C   0  0  0  0  0  0  0  0  0  0  0  0
   36.4150   26.8360   32.1990 C   0  0  0  0  0  0  0  0  0  0  0  0
   37.1130   25.7290   31.7010 C   0  0  0  0  0  0  0  0  0  0  0  0
   38.1200   25.1240   32.4370 C   0  0  0  0  0  0  0  0  0  0  0  0
   38.4600   25.6030   33.6870 C   0  0  0  0  0  0  0  0  0  0  0  0
   35.6930   27.2330   31.5390 H   0  0  0  0  0  0  0  0  0  0  0  0
   36.8980   25.3040   30.7310 H   0  0  0  0  0  0  0  0  0  0  0  0
   38.6400   24.2660   32.0180 H   0  0  0  0  0  0  0  0  0  0  0  0
   40.8880   25.1660   34.4100 C   0  0  0  0  0  3  0  0  0  0  0  0
   39.5280   24.9350   34.4260 C   0  0  0  0  0  0  0  0  0  0  0  0
   39.0580   23.9170   35.2630 C   0  0  0  0  0  0  0  0  0  0  0  0
   37.9930   23.6500   35.3520 H   0  0  0  0  0  0  0  0  0  0  0  0
   39.8880   23.1580   36.0510 C   0  0  0  0  0  0  0  0  0  0  0  0
   39.7230   22.1540   36.9180 N   0  0  0  0  0  0  0  0  0  0  0  0
   38.7960   21.7070   37.1850 H   0  0  0  0  0  0  0  0  0  0  0  0
   40.8760   21.7650   37.4230 N   0  0  0  0  0  0  0  0  0  0  0  0
   41.8520   22.5230   36.8860 C   0  0  0  0  0  0  0  0  0  0  0  0
   42.9390   22.5230   37.0360 H   0  0  0  0  0  0  0  0  0  0  0  0
   41.2250   23.4000   36.0220 C   0  0  0  0  0  0  0  0  0  0  0  0
   41.7110   24.3990   35.2040 C   0  0  0  0  0  3  0  0  0  0  0  0
  2 13  1  0  0  0  0
  3  8  1  0  0  0  0
  3  2  2  0  0  0  0
  4  3  1  0  0  0  0
  5  4  2  0  0  0  0
  5  6  1  0  0  0  0
  6  7  2  0  0  0  0
  7  2  1  0  0  0  0
  7  1  1  0  0  0  0
  9  4  1  0  0  0  0
 10  5  1  0  0  0  0
 11  6  1  0  0  0  0
 12 13  2  0  0  0  0
 12 17  1  0  0  0  0
 13 14  1  0  0  0  0
 14 20  1  0  0  0  0
 14 15  2  0  0  0  0
 16 15  1  0  0  0  0
 16 19  1  0  0  0  0
 17 16  2  0  0  0  0
 18 12  1  0  0  0  0
 20 21  1  0  0  0  0
 20 23  1  0  0  0  0
 22 20  1  0  0  0  0
 25 24  1  0  0  0  0
 26 25  2  0  0  0  0
 26  1  1  0  0  0  0
 27 26  1  0  0  0  0
 28 27  2  0  0  0  0
 28 29  1  0  0  0  0
 29 30  2  0  0  0  0
 30 25  1  0  0  0  0
 30 35  1  0  0  0  0
 31 27  1  0  0  0  0
 32 28  1  0  0  0  0
 33 29  1  0  0  0  0
 34 35  2  0  0  0  0
 34 45  1  0  0  0  0
 35 36  1  0  0  0  0
 36 37  1  0  0  0  0
 36 38  2  0  0  0  0
 38 39  1  0  0  0  0
 39 40  1  0  0  0  0
 39 41  1  0  0  0  0
 42 43  1  0  0  0  0
 42 41  2  0  0  0  0
 44 38  1  0  0  0  0
 44 42  1  0  0  0  0
 45 44  2  0  0  0  0
M  END
>  <minimizedAffinity>
-6.92848587

$$$$

 OpenBabel03272506283D

 45 49  0  0  0  0  0  0  0  0999 V2000
   37.9500   26.0490   32.6390 S   0  0  0  0  0  0  0  0  0  0  0  0
   39.9860   25.4830   34.2830 C   0  0  0  0  0  0  0  0  0  0  0  0
   41.2660   25.6810   34.7580 C   0  0  0  0  0  0  0  0  0  0  0  0
   42.1540   26.6240   34.2270 C   0  0  0  0  0  0  0  0  0  0  0  0
   41.7120   27.4160   33.1440 C   0  0  0  0  0  0  0  0  0  0  0  0
   40.4410   27.1990   32.6940 C   0  0  0  0  0  0  0  0  0  0  0  0
   39.5790   26.2800   33.2150 C   0  0  0  0  0  0  0  0  0  0  0  0
   41.6340   25.0780   35.5980 H   0  0  0  0  0  0  0  0  0  0  0  0
   43.1490   26.6870   34.6940 H   0  0  0  0  0  0  0  0  0  0  0  0
   42.4900   28.0860   32.8450 H   0  0  0  0  0  0  0  0  0  0  0  0
   40.3290   27.8790   31.8820 H   0  0  0  0  0  0  0  0  0  0  0  0
   38.4650   24.8420   36.0520 C   0  0  0  0  0  0  0  0  0  0  0  0
   39.2130   24.4550   34.9330 C   0  0  0  0  0  0  0  0  0  0  0  0
   39.1570   23.1140   34.5290 C   0  0  0  0  0  0  0  0  0  0  0  0
   38.3830   22.2520   35.2370 N   0  0  0  0  0  0  0  0  0  0  0  0
   37.6640   22.6570   36.3260 C   0  0  0  0  0  0  0  0  0  0  0  0
   37.7080   23.9510   36.7280 N   0  0  0  0  0  0  0  0  0  0  0  0
   38.4900   25.8680   36.3850 H   0  0  0  0  0  0  0  0  0  0  0  0
   37.0670   21.9140   36.8450 H   0  0  0  0  0  0  0  0  0  0  0  0
   39.8970   22.5590   33.3630 C   0  0  0  0  0  0  0  0  0  0  0  0
   39.6180   21.1830   33.2470 F   0  0  0  0  0  0  0  0  0  0  0  0
   39.6520   23.1470   32.1730 F   0  0  0  0  0  0  0  0  0  0  0  0
   41.2670   22.5950   33.6150 F   0  0  0  0  0  0  0  0  0  0  0  0
   36.7980   27.6870   35.0170 Cl  0  0  0  0  0  0  0  0  0  0  0  0
   36.5900   28.2310   33.3750 C   0  0  0  0  0  0  0  0  0  0  0  0
   37.0740   27.5450   32.2770 C   0  0  0  0  0  0  0  0  0  0  0  0
   36.8850   28.0050   31.0000 C   0  0  0  0  0  0  0  0  0  0  0  0
   36.1800   29.2040   30.8400 C   0  0  0  0  0  0  0  0  0  0  0  0
   35.6890   29.9010   31.9340 C   0  0  0  0  0  0  0  0  0  0  0  0
   35.8870   29.4240   33.2150 C   0  0  0  0  0  0  0  0  0  0  0  0
   37.1820   27.5470   30.0970 H   0  0  0  0  0  0  0  0  0  0  0  0
   35.9900   29.6330   29.8660 H   0  0  0  0  0  0  0  0  0  0  0  0
   35.1460   30.8290   31.7710 H   0  0  0  0  0  0  0  0  0  0  0  0
   35.9890   31.0680   35.1890 C   0  0  0  0  0  3  0  0  0  0  0  0
   35.3510   30.1900   34.3380 C   0  0  0  0  0  0  0  0  0  0  0  0
   33.9850   29.9710   34.5430 C   0  0  0  0  0  0  0  0  0  0  0  0
   33.3800   29.2910   33.9230 H   0  0  0  0  0  0  0  0  0  0  0  0
   33.2750   30.5890   35.5440 C   0  0  0  0  0  0  0  0  0  0  0  0
   32.0040   30.5710   35.9610 N   0  0  0  0  0  0  0  0  0  0  0  0
   31.2160   29.9990   35.5350 H   0  0  0  0  0  0  0  0  0  0  0  0
   31.8300   31.3690   36.9950 N   0  0  0  0  0  0  0  0  0  0  0  0
   33.0120   31.9450   37.2900 C   0  0  0  0  0  0  0  0  0  0  0  0
   33.2960   32.6630   38.0690 H   0  0  0  0  0  0  0  0  0  0  0  0
   33.9190   31.4510   36.3730 C   0  0  0  0  0  0  0  0  0  0  0  0
   35.2670   31.6810   36.1880 C   0  0  0  0  0  3  0  0  0  0  0  0
  1  7  1  0  0  0  0
  2  3  1  0  0  0  0
  2 13  1  0  0  0  0
  3  8  1  0  0  0  0
  4  9  1  0  0  0  0
  4  3  2  0  0  0  0
  5  4  1  0  0  0  0
  6  5  2  0  0  0  0
  6  7  1  0  0  0  0
  7  2  2  0  0  0  0
 10  5  1  0  0  0  0
 11  6  1  0  0  0  0
 12 18  1  0  0  0  0
 12 17  1  0  0  0  0
 13 12  2  0  0  0  0
 14 13  1  0  0  0  0
 14 15  2  0  0  0  0
 15 16  1  0  0  0  0
 16 17  2  0  0  0  0
 16 19  1  0  0  0  0
 20 23  1  0  0  0  0
 20 14  1  0  0  0  0
 21 20  1  0  0  0  0
 22 20  1  0  0  0  0
 25 24  1  0  0  0  0
 26  1  1  0  0  0  0
 26 25  2  0  0  0  0
 27 26  1  0  0  0  0
 28 27  2  0  0  0  0
 28 29  1  0  0  0  0
 29 30  2  0  0  0  0
 30 25  1  0  0  0  0
 30 35  1  0  0  0  0
 31 27  1  0  0  0  0
 32 28  1  0  0  0  0
 33 29  1  0  0  0  0
 34 45  1  0  0  0  0
 35 36  1  0  0  0  0
 35 34  2  0  0  0  0
 36 38  2  0  0  0  0
 37 36  1  0  0  0  0
 38 39  1  0  0  0  0
 38 44  1  0  0  0  0
 39 41  1  0  0  0  0
 40 39  1  0  0  0  0
 41 42  2  0  0  0  0
 42 43  1  0  0  0  0
 44 42  1  0  0  0  0
 45 44  2  0  0  0  0
M  END
>  <minimizedAffinity>
-6.80579853

$$$$

 OpenBabel03272506283D

 45 49  0  0  0  0  0  0  0  0999 V2000
   36.9740   25.9390   32.0030 S   0  0  0  0  0  0  0  0  0  0  0  0
   39.3970   24.9830   32.6270 C   0  0  0  0  0  0  0  0  0  0  0  0
   40.7180   24.7140   32.3340 C   0  0  0  0  0  0  0  0  0  0  0  0
   41.3130   24.9960   31.0980 C   0  0  0  0  0  0  0  0  0  0  0  0
   40.5120   25.5900   30.0960 C   0  0  0  0  0  0  0  0  0  0  0  0
   39.2090   25.8450   30.4130 C   0  0  0  0  0  0  0  0  0  0  0  0
   38.6350   25.5710   31.6180 C   0  0  0  0  0  0  0  0  0  0  0  0
   41.3600   24.2510   33.0940 H   0  0  0  0  0  0  0  0  0  0  0  0
   42.3760   24.7340   30.9870 H   0  0  0  0  0  0  0  0  0  0  0  0
   41.0960   25.7460   29.2130 H   0  0  0  0  0  0  0  0  0  0  0  0
   38.8000   26.2690   29.5260 H   0  0  0  0  0  0  0  0  0  0  0  0
   38.4060   23.3220   34.0780 C   0  0  0  0  0  0  0  0  0  0  0  0
   38.9420   24.6090   33.9410 C   0  0  0  0  0  0  0  0  0  0  0  0
   38.9970   25.4290   35.0760 C   0  0  0  0  0  0  0  0  0  0  0  0
   38.5310   24.9430   36.2550 N   0  0  0  0  0  0  0  0  0  0  0  0
   38.0130   23.6830   36.3600 C   0  0  0  0  0  0  0  0  0  0  0  0
   37.9540   22.8790   35.2720 N   0  0  0  0  0  0  0  0  0  0  0  0
   38.3510   22.6690   33.2210 H   0  0  0  0  0  0  0  0  0  0  0  0
   37.6590   23.3600   37.3350 H   0  0  0  0  0  0  0  0  0  0  0  0
   39.5380   26.8160   35.0810 C   0  0  0  0  0  0  0  0  0  0  0  0
   40.9430   26.7680   35.1740 F   0  0  0  0  0  0  0  0  0  0  0  0
   39.2060   27.5830   34.0220 F   0  0  0  0  0  0  0  0  0  0  0  0
   39.1550   27.4650   36.2530 F   0  0  0  0  0  0  0  0  0  0  0  0
   36.0760   27.4690   34.5560 Cl  0  0  0  0  0  0  0  0  0  0  0  0
   36.1540   28.2750   33.0140 C   0  0  0  0  0  0  0  0  0  0  0  0
   36.5400   27.6490   31.8430 C   0  0  0  0  0  0  0  0  0  0  0  0
   36.5830   28.3170   30.6490 C   0  0  0  0  0  0  0  0  0  0  0  0
   36.2200   29.6700   30.6490 C   0  0  0  0  0  0  0  0  0  0  0  0
   35.8310   30.3090   31.8160 C   0  0  0  0  0  0  0  0  0  0  0  0
   35.7920   29.6210   33.0130 C   0  0  0  0  0  0  0  0  0  0  0  0
   36.8300   27.9300   29.6990 H   0  0  0  0  0  0  0  0  0  0  0  0
   36.2280   30.2670   29.7480 H   0  0  0  0  0  0  0  0  0  0  0  0
   35.5570   31.3610   31.7780 H   0  0  0  0  0  0  0  0  0  0  0  0
   36.1340   31.0070   35.1510 C   0  0  0  0  0  3  0  0  0  0  0  0
   35.3740   30.3350   34.2170 C   0  0  0  0  0  0  0  0  0  0  0  0
   33.9890   30.3080   34.4130 C   0  0  0  0  0  0  0  0  0  0  0  0
   33.2900   29.8000   33.7300 H   0  0  0  0  0  0  0  0  0  0  0  0
   33.3770   30.9160   35.4820 C   0  0  0  0  0  0  0  0  0  0  0  0
   32.1160   31.0490   35.9090 N   0  0  0  0  0  0  0  0  0  0  0  0
   31.2520   30.6540   35.4320 H   0  0  0  0  0  0  0  0  0  0  0  0
   32.0610   31.7470   37.0240 N   0  0  0  0  0  0  0  0  0  0  0  0
   33.3160   32.0990   37.3670 C   0  0  0  0  0  0  0  0  0  0  0  0
   33.7030   32.6770   38.2160 H   0  0  0  0  0  0  0  0  0  0  0  0
   34.1410   31.5730   36.3920 C   0  0  0  0  0  0  0  0  0  0  0  0
   35.5100   31.6130   36.2190 C   0  0  0  0  0  3  0  0  0  0  0  0
  2 13  1  0  0  0  0
  3  2  1  0  0  0  0
  3  8  1  0  0  0  0
  4  3  2  0  0  0  0
  5  6  2  0  0  0  0
  5  4  1  0  0  0  0
  6  7  1  0  0  0  0
  7  1  1  0  0  0  0
  7  2  2  0  0  0  0
  9  4  1  0  0  0  0
 10  5  1  0  0  0  0
 11  6  1  0  0  0  0
 12 17  1  0  0  0  0
 13 12  2  0  0  0  0
 13 14  1  0  0  0  0
 14 20  1  0  0  0  0
 14 15  2  0  0  0  0
 15 16  1  0  0  0  0
 16 19  1  0  0  0  0
 17 16  2  0  0  0  0
 18 12  1  0  0  0  0
 20 21  1  0  0  0  0
 20 23  1  0  0  0  0
 22 20  1  0  0  0  0
 25 24  1  0  0  0  0
 26  1  1  0  0  0  0
 26 25  2  0  0  0  0
 27 26  1  0  0  0  0
 28 27  2  0  0  0  0
 28 29  1  0  0  0  0
 29 30  2  0  0  0  0
 30 25  1  0  0  0  0
 30 35  1  0  0  0  0
 31 27  1  0  0  0  0
 32 28  1  0  0  0  0
 33 29  1  0  0  0  0
 34 45  1  0  0  0  0
 35 36  1  0  0  0  0
 35 34  2  0  0  0  0
 36 38  2  0  0  0  0
 37 36  1  0  0  0  0
 38 39  1  0  0  0  0
 38 44  1  0  0  0  0
 39 41  1  0  0  0  0
 40 39  1  0  0  0  0
 41 42  2  0  0  0  0
 42 43  1  0  0  0  0
 44 42  1  0  0  0  0
 45 44  2  0  0  0  0
M  END
>  <minimizedAffinity>
-6.78288937

$$$$

 OpenBabel03272506283D

 45 49  0  0  0  0  0  0  0  0999 V2000
   36.0390   28.8830   34.1910 S   0  0  0  0  0  0  0  0  0  0  0  0
   34.3440   30.7820   33.3580 C   0  0  0  0  0  0  0  0  0  0  0  0
   33.9060   31.7130   32.4400 C   0  0  0  0  0  0  0  0  0  0  0  0
   34.5640   31.9830   31.2330 C   0  0  0  0  0  0  0  0  0  0  0  0
   35.7420   31.2590   30.9430 C   0  0  0  0  0  0  0  0  0  0  0  0
   36.1520   30.3430   31.8700 C   0  0  0  0  0  0  0  0  0  0  0  0
   35.5070   30.0830   33.0420 C   0  0  0  0  0  0  0  0  0  0  0  0
   32.9950   32.2900   32.6420 H   0  0  0  0  0  0  0  0  0  0  0  0
   34.1150   32.7500   30.5830 H   0  0  0  0  0  0  0  0  0  0  0  0
   36.1330   31.5680   29.9970 H   0  0  0  0  0  0  0  0  0  0  0  0
   37.0470   29.9370   31.4600 H   0  0  0  0  0  0  0  0  0  0  0  0
   34.0050   31.3470   35.6850 C   0  0  0  0  0  0  0  0  0  0  0  0
   33.5580   30.6460   34.5580 C   0  0  0  0  0  0  0  0  0  0  0  0
   32.3950   29.8730   34.6750 C   0  0  0  0  0  0  0  0  0  0  0  0
   31.7540   29.8380   35.8720 N   0  0  0  0  0  0  0  0  0  0  0  0
   32.2120   30.5320   36.9550 C   0  0  0  0  0  0  0  0  0  0  0  0
   33.3350   31.2840   36.8570 N   0  0  0  0  0  0  0  0  0  0  0  0
   34.8970   31.9500   35.6230 H   0  0  0  0  0  0  0  0  0  0  0  0
   31.6490   30.4580   37.8810 H   0  0  0  0  0  0  0  0  0  0  0  0
   31.8040   29.0750   33.5660 C   0  0  0  0  0  0  0  0  0  0  0  0
   30.9940   29.9110   32.7710 F   0  0  0  0  0  0  0  0  0  0  0  0
   32.6830   28.4420   32.7610 F   0  0  0  0  0  0  0  0  0  0  0  0
   30.9060   28.1450   34.0830 F   0  0  0  0  0  0  0  0  0  0  0  0
   38.3310   27.4240   35.7020 Cl  0  0  0  0  0  0  0  0  0  0  0  0
   37.7280   26.8100   34.1880 C   0  0  0  0  0  0  0  0  0  0  0  0
   36.7160   27.4150   33.4670 C   0  0  0  0  0  0  0  0  0  0  0  0
   36.2740   26.9020   32.2770 C   0  0  0  0  0  0  0  0  0  0  0  0
   36.8840   25.7320   31.8080 C   0  0  0  0  0  0  0  0  0  0  0  0
   37.9000   25.1160   32.5210 C   0  0  0  0  0  0  0  0  0  0  0  0
   38.3360   25.6460   33.7200 C   0  0  0  0  0  0  0  0  0  0  0  0
   35.5360   27.2990   31.6350 H   0  0  0  0  0  0  0  0  0  0  0  0
   36.5910   25.2650   30.8780 H   0  0  0  0  0  0  0  0  0  0  0  0
   38.3500   24.2080   32.1260 H   0  0  0  0  0  0  0  0  0  0  0  0
   40.7740   25.1560   34.3710 C   0  0  0  0  0  3  0  0  0  0  0  0
   39.4100   24.9640   34.4380 C   0  0  0  0  0  0  0  0  0  0  0  0
   38.9400   23.9780   35.3120 C   0  0  0  0  0  0  0  0  0  0  0  0
   37.8720   23.7420   35.4420 H   0  0  0  0  0  0  0  0  0  0  0  0
   39.7760   23.2120   36.0880 C   0  0  0  0  0  0  0  0  0  0  0  0
   39.6130   22.2310   36.9830 N   0  0  0  0  0  0  0  0  0  0  0  0
   38.6840   21.8170   37.2910 H   0  0  0  0  0  0  0  0  0  0  0  0
   40.7720   21.8210   37.4570 N   0  0  0  0  0  0  0  0  0  0  0  0
   41.7490   22.5400   36.8710 C   0  0  0  0  0  0  0  0  0  0  0  0
   42.8400   22.5120   36.9850 H   0  0  0  0  0  0  0  0  0  0  0  0
   41.1170   23.4150   36.0090 C   0  0  0  0  0  0  0  0  0  0  0  0
   41.6030   24.3830   35.1540 C   0  0  0  0  0  3  0  0  0  0  0  0
  2 13  1  0  0  0  0
  3  8  1  0  0  0  0
  3  2  2  0  0  0  0
  4  3  1  0  0  0  0
  5  4  2  0  0  0  0
  5  6  1  0  0  0  0
  6  7  2  0  0  0  0
  7  2  1  0  0  0  0
  7  1  1  0  0  0  0
  9  4  1  0  0  0  0
 10  5  1  0  0  0  0
 11  6  1  0  0  0  0
 12 17  1  0  0  0  0
 13 14  1  0  0  0  0
 13 12  2  0  0  0  0
 14 15  2  0  0  0  0
 15 16  1  0  0  0  0
 16 19  1  0  0  0  0
 17 16  2  0  0  0  0
 18 12  1  0  0  0  0
 20 23  1  0  0  0  0
 20 14  1  0  0  0  0
 21 20  1  0  0  0  0
 22 20  1  0  0  0  0
 25 24  1  0  0  0  0
 26 25  2  0  0  0  0
 26  1  1  0  0  0  0
 27 26  1  0  0  0  0
 28 27  2  0  0  0  0
 28 29  1  0  0  0  0
 29 30  2  0  0  0  0
 30 25  1  0  0  0  0
 30 35  1  0  0  0  0
 31 27  1  0  0  0  0
 32 28  1  0  0  0  0
 33 29  1  0  0  0  0
 34 35  2  0  0  0  0
 34 45  1  0  0  0  0
 35 36  1  0  0  0  0
 36 37  1  0  0  0  0
 36 38  2  0  0  0  0
 38 39  1  0  0  0  0
 39 40  1  0  0  0  0
 39 41  1  0  0  0  0
 42 43  1  0  0  0  0
 42 41  2  0  0  0  0
 44 38  1  0  0  0  0
 44 42  1  0  0  0  0
 45 44  2  0  0  0  0
M  END
>  <minimizedAffinity>
-6.66531181

$$$$

 OpenBabel03272506283D

 45 49  0  0  0  0  0  0  0  0999 V2000
   38.1050   26.0920   32.5470 S   0  0  0  0  0  0  0  0  0  0  0  0
   37.6350   23.4990   33.0230 C   0  0  0  0  0  0  0  0  0  0  0  0
   36.9550   22.3190   32.8030 C   0  0  0  0  0  0  0  0  0  0  0  0
   35.8940   22.1910   31.8980 C   0  0  0  0  0  0  0  0  0  0  0  0
   35.5000   23.3360   31.1700 C   0  0  0  0  0  0  0  0  0  0  0  0
   36.1900   24.4910   31.4080 C   0  0  0  0  0  0  0  0  0  0  0  0
   37.2230   24.6100   32.2890 C   0  0  0  0  0  0  0  0  0  0  0  0
   37.2410   21.4160   33.3560 H   0  0  0  0  0  0  0  0  0  0  0  0
   35.4330   21.1950   31.8110 H   0  0  0  0  0  0  0  0  0  0  0  0
   34.6850   23.0900   30.5230 H   0  0  0  0  0  0  0  0  0  0  0  0
   35.7240   25.2110   30.7770 H   0  0  0  0  0  0  0  0  0  0  0  0
   38.3220   23.7330   35.3300 C   0  0  0  0  0  0  0  0  0  0  0  0
   38.6870   23.4600   34.0060 C   0  0  0  0  0  0  0  0  0  0  0  0
   40.0310   23.1720   33.7350 C   0  0  0  0  0  0  0  0  0  0  0  0
   40.9180   23.1690   34.7630 N   0  0  0  0  0  0  0  0  0  0  0  0
   40.5340   23.4390   36.0460 C   0  0  0  0  0  0  0  0  0  0  0  0
   39.2370   23.7190   36.3240 N   0  0  0  0  0  0  0  0  0  0  0  0
   37.2940   23.9580   35.5680 H   0  0  0  0  0  0  0  0  0  0  0  0
   41.2960   23.4190   36.8190 H   0  0  0  0  0  0  0  0  0  0  0  0
   40.5650   22.8650   32.3790 C   0  0  0  0  0  0  0  0  0  0  0  0
   40.0620   21.6200   31.9520 F   0  0  0  0  0  0  0  0  0  0  0  0
   40.3090   23.7810   31.4220 F   0  0  0  0  0  0  0  0  0  0  0  0
   41.9400   22.6540   32.4520 F   0  0  0  0  0  0  0  0  0  0  0  0
   36.8190   27.6340   34.9200 Cl  0  0  0  0  0  0  0  0  0  0  0  0
   36.6490   28.2110   33.2850 C   0  0  0  0  0  0  0  0  0  0  0  0
   37.1930   27.5680   32.1890 C   0  0  0  0  0  0  0  0  0  0  0  0
   37.0330   28.0520   30.9180 C   0  0  0  0  0  0  0  0  0  0  0  0
   36.2940   29.2310   30.7610 C   0  0  0  0  0  0  0  0  0  0  0  0
   35.7440   29.8850   31.8520 C   0  0  0  0  0  0  0  0  0  0  0  0
   35.9130   29.3840   33.1280 C   0  0  0  0  0  0  0  0  0  0  0  0
   37.3760   27.6260   30.0140 H   0  0  0  0  0  0  0  0  0  0  0  0
   36.1230   29.6770   29.7910 H   0  0  0  0  0  0  0  0  0  0  0  0
   35.1760   30.7980   31.6920 H   0  0  0  0  0  0  0  0  0  0  0  0
   35.8870   31.0000   35.1270 C   0  0  0  0  0  3  0  0  0  0  0  0
   35.3140   30.1040   34.2480 C   0  0  0  0  0  0  0  0  0  0  0  0
   33.9560   29.8150   34.4190 C   0  0  0  0  0  0  0  0  0  0  0  0
   33.4000   29.1150   33.7750 H   0  0  0  0  0  0  0  0  0  0  0  0
   33.1930   30.3810   35.4110 C   0  0  0  0  0  0  0  0  0  0  0  0
   31.9160   30.2930   35.7980 N   0  0  0  0  0  0  0  0  0  0  0  0
   31.1670   29.6890   35.3450 H   0  0  0  0  0  0  0  0  0  0  0  0
   31.6790   31.0650   36.8390 N   0  0  0  0  0  0  0  0  0  0  0  0
   32.8230   31.6940   37.1700 C   0  0  0  0  0  0  0  0  0  0  0  0
   33.0530   32.4140   37.9660 H   0  0  0  0  0  0  0  0  0  0  0  0
   33.7750   31.2610   36.2670 C   0  0  0  0  0  0  0  0  0  0  0  0
   35.1130   31.5610   36.1180 C   0  0  0  0  0  3  0  0  0  0  0  0
  2 13  1  0  0  0  0
  3  2  1  0  0  0  0
  3  8  1  0  0  0  0
  4  3  2  0  0  0  0
  5  6  2  0  0  0  0
  5  4  1  0  0  0  0
  6  7  1  0  0  0  0
  7  1  1  0  0  0  0
  7  2  2  0  0  0  0
  9  4  1  0  0  0  0
 10  5  1  0  0  0  0
 11  6  1  0  0  0  0
 12 18  1  0  0  0  0
 12 17  1  0  0  0  0
 13 12  2  0  0  0  0
 14 13  1  0  0  0  0
 14 15  2  0  0  0  0
 15 16  1  0  0  0  0
 16 17  2  0  0  0  0
 16 19  1  0  0  0  0
 20 23  1  0  0  0  0
 20 14  1  0  0  0  0
 21 20  1  0  0  0  0
 22 20  1  0  0  0  0
 25 24  1  0  0  0  0
 26  1  1  0  0  0  0
 26 25  2  0  0  0  0
 27 26  1  0  0  0  0
 28 27  2  0  0  0  0
 28 29  1  0  0  0  0
 29 30  2  0  0  0  0
 30 25  1  0  0  0  0
 30 35  1  0  0  0  0
 31 27  1  0  0  0  0
 32 28  1  0  0  0  0
 33 29  1  0  0  0  0
 34 45  1  0  0  0  0
 35 36  1  0  0  0  0
 35 34  2  0  0  0  0
 36 38  2  0  0  0  0
 37 36  1  0  0  0  0
 38 39  1  0  0  0  0
 38 44  1  0  0  0  0
 39 41  1  0  0  0  0
 40 39  1  0  0  0  0
 41 42  2  0  0  0  0
 42 43  1  0  0  0  0
 44 42  1  0  0  0  0
 45 44  2  0  0  0  0
M  END
>  <minimizedAffinity>
-6.63702726

$$$$

 OpenBabel03272506283D

 45 49  0  0  0  0  0  0  0  0999 V2000
   34.6220   29.1510   33.1540 S   0  0  0  0  0  0  0  0  0  0  0  0
   33.7030   31.1090   34.7330 C   0  0  0  0  0  0  0  0  0  0  0  0
   33.8690   32.0840   35.6950 C   0  0  0  0  0  0  0  0  0  0  0  0
   35.0890   32.3490   36.3300 C   0  0  0  0  0  0  0  0  0  0  0  0
   36.2110   31.5730   35.9630 C   0  0  0  0  0  0  0  0  0  0  0  0
   36.0180   30.6150   35.0090 C   0  0  0  0  0  0  0  0  0  0  0  0
   34.8290   30.3610   34.3920 C   0  0  0  0  0  0  0  0  0  0  0  0
   33.0130   32.7000   35.9990 H   0  0  0  0  0  0  0  0  0  0  0  0
   35.0930   33.1550   37.0810 H   0  0  0  0  0  0  0  0  0  0  0  0
   37.0660   31.8850   36.5250 H   0  0  0  0  0  0  0  0  0  0  0  0
   36.9710   30.1530   34.9030 H   0  0  0  0  0  0  0  0  0  0  0  0
   32.0860   31.6530   33.0200 C   0  0  0  0  0  0  0  0  0  0  0  0
   32.3740   30.9550   34.1990 C   0  0  0  0  0  0  0  0  0  0  0  0
   31.3640   30.1680   34.7670 C   0  0  0  0  0  0  0  0  0  0  0  0
   30.1540   30.1150   34.1530 N   0  0  0  0  0  0  0  0  0  0  0  0
   29.9000   30.8070   33.0030 C   0  0  0  0  0  0  0  0  0  0  0  0
   30.8670   31.5720   32.4410 N   0  0  0  0  0  0  0  0  0  0  0  0
   32.8440   32.2670   32.5600 H   0  0  0  0  0  0  0  0  0  0  0  0
   28.9100   30.7190   32.5650 H   0  0  0  0  0  0  0  0  0  0  0  0
   31.5250   29.3740   36.0170 C   0  0  0  0  0  0  0  0  0  0  0  0
   32.5540   28.4280   35.8380 F   0  0  0  0  0  0  0  0  0  0  0  0
   31.7830   30.0810   37.1370 F   0  0  0  0  0  0  0  0  0  0  0  0
   30.3920   28.5890   36.2230 F   0  0  0  0  0  0  0  0  0  0  0  0
   36.5680   27.1940   34.5840 Cl  0  0  0  0  0  0  0  0  0  0  0  0
   36.9340   27.8160   32.9980 C   0  0  0  0  0  0  0  0  0  0  0  0
   36.1120   28.6910   32.3130 C   0  0  0  0  0  0  0  0  0  0  0  0
   36.4370   29.1610   31.0690 C   0  0  0  0  0  0  0  0  0  0  0  0
   37.6420   28.7210   30.5040 C   0  0  0  0  0  0  0  0  0  0  0  0
   38.4740   27.8440   31.1810 C   0  0  0  0  0  0  0  0  0  0  0  0
   38.1320   27.3790   32.4360 C   0  0  0  0  0  0  0  0  0  0  0  0
   35.9020   29.8520   30.4770 H   0  0  0  0  0  0  0  0  0  0  0  0
   37.9690   29.0450   29.5260 H   0  0  0  0  0  0  0  0  0  0  0  0
   39.4010   27.5240   30.7110 H   0  0  0  0  0  0  0  0  0  0  0  0
   38.8960   25.1100   33.3730 C   0  0  0  0  0  3  0  0  0  0  0  0
   39.0400   26.4570   33.1120 C   0  0  0  0  0  0  0  0  0  0  0  0
   40.2210   27.0730   33.5430 C   0  0  0  0  0  0  0  0  0  0  0  0
   40.4380   28.1410   33.3880 H   0  0  0  0  0  0  0  0  0  0  0  0
   41.2170   26.3940   34.2020 C   0  0  0  0  0  0  0  0  0  0  0  0
   42.4110   26.7130   34.7120 N   0  0  0  0  0  0  0  0  0  0  0  0
   42.8580   27.6770   34.6960 H   0  0  0  0  0  0  0  0  0  0  0  0
   42.9930   25.6640   35.2570 N   0  0  0  0  0  0  0  0  0  0  0  0
   42.1740   24.6030   35.1150 C   0  0  0  0  0  0  0  0  0  0  0  0
   42.2810   23.5560   35.4260 H   0  0  0  0  0  0  0  0  0  0  0  0
   41.0560   25.0670   34.4500 C   0  0  0  0  0  0  0  0  0  0  0  0
   39.9000   24.4400   34.0340 C   0  0  0  0  0  3  0  0  0  0  0  0
  1  7  1  0  0  0  0
  2  3  1  0  0  0  0
  3  8  1  0  0  0  0
  3  4  2  0  0  0  0
  4  9  1  0  0  0  0
  5  4  1  0  0  0  0
  5 10  1  0  0  0  0
  6  5  2  0  0  0  0
  7  2  2  0  0  0  0
  7  6  1  0  0  0  0
 11  6  1  0  0  0  0
 12 13  1  0  0  0  0
 13  2  1  0  0  0  0
 13 14  2  0  0  0  0
 14 20  1  0  0  0  0
 15 14  1  0  0  0  0
 16 15  2  0  0  0  0
 17 16  1  0  0  0  0
 17 12  2  0  0  0  0
 18 12  1  0  0  0  0
 19 16  1  0  0  0  0
 20 23  1  0  0  0  0
 20 22  1  0  0  0  0
 21 20  1  0  0  0  0
 25 24  1  0  0  0  0
 26 25  2  0  0  0  0
 26  1  1  0  0  0  0
 27 26  1  0  0  0  0
 28 27  2  0  0  0  0
 28 29  1  0  0  0  0
 29 30  2  0  0  0  0
 30 25  1  0  0  0  0
 30 35  1  0  0  0  0
 31 27  1  0  0  0  0
 32 28  1  0  0  0  0
 33 29  1  0  0  0  0
 34 45  1  0  0  0  0
 35 34  2  0  0  0  0
 35 36  1  0  0  0  0
 36 38  2  0  0  0  0
 37 36  1  0  0  0  0
 38 44  1  0  0  0  0
 38 39  1  0  0  0  0
 39 41  1  0  0  0  0
 40 39  1  0  0  0  0
 42 41  2  0  0  0  0
 42 43  1  0  0  0  0
 44 42  1  0  0  0  0
 45 44  2  0  0  0  0
M  END
>  <minimizedAffinity>
-6.52409315

$$$$

 OpenBabel03272506283D

 45 49  0  0  0  0  0  0  0  0999 V2000
   34.8110   29.3480   33.7450 S   0  0  0  0  0  0  0  0  0  0  0  0
   33.4280   30.5840   35.6770 C   0  0  0  0  0  0  0  0  0  0  0  0
   33.2900   31.5410   36.6610 C   0  0  0  0  0  0  0  0  0  0  0  0
   34.2990   32.4450   37.0130 C   0  0  0  0  0  0  0  0  0  0  0  0
   35.5280   32.3720   36.3190 C   0  0  0  0  0  0  0  0  0  0  0  0
   35.6370   31.4160   35.3500 C   0  0  0  0  0  0  0  0  0  0  0  0
   34.6510   30.5380   35.0100 C   0  0  0  0  0  0  0  0  0  0  0  0
   32.3460   31.6180   37.2160 H   0  0  0  0  0  0  0  0  0  0  0  0
   34.0660   33.1630   37.8150 H   0  0  0  0  0  0  0  0  0  0  0  0
   36.1980   33.1180   36.6910 H   0  0  0  0  0  0  0  0  0  0  0  0
   36.6290   31.5300   34.9780 H   0  0  0  0  0  0  0  0  0  0  0  0
   32.2290   28.5620   36.2440 C   0  0  0  0  0  0  0  0  0  0  0  0
   32.2970   29.7200   35.4590 C   0  0  0  0  0  0  0  0  0  0  0  0
   31.2740   29.9520   34.5300 C   0  0  0  0  0  0  0  0  0  0  0  0
   30.2640   29.0500   34.4320 N   0  0  0  0  0  0  0  0  0  0  0  0
   30.2230   27.9280   35.2100 C   0  0  0  0  0  0  0  0  0  0  0  0
   31.2050   27.6900   36.1130 N   0  0  0  0  0  0  0  0  0  0  0  0
   33.0020   28.3570   36.9670 H   0  0  0  0  0  0  0  0  0  0  0  0
   29.3860   27.2490   35.0780 H   0  0  0  0  0  0  0  0  0  0  0  0
   31.2140   31.1370   33.6290 C   0  0  0  0  0  0  0  0  0  0  0  0
   31.0180   32.2990   34.4010 F   0  0  0  0  0  0  0  0  0  0  0  0
   32.2870   31.3280   32.8330 F   0  0  0  0  0  0  0  0  0  0  0  0
   30.0670   31.0700   32.8410 F   0  0  0  0  0  0  0  0  0  0  0  0
   36.2150   28.6640   31.0570 Cl  0  0  0  0  0  0  0  0  0  0  0  0
   36.8900   28.1390   32.5750 C   0  0  0  0  0  0  0  0  0  0  0  0
   36.3110   28.4070   33.8010 C   0  0  0  0  0  0  0  0  0  0  0  0
   36.8710   27.9710   34.9730 C   0  0  0  0  0  0  0  0  0  0  0  0
   38.0620   27.2380   34.8890 C   0  0  0  0  0  0  0  0  0  0  0  0
   38.6510   26.9630   33.6660 C   0  0  0  0  0  0  0  0  0  0  0  0
   38.0740   27.4080   32.4920 C   0  0  0  0  0  0  0  0  0  0  0  0
   36.4980   28.0910   35.9530 H   0  0  0  0  0  0  0  0  0  0  0  0
   38.5650   26.8600   35.7680 H   0  0  0  0  0  0  0  0  0  0  0  0
   39.5760   26.3910   33.6400 H   0  0  0  0  0  0  0  0  0  0  0  0
   39.5250   27.8860   30.4250 C   0  0  0  0  0  3  0  0  0  0  0  0
   38.7300   27.0930   31.2260 C   0  0  0  0  0  0  0  0  0  0  0  0
   38.4890   25.7830   30.7990 C   0  0  0  0  0  0  0  0  0  0  0  0
   37.8690   25.0670   31.3610 H   0  0  0  0  0  0  0  0  0  0  0  0
   39.0080   25.2720   29.6350 C   0  0  0  0  0  0  0  0  0  0  0  0
   38.9480   24.0970   28.9990 N   0  0  0  0  0  0  0  0  0  0  0  0
   38.4160   23.2370   29.3280 H   0  0  0  0  0  0  0  0  0  0  0  0
   39.6450   24.1220   27.8810 N   0  0  0  0  0  0  0  0  0  0  0  0
   40.1930   25.3460   27.7510 C   0  0  0  0  0  0  0  0  0  0  0  0
   40.8360   25.7760   26.9720 H   0  0  0  0  0  0  0  0  0  0  0  0
   39.7900   26.0670   28.8580 C   0  0  0  0  0  0  0  0  0  0  0  0
   40.0400   27.3640   29.2600 C   0  0  0  0  0  3  0  0  0  0  0  0
  1 26  1  0  0  0  0
  1  7  1  0  0  0  0
  2  3  1  0  0  0  0
  3  4  2  0  0  0  0
  3  8  1  0  0  0  0
  4  9  1  0  0  0  0
  5 10  1  0  0  0  0
  5  4  1  0  0  0  0
  6  5  2  0  0  0  0
  7  6  1  0  0  0  0
  7  2  2  0  0  0  0
 11  6  1  0  0  0  0
 12 18  1  0  0  0  0
 13  2  1  0  0  0  0
 13 12  2  0  0  0  0
 14 13  1  0  0  0  0
 15 14  2  0  0  0  0
 15 16  1  0  0  0  0
 16 17  2  0  0  0  0
 17 12  1  0  0  0  0
 19 16  1  0  0  0  0
 20 21  1  0  0  0  0
 20 14  1  0  0  0  0
 22 20  1  0  0  0  0
 23 20  1  0  0  0  0
 24 25  1  0  0  0  0
 25 26  1  0  0  0  0
 26 27  2  0  0  0  0
 27 31  1  0  0  0  0
 28 27  1  0  0  0  0
 28 32  1  0  0  0  0
 29 28  2  0  0  0  0
 30 25  2  0  0  0  0
 30 29  1  0  0  0  0
 33 29  1  0  0  0  0
 34 35  1  0  0  0  0
 35 30  1  0  0  0  0
 36 35  2  0  0  0  0
 36 37  1  0  0  0  0
 38 36  1  0  0  0  0
 39 40  1  0  0  0  0
 39 38  1  0  0  0  0
 41 39  1  0  0  0  0
 42 41  2  0  0  0  0
 42 44  1  0  0  0  0
 43 42  1  0  0  0  0
 44 45  1  0  0  0  0
 44 38  2  0  0  0  0
 45 34  2  0  0  0  0
M  END
>  <minimizedAffinity>
-6.48688507

$$$$
