
 OpenBabel03272506053D

 33 36  0  0  0  0  0  0  0  0999 V2000
   33.3550   27.7200   48.6320 C   0  0  0  0  0  0  0  0  0  0  0  0
   33.2860   26.6810   47.6310 C   0  0  0  0  0  0  0  0  0  0  0  0
   31.5390   26.3410   47.6260 S   0  0  0  0  0  0  0  0  0  0  0  0
   31.1540   27.6160   48.9430 C   0  0  0  0  0  0  0  0  0  0  0  0
   32.2300   28.0750   49.1890 N   0  0  0  0  0  0  0  0  0  0  0  0
   34.1080   26.2740   47.0780 H   0  0  0  0  0  0  0  0  0  0  0  0
   29.1930   27.1500   50.4310 C   0  0  0  0  0  0  0  0  0  0  0  0
   29.7350   27.7530   49.3430 C   0  0  0  0  0  0  0  0  0  0  0  0
   29.0620   28.5680   48.4590 C   0  0  0  0  0  0  0  0  0  0  0  0
   29.4710   29.0560   47.5920 H   0  0  0  0  0  0  0  0  0  0  0  0
   27.7020   28.8150   48.6770 C   0  0  0  0  0  0  0  0  0  0  0  0
   26.7050   29.5130   48.1000 N   0  0  0  0  0  0  0  0  0  0  0  0
   26.8940   30.0610   47.2370 H   0  0  0  0  0  0  0  0  0  0  0  0
   25.5870   29.3510   48.7980 N   0  0  0  0  0  0  0  0  0  0  0  0
   25.8020   28.5460   49.8580 C   0  0  0  0  0  0  0  0  0  0  0  0
   25.0170   28.2880   50.5550 H   0  0  0  0  0  0  0  0  0  0  0  0
   27.1420   28.2010   49.7880 C   0  0  0  0  0  0  0  0  0  0  0  0
   27.8370   27.3860   50.6620 C   0  0  0  0  0  0  0  0  0  0  0  0
   34.7010   28.3110   48.9550 C   0  0  0  0  0  0  0  0  0  0  0  0
   35.2370   27.6810   49.6950 H   0  0  0  0  0  0  0  0  0  0  0  0
   35.3520   28.2900   48.0370 H   0  0  0  0  0  0  0  0  0  0  0  0
   34.5890   29.6910   49.4800 C   0  0  0  0  0  0  0  0  0  0  0  0
   34.3270   29.7600   50.5520 H   0  0  0  0  0  0  0  0  0  0  0  0
   33.8450   30.2570   48.8760 H   0  0  0  0  0  0  0  0  0  0  0  0
   37.3310   32.1670   49.7410 C   0  0  0  0  0  0  0  0  0  0  0  0
   38.2570   31.7070   48.8000 C   0  0  0  0  0  0  0  0  0  0  0  0
   37.9300   30.5490   48.0850 C   0  0  0  0  0  0  0  0  0  0  0  0
   36.7500   29.9300   48.3280 N   0  0  0  0  0  0  0  0  0  0  0  0
   35.8940   30.4350   49.2600 C   0  0  0  0  0  0  0  0  0  0  0  0
   36.1710   31.5380   49.9620 N   0  0  0  0  0  0  0  0  0  0  0  0
   37.6010   33.0630   50.2840 H   0  0  0  0  0  0  0  0  0  0  0  0
   39.1850   32.2550   48.6590 H   0  0  0  0  0  0  0  0  0  0  0  0
   38.6320   30.1720   47.3510 H   0  0  0  0  0  0  0  0  0  0  0  0
  1 19  1  0  0  0  0
  1  5  1  0  0  0  0
  2  1  2  0  0  0  0
  3  2  1  0  0  0  0
  3  4  1  0  0  0  0
  4  5  2  0  0  0  0
  4  8  1  0  0  0  0
  6  2  1  0  0  0  0
  7 18  1  0  0  0  0
  8  7  2  0  0  0  0
  9 11  2  0  0  0  0
  9  8  1  0  0  0  0
 10  9  1  0  0  0  0
 11 17  1  0  0  0  0
 12 11  1  0  0  0  0
 12 14  1  0  0  0  0
 13 12  1  0  0  0  0
 14 15  2  0  0  0  0
 15 16  1  0  0  0  0
 17 15  1  0  0  0  0
 17 18  2  0  0  0  0
 19 22  1  0  0  0  0
 19 20  1  0  0  0  0
 21 19  1  0  0  0  0
 22 23  1  0  0  0  0
 24 22  1  0  0  0  0
 25 30  1  0  0  0  0
 25 31  1  0  0  0  0
 26 25  2  0  0  0  0
 27 28  2  0  0  0  0
 27 26  1  0  0  0  0
 28 29  1  0  0  0  0
 29 22  1  0  0  0  0
 29 30  2  0  0  0  0
 32 26  1  0  0  0  0
 33 27  1  0  0  0  0
M  END
>  <minimizedAffinity>
-6.39131689

>  <minimizedRMSD>
2.50617599

$$$$
