
     RDKit          3D

 36 39  0  0  0  0  0  0  0  0999 V2000
   38.4681   30.8114   49.8586 Cl  0  0  0  0  0  0  0  0  0  0  0  0
   37.0957   30.3579   48.8960 C   0  0  0  0  0  0  0  0  0  0  0  0
   37.0928   30.6319   47.5319 C   0  0  0  0  0  0  0  0  0  0  0  0
   36.0289   30.3016   46.7332 C   0  0  0  0  0  0  0  0  0  0  0  0
   34.9167   29.6816   47.2595 C   0  0  0  0  0  0  0  0  0  0  0  0
   34.8769   29.3915   48.6052 C   0  0  0  0  0  0  0  0  0  0  0  0
   33.5278   28.6126   49.4097 Cl  0  0  0  0  0  0  0  0  0  0  0  0
   35.9783   29.7415   49.3875 C   0  0  0  0  0  0  0  0  0  0  0  0
   39.5908   33.1674   46.6345 C   0  0  0  0  0  0  0  0  0  0  0  0
   40.4674   32.4713   45.7897 C   0  0  0  0  0  0  0  0  0  0  0  0
   40.1687   31.1175   45.5504 C   0  0  0  0  0  0  0  0  0  0  0  0
   39.0700   30.5804   46.1419 N   0  0  0  0  0  0  0  0  0  0  0  0
   38.2482   31.2774   46.9481 C   0  0  0  0  0  0  0  0  0  0  0  0
   38.5419   32.5530   47.1657 N   0  0  0  0  0  0  0  0  0  0  0  0
   35.9769   29.4130   50.8401 C   0  0  0  0  0  0  0  0  0  0  0  0
   36.0422   30.5212   45.6712 H   0  0  0  0  0  0  0  0  0  0  0  0
   34.0519   29.4009   46.6744 H   0  0  0  0  0  0  0  0  0  0  0  0
   39.6643   34.2043   46.9262 H   0  0  0  0  0  0  0  0  0  0  0  0
   41.2891   33.0582   45.4080 H   0  0  0  0  0  0  0  0  0  0  0  0
   40.8553   30.6229   44.9046 H   0  0  0  0  0  0  0  0  0  0  0  0
   34.9333   29.1774   51.1337 H   0  0  0  0  0  0  0  0  0  0  0  0
   36.4040   30.2585   51.4237 H   0  0  0  0  0  0  0  0  0  0  0  0
   37.0487   27.7526   52.3370 C   0  0  0  0  0  0  0  0  0  0  0  0
   36.8076   28.2026   51.0357 C   0  0  0  0  0  0  0  0  0  0  0  0
   37.3672   27.4738   50.0146 C   0  0  0  0  0  0  0  0  0  0  0  0
   37.1572   27.8549   49.0336 H   0  0  0  0  0  0  0  0  0  0  0  0
   38.1437   26.3370   50.1731 C   0  0  0  0  0  0  0  0  0  0  0  0
   38.7761   25.4886   49.3303 N   0  0  0  0  0  0  0  0  0  0  0  0
   38.7644   25.5881   48.2775 H   0  0  0  0  0  0  0  0  0  0  0  0
   39.3803   24.5604   50.0532 N   0  0  0  0  0  0  0  0  0  0  0  0
   39.1438   24.8002   51.3713 C   0  0  0  0  0  0  0  0  0  0  0  0
   39.5370   24.1716   52.1626 H   0  0  0  0  0  0  0  0  0  0  0  0
   38.3583   25.9254   51.4923 C   0  0  0  0  0  0  0  0  0  0  0  0
   37.8240   26.6152   52.5602 C   0  0  0  0  0  0  0  0  0  0  0  0
   36.6435   28.2692   53.2176 H   0  0  0  0  0  0  0  0  0  0  0  0
   38.0488   26.2134   53.5486 H   0  0  0  0  0  0  0  0  0  0  0  0
  2  8  2  0
  2  1  1  0
  3  2  1  0
  4  5  1  0
  4  3  2  0
  5  6  2  0
  6  8  1  0
  6  7  1  0
  8 15  1  0
  9 14  2  0
 10  9  1  0
 11 10  2  0
 11 12  1  0
 12 13  2  0
 13 14  1  0
 13  3  1  0
  4 16  1  0
  5 17  1  0
  9 18  1  0
 10 19  1  0
 11 20  1  0
 15 21  1  0
 15 22  1  0
 23 24  2  0
 24 25  1  0
 25 26  1  0
 25 27  2  0
 27 28  1  0
 28 29  1  0
 28 30  1  0
 30 31  2  0
 31 32  1  0
 31 33  1  0
 33 34  2  0
 34 23  1  0
 33 27  1  0
 23 35  1  0
 34 36  1  0
 15 24  1  0
M  ISO  8  16  14  17  14  18  14  19  14  20  14  21   8  22   8  26  16
M  ISO  2  29   5  32  15
M  END
>  <DihAtoms>  (1) 
7,14,23,22

>  <DihDeg>  (1) 
175.02606037093148

$$$$
