
 OpenBabel03272508113D

 37 40  0  0  0  0  0  0  0  0999 V2000
   36.7340   29.4090   44.1530 Cl  0  0  0  0  0  0  0  0  0  0  0  0
   38.3830   29.7960   43.6090 C   0  0  0  0  0  0  0  0  0  0  0  0
   39.3600   30.3300   44.4310 C   0  0  0  0  0  0  0  0  0  0  0  0
   40.6040   30.5850   43.8780 C   0  0  0  0  0  0  0  0  0  0  0  0
   40.8550   30.3170   42.5570 C   0  0  0  0  0  0  0  0  0  0  0  0
   39.8980   29.7890   41.7310 C   0  0  0  0  0  0  0  0  0  0  0  0
   38.6620   29.5300   42.2640 C   0  0  0  0  0  0  0  0  0  0  0  0
   41.3090   31.0000   44.5820 H   0  0  0  0  0  0  0  0  0  0  0  0
   41.8490   30.5410   42.1900 H   0  0  0  0  0  0  0  0  0  0  0  0
   40.1540   29.5980   40.6950 H   0  0  0  0  0  0  0  0  0  0  0  0
   37.6830   27.5720   41.2240 C   0  0  0  0  0  3  0  0  0  0  0  0
   37.6750   28.9670   41.3410 C   0  0  0  0  0  0  0  0  0  0  0  0
   36.7400   29.6310   40.5750 C   0  0  0  0  0  0  0  0  0  0  0  0
   36.7610   30.7040   40.6910 H   0  0  0  0  0  0  0  0  0  0  0  0
   35.8900   28.9140   39.7630 C   0  0  0  0  0  0  0  0  0  0  0  0
   34.9160   29.3510   38.9420 N   0  0  0  0  0  0  0  0  0  0  0  0
   34.6480   30.3500   38.7940 H   0  0  0  0  0  0  0  0  0  0  0  0
   34.3520   28.3250   38.3550 N   0  0  0  0  0  0  0  0  0  0  0  0
   34.9360   27.1680   38.7670 C   0  0  0  0  0  0  0  0  0  0  0  0
   34.7030   26.1510   38.4710 H   0  0  0  0  0  0  0  0  0  0  0  0
   35.9200   27.5410   39.6680 C   0  0  0  0  0  0  0  0  0  0  0  0
   36.8380   26.8380   40.4140 C   0  0  0  0  0  3  0  0  0  0  0  0
   38.9210   30.5250   45.7050 O   0  0  0  0  0  0  0  0  0  0  0  0
   39.4840   32.6210   47.1100 O   0  0  0  0  0  0  0  0  0  0  0  0
   38.3530   31.9190   46.4430 P   0  0  1  0  0  0  0  0  0  0  0  0
   37.7530   32.8760   45.1570 O   0  0  0  0  0  0  0  0  0  0  0  0
   38.5080   33.2340   44.6270 H   0  0  0  0  0  0  0  0  0  0  0  0
   37.0650   31.5310   47.4810 O   0  0  0  0  0  0  0  0  0  0  0  0
   37.6420   30.5130   50.9820 C   0  0  0  0  0  0  0  0  0  0  0  0
   37.7360   31.3300   49.8550 C   0  0  0  0  0  0  0  0  0  0  0  0
   37.1160   30.9250   48.6830 C   0  0  0  0  0  0  0  0  0  0  0  0
   36.4370   29.7250   48.7020 N   0  0  0  0  0  0  0  0  0  0  0  0
   36.3730   28.9680   49.8160 C   0  0  0  0  0  0  0  0  0  0  0  0
   36.9720   29.3600   50.9480 N   0  0  0  0  0  0  0  0  0  0  0  0
   38.1680   30.9390   51.8370 H   0  0  0  0  0  0  0  0  0  0  0  0
   38.2470   32.2730   49.7720 H   0  0  0  0  0  0  0  0  0  0  0  0
   35.8390   28.0260   49.8250 H   0  0  0  0  0  0  0  0  0  0  0  0
  2  1  1  0  0  0  0
  2  3  1  0  0  0  0
  3 23  1  0  0  0  0
  4  3  2  0  0  0  0
  4  8  1  0  0  0  0
  5  4  1  0  0  0  0
  6  7  1  0  0  0  0
  6  5  2  0  0  0  0
  7  2  2  0  0  0  0
  9  5  1  0  0  0  0
 10  6  1  0  0  0  0
 11 12  1  0  0  0  0
 12  7  1  0  0  0  0
 13 14  1  0  0  0  0
 13 12  2  0  0  0  0
 15 13  1  0  0  0  0
 16 15  1  0  0  0  0
 17 16  1  0  0  0  0
 18 19  2  0  0  0  0
 18 16  1  0  0  0  0
 19 21  1  0  0  0  0
 20 19  1  0  0  0  0
 21 15  2  0  0  0  0
 21 22  1  0  0  0  0
 22 11  2  0  0  0  0
 23 25  1  0  0  0  0
 25 24  2  1  0  0  0
 25 28  1  0  0  0  0
 26 25  1  0  0  0  0
 27 26  1  0  0  0  0
 28 31  1  0  0  0  0
 29 35  1  0  0  0  0
 30 29  2  0  0  0  0
 31 32  2  0  0  0  0
 31 30  1  0  0  0  0
 32 33  1  0  0  0  0
 33 37  1  0  0  0  0
 33 34  2  0  0  0  0
 34 29  1  0  0  0  0
 36 30  1  0  0  0  0
M  END
>  <minimizedAffinity>
-4.78188515

>  <minimizedRMSD>
0.87562269

$$$$
