
 OpenBabel03272502033D

 45 50  0  0  0  0  0  0  0  0999 V2000
   37.8880   26.0030   34.2760 C   0  0  0  0  0  0  0  0  0  0  0  0
   38.9890   26.0690   34.1700 H   0  0  0  0  0  0  0  0  0  0  0  0
   37.5900   25.0680   33.7480 H   0  0  0  0  0  0  0  0  0  0  0  0
   37.0090   28.4760   31.6710 C   0  0  0  0  0  0  0  0  0  0  0  0
   36.1770   29.3510   32.3860 C   0  0  0  0  0  0  0  0  0  0  0  0
   35.9280   29.0900   33.7440 C   0  0  0  0  0  0  0  0  0  0  0  0
   36.5070   28.0040   34.2790 N   0  0  0  0  0  0  0  0  0  0  0  0
   37.3140   27.1650   33.5610 C   0  0  0  0  0  0  0  0  0  0  0  0
   37.5360   27.4280   32.2890 N   0  0  0  0  0  0  0  0  0  0  0  0
   37.1990   28.6820   30.6200 H   0  0  0  0  0  0  0  0  0  0  0  0
   35.7320   30.2010   31.9410 H   0  0  0  0  0  0  0  0  0  0  0  0
   33.7220   29.7710   34.4260 C   0  0  0  0  0  3  0  0  0  0  0  0
   35.0830   29.9270   34.5860 C   0  0  0  0  0  0  0  0  0  0  0  0
   35.5780   30.8290   35.4960 C   0  0  0  0  0  0  0  0  0  0  0  0
   36.6350   30.9510   35.6210 H   0  0  0  0  0  0  0  0  0  0  0  0
   34.7700   31.6220   36.2930 C   0  0  0  0  0  0  0  0  0  0  0  0
   35.0000   32.5540   37.2340 N   0  0  0  0  0  0  0  0  0  0  0  0
   35.9450   32.8810   37.5660 H   0  0  0  0  0  0  0  0  0  0  0  0
   33.8330   32.9840   37.6640 N   0  0  0  0  0  0  0  0  0  0  0  0
   32.8240   32.3470   37.0190 C   0  0  0  0  0  0  0  0  0  0  0  0
   31.7610   32.5020   37.1750 H   0  0  0  0  0  0  0  0  0  0  0  0
   33.4040   31.4590   36.1260 C   0  0  0  0  0  0  0  0  0  0  0  0
   32.8810   30.5600   35.2200 C   0  0  0  0  0  3  0  0  0  0  0  0
   37.4480   25.9930   35.7230 C   0  0  0  0  0  0  0  0  0  0  0  0
   37.7070   26.9070   36.2610 H   0  0  0  0  0  0  0  0  0  0  0  0
   36.3810   25.7340   35.7510 H   0  0  0  0  0  0  0  0  0  0  0  0
   38.2100   24.8580   36.3600 C   0  0  0  0  0  0  0  0  0  0  0  0
   37.9200   24.2350   37.5660 C   0  0  0  0  0  0  0  0  0  0  0  0
   38.8640   23.2390   37.7870 C   0  0  0  0  0  0  0  0  0  0  0  0
   39.6940   23.2910   36.7140 N   0  0  0  0  0  0  0  0  0  0  0  0
   39.3050   24.2450   35.8750 N   0  0  0  0  0  0  0  0  0  0  0  0
   41.0970   21.3710   37.4990 N   0  0  0  0  0  0  0  0  0  0  0  0
   40.7780   22.3710   36.6630 C   0  0  0  0  0  0  0  0  0  0  0  0
   41.7240   22.3690   35.6870 N   0  0  0  0  0  0  0  0  0  0  0  0
   42.6070   21.3930   35.9110 C   0  0  0  0  0  0  0  0  0  0  0  0
   43.7240   21.0120   35.2000 C   0  0  0  0  0  0  0  0  0  0  0  0
   44.4570   19.9740   35.6510 N   0  0  0  0  0  0  0  0  0  0  0  0
   44.0760   19.3360   36.7870 C   0  0  0  0  0  0  0  0  0  0  0  0
   42.9730   19.7150   37.4880 N   0  0  0  0  0  0  0  0  0  0  0  0
   42.2230   20.7500   37.0580 C   0  0  0  0  0  0  0  0  0  0  0  0
   37.0970   24.4830   38.2220 H   0  0  0  0  0  0  0  0  0  0  0  0
   38.8500   22.6230   38.6510 H   0  0  0  0  0  0  0  0  0  0  0  0
   40.5620   21.1110   38.3540 H   0  0  0  0  0  0  0  0  0  0  0  0
   44.0000   21.5410   34.2980 H   0  0  0  0  0  0  0  0  0  0  0  0
   44.6310   18.4970   37.1930 H   0  0  0  0  0  0  0  0  0  0  0  0
  1 24  1  0  0  0  0
  2  1  1  0  0  0  0
  3  1  1  0  0  0  0
  4  9  2  0  0  0  0
  4  5  1  0  0  0  0
  5  6  2  0  0  0  0
  6  7  1  0  0  0  0
  6 13  1  0  0  0  0
  8  1  1  0  0  0  0
  8  7  2  0  0  0  0
  9  8  1  0  0  0  0
 10  4  1  0  0  0  0
 11  5  1  0  0  0  0
 12 13  2  0  0  0  0
 12 23  1  0  0  0  0
 13 14  1  0  0  0  0
 14 15  1  0  0  0  0
 14 16  2  0  0  0  0
 16 17  1  0  0  0  0
 17 18  1  0  0  0  0
 17 19  1  0  0  0  0
 20 21  1  0  0  0  0
 20 19  2  0  0  0  0
 22 16  1  0  0  0  0
 22 20  1  0  0  0  0
 23 22  2  0  0  0  0
 24 26  1  0  0  0  0
 24 25  1  0  0  0  0
 24 27  1  0  0  0  0
 27 28  1  0  0  0  0
 28 29  2  0  0  0  0
 28 41  1  0  0  0  0
 29 42  1  0  0  0  0
 30 29  1  0  0  0  0
 31 27  2  0  0  0  0
 31 30  1  0  0  0  0
 32 43  1  0  0  0  0
 33 30  1  0  0  0  0
 33 32  1  0  0  0  0
 34 35  1  0  0  0  0
 34 33  2  0  0  0  0
 35 40  1  0  0  0  0
 36 37  1  0  0  0  0
 36 35  2  0  0  0  0
 37 38  2  0  0  0  0
 38 45  1  0  0  0  0
 38 39  1  0  0  0  0
 40 39  2  0  0  0  0
 40 32  1  0  0  0  0
 44 36  1  0  0  0  0
M  END
>  <minimizedAffinity>
-7.31303596

$$$$

 OpenBabel03272502033D

 45 50  0  0  0  0  0  0  0  0999 V2000
   36.0110   30.0580   32.2100 C   0  0  0  0  0  0  0  0  0  0  0  0
   36.3550   29.6900   33.1960 H   0  0  0  0  0  0  0  0  0  0  0  0
   36.5230   31.0350   32.0560 H   0  0  0  0  0  0  0  0  0  0  0  0
   32.5610   31.2550   31.6230 C   0  0  0  0  0  0  0  0  0  0  0  0
   31.8630   30.6130   32.6560 C   0  0  0  0  0  0  0  0  0  0  0  0
   32.5740   29.7830   33.5400 C   0  0  0  0  0  0  0  0  0  0  0  0
   33.8930   29.6530   33.3360 N   0  0  0  0  0  0  0  0  0  0  0  0
   34.5530   30.2900   32.3200 C   0  0  0  0  0  0  0  0  0  0  0  0
   33.8680   31.0640   31.5030 N   0  0  0  0  0  0  0  0  0  0  0  0
   32.0070   31.8960   30.9420 H   0  0  0  0  0  0  0  0  0  0  0  0
   30.8220   30.7310   32.7960 H   0  0  0  0  0  0  0  0  0  0  0  0
   31.0700   28.0670   34.3080 C   0  0  0  0  0  3  0  0  0  0  0  0
   31.9560   29.0660   34.6490 C   0  0  0  0  0  0  0  0  0  0  0  0
   32.2180   29.3430   35.9690 C   0  0  0  0  0  0  0  0  0  0  0  0
   32.9070   30.1200   36.2360 H   0  0  0  0  0  0  0  0  0  0  0  0
   31.6290   28.6600   37.0170 C   0  0  0  0  0  0  0  0  0  0  0  0
   31.7140   28.7350   38.3570 N   0  0  0  0  0  0  0  0  0  0  0  0
   32.3140   29.4060   38.9040 H   0  0  0  0  0  0  0  0  0  0  0  0
   30.9140   27.8210   38.8610 N   0  0  0  0  0  0  0  0  0  0  0  0
   30.2930   27.1330   37.8690 C   0  0  0  0  0  0  0  0  0  0  0  0
   29.5820   26.3230   37.9960 H   0  0  0  0  0  0  0  0  0  0  0  0
   30.7400   27.6560   36.6660 C   0  0  0  0  0  0  0  0  0  0  0  0
   30.4600   27.3580   35.3490 C   0  0  0  0  0  3  0  0  0  0  0  0
   36.3170   29.0840   31.0930 C   0  0  0  0  0  0  0  0  0  0  0  0
   35.4340   28.5600   30.7220 H   0  0  0  0  0  0  0  0  0  0  0  0
   36.8860   29.6210   30.3230 H   0  0  0  0  0  0  0  0  0  0  0  0
   37.2340   28.0560   31.7050 C   0  0  0  0  0  0  0  0  0  0  0  0
   38.3960   27.5410   31.1470 C   0  0  0  0  0  0  0  0  0  0  0  0
   38.9430   26.6220   32.0340 C   0  0  0  0  0  0  0  0  0  0  0  0
   38.1000   26.6100   33.0980 N   0  0  0  0  0  0  0  0  0  0  0  0
   37.0950   27.4570   32.9010 N   0  0  0  0  0  0  0  0  0  0  0  0
   39.4770   24.9560   34.3790 N   0  0  0  0  0  0  0  0  0  0  0  0
   38.4100   25.7460   34.1860 C   0  0  0  0  0  0  0  0  0  0  0  0
   37.6100   25.5800   35.2720 N   0  0  0  0  0  0  0  0  0  0  0  0
   38.1660   24.7100   36.1180 C   0  0  0  0  0  0  0  0  0  0  0  0
   37.7290   24.2360   37.3350 C   0  0  0  0  0  0  0  0  0  0  0  0
   38.4950   23.3460   37.9980 N   0  0  0  0  0  0  0  0  0  0  0  0
   39.6700   22.9440   37.4510 C   0  0  0  0  0  0  0  0  0  0  0  0
   40.1000   23.4130   36.2480 N   0  0  0  0  0  0  0  0  0  0  0  0
   39.3520   24.3040   35.5650 C   0  0  0  0  0  0  0  0  0  0  0  0
   38.8040   27.8100   30.1820 H   0  0  0  0  0  0  0  0  0  0  0  0
   39.8390   26.0930   31.8260 H   0  0  0  0  0  0  0  0  0  0  0  0
   40.2770   24.8580   33.7200 H   0  0  0  0  0  0  0  0  0  0  0  0
   36.7870   24.5770   37.7440 H   0  0  0  0  0  0  0  0  0  0  0  0
   40.3230   22.2310   37.9420 H   0  0  0  0  0  0  0  0  0  0  0  0
  1  8  1  0  0  0  0
  1  2  1  0  0  0  0
  3  1  1  0  0  0  0
  4  5  1  0  0  0  0
  5 11  1  0  0  0  0
  5  6  2  0  0  0  0
  6 13  1  0  0  0  0
  7  6  1  0  0  0  0
  8  7  2  0  0  0  0
  9  4  2  0  0  0  0
  9  8  1  0  0  0  0
 10  4  1  0  0  0  0
 12 13  2  0  0  0  0
 12 23  1  0  0  0  0
 13 14  1  0  0  0  0
 14 15  1  0  0  0  0
 14 16  2  0  0  0  0
 16 17  1  0  0  0  0
 17 19  1  0  0  0  0
 17 18  1  0  0  0  0
 20 21  1  0  0  0  0
 20 19  2  0  0  0  0
 22 16  1  0  0  0  0
 22 20  1  0  0  0  0
 23 22  2  0  0  0  0
 24 27  1  0  0  0  0
 24  1  1  0  0  0  0
 25 24  1  0  0  0  0
 26 24  1  0  0  0  0
 27 31  2  0  0  0  0
 28 27  1  0  0  0  0
 28 29  2  0  0  0  0
 29 30  1  0  0  0  0
 30 33  1  0  0  0  0
 31 30  1  0  0  0  0
 32 40  1  0  0  0  0
 33 32  1  0  0  0  0
 33 34  2  0  0  0  0
 34 35  1  0  0  0  0
 35 36  1  0  0  0  0
 36 44  1  0  0  0  0
 36 37  2  0  0  0  0
 38 45  1  0  0  0  0
 38 37  1  0  0  0  0
 39 38  2  0  0  0  0
 40 35  2  0  0  0  0
 40 39  1  0  0  0  0
 41 28  1  0  0  0  0
 42 29  1  0  0  0  0
 43 32  1  0  0  0  0
M  END
>  <minimizedAffinity>
-7.08462381

$$$$

 OpenBabel03272502033D

 45 50  0  0  0  0  0  0  0  0999 V2000
   38.1870   26.3250   34.1630 C   0  0  0  0  0  0  0  0  0  0  0  0
   38.4420   27.3750   33.9220 H   0  0  0  0  0  0  0  0  0  0  0  0
   39.1490   25.7630   34.1150 H   0  0  0  0  0  0  0  0  0  0  0  0
   35.7780   26.1700   31.3620 C   0  0  0  0  0  0  0  0  0  0  0  0
   35.6870   24.7860   31.1480 C   0  0  0  0  0  0  0  0  0  0  0  0
   36.4440   23.9240   31.9600 C   0  0  0  0  0  0  0  0  0  0  0  0
   37.2190   24.4860   32.8990 N   0  0  0  0  0  0  0  0  0  0  0  0
   37.2920   25.8390   33.0890 C   0  0  0  0  0  0  0  0  0  0  0  0
   36.5730   26.6300   32.3170 N   0  0  0  0  0  0  0  0  0  0  0  0
   35.1900   26.8320   30.7310 H   0  0  0  0  0  0  0  0  0  0  0  0
   35.0680   24.3670   30.4000 H   0  0  0  0  0  0  0  0  0  0  0  0
   37.1780   21.9470   30.7990 C   0  0  0  0  0  3  0  0  0  0  0  0
   36.4300   22.4730   31.8310 C   0  0  0  0  0  0  0  0  0  0  0  0
   35.7240   21.6450   32.6700 C   0  0  0  0  0  0  0  0  0  0  0  0
   35.1410   22.0520   33.4730 H   0  0  0  0  0  0  0  0  0  0  0  0
   35.7140   20.2670   32.5430 C   0  0  0  0  0  0  0  0  0  0  0  0
   35.1230   19.2630   33.2150 N   0  0  0  0  0  0  0  0  0  0  0  0
   34.4910   19.3640   34.0520 H   0  0  0  0  0  0  0  0  0  0  0  0
   35.4750   18.1340   32.6390 N   0  0  0  0  0  0  0  0  0  0  0  0
   36.2980   18.3740   31.5860 C   0  0  0  0  0  0  0  0  0  0  0  0
   36.7400   17.6290   30.9330 H   0  0  0  0  0  0  0  0  0  0  0  0
   36.4690   19.7470   31.5040 C   0  0  0  0  0  0  0  0  0  0  0  0
   37.1860   20.5550   30.6470 C   0  0  0  0  0  3  0  0  0  0  0  0
   37.5260   26.1880   35.5160 C   0  0  0  0  0  0  0  0  0  0  0  0
   37.6570   27.0650   36.1530 H   0  0  0  0  0  0  0  0  0  0  0  0
   36.4810   25.8930   35.3540 H   0  0  0  0  0  0  0  0  0  0  0  0
   38.2280   25.0320   36.1830 C   0  0  0  0  0  0  0  0  0  0  0  0
   37.8470   24.3920   37.3550 C   0  0  0  0  0  0  0  0  0  0  0  0
   38.7610   23.3800   37.6230 C   0  0  0  0  0  0  0  0  0  0  0  0
   39.6630   23.4390   36.6100 N   0  0  0  0  0  0  0  0  0  0  0  0
   39.3450   24.4120   35.7640 N   0  0  0  0  0  0  0  0  0  0  0  0
   40.9850   21.4870   37.4560 N   0  0  0  0  0  0  0  0  0  0  0  0
   40.7380   22.5050   36.6190 C   0  0  0  0  0  0  0  0  0  0  0  0
   41.7490   22.5070   35.7100 N   0  0  0  0  0  0  0  0  0  0  0  0
   42.6010   21.5150   35.9770 C   0  0  0  0  0  0  0  0  0  0  0  0
   43.7600   21.1300   35.3380 C   0  0  0  0  0  0  0  0  0  0  0  0
   44.4470   20.0750   35.8200 N   0  0  0  0  0  0  0  0  0  0  0  0
   43.9810   19.4240   36.9150 C   0  0  0  0  0  0  0  0  0  0  0  0
   42.8360   19.8050   37.5450 N   0  0  0  0  0  0  0  0  0  0  0  0
   42.1310   20.8580   37.0830 C   0  0  0  0  0  0  0  0  0  0  0  0
   36.9840   24.6410   37.9570 H   0  0  0  0  0  0  0  0  0  0  0  0
   38.6800   22.7500   38.4730 H   0  0  0  0  0  0  0  0  0  0  0  0
   40.3890   21.2200   38.2670 H   0  0  0  0  0  0  0  0  0  0  0  0
   44.1050   21.6710   34.4670 H   0  0  0  0  0  0  0  0  0  0  0  0
   44.4950   18.5690   37.3430 H   0  0  0  0  0  0  0  0  0  0  0  0
  1 24  1  0  0  0  0
  2  1  1  0  0  0  0
  3  1  1  0  0  0  0
  4  9  1  0  0  0  0
  5  4  2  0  0  0  0
  5  6  1  0  0  0  0
  6  7  2  0  0  0  0
  7  8  1  0  0  0  0
  8  1  1  0  0  0  0
  9  8  2  0  0  0  0
 10  4  1  0  0  0  0
 11  5  1  0  0  0  0
 12 13  1  0  0  0  0
 13  6  1  0  0  0  0
 13 14  2  0  0  0  0
 14 15  1  0  0  0  0
 16 14  1  0  0  0  0
 16 17  1  0  0  0  0
 17 18  1  0  0  0  0
 19 17  1  0  0  0  0
 20 19  2  0  0  0  0
 21 20  1  0  0  0  0
 22 20  1  0  0  0  0
 22 16  2  0  0  0  0
 23 12  2  0  0  0  0
 23 22  1  0  0  0  0
 24 25  1  0  0  0  0
 24 27  1  0  0  0  0
 26 24  1  0  0  0  0
 27 28  1  0  0  0  0
 28 29  2  0  0  0  0
 28 41  1  0  0  0  0
 29 42  1  0  0  0  0
 30 33  1  0  0  0  0
 30 29  1  0  0  0  0
 31 27  2  0  0  0  0
 31 30  1  0  0  0  0
 32 43  1  0  0  0  0
 33 32  1  0  0  0  0
 34 35  1  0  0  0  0
 34 33  2  0  0  0  0
 35 40  1  0  0  0  0
 36 37  1  0  0  0  0
 36 35  2  0  0  0  0
 37 38  2  0  0  0  0
 38 45  1  0  0  0  0
 38 39  1  0  0  0  0
 40 32  1  0  0  0  0
 40 39  2  0  0  0  0
 44 36  1  0  0  0  0
M  END
>  <minimizedAffinity>
-7.05261946

$$$$

 OpenBabel03272502033D

 45 50  0  0  0  0  0  0  0  0999 V2000
   35.8100   30.1880   32.0860 C   0  0  0  0  0  0  0  0  0  0  0  0
   36.1770   29.7680   33.0430 H   0  0  0  0  0  0  0  0  0  0  0  0
   36.2870   31.1910   31.9940 H   0  0  0  0  0  0  0  0  0  0  0  0
   32.3020   31.2300   31.5500 C   0  0  0  0  0  0  0  0  0  0  0  0
   31.6530   30.5760   32.6080 C   0  0  0  0  0  0  0  0  0  0  0  0
   32.4150   29.7910   33.4900 C   0  0  0  0  0  0  0  0  0  0  0  0
   33.7340   29.7130   33.2610 N   0  0  0  0  0  0  0  0  0  0  0  0
   34.3460   30.3600   32.2220 C   0  0  0  0  0  0  0  0  0  0  0  0
   33.6130   31.0920   31.4070 N   0  0  0  0  0  0  0  0  0  0  0  0
   31.7080   31.8360   30.8710 H   0  0  0  0  0  0  0  0  0  0  0  0
   30.6100   30.6530   32.7670 H   0  0  0  0  0  0  0  0  0  0  0  0
   30.9790   28.0450   34.3160 C   0  0  0  0  0  3  0  0  0  0  0  0
   31.8500   29.0680   34.6220 C   0  0  0  0  0  0  0  0  0  0  0  0
   32.1460   29.3610   35.9310 C   0  0  0  0  0  0  0  0  0  0  0  0
   32.8230   30.1570   36.1710 H   0  0  0  0  0  0  0  0  0  0  0  0
   31.6060   28.6710   37.0020 C   0  0  0  0  0  0  0  0  0  0  0  0
   31.7310   28.7580   38.3380 N   0  0  0  0  0  0  0  0  0  0  0  0
   32.3310   29.4480   38.8620 H   0  0  0  0  0  0  0  0  0  0  0  0
   30.9700   27.8280   38.8730 N   0  0  0  0  0  0  0  0  0  0  0  0
   30.3360   27.1180   37.9060 C   0  0  0  0  0  0  0  0  0  0  0  0
   29.6490   26.2920   38.0600 H   0  0  0  0  0  0  0  0  0  0  0  0
   30.7320   27.6440   36.6850 C   0  0  0  0  0  0  0  0  0  0  0  0
   30.4180   27.3290   35.3800 C   0  0  0  0  0  3  0  0  0  0  0  0
   36.1390   29.3020   30.9040 C   0  0  0  0  0  0  0  0  0  0  0  0
   35.2740   29.0820   30.2750 H   0  0  0  0  0  0  0  0  0  0  0  0
   36.9890   29.7490   30.3720 H   0  0  0  0  0  0  0  0  0  0  0  0
   36.6090   28.0010   31.5040 C   0  0  0  0  0  0  0  0  0  0  0  0
   37.5920   27.8390   32.4700 C   0  0  0  0  0  0  0  0  0  0  0  0
   37.7190   26.4830   32.7480 C   0  0  0  0  0  0  0  0  0  0  0  0
   36.8130   25.8690   31.9450 N   0  0  0  0  0  0  0  0  0  0  0  0
   36.1600   26.7670   31.2150 N   0  0  0  0  0  0  0  0  0  0  0  0
   37.3430   23.5830   32.8180 N   0  0  0  0  0  0  0  0  0  0  0  0
   36.7140   24.4510   32.0120 C   0  0  0  0  0  0  0  0  0  0  0  0
   35.9060   23.7100   31.2080 N   0  0  0  0  0  0  0  0  0  0  0  0
   36.0310   22.4160   31.5070 C   0  0  0  0  0  0  0  0  0  0  0  0
   35.4190   21.3060   30.9670 C   0  0  0  0  0  0  0  0  0  0  0  0
   35.7270   20.0900   31.4600 N   0  0  0  0  0  0  0  0  0  0  0  0
   36.6280   19.9920   32.4710 C   0  0  0  0  0  0  0  0  0  0  0  0
   37.2310   21.0890   33.0040 N   0  0  0  0  0  0  0  0  0  0  0  0
   36.9390   22.3170   32.5280 C   0  0  0  0  0  0  0  0  0  0  0  0
   38.1630   28.6350   32.9280 H   0  0  0  0  0  0  0  0  0  0  0  0
   38.4130   26.1100   33.4590 H   0  0  0  0  0  0  0  0  0  0  0  0
   38.0340   23.8400   33.5530 H   0  0  0  0  0  0  0  0  0  0  0  0
   34.7050   21.4170   30.1610 H   0  0  0  0  0  0  0  0  0  0  0  0
   36.9110   19.0380   32.9040 H   0  0  0  0  0  0  0  0  0  0  0  0
  1  8  1  0  0  0  0
  1  2  1  0  0  0  0
  3  1  1  0  0  0  0
  4  5  1  0  0  0  0
  5 11  1  0  0  0  0
  5  6  2  0  0  0  0
  6 13  1  0  0  0  0
  7  6  1  0  0  0  0
  8  7  2  0  0  0  0
  9  4  2  0  0  0  0
  9  8  1  0  0  0  0
 10  4  1  0  0  0  0
 12 13  2  0  0  0  0
 12 23  1  0  0  0  0
 13 14  1  0  0  0  0
 14 15  1  0  0  0  0
 14 16  2  0  0  0  0
 16 17  1  0  0  0  0
 17 18  1  0  0  0  0
 17 19  1  0  0  0  0
 20 21  1  0  0  0  0
 20 19  2  0  0  0  0
 22 16  1  0  0  0  0
 22 20  1  0  0  0  0
 23 22  2  0  0  0  0
 24 27  1  0  0  0  0
 24  1  1  0  0  0  0
 25 24  1  0  0  0  0
 26 24  1  0  0  0  0
 27 28  1  0  0  0  0
 28 29  2  0  0  0  0
 28 41  1  0  0  0  0
 29 42  1  0  0  0  0
 30 33  1  0  0  0  0
 30 29  1  0  0  0  0
 31 27  2  0  0  0  0
 31 30  1  0  0  0  0
 32 43  1  0  0  0  0
 33 32  1  0  0  0  0
 34 35  1  0  0  0  0
 34 33  2  0  0  0  0
 35 40  1  0  0  0  0
 36 37  1  0  0  0  0
 36 35  2  0  0  0  0
 37 38  2  0  0  0  0
 38 45  1  0  0  0  0
 38 39  1  0  0  0  0
 40 32  1  0  0  0  0
 40 39  2  0  0  0  0
 44 36  1  0  0  0  0
M  END
>  <minimizedAffinity>
-6.83875227

$$$$

 OpenBabel03272502033D

 45 50  0  0  0  0  0  0  0  0999 V2000
   38.6560   27.4240   31.5090 C   0  0  0  0  0  0  0  0  0  0  0  0
   39.2890   26.6170   31.0930 H   0  0  0  0  0  0  0  0  0  0  0  0
   39.2580   28.3580   31.4170 H   0  0  0  0  0  0  0  0  0  0  0  0
   37.3780   27.4070   34.9790 C   0  0  0  0  0  0  0  0  0  0  0  0
   38.2070   26.4470   35.5770 C   0  0  0  0  0  0  0  0  0  0  0  0
   39.1910   25.8190   34.7940 C   0  0  0  0  0  0  0  0  0  0  0  0
   39.2750   26.1810   33.5050 N   0  0  0  0  0  0  0  0  0  0  0  0
   38.4540   27.1200   32.9430 C   0  0  0  0  0  0  0  0  0  0  0  0
   37.5390   27.6980   33.6960 N   0  0  0  0  0  0  0  0  0  0  0  0
   36.6190   27.8900   35.5890 H   0  0  0  0  0  0  0  0  0  0  0  0
   38.1210   26.1790   36.5970 H   0  0  0  0  0  0  0  0  0  0  0  0
   41.4380   24.9770   34.9850 C   0  0  0  0  0  3  0  0  0  0  0  0
   40.1080   24.8090   35.3060 C   0  0  0  0  0  0  0  0  0  0  0  0
   39.7060   23.7380   36.0670 C   0  0  0  0  0  0  0  0  0  0  0  0
   38.6720   23.6050   36.3170 H   0  0  0  0  0  0  0  0  0  0  0  0
   40.5810   22.7810   36.5500 C   0  0  0  0  0  0  0  0  0  0  0  0
   40.4460   21.6710   37.2960 N   0  0  0  0  0  0  0  0  0  0  0  0
   39.5430   21.2920   37.6860 H   0  0  0  0  0  0  0  0  0  0  0  0
   41.6410   21.1430   37.4500 N   0  0  0  0  0  0  0  0  0  0  0  0
   42.5760   21.8910   36.8130 C   0  0  0  0  0  0  0  0  0  0  0  0
   43.6430   21.6920   36.7750 H   0  0  0  0  0  0  0  0  0  0  0  0
   41.9170   22.9580   36.2240 C   0  0  0  0  0  0  0  0  0  0  0  0
   42.3460   24.0240   35.4620 C   0  0  0  0  0  3  0  0  0  0  0  0
   37.3280   27.5420   30.7930 C   0  0  0  0  0  0  0  0  0  0  0  0
   36.6620   28.2840   31.2370 H   0  0  0  0  0  0  0  0  0  0  0  0
   37.5320   27.6940   29.7250 H   0  0  0  0  0  0  0  0  0  0  0  0
   36.6760   26.1920   30.9470 C   0  0  0  0  0  0  0  0  0  0  0  0
   35.3210   25.9370   31.1130 C   0  0  0  0  0  0  0  0  0  0  0  0
   35.1390   24.5630   31.2140 C   0  0  0  0  0  0  0  0  0  0  0  0
   36.3840   24.0310   31.1070 N   0  0  0  0  0  0  0  0  0  0  0  0
   37.2860   24.9930   30.9480 N   0  0  0  0  0  0  0  0  0  0  0  0
   35.5650   21.6690   31.2650 N   0  0  0  0  0  0  0  0  0  0  0  0
   36.5120   22.6150   31.1760 C   0  0  0  0  0  0  0  0  0  0  0  0
   37.7050   21.9620   31.1610 N   0  0  0  0  0  0  0  0  0  0  0  0
   37.5020   20.6450   31.2390 C   0  0  0  0  0  0  0  0  0  0  0  0
   38.3980   19.5980   31.2570 C   0  0  0  0  0  0  0  0  0  0  0  0
   37.9230   18.3390   31.3430 N   0  0  0  0  0  0  0  0  0  0  0  0
   36.5830   18.1380   31.4090 C   0  0  0  0  0  0  0  0  0  0  0  0
   35.6990   19.1730   31.3910 N   0  0  0  0  0  0  0  0  0  0  0  0
   36.1490   20.4420   31.3050 C   0  0  0  0  0  0  0  0  0  0  0  0
   34.5410   26.6840   31.1570 H   0  0  0  0  0  0  0  0  0  0  0  0
   34.1830   24.1240   31.3480 H   0  0  0  0  0  0  0  0  0  0  0  0
   34.5400   21.8490   31.2970 H   0  0  0  0  0  0  0  0  0  0  0  0
   39.4610   19.7920   31.2030 H   0  0  0  0  0  0  0  0  0  0  0  0
   36.1490   17.1460   31.4790 H   0  0  0  0  0  0  0  0  0  0  0  0
  1  8  1  0  0  0  0
  2  1  1  0  0  0  0
  3  1  1  0  0  0  0
  4  5  1  0  0  0  0
  4 10  1  0  0  0  0
  5 11  1  0  0  0  0
  6 13  1  0  0  0  0
  6  5  2  0  0  0  0
  7  6  1  0  0  0  0
  8  7  2  0  0  0  0
  8  9  1  0  0  0  0
  9  4  2  0  0  0  0
 12 13  2  0  0  0  0
 12 23  1  0  0  0  0
 13 14  1  0  0  0  0
 14 15  1  0  0  0  0
 14 16  2  0  0  0  0
 16 17  1  0  0  0  0
 17 19  1  0  0  0  0
 17 18  1  0  0  0  0
 20 19  2  0  0  0  0
 21 20  1  0  0  0  0
 22 16  1  0  0  0  0
 22 20  1  0  0  0  0
 23 22  2  0  0  0  0
 24 27  1  0  0  0  0
 24 25  1  0  0  0  0
 24  1  1  0  0  0  0
 26 24  1  0  0  0  0
 27 31  2  0  0  0  0
 27 28  1  0  0  0  0
 28 41  1  0  0  0  0
 28 29  2  0  0  0  0
 29 42  1  0  0  0  0
 30 33  1  0  0  0  0
 30 29  1  0  0  0  0
 31 30  1  0  0  0  0
 32 43  1  0  0  0  0
 32 40  1  0  0  0  0
 33 32  1  0  0  0  0
 34 33  2  0  0  0  0
 34 35  1  0  0  0  0
 35 36  2  0  0  0  0
 35 40  1  0  0  0  0
 36 37  1  0  0  0  0
 37 38  2  0  0  0  0
 38 45  1  0  0  0  0
 39 38  1  0  0  0  0
 40 39  2  0  0  0  0
 44 36  1  0  0  0  0
M  END
>  <minimizedAffinity>
-6.75065231

$$$$

 OpenBabel03272502033D

 45 50  0  0  0  0  0  0  0  0999 V2000
   38.3530   26.5450   34.5880 C   0  0  0  0  0  0  0  0  0  0  0  0
   38.6790   27.6000   34.6630 H   0  0  0  0  0  0  0  0  0  0  0  0
   39.2900   25.9430   34.5380 H   0  0  0  0  0  0  0  0  0  0  0  0
   36.3250   25.2220   31.7930 C   0  0  0  0  0  0  0  0  0  0  0  0
   36.3190   26.3130   30.9120 C   0  0  0  0  0  0  0  0  0  0  0  0
   37.0060   27.4840   31.2780 C   0  0  0  0  0  0  0  0  0  0  0  0
   37.6310   27.4840   32.4640 N   0  0  0  0  0  0  0  0  0  0  0  0
   37.6220   26.4070   33.3080 C   0  0  0  0  0  0  0  0  0  0  0  0
   36.9730   25.3200   32.9450 N   0  0  0  0  0  0  0  0  0  0  0  0
   35.7920   24.3190   31.5060 H   0  0  0  0  0  0  0  0  0  0  0  0
   35.8180   26.2870   29.9810 H   0  0  0  0  0  0  0  0  0  0  0  0
   36.4920   29.8150   30.9670 C   0  0  0  0  0  3  0  0  0  0  0  0
   37.0690   28.6770   30.4440 C   0  0  0  0  0  0  0  0  0  0  0  0
   37.6620   28.7040   29.2050 C   0  0  0  0  0  0  0  0  0  0  0  0
   38.1120   27.8210   28.7970 H   0  0  0  0  0  0  0  0  0  0  0  0
   37.7200   29.8410   28.4180 C   0  0  0  0  0  0  0  0  0  0  0  0
   38.2280   30.1220   27.2050 N   0  0  0  0  0  0  0  0  0  0  0  0
   38.7290   29.4470   26.5700 H   0  0  0  0  0  0  0  0  0  0  0  0
   37.9880   31.3910   26.9550 N   0  0  0  0  0  0  0  0  0  0  0  0
   37.3220   31.9620   27.9900 C   0  0  0  0  0  0  0  0  0  0  0  0
   36.9970   32.9960   28.0540 H   0  0  0  0  0  0  0  0  0  0  0  0
   37.1370   30.9800   28.9510 C   0  0  0  0  0  0  0  0  0  0  0  0
   36.5360   30.9790   30.1920 C   0  0  0  0  0  3  0  0  0  0  0  0
   37.4820   26.1260   35.7520 C   0  0  0  0  0  0  0  0  0  0  0  0
   37.3640   26.9060   36.5070 H   0  0  0  0  0  0  0  0  0  0  0  0
   36.5390   25.7370   35.3460 H   0  0  0  0  0  0  0  0  0  0  0  0
   38.2110   24.9740   36.3970 C   0  0  0  0  0  0  0  0  0  0  0  0
   37.8800   24.3430   37.5880 C   0  0  0  0  0  0  0  0  0  0  0  0
   38.8040   23.3330   37.8240 C   0  0  0  0  0  0  0  0  0  0  0  0
   39.6620   23.3830   36.7730 N   0  0  0  0  0  0  0  0  0  0  0  0
   39.3090   24.3510   35.9340 N   0  0  0  0  0  0  0  0  0  0  0  0
   41.0170   21.4360   37.5760 N   0  0  0  0  0  0  0  0  0  0  0  0
   40.7350   22.4480   36.7420 C   0  0  0  0  0  0  0  0  0  0  0  0
   41.7070   22.4420   35.7920 N   0  0  0  0  0  0  0  0  0  0  0  0
   42.5690   21.4520   36.0290 C   0  0  0  0  0  0  0  0  0  0  0  0
   43.6990   21.0610   35.3440 C   0  0  0  0  0  0  0  0  0  0  0  0
   44.4050   20.0090   35.8040 N   0  0  0  0  0  0  0  0  0  0  0  0
   43.9860   19.3660   36.9230 C   0  0  0  0  0  0  0  0  0  0  0  0
   42.8690   19.7530   37.5980 N   0  0  0  0  0  0  0  0  0  0  0  0
   42.1450   20.8030   37.1590 C   0  0  0  0  0  0  0  0  0  0  0  0
   37.0430   24.5970   38.2240 H   0  0  0  0  0  0  0  0  0  0  0  0
   38.7580   22.7080   38.6810 H   0  0  0  0  0  0  0  0  0  0  0  0
   40.4560   21.1750   38.4130 H   0  0  0  0  0  0  0  0  0  0  0  0
   44.0070   21.5950   34.4550 H   0  0  0  0  0  0  0  0  0  0  0  0
   44.5170   18.5140   37.3340 H   0  0  0  0  0  0  0  0  0  0  0  0
  1  2  1  0  0  0  0
  1 24  1  0  0  0  0
  3  1  1  0  0  0  0
  4  9  1  0  0  0  0
  5  6  1  0  0  0  0
  5  4  2  0  0  0  0
  6  7  2  0  0  0  0
  7  8  1  0  0  0  0
  8  1  1  0  0  0  0
  9  8  2  0  0  0  0
 10  4  1  0  0  0  0
 11  5  1  0  0  0  0
 13 12  1  0  0  0  0
 13  6  1  0  0  0  0
 14 13  2  0  0  0  0
 15 14  1  0  0  0  0
 16 22  2  0  0  0  0
 16 14  1  0  0  0  0
 17 16  1  0  0  0  0
 18 17  1  0  0  0  0
 19 17  1  0  0  0  0
 19 20  2  0  0  0  0
 20 21  1  0  0  0  0
 20 22  1  0  0  0  0
 22 23  1  0  0  0  0
 23 12  2  0  0  0  0
 24 27  1  0  0  0  0
 24 25  1  0  0  0  0
 26 24  1  0  0  0  0
 27 28  1  0  0  0  0
 28 29  2  0  0  0  0
 28 41  1  0  0  0  0
 29 42  1  0  0  0  0
 30 29  1  0  0  0  0
 31 27  2  0  0  0  0
 31 30  1  0  0  0  0
 32 43  1  0  0  0  0
 33 30  1  0  0  0  0
 33 32  1  0  0  0  0
 34 35  1  0  0  0  0
 34 33  2  0  0  0  0
 35 40  1  0  0  0  0
 36 37  1  0  0  0  0
 36 35  2  0  0  0  0
 37 38  2  0  0  0  0
 38 45  1  0  0  0  0
 38 39  1  0  0  0  0
 40 32  1  0  0  0  0
 40 39  2  0  0  0  0
 44 36  1  0  0  0  0
M  END
>  <minimizedAffinity>
-6.67501593

$$$$

 OpenBabel03272502033D

 45 50  0  0  0  0  0  0  0  0999 V2000
   37.8810   25.1490   35.0450 C   0  0  0  0  0  0  0  0  0  0  0  0
   36.7940   25.2960   35.2030 H   0  0  0  0  0  0  0  0  0  0  0  0
   37.9700   24.4960   34.1470 H   0  0  0  0  0  0  0  0  0  0  0  0
   38.2750   23.7390   38.4410 C   0  0  0  0  0  0  0  0  0  0  0  0
   39.4730   23.0210   38.3070 C   0  0  0  0  0  0  0  0  0  0  0  0
   40.1320   23.0260   37.0660 C   0  0  0  0  0  0  0  0  0  0  0  0
   39.5650   23.7260   36.0720 N   0  0  0  0  0  0  0  0  0  0  0  0
   38.3950   24.4190   36.2260 C   0  0  0  0  0  0  0  0  0  0  0  0
   37.7940   24.4020   37.3990 N   0  0  0  0  0  0  0  0  0  0  0  0
   37.7700   23.7310   39.4040 H   0  0  0  0  0  0  0  0  0  0  0  0
   39.9000   22.4760   39.1070 H   0  0  0  0  0  0  0  0  0  0  0  0
   42.2720   22.9460   35.9670 C   0  0  0  0  0  3  0  0  0  0  0  0
   41.3790   22.3190   36.8100 C   0  0  0  0  0  0  0  0  0  0  0  0
   41.6830   21.0960   37.3590 C   0  0  0  0  0  0  0  0  0  0  0  0
   40.9900   20.6070   38.0140 H   0  0  0  0  0  0  0  0  0  0  0  0
   42.8690   20.4290   37.1120 C   0  0  0  0  0  0  0  0  0  0  0  0
   43.3930   19.2570   37.5150 N   0  0  0  0  0  0  0  0  0  0  0  0
   42.9360   18.5640   38.1630 H   0  0  0  0  0  0  0  0  0  0  0  0
   44.5760   19.1330   36.9540 N   0  0  0  0  0  0  0  0  0  0  0  0
   44.8500   20.2130   36.1780 C   0  0  0  0  0  0  0  0  0  0  0  0
   45.7530   20.3770   35.6000 H   0  0  0  0  0  0  0  0  0  0  0  0
   43.7610   21.0670   36.2650 C   0  0  0  0  0  0  0  0  0  0  0  0
   43.4810   22.2930   35.7000 C   0  0  0  0  0  3  0  0  0  0  0  0
   38.6180   26.4580   34.8600 C   0  0  0  0  0  0  0  0  0  0  0  0
   38.7460   27.0170   35.7890 H   0  0  0  0  0  0  0  0  0  0  0  0
   39.5510   26.2470   34.3220 H   0  0  0  0  0  0  0  0  0  0  0  0
   37.7410   27.2800   33.9500 C   0  0  0  0  0  0  0  0  0  0  0  0
   37.9610   27.5510   32.6070 C   0  0  0  0  0  0  0  0  0  0  0  0
   36.9170   28.3410   32.1390 C   0  0  0  0  0  0  0  0  0  0  0  0
   36.1010   28.5220   33.2090 N   0  0  0  0  0  0  0  0  0  0  0  0
   36.5890   27.8950   34.2740 N   0  0  0  0  0  0  0  0  0  0  0  0
   34.4300   29.8640   31.9150 N   0  0  0  0  0  0  0  0  0  0  0  0
   34.9270   29.3060   33.0280 C   0  0  0  0  0  0  0  0  0  0  0  0
   34.0700   29.6280   34.0330 N   0  0  0  0  0  0  0  0  0  0  0  0
   33.0680   30.3680   33.5550 C   0  0  0  0  0  0  0  0  0  0  0  0
   31.9770   30.9200   34.1910 C   0  0  0  0  0  0  0  0  0  0  0  0
   31.0970   31.6370   33.4640 N   0  0  0  0  0  0  0  0  0  0  0  0
   31.3080   31.7950   32.1330 C   0  0  0  0  0  0  0  0  0  0  0  0
   32.3860   31.2500   31.5060 N   0  0  0  0  0  0  0  0  0  0  0  0
   33.2810   30.5280   32.2120 C   0  0  0  0  0  0  0  0  0  0  0  0
   38.8040   27.2060   32.0240 H   0  0  0  0  0  0  0  0  0  0  0  0
   36.8650   28.6790   31.1350 H   0  0  0  0  0  0  0  0  0  0  0  0
   34.8590   29.8000   30.9680 H   0  0  0  0  0  0  0  0  0  0  0  0
   31.8370   30.7760   35.2540 H   0  0  0  0  0  0  0  0  0  0  0  0
   30.6310   32.3630   31.5030 H   0  0  0  0  0  0  0  0  0  0  0  0
  1  2  1  0  0  0  0
  1  8  1  0  0  0  0
  3  1  1  0  0  0  0
  4 10  1  0  0  0  0
  5  4  1  0  0  0  0
  5 11  1  0  0  0  0
  6  5  2  0  0  0  0
  7  8  2  0  0  0  0
  7  6  1  0  0  0  0
  8  9  1  0  0  0  0
  9  4  2  0  0  0  0
 12 13  1  0  0  0  0
 13  6  1  0  0  0  0
 13 14  2  0  0  0  0
 14 15  1  0  0  0  0
 16 14  1  0  0  0  0
 16 17  1  0  0  0  0
 17 18  1  0  0  0  0
 19 17  1  0  0  0  0
 20 22  1  0  0  0  0
 20 19  2  0  0  0  0
 21 20  1  0  0  0  0
 22 16  2  0  0  0  0
 23 12  2  0  0  0  0
 23 22  1  0  0  0  0
 24  1  1  0  0  0  0
 24 25  1  0  0  0  0
 26 24  1  0  0  0  0
 27 31  2  0  0  0  0
 27 24  1  0  0  0  0
 28 27  1  0  0  0  0
 29 28  2  0  0  0  0
 29 30  1  0  0  0  0
 30 31  1  0  0  0  0
 32 40  1  0  0  0  0
 32 33  1  0  0  0  0
 33 30  1  0  0  0  0
 33 34  2  0  0  0  0
 35 34  1  0  0  0  0
 35 36  1  0  0  0  0
 36 44  1  0  0  0  0
 37 36  2  0  0  0  0
 38 37  1  0  0  0  0
 39 38  2  0  0  0  0
 39 40  1  0  0  0  0
 40 35  2  0  0  0  0
 41 28  1  0  0  0  0
 42 29  1  0  0  0  0
 43 32  1  0  0  0  0
 45 38  1  0  0  0  0
M  END
>  <minimizedAffinity>
-6.66346455

$$$$

 OpenBabel03272502033D

 45 50  0  0  0  0  0  0  0  0999 V2000
   36.8840   28.8010   30.2160 C   0  0  0  0  0  0  0  0  0  0  0  0
   37.9560   28.5280   30.1680 H   0  0  0  0  0  0  0  0  0  0  0  0
   36.5300   28.8230   29.1600 H   0  0  0  0  0  0  0  0  0  0  0  0
   37.2260   32.4500   30.7080 C   0  0  0  0  0  0  0  0  0  0  0  0
   36.5910   32.6260   31.9470 C   0  0  0  0  0  0  0  0  0  0  0  0
   36.0560   31.5010   32.6000 C   0  0  0  0  0  0  0  0  0  0  0  0
   36.1860   30.3150   31.9880 N   0  0  0  0  0  0  0  0  0  0  0  0
   36.8100   30.1690   30.7780 C   0  0  0  0  0  0  0  0  0  0  0  0
   37.3050   31.2360   30.1840 N   0  0  0  0  0  0  0  0  0  0  0  0
   37.6380   33.3230   30.2080 H   0  0  0  0  0  0  0  0  0  0  0  0
   36.5010   33.5730   32.4090 H   0  0  0  0  0  0  0  0  0  0  0  0
   35.9600   32.3620   34.8460 C   0  0  0  0  0  3  0  0  0  0  0  0
   35.3760   31.5620   33.8870 C   0  0  0  0  0  0  0  0  0  0  0  0
   34.2190   30.8750   34.1650 C   0  0  0  0  0  0  0  0  0  0  0  0
   33.7630   30.2520   33.4210 H   0  0  0  0  0  0  0  0  0  0  0  0
   33.5780   30.9360   35.3890 C   0  0  0  0  0  0  0  0  0  0  0  0
   32.4660   30.3780   35.9000 N   0  0  0  0  0  0  0  0  0  0  0  0
   31.8150   29.7200   35.3970 H   0  0  0  0  0  0  0  0  0  0  0  0
   32.3380   30.8000   37.1390 N   0  0  0  0  0  0  0  0  0  0  0  0
   33.3550   31.6380   37.4630 C   0  0  0  0  0  0  0  0  0  0  0  0
   33.5010   32.1330   38.4170 H   0  0  0  0  0  0  0  0  0  0  0  0
   34.1710   31.7430   36.3470 C   0  0  0  0  0  0  0  0  0  0  0  0
   35.3320   32.4430   36.0940 C   0  0  0  0  0  3  0  0  0  0  0  0
   36.0790   27.8320   31.0550 C   0  0  0  0  0  0  0  0  0  0  0  0
   35.5140   28.3170   31.8530 H   0  0  0  0  0  0  0  0  0  0  0  0
   35.4740   27.2180   30.3750 H   0  0  0  0  0  0  0  0  0  0  0  0
   37.0990   26.9290   31.7010 C   0  0  0  0  0  0  0  0  0  0  0  0
   38.2460   26.4150   31.1130 C   0  0  0  0  0  0  0  0  0  0  0  0
   38.9100   25.6310   32.0490 C   0  0  0  0  0  0  0  0  0  0  0  0
   38.1470   25.6950   33.1710 N   0  0  0  0  0  0  0  0  0  0  0  0
   37.0820   26.4610   32.9620 N   0  0  0  0  0  0  0  0  0  0  0  0
   39.7100   24.2690   34.5110 N   0  0  0  0  0  0  0  0  0  0  0  0
   38.5860   24.9760   34.3180 C   0  0  0  0  0  0  0  0  0  0  0  0
   37.8780   24.8920   35.4750 N   0  0  0  0  0  0  0  0  0  0  0  0
   38.5450   24.1520   36.3630 C   0  0  0  0  0  0  0  0  0  0  0  0
   38.2250   23.7960   37.6560 C   0  0  0  0  0  0  0  0  0  0  0  0
   39.0890   23.0270   38.3490 N   0  0  0  0  0  0  0  0  0  0  0  0
   40.2440   22.6280   37.7590 C   0  0  0  0  0  0  0  0  0  0  0  0
   40.5580   22.9810   36.4820 N   0  0  0  0  0  0  0  0  0  0  0  0
   39.7100   23.7490   35.7670 C   0  0  0  0  0  0  0  0  0  0  0  0
   38.5670   26.5940   30.0960 H   0  0  0  0  0  0  0  0  0  0  0  0
   39.8180   25.1290   31.8300 H   0  0  0  0  0  0  0  0  0  0  0  0
   40.4650   24.1400   33.8070 H   0  0  0  0  0  0  0  0  0  0  0  0
   37.2960   24.1310   38.0980 H   0  0  0  0  0  0  0  0  0  0  0  0
   40.9720   22.0090   38.2720 H   0  0  0  0  0  0  0  0  0  0  0  0
  1  8  1  0  0  0  0
  1 24  1  0  0  0  0
  2  1  1  0  0  0  0
  3  1  1  0  0  0  0
  4  5  1  0  0  0  0
  5 11  1  0  0  0  0
  5  6  2  0  0  0  0
  6 13  1  0  0  0  0
  7  6  1  0  0  0  0
  8  7  2  0  0  0  0
  9  4  2  0  0  0  0
  9  8  1  0  0  0  0
 10  4  1  0  0  0  0
 12 23  1  0  0  0  0
 13 14  1  0  0  0  0
 13 12  2  0  0  0  0
 14 16  2  0  0  0  0
 15 14  1  0  0  0  0
 16 17  1  0  0  0  0
 16 22  1  0  0  0  0
 17 19  1  0  0  0  0
 18 17  1  0  0  0  0
 19 20  2  0  0  0  0
 20 21  1  0  0  0  0
 22 20  1  0  0  0  0
 23 22  2  0  0  0  0
 24 27  1  0  0  0  0
 24 25  1  0  0  0  0
 26 24  1  0  0  0  0
 27 31  2  0  0  0  0
 28 27  1  0  0  0  0
 28 29  2  0  0  0  0
 29 30  1  0  0  0  0
 30 33  1  0  0  0  0
 31 30  1  0  0  0  0
 32 40  1  0  0  0  0
 33 32  1  0  0  0  0
 33 34  2  0  0  0  0
 34 35  1  0  0  0  0
 35 36  1  0  0  0  0
 36 44  1  0  0  0  0
 36 37  2  0  0  0  0
 38 45  1  0  0  0  0
 38 37  1  0  0  0  0
 39 38  2  0  0  0  0
 40 35  2  0  0  0  0
 40 39  1  0  0  0  0
 41 28  1  0  0  0  0
 42 29  1  0  0  0  0
 43 32  1  0  0  0  0
M  END
>  <minimizedAffinity>
-6.6618228

$$$$

 OpenBabel03272502033D

 45 50  0  0  0  0  0  0  0  0999 V2000
   39.5240   25.6690   35.0600 C   0  0  0  0  0  0  0  0  0  0  0  0
   39.4330   25.6550   33.9570 H   0  0  0  0  0  0  0  0  0  0  0  0
   40.6080   25.5220   35.2760 H   0  0  0  0  0  0  0  0  0  0  0  0
   37.8340   23.2430   37.2810 C   0  0  0  0  0  0  0  0  0  0  0  0
   37.3540   22.3050   36.3550 C   0  0  0  0  0  0  0  0  0  0  0  0
   37.6120   22.5080   34.9890 C   0  0  0  0  0  0  0  0  0  0  0  0
   38.3090   23.6030   34.6510 N   0  0  0  0  0  0  0  0  0  0  0  0
   38.7670   24.5050   35.5720 C   0  0  0  0  0  0  0  0  0  0  0  0
   38.5150   24.2950   36.8480 N   0  0  0  0  0  0  0  0  0  0  0  0
   37.6310   23.0810   38.3370 H   0  0  0  0  0  0  0  0  0  0  0  0
   36.8060   21.4490   36.6480 H   0  0  0  0  0  0  0  0  0  0  0  0
   36.0450   20.8490   34.2220 C   0  0  0  0  0  3  0  0  0  0  0  0
   37.1650   21.6020   33.9380 C   0  0  0  0  0  0  0  0  0  0  0  0
   37.7960   21.4800   32.7250 C   0  0  0  0  0  0  0  0  0  0  0  0
   38.6670   22.0650   32.5020 H   0  0  0  0  0  0  0  0  0  0  0  0
   37.3670   20.6190   31.7310 C   0  0  0  0  0  0  0  0  0  0  0  0
   37.7960   20.3210   30.4910 N   0  0  0  0  0  0  0  0  0  0  0  0
   38.6320   20.7420   30.0060 H   0  0  0  0  0  0  0  0  0  0  0  0
   36.9860   19.4110   29.9950 N   0  0  0  0  0  0  0  0  0  0  0  0
   36.0170   19.0970   30.8920 C   0  0  0  0  0  0  0  0  0  0  0  0
   35.2160   18.3790   30.7480 H   0  0  0  0  0  0  0  0  0  0  0  0
   36.2410   19.8660   32.0230 C   0  0  0  0  0  0  0  0  0  0  0  0
   35.5880   19.9690   33.2340 C   0  0  0  0  0  3  0  0  0  0  0  0
   39.0040   26.9550   35.6650 C   0  0  0  0  0  0  0  0  0  0  0  0
   38.5040   26.8100   36.6250 H   0  0  0  0  0  0  0  0  0  0  0  0
   39.8300   27.6780   35.6850 H   0  0  0  0  0  0  0  0  0  0  0  0
   37.9750   27.4640   34.6870 C   0  0  0  0  0  0  0  0  0  0  0  0
   37.9540   27.2480   33.3160 C   0  0  0  0  0  0  0  0  0  0  0  0
   36.8390   27.8860   32.7860 C   0  0  0  0  0  0  0  0  0  0  0  0
   36.2230   28.4670   33.8480 N   0  0  0  0  0  0  0  0  0  0  0  0
   36.8950   28.2150   34.9660 N   0  0  0  0  0  0  0  0  0  0  0  0
   34.3420   29.3760   32.4680 N   0  0  0  0  0  0  0  0  0  0  0  0
   35.0310   29.2050   33.6060 C   0  0  0  0  0  0  0  0  0  0  0  0
   34.3620   29.8980   34.5660 N   0  0  0  0  0  0  0  0  0  0  0  0
   33.2870   30.4840   34.0370 C   0  0  0  0  0  0  0  0  0  0  0  0
   32.3210   31.2790   34.6150 C   0  0  0  0  0  0  0  0  0  0  0  0
   31.3220   31.7530   33.8430 N   0  0  0  0  0  0  0  0  0  0  0  0
   31.2950   31.4340   32.5250 C   0  0  0  0  0  0  0  0  0  0  0  0
   32.2490   30.6490   31.9550 N   0  0  0  0  0  0  0  0  0  0  0  0
   33.2590   30.1630   32.7050 C   0  0  0  0  0  0  0  0  0  0  0  0
   38.6830   26.6790   32.7560 H   0  0  0  0  0  0  0  0  0  0  0  0
   36.6080   27.8640   31.7510 H   0  0  0  0  0  0  0  0  0  0  0  0
   34.5980   28.9690   31.5450 H   0  0  0  0  0  0  0  0  0  0  0  0
   32.3720   31.5150   35.6700 H   0  0  0  0  0  0  0  0  0  0  0  0
   30.5140   31.7890   31.8600 H   0  0  0  0  0  0  0  0  0  0  0  0
  1  3  1  0  0  0  0
  1  8  1  0  0  0  0
  1 24  1  0  0  0  0
  2  1  1  0  0  0  0
  4 10  1  0  0  0  0
  5 11  1  0  0  0  0
  5  4  2  0  0  0  0
  6  5  1  0  0  0  0
  7  6  2  0  0  0  0
  7  8  1  0  0  0  0
  8  9  2  0  0  0  0
  9  4  1  0  0  0  0
 13 12  1  0  0  0  0
 13  6  1  0  0  0  0
 14 13  2  0  0  0  0
 15 14  1  0  0  0  0
 16 22  2  0  0  0  0
 16 14  1  0  0  0  0
 17 16  1  0  0  0  0
 18 17  1  0  0  0  0
 19 17  1  0  0  0  0
 19 20  2  0  0  0  0
 20 22  1  0  0  0  0
 21 20  1  0  0  0  0
 22 23  1  0  0  0  0
 23 12  2  0  0  0  0
 24 26  1  0  0  0  0
 24 25  1  0  0  0  0
 27 31  2  0  0  0  0
 27 24  1  0  0  0  0
 28 27  1  0  0  0  0
 29 28  2  0  0  0  0
 29 30  1  0  0  0  0
 30 31  1  0  0  0  0
 32 40  1  0  0  0  0
 32 33  1  0  0  0  0
 33 30  1  0  0  0  0
 33 34  2  0  0  0  0
 35 34  1  0  0  0  0
 35 36  1  0  0  0  0
 36 44  1  0  0  0  0
 37 36  2  0  0  0  0
 38 37  1  0  0  0  0
 39 38  2  0  0  0  0
 39 40  1  0  0  0  0
 40 35  2  0  0  0  0
 41 28  1  0  0  0  0
 42 29  1  0  0  0  0
 43 32  1  0  0  0  0
 45 38  1  0  0  0  0
M  END
>  <minimizedAffinity>
-6.50471926

$$$$
