
 OpenBabel03272508103D

 37 40  0  0  0  0  0  0  0  0999 V2000
   36.6620   29.5120   44.1370 Cl  0  0  0  0  0  0  0  0  0  0  0  0
   38.3140   29.8490   43.5710 C   0  0  0  0  0  0  0  0  0  0  0  0
   39.3240   30.3290   44.3860 C   0  0  0  0  0  0  0  0  0  0  0  0
   40.5680   30.5490   43.8160 C   0  0  0  0  0  0  0  0  0  0  0  0
   40.7850   30.3000   42.4860 C   0  0  0  0  0  0  0  0  0  0  0  0
   39.7950   29.8260   41.6660 C   0  0  0  0  0  0  0  0  0  0  0  0
   38.5600   29.6020   42.2160 C   0  0  0  0  0  0  0  0  0  0  0  0
   41.3000   30.9220   44.5150 H   0  0  0  0  0  0  0  0  0  0  0  0
   41.7800   30.4950   42.1050 H   0  0  0  0  0  0  0  0  0  0  0  0
   40.0250   29.6480   40.6220 H   0  0  0  0  0  0  0  0  0  0  0  0
   36.8320   30.0680   40.5810 C   0  0  0  0  0  3  0  0  0  0  0  0
   37.5360   29.0950   41.3000 C   0  0  0  0  0  0  0  0  0  0  0  0
   37.1780   27.7860   41.0560 C   0  0  0  0  0  0  0  0  0  0  0  0
   37.7410   27.0630   41.6260 H   0  0  0  0  0  0  0  0  0  0  0  0
   36.1800   27.5110   40.1470 C   0  0  0  0  0  0  0  0  0  0  0  0
   35.6760   26.3240   39.7600 N   0  0  0  0  0  0  0  0  0  0  0  0
   35.9850   25.3880   40.1090 H   0  0  0  0  0  0  0  0  0  0  0  0
   34.7350   26.5220   38.8720 N   0  0  0  0  0  0  0  0  0  0  0  0
   34.5790   27.8530   38.6390 C   0  0  0  0  0  0  0  0  0  0  0  0
   33.8890   28.3460   37.9640 H   0  0  0  0  0  0  0  0  0  0  0  0
   35.5030   28.4890   39.4530 C   0  0  0  0  0  0  0  0  0  0  0  0
   35.8290   29.8090   39.6670 C   0  0  0  0  0  3  0  0  0  0  0  0
   38.9150   30.5120   45.6720 O   0  0  0  0  0  0  0  0  0  0  0  0
   39.5110   32.5720   47.1170 O   0  0  0  0  0  0  0  0  0  0  0  0
   38.3700   31.9000   46.4370 P   0  0  1  0  0  0  0  0  0  0  0  0
   37.7850   32.8920   45.1690 O   0  0  0  0  0  0  0  0  0  0  0  0
   38.5460   33.2480   44.6460 H   0  0  0  0  0  0  0  0  0  0  0  0
   37.0740   31.5120   47.4670 O   0  0  0  0  0  0  0  0  0  0  0  0
   37.6330   30.5160   50.9770 C   0  0  0  0  0  0  0  0  0  0  0  0
   37.7340   31.3260   49.8460 C   0  0  0  0  0  0  0  0  0  0  0  0
   37.1190   30.9140   48.6730 C   0  0  0  0  0  0  0  0  0  0  0  0
   36.4380   29.7150   48.6960 N   0  0  0  0  0  0  0  0  0  0  0  0
   36.3680   28.9650   49.8140 C   0  0  0  0  0  0  0  0  0  0  0  0
   36.9620   29.3640   50.9470 N   0  0  0  0  0  0  0  0  0  0  0  0
   38.1560   30.9470   51.8320 H   0  0  0  0  0  0  0  0  0  0  0  0
   38.2460   32.2680   49.7590 H   0  0  0  0  0  0  0  0  0  0  0  0
   35.8320   28.0240   49.8270 H   0  0  0  0  0  0  0  0  0  0  0  0
  2  1  1  0  0  0  0
  2  3  1  0  0  0  0
  3 23  1  0  0  0  0
  4  3  2  0  0  0  0
  4  8  1  0  0  0  0
  5  4  1  0  0  0  0
  6  7  1  0  0  0  0
  6  5  2  0  0  0  0
  7  2  2  0  0  0  0
  9  5  1  0  0  0  0
 10  6  1  0  0  0  0
 11 12  1  0  0  0  0
 12  7  1  0  0  0  0
 13 12  2  0  0  0  0
 13 14  1  0  0  0  0
 15 13  1  0  0  0  0
 16 17  1  0  0  0  0
 16 15  1  0  0  0  0
 18 16  1  0  0  0  0
 19 18  2  0  0  0  0
 19 21  1  0  0  0  0
 20 19  1  0  0  0  0
 21 22  1  0  0  0  0
 21 15  2  0  0  0  0
 22 11  2  0  0  0  0
 23 25  1  0  0  0  0
 25 24  2  1  0  0  0
 25 28  1  0  0  0  0
 26 25  1  0  0  0  0
 27 26  1  0  0  0  0
 28 31  1  0  0  0  0
 29 35  1  0  0  0  0
 30 29  2  0  0  0  0
 31 32  2  0  0  0  0
 31 30  1  0  0  0  0
 32 33  1  0  0  0  0
 33 37  1  0  0  0  0
 33 34  2  0  0  0  0
 34 29  1  0  0  0  0
 36 30  1  0  0  0  0
M  END
>  <minimizedAffinity>
-4.80289698

>  <minimizedRMSD>
0.56742233

$$$$
