REMARK  Name = 
REMARK  3 active torsions:
REMARK  status: ('A' for Active; 'I' for Inactive)
REMARK    1  A    between atoms: C_3  and  C_13
REMARK    2  A    between atoms: C_8  and  C_15
REMARK    3  A    between atoms: C_15  and  C_24
REMARK                            x       y       z     vdW  Elec       q    Type
REMARK                         _______ _______ _______ _____ _____    ______ ____
ROOT
ATOM      1 CL   UNL     1      38.468  30.811  49.859  0.00  0.00    +0.000 Cl
ATOM      2  C   UNL     1      37.096  30.358  48.896  0.00  0.00    +0.000 A 
ATOM      3  C   UNL     1      37.093  30.632  47.532  0.00  0.00    +0.000 A 
ATOM      4  C   UNL     1      36.029  30.302  46.733  0.00  0.00    +0.000 A 
ATOM      5  C   UNL     1      34.917  29.682  47.260  0.00  0.00    +0.000 A 
ATOM      6  C   UNL     1      34.877  29.392  48.605  0.00  0.00    +0.000 A 
ATOM      7 CL   UNL     1      33.528  28.613  49.410  0.00  0.00    +0.000 Cl
ATOM      8  C   UNL     1      35.978  29.741  49.388  0.00  0.00    +0.000 A 
ATOM      9  H   UNL     1      36.042  30.521  45.671  0.00  0.00    +0.000 HD
ATOM     10  H   UNL     1      34.052  29.401  46.674  0.00  0.00    +0.000 HD
ENDROOT
BRANCH   3  15
ATOM     11  C   UNL     1      39.591  33.167  46.635  0.00  0.00    +0.000 A 
ATOM     12  C   UNL     1      40.467  32.471  45.790  0.00  0.00    +0.000 A 
ATOM     13  C   UNL     1      40.169  31.117  45.550  0.00  0.00    +0.000 A 
ATOM     14  N   UNL     1      39.070  30.580  46.142  0.00  0.00    +0.000 NA
ATOM     15  C   UNL     1      38.248  31.277  46.948  0.00  0.00    +0.000 A 
ATOM     16  N   UNL     1      38.542  32.553  47.166  0.00  0.00    +0.000 NA
ATOM     17  H   UNL     1      39.664  34.204  46.926  0.00  0.00    +0.000 HD
ATOM     18  H   UNL     1      41.289  33.058  45.408  0.00  0.00    +0.000 HD
ATOM     19  H   UNL     1      40.855  30.623  44.905  0.00  0.00    +0.000 HD
ENDBRANCH   3  15
BRANCH   8  20
ATOM     20  C   UNL     1      35.977  29.413  50.840  0.00  0.00    +0.000 C 
ATOM     21  H   UNL     1      34.933  29.177  51.134  0.00  0.00    +0.000 HD
ATOM     22  H   UNL     1      36.404  30.259  51.424  0.00  0.00    +0.000 HD
BRANCH  20  24
ATOM     23  C   UNL     1      37.987  28.306  51.779  0.00  0.00    +0.000 A 
ATOM     24  C   UNL     1      36.808  28.203  51.036  0.00  0.00    +0.000 A 
ATOM     25  C   UNL     1      36.499  26.962  50.534  0.00  0.00    +0.000 A 
ATOM     26  H   UNL     1      35.586  26.928  49.970  0.00  0.00    +0.000 HD
ATOM     27  C   UNL     1      37.258  25.815  50.708  0.00  0.00    +0.000 A 
ATOM     28  N   UNL     1      37.143  24.526  50.313  0.00  0.00    +0.000 N 
ATOM     29  H   UNL     1      36.340  24.159  49.731  0.00  0.00    +0.000 HD
ATOM     30  N   UNL     1      38.185  23.857  50.776  0.00  0.00    +0.000 NA
ATOM     31  C   UNL     1      38.984  24.707  51.476  0.00  0.00    +0.000 A 
ATOM     32  H   UNL     1      39.904  24.390  51.954  0.00  0.00    +0.000 HD
ATOM     33  C   UNL     1      38.428  25.968  51.457  0.00  0.00    +0.000 A 
ATOM     34  C   UNL     1      38.794  27.188  51.986  0.00  0.00    +0.000 A 
ENDBRANCH  20  24
ENDBRANCH   8  20
TORSDOF 3
