
 OpenBabel03272508103D

 37 40  0  0  0  0  0  0  0  0999 V2000
   36.6780   29.4620   43.9990 Cl  0  0  0  0  0  0  0  0  0  0  0  0
   38.3390   29.8410   43.4870 C   0  0  0  0  0  0  0  0  0  0  0  0
   39.3180   30.3190   44.3410 C   0  0  0  0  0  0  0  0  0  0  0  0
   40.5720   30.5740   43.8100 C   0  0  0  0  0  0  0  0  0  0  0  0
   40.8310   30.3590   42.4810 C   0  0  0  0  0  0  0  0  0  0  0  0
   39.8720   29.8870   41.6240 C   0  0  0  0  0  0  0  0  0  0  0  0
   38.6270   29.6300   42.1340 C   0  0  0  0  0  0  0  0  0  0  0  0
   41.2790   30.9430   44.5380 H   0  0  0  0  0  0  0  0  0  0  0  0
   41.8320   30.5800   42.1330 H   0  0  0  0  0  0  0  0  0  0  0  0
   40.1340   29.7380   40.5830 H   0  0  0  0  0  0  0  0  0  0  0  0
   37.6180   27.7380   41.0020 C   0  0  0  0  0  3  0  0  0  0  0  0
   37.6370   29.1270   41.1790 C   0  0  0  0  0  0  0  0  0  0  0  0
   36.7240   29.8430   40.4340 C   0  0  0  0  0  0  0  0  0  0  0  0
   36.7650   30.9080   40.5960 H   0  0  0  0  0  0  0  0  0  0  0  0
   35.8670   29.1780   39.5830 C   0  0  0  0  0  0  0  0  0  0  0  0
   34.9100   29.6690   38.7730 N   0  0  0  0  0  0  0  0  0  0  0  0
   34.6630   30.6790   38.6670 H   0  0  0  0  0  0  0  0  0  0  0  0
   34.3320   28.6820   38.1370 N   0  0  0  0  0  0  0  0  0  0  0  0
   34.8890   27.4960   38.5040 C   0  0  0  0  0  0  0  0  0  0  0  0
   34.6390   26.4980   38.1640 H   0  0  0  0  0  0  0  0  0  0  0  0
   35.8720   27.8100   39.4290 C   0  0  0  0  0  0  0  0  0  0  0  0
   36.7680   27.0560   40.1540 C   0  0  0  0  0  3  0  0  0  0  0  0
   38.8710   30.4650   45.6180 O   0  0  0  0  0  0  0  0  0  0  0  0
   39.4530   32.5030   47.1000 O   0  0  0  0  0  0  0  0  0  0  0  0
   38.3150   31.8340   46.4100 P   0  0  1  0  0  0  0  0  0  0  0  0
   37.7190   32.8440   45.1630 O   0  0  0  0  0  0  0  0  0  0  0  0
   38.4750   33.2170   44.6450 H   0  0  0  0  0  0  0  0  0  0  0  0
   37.0260   31.4160   47.4360 O   0  0  0  0  0  0  0  0  0  0  0  0
   37.6220   30.5320   50.9700 C   0  0  0  0  0  0  0  0  0  0  0  0
   37.7110   31.3050   49.8130 C   0  0  0  0  0  0  0  0  0  0  0  0
   37.0830   30.8560   48.6610 C   0  0  0  0  0  0  0  0  0  0  0  0
   36.4020   29.6600   48.7290 N   0  0  0  0  0  0  0  0  0  0  0  0
   36.3420   28.9460   49.8710 C   0  0  0  0  0  0  0  0  0  0  0  0
   36.9490   29.3800   50.9840 N   0  0  0  0  0  0  0  0  0  0  0  0
   38.1540   30.9890   51.8060 H   0  0  0  0  0  0  0  0  0  0  0  0
   38.2230   32.2430   49.6900 H   0  0  0  0  0  0  0  0  0  0  0  0
   35.8060   28.0070   49.9200 H   0  0  0  0  0  0  0  0  0  0  0  0
  2  1  1  0  0  0  0
  2  3  1  0  0  0  0
  3 23  1  0  0  0  0
  4  3  2  0  0  0  0
  4  8  1  0  0  0  0
  5  4  1  0  0  0  0
  6  7  1  0  0  0  0
  6  5  2  0  0  0  0
  7  2  2  0  0  0  0
  9  5  1  0  0  0  0
 10  6  1  0  0  0  0
 11 12  1  0  0  0  0
 12  7  1  0  0  0  0
 13 14  1  0  0  0  0
 13 12  2  0  0  0  0
 15 13  1  0  0  0  0
 16 15  1  0  0  0  0
 17 16  1  0  0  0  0
 18 19  2  0  0  0  0
 18 16  1  0  0  0  0
 19 21  1  0  0  0  0
 20 19  1  0  0  0  0
 21 15  2  0  0  0  0
 21 22  1  0  0  0  0
 22 11  2  0  0  0  0
 23 25  1  0  0  0  0
 25 24  2  1  0  0  0
 25 28  1  0  0  0  0
 26 25  1  0  0  0  0
 27 26  1  0  0  0  0
 28 31  1  0  0  0  0
 29 34  1  0  0  0  0
 29 35  1  0  0  0  0
 30 29  2  0  0  0  0
 31 32  2  0  0  0  0
 31 30  1  0  0  0  0
 32 33  1  0  0  0  0
 33 37  1  0  0  0  0
 33 34  2  0  0  0  0
 36 30  1  0  0  0  0
M  END
>  <minimizedAffinity>
-4.81495857

>  <minimizedRMSD>
0.346250266

$$$$
