
 OpenBabel03272507423D

 48 52  0  0  1  0  0  0  0  0999 V2000
   36.5510   31.0610   49.9970 C   0  0  0  0  0  0  0  0  0  0  0  0
   35.4050   30.2840   49.8790 C   0  0  0  0  0  0  0  0  0  0  0  0
   35.1970   29.1960   50.7060 C   0  0  0  0  0  0  0  0  0  0  0  0
   36.1480   28.9110   51.6340 N   0  0  0  0  0  0  0  0  0  0  0  0
   37.2710   29.6890   51.7320 C   0  0  0  0  0  0  0  0  0  0  0  0
   37.4420   30.7230   50.9290 N   0  0  0  0  0  0  0  0  0  0  0  0
   34.3380   28.5400   50.6860 H   0  0  0  0  0  0  0  0  0  0  0  0
   38.0250   29.4490   52.4790 H   0  0  0  0  0  0  0  0  0  0  0  0
   34.0210   29.4760   48.0110 C   0  0  0  0  0  0  0  0  0  0  0  0
   34.5900   28.3620   47.6930 O   0  0  0  0  0  0  0  0  0  0  0  0
   34.3600   30.4630   48.9660 N   0  0  0  0  0  0  0  0  0  0  0  0
   33.8990   31.3810   49.0940 H   0  0  0  0  0  0  0  0  0  0  0  0
   29.7180   29.1240   44.8750 C   0  0  0  0  0  0  0  0  0  0  0  0
   30.9830   29.1230   44.4940 C   0  0  0  0  0  0  0  0  0  0  0  0
   32.0240   29.3050   45.4110 N   0  0  0  0  0  0  0  0  0  0  0  0
   33.2620   29.9440   45.7910 C   0  0  0  0  0  0  0  0  0  0  0  0
   34.2080   30.4100   45.1040 O   0  0  0  0  0  0  0  0  0  0  0  0
   32.7890   29.7360   47.2110 C   0  0  1  0  0  3  0  0  0  0  0  0
   32.0380   28.5640   46.6850 C   0  0  1  0  0  3  0  0  0  0  0  0
   30.3820   28.4590   47.3860 S   0  0  0  0  0  0  0  0  0  0  0  0
   29.2640   29.3250   46.2690 C   0  0  0  0  0  3  0  0  0  0  0  0
   29.2830   30.4290   46.4370 H   0  0  0  0  0  0  0  0  0  0  0  0
   28.7230   28.9180   43.8150 C   0  0  0  0  0  2  0  0  0  0  0  0
   28.6200   29.8890   43.2840 H   0  0  0  0  0  0  0  0  0  0  0  0
   31.2850   28.9240   43.0830 C   0  0  0  0  0  0  0  0  0  0  0  0
   32.4230   28.8340   42.5670 O   0  0  0  0  0  0  0  0  0  0  0  0
   31.2510   28.7350   41.7160 O   0  0  0  0  0  0  0  0  0  0  0  0
   30.3810   28.8120   41.1760 H   0  0  0  0  0  0  0  0  0  0  0  0
   36.5760   32.0770   49.1050 O   0  0  0  0  0  0  0  0  0  0  0  0
   38.1950   32.0950   47.2320 C   0  0  0  0  0  0  0  0  0  0  0  0
   37.7170   32.5250   48.4510 C   0  0  0  0  0  0  0  0  0  0  0  0
   38.3900   33.5060   49.1610 C   0  0  0  0  0  0  0  0  0  0  0  0
   39.5580   34.0520   48.6260 C   0  0  0  0  0  0  0  0  0  0  0  0
   40.0280   33.6150   47.4070 C   0  0  0  0  0  0  0  0  0  0  0  0
   39.3300   32.6410   46.7380 C   0  0  0  0  0  0  0  0  0  0  0  0
   38.0770   33.8940   50.1210 H   0  0  0  0  0  0  0  0  0  0  0  0
   40.0850   34.8180   49.1790 H   0  0  0  0  0  0  0  0  0  0  0  0
   40.9340   34.0220   46.9670 H   0  0  0  0  0  0  0  0  0  0  0  0
   39.8470   32.1790   45.4260 C   0  0  0  0  0  0  0  0  0  0  0  0
   40.7370   31.1830   45.1410 C   0  0  0  0  0  0  0  0  0  0  0  0
   40.8970   31.1380   43.7580 C   0  0  0  0  0  0  0  0  0  0  0  0
   40.0740   32.1330   43.2830 C   0  0  0  0  0  0  0  0  0  0  0  0
   39.4580   32.7410   44.2850 O   0  0  0  0  0  0  0  0  0  0  0  0
   41.1830   30.5900   45.9300 H   0  0  0  0  0  0  0  0  0  0  0  0
   41.5530   30.4310   43.2860 H   0  0  0  0  0  0  0  0  0  0  0  0
   39.9710   32.3580   42.2280 H   0  0  0  0  0  0  0  0  0  0  0  0
   36.8260   30.2770   46.0230 N   0  0  0  0  0  0  0  0  0  0  0  0
   37.4370   31.0820   46.5710 C   0  0  0  0  0  0  0  0  0  0  0  0
  1  6  1  0  0  0  0
  2  1  2  0  0  0  0
  2  3  1  0  0  0  0
  3  4  2  0  0  0  0
  4  5  1  0  0  0  0
  5  8  1  0  0  0  0
  6  5  2  0  0  0  0
  7  3  1  0  0  0  0
  9 11  1  0  0  0  0
 10  9  2  0  0  0  0
 11 12  1  0  0  0  0
 11  2  1  0  0  0  0
 13 21  1  0  0  0  0
 14 13  2  0  0  0  0
 14 15  1  0  0  0  0
 15 16  1  0  0  0  0
 15 19  1  0  0  0  0
 16 18  1  0  0  0  0
 17 16  2  0  0  0  0
 18  9  1  1  0  0  0
 19 18  1  0  0  0  0
 19 20  1  1  0  0  0
 21 22  1  0  0  0  0
 21 20  1  0  0  0  0
 23 13  1  0  0  0  0
 24 23  1  0  0  0  0
 25 14  1  0  0  0  0
 26 25  2  0  0  0  0
 27 25  1  0  0  0  0
 28 27  1  0  0  0  0
 29  1  1  0  0  0  0
 30 31  1  0  0  0  0
 31 29  1  0  0  0  0
 31 32  2  0  0  0  0
 32 36  1  0  0  0  0
 33 32  1  0  0  0  0
 33 37  1  0  0  0  0
 34 33  2  0  0  0  0
 35 30  2  0  0  0  0
 35 34  1  0  0  0  0
 38 34  1  0  0  0  0
 39 35  1  0  0  0  0
 40 39  2  0  0  0  0
 40 44  1  0  0  0  0
 41 40  1  0  0  0  0
 42 41  2  0  0  0  0
 42 43  1  0  0  0  0
 43 39  1  0  0  0  0
 45 41  1  0  0  0  0
 46 42  1  0  0  0  0
 47 48  3  0  0  0  0
 48 30  1  0  0  0  0
M  END
>  <minimizedAffinity>
-5.68195057

>  <minimizedRMSD>
0.424777299

$$$$
