
 OpenBabel03272509403D

 42 45  0  0  1  0  0  0  0  0999 V2000
   37.0460   30.9520   49.0430 C   0  0  0  0  0  0  0  0  0  0  0  0
   36.7580   31.8970   50.0260 C   0  0  0  0  0  0  0  0  0  0  0  0
   37.3730   33.1430   50.0790 C   0  0  0  0  0  0  0  0  0  0  0  0
   38.3280   33.4730   49.1080 C   0  0  0  0  0  0  0  0  0  0  0  0
   38.6010   32.5360   48.1510 C   0  0  0  0  0  0  0  0  0  0  0  0
   37.9690   31.3100   48.1290 C   0  0  0  0  0  0  0  0  0  0  0  0
   36.0210   31.6990   50.8110 H   0  0  0  0  0  0  0  0  0  0  0  0
   37.1140   33.8410   50.8630 H   0  0  0  0  0  0  0  0  0  0  0  0
   38.7930   34.4470   49.1700 H   0  0  0  0  0  0  0  0  0  0  0  0
   39.3510   32.8780   47.4420 H   0  0  0  0  0  0  0  0  0  0  0  0
   36.3520   29.6890   49.0740 C   0  0  0  0  0  0  0  0  0  0  0  0
   36.8630   28.8210   49.8690 O   0  0  0  0  0  0  0  0  0  0  0  0
   33.8170   30.0660   46.5090 C   0  0  0  0  0  0  0  0  0  0  0  0
   32.9810   28.9730   46.6810 C   0  0  0  0  0  0  0  0  0  0  0  0
   33.2870   28.0930   47.6890 C   0  0  0  0  0  0  0  0  0  0  0  0
   34.3770   28.3140   48.4710 N   0  0  0  0  0  0  0  0  0  0  0  0
   35.1570   29.3640   48.2850 C   0  0  0  0  0  0  0  0  0  0  0  0
   34.8690   30.2410   47.2960 N   0  0  0  0  0  0  0  0  0  0  0  0
   33.6350   30.8130   45.7220 H   0  0  0  0  0  0  0  0  0  0  0  0
   32.1510   28.9200   45.9880 H   0  0  0  0  0  0  0  0  0  0  0  0
   32.6400   27.2550   47.8160 H   0  0  0  0  0  0  0  0  0  0  0  0
   38.3850   30.4380   47.0460 C   0  0  0  0  0  3  0  0  0  0  0  0
   38.6470   30.7870   45.7950 C   0  0  0  0  0  3  0  0  0  0  0  0
   39.0760   30.0160   44.6290 C   0  0  0  0  0  0  0  0  0  0  0  0
   40.0540   30.3790   44.2630 H   0  0  0  0  0  0  0  0  0  0  0  0
   39.2760   28.9540   44.9500 H   0  0  0  0  0  0  0  0  0  0  0  0
   34.0750   29.0510   42.8600 C   0  0  0  0  0  0  0  0  0  0  0  0
   35.0520   28.2630   43.2750 C   0  0  0  0  0  0  0  0  0  0  0  0
   36.3850   28.8100   43.3660 N   0  0  0  0  0  0  0  0  0  0  0  0
   37.7830   28.5710   43.1000 C   0  0  0  0  0  0  0  0  0  0  0  0
   38.5070   27.6000   42.6940 O   0  0  0  0  0  0  0  0  0  0  0  0
   38.0670   29.9650   43.5020 C   0  0  1  0  0  3  0  0  0  0  0  0
   36.6440   30.1450   43.9310 C   0  0  1  0  0  3  0  0  0  0  0  0
   35.6620   31.2950   42.9810 S   0  0  0  0  0  0  0  0  0  0  0  0
   34.1470   30.4700   42.4440 C   0  0  0  0  0  3  0  0  0  0  0  0
   34.0110   30.5760   41.3330 H   0  0  0  0  0  0  0  0  0  0  0  0
   32.7310   28.4800   42.7820 C   0  0  0  0  0  2  0  0  0  0  0  0
   32.4410   28.1150   43.7880 H   0  0  0  0  0  0  0  0  0  0  0  0
   34.8490   26.8660   43.6520 C   0  0  0  0  0  0  0  0  0  0  0  0
   34.4600   26.4340   44.7510 O   0  0  0  0  0  0  0  0  0  0  0  0
   35.0650   25.8070   42.8200 O   0  0  0  0  0  0  0  0  0  0  0  0
   34.4290   25.0420   42.7610 H   0  0  0  0  0  0  0  0  0  0  0  0
  1 11  1  0  0  0  0
  1  2  1  0  0  0  0
  2  3  2  0  0  0  0
  2  7  1  0  0  0  0
  3  8  1  0  0  0  0
  4  9  1  0  0  0  0
  4  3  1  0  0  0  0
  5  4  2  0  0  0  0
  6  5  1  0  0  0  0
  6  1  2  0  0  0  0
 10  5  1  0  0  0  0
 11 12  2  0  0  0  0
 13 14  2  0  0  0  0
 13 18  1  0  0  0  0
 14 15  1  0  0  0  0
 15 21  1  0  0  0  0
 15 16  2  0  0  0  0
 17 16  1  0  0  0  0
 17 11  1  0  0  0  0
 18 17  2  0  0  0  0
 19 13  1  0  0  0  0
 20 14  1  0  0  0  0
 22  6  1  0  0  0  0
 23 22  2  0  0  0  0
 24 26  1  0  0  0  0
 24 23  1  0  0  0  0
 25 24  1  0  0  0  0
 27 28  2  0  0  0  0
 28 29  1  0  0  0  0
 28 39  1  0  0  0  0
 29 33  1  0  0  0  0
 30 29  1  0  0  0  0
 30 32  1  0  0  0  0
 31 30  2  0  0  0  0
 32 33  1  0  0  0  0
 32 24  1  1  0  0  0
 33 34  1  6  0  0  0
 35 27  1  0  0  0  0
 35 34  1  0  0  0  0
 36 35  1  0  0  0  0
 37 27  1  0  0  0  0
 37 38  1  0  0  0  0
 39 40  2  0  0  0  0
 41 39  1  0  0  0  0
 42 41  1  0  0  0  0
M  END
>  <minimizedAffinity>
-5.69937372

>  <minimizedRMSD>
1.307042

$$$$
