
 OpenBabel03272507333D

 43 48  0  0  1  0  0  0  0  0999 V2000
   33.7510   26.6110   46.7920 C   0  0  1  0  0  0  0  0  0  0  0  0
   33.6290   25.1710   47.4300 C   0  0  0  0  0  0  0  0  0  0  0  0
   32.8870   25.5780   46.2140 C   0  0  2  0  0  0  0  0  0  0  0  0
   34.8300   26.7840   46.5880 H   0  0  0  0  0  0  0  0  0  0  0  0
   33.0740   25.0750   48.3570 H   0  0  0  0  0  0  0  0  0  0  0  0
   34.4940   24.5070   47.3120 H   0  0  0  0  0  0  0  0  0  0  0  0
   31.7950   25.8180   46.3110 H   0  0  0  0  0  0  0  0  0  0  0  0
   33.1650   27.6240   47.7330 C   0  0  0  0  0  0  0  0  0  0  0  0
   31.9200   27.8950   47.7270 O   0  0  0  0  0  0  0  0  0  0  0  0
   35.8160   29.1340   49.6020 C   0  0  0  0  0  0  0  0  0  0  0  0
   34.7590   29.4630   50.4320 C   0  0  0  0  0  0  0  0  0  0  0  0
   33.5930   28.9420   49.8490 C   0  0  0  0  0  0  0  0  0  0  0  0
   34.0180   28.3250   48.6920 C   0  0  0  0  0  0  0  0  0  0  0  0
   35.3230   28.4650   48.5930 O   0  0  0  0  0  0  0  0  0  0  0  0
   34.6810   30.0080   51.3790 H   0  0  0  0  0  0  0  0  0  0  0  0
   32.5770   29.0110   50.2270 H   0  0  0  0  0  0  0  0  0  0  0  0
   37.1800   29.5200   49.9070 C   0  0  0  0  0  0  0  0  0  0  0  0
   37.7830   28.9440   50.8250 O   0  0  0  0  0  0  0  0  0  0  0  0
   37.7570   30.5670   49.1090 C   0  0  0  0  0  0  0  0  0  0  0  0
   38.0430   31.7610   49.7480 C   0  0  0  0  0  0  0  0  0  0  0  0
   38.6010   32.8000   48.9980 C   0  0  0  0  0  0  0  0  0  0  0  0
   38.8390   32.5810   47.6590 N   0  0  0  0  0  0  0  0  0  0  0  0
   38.5480   31.4110   47.0790 C   0  0  0  0  0  0  0  0  0  0  0  0
   38.0130   30.4100   47.7890 N   0  0  0  0  0  0  0  0  0  0  0  0
   37.8560   31.9270   50.7950 H   0  0  0  0  0  0  0  0  0  0  0  0
   38.8370   33.7530   49.4760 H   0  0  0  0  0  0  0  0  0  0  0  0
   38.7460   31.2700   46.0200 H   0  0  0  0  0  0  0  0  0  0  0  0
   33.2390   24.8340   44.9620 C   0  0  0  0  0  2  0  0  0  0  0  0
   34.3770   25.4000   44.2310 C   0  0  0  0  0  0  0  0  0  0  0  0
   35.6110   24.9220   44.2070 C   0  0  0  0  0  0  0  0  0  0  0  0
   36.6350   25.5740   43.4650 N   0  0  0  0  0  0  0  0  0  0  0  0
   37.9860   25.5500   43.0290 C   0  0  1  0  0  0  0  0  0  0  0  0
   39.1000   25.1410   43.4750 O   0  0  0  0  0  1  0  0  0  0  0  0
   37.5670   26.2270   41.7800 C   0  0  0  0  0  3  0  0  0  0  0  0
   37.1620   25.5930   40.9830 H   0  0  0  0  0  0  0  0  0  0  0  0
   36.5480   26.8070   42.7380 C   0  0  1  0  0  0  0  0  0  0  0  0
   34.9050   27.0200   42.0620 S   0  0  0  0  0  0  0  0  0  0  0  0
   33.9240   26.6070   43.5260 C   0  0  0  0  0  3  0  0  0  0  0  0
   33.9780   27.4950   44.2110 H   0  0  0  0  0  0  0  0  0  0  0  0
   36.0030   23.7040   44.9530 C   0  0  0  0  0  0  0  0  0  0  0  0
   35.4350   22.6330   45.1770 O   0  0  0  0  0  0  0  0  0  0  0  0
   37.2150   23.5770   45.5820 O   0  0  0  0  0  0  0  0  0  0  0  0
   37.7660   22.7500   45.5300 H   0  0  0  0  0  0  0  0  0  0  0  0
  1  4  1  6  0  0  0
  1  2  1  0  0  0  0
  1  8  1  0  0  0  0
  2  5  1  0  0  0  0
  3  7  1  1  0  0  0
  3  1  1  0  0  0  0
  3  2  1  0  0  0  0
  6  2  1  0  0  0  0
  8 13  1  0  0  0  0
  9  8  2  0  0  0  0
 10 17  1  0  0  0  0
 10 11  2  0  0  0  0
 11 15  1  0  0  0  0
 12 16  1  0  0  0  0
 12 11  1  0  0  0  0
 13 12  2  0  0  0  0
 14 13  1  0  0  0  0
 14 10  1  0  0  0  0
 17 18  2  0  0  0  0
 19 20  1  0  0  0  0
 19 17  1  0  0  0  0
 20 25  1  0  0  0  0
 21 26  1  0  0  0  0
 21 20  2  0  0  0  0
 22 21  1  0  0  0  0
 23 22  2  0  0  0  0
 23 24  1  0  0  0  0
 24 19  2  0  0  0  0
 27 23  1  0  0  0  0
 28  3  1  0  0  0  0
 29 28  1  0  0  0  0
 30 29  2  0  0  0  0
 30 40  1  0  0  0  0
 31 30  1  0  0  0  0
 32 31  1  0  0  0  0
 32 33  1  1  0  0  0
 34 32  1  0  0  0  0
 35 34  1  0  0  0  0
 36 34  1  6  0  0  0
 36 32  1  0  0  0  0
 36 31  1  0  0  0  0
 37 36  1  0  0  0  0
 37 38  1  0  0  0  0
 38 39  1  0  0  0  0
 38 29  1  0  0  0  0
 40 41  2  0  0  0  0
 40 42  1  0  0  0  0
 43 42  1  0  0  0  0
M  END
>  <minimizedAffinity>
-5.14257908

>  <minimizedRMSD>
1.83879387

$$$$
