
     RDKit          3D

 49 52  0  0  0  0  0  0  0  0999 V2000
   37.1298   30.9576   49.0203 C   0  0  0  0  0  0  0  0  0  0  0  0
   36.9186   31.9283   49.9977 C   0  0  0  0  0  0  0  0  0  0  0  0
   37.5547   33.1647   49.9849 C   0  0  0  0  0  0  0  0  0  0  0  0
   38.4498   33.4587   48.9480 C   0  0  0  0  0  0  0  0  0  0  0  0
   38.6480   32.4983   47.9961 C   0  0  0  0  0  0  0  0  0  0  0  0
   37.9983   31.2817   48.0419 C   0  0  0  0  0  0  0  0  0  0  0  0
   36.4213   29.7068   49.1234 C   0  0  0  0  0  0  0  0  0  0  0  0
   36.9350   28.8723   49.9505 O   0  0  0  0  0  0  0  0  0  0  0  0
   33.6274   30.1712   46.8592 C   0  0  0  0  0  0  0  0  0  0  0  0
   32.9598   28.9558   46.8741 C   0  0  0  0  0  0  0  0  0  0  0  0
   33.4712   27.9610   47.6701 C   0  0  0  0  0  0  0  0  0  0  0  0
   34.5927   28.1928   48.4037 N   0  0  0  0  0  0  0  0  0  0  0  0
   35.2089   29.3612   48.3705 C   0  0  0  0  0  0  0  0  0  0  0  0
   34.7167   30.3510   47.5909 N   0  0  0  0  0  0  0  0  0  0  0  0
   38.3307   30.3806   46.9536 C   0  0  0  0  0  0  0  0  0  0  0  0
   38.8090   30.7091   45.7616 C   0  0  0  0  0  0  0  0  0  0  0  0
   39.1870   29.9060   44.5996 C   0  0  0  0  0  0  0  0  0  0  0  0
   36.2313   31.7588   50.8334 H   0  0  0  0  0  0  0  0  0  0  0  0
   37.3560   33.8836   50.7677 H   0  0  0  0  0  0  0  0  0  0  0  0
   38.9325   34.4266   48.9591 H   0  0  0  0  0  0  0  0  0  0  0  0
   39.3560   32.8132   47.2345 H   0  0  0  0  0  0  0  0  0  0  0  0
   33.2764   31.0144   46.2456 H   0  0  0  0  0  0  0  0  0  0  0  0
   32.0819   28.9090   46.2433 H   0  0  0  0  0  0  0  0  0  0  0  0
   32.9544   27.0292   47.6778 H   0  0  0  0  0  0  0  0  0  0  0  0
   38.2154   29.2840   47.0070 H   0  0  0  0  0  0  0  0  0  0  0  0
   38.9859   31.7584   45.5325 H   0  0  0  0  0  0  0  0  0  0  0  0
   40.2747   29.9789   44.4170 H   0  0  0  0  0  0  0  0  0  0  0  0
   39.0169   28.8180   44.8403 H   0  0  0  0  0  0  0  0  0  0  0  0
   36.8855   27.5883   38.6529 C   0  0  0  0  0  0  0  0  0  0  0  0
   37.3541   26.5905   38.7691 H   0  0  0  0  0  0  0  0  0  0  0  0
   37.0757   28.3418   39.8924 C   0  0  0  0  0  0  0  0  0  0  0  0
   38.3164   28.5503   40.2985 C   0  0  0  0  0  0  0  0  0  0  0  0
   39.4882   28.0680   39.5724 C   0  0  0  0  0  0  0  0  0  0  0  0
   39.4991   27.4168   38.5140 O   0  0  0  0  0  0  0  0  0  0  0  0
   40.7764   28.2736   39.9702 O   0  0  0  0  0  0  0  0  0  0  0  0
   38.5232   29.2858   41.5230 N   0  0  0  0  0  0  0  0  0  0  0  0
   39.3029   30.3154   42.1685 C   0  0  0  0  0  0  0  0  0  0  0  0
   40.3258   31.0286   41.8895 O   0  0  0  0  0  0  0  0  0  0  0  0
   38.4085   30.2173   43.3404 C   0  0  1  0  0  0  0  0  0  0  0  0
   37.7146   29.0396   42.7287 C   0  0  1  0  0  0  0  0  0  0  0  0
   36.0106   29.2755   42.2507 S   0  0  0  0  0  0  0  0  0  0  0  0
   35.8111   28.7804   40.5247 C   0  0  1  0  0  0  0  0  0  0  0  0
   35.3207   29.6001   39.9311 H   0  0  0  0  0  0  0  0  0  0  0  0
   37.4095   28.1370   37.8326 H   0  0  0  0  0  0  0  0  0  0  0  0
   35.8288   27.4499   38.3391 H   0  0  0  0  0  0  0  0  0  0  0  0
   41.4927   28.5397   39.3302 H   0  0  0  0  0  0  0  0  0  0  0  0
   37.7420   31.1124   43.4829 H   0  0  0  0  0  0  0  0  0  0  0  0
   37.9480   28.0792   43.2315 H   0  0  0  0  0  0  0  0  0  0  0  0
   35.0720   27.9319   40.4825 H   0  0  0  0  0  0  0  0  0  0  0  0
  1  7  1  0
  1  2  2  0
  3  2  1  0
  4  3  2  0
  5  6  2  0
  5  4  1  0
  6  1  1  0
  7  8  2  0
  9 10  2  0
  9 14  1  0
 10 11  1  0
 11 12  2  0
 13 12  1  0
 13  7  1  0
 14 13  2  0
 15  6  1  0
 16 15  2  0
 17 16  1  0
  2 18  1  0
  3 19  1  0
  4 20  1  0
  5 21  1  0
  9 22  1  0
 10 23  1  0
 11 24  1  0
 15 25  1  0
 16 26  1  0
 17 27  1  0
 17 28  1  0
 29 30  1  0
 29 31  1  0
 31 32  2  0
 32 33  1  0
 33 34  2  0
 33 35  1  0
 32 36  1  0
 36 37  1  0
 37 38  2  0
 37 39  1  0
 39 40  1  0
 40 41  1  0
 41 42  1  0
 42 43  1  6
 42 31  1  0
 40 36  1  0
 29 44  1  0
 29 45  1  0
 35 46  1  0
 39 47  1  1
 40 48  1  1
 42 49  1  0
 17 39  1  0
M  ISO  8  18  14  19  14  20  14  21  14  22  14  23  14  24  14  27   8
M  ISO  3  28   8  30   8  43  15
M  END
>  <DihAtoms>  (1) 
15,16,38,36

>  <DihDeg>  (1) 
60.032290044664876

$$$$
