
 OpenBabel03272509563D

 50 54  0  0  1  0  0  0  0  0999 V2000
   38.4470   26.9290   36.1110 C   0  0  0  0  0  0  0  0  0  0  0  0
   37.6270   27.4980   36.6130 H   0  0  0  0  0  0  0  0  0  0  0  0
   39.3980   27.3550   36.5160 H   0  0  0  0  0  0  0  0  0  0  0  0
   38.4090   25.5140   36.5370 C   0  0  0  0  0  0  0  0  0  0  0  0
   38.0050   25.2190   37.8380 C   0  0  0  0  0  0  0  0  0  0  0  0
   37.9340   23.9520   38.3310 C   0  0  0  0  0  0  0  0  0  0  0  0
   38.2660   22.9460   37.5310 N   0  0  0  0  0  0  0  0  0  0  0  0
   38.6640   23.2180   36.2530 C   0  0  0  0  0  0  0  0  0  0  0  0
   38.7420   24.4770   35.7410 N   0  0  0  0  0  0  0  0  0  0  0  0
   37.7320   26.0370   38.4990 H   0  0  0  0  0  0  0  0  0  0  0  0
   37.6140   23.7770   39.3490 H   0  0  0  0  0  0  0  0  0  0  0  0
   39.0400   22.0740   35.3450 C   0  0  0  0  0  2  0  0  0  0  0  0
   38.2660   22.0400   34.1040 C   0  0  0  0  0  0  0  0  0  0  0  0
   37.0080   21.6360   34.0910 C   0  0  0  0  0  0  0  0  0  0  0  0
   36.2690   21.6080   32.8840 N   0  0  0  0  0  0  0  0  0  0  0  0
   35.3280   20.9000   32.0930 C   0  0  0  0  0  0  0  0  0  0  0  0
   34.5590   19.9250   32.1550 O   0  0  0  0  0  0  0  0  0  0  0  0
   35.5650   21.8270   30.9630 C   0  0  0  0  0  3  0  0  0  0  0  0
   34.6180   22.2570   30.6150 H   0  0  0  0  0  0  0  0  0  0  0  0
   36.3970   22.6870   31.8900 C   0  0  2  0  0  3  0  0  0  0  0  0
   38.1310   22.7850   31.4530 S   0  0  0  0  0  0  0  0  0  0  0  0
   39.0820   22.4990   32.9620 C   0  0  0  0  0  3  0  0  0  0  0  0
   39.9180   21.8070   32.7330 H   0  0  0  0  0  0  0  0  0  0  0  0
   36.3430   21.2090   35.3140 C   0  0  0  0  0  0  0  0  0  0  0  0
   35.4200   20.3660   35.3510 O   0  0  0  0  0  0  0  0  0  0  0  0
   35.9710   21.0640   36.6190 O   0  0  0  0  0  0  0  0  0  0  0  0
   35.8840   21.8970   37.2160 H   0  0  0  0  0  0  0  0  0  0  0  0
   38.4600   27.0850   34.6220 C   0  0  0  0  0  0  0  0  0  0  0  0
   38.8240   28.0940   34.3260 H   0  0  0  0  0  0  0  0  0  0  0  0
   39.1390   26.3600   34.1290 H   0  0  0  0  0  0  0  0  0  0  0  0
   37.1370   26.9790   34.0990 O   0  0  0  0  0  0  0  0  0  0  0  0
   35.9350   29.5420   31.8730 C   0  0  0  0  0  0  0  0  0  0  0  0
   35.2950   30.4090   32.7970 C   0  0  0  0  0  0  0  0  0  0  0  0
   35.3240   30.0470   34.1250 C   0  0  0  0  0  0  0  0  0  0  0  0
   35.9730   28.8730   34.4370 N   0  0  0  0  0  0  0  0  0  0  0  0
   36.5670   28.0770   33.5390 C   0  0  0  0  0  0  0  0  0  0  0  0
   36.5390   28.4300   32.2470 N   0  0  0  0  0  0  0  0  0  0  0  0
   35.8640   29.9010   30.8590 H   0  0  0  0  0  0  0  0  0  0  0  0
   34.7910   31.3180   32.5710 H   0  0  0  0  0  0  0  0  0  0  0  0
   36.6280   31.8620   35.9630 F   0  0  0  0  0  0  0  0  0  0  0  0
   35.3250   31.6450   36.0840 C   0  0  0  0  0  0  0  0  0  0  0  0
   34.7360   30.7900   35.2120 C   0  0  0  0  0  0  0  0  0  0  0  0
   33.3620   30.6360   35.4310 C   0  0  0  0  0  0  0  0  0  0  0  0
   32.6820   31.2850   36.4290 C   0  0  0  0  0  0  0  0  0  0  0  0
   33.3320   32.1420   37.2860 C   0  0  0  0  0  0  0  0  0  0  0  0
   34.6770   32.3160   37.0980 C   0  0  0  0  0  0  0  0  0  0  0  0
   32.7580   29.9760   34.8010 H   0  0  0  0  0  0  0  0  0  0  0  0
   31.6190   31.1550   36.5840 H   0  0  0  0  0  0  0  0  0  0  0  0
   32.8080   32.6550   38.0690 H   0  0  0  0  0  0  0  0  0  0  0  0
   35.2110   32.9840   37.7590 H   0  0  0  0  0  0  0  0  0  0  0  0
  1  3  1  0  0  0  0
  1  4  1  0  0  0  0
  1  2  1  0  0  0  0
  4  5  1  0  0  0  0
  5  6  2  0  0  0  0
  5 10  1  0  0  0  0
  6 11  1  0  0  0  0
  7  6  1  0  0  0  0
  8  7  2  0  0  0  0
  9  8  1  0  0  0  0
  9  4  2  0  0  0  0
 12  8  1  0  0  0  0
 13 12  1  0  0  0  0
 14 13  2  0  0  0  0
 14 24  1  0  0  0  0
 15 14  1  0  0  0  0
 16 17  2  0  0  0  0
 16 15  1  0  0  0  0
 18 16  1  0  0  0  0
 19 18  1  0  0  0  0
 20 18  1  6  0  0  0
 20 15  1  0  0  0  0
 21 20  1  0  0  0  0
 21 22  1  0  0  0  0
 22 13  1  0  0  0  0
 23 22  1  0  0  0  0
 24 25  2  0  0  0  0
 24 26  1  0  0  0  0
 26 27  1  0  0  0  0
 28  1  1  0  0  0  0
 29 28  1  0  0  0  0
 30 28  1  0  0  0  0
 31 28  1  0  0  0  0
 32 37  2  0  0  0  0
 32 33  1  0  0  0  0
 33 34  2  0  0  0  0
 34 35  1  0  0  0  0
 34 42  1  0  0  0  0
 36 31  1  0  0  0  0
 36 35  2  0  0  0  0
 37 36  1  0  0  0  0
 38 32  1  0  0  0  0
 39 33  1  0  0  0  0
 40 41  1  0  0  0  0
 41 46  1  0  0  0  0
 42 43  1  0  0  0  0
 42 41  2  0  0  0  0
 43 44  2  0  0  0  0
 44 48  1  0  0  0  0
 44 45  1  0  0  0  0
 45 49  1  0  0  0  0
 46 45  2  0  0  0  0
 46 50  1  0  0  0  0
 47 43  1  0  0  0  0
M  END
>  <minimizedAffinity>
-7.23608589

$$$$

 OpenBabel03272509563D

 50 54  0  0  1  0  0  0  0  0999 V2000
   38.8950   27.2910   35.6140 C   0  0  0  0  0  0  0  0  0  0  0  0
   39.1010   27.1880   36.7070 H   0  0  0  0  0  0  0  0  0  0  0  0
   39.1340   28.3530   35.3630 H   0  0  0  0  0  0  0  0  0  0  0  0
   39.8440   26.4580   34.8450 C   0  0  0  0  0  0  0  0  0  0  0  0
   40.9410   27.0730   34.2460 C   0  0  0  0  0  0  0  0  0  0  0  0
   41.8730   26.4000   33.5170 C   0  0  0  0  0  0  0  0  0  0  0  0
   41.7300   25.0880   33.3710 N   0  0  0  0  0  0  0  0  0  0  0  0
   40.6600   24.4690   33.9520 C   0  0  0  0  0  0  0  0  0  0  0  0
   39.7180   25.1240   34.6830 N   0  0  0  0  0  0  0  0  0  0  0  0
   41.0650   28.1470   34.3610 H   0  0  0  0  0  0  0  0  0  0  0  0
   42.7060   26.9270   33.0730 H   0  0  0  0  0  0  0  0  0  0  0  0
   40.4990   22.9790   33.7860 C   0  0  0  0  0  2  0  0  0  0  0  0
   39.2340   22.5980   33.1560 C   0  0  0  0  0  0  0  0  0  0  0  0
   38.2150   22.1620   33.8730 C   0  0  0  0  0  0  0  0  0  0  0  0
   36.9960   21.7970   33.2530 N   0  0  0  0  0  0  0  0  0  0  0  0
   35.9170   20.8770   33.2220 C   0  0  0  0  0  0  0  0  0  0  0  0
   35.4450   19.9260   33.8670 O   0  0  0  0  0  0  0  0  0  0  0  0
   35.4180   21.4880   31.9680 C   0  0  0  0  0  3  0  0  0  0  0  0
   34.3670   21.7800   32.0760 H   0  0  0  0  0  0  0  0  0  0  0  0
   36.4460   22.5860   32.1370 C   0  0  2  0  0  3  0  0  0  0  0  0
   37.7040   22.6270   30.8630 S   0  0  0  0  0  0  0  0  0  0  0  0
   39.3020   22.7740   31.6910 C   0  0  0  0  0  3  0  0  0  0  0  0
   40.0200   22.0760   31.2130 H   0  0  0  0  0  0  0  0  0  0  0  0
   38.3110   22.0430   35.3210 C   0  0  0  0  0  0  0  0  0  0  0  0
   37.4070   22.3880   36.1140 O   0  0  0  0  0  0  0  0  0  0  0  0
   38.7530   21.7860   36.5870 O   0  0  0  0  0  0  0  0  0  0  0  0
   39.7240   22.0130   36.8400 H   0  0  0  0  0  0  0  0  0  0  0  0
   37.4680   27.0320   35.2450 C   0  0  0  0  0  0  0  0  0  0  0  0
   37.1570   26.0030   35.5320 H   0  0  0  0  0  0  0  0  0  0  0  0
   36.7670   27.7170   35.7660 H   0  0  0  0  0  0  0  0  0  0  0  0
   37.2960   27.1100   33.8310 O   0  0  0  0  0  0  0  0  0  0  0  0
   35.6420   29.4990   31.7030 C   0  0  0  0  0  0  0  0  0  0  0  0
   35.0260   30.3300   32.6760 C   0  0  0  0  0  0  0  0  0  0  0  0
   35.2260   30.0070   34.0000 C   0  0  0  0  0  0  0  0  0  0  0  0
   36.0070   28.9030   34.2600 N   0  0  0  0  0  0  0  0  0  0  0  0
   36.5740   28.1390   33.3170 C   0  0  0  0  0  0  0  0  0  0  0  0
   36.3790   28.4540   32.0300 N   0  0  0  0  0  0  0  0  0  0  0  0
   35.4330   29.8240   30.6970 H   0  0  0  0  0  0  0  0  0  0  0  0
   34.4210   31.1850   32.4900 H   0  0  0  0  0  0  0  0  0  0  0  0
   36.6300   31.7240   35.8570 F   0  0  0  0  0  0  0  0  0  0  0  0
   35.3270   31.5320   36.0120 C   0  0  0  0  0  0  0  0  0  0  0  0
   34.6910   30.7230   35.1300 C   0  0  0  0  0  0  0  0  0  0  0  0
   33.3210   30.5920   35.3880 C   0  0  0  0  0  0  0  0  0  0  0  0
   32.6880   31.2210   36.4290 C   0  0  0  0  0  0  0  0  0  0  0  0
   33.3850   32.0310   37.2950 C   0  0  0  0  0  0  0  0  0  0  0  0
   34.7280   32.1810   37.0700 C   0  0  0  0  0  0  0  0  0  0  0  0
   32.6810   29.9690   34.7550 H   0  0  0  0  0  0  0  0  0  0  0  0
   31.6280   31.1090   36.6140 H   0  0  0  0  0  0  0  0  0  0  0  0
   32.8980   32.5270   38.1120 H   0  0  0  0  0  0  0  0  0  0  0  0
   35.2980   32.8120   37.7360 H   0  0  0  0  0  0  0  0  0  0  0  0
  1  2  1  0  0  0  0
  3  1  1  0  0  0  0
  4  1  1  0  0  0  0
  5 10  1  0  0  0  0
  5  4  2  0  0  0  0
  6  5  1  0  0  0  0
  7  6  2  0  0  0  0
  7  8  1  0  0  0  0
  8  9  2  0  0  0  0
  9  4  1  0  0  0  0
 11  6  1  0  0  0  0
 12  8  1  0  0  0  0
 13 12  1  0  0  0  0
 13 14  2  0  0  0  0
 14 24  1  0  0  0  0
 15 14  1  0  0  0  0
 16 15  1  0  0  0  0
 16 17  2  0  0  0  0
 18 19  1  0  0  0  0
 18 20  1  0  0  0  0
 18 16  1  0  0  0  0
 20 21  1  6  0  0  0
 20 15  1  0  0  0  0
 21 22  1  0  0  0  0
 22 13  1  0  0  0  0
 23 22  1  0  0  0  0
 24 25  2  0  0  0  0
 24 26  1  0  0  0  0
 26 27  1  0  0  0  0
 28 29  1  0  0  0  0
 28  1  1  0  0  0  0
 28 30  1  0  0  0  0
 31 28  1  0  0  0  0
 32 37  2  0  0  0  0
 32 33  1  0  0  0  0
 33 34  2  0  0  0  0
 34 35  1  0  0  0  0
 34 42  1  0  0  0  0
 36 31  1  0  0  0  0
 36 35  2  0  0  0  0
 37 36  1  0  0  0  0
 38 32  1  0  0  0  0
 39 33  1  0  0  0  0
 40 41  1  0  0  0  0
 41 46  1  0  0  0  0
 42 43  1  0  0  0  0
 42 41  2  0  0  0  0
 43 44  2  0  0  0  0
 44 48  1  0  0  0  0
 44 45  1  0  0  0  0
 45 49  1  0  0  0  0
 46 45  2  0  0  0  0
 46 50  1  0  0  0  0
 47 43  1  0  0  0  0
M  END
>  <minimizedAffinity>
-6.99794626

$$$$

 OpenBabel03272509563D

 50 54  0  0  1  0  0  0  0  0999 V2000
   35.5080   20.4480   33.6580 C   0  0  0  0  0  0  0  0  0  0  0  0
   34.4810   20.8330   33.4460 H   0  0  0  0  0  0  0  0  0  0  0  0
   35.4170   19.3350   33.6570 H   0  0  0  0  0  0  0  0  0  0  0  0
   36.4130   20.7930   32.5400 C   0  0  0  0  0  0  0  0  0  0  0  0
   37.1200   19.7700   31.9130 C   0  0  0  0  0  0  0  0  0  0  0  0
   37.9780   19.9780   30.8760 C   0  0  0  0  0  0  0  0  0  0  0  0
   38.1470   21.2200   30.4400 N   0  0  0  0  0  0  0  0  0  0  0  0
   37.4620   22.2350   31.0440 C   0  0  0  0  0  0  0  0  0  0  0  0
   36.6000   22.0480   32.0810 N   0  0  0  0  0  0  0  0  0  0  0  0
   36.9860   18.7500   32.2650 H   0  0  0  0  0  0  0  0  0  0  0  0
   38.5030   19.1470   30.4250 H   0  0  0  0  0  0  0  0  0  0  0  0
   37.6550   23.6450   30.5470 C   0  0  0  0  0  2  0  0  0  0  0  0
   37.7270   24.6350   31.6220 C   0  0  0  0  0  0  0  0  0  0  0  0
   36.7530   25.5060   31.8180 C   0  0  0  0  0  0  0  0  0  0  0  0
   36.8330   26.4590   32.8630 N   0  0  0  0  0  0  0  0  0  0  0  0
   36.5930   27.8000   33.2570 C   0  0  0  0  0  0  0  0  0  0  0  0
   36.0440   28.8390   32.8520 O   0  0  0  0  0  0  0  0  0  0  0  0
   37.3170   27.5670   34.5280 C   0  0  0  0  0  3  0  0  0  0  0  0
   36.6890   27.8460   35.3830 H   0  0  0  0  0  0  0  0  0  0  0  0
   37.3740   26.0940   34.1830 C   0  0  2  0  0  3  0  0  0  0  0  0
   39.0250   25.4600   33.9100 S   0  0  0  0  0  0  0  0  0  0  0  0
   38.9840   24.4950   32.3830 C   0  0  0  0  0  3  0  0  0  0  0  0
   39.8780   24.7470   31.7750 H   0  0  0  0  0  0  0  0  0  0  0  0
   35.5700   25.5140   30.9710 C   0  0  0  0  0  0  0  0  0  0  0  0
   34.4540   25.0710   31.3220 O   0  0  0  0  0  0  0  0  0  0  0  0
   34.7100   25.6880   29.9250 O   0  0  0  0  0  0  0  0  0  0  0  0
   35.0280   25.4820   28.9690 H   0  0  0  0  0  0  0  0  0  0  0  0
   36.0450   20.8740   34.9890 C   0  0  0  0  0  0  0  0  0  0  0  0
   35.2650   21.3900   35.5920 H   0  0  0  0  0  0  0  0  0  0  0  0
   36.3810   20.0130   35.6020 H   0  0  0  0  0  0  0  0  0  0  0  0
   37.0990   21.8210   34.8220 O   0  0  0  0  0  0  0  0  0  0  0  0
   37.9140   23.2130   38.0420 C   0  0  0  0  0  0  0  0  0  0  0  0
   39.3320   23.2330   37.9640 C   0  0  0  0  0  0  0  0  0  0  0  0
   39.9060   22.7630   36.8040 C   0  0  0  0  0  0  0  0  0  0  0  0
   39.0510   22.3160   35.8220 N   0  0  0  0  0  0  0  0  0  0  0  0
   37.7160   22.3110   35.9270 C   0  0  0  0  0  0  0  0  0  0  0  0
   37.1580   22.7680   37.0560 N   0  0  0  0  0  0  0  0  0  0  0  0
   37.5510   23.5960   38.9810 H   0  0  0  0  0  0  0  0  0  0  0  0
   40.0040   23.5750   38.7140 H   0  0  0  0  0  0  0  0  0  0  0  0
   41.7410   20.5960   37.3600 F   0  0  0  0  0  0  0  0  0  0  0  0
   42.1990   21.6990   36.7830 C   0  0  0  0  0  0  0  0  0  0  0  0
   41.3200   22.7010   36.5330 C   0  0  0  0  0  0  0  0  0  0  0  0
   41.9110   23.8140   35.9220 C   0  0  0  0  0  0  0  0  0  0  0  0
   43.2450   23.8820   35.6100 C   0  0  0  0  0  0  0  0  0  0  0  0
   44.0910   22.8340   35.8880 C   0  0  0  0  0  0  0  0  0  0  0  0
   43.5440   21.7280   36.4850 C   0  0  0  0  0  0  0  0  0  0  0  0
   41.3210   24.6980   35.6620 H   0  0  0  0  0  0  0  0  0  0  0  0
   43.6850   24.7510   35.1380 H   0  0  0  0  0  0  0  0  0  0  0  0
   45.1350   22.8770   35.6470 H   0  0  0  0  0  0  0  0  0  0  0  0
   44.1870   20.8910   36.7140 H   0  0  0  0  0  0  0  0  0  0  0  0
  1 28  1  0  0  0  0
  2  1  1  0  0  0  0
  3  1  1  0  0  0  0
  4  1  1  0  0  0  0
  5 10  1  0  0  0  0
  5  4  2  0  0  0  0
  6  5  1  0  0  0  0
  7  6  2  0  0  0  0
  7  8  1  0  0  0  0
  8  9  2  0  0  0  0
  9  4  1  0  0  0  0
 11  6  1  0  0  0  0
 12  8  1  0  0  0  0
 12 13  1  0  0  0  0
 13 14  2  0  0  0  0
 13 22  1  0  0  0  0
 14 15  1  0  0  0  0
 15 16  1  0  0  0  0
 15 20  1  0  0  0  0
 16 18  1  0  0  0  0
 17 16  2  0  0  0  0
 18 19  1  0  0  0  0
 20 21  1  6  0  0  0
 20 18  1  0  0  0  0
 22 21  1  0  0  0  0
 23 22  1  0  0  0  0
 24 25  2  0  0  0  0
 24 14  1  0  0  0  0
 26 24  1  0  0  0  0
 27 26  1  0  0  0  0
 28 29  1  0  0  0  0
 28 30  1  0  0  0  0
 31 28  1  0  0  0  0
 31 36  1  0  0  0  0
 32 38  1  0  0  0  0
 33 32  1  0  0  0  0
 33 39  1  0  0  0  0
 34 33  2  0  0  0  0
 35 36  2  0  0  0  0
 35 34  1  0  0  0  0
 36 37  1  0  0  0  0
 37 32  2  0  0  0  0
 41 40  1  0  0  0  0
 42 41  1  0  0  0  0
 42 34  1  0  0  0  0
 43 42  2  0  0  0  0
 44 45  2  0  0  0  0
 44 43  1  0  0  0  0
 45 46  1  0  0  0  0
 46 50  1  0  0  0  0
 46 41  2  0  0  0  0
 47 43  1  0  0  0  0
 48 44  1  0  0  0  0
 49 45  1  0  0  0  0
M  END
>  <minimizedAffinity>
-6.68856144

$$$$

 OpenBabel03272509563D

 50 54  0  0  1  0  0  0  0  0999 V2000
   37.5310   25.4590   31.1390 C   0  0  0  0  0  0  0  0  0  0  0  0
   36.6480   25.2930   30.4760 H   0  0  0  0  0  0  0  0  0  0  0  0
   38.2920   25.9720   30.5020 H   0  0  0  0  0  0  0  0  0  0  0  0
   37.1780   26.4100   32.2150 C   0  0  0  0  0  0  0  0  0  0  0  0
   37.4300   26.0480   33.5360 C   0  0  0  0  0  0  0  0  0  0  0  0
   37.1450   26.8470   34.6010 C   0  0  0  0  0  0  0  0  0  0  0  0
   36.5980   28.0340   34.3670 N   0  0  0  0  0  0  0  0  0  0  0  0
   36.3430   28.4050   33.0770 C   0  0  0  0  0  0  0  0  0  0  0  0
   36.6210   27.6200   32.0000 N   0  0  0  0  0  0  0  0  0  0  0  0
   37.8780   25.0780   33.7360 H   0  0  0  0  0  0  0  0  0  0  0  0
   37.3610   26.5170   35.6070 H   0  0  0  0  0  0  0  0  0  0  0  0
   35.7220   29.7530   32.8130 C   0  0  0  0  0  2  0  0  0  0  0  0
   34.4460   29.9500   33.5030 C   0  0  0  0  0  0  0  0  0  0  0  0
   34.3460   30.7630   34.5390 C   0  0  0  0  0  0  0  0  0  0  0  0
   33.1070   30.9460   35.1980 N   0  0  0  0  0  0  0  0  0  0  0  0
   32.4430   31.0970   36.4420 C   0  0  0  0  0  0  0  0  0  0  0  0
   32.6880   31.2610   37.6500 O   0  0  0  0  0  0  0  0  0  0  0  0
   31.1290   30.9850   35.7680 C   0  0  0  0  0  3  0  0  0  0  0  0
   30.4950   31.8440   36.0180 H   0  0  0  0  0  0  0  0  0  0  0  0
   31.8490   31.0410   34.4370 C   0  0  2  0  0  3  0  0  0  0  0  0
   31.7200   29.5460   33.4610 S   0  0  0  0  0  0  0  0  0  0  0  0
   33.3820   29.1380   32.8810 C   0  0  0  0  0  3  0  0  0  0  0  0
   33.5490   28.0480   33.0090 H   0  0  0  0  0  0  0  0  0  0  0  0
   35.5020   31.4950   35.0350 C   0  0  0  0  0  0  0  0  0  0  0  0
   36.1970   31.1300   36.0090 O   0  0  0  0  0  0  0  0  0  0  0  0
   36.4900   32.4220   35.2060 O   0  0  0  0  0  0  0  0  0  0  0  0
   36.2650   33.4210   35.1260 H   0  0  0  0  0  0  0  0  0  0  0  0
   38.1350   24.1930   31.6620 C   0  0  0  0  0  0  0  0  0  0  0  0
   39.0970   23.9640   31.1510 H   0  0  0  0  0  0  0  0  0  0  0  0
   38.3730   24.2550   32.7430 H   0  0  0  0  0  0  0  0  0  0  0  0
   37.2780   23.0840   31.3930 O   0  0  0  0  0  0  0  0  0  0  0  0
   35.6290   20.7110   33.5420 C   0  0  0  0  0  0  0  0  0  0  0  0
   36.2870   20.9740   34.7720 C   0  0  0  0  0  0  0  0  0  0  0  0
   37.2540   21.9540   34.7730 C   0  0  0  0  0  0  0  0  0  0  0  0
   37.4970   22.5910   33.5760 N   0  0  0  0  0  0  0  0  0  0  0  0
   36.8580   22.3180   32.4310 C   0  0  0  0  0  0  0  0  0  0  0  0
   35.9160   21.3650   32.4320 N   0  0  0  0  0  0  0  0  0  0  0  0
   34.8900   19.9320   33.6310 H   0  0  0  0  0  0  0  0  0  0  0  0
   36.1100   20.4900   35.7030 H   0  0  0  0  0  0  0  0  0  0  0  0
   40.1130   21.7380   35.1650 F   0  0  0  0  0  0  0  0  0  0  0  0
   39.3680   22.2770   36.1200 C   0  0  0  0  0  0  0  0  0  0  0  0
   38.0300   22.3670   35.9150 C   0  0  0  0  0  0  0  0  0  0  0  0
   37.3450   22.9510   36.9860 C   0  0  0  0  0  0  0  0  0  0  0  0
   37.9640   23.3880   38.1280 C   0  0  0  0  0  0  0  0  0  0  0  0
   39.3260   23.2700   38.2840 C   0  0  0  0  0  0  0  0  0  0  0  0
   40.0270   22.7030   37.2520 C   0  0  0  0  0  0  0  0  0  0  0  0
   36.2590   23.0880   36.9570 H   0  0  0  0  0  0  0  0  0  0  0  0
   37.4180   23.8370   38.9470 H   0  0  0  0  0  0  0  0  0  0  0  0
   39.8200   23.6090   39.1730 H   0  0  0  0  0  0  0  0  0  0  0  0
   41.0990   22.6000   37.3500 H   0  0  0  0  0  0  0  0  0  0  0  0
  1 28  1  0  0  0  0
  1  4  1  0  0  0  0
  2  1  1  0  0  0  0
  3  1  1  0  0  0  0
  4  5  1  0  0  0  0
  5 10  1  0  0  0  0
  5  6  2  0  0  0  0
  6 11  1  0  0  0  0
  7  6  1  0  0  0  0
  8  7  2  0  0  0  0
  9  4  2  0  0  0  0
  9  8  1  0  0  0  0
 12  8  1  0  0  0  0
 12 13  1  0  0  0  0
 13 14  2  0  0  0  0
 14 24  1  0  0  0  0
 14 15  1  0  0  0  0
 15 16  1  0  0  0  0
 16 17  2  0  0  0  0
 18 19  1  0  0  0  0
 18 16  1  0  0  0  0
 20 21  1  6  0  0  0
 20 15  1  0  0  0  0
 20 18  1  0  0  0  0
 22 23  1  0  0  0  0
 22 21  1  0  0  0  0
 22 13  1  0  0  0  0
 24 26  1  0  0  0  0
 24 25  2  0  0  0  0
 27 26  1  0  0  0  0
 28 30  1  0  0  0  0
 29 28  1  0  0  0  0
 31 28  1  0  0  0  0
 31 36  1  0  0  0  0
 32 38  1  0  0  0  0
 32 33  1  0  0  0  0
 33 34  2  0  0  0  0
 33 39  1  0  0  0  0
 34 42  1  0  0  0  0
 35 34  1  0  0  0  0
 36 37  1  0  0  0  0
 36 35  2  0  0  0  0
 37 32  2  0  0  0  0
 40 41  1  0  0  0  0
 41 46  1  0  0  0  0
 42 41  2  0  0  0  0
 42 43  1  0  0  0  0
 43 44  2  0  0  0  0
 44 45  1  0  0  0  0
 44 48  1  0  0  0  0
 45 49  1  0  0  0  0
 46 50  1  0  0  0  0
 46 45  2  0  0  0  0
 47 43  1  0  0  0  0
M  END
>  <minimizedAffinity>
-6.57855415

$$$$

 OpenBabel03272509563D

 50 54  0  0  1  0  0  0  0  0999 V2000
   38.3460   26.9830   34.9790 C   0  0  0  0  0  0  0  0  0  0  0  0
   39.3660   26.6730   34.6470 H   0  0  0  0  0  0  0  0  0  0  0  0
   38.5070   27.8280   35.6920 H   0  0  0  0  0  0  0  0  0  0  0  0
   37.5940   27.5410   33.8340 C   0  0  0  0  0  0  0  0  0  0  0  0
   38.1110   27.3730   32.5510 C   0  0  0  0  0  0  0  0  0  0  0  0
   37.5000   27.8450   31.4290 C   0  0  0  0  0  0  0  0  0  0  0  0
   36.3530   28.4990   31.5660 N   0  0  0  0  0  0  0  0  0  0  0  0
   35.8330   28.6730   32.8170 C   0  0  0  0  0  0  0  0  0  0  0  0
   36.4270   28.2080   33.9490 N   0  0  0  0  0  0  0  0  0  0  0  0
   39.0500   26.8390   32.4310 H   0  0  0  0  0  0  0  0  0  0  0  0
   37.9450   27.6880   30.4560 H   0  0  0  0  0  0  0  0  0  0  0  0
   34.5290   29.4140   32.9700 C   0  0  0  0  0  2  0  0  0  0  0  0
   34.5580   30.4260   34.0270 C   0  0  0  0  0  0  0  0  0  0  0  0
   33.6490   30.4420   34.9850 C   0  0  0  0  0  0  0  0  0  0  0  0
   33.6870   31.4250   36.0030 N   0  0  0  0  0  0  0  0  0  0  0  0
   32.9350   32.3080   36.8190 C   0  0  0  0  0  0  0  0  0  0  0  0
   31.7580   32.5760   37.1180 O   0  0  0  0  0  0  0  0  0  0  0  0
   34.1840   32.9390   37.3060 C   0  0  0  0  0  3  0  0  0  0  0  0
   34.2150   32.9300   38.4020 H   0  0  0  0  0  0  0  0  0  0  0  0
   34.9650   31.8530   36.5980 C   0  0  2  0  0  3  0  0  0  0  0  0
   35.9930   32.4350   35.2520 S   0  0  0  0  0  0  0  0  0  0  0  0
   35.6930   31.3510   33.8390 C   0  0  0  0  0  3  0  0  0  0  0  0
   35.5880   31.9720   32.9260 H   0  0  0  0  0  0  0  0  0  0  0  0
   32.5830   29.4510   35.0270 C   0  0  0  0  0  0  0  0  0  0  0  0
   32.2090   28.8680   36.0680 O   0  0  0  0  0  0  0  0  0  0  0  0
   31.5720   28.6010   34.6820 O   0  0  0  0  0  0  0  0  0  0  0  0
   31.6520   28.0420   33.8220 H   0  0  0  0  0  0  0  0  0  0  0  0
   37.5940   25.9040   35.6930 C   0  0  0  0  0  0  0  0  0  0  0  0
   36.9660   26.3230   36.5110 H   0  0  0  0  0  0  0  0  0  0  0  0
   36.8960   25.3620   35.0230 H   0  0  0  0  0  0  0  0  0  0  0  0
   38.4990   24.9980   36.3230 O   0  0  0  0  0  0  0  0  0  0  0  0
   40.6160   22.5380   34.7620 C   0  0  0  0  0  0  0  0  0  0  0  0
   39.6650   21.8450   33.9660 C   0  0  0  0  0  0  0  0  0  0  0  0
   38.3590   22.2780   34.0250 C   0  0  0  0  0  0  0  0  0  0  0  0
   38.0930   23.3450   34.8530 N   0  0  0  0  0  0  0  0  0  0  0  0
   39.0140   23.9770   35.5910 C   0  0  0  0  0  0  0  0  0  0  0  0
   40.2850   23.5560   35.5330 N   0  0  0  0  0  0  0  0  0  0  0  0
   41.6090   22.1350   34.6560 H   0  0  0  0  0  0  0  0  0  0  0  0
   39.8570   21.0200   33.3220 H   0  0  0  0  0  0  0  0  0  0  0  0
   36.0960   20.8080   35.0680 F   0  0  0  0  0  0  0  0  0  0  0  0
   36.1830   21.0200   33.7630 C   0  0  0  0  0  0  0  0  0  0  0  0
   37.2530   21.7100   33.2960 C   0  0  0  0  0  0  0  0  0  0  0  0
   37.2420   21.8740   31.9060 C   0  0  0  0  0  0  0  0  0  0  0  0
   36.2480   21.3840   31.0980 C   0  0  0  0  0  0  0  0  0  0  0  0
   35.1850   20.6890   31.6260 C   0  0  0  0  0  0  0  0  0  0  0  0
   35.1650   20.5120   32.9840 C   0  0  0  0  0  0  0  0  0  0  0  0
   38.0440   22.4130   31.3920 H   0  0  0  0  0  0  0  0  0  0  0  0
   36.2560   21.5200   30.0240 H   0  0  0  0  0  0  0  0  0  0  0  0
   34.4030   20.3030   31.0020 H   0  0  0  0  0  0  0  0  0  0  0  0
   34.3410   19.9690   33.4240 H   0  0  0  0  0  0  0  0  0  0  0  0
  1  3  1  0  0  0  0
  1 28  1  0  0  0  0
  2  1  1  0  0  0  0
  4  9  1  0  0  0  0
  4  1  1  0  0  0  0
  5  4  2  0  0  0  0
  6  7  2  0  0  0  0
  6  5  1  0  0  0  0
  7  8  1  0  0  0  0
  8 12  1  0  0  0  0
  8  9  2  0  0  0  0
 10  5  1  0  0  0  0
 11  6  1  0  0  0  0
 12 13  1  0  0  0  0
 13 14  2  0  0  0  0
 14 24  1  0  0  0  0
 14 15  1  0  0  0  0
 15 20  1  0  0  0  0
 15 16  1  0  0  0  0
 16 17  2  0  0  0  0
 16 18  1  0  0  0  0
 18 19  1  0  0  0  0
 20 21  1  6  0  0  0
 20 18  1  0  0  0  0
 22 13  1  0  0  0  0
 22 21  1  0  0  0  0
 23 22  1  0  0  0  0
 24 25  2  0  0  0  0
 26 24  1  0  0  0  0
 27 26  1  0  0  0  0
 28 31  1  0  0  0  0
 28 29  1  0  0  0  0
 30 28  1  0  0  0  0
 32 37  1  0  0  0  0
 33 34  1  0  0  0  0
 33 32  2  0  0  0  0
 34 35  2  0  0  0  0
 35 36  1  0  0  0  0
 36 31  1  0  0  0  0
 37 36  2  0  0  0  0
 38 32  1  0  0  0  0
 39 33  1  0  0  0  0
 41 40  1  0  0  0  0
 42 41  1  0  0  0  0
 42 34  1  0  0  0  0
 43 42  2  0  0  0  0
 44 45  2  0  0  0  0
 44 43  1  0  0  0  0
 45 46  1  0  0  0  0
 46 50  1  0  0  0  0
 46 41  2  0  0  0  0
 47 43  1  0  0  0  0
 48 44  1  0  0  0  0
 49 45  1  0  0  0  0
M  END
>  <minimizedAffinity>
-6.48662424

$$$$

 OpenBabel03272509563D

 50 54  0  0  1  0  0  0  0  0999 V2000
   36.8400   26.6760   32.3530 C   0  0  0  0  0  0  0  0  0  0  0  0
   37.7660   26.7420   32.9730 H   0  0  0  0  0  0  0  0  0  0  0  0
   36.0050   26.5150   33.0780 H   0  0  0  0  0  0  0  0  0  0  0  0
   36.5810   27.9770   31.7010 C   0  0  0  0  0  0  0  0  0  0  0  0
   37.4460   28.4040   30.6960 C   0  0  0  0  0  0  0  0  0  0  0  0
   37.2990   29.5830   30.0300 C   0  0  0  0  0  0  0  0  0  0  0  0
   36.2770   30.3650   30.3560 N   0  0  0  0  0  0  0  0  0  0  0  0
   35.4190   29.9620   31.3400 C   0  0  0  0  0  0  0  0  0  0  0  0
   35.5500   28.7880   32.0160 N   0  0  0  0  0  0  0  0  0  0  0  0
   38.2850   27.7690   30.4230 H   0  0  0  0  0  0  0  0  0  0  0  0
   37.9990   29.8670   29.2580 H   0  0  0  0  0  0  0  0  0  0  0  0
   34.2600   30.8520   31.7090 C   0  0  0  0  0  2  0  0  0  0  0  0
   34.2760   31.2770   33.1090 C   0  0  0  0  0  0  0  0  0  0  0  0
   33.4160   30.7890   33.9840 C   0  0  0  0  0  0  0  0  0  0  0  0
   33.4420   31.2080   35.3360 N   0  0  0  0  0  0  0  0  0  0  0  0
   32.6770   31.5680   36.4750 C   0  0  0  0  0  0  0  0  0  0  0  0
   31.5020   31.5800   36.8800 O   0  0  0  0  0  0  0  0  0  0  0  0
   33.9060   32.0060   37.1760 C   0  0  0  0  0  3  0  0  0  0  0  0
   33.9920   31.5070   38.1480 H   0  0  0  0  0  0  0  0  0  0  0  0
   34.7190   31.4200   36.0410 C   0  0  2  0  0  3  0  0  0  0  0  0
   35.6410   32.6230   35.0900 S   0  0  0  0  0  0  0  0  0  0  0  0
   35.3410   32.2720   33.3430 C   0  0  0  0  0  3  0  0  0  0  0  0
   35.1540   33.2280   32.8120 H   0  0  0  0  0  0  0  0  0  0  0  0
   32.4170   29.8070   33.5890 C   0  0  0  0  0  0  0  0  0  0  0  0
   31.8280   29.0460   34.3880 O   0  0  0  0  0  0  0  0  0  0  0  0
   31.5580   29.0320   32.8630 O   0  0  0  0  0  0  0  0  0  0  0  0
   31.8690   28.6370   31.9660 H   0  0  0  0  0  0  0  0  0  0  0  0
   36.8460   25.5340   31.3850 C   0  0  0  0  0  0  0  0  0  0  0  0
   35.8860   24.9730   31.4170 H   0  0  0  0  0  0  0  0  0  0  0  0
   36.9660   25.8730   30.3360 H   0  0  0  0  0  0  0  0  0  0  0  0
   37.8600   24.5920   31.7320 O   0  0  0  0  0  0  0  0  0  0  0  0
   36.5550   21.4750   32.9780 C   0  0  0  0  0  0  0  0  0  0  0  0
   37.0330   21.5090   34.3140 C   0  0  0  0  0  0  0  0  0  0  0  0
   37.7740   22.6070   34.6910 C   0  0  0  0  0  0  0  0  0  0  0  0
   37.9830   23.5750   33.7350 N   0  0  0  0  0  0  0  0  0  0  0  0
   37.5170   23.5120   32.4810 C   0  0  0  0  0  0  0  0  0  0  0  0
   36.7970   22.4430   32.1150 N   0  0  0  0  0  0  0  0  0  0  0  0
   35.9880   20.5820   32.7690 H   0  0  0  0  0  0  0  0  0  0  0  0
   36.8790   20.7680   35.0630 H   0  0  0  0  0  0  0  0  0  0  0  0
   40.4130   21.8890   35.6340 F   0  0  0  0  0  0  0  0  0  0  0  0
   39.5760   22.5020   36.4590 C   0  0  0  0  0  0  0  0  0  0  0  0
   38.3440   22.8280   35.9960 C   0  0  0  0  0  0  0  0  0  0  0  0
   37.5460   23.4690   36.9510 C   0  0  0  0  0  0  0  0  0  0  0  0
   37.9700   23.7400   38.2270 C   0  0  0  0  0  0  0  0  0  0  0  0
   39.2320   23.3850   38.6440 C   0  0  0  0  0  0  0  0  0  0  0  0
   40.0380   22.7550   37.7330 C   0  0  0  0  0  0  0  0  0  0  0  0
   36.5270   23.7900   36.7150 H   0  0  0  0  0  0  0  0  0  0  0  0
   37.3390   24.2370   38.9520 H   0  0  0  0  0  0  0  0  0  0  0  0
   39.5710   23.5920   39.6390 H   0  0  0  0  0  0  0  0  0  0  0  0
   41.0350   22.4660   38.0360 H   0  0  0  0  0  0  0  0  0  0  0  0
  1  2  1  0  0  0  0
  1  3  1  0  0  0  0
  4  9  1  0  0  0  0
  4  1  1  0  0  0  0
  5  4  2  0  0  0  0
  6  7  2  0  0  0  0
  6  5  1  0  0  0  0
  7  8  1  0  0  0  0
  8 12  1  0  0  0  0
  8  9  2  0  0  0  0
 10  5  1  0  0  0  0
 11  6  1  0  0  0  0
 12 13  1  0  0  0  0
 13 22  1  0  0  0  0
 13 14  2  0  0  0  0
 14 15  1  0  0  0  0
 15 20  1  0  0  0  0
 15 16  1  0  0  0  0
 16 17  2  0  0  0  0
 16 18  1  0  0  0  0
 18 19  1  0  0  0  0
 20 21  1  6  0  0  0
 20 18  1  0  0  0  0
 22 21  1  0  0  0  0
 23 22  1  0  0  0  0
 24 14  1  0  0  0  0
 24 25  2  0  0  0  0
 26 24  1  0  0  0  0
 27 26  1  0  0  0  0
 28 29  1  0  0  0  0
 28 31  1  0  0  0  0
 28  1  1  0  0  0  0
 30 28  1  0  0  0  0
 31 36  1  0  0  0  0
 32 33  1  0  0  0  0
 33 34  2  0  0  0  0
 33 39  1  0  0  0  0
 34 42  1  0  0  0  0
 35 34  1  0  0  0  0
 36 35  2  0  0  0  0
 37 36  1  0  0  0  0
 37 32  2  0  0  0  0
 38 32  1  0  0  0  0
 40 41  1  0  0  0  0
 41 46  1  0  0  0  0
 42 41  2  0  0  0  0
 42 43  1  0  0  0  0
 43 44  2  0  0  0  0
 44 45  1  0  0  0  0
 44 48  1  0  0  0  0
 45 49  1  0  0  0  0
 46 50  1  0  0  0  0
 46 45  2  0  0  0  0
 47 43  1  0  0  0  0
M  END
>  <minimizedAffinity>
-6.46250868

$$$$

 OpenBabel03272509563D

 50 54  0  0  1  0  0  0  0  0999 V2000
   38.1520   25.8020   36.4790 C   0  0  0  0  0  0  0  0  0  0  0  0
   37.1290   25.5480   36.8480 H   0  0  0  0  0  0  0  0  0  0  0  0
   38.7260   26.1190   37.3830 H   0  0  0  0  0  0  0  0  0  0  0  0
   38.8160   24.5850   35.9670 C   0  0  0  0  0  0  0  0  0  0  0  0
   39.2450   23.6240   36.8790 C   0  0  0  0  0  0  0  0  0  0  0  0
   39.8670   22.4690   36.5150 C   0  0  0  0  0  0  0  0  0  0  0  0
   40.0740   22.2470   35.2220 N   0  0  0  0  0  0  0  0  0  0  0  0
   39.6600   23.1790   34.3140 C   0  0  0  0  0  0  0  0  0  0  0  0
   39.0380   24.3390   34.6580 N   0  0  0  0  0  0  0  0  0  0  0  0
   39.0790   23.7980   37.9390 H   0  0  0  0  0  0  0  0  0  0  0  0
   40.1800   21.7550   37.2640 H   0  0  0  0  0  0  0  0  0  0  0  0
   39.8960   22.9260   32.8470 C   0  0  0  0  0  2  0  0  0  0  0  0
   39.0600   21.8560   32.3010 C   0  0  0  0  0  0  0  0  0  0  0  0
   37.8250   22.0900   31.8960 C   0  0  0  0  0  0  0  0  0  0  0  0
   37.0260   21.0470   31.3690 N   0  0  0  0  0  0  0  0  0  0  0  0
   35.7360   20.4610   31.3150 C   0  0  0  0  0  0  0  0  0  0  0  0
   34.5630   20.6840   31.6620 O   0  0  0  0  0  0  0  0  0  0  0  0
   36.2840   19.2920   30.5910 C   0  0  0  0  0  3  0  0  0  0  0  0
   35.7310   19.1240   29.6590 H   0  0  0  0  0  0  0  0  0  0  0  0
   37.6010   20.0290   30.4720 C   0  0  2  0  0  3  0  0  0  0  0  0
   38.9590   19.2680   31.3560 S   0  0  0  0  0  0  0  0  0  0  0  0
   39.7900   20.5720   32.2900 C   0  0  0  0  0  3  0  0  0  0  0  0
   40.0070   20.1990   33.3120 H   0  0  0  0  0  0  0  0  0  0  0  0
   37.2470   23.4240   31.9770 C   0  0  0  0  0  0  0  0  0  0  0  0
   36.5910   23.9590   31.0560 O   0  0  0  0  0  0  0  0  0  0  0  0
   36.8690   24.6630   32.4080 O   0  0  0  0  0  0  0  0  0  0  0  0
   37.5430   25.2470   32.9190 H   0  0  0  0  0  0  0  0  0  0  0  0
   38.1710   26.9300   35.4940 C   0  0  0  0  0  0  0  0  0  0  0  0
   37.9210   27.8970   35.9840 H   0  0  0  0  0  0  0  0  0  0  0  0
   39.1700   27.0710   35.0350 H   0  0  0  0  0  0  0  0  0  0  0  0
   37.1750   26.7330   34.4910 O   0  0  0  0  0  0  0  0  0  0  0  0
   36.2020   29.1990   32.0540 C   0  0  0  0  0  0  0  0  0  0  0  0
   35.5590   30.1500   32.8890 C   0  0  0  0  0  0  0  0  0  0  0  0
   35.5070   29.8720   34.2370 C   0  0  0  0  0  0  0  0  0  0  0  0
   36.0850   28.6930   34.6530 N   0  0  0  0  0  0  0  0  0  0  0  0
   36.6840   27.8160   33.8370 C   0  0  0  0  0  0  0  0  0  0  0  0
   36.7340   28.0880   32.5260 N   0  0  0  0  0  0  0  0  0  0  0  0
   36.1970   29.4950   31.0180 H   0  0  0  0  0  0  0  0  0  0  0  0
   35.1090   31.0640   32.5820 H   0  0  0  0  0  0  0  0  0  0  0  0
   36.7770   31.8640   35.9070 F   0  0  0  0  0  0  0  0  0  0  0  0
   35.4760   31.6460   36.0370 C   0  0  0  0  0  0  0  0  0  0  0  0
   34.9020   30.7070   35.2440 C   0  0  0  0  0  0  0  0  0  0  0  0
   33.5280   30.5610   35.4650 C   0  0  0  0  0  0  0  0  0  0  0  0
   32.8330   31.2950   36.3920 C   0  0  0  0  0  0  0  0  0  0  0  0
   33.4670   32.2340   37.1710 C   0  0  0  0  0  0  0  0  0  0  0  0
   34.8130   32.4020   36.9790 C   0  0  0  0  0  0  0  0  0  0  0  0
   32.9350   29.8390   34.8950 H   0  0  0  0  0  0  0  0  0  0  0  0
   31.7700   31.1680   36.5500 H   0  0  0  0  0  0  0  0  0  0  0  0
   32.9320   32.8120   37.8990 H   0  0  0  0  0  0  0  0  0  0  0  0
   35.3350   33.1340   37.5790 H   0  0  0  0  0  0  0  0  0  0  0  0
  1  2  1  0  0  0  0
  1  3  1  0  0  0  0
  4  1  1  0  0  0  0
  4  5  1  0  0  0  0
  5 10  1  0  0  0  0
  6  5  2  0  0  0  0
  6 11  1  0  0  0  0
  7  6  1  0  0  0  0
  8  9  1  0  0  0  0
  8  7  2  0  0  0  0
  9  4  2  0  0  0  0
 12  8  1  0  0  0  0
 13 12  1  0  0  0  0
 14 24  1  0  0  0  0
 14 13  2  0  0  0  0
 15 14  1  0  0  0  0
 16 15  1  0  0  0  0
 16 17  2  0  0  0  0
 18 16  1  0  0  0  0
 19 18  1  0  0  0  0
 20 18  1  1  0  0  0
 20 21  1  0  0  0  0
 20 15  1  0  0  0  0
 21 22  1  0  0  0  0
 22 13  1  0  0  0  0
 22 23  1  0  0  0  0
 24 26  1  0  0  0  0
 25 24  2  0  0  0  0
 26 27  1  0  0  0  0
 28 29  1  0  0  0  0
 28  1  1  0  0  0  0
 30 28  1  0  0  0  0
 31 28  1  0  0  0  0
 32 37  2  0  0  0  0
 32 33  1  0  0  0  0
 33 34  2  0  0  0  0
 34 35  1  0  0  0  0
 34 42  1  0  0  0  0
 36 31  1  0  0  0  0
 36 35  2  0  0  0  0
 37 36  1  0  0  0  0
 38 32  1  0  0  0  0
 39 33  1  0  0  0  0
 40 41  1  0  0  0  0
 41 46  1  0  0  0  0
 42 43  1  0  0  0  0
 42 41  2  0  0  0  0
 43 44  2  0  0  0  0
 44 48  1  0  0  0  0
 44 45  1  0  0  0  0
 45 49  1  0  0  0  0
 46 45  2  0  0  0  0
 46 50  1  0  0  0  0
 47 43  1  0  0  0  0
M  END
>  <minimizedAffinity>
-6.44429684

$$$$

 OpenBabel03272509563D

 50 54  0  0  1  0  0  0  0  0999 V2000
   36.7240   22.4000   32.4360 C   0  0  0  0  0  0  0  0  0  0  0  0
   35.7530   21.9230   32.7120 H   0  0  0  0  0  0  0  0  0  0  0  0
   37.0600   21.8800   31.5070 H   0  0  0  0  0  0  0  0  0  0  0  0
   36.4990   23.8140   32.0660 C   0  0  0  0  0  0  0  0  0  0  0  0
   35.3690   24.1370   31.3180 C   0  0  0  0  0  0  0  0  0  0  0  0
   35.0680   25.4050   30.9250 C   0  0  0  0  0  0  0  0  0  0  0  0
   35.8940   26.3840   31.2720 N   0  0  0  0  0  0  0  0  0  0  0  0
   37.0070   26.0850   32.0050 C   0  0  0  0  0  0  0  0  0  0  0  0
   37.3250   24.8250   32.4080 N   0  0  0  0  0  0  0  0  0  0  0  0
   34.6880   23.3410   31.0300 H   0  0  0  0  0  0  0  0  0  0  0  0
   34.1770   25.6010   30.3450 H   0  0  0  0  0  0  0  0  0  0  0  0
   37.9440   27.1980   32.4000 C   0  0  0  0  0  2  0  0  0  0  0  0
   39.3550   26.8730   32.1870 C   0  0  0  0  0  0  0  0  0  0  0  0
   40.1790   26.7000   33.2050 C   0  0  0  0  0  0  0  0  0  0  0  0
   41.5410   26.3840   32.9870 N   0  0  0  0  0  0  0  0  0  0  0  0
   42.8830   26.6050   33.3920 C   0  0  0  0  0  0  0  0  0  0  0  0
   43.5380   27.1580   34.2920 O   0  0  0  0  0  0  0  0  0  0  0  0
   43.3730   25.8450   32.2190 C   0  0  0  0  0  3  0  0  0  0  0  0
   44.0520   25.0450   32.5370 H   0  0  0  0  0  0  0  0  0  0  0  0
   41.9430   25.4440   31.9270 C   0  0  2  0  0  3  0  0  0  0  0  0
   41.2910   26.0880   30.3890 S   0  0  0  0  0  0  0  0  0  0  0  0
   39.6630   26.7840   30.7460 C   0  0  0  0  0  3  0  0  0  0  0  0
   39.5700   27.7620   30.2310 H   0  0  0  0  0  0  0  0  0  0  0  0
   39.7140   26.8260   34.5790 C   0  0  0  0  0  0  0  0  0  0  0  0
   39.3560   25.8600   35.2880 O   0  0  0  0  0  0  0  0  0  0  0  0
   39.3460   27.3230   35.7960 O   0  0  0  0  0  0  0  0  0  0  0  0
   38.7880   28.1850   35.8420 H   0  0  0  0  0  0  0  0  0  0  0  0
   37.7890   22.2370   33.4760 C   0  0  0  0  0  0  0  0  0  0  0  0
   38.4320   21.3550   33.2590 H   0  0  0  0  0  0  0  0  0  0  0  0
   38.4740   23.1090   33.5180 H   0  0  0  0  0  0  0  0  0  0  0  0
   37.2050   21.9890   34.7540 O   0  0  0  0  0  0  0  0  0  0  0  0
   38.1400   23.3010   37.9740 C   0  0  0  0  0  0  0  0  0  0  0  0
   39.5500   23.1420   37.9200 C   0  0  0  0  0  0  0  0  0  0  0  0
   40.0790   22.5920   36.7730 C   0  0  0  0  0  0  0  0  0  0  0  0
   39.1890   22.2460   35.7810 N   0  0  0  0  0  0  0  0  0  0  0  0
   37.8620   22.4090   35.8640 C   0  0  0  0  0  0  0  0  0  0  0  0
   37.3490   22.9440   36.9800 N   0  0  0  0  0  0  0  0  0  0  0  0
   37.8130   23.7370   38.9040 H   0  0  0  0  0  0  0  0  0  0  0  0
   40.2490   23.4050   38.6780 H   0  0  0  0  0  0  0  0  0  0  0  0
   42.0620   24.4440   35.7670 F   0  0  0  0  0  0  0  0  0  0  0  0
   42.4240   23.2020   36.0550 C   0  0  0  0  0  0  0  0  0  0  0  0
   41.4780   22.3510   36.5250 C   0  0  0  0  0  0  0  0  0  0  0  0
   41.9710   21.0700   36.7950 C   0  0  0  0  0  0  0  0  0  0  0  0
   43.2810   20.7110   36.6040 C   0  0  0  0  0  0  0  0  0  0  0  0
   44.1990   21.6160   36.1240 C   0  0  0  0  0  0  0  0  0  0  0  0
   43.7480   22.8800   35.8490 C   0  0  0  0  0  0  0  0  0  0  0  0
   41.3180   20.2800   37.1810 H   0  0  0  0  0  0  0  0  0  0  0  0
   43.6450   19.7150   36.8180 H   0  0  0  0  0  0  0  0  0  0  0  0
   45.2250   21.3450   35.9710 H   0  0  0  0  0  0  0  0  0  0  0  0
   44.4500   23.6090   35.4710 H   0  0  0  0  0  0  0  0  0  0  0  0
  1  2  1  0  0  0  0
  1 28  1  0  0  0  0
  3  1  1  0  0  0  0
  4  9  1  0  0  0  0
  4  1  1  0  0  0  0
  5  4  2  0  0  0  0
  6  7  2  0  0  0  0
  6  5  1  0  0  0  0
  7  8  1  0  0  0  0
  8 12  1  0  0  0  0
  8  9  2  0  0  0  0
 10  5  1  0  0  0  0
 11  6  1  0  0  0  0
 13 12  1  0  0  0  0
 13 14  2  0  0  0  0
 14 24  1  0  0  0  0
 15 14  1  0  0  0  0
 15 16  1  0  0  0  0
 16 17  2  0  0  0  0
 18 19  1  0  0  0  0
 18 16  1  0  0  0  0
 20 21  1  6  0  0  0
 20 18  1  0  0  0  0
 20 15  1  0  0  0  0
 21 22  1  0  0  0  0
 22 13  1  0  0  0  0
 23 22  1  0  0  0  0
 24 25  2  0  0  0  0
 24 26  1  0  0  0  0
 26 27  1  0  0  0  0
 28 30  1  0  0  0  0
 28 31  1  0  0  0  0
 29 28  1  0  0  0  0
 31 36  1  0  0  0  0
 32 38  1  0  0  0  0
 33 32  1  0  0  0  0
 33 39  1  0  0  0  0
 34 33  2  0  0  0  0
 35 36  2  0  0  0  0
 35 34  1  0  0  0  0
 36 37  1  0  0  0  0
 37 32  2  0  0  0  0
 40 41  1  0  0  0  0
 41 42  1  0  0  0  0
 42 34  1  0  0  0  0
 42 43  2  0  0  0  0
 43 47  1  0  0  0  0
 44 43  1  0  0  0  0
 44 48  1  0  0  0  0
 45 44  2  0  0  0  0
 46 41  2  0  0  0  0
 46 45  1  0  0  0  0
 49 45  1  0  0  0  0
 50 46  1  0  0  0  0
M  END
>  <minimizedAffinity>
-6.38046265

$$$$

 OpenBabel03272509563D

 50 54  0  0  1  0  0  0  0  0999 V2000
   36.9530   27.3560   30.5370 C   0  0  0  0  0  0  0  0  0  0  0  0
   36.8290   27.1420   29.4480 H   0  0  0  0  0  0  0  0  0  0  0  0
   36.5480   26.4590   31.0660 H   0  0  0  0  0  0  0  0  0  0  0  0
   38.3910   27.4250   30.8740 C   0  0  0  0  0  0  0  0  0  0  0  0
   39.2970   27.7580   29.8700 C   0  0  0  0  0  0  0  0  0  0  0  0
   40.6400   27.8500   30.0720 C   0  0  0  0  0  0  0  0  0  0  0  0
   41.1100   27.6100   31.2900 N   0  0  0  0  0  0  0  0  0  0  0  0
   40.2360   27.2820   32.2870 C   0  0  0  0  0  0  0  0  0  0  0  0
   38.8900   27.1850   32.1040 N   0  0  0  0  0  0  0  0  0  0  0  0
   38.9200   27.9560   28.8690 H   0  0  0  0  0  0  0  0  0  0  0  0
   41.3000   28.1120   29.2570 H   0  0  0  0  0  0  0  0  0  0  0  0
   40.7710   27.0110   33.6700 C   0  0  0  0  0  2  0  0  0  0  0  0
   40.4320   25.6790   34.1730 C   0  0  0  0  0  0  0  0  0  0  0  0
   39.5820   25.5190   35.1710 C   0  0  0  0  0  0  0  0  0  0  0  0
   39.2620   24.2260   35.6490 N   0  0  0  0  0  0  0  0  0  0  0  0
   39.0100   23.4170   36.7860 C   0  0  0  0  0  0  0  0  0  0  0  0
   38.8340   23.5100   38.0130 O   0  0  0  0  0  0  0  0  0  0  0  0
   39.0160   22.2030   35.9380 C   0  0  0  0  0  3  0  0  0  0  0  0
   38.0930   21.6290   36.0840 H   0  0  0  0  0  0  0  0  0  0  0  0
   39.0700   23.0990   34.7190 C   0  0  2  0  0  3  0  0  0  0  0  0
   40.5750   22.9580   33.7600 S   0  0  0  0  0  0  0  0  0  0  0  0
   41.1570   24.6340   33.4230 C   0  0  0  0  0  3  0  0  0  0  0  0
   42.2530   24.6740   33.5910 H   0  0  0  0  0  0  0  0  0  0  0  0
   38.9490   26.6640   35.8100 C   0  0  0  0  0  0  0  0  0  0  0  0
   38.1540   26.5780   36.7720 O   0  0  0  0  0  0  0  0  0  0  0  0
   38.5630   27.9310   36.1400 O   0  0  0  0  0  0  0  0  0  0  0  0
   38.3410   28.6030   35.3940 H   0  0  0  0  0  0  0  0  0  0  0  0
   36.1910   28.5580   31.0010 C   0  0  0  0  0  0  0  0  0  0  0  0
   36.8760   29.3400   31.3980 H   0  0  0  0  0  0  0  0  0  0  0  0
   35.6230   29.0400   30.1800 H   0  0  0  0  0  0  0  0  0  0  0  0
   35.3270   28.2130   32.0830 O   0  0  0  0  0  0  0  0  0  0  0  0
   32.8340   30.3000   33.6320 C   0  0  0  0  0  0  0  0  0  0  0  0
   33.6280   31.4140   34.0130 C   0  0  0  0  0  0  0  0  0  0  0  0
   34.9700   31.3650   33.7070 C   0  0  0  0  0  0  0  0  0  0  0  0
   35.4210   30.2370   33.0580 N   0  0  0  0  0  0  0  0  0  0  0  0
   34.6440   29.2020   32.7130 C   0  0  0  0  0  0  0  0  0  0  0  0
   33.3390   29.2510   33.0110 N   0  0  0  0  0  0  0  0  0  0  0  0
   31.8000   30.4210   33.9100 H   0  0  0  0  0  0  0  0  0  0  0  0
   33.2930   32.2910   34.5140 H   0  0  0  0  0  0  0  0  0  0  0  0
   35.9890   32.1610   36.2950 F   0  0  0  0  0  0  0  0  0  0  0  0
   36.4290   32.7800   35.2090 C   0  0  0  0  0  0  0  0  0  0  0  0
   35.9370   32.3910   34.0060 C   0  0  0  0  0  0  0  0  0  0  0  0
   36.4710   33.1100   32.9310 C   0  0  0  0  0  0  0  0  0  0  0  0
   37.3980   34.1090   33.0800 C   0  0  0  0  0  0  0  0  0  0  0  0
   37.8630   34.4640   34.3260 C   0  0  0  0  0  0  0  0  0  0  0  0
   37.3600   33.7780   35.4000 C   0  0  0  0  0  0  0  0  0  0  0  0
   36.1640   32.9020   31.9010 H   0  0  0  0  0  0  0  0  0  0  0  0
   37.8010   34.6560   32.2370 H   0  0  0  0  0  0  0  0  0  0  0  0
   38.5880   35.2430   34.4520 H   0  0  0  0  0  0  0  0  0  0  0  0
   37.7090   34.0370   36.3890 H   0  0  0  0  0  0  0  0  0  0  0  0
  1  4  1  0  0  0  0
  1 28  1  0  0  0  0
  1  3  1  0  0  0  0
  2  1  1  0  0  0  0
  4  9  1  0  0  0  0
  5  6  1  0  0  0  0
  5  4  2  0  0  0  0
  6  7  2  0  0  0  0
  7  8  1  0  0  0  0
  8 12  1  0  0  0  0
  9  8  2  0  0  0  0
 10  5  1  0  0  0  0
 11  6  1  0  0  0  0
 12 13  1  0  0  0  0
 13 14  2  0  0  0  0
 14 15  1  0  0  0  0
 14 24  1  0  0  0  0
 15 16  1  0  0  0  0
 16 17  2  0  0  0  0
 18 19  1  0  0  0  0
 18 16  1  0  0  0  0
 20 21  1  6  0  0  0
 20 15  1  0  0  0  0
 20 18  1  0  0  0  0
 22 23  1  0  0  0  0
 22 21  1  0  0  0  0
 22 13  1  0  0  0  0
 24 26  1  0  0  0  0
 24 25  2  0  0  0  0
 27 26  1  0  0  0  0
 28 29  1  0  0  0  0
 28 31  1  0  0  0  0
 30 28  1  0  0  0  0
 31 36  1  0  0  0  0
 32 38  1  0  0  0  0
 32 33  1  0  0  0  0
 33 39  1  0  0  0  0
 34 42  1  0  0  0  0
 34 33  2  0  0  0  0
 35 34  1  0  0  0  0
 36 37  1  0  0  0  0
 36 35  2  0  0  0  0
 37 32  2  0  0  0  0
 41 46  1  0  0  0  0
 41 40  1  0  0  0  0
 42 41  2  0  0  0  0
 43 44  2  0  0  0  0
 43 42  1  0  0  0  0
 44 45  1  0  0  0  0
 45 49  1  0  0  0  0
 45 46  2  0  0  0  0
 46 50  1  0  0  0  0
 47 43  1  0  0  0  0
 48 44  1  0  0  0  0
M  END
>  <minimizedAffinity>
-6.33489323

$$$$
