REMARK  Name = 
REMARK  6 active torsions:
REMARK  status: ('A' for Active; 'I' for Inactive)
REMARK    1  A    between atoms: C_1  and  C_3
REMARK    2  A    between atoms: C_1  and  C_9
REMARK    3  A    between atoms: C_12  and  C_19
REMARK    4  A    between atoms: C_19  and  C_20
REMARK    5  A    between atoms: C_21  and  C_22
REMARK    6  A    between atoms: C_22  and  O_24
REMARK                            x       y       z     vdW  Elec       q    Type
REMARK                         _______ _______ _______ _____ _____    ______ ____
ROOT
ATOM      1  C   UNL     1      36.031  29.682  49.919  0.00  0.00    +0.000 A 
ATOM      2  C   UNL     1      34.786  30.266  49.902  0.00  0.00    +0.000 A 
ATOM      3  C   UNL     1      33.894  29.261  49.487  0.00  0.00    +0.000 A 
ATOM      4  C   UNL     1      34.665  28.132  49.280  0.00  0.00    +0.000 A 
ATOM      5  O   UNL     1      35.903  28.442  49.549  0.00  0.00    +0.000 OA
ATOM      6  H   UNL     1      34.523  31.299  50.156  0.00  0.00    +0.000 HD
ATOM      7  H   UNL     1      32.811  29.378  49.362  0.00  0.00    +0.000 HD
ENDROOT
BRANCH   1   8
ATOM      8  C   UNL     1      37.213  30.430  50.303  0.00  0.00    +0.000 C 
ATOM      9  O   UNL     1      37.599  30.390  51.494  0.00  0.00    +0.000 OA
BRANCH   8  10
ATOM     10  C   UNL     1      37.888  31.192  49.278  0.00  0.00    +0.000 A 
ATOM     11  C   UNL     1      38.293  32.481  49.596  0.00  0.00    +0.000 A 
ATOM     12  C   UNL     1      38.945  33.240  48.634  0.00  0.00    +0.000 A 
ATOM     13  N   UNL     1      39.157  32.670  47.409  0.00  0.00    +0.000 NA
ATOM     14  C   UNL     1      38.755  31.415  47.120  0.00  0.00    +0.000 A 
ATOM     15  N   UNL     1      38.128  30.685  48.044  0.00  0.00    +0.000 NA
ATOM     16  H   UNL     1      38.129  32.935  50.559  0.00  0.00    +0.000 HD
ATOM     17  H   UNL     1      39.272  34.248  48.853  0.00  0.00    +0.000 HD
ATOM     18  H   UNL     1      38.951  31.005  46.118  0.00  0.00    +0.000 HD
ENDBRANCH   8  10
ENDBRANCH   1   8
BRANCH   4  19
ATOM     19  C   UNL     1      34.051  26.848  48.827  0.00  0.00    +0.000 C 
BRANCH  19  20
ATOM     20  C   UNL     1      32.605  27.091  48.685  0.00  0.00    +0.000 C 
ATOM     21  C   UNL     1      31.930  26.946  47.568  0.00  0.00    +0.000 C 
ATOM     22  N   UNL     1      30.540  27.204  47.570  0.00  0.00    +0.000 N 
ATOM     23  C   UNL     1      29.414  27.788  46.883  0.00  0.00    +0.000 C 
ATOM     24  O   UNL     1      29.170  28.256  45.721  0.00  0.00    +0.000 OA
ATOM     25  C   UNL     1      28.532  27.668  48.058  0.00  0.00    +0.000 C 
ATOM     26  H   UNL     1      27.555  27.169  47.869  0.00  0.00    +0.000 HD
ATOM     27  C   UNL     1      29.611  26.803  48.625  0.00  0.00    +0.000 C 
ATOM     28  S   UNL     1      30.313  27.483  50.163  0.00  0.00    +0.000 S 
ATOM     29  C   UNL     1      32.120  27.527  50.013  0.00  0.00    +0.000 C 
ATOM     30  H   UNL     1      32.488  26.855  50.844  0.00  0.00    +0.000 HD
BRANCH  21  31
ATOM     31  C   UNL     1      32.552  26.515  46.297  0.00  0.00    +0.000 C 
ATOM     32  O   UNL     1      33.700  26.202  45.937  0.00  0.00    +0.000 OA
BRANCH  31  33
ATOM     33  O   UNL     1      31.854  26.367  45.125  0.00  0.00    +0.000 OA
ATOM     34  H   UNL     1      32.161  26.798  44.263  0.00  0.00    +0.000 HD
ENDBRANCH  31  33
ENDBRANCH  21  31
ENDBRANCH  19  20
ENDBRANCH   4  19
TORSDOF 6
