
 OpenBabel03272509403D

 42 45  0  0  1  0  0  0  0  0999 V2000
   36.9880   30.9280   49.0980 C   0  0  0  0  0  0  0  0  0  0  0  0
   36.7020   31.8280   50.1240 C   0  0  0  0  0  0  0  0  0  0  0  0
   37.2900   33.0860   50.2110 C   0  0  0  0  0  0  0  0  0  0  0  0
   38.2110   33.4760   49.2300 C   0  0  0  0  0  0  0  0  0  0  0  0
   38.4820   32.5830   48.2300 C   0  0  0  0  0  0  0  0  0  0  0  0
   37.8780   31.3440   48.1770 C   0  0  0  0  0  0  0  0  0  0  0  0
   35.9910   31.5830   50.9190 H   0  0  0  0  0  0  0  0  0  0  0  0
   37.0330   33.7470   51.0270 H   0  0  0  0  0  0  0  0  0  0  0  0
   38.6540   34.4580   49.3180 H   0  0  0  0  0  0  0  0  0  0  0  0
   39.2050   32.9700   47.5170 H   0  0  0  0  0  0  0  0  0  0  0  0
   36.3250   29.6480   49.0980 C   0  0  0  0  0  0  0  0  0  0  0  0
   36.8710   28.7670   49.8530 O   0  0  0  0  0  0  0  0  0  0  0  0
   33.5900   30.1560   46.7710 C   0  0  0  0  0  0  0  0  0  0  0  0
   32.9010   28.9530   46.7740 C   0  0  0  0  0  0  0  0  0  0  0  0
   33.3770   27.9510   47.5830 C   0  0  0  0  0  0  0  0  0  0  0  0
   34.4860   28.1650   48.3420 N   0  0  0  0  0  0  0  0  0  0  0  0
   35.1240   29.3220   48.3190 C   0  0  0  0  0  0  0  0  0  0  0  0
   34.6670   30.3180   47.5270 N   0  0  0  0  0  0  0  0  0  0  0  0
   33.2680   31.0040   46.1490 H   0  0  0  0  0  0  0  0  0  0  0  0
   32.0370   28.9200   46.1240 H   0  0  0  0  0  0  0  0  0  0  0  0
   32.8430   27.0280   47.5820 H   0  0  0  0  0  0  0  0  0  0  0  0
   38.2870   30.5240   47.0510 C   0  0  0  0  0  3  0  0  0  0  0  0
   39.0130   30.9020   46.0080 C   0  0  0  0  0  3  0  0  0  0  0  0
   39.4910   30.1800   44.8300 C   0  0  0  0  0  0  0  0  0  0  0  0
   40.3510   30.7070   44.3770 H   0  0  0  0  0  0  0  0  0  0  0  0
   39.9130   29.1880   45.1590 H   0  0  0  0  0  0  0  0  0  0  0  0
   37.7480   30.3900   39.7320 C   0  0  0  0  0  0  0  0  0  0  0  0
   37.9200   31.3110   40.6650 C   0  0  0  0  0  0  0  0  0  0  0  0
   38.0860   30.8820   42.0330 N   0  0  0  0  0  0  0  0  0  0  0  0
   37.7130   31.1300   43.4050 C   0  0  0  0  0  0  0  0  0  0  0  0
   37.0560   32.0160   44.0520 O   0  0  0  0  0  0  0  0  0  0  0  0
   38.4270   29.8960   43.7920 C   0  0  1  0  0  3  0  0  0  0  0  0
   38.9450   29.7420   42.3950 C   0  0  1  0  0  3  0  0  0  0  0  0
   38.3410   28.3400   41.4700 S   0  0  0  0  0  0  0  0  0  0  0  0
   37.6820   28.9190   39.8900 C   0  0  0  0  0  3  0  0  0  0  0  0
   36.6360   28.5370   39.7320 H   0  0  0  0  0  0  0  0  0  0  0  0
   37.5890   30.8440   38.3510 C   0  0  0  0  0  2  0  0  0  0  0  0
   38.4890   31.4230   38.0620 H   0  0  0  0  0  0  0  0  0  0  0  0
   37.9570   32.7430   40.3780 C   0  0  0  0  0  0  0  0  0  0  0  0
   38.9510   33.4180   40.0610 O   0  0  0  0  0  0  0  0  0  0  0  0
   36.8690   33.5630   40.4210 O   0  0  0  0  0  0  0  0  0  0  0  0
   36.6940   34.2490   39.7200 H   0  0  0  0  0  0  0  0  0  0  0  0
  1  2  1  0  0  0  0
  2  3  2  0  0  0  0
  2  7  1  0  0  0  0
  3  8  1  0  0  0  0
  4  9  1  0  0  0  0
  4  3  1  0  0  0  0
  5  4  2  0  0  0  0
  6  5  1  0  0  0  0
  6  1  2  0  0  0  0
 10  5  1  0  0  0  0
 11  1  1  0  0  0  0
 11 12  2  0  0  0  0
 13 14  2  0  0  0  0
 13 18  1  0  0  0  0
 14 15  1  0  0  0  0
 15 16  2  0  0  0  0
 17 16  1  0  0  0  0
 17 11  1  0  0  0  0
 18 17  2  0  0  0  0
 19 13  1  0  0  0  0
 20 14  1  0  0  0  0
 21 15  1  0  0  0  0
 22  6  1  0  0  0  0
 23 22  2  0  0  0  0
 24 26  1  0  0  0  0
 24 23  1  0  0  0  0
 25 24  1  0  0  0  0
 27 35  1  0  0  0  0
 27 28  2  0  0  0  0
 28 29  1  0  0  0  0
 29 33  1  0  0  0  0
 29 30  1  0  0  0  0
 30 32  1  0  0  0  0
 30 31  2  0  0  0  0
 32 24  1  1  0  0  0
 33 34  1  6  0  0  0
 33 32  1  0  0  0  0
 35 34  1  0  0  0  0
 36 35  1  0  0  0  0
 37 27  1  0  0  0  0
 38 37  1  0  0  0  0
 39 41  1  0  0  0  0
 39 28  1  0  0  0  0
 40 39  2  0  0  0  0
 42 41  1  0  0  0  0
M  END
>  <minimizedAffinity>
-5.95144224

>  <minimizedRMSD>
1.13793886

$$$$
