
 OpenBabel03272509403D

 42 45  0  0  1  0  0  0  0  0999 V2000
   37.0740   30.9610   49.0730 C   0  0  0  0  0  0  0  0  0  0  0  0
   36.8160   31.9170   50.0550 C   0  0  0  0  0  0  0  0  0  0  0  0
   37.4180   33.1710   50.0650 C   0  0  0  0  0  0  0  0  0  0  0  0
   38.3250   33.4990   49.0490 C   0  0  0  0  0  0  0  0  0  0  0  0
   38.5690   32.5520   48.0940 C   0  0  0  0  0  0  0  0  0  0  0  0
   37.9530   31.3180   48.1160 C   0  0  0  0  0  0  0  0  0  0  0  0
   36.1170   31.7210   50.8740 H   0  0  0  0  0  0  0  0  0  0  0  0
   37.1830   33.8770   50.8500 H   0  0  0  0  0  0  0  0  0  0  0  0
   38.7800   34.4790   49.0780 H   0  0  0  0  0  0  0  0  0  0  0  0
   39.2840   32.8930   47.3490 H   0  0  0  0  0  0  0  0  0  0  0  0
   36.3980   29.6900   49.1520 C   0  0  0  0  0  0  0  0  0  0  0  0
   36.9450   28.8470   49.9480 O   0  0  0  0  0  0  0  0  0  0  0  0
   33.5620   30.1440   46.9390 C   0  0  0  0  0  0  0  0  0  0  0  0
   32.9250   28.9130   46.9310 C   0  0  0  0  0  0  0  0  0  0  0  0
   33.4710   27.9110   47.6930 C   0  0  0  0  0  0  0  0  0  0  0  0
   34.5980   28.1510   48.4180 N   0  0  0  0  0  0  0  0  0  0  0  0
   35.1850   29.3340   48.4060 C   0  0  0  0  0  0  0  0  0  0  0  0
   34.6580   30.3320   47.6600 N   0  0  0  0  0  0  0  0  0  0  0  0
   33.1820   30.9940   46.3530 H   0  0  0  0  0  0  0  0  0  0  0  0
   32.0400   28.8610   46.3110 H   0  0  0  0  0  0  0  0  0  0  0  0
   32.9770   26.9660   47.6840 H   0  0  0  0  0  0  0  0  0  0  0  0
   38.3330   30.4360   47.0280 C   0  0  0  0  0  3  0  0  0  0  0  0
   38.9410   30.7740   45.9000 C   0  0  0  0  0  3  0  0  0  0  0  0
   39.3790   29.9900   44.7460 C   0  0  0  0  0  0  0  0  0  0  0  0
   40.4830   29.9460   44.7050 H   0  0  0  0  0  0  0  0  0  0  0  0
   39.0620   28.9180   44.8950 H   0  0  0  0  0  0  0  0  0  0  0  0
   35.2560   31.8490   41.8120 C   0  0  0  0  0  0  0  0  0  0  0  0
   35.5140   30.6740   42.3600 C   0  0  0  0  0  0  0  0  0  0  0  0
   36.8620   30.4030   42.8010 N   0  0  0  0  0  0  0  0  0  0  0  0
   37.9220   29.4240   42.8360 C   0  0  0  0  0  0  0  0  0  0  0  0
   38.0740   28.1960   42.5140 O   0  0  0  0  0  0  0  0  0  0  0  0
   38.8100   30.4490   43.4210 C   0  0  1  0  0  3  0  0  0  0  0  0
   37.6600   31.4020   43.5320 C   0  0  1  0  0  3  0  0  0  0  0  0
   37.7230   32.8550   42.4980 S   0  0  0  0  0  0  0  0  0  0  0  0
   36.1850   32.9730   41.5570 C   0  0  0  0  0  3  0  0  0  0  0  0
   36.3990   33.0850   40.4590 H   0  0  0  0  0  0  0  0  0  0  0  0
   33.8840   32.1090   41.3780 C   0  0  0  0  0  2  0  0  0  0  0  0
   33.2100   32.0110   42.2540 H   0  0  0  0  0  0  0  0  0  0  0  0
   34.5010   29.6390   42.5480 C   0  0  0  0  0  0  0  0  0  0  0  0
   33.7390   29.5030   43.5190 O   0  0  0  0  0  0  0  0  0  0  0  0
   34.2430   28.6450   41.6510 O   0  0  0  0  0  0  0  0  0  0  0  0
   33.3140   28.3750   41.4100 H   0  0  0  0  0  0  0  0  0  0  0  0
  1 11  1  0  0  0  0
  1  2  1  0  0  0  0
  2  3  2  0  0  0  0
  2  7  1  0  0  0  0
  3  8  1  0  0  0  0
  4  9  1  0  0  0  0
  4  3  1  0  0  0  0
  5  6  1  0  0  0  0
  5  4  2  0  0  0  0
  6  1  2  0  0  0  0
 10  5  1  0  0  0  0
 11 12  2  0  0  0  0
 13 18  1  0  0  0  0
 14 13  2  0  0  0  0
 14 15  1  0  0  0  0
 15 16  2  0  0  0  0
 17 16  1  0  0  0  0
 17 11  1  0  0  0  0
 18 17  2  0  0  0  0
 19 13  1  0  0  0  0
 20 14  1  0  0  0  0
 21 15  1  0  0  0  0
 22  6  1  0  0  0  0
 23 22  2  0  0  0  0
 24 26  1  0  0  0  0
 24 23  1  0  0  0  0
 25 24  1  0  0  0  0
 27 28  2  0  0  0  0
 28 39  1  0  0  0  0
 28 29  1  0  0  0  0
 29 30  1  0  0  0  0
 29 33  1  0  0  0  0
 30 32  1  0  0  0  0
 31 30  2  0  0  0  0
 32 33  1  0  0  0  0
 32 24  1  1  0  0  0
 33 34  1  6  0  0  0
 35 27  1  0  0  0  0
 35 34  1  0  0  0  0
 36 35  1  0  0  0  0
 37 27  1  0  0  0  0
 37 38  1  0  0  0  0
 39 40  2  0  0  0  0
 41 39  1  0  0  0  0
 42 41  1  0  0  0  0
M  END
>  <minimizedAffinity>
-5.85779762

>  <minimizedRMSD>
1.46903801

$$$$
