
 OpenBabel03272509273D

 48 51  0  0  1  0  0  0  0  0999 V2000
   39.4040   32.0690   47.1770 C   0  0  2  0  0  0  0  0  0  0  0  0
   39.7510   33.5030   46.8320 C   0  0  0  0  0  0  0  0  0  0  0  0
   40.2870   33.5300   45.4090 C   0  0  0  0  0  0  0  0  0  0  0  0
   41.1310   32.3330   45.1670 C   0  0  0  0  0  0  0  0  0  0  0  0
   40.5160   31.0120   45.4930 C   0  0  0  0  0  0  0  0  0  0  0  0
   39.1100   31.2720   46.0400 C   0  0  1  0  0  0  0  0  0  0  0  0
   40.3080   31.7130   47.7670 H   0  0  0  0  0  0  0  0  0  0  0  0
   38.8270   34.1490   46.8350 H   0  0  0  0  0  0  0  0  0  0  0  0
   40.4390   33.9410   47.5470 H   0  0  0  0  0  0  0  0  0  0  0  0
   39.5590   33.7990   44.6490 H   0  0  0  0  0  0  0  0  0  0  0  0
   41.0080   34.4090   45.4170 H   0  0  0  0  0  0  0  0  0  0  0  0
   42.0780   32.4580   45.7700 H   0  0  0  0  0  0  0  0  0  0  0  0
   41.4970   32.4040   44.1120 H   0  0  0  0  0  0  0  0  0  0  0  0
   41.0710   30.5260   46.3450 H   0  0  0  0  0  0  0  0  0  0  0  0
   40.6350   30.3930   44.6440 H   0  0  0  0  0  0  0  0  0  0  0  0
   38.7360   32.0790   45.2720 H   0  0  0  0  0  0  0  0  0  0  0  0
   38.1220   32.2170   48.4110 S   0  0  0  0  0  0  0  0  0  0  0  0
   37.9040   30.6210   49.2340 C   0  0  0  0  0  0  0  0  0  0  0  0
   37.9950   29.8380   48.4120 H   0  0  0  0  0  0  0  0  0  0  0  0
   38.7600   30.4230   49.8640 H   0  0  0  0  0  0  0  0  0  0  0  0
   36.5440   30.5310   49.7660 C   0  0  0  0  0  0  0  0  0  0  0  0
   36.0160   31.5160   49.7220 H   0  0  0  0  0  0  0  0  0  0  0  0
   36.5390   30.0360   50.7540 H   0  0  0  0  0  0  0  0  0  0  0  0
   34.2410   27.8250   48.6520 C   0  0  0  0  0  0  0  0  0  0  0  0
   35.0990   28.5670   49.4620 C   0  0  0  0  0  0  0  0  0  0  0  0
   35.6240   29.7230   48.9930 C   0  0  0  0  0  0  0  0  0  0  0  0
   35.2750   30.1170   47.7140 N   0  0  0  0  0  0  0  0  0  0  0  0
   34.4470   29.3790   46.9660 C   0  0  0  0  0  0  0  0  0  0  0  0
   33.9180   28.2360   47.4060 N   0  0  0  0  0  0  0  0  0  0  0  0
   33.8060   26.8990   48.9960 H   0  0  0  0  0  0  0  0  0  0  0  0
   35.2510   28.1120   50.4260 H   0  0  0  0  0  0  0  0  0  0  0  0
   34.2280   29.7610   45.9780 H   0  0  0  0  0  0  0  0  0  0  0  0
   38.4350   30.1370   45.5790 C   0  0  0  0  0  0  0  0  0  0  0  0
   37.6740   30.3100   44.2830 C   0  0  0  0  0  0  0  0  0  0  0  0
   37.9470   29.5190   43.2260 C   0  0  0  0  0  0  0  0  0  0  0  0
   37.2340   29.6540   42.0180 N   0  0  0  0  0  0  0  0  0  0  0  0
   36.6780   29.0470   40.8690 C   0  0  0  0  0  0  0  0  0  0  0  0
   36.7090   27.9390   40.2730 O   0  0  0  0  0  0  0  0  0  0  0  0
   35.9110   30.2510   40.4670 C   0  0  0  0  0  0  0  0  0  0  0  0
   34.8150   30.2050   40.6260 H   0  0  0  0  0  0  0  0  0  0  0  0
   36.7310   30.9320   41.5200 C   0  0  1  0  0  0  0  0  0  0  0  0
   35.6340   31.5230   42.8670 S   0  0  0  0  0  0  0  0  0  0  0  0
   36.6720   31.4080   44.3460 C   0  0  0  0  0  0  0  0  0  0  0  0
   37.1220   32.4180   44.4610 H   0  0  0  0  0  0  0  0  0  0  0  0
   38.9740   28.4530   43.2390 C   0  0  0  0  0  0  0  0  0  0  0  0
   39.1530   27.2340   43.4530 O   0  0  0  0  0  0  0  0  0  0  0  0
   40.2930   28.6660   42.9330 O   0  0  0  0  0  0  0  0  0  0  0  0
   41.1240   28.4230   43.4570 H   0  0  0  0  0  0  0  0  0  0  0  0
  1  7  1  1  0  0  0
  1 17  1  0  0  0  0
  2  8  1  0  0  0  0
  2  1  1  0  0  0  0
  2  9  1  0  0  0  0
  3 11  1  0  0  0  0
  3  2  1  0  0  0  0
  4  3  1  0  0  0  0
  4  5  1  0  0  0  0
  4 12  1  0  0  0  0
  5  6  1  0  0  0  0
  5 14  1  0  0  0  0
  6 16  1  6  0  0  0
  6  1  1  0  0  0  0
 10  3  1  0  0  0  0
 13  4  1  0  0  0  0
 15  5  1  0  0  0  0
 17 18  1  0  0  0  0
 18 21  1  0  0  0  0
 18 20  1  0  0  0  0
 19 18  1  0  0  0  0
 21 23  1  0  0  0  0
 22 21  1  0  0  0  0
 24 30  1  0  0  0  0
 24 25  1  0  0  0  0
 25 31  1  0  0  0  0
 26 25  2  0  0  0  0
 26 21  1  0  0  0  0
 27 26  1  0  0  0  0
 28 29  1  0  0  0  0
 28 27  2  0  0  0  0
 29 24  2  0  0  0  0
 32 28  1  0  0  0  0
 33  6  1  0  0  0  0
 34 43  1  0  0  0  0
 34 33  1  0  0  0  0
 35 45  1  0  0  0  0
 35 34  2  0  0  0  0
 36 35  1  0  0  0  0
 37 36  1  0  0  0  0
 38 37  2  0  0  0  0
 39 40  1  0  0  0  0
 39 37  1  0  0  0  0
 41 39  1  6  0  0  0
 41 36  1  0  0  0  0
 41 42  1  0  0  0  0
 42 43  1  0  0  0  0
 43 44  1  0  0  0  0
 45 46  2  0  0  0  0
 47 45  1  0  0  0  0
 47 48  1  0  0  0  0
M  END
>  <minimizedAffinity>
-5.4611063

>  <minimizedRMSD>
2.72431612

$$$$
