
 OpenBabel03272509403D

 42 45  0  0  1  0  0  0  0  0999 V2000
   37.0770   30.9610   49.0520 C   0  0  0  0  0  0  0  0  0  0  0  0
   36.8360   31.9320   50.0220 C   0  0  0  0  0  0  0  0  0  0  0  0
   37.4520   33.1790   50.0110 C   0  0  0  0  0  0  0  0  0  0  0  0
   38.3570   33.4830   48.9850 C   0  0  0  0  0  0  0  0  0  0  0  0
   38.5840   32.5200   48.0410 C   0  0  0  0  0  0  0  0  0  0  0  0
   37.9530   31.2940   48.0840 C   0  0  0  0  0  0  0  0  0  0  0  0
   36.1400   31.7560   50.8480 H   0  0  0  0  0  0  0  0  0  0  0  0
   37.2300   33.8990   50.7870 H   0  0  0  0  0  0  0  0  0  0  0  0
   38.8230   34.4580   48.9980 H   0  0  0  0  0  0  0  0  0  0  0  0
   39.2970   32.8430   47.2870 H   0  0  0  0  0  0  0  0  0  0  0  0
   36.3870   29.6990   49.1520 C   0  0  0  0  0  0  0  0  0  0  0  0
   36.9140   28.8690   49.9760 O   0  0  0  0  0  0  0  0  0  0  0  0
   33.5700   30.1340   46.9100 C   0  0  0  0  0  0  0  0  0  0  0  0
   32.9340   28.9030   46.9060 C   0  0  0  0  0  0  0  0  0  0  0  0
   33.4740   27.9070   47.6800 C   0  0  0  0  0  0  0  0  0  0  0  0
   34.5940   28.1530   48.4130 N   0  0  0  0  0  0  0  0  0  0  0  0
   35.1800   29.3360   48.3980 C   0  0  0  0  0  0  0  0  0  0  0  0
   34.6590   30.3280   47.6400 N   0  0  0  0  0  0  0  0  0  0  0  0
   33.1950   30.9800   46.3150 H   0  0  0  0  0  0  0  0  0  0  0  0
   32.0540   28.8460   46.2780 H   0  0  0  0  0  0  0  0  0  0  0  0
   32.9800   26.9620   47.6740 H   0  0  0  0  0  0  0  0  0  0  0  0
   38.3160   30.3930   47.0060 C   0  0  0  0  0  3  0  0  0  0  0  0
   38.9120   30.7100   45.8650 C   0  0  0  0  0  3  0  0  0  0  0  0
   39.3320   29.9060   44.7190 C   0  0  0  0  0  0  0  0  0  0  0  0
   40.4260   29.7440   44.7400 H   0  0  0  0  0  0  0  0  0  0  0  0
   38.8950   28.8720   44.8220 H   0  0  0  0  0  0  0  0  0  0  0  0
   35.9910   32.9150   41.7460 C   0  0  0  0  0  0  0  0  0  0  0  0
   35.8430   31.7640   42.3800 C   0  0  0  0  0  0  0  0  0  0  0  0
   37.0290   31.0600   42.8080 N   0  0  0  0  0  0  0  0  0  0  0  0
   37.6730   29.7710   42.8970 C   0  0  0  0  0  0  0  0  0  0  0  0
   37.3640   28.5520   42.6700 O   0  0  0  0  0  0  0  0  0  0  0  0
   38.8950   30.4480   43.3750 C   0  0  1  0  0  3  0  0  0  0  0  0
   38.1650   31.7530   43.4380 C   0  0  1  0  0  3  0  0  0  0  0  0
   38.6850   33.0170   42.2890 S   0  0  0  0  0  0  0  0  0  0  0  0
   37.2420   33.6140   41.3800 C   0  0  0  0  0  3  0  0  0  0  0  0
   37.4260   33.5680   40.2710 H   0  0  0  0  0  0  0  0  0  0  0  0
   34.7770   33.6170   41.3270 C   0  0  0  0  0  2  0  0  0  0  0  0
   34.1600   33.8240   42.2230 H   0  0  0  0  0  0  0  0  0  0  0  0
   34.5400   31.1720   42.6750 C   0  0  0  0  0  0  0  0  0  0  0  0
   33.8220   31.3960   43.6650 O   0  0  0  0  0  0  0  0  0  0  0  0
   33.9130   30.2620   41.8780 O   0  0  0  0  0  0  0  0  0  0  0  0
   32.9380   30.3170   41.6760 H   0  0  0  0  0  0  0  0  0  0  0  0
  1 11  1  0  0  0  0
  1  2  1  0  0  0  0
  2  7  1  0  0  0  0
  3  2  2  0  0  0  0
  3  8  1  0  0  0  0
  4  9  1  0  0  0  0
  4  3  1  0  0  0  0
  5  6  1  0  0  0  0
  5  4  2  0  0  0  0
  6  1  2  0  0  0  0
 10  5  1  0  0  0  0
 11 12  2  0  0  0  0
 13 18  1  0  0  0  0
 14 13  2  0  0  0  0
 14 15  1  0  0  0  0
 15 16  2  0  0  0  0
 17 16  1  0  0  0  0
 17 11  1  0  0  0  0
 18 17  2  0  0  0  0
 19 13  1  0  0  0  0
 20 14  1  0  0  0  0
 21 15  1  0  0  0  0
 22  6  1  0  0  0  0
 23 22  2  0  0  0  0
 24 25  1  0  0  0  0
 24 26  1  0  0  0  0
 24 23  1  0  0  0  0
 27 28  2  0  0  0  0
 28 39  1  0  0  0  0
 28 29  1  0  0  0  0
 29 30  1  0  0  0  0
 29 33  1  0  0  0  0
 30 32  1  0  0  0  0
 31 30  2  0  0  0  0
 32 33  1  0  0  0  0
 32 24  1  1  0  0  0
 33 34  1  6  0  0  0
 35 27  1  0  0  0  0
 35 34  1  0  0  0  0
 36 35  1  0  0  0  0
 37 27  1  0  0  0  0
 37 38  1  0  0  0  0
 39 40  2  0  0  0  0
 41 39  1  0  0  0  0
 42 41  1  0  0  0  0
M  END
>  <minimizedAffinity>
-6.13298178

>  <minimizedRMSD>
1.13746047

$$$$
