
 OpenBabel03272509403D

 42 45  0  0  1  0  0  0  0  0999 V2000
   37.1640   30.9780   49.0520 C   0  0  0  0  0  0  0  0  0  0  0  0
   36.8570   31.9640   49.9880 C   0  0  0  0  0  0  0  0  0  0  0  0
   37.4410   33.2260   49.9750 C   0  0  0  0  0  0  0  0  0  0  0  0
   38.3820   33.5310   48.9830 C   0  0  0  0  0  0  0  0  0  0  0  0
   38.6740   32.5550   48.0720 C   0  0  0  0  0  0  0  0  0  0  0  0
   38.0730   31.3140   48.1160 C   0  0  0  0  0  0  0  0  0  0  0  0
   36.1300   31.7880   50.7870 H   0  0  0  0  0  0  0  0  0  0  0  0
   37.1680   33.9560   50.7250 H   0  0  0  0  0  0  0  0  0  0  0  0
   38.8220   34.5190   48.9930 H   0  0  0  0  0  0  0  0  0  0  0  0
   39.4120   32.8800   47.3420 H   0  0  0  0  0  0  0  0  0  0  0  0
   36.5030   29.7010   49.1500 C   0  0  0  0  0  0  0  0  0  0  0  0
   37.0800   28.8630   49.9310 O   0  0  0  0  0  0  0  0  0  0  0  0
   33.5830   30.1350   47.0440 C   0  0  0  0  0  0  0  0  0  0  0  0
   32.9710   28.8910   47.0360 C   0  0  0  0  0  0  0  0  0  0  0  0
   33.5630   27.8870   47.7610 C   0  0  0  0  0  0  0  0  0  0  0  0
   34.7090   28.1380   48.4510 N   0  0  0  0  0  0  0  0  0  0  0  0
   35.2710   29.3330   48.4400 C   0  0  0  0  0  0  0  0  0  0  0  0
   34.6990   30.3330   47.7310 N   0  0  0  0  0  0  0  0  0  0  0  0
   33.1660   30.9870   46.4870 H   0  0  0  0  0  0  0  0  0  0  0  0
   32.0660   28.8320   46.4450 H   0  0  0  0  0  0  0  0  0  0  0  0
   33.0880   26.9330   47.7510 H   0  0  0  0  0  0  0  0  0  0  0  0
   38.5060   30.3990   47.0750 C   0  0  0  0  0  3  0  0  0  0  0  0
   38.6860   30.6770   45.7910 C   0  0  0  0  0  3  0  0  0  0  0  0
   39.1200   29.8580   44.6600 C   0  0  0  0  0  0  0  0  0  0  0  0
   40.0690   30.2450   44.2440 H   0  0  0  0  0  0  0  0  0  0  0  0
   39.3810   28.8280   45.0370 H   0  0  0  0  0  0  0  0  0  0  0  0
   36.6340   31.6900   40.2420 C   0  0  0  0  0  0  0  0  0  0  0  0
   36.6020   32.0580   41.5120 C   0  0  0  0  0  0  0  0  0  0  0  0
   37.1300   31.1500   42.5020 N   0  0  0  0  0  0  0  0  0  0  0  0
   36.9160   30.5640   43.8040 C   0  0  0  0  0  0  0  0  0  0  0  0
   36.0920   30.7040   44.7700 O   0  0  0  0  0  0  0  0  0  0  0  0
   38.0840   29.6900   43.5700 C   0  0  1  0  0  3  0  0  0  0  0  0
   38.3920   30.4200   42.3000 C   0  0  1  0  0  3  0  0  0  0  0  0
   38.2050   29.4980   40.7830 S   0  0  0  0  0  0  0  0  0  0  0  0
   37.1370   30.4270   39.6590 C   0  0  0  0  0  3  0  0  0  0  0  0
   36.2930   29.7820   39.2900 H   0  0  0  0  0  0  0  0  0  0  0  0
   36.1010   32.6270   39.2520 C   0  0  0  0  0  2  0  0  0  0  0  0
   36.6670   33.5770   39.3220 H   0  0  0  0  0  0  0  0  0  0  0  0
   36.0650   33.3400   41.9610 C   0  0  0  0  0  0  0  0  0  0  0  0
   36.1890   34.4420   41.4020 O   0  0  0  0  0  0  0  0  0  0  0  0
   35.3280   33.5080   43.0960 O   0  0  0  0  0  0  0  0  0  0  0  0
   34.5080   34.0740   43.1170 H   0  0  0  0  0  0  0  0  0  0  0  0
  1 11  1  0  0  0  0
  1  2  1  0  0  0  0
  2  7  1  0  0  0  0
  3  2  2  0  0  0  0
  3  8  1  0  0  0  0
  4  9  1  0  0  0  0
  4  3  1  0  0  0  0
  5  6  1  0  0  0  0
  5  4  2  0  0  0  0
  6  1  2  0  0  0  0
 10  5  1  0  0  0  0
 11 12  2  0  0  0  0
 13 18  1  0  0  0  0
 14 13  2  0  0  0  0
 14 15  1  0  0  0  0
 15 16  2  0  0  0  0
 17 16  1  0  0  0  0
 17 11  1  0  0  0  0
 18 17  2  0  0  0  0
 19 13  1  0  0  0  0
 20 14  1  0  0  0  0
 21 15  1  0  0  0  0
 22  6  1  0  0  0  0
 23 22  2  0  0  0  0
 24 26  1  0  0  0  0
 24 23  1  0  0  0  0
 25 24  1  0  0  0  0
 27 28  2  0  0  0  0
 28 39  1  0  0  0  0
 28 29  1  0  0  0  0
 29 30  1  0  0  0  0
 30 31  2  0  0  0  0
 32 30  1  0  0  0  0
 32 24  1  1  0  0  0
 33 34  1  6  0  0  0
 33 29  1  0  0  0  0
 33 32  1  0  0  0  0
 35 27  1  0  0  0  0
 35 34  1  0  0  0  0
 36 35  1  0  0  0  0
 37 38  1  0  0  0  0
 37 27  1  0  0  0  0
 39 41  1  0  0  0  0
 40 39  2  0  0  0  0
 41 42  1  0  0  0  0
M  END
>  <minimizedAffinity>
-6.27434921

>  <minimizedRMSD>
1.03329515

$$$$
