
 OpenBabel03272506523D

 41 45  0  0  1  0  0  0  0  0999 V2000
   36.6360   23.6680   30.7800 C   0  0  1  0  0  0  0  0  0  0  0  0
   36.0960   24.7550   31.5930 C   0  0  0  0  0  0  0  0  0  0  0  0
   37.0130   25.3570   32.6330 C   0  0  0  0  0  0  0  0  0  0  0  0
   38.4180   25.4710   32.2680 C   0  0  2  0  0  0  0  0  0  0  0  0
   38.9900   24.3840   31.4050 C   0  0  0  0  0  0  0  0  0  0  0  0
   38.0570   23.9080   30.3510 C   0  0  0  0  0  0  0  0  0  0  0  0
   36.0660   23.6480   29.7960 H   0  0  0  0  0  0  0  0  0  0  0  0
   35.1270   24.6240   32.0450 H   0  0  0  0  0  0  0  0  0  0  0  0
   35.9360   25.6270   30.8770 H   0  0  0  0  0  0  0  0  0  0  0  0
   36.5630   26.3200   32.9130 H   0  0  0  0  0  0  0  0  0  0  0  0
   36.9210   24.6820   33.5250 H   0  0  0  0  0  0  0  0  0  0  0  0
   38.5480   26.4230   31.6670 H   0  0  0  0  0  0  0  0  0  0  0  0
   39.3740   23.5530   32.0460 H   0  0  0  0  0  0  0  0  0  0  0  0
   39.8890   24.7870   30.8970 H   0  0  0  0  0  0  0  0  0  0  0  0
   38.5240   23.1170   29.7830 H   0  0  0  0  0  0  0  0  0  0  0  0
   37.9840   24.7730   29.6100 H   0  0  0  0  0  0  0  0  0  0  0  0
   37.2250   21.1970   30.9070 C   0  0  0  0  0  0  0  0  0  0  0  0
   36.4150   22.2950   31.2960 C   0  0  0  0  0  0  0  0  0  0  0  0
   35.3970   22.0390   32.1940 C   0  0  0  0  0  0  0  0  0  0  0  0
   35.2060   20.7720   32.6670 N   0  0  0  0  0  0  0  0  0  0  0  0
   36.0100   19.7540   32.2620 C   0  0  0  0  0  0  0  0  0  0  0  0
   37.0170   19.9730   31.3830 N   0  0  0  0  0  0  0  0  0  0  0  0
   38.0380   21.3190   30.2110 H   0  0  0  0  0  0  0  0  0  0  0  0
   34.6960   22.7460   32.5980 H   0  0  0  0  0  0  0  0  0  0  0  0
   35.8290   18.7570   32.6580 H   0  0  0  0  0  0  0  0  0  0  0  0
   39.3140   25.5360   33.4740 C   0  0  0  0  0  2  0  0  0  0  0  0
   39.1090   24.5430   34.5170 C   0  0  0  0  0  0  0  0  0  0  0  0
   38.7430   25.0880   35.6800 C   0  0  0  0  0  0  0  0  0  0  0  0
   38.4830   24.4350   36.8970 N   0  0  0  0  0  0  0  0  0  0  0  0
   38.2190   24.3950   38.3050 C   0  0  2  0  0  0  0  0  0  0  0  0
   37.7020   25.2050   39.1130 O   0  0  0  0  0  1  0  0  0  0  0  0
   38.7940   23.0230   38.4380 C   0  0  0  0  0  3  0  0  0  0  0  0
   38.2030   22.3170   39.0410 H   0  0  0  0  0  0  0  0  0  0  0  0
   38.4070   22.9890   36.9930 C   0  0  1  0  0  0  0  0  0  0  0  0
   39.7940   22.3700   35.9750 S   0  0  0  0  0  0  0  0  0  0  0  0
   39.2830   23.1030   34.3680 C   0  0  0  0  0  3  0  0  0  0  0  0
   38.2820   22.6190   34.1730 H   0  0  0  0  0  0  0  0  0  0  0  0
   38.5820   26.5570   35.8100 C   0  0  0  0  0  0  0  0  0  0  0  0
   37.4900   27.1910   35.6140 O   0  0  0  0  0  0  0  0  0  0  0  0
   38.8090   27.8800   36.0170 O   0  0  0  0  0  0  0  0  0  0  0  0
   39.5930   28.3420   35.5430 H   0  0  0  0  0  0  0  0  0  0  0  0
  1  7  1  6  0  0  0
  1 18  1  0  0  0  0
  1  2  1  0  0  0  0
  2  8  1  0  0  0  0
  2  3  1  0  0  0  0
  3 10  1  0  0  0  0
  3 11  1  0  0  0  0
  4 12  1  6  0  0  0
  4  3  1  0  0  0  0
  4 26  1  0  0  0  0
  5 13  1  0  0  0  0
  5  4  1  0  0  0  0
  6  1  1  0  0  0  0
  6  5  1  0  0  0  0
  9  2  1  0  0  0  0
 14  5  1  0  0  0  0
 15  6  1  0  0  0  0
 16  6  1  0  0  0  0
 17 18  2  0  0  0  0
 17 22  1  0  0  0  0
 18 19  1  0  0  0  0
 19 24  1  0  0  0  0
 19 20  2  0  0  0  0
 21 25  1  0  0  0  0
 21 20  1  0  0  0  0
 22 21  2  0  0  0  0
 23 17  1  0  0  0  0
 26 27  1  0  0  0  0
 27 28  2  0  0  0  0
 28 38  1  0  0  0  0
 28 29  1  0  0  0  0
 29 34  1  0  0  0  0
 29 30  1  0  0  0  0
 30 32  1  0  0  0  0
 30 31  1  1  0  0  0
 32 33  1  0  0  0  0
 34 35  1  1  0  0  0
 34 30  1  0  0  0  0
 34 32  1  0  0  0  0
 36 27  1  0  0  0  0
 36 35  1  0  0  0  0
 37 36  1  0  0  0  0
 38 40  1  0  0  0  0
 39 38  2  0  0  0  0
 41 40  1  0  0  0  0
M  END
>  <minimizedAffinity>
-5.85344982

$$$$

 OpenBabel03272506523D

 41 45  0  0  1  0  0  0  0  0999 V2000
   34.9850   30.7740   33.2440 C   0  0  1  0  0  0  0  0  0  0  0  0
   35.2680   30.2670   31.9030 C   0  0  0  0  0  0  0  0  0  0  0  0
   36.2900   29.1600   31.7890 C   0  0  0  0  0  0  0  0  0  0  0  0
   36.2950   28.1710   32.8580 C   0  0  2  0  0  0  0  0  0  0  0  0
   35.9750   28.6590   34.2410 C   0  0  0  0  0  0  0  0  0  0  0  0
   34.8990   29.6830   34.2760 C   0  0  0  0  0  0  0  0  0  0  0  0
   33.9350   31.2130   33.2400 H   0  0  0  0  0  0  0  0  0  0  0  0
   35.4640   30.9780   31.1180 H   0  0  0  0  0  0  0  0  0  0  0  0
   34.3120   29.7510   31.5590 H   0  0  0  0  0  0  0  0  0  0  0  0
   36.1450   28.7150   30.7940 H   0  0  0  0  0  0  0  0  0  0  0  0
   37.2830   29.6830   31.7700 H   0  0  0  0  0  0  0  0  0  0  0  0
   35.4990   27.3990   32.6260 H   0  0  0  0  0  0  0  0  0  0  0  0
   36.9100   29.0010   34.7490 H   0  0  0  0  0  0  0  0  0  0  0  0
   35.6300   27.7920   34.8390 H   0  0  0  0  0  0  0  0  0  0  0  0
   34.7340   30.0030   35.2940 H   0  0  0  0  0  0  0  0  0  0  0  0
   33.9460   29.1170   34.0060 H   0  0  0  0  0  0  0  0  0  0  0  0
   36.0020   32.2310   35.0640 C   0  0  0  0  0  0  0  0  0  0  0  0
   35.8030   31.9270   33.6930 C   0  0  0  0  0  0  0  0  0  0  0  0
   36.4140   32.7540   32.7700 C   0  0  0  0  0  0  0  0  0  0  0  0
   37.1700   33.8090   33.1950 N   0  0  0  0  0  0  0  0  0  0  0  0
   37.3290   34.0580   34.5210 C   0  0  0  0  0  0  0  0  0  0  0  0
   36.7420   33.2650   35.4500 N   0  0  0  0  0  0  0  0  0  0  0  0
   35.5580   31.6310   35.8410 H   0  0  0  0  0  0  0  0  0  0  0  0
   36.3760   32.6710   31.7000 H   0  0  0  0  0  0  0  0  0  0  0  0
   37.9370   34.9080   34.8240 H   0  0  0  0  0  0  0  0  0  0  0  0
   37.6230   27.4730   32.9780 C   0  0  0  0  0  2  0  0  0  0  0  0
   37.6090   26.0290   33.1490 C   0  0  0  0  0  0  0  0  0  0  0  0
   38.2250   25.6390   34.2670 C   0  0  0  0  0  0  0  0  0  0  0  0
   38.4180   24.3280   34.7360 N   0  0  0  0  0  0  0  0  0  0  0  0
   38.9820   23.3450   35.6130 C   0  0  2  0  0  0  0  0  0  0  0  0
   39.4150   23.3810   36.7920 O   0  0  0  0  0  1  0  0  0  0  0  0
   38.8590   22.2670   34.5870 C   0  0  0  0  0  3  0  0  0  0  0  0
   38.4570   21.3090   34.9510 H   0  0  0  0  0  0  0  0  0  0  0  0
   37.7780   23.1860   34.1110 C   0  0  1  0  0  0  0  0  0  0  0  0
   37.9340   23.4770   32.3130 S   0  0  0  0  0  0  0  0  0  0  0  0
   37.0150   25.0670   32.2270 C   0  0  0  0  0  3  0  0  0  0  0  0
   35.9830   24.7870   32.5870 H   0  0  0  0  0  0  0  0  0  0  0  0
   38.8300   26.6350   35.1840 C   0  0  0  0  0  0  0  0  0  0  0  0
   40.0840   26.8480   35.3070 O   0  0  0  0  0  0  0  0  0  0  0  0
   39.0130   27.6120   36.1120 O   0  0  0  0  0  0  0  0  0  0  0  0
   38.5630   27.5320   37.0300 H   0  0  0  0  0  0  0  0  0  0  0  0
  1  7  1  6  0  0  0
  1 18  1  0  0  0  0
  1  6  1  0  0  0  0
  2  1  1  0  0  0  0
  3  2  1  0  0  0  0
  3  4  1  0  0  0  0
  4 12  1  6  0  0  0
  4 26  1  0  0  0  0
  4  5  1  0  0  0  0
  5  6  1  0  0  0  0
  5 13  1  0  0  0  0
  5 14  1  0  0  0  0
  6 15  1  0  0  0  0
  8  2  1  0  0  0  0
  9  2  1  0  0  0  0
 10  3  1  0  0  0  0
 11  3  1  0  0  0  0
 16  6  1  0  0  0  0
 17 22  1  0  0  0  0
 17 23  1  0  0  0  0
 18 17  2  0  0  0  0
 19 20  2  0  0  0  0
 19 18  1  0  0  0  0
 20 21  1  0  0  0  0
 21 25  1  0  0  0  0
 21 22  2  0  0  0  0
 24 19  1  0  0  0  0
 26 27  1  0  0  0  0
 27 28  2  0  0  0  0
 28 29  1  0  0  0  0
 28 38  1  0  0  0  0
 29 30  1  0  0  0  0
 30 31  1  1  0  0  0
 32 33  1  0  0  0  0
 32 30  1  0  0  0  0
 34 35  1  6  0  0  0
 34 32  1  0  0  0  0
 34 29  1  0  0  0  0
 34 30  1  0  0  0  0
 36 35  1  0  0  0  0
 36 37  1  0  0  0  0
 36 27  1  0  0  0  0
 38 39  2  0  0  0  0
 38 40  1  0  0  0  0
 40 41  1  0  0  0  0
M  END
>  <minimizedAffinity>
-5.72021723

$$$$

 OpenBabel03272506523D

 41 45  0  0  1  0  0  0  0  0999 V2000
   37.7250   26.9010   32.4750 C   0  0  1  0  0  0  0  0  0  0  0  0
   37.3440   28.0900   31.7150 C   0  0  0  0  0  0  0  0  0  0  0  0
   36.2460   28.9510   32.2940 C   0  0  0  0  0  0  0  0  0  0  0  0
   36.2270   29.0890   33.7440 C   0  0  2  0  0  0  0  0  0  0  0  0
   36.6480   27.8930   34.5480 C   0  0  0  0  0  0  0  0  0  0  0  0
   37.7900   27.1490   33.9570 C   0  0  0  0  0  0  0  0  0  0  0  0
   38.8010   26.6430   32.2060 H   0  0  0  0  0  0  0  0  0  0  0  0
   37.1570   27.9840   30.6600 H   0  0  0  0  0  0  0  0  0  0  0  0
   38.2450   28.7860   31.7550 H   0  0  0  0  0  0  0  0  0  0  0  0
   36.3120   29.9180   31.7730 H   0  0  0  0  0  0  0  0  0  0  0  0
   35.2910   28.4660   31.9610 H   0  0  0  0  0  0  0  0  0  0  0  0
   36.9580   29.9060   34.0290 H   0  0  0  0  0  0  0  0  0  0  0  0
   35.7630   27.2370   34.7440 H   0  0  0  0  0  0  0  0  0  0  0  0
   36.9630   28.2470   35.5500 H   0  0  0  0  0  0  0  0  0  0  0  0
   38.0250   26.2940   34.5730 H   0  0  0  0  0  0  0  0  0  0  0  0
   38.6890   27.8400   34.0860 H   0  0  0  0  0  0  0  0  0  0  0  0
   35.8590   25.6320   31.3020 C   0  0  0  0  0  0  0  0  0  0  0  0
   37.0090   25.6490   32.1320 C   0  0  0  0  0  0  0  0  0  0  0  0
   37.4540   24.4330   32.6150 C   0  0  0  0  0  0  0  0  0  0  0  0
   36.7910   23.2850   32.2880 N   0  0  0  0  0  0  0  0  0  0  0  0
   35.6920   23.3240   31.4890 C   0  0  0  0  0  0  0  0  0  0  0  0
   35.2320   24.5000   31.0000 N   0  0  0  0  0  0  0  0  0  0  0  0
   35.4530   26.5410   30.8890 H   0  0  0  0  0  0  0  0  0  0  0  0
   38.3050   24.2590   33.2470 H   0  0  0  0  0  0  0  0  0  0  0  0
   35.1870   22.3900   31.2500 H   0  0  0  0  0  0  0  0  0  0  0  0
   34.8640   29.4590   34.2610 C   0  0  0  0  0  2  0  0  0  0  0  0
   34.7770   30.5830   35.1800 C   0  0  0  0  0  0  0  0  0  0  0  0
   33.5160   30.9420   35.4330 C   0  0  0  0  0  0  0  0  0  0  0  0
   33.0630   31.9910   36.2520 N   0  0  0  0  0  0  0  0  0  0  0  0
   32.0620   32.8650   36.7860 C   0  0  2  0  0  0  0  0  0  0  0  0
   30.8200   32.7670   36.9450 O   0  0  0  0  0  1  0  0  0  0  0  0
   33.0620   33.9350   37.0790 C   0  0  0  0  0  3  0  0  0  0  0  0
   32.9730   34.4100   38.0680 H   0  0  0  0  0  0  0  0  0  0  0  0
   33.9620   32.7400   37.1100 C   0  0  1  0  0  0  0  0  0  0  0  0
   35.4530   33.0380   36.0930 S   0  0  0  0  0  0  0  0  0  0  0  0
   35.9070   31.2840   35.7790 C   0  0  0  0  0  3  0  0  0  0  0  0
   36.0970   30.8790   36.8150 H   0  0  0  0  0  0  0  0  0  0  0  0
   32.3830   30.2190   34.8050 C   0  0  0  0  0  0  0  0  0  0  0  0
   31.5180   29.5260   35.4400 O   0  0  0  0  0  0  0  0  0  0  0  0
   31.5000   29.7060   33.9080 O   0  0  0  0  0  0  0  0  0  0  0  0
   31.8460   29.1990   33.0870 H   0  0  0  0  0  0  0  0  0  0  0  0
  1  7  1  6  0  0  0
  1  6  1  0  0  0  0
  2  9  1  0  0  0  0
  2  3  1  0  0  0  0
  2  1  1  0  0  0  0
  3  4  1  0  0  0  0
  4 12  1  1  0  0  0
  4 26  1  0  0  0  0
  4  5  1  0  0  0  0
  5 13  1  0  0  0  0
  5 14  1  0  0  0  0
  6 16  1  0  0  0  0
  6  5  1  0  0  0  0
  6 15  1  0  0  0  0
  8  2  1  0  0  0  0
 10  3  1  0  0  0  0
 11  3  1  0  0  0  0
 17 18  1  0  0  0  0
 18  1  1  0  0  0  0
 18 19  2  0  0  0  0
 19 24  1  0  0  0  0
 20 19  1  0  0  0  0
 21 20  2  0  0  0  0
 22 17  2  0  0  0  0
 22 21  1  0  0  0  0
 23 17  1  0  0  0  0
 25 21  1  0  0  0  0
 26 27  1  0  0  0  0
 27 28  2  0  0  0  0
 27 36  1  0  0  0  0
 28 29  1  0  0  0  0
 29 30  1  0  0  0  0
 29 34  1  0  0  0  0
 30 31  1  1  0  0  0
 30 32  1  0  0  0  0
 30 34  1  0  0  0  0
 32 34  1  0  0  0  0
 32 33  1  0  0  0  0
 34 35  1  6  0  0  0
 36 35  1  0  0  0  0
 36 37  1  0  0  0  0
 38 28  1  0  0  0  0
 38 39  2  0  0  0  0
 40 38  1  0  0  0  0
 41 40  1  0  0  0  0
M  END
>  <minimizedAffinity>
-5.65285206

$$$$

 OpenBabel03272506523D

 41 45  0  0  1  0  0  0  0  0999 V2000
   39.0380   26.9810   34.8760 C   0  0  1  0  0  0  0  0  0  0  0  0
   38.0260   26.4070   35.7590 C   0  0  0  0  0  0  0  0  0  0  0  0
   37.9710   24.9000   35.8540 C   0  0  0  0  0  0  0  0  0  0  0  0
   39.2490   24.2030   35.8120 C   0  0  2  0  0  0  0  0  0  0  0  0
   40.3190   24.7900   34.9380 C   0  0  0  0  0  0  0  0  0  0  0  0
   40.3630   26.2750   34.9680 C   0  0  0  0  0  0  0  0  0  0  0  0
   39.2750   28.0300   35.2480 H   0  0  0  0  0  0  0  0  0  0  0  0
   37.0140   26.7680   35.6810 H   0  0  0  0  0  0  0  0  0  0  0  0
   38.3310   26.7060   36.8160 H   0  0  0  0  0  0  0  0  0  0  0  0
   37.3890   24.6740   36.7600 H   0  0  0  0  0  0  0  0  0  0  0  0
   37.3490   24.5770   34.9780 H   0  0  0  0  0  0  0  0  0  0  0  0
   39.6870   24.2080   36.8560 H   0  0  0  0  0  0  0  0  0  0  0  0
   40.2270   24.3830   33.9000 H   0  0  0  0  0  0  0  0  0  0  0  0
   41.2990   24.4200   35.3000 H   0  0  0  0  0  0  0  0  0  0  0  0
   41.1380   26.6290   34.3040 H   0  0  0  0  0  0  0  0  0  0  0  0
   40.7480   26.5370   36.0090 H   0  0  0  0  0  0  0  0  0  0  0  0
   39.5290   27.2130   32.3910 C   0  0  0  0  0  0  0  0  0  0  0  0
   38.6160   27.2340   33.4770 C   0  0  0  0  0  0  0  0  0  0  0  0
   37.2930   27.4990   33.1800 C   0  0  0  0  0  0  0  0  0  0  0  0
   36.9150   27.7250   31.8880 N   0  0  0  0  0  0  0  0  0  0  0  0
   37.8300   27.6930   30.8840 C   0  0  0  0  0  0  0  0  0  0  0  0
   39.1350   27.4370   31.1420 N   0  0  0  0  0  0  0  0  0  0  0  0
   40.5770   27.0130   32.5440 H   0  0  0  0  0  0  0  0  0  0  0  0
   36.4720   27.5490   33.8710 H   0  0  0  0  0  0  0  0  0  0  0  0
   37.4940   27.8790   29.8650 H   0  0  0  0  0  0  0  0  0  0  0  0
   39.1010   22.7760   35.3590 C   0  0  0  0  0  2  0  0  0  0  0  0
   38.6480   22.5480   33.9950 C   0  0  0  0  0  0  0  0  0  0  0  0
   37.4930   21.8800   33.9430 C   0  0  0  0  0  0  0  0  0  0  0  0
   36.7800   21.4730   32.8030 N   0  0  0  0  0  0  0  0  0  0  0  0
   35.7430   20.7560   32.1210 C   0  0  2  0  0  0  0  0  0  0  0  0
   34.6070   20.3420   32.4630 O   0  0  0  0  0  1  0  0  0  0  0  0
   36.5320   20.6910   30.8550 C   0  0  0  0  0  3  0  0  0  0  0  0
   35.9750   20.9290   29.9360 H   0  0  0  0  0  0  0  0  0  0  0  0
   37.1490   21.9090   31.4690 C   0  0  1  0  0  0  0  0  0  0  0  0
   38.9730   21.7950   31.4170 S   0  0  0  0  0  0  0  0  0  0  0  0
   39.3450   22.9670   32.7840 C   0  0  0  0  0  3  0  0  0  0  0  0
   38.9070   23.9390   32.4140 H   0  0  0  0  0  0  0  0  0  0  0  0
   36.8080   21.4560   35.1890 C   0  0  0  0  0  0  0  0  0  0  0  0
   35.7000   20.8210   35.2320 O   0  0  0  0  0  0  0  0  0  0  0  0
   36.4860   21.2400   36.4910 O   0  0  0  0  0  0  0  0  0  0  0  0
   36.4860   22.0240   37.1520 H   0  0  0  0  0  0  0  0  0  0  0  0
  1  6  1  0  0  0  0
  1  7  1  1  0  0  0
  1  2  1  0  0  0  0
  2  3  1  0  0  0  0
  2  9  1  0  0  0  0
  3 10  1  0  0  0  0
  4  3  1  0  0  0  0
  4 12  1  1  0  0  0
  5  6  1  0  0  0  0
  5 14  1  0  0  0  0
  5  4  1  0  0  0  0
  6 16  1  0  0  0  0
  8  2  1  0  0  0  0
 11  3  1  0  0  0  0
 13  5  1  0  0  0  0
 15  6  1  0  0  0  0
 17 23  1  0  0  0  0
 17 18  1  0  0  0  0
 18  1  1  0  0  0  0
 19 18  2  0  0  0  0
 19 24  1  0  0  0  0
 20 19  1  0  0  0  0
 21 22  1  0  0  0  0
 21 20  2  0  0  0  0
 22 17  2  0  0  0  0
 25 21  1  0  0  0  0
 26  4  1  0  0  0  0
 27 26  1  0  0  0  0
 28 27  2  0  0  0  0
 28 38  1  0  0  0  0
 29 28  1  0  0  0  0
 30 31  1  1  0  0  0
 30 29  1  0  0  0  0
 32 30  1  0  0  0  0
 33 32  1  0  0  0  0
 34 32  1  6  0  0  0
 34 30  1  0  0  0  0
 34 29  1  0  0  0  0
 35 34  1  0  0  0  0
 35 36  1  0  0  0  0
 36 27  1  0  0  0  0
 37 36  1  0  0  0  0
 38 39  2  0  0  0  0
 38 40  1  0  0  0  0
 40 41  1  0  0  0  0
M  END
>  <minimizedAffinity>
-5.63716793

$$$$

 OpenBabel03272506523D

 41 45  0  0  1  0  0  0  0  0999 V2000
   38.8010   26.7910   35.3830 C   0  0  1  0  0  0  0  0  0  0  0  0
   39.9060   27.1640   34.5040 C   0  0  0  0  0  0  0  0  0  0  0  0
   39.7280   26.9020   33.0260 C   0  0  0  0  0  0  0  0  0  0  0  0
   38.3900   27.1080   32.4900 C   0  0  2  0  0  0  0  0  0  0  0  0
   37.2350   26.7650   33.3850 C   0  0  0  0  0  0  0  0  0  0  0  0
   37.4540   27.1340   34.8070 C   0  0  0  0  0  0  0  0  0  0  0  0
   38.8590   27.4410   36.3150 H   0  0  0  0  0  0  0  0  0  0  0  0
   40.9020   26.8550   34.7740 H   0  0  0  0  0  0  0  0  0  0  0  0
   39.9630   28.3020   34.5430 H   0  0  0  0  0  0  0  0  0  0  0  0
   40.4920   27.5060   32.5160 H   0  0  0  0  0  0  0  0  0  0  0  0
   40.0160   25.8260   32.8860 H   0  0  0  0  0  0  0  0  0  0  0  0
   38.2680   28.2110   32.2630 H   0  0  0  0  0  0  0  0  0  0  0  0
   36.9630   25.6870   33.2570 H   0  0  0  0  0  0  0  0  0  0  0  0
   36.3460   27.3230   33.0280 H   0  0  0  0  0  0  0  0  0  0  0  0
   36.5970   26.8410   35.3950 H   0  0  0  0  0  0  0  0  0  0  0  0
   37.4240   28.2740   34.8230 H   0  0  0  0  0  0  0  0  0  0  0  0
   37.9500   24.9820   36.9550 C   0  0  0  0  0  0  0  0  0  0  0  0
   38.8520   25.4230   35.9530 C   0  0  0  0  0  0  0  0  0  0  0  0
   39.7950   24.5140   35.5110 C   0  0  0  0  0  0  0  0  0  0  0  0
   39.8290   23.2560   36.0380 N   0  0  0  0  0  0  0  0  0  0  0  0
   38.9420   22.8830   36.9980 C   0  0  0  0  0  0  0  0  0  0  0  0
   38.0060   23.7510   37.4510 N   0  0  0  0  0  0  0  0  0  0  0  0
   37.1880   25.6340   37.3480 H   0  0  0  0  0  0  0  0  0  0  0  0
   40.5470   24.6740   34.7600 H   0  0  0  0  0  0  0  0  0  0  0  0
   38.9980   21.8720   37.3970 H   0  0  0  0  0  0  0  0  0  0  0  0
   38.1600   26.3270   31.2240 C   0  0  0  0  0  2  0  0  0  0  0  0
   38.5430   24.9240   31.2210 C   0  0  0  0  0  0  0  0  0  0  0  0
   37.4990   24.1080   31.0560 C   0  0  0  0  0  0  0  0  0  0  0  0
   37.4960   22.7030   31.0230 N   0  0  0  0  0  0  0  0  0  0  0  0
   36.8640   21.4180   31.0100 C   0  0  2  0  0  0  0  0  0  0  0  0
   35.7380   21.0090   30.6290 O   0  0  0  0  0  1  0  0  0  0  0  0
   38.0540   20.7550   31.6220 C   0  0  0  0  0  3  0  0  0  0  0  0
   38.3600   19.8050   31.1570 H   0  0  0  0  0  0  0  0  0  0  0  0
   38.7250   21.9320   30.9880 C   0  0  1  0  0  0  0  0  0  0  0  0
   39.8370   22.7530   32.1860 S   0  0  0  0  0  0  0  0  0  0  0  0
   39.8970   24.4090   31.3900 C   0  0  0  0  0  3  0  0  0  0  0  0
   40.3470   24.1910   30.3780 H   0  0  0  0  0  0  0  0  0  0  0  0
   36.1300   24.6550   30.8950 C   0  0  0  0  0  0  0  0  0  0  0  0
   35.1170   24.3010   31.5900 O   0  0  0  0  0  0  0  0  0  0  0  0
   35.0490   25.3610   30.4720 O   0  0  0  0  0  0  0  0  0  0  0  0
   34.8190   25.3880   29.4730 H   0  0  0  0  0  0  0  0  0  0  0  0
  1 18  1  0  0  0  0
  1  7  1  1  0  0  0
  2  9  1  0  0  0  0
  2  8  1  0  0  0  0
  2  1  1  0  0  0  0
  3  2  1  0  0  0  0
  4 12  1  6  0  0  0
  4  3  1  0  0  0  0
  4  5  1  0  0  0  0
  5  6  1  0  0  0  0
  6 16  1  0  0  0  0
  6  1  1  0  0  0  0
  6 15  1  0  0  0  0
 10  3  1  0  0  0  0
 11  3  1  0  0  0  0
 13  5  1  0  0  0  0
 14  5  1  0  0  0  0
 17 23  1  0  0  0  0
 17 22  1  0  0  0  0
 18 17  2  0  0  0  0
 19 18  1  0  0  0  0
 19 20  2  0  0  0  0
 20 21  1  0  0  0  0
 21 25  1  0  0  0  0
 21 22  2  0  0  0  0
 24 19  1  0  0  0  0
 26  4  1  0  0  0  0
 27 26  1  0  0  0  0
 27 36  1  0  0  0  0
 28 27  2  0  0  0  0
 29 28  1  0  0  0  0
 30 31  1  6  0  0  0
 30 29  1  0  0  0  0
 30 32  1  0  0  0  0
 33 32  1  0  0  0  0
 34 30  1  0  0  0  0
 34 29  1  0  0  0  0
 34 32  1  6  0  0  0
 34 35  1  0  0  0  0
 36 35  1  0  0  0  0
 37 36  1  0  0  0  0
 38 28  1  0  0  0  0
 38 39  2  0  0  0  0
 40 38  1  0  0  0  0
 41 40  1  0  0  0  0
M  END
>  <minimizedAffinity>
-5.61879396

$$$$

 OpenBabel03272506523D

 41 45  0  0  1  0  0  0  0  0999 V2000
   36.6490   21.7980   31.6920 C   0  0  1  0  0  0  0  0  0  0  0  0
   35.7340   22.7990   31.1500 C   0  0  0  0  0  0  0  0  0  0  0  0
   36.2540   24.2130   31.0340 C   0  0  0  0  0  0  0  0  0  0  0  0
   37.6530   24.3590   30.6580 C   0  0  2  0  0  0  0  0  0  0  0  0
   38.6100   23.3240   31.1740 C   0  0  0  0  0  0  0  0  0  0  0  0
   38.0530   21.9460   31.1740 C   0  0  0  0  0  0  0  0  0  0  0  0
   36.3310   20.7800   31.2950 H   0  0  0  0  0  0  0  0  0  0  0  0
   34.7350   22.8480   31.5490 H   0  0  0  0  0  0  0  0  0  0  0  0
   35.5690   22.5110   30.0600 H   0  0  0  0  0  0  0  0  0  0  0  0
   35.5700   24.7330   30.3470 H   0  0  0  0  0  0  0  0  0  0  0  0
   36.1000   24.6630   32.0510 H   0  0  0  0  0  0  0  0  0  0  0  0
   37.7230   24.2880   29.5300 H   0  0  0  0  0  0  0  0  0  0  0  0
   38.9980   23.6310   32.1770 H   0  0  0  0  0  0  0  0  0  0  0  0
   39.5020   23.3230   30.5150 H   0  0  0  0  0  0  0  0  0  0  0  0
   38.7840   21.2590   31.5750 H   0  0  0  0  0  0  0  0  0  0  0  0
   37.9780   21.6590   30.0730 H   0  0  0  0  0  0  0  0  0  0  0  0
   37.5520   22.1540   34.0430 C   0  0  0  0  0  0  0  0  0  0  0  0
   36.5960   21.5900   33.1600 C   0  0  0  0  0  0  0  0  0  0  0  0
   35.5890   20.8300   33.7240 C   0  0  0  0  0  0  0  0  0  0  0  0
   35.5470   20.6510   35.0770 N   0  0  0  0  0  0  0  0  0  0  0  0
   36.4880   21.2120   35.8800 C   0  0  0  0  0  0  0  0  0  0  0  0
   37.4880   21.9620   35.3570 N   0  0  0  0  0  0  0  0  0  0  0  0
   38.3660   22.7580   33.6770 H   0  0  0  0  0  0  0  0  0  0  0  0
   34.7850   20.3360   33.2110 H   0  0  0  0  0  0  0  0  0  0  0  0
   36.4250   21.0480   36.9540 H   0  0  0  0  0  0  0  0  0  0  0  0
   38.2220   25.6820   31.0940 C   0  0  0  0  0  2  0  0  0  0  0  0
   37.5870   26.3480   32.2200 C   0  0  0  0  0  0  0  0  0  0  0  0
   37.0050   27.4980   31.8740 C   0  0  0  0  0  0  0  0  0  0  0  0
   36.3220   28.4060   32.7010 N   0  0  0  0  0  0  0  0  0  0  0  0
   35.6770   29.6530   32.9870 C   0  0  2  0  0  0  0  0  0  0  0  0
   35.0900   30.5080   32.2780 O   0  0  0  0  0  1  0  0  0  0  0  0
   35.9730   29.5450   34.4460 C   0  0  0  0  0  3  0  0  0  0  0  0
   35.1370   29.7880   35.1200 H   0  0  0  0  0  0  0  0  0  0  0  0
   35.9980   28.0940   34.0810 C   0  0  1  0  0  0  0  0  0  0  0  0
   37.4980   27.2930   34.7530 S   0  0  0  0  0  0  0  0  0  0  0  0
   37.5700   25.8660   33.5970 C   0  0  0  0  0  3  0  0  0  0  0  0
   36.5980   25.3260   33.7950 H   0  0  0  0  0  0  0  0  0  0  0  0
   37.0440   27.9730   30.4690 C   0  0  0  0  0  0  0  0  0  0  0  0
   37.8040   28.9030   30.0340 O   0  0  0  0  0  0  0  0  0  0  0  0
   36.8070   28.1370   29.1410 O   0  0  0  0  0  0  0  0  0  0  0  0
   35.8450   28.2630   28.8080 H   0  0  0  0  0  0  0  0  0  0  0  0
  1  7  1  6  0  0  0
  1 18  1  0  0  0  0
  2  8  1  0  0  0  0
  2  1  1  0  0  0  0
  3  2  1  0  0  0  0
  3 11  1  0  0  0  0
  4 12  1  6  0  0  0
  4  3  1  0  0  0  0
  4 26  1  0  0  0  0
  4  5  1  0  0  0  0
  5  6  1  0  0  0  0
  5 13  1  0  0  0  0
  6 15  1  0  0  0  0
  6  1  1  0  0  0  0
  9  2  1  0  0  0  0
 10  3  1  0  0  0  0
 14  5  1  0  0  0  0
 16  6  1  0  0  0  0
 17 22  1  0  0  0  0
 18 19  1  0  0  0  0
 18 17  2  0  0  0  0
 19 20  2  0  0  0  0
 20 21  1  0  0  0  0
 21 25  1  0  0  0  0
 22 21  2  0  0  0  0
 23 17  1  0  0  0  0
 24 19  1  0  0  0  0
 26 27  1  0  0  0  0
 27 36  1  0  0  0  0
 28 27  2  0  0  0  0
 28 29  1  0  0  0  0
 29 30  1  0  0  0  0
 29 34  1  0  0  0  0
 30 31  1  6  0  0  0
 30 34  1  0  0  0  0
 30 32  1  0  0  0  0
 32 33  1  0  0  0  0
 34 32  1  1  0  0  0
 34 35  1  0  0  0  0
 36 37  1  0  0  0  0
 36 35  1  0  0  0  0
 38 28  1  0  0  0  0
 39 38  2  0  0  0  0
 40 38  1  0  0  0  0
 41 40  1  0  0  0  0
M  END
>  <minimizedAffinity>
-5.58161449

$$$$

 OpenBabel03272506523D

 41 45  0  0  1  0  0  0  0  0999 V2000
   36.6940   28.0860   30.4550 C   0  0  1  0  0  0  0  0  0  0  0  0
   38.0940   28.0380   30.0390 C   0  0  0  0  0  0  0  0  0  0  0  0
   39.0950   27.5310   31.0510 C   0  0  0  0  0  0  0  0  0  0  0  0
   38.6490   26.4460   31.9130 C   0  0  2  0  0  0  0  0  0  0  0  0
   37.2070   26.4520   32.3290 C   0  0  0  0  0  0  0  0  0  0  0  0
   36.2790   26.8790   31.2500 C   0  0  0  0  0  0  0  0  0  0  0  0
   36.0470   28.0190   29.5220 H   0  0  0  0  0  0  0  0  0  0  0  0
   38.5170   28.9080   29.5660 H   0  0  0  0  0  0  0  0  0  0  0  0
   38.1480   27.2430   29.2240 H   0  0  0  0  0  0  0  0  0  0  0  0
   40.0020   27.2810   30.4820 H   0  0  0  0  0  0  0  0  0  0  0  0
   39.3430   28.4230   31.6850 H   0  0  0  0  0  0  0  0  0  0  0  0
   38.7900   25.4710   31.3530 H   0  0  0  0  0  0  0  0  0  0  0  0
   37.0840   27.0520   33.2650 H   0  0  0  0  0  0  0  0  0  0  0  0
   36.9290   25.4180   32.6180 H   0  0  0  0  0  0  0  0  0  0  0  0
   35.2650   26.8800   31.6220 H   0  0  0  0  0  0  0  0  0  0  0  0
   36.2950   26.0260   30.4930 H   0  0  0  0  0  0  0  0  0  0  0  0
   36.8410   30.6070   30.7610 C   0  0  0  0  0  0  0  0  0  0  0  0
   36.2360   29.3600   31.0610 C   0  0  0  0  0  0  0  0  0  0  0  0
   35.1780   29.3720   31.9510 C   0  0  0  0  0  0  0  0  0  0  0  0
   34.7610   30.5510   32.4980 N   0  0  0  0  0  0  0  0  0  0  0  0
   35.3760   31.7190   32.1780 C   0  0  0  0  0  0  0  0  0  0  0  0
   36.4150   31.7400   31.3090 N   0  0  0  0  0  0  0  0  0  0  0  0
   37.6700   30.6770   30.0760 H   0  0  0  0  0  0  0  0  0  0  0  0
   34.6040   28.5280   32.2860 H   0  0  0  0  0  0  0  0  0  0  0  0
   35.0170   32.6400   32.6340 H   0  0  0  0  0  0  0  0  0  0  0  0
   39.4340   26.3810   33.1950 C   0  0  0  0  0  2  0  0  0  0  0  0
   39.4020   25.1330   33.9400 C   0  0  0  0  0  0  0  0  0  0  0  0
   39.0090   25.3000   35.2050 C   0  0  0  0  0  0  0  0  0  0  0  0
   38.8830   24.3240   36.2080 N   0  0  0  0  0  0  0  0  0  0  0  0
   38.6770   23.8830   37.5560 C   0  0  2  0  0  0  0  0  0  0  0  0
   38.0860   24.3750   38.5490 O   0  0  0  0  0  1  0  0  0  0  0  0
   39.4350   22.6170   37.3250 C   0  0  0  0  0  3  0  0  0  0  0  0
   38.9660   21.7040   37.7210 H   0  0  0  0  0  0  0  0  0  0  0  0
   39.0030   22.9070   35.9210 C   0  0  1  0  0  0  0  0  0  0  0  0
   40.4230   22.7720   34.7770 S   0  0  0  0  0  0  0  0  0  0  0  0
   39.7620   23.8190   33.4180 C   0  0  0  0  0  3  0  0  0  0  0  0
   38.8270   23.2690   33.1030 H   0  0  0  0  0  0  0  0  0  0  0  0
   38.6570   26.6480   35.7160 C   0  0  0  0  0  0  0  0  0  0  0  0
   37.4870   27.1600   35.6800 O   0  0  0  0  0  0  0  0  0  0  0  0
   38.7120   27.8880   36.2690 O   0  0  0  0  0  0  0  0  0  0  0  0
   39.4160   28.5590   35.9440 H   0  0  0  0  0  0  0  0  0  0  0  0
  1  7  1  6  0  0  0
  1 18  1  0  0  0  0
  1  6  1  0  0  0  0
  2  1  1  0  0  0  0
  2  3  1  0  0  0  0
  3 11  1  0  0  0  0
  3  4  1  0  0  0  0
  4 12  1  6  0  0  0
  4  5  1  0  0  0  0
  4 26  1  0  0  0  0
  5 14  1  0  0  0  0
  5 13  1  0  0  0  0
  6 15  1  0  0  0  0
  6  5  1  0  0  0  0
  8  2  1  0  0  0  0
  9  2  1  0  0  0  0
 10  3  1  0  0  0  0
 16  6  1  0  0  0  0
 17 18  2  0  0  0  0
 17 22  1  0  0  0  0
 18 19  1  0  0  0  0
 19 24  1  0  0  0  0
 19 20  2  0  0  0  0
 21 20  1  0  0  0  0
 21 25  1  0  0  0  0
 22 21  2  0  0  0  0
 23 17  1  0  0  0  0
 26 27  1  0  0  0  0
 27 28  2  0  0  0  0
 28 38  1  0  0  0  0
 28 29  1  0  0  0  0
 29 30  1  0  0  0  0
 30 31  1  1  0  0  0
 32 30  1  0  0  0  0
 32 33  1  0  0  0  0
 34 35  1  1  0  0  0
 34 29  1  0  0  0  0
 34 32  1  0  0  0  0
 34 30  1  0  0  0  0
 36 27  1  0  0  0  0
 36 35  1  0  0  0  0
 37 36  1  0  0  0  0
 38 40  1  0  0  0  0
 39 38  2  0  0  0  0
 41 40  1  0  0  0  0
M  END
>  <minimizedAffinity>
-5.51230526

$$$$

 OpenBabel03272506523D

 41 45  0  0  1  0  0  0  0  0999 V2000
   37.9290   26.4860   33.0580 C   0  0  1  0  0  0  0  0  0  0  0  0
   37.3260   26.7580   34.3600 C   0  0  0  0  0  0  0  0  0  0  0  0
   36.6130   28.0800   34.5240 C   0  0  0  0  0  0  0  0  0  0  0  0
   35.8750   28.5650   33.3660 C   0  0  2  0  0  0  0  0  0  0  0  0
   36.4550   28.2700   32.0140 C   0  0  0  0  0  0  0  0  0  0  0  0
   37.0600   26.9160   31.9080 C   0  0  0  0  0  0  0  0  0  0  0  0
   37.9920   25.3570   32.9280 H   0  0  0  0  0  0  0  0  0  0  0  0
   37.9190   26.5930   35.2440 H   0  0  0  0  0  0  0  0  0  0  0  0
   36.4740   26.0080   34.4700 H   0  0  0  0  0  0  0  0  0  0  0  0
   35.9840   27.9770   35.4200 H   0  0  0  0  0  0  0  0  0  0  0  0
   37.4220   28.8160   34.7760 H   0  0  0  0  0  0  0  0  0  0  0  0
   34.8570   28.0680   33.3640 H   0  0  0  0  0  0  0  0  0  0  0  0
   37.1650   29.0820   31.7190 H   0  0  0  0  0  0  0  0  0  0  0  0
   35.6370   28.3280   31.2690 H   0  0  0  0  0  0  0  0  0  0  0  0
   37.4740   26.7790   30.9210 H   0  0  0  0  0  0  0  0  0  0  0  0
   36.1760   26.1960   31.9400 H   0  0  0  0  0  0  0  0  0  0  0  0
   40.2320   27.0240   33.9930 C   0  0  0  0  0  0  0  0  0  0  0  0
   39.3440   26.8970   32.8940 C   0  0  0  0  0  0  0  0  0  0  0  0
   39.8540   27.1700   31.6390 C   0  0  0  0  0  0  0  0  0  0  0  0
   41.1600   27.5420   31.4990 N   0  0  0  0  0  0  0  0  0  0  0  0
   41.9700   27.6490   32.5860 C   0  0  0  0  0  0  0  0  0  0  0  0
   41.4990   27.3890   33.8290 N   0  0  0  0  0  0  0  0  0  0  0  0
   39.9070   26.8280   35.0020 H   0  0  0  0  0  0  0  0  0  0  0  0
   39.3310   27.1210   30.7020 H   0  0  0  0  0  0  0  0  0  0  0  0
   43.0050   27.9490   32.4380 H   0  0  0  0  0  0  0  0  0  0  0  0
   35.6820   30.0570   33.4010 C   0  0  0  0  0  2  0  0  0  0  0  0
   35.1570   30.6380   34.6260 C   0  0  0  0  0  0  0  0  0  0  0  0
   33.8230   30.6370   34.6650 C   0  0  0  0  0  0  0  0  0  0  0  0
   32.9860   31.1350   35.6780 N   0  0  0  0  0  0  0  0  0  0  0  0
   31.7190   31.5110   36.2320 C   0  0  2  0  0  0  0  0  0  0  0  0
   30.5360   31.1480   36.0150 O   0  0  0  0  0  1  0  0  0  0  0  0
   32.3460   32.4970   37.1620 C   0  0  0  0  0  3  0  0  0  0  0  0
   31.9770   32.4740   38.1980 H   0  0  0  0  0  0  0  0  0  0  0  0
   33.5080   31.5750   36.9590 C   0  0  1  0  0  0  0  0  0  0  0  0
   35.0160   32.5280   36.5570 S   0  0  0  0  0  0  0  0  0  0  0  0
   35.9540   31.1880   35.7180 C   0  0  0  0  0  3  0  0  0  0  0  0
   36.0700   30.4100   36.5290 H   0  0  0  0  0  0  0  0  0  0  0  0
   33.0340   30.0820   33.5380 C   0  0  0  0  0  0  0  0  0  0  0  0
   32.2630   29.0660   33.6180 O   0  0  0  0  0  0  0  0  0  0  0  0
   32.4810   29.8630   32.3160 O   0  0  0  0  0  0  0  0  0  0  0  0
   33.0850   29.8020   31.4890 H   0  0  0  0  0  0  0  0  0  0  0  0
  1  7  1  6  0  0  0
  1  2  1  0  0  0  0
  2  9  1  0  0  0  0
  2  3  1  0  0  0  0
  2  8  1  0  0  0  0
  3 11  1  0  0  0  0
  3 10  1  0  0  0  0
  4 12  1  1  0  0  0
  4 26  1  0  0  0  0
  4  3  1  0  0  0  0
  5  4  1  0  0  0  0
  6 16  1  0  0  0  0
  6  5  1  0  0  0  0
  6  1  1  0  0  0  0
 13  5  1  0  0  0  0
 14  5  1  0  0  0  0
 15  6  1  0  0  0  0
 17 23  1  0  0  0  0
 18  1  1  0  0  0  0
 18 17  2  0  0  0  0
 19 18  1  0  0  0  0
 20 19  2  0  0  0  0
 20 21  1  0  0  0  0
 21 22  2  0  0  0  0
 22 17  1  0  0  0  0
 24 19  1  0  0  0  0
 25 21  1  0  0  0  0
 26 27  1  0  0  0  0
 27 28  2  0  0  0  0
 27 36  1  0  0  0  0
 28 29  1  0  0  0  0
 29 30  1  0  0  0  0
 29 34  1  0  0  0  0
 30 31  1  1  0  0  0
 30 34  1  0  0  0  0
 30 32  1  0  0  0  0
 32 33  1  0  0  0  0
 34 35  1  6  0  0  0
 34 32  1  0  0  0  0
 36 37  1  0  0  0  0
 36 35  1  0  0  0  0
 38 39  2  0  0  0  0
 38 28  1  0  0  0  0
 40 38  1  0  0  0  0
 41 40  1  0  0  0  0
M  END
>  <minimizedAffinity>
-5.49965811

$$$$

 OpenBabel03272506523D

 41 45  0  0  1  0  0  0  0  0999 V2000
   38.5210   26.4000   35.4500 C   0  0  1  0  0  0  0  0  0  0  0  0
   39.8770   26.7590   35.0420 C   0  0  0  0  0  0  0  0  0  0  0  0
   40.1420   26.8630   33.5580 C   0  0  0  0  0  0  0  0  0  0  0  0
   39.0650   27.4110   32.7450 C   0  0  2  0  0  0  0  0  0  0  0  0
   37.6610   27.0850   33.1630 C   0  0  0  0  0  0  0  0  0  0  0  0
   37.4620   27.0890   34.6350 C   0  0  0  0  0  0  0  0  0  0  0  0
   38.3500   26.8080   36.4990 H   0  0  0  0  0  0  0  0  0  0  0  0
   40.7020   26.2310   35.4870 H   0  0  0  0  0  0  0  0  0  0  0  0
   40.0310   27.8330   35.3920 H   0  0  0  0  0  0  0  0  0  0  0  0
   41.0830   27.4230   33.4560 H   0  0  0  0  0  0  0  0  0  0  0  0
   40.3510   25.8110   33.2270 H   0  0  0  0  0  0  0  0  0  0  0  0
   39.1310   28.5410   32.7900 H   0  0  0  0  0  0  0  0  0  0  0  0
   37.3360   26.1260   32.6870 H   0  0  0  0  0  0  0  0  0  0  0  0
   36.9880   27.8540   32.7330 H   0  0  0  0  0  0  0  0  0  0  0  0
   36.4390   26.8280   34.8640 H   0  0  0  0  0  0  0  0  0  0  0  0
   37.5420   28.1850   34.9400 H   0  0  0  0  0  0  0  0  0  0  0  0
   38.4830   24.0010   34.6050 C   0  0  0  0  0  0  0  0  0  0  0  0
   38.2550   24.9520   35.6330 C   0  0  0  0  0  0  0  0  0  0  0  0
   37.7730   24.4740   36.8370 C   0  0  0  0  0  0  0  0  0  0  0  0
   37.5380   23.1390   36.9960 N   0  0  0  0  0  0  0  0  0  0  0  0
   37.7730   22.2680   35.9790 C   0  0  0  0  0  0  0  0  0  0  0  0
   38.2450   22.7060   34.7870 N   0  0  0  0  0  0  0  0  0  0  0  0
   38.8580   24.2980   33.6400 H   0  0  0  0  0  0  0  0  0  0  0  0
   37.5500   25.0460   37.7180 H   0  0  0  0  0  0  0  0  0  0  0  0
   37.5730   21.2110   36.1400 H   0  0  0  0  0  0  0  0  0  0  0  0
   39.1650   26.9800   31.3070 C   0  0  0  0  0  2  0  0  0  0  0  0
   39.8260   27.8840   30.3790 C   0  0  0  0  0  0  0  0  0  0  0  0
   38.9640   28.5240   29.5850 C   0  0  0  0  0  0  0  0  0  0  0  0
   39.2500   29.4480   28.5650 N   0  0  0  0  0  0  0  0  0  0  0  0
   38.9100   30.2760   27.4460 C   0  0  2  0  0  0  0  0  0  0  0  0
   37.8440   30.8190   27.0610 O   0  0  0  0  0  1  0  0  0  0  0  0
   40.3050   30.2410   26.9150 C   0  0  0  0  0  3  0  0  0  0  0  0
   40.7110   31.2090   26.5840 H   0  0  0  0  0  0  0  0  0  0  0  0
   40.5850   29.9810   28.3620 C   0  0  1  0  0  0  0  0  0  0  0  0
   41.7030   28.5460   28.5470 S   0  0  0  0  0  0  0  0  0  0  0  0
   41.2650   28.0970   30.2760 C   0  0  0  0  0  3  0  0  0  0  0  0
   41.5530   29.0190   30.8610 H   0  0  0  0  0  0  0  0  0  0  0  0
   37.5050   28.2840   29.7020 C   0  0  0  0  0  0  0  0  0  0  0  0
   36.6460   29.1630   30.0520 O   0  0  0  0  0  0  0  0  0  0  0  0
   36.2740   27.7090   29.7000 O   0  0  0  0  0  0  0  0  0  0  0  0
   36.1240   26.8280   30.2030 H   0  0  0  0  0  0  0  0  0  0  0  0
  1 18  1  0  0  0  0
  1  7  1  1  0  0  0
  2  9  1  0  0  0  0
  2  1  1  0  0  0  0
  2  8  1  0  0  0  0
  3  2  1  0  0  0  0
  4 12  1  1  0  0  0
  4  5  1  0  0  0  0
  4  3  1  0  0  0  0
  5  6  1  0  0  0  0
  6 15  1  0  0  0  0
  6 16  1  0  0  0  0
  6  1  1  0  0  0  0
 10  3  1  0  0  0  0
 11  3  1  0  0  0  0
 13  5  1  0  0  0  0
 14  5  1  0  0  0  0
 17 22  2  0  0  0  0
 17 18  1  0  0  0  0
 18 19  2  0  0  0  0
 19 20  1  0  0  0  0
 19 24  1  0  0  0  0
 21 25  1  0  0  0  0
 21 20  2  0  0  0  0
 22 21  1  0  0  0  0
 23 17  1  0  0  0  0
 26  4  1  0  0  0  0
 27 26  1  0  0  0  0
 28 38  1  0  0  0  0
 28 27  2  0  0  0  0
 29 28  1  0  0  0  0
 30 31  1  1  0  0  0
 30 34  1  0  0  0  0
 30 29  1  0  0  0  0
 32 30  1  0  0  0  0
 33 32  1  0  0  0  0
 34 32  1  1  0  0  0
 34 35  1  0  0  0  0
 34 29  1  0  0  0  0
 35 36  1  0  0  0  0
 36 27  1  0  0  0  0
 36 37  1  0  0  0  0
 38 39  2  0  0  0  0
 40 38  1  0  0  0  0
 40 41  1  0  0  0  0
M  END
>  <minimizedAffinity>
-5.44578505

$$$$
