
 OpenBabel03272507323D

 43 48  0  0  1  0  0  0  0  0999 V2000
   33.1290   27.1530   47.2560 C   0  0  1  0  0  0  0  0  0  0  0  0
   33.7370   25.7230   47.5440 C   0  0  0  0  0  0  0  0  0  0  0  0
   32.4070   25.9220   46.9230 C   0  0  2  0  0  0  0  0  0  0  0  0
   33.8660   27.6970   46.6280 H   0  0  0  0  0  0  0  0  0  0  0  0
   33.7730   25.3880   48.5750 H   0  0  0  0  0  0  0  0  0  0  0  0
   34.5680   25.4050   46.9020 H   0  0  0  0  0  0  0  0  0  0  0  0
   31.4940   25.7660   47.5560 H   0  0  0  0  0  0  0  0  0  0  0  0
   32.8470   27.8450   48.5590 C   0  0  0  0  0  0  0  0  0  0  0  0
   31.6940   27.8030   49.0990 O   0  0  0  0  0  0  0  0  0  0  0  0
   35.8940   29.2890   49.7570 C   0  0  0  0  0  0  0  0  0  0  0  0
   35.0100   29.9160   50.6170 C   0  0  0  0  0  0  0  0  0  0  0  0
   33.7210   29.4660   50.2930 C   0  0  0  0  0  0  0  0  0  0  0  0
   33.9030   28.5860   49.2480 C   0  0  0  0  0  0  0  0  0  0  0  0
   35.1880   28.5180   48.9720 O   0  0  0  0  0  0  0  0  0  0  0  0
   35.1310   30.6360   51.4340 H   0  0  0  0  0  0  0  0  0  0  0  0
   32.7840   29.7490   50.7640 H   0  0  0  0  0  0  0  0  0  0  0  0
   37.3230   29.5270   49.8170 C   0  0  0  0  0  0  0  0  0  0  0  0
   38.0230   28.8340   50.5700 O   0  0  0  0  0  0  0  0  0  0  0  0
   37.8460   30.5720   48.9810 C   0  0  0  0  0  0  0  0  0  0  0  0
   38.1960   31.7600   49.6010 C   0  0  0  0  0  0  0  0  0  0  0  0
   38.7040   32.7970   48.8140 C   0  0  0  0  0  0  0  0  0  0  0  0
   38.8310   32.5840   47.4600 N   0  0  0  0  0  0  0  0  0  0  0  0
   38.4820   31.4210   46.8990 C   0  0  0  0  0  0  0  0  0  0  0  0
   37.9940   30.4220   47.6430 N   0  0  0  0  0  0  0  0  0  0  0  0
   38.0940   31.9210   50.6610 H   0  0  0  0  0  0  0  0  0  0  0  0
   38.9880   33.7450   49.2780 H   0  0  0  0  0  0  0  0  0  0  0  0
   38.5940   31.2840   45.8270 H   0  0  0  0  0  0  0  0  0  0  0  0
   32.2680   25.4190   45.5180 C   0  0  0  0  0  2  0  0  0  0  0  0
   31.0260   24.6830   45.2670 C   0  0  0  0  0  0  0  0  0  0  0  0
   30.0230   25.0720   44.4960 C   0  0  0  0  0  0  0  0  0  0  0  0
   28.8610   24.2660   44.3440 N   0  0  0  0  0  0  0  0  0  0  0  0
   27.6070   24.0990   43.6990 C   0  0  1  0  0  0  0  0  0  0  0  0
   26.6820   24.8440   43.2540 O   0  0  0  0  0  1  0  0  0  0  0  0
   27.8070   22.6330   43.7470 C   0  0  0  0  0  3  0  0  0  0  0  0
   28.4220   22.1880   42.9550 H   0  0  0  0  0  0  0  0  0  0  0  0
   28.5480   23.0330   45.0050 C   0  0  1  0  0  0  0  0  0  0  0  0
   30.0440   22.1060   45.3350 S   0  0  0  0  0  0  0  0  0  0  0  0
   31.0670   23.4260   46.0280 C   0  0  0  0  0  3  0  0  0  0  0  0
   30.7020   23.6000   47.0760 H   0  0  0  0  0  0  0  0  0  0  0  0
   30.0420   26.3580   43.7630 C   0  0  0  0  0  0  0  0  0  0  0  0
   30.9040   26.9380   43.0990 O   0  0  0  0  0  0  0  0  0  0  0  0
   28.9600   27.2000   43.7130 O   0  0  0  0  0  0  0  0  0  0  0  0
   28.6630   27.6480   42.8770 H   0  0  0  0  0  0  0  0  0  0  0  0
  1  4  1  6  0  0  0
  1  2  1  0  0  0  0
  1  8  1  0  0  0  0
  2  5  1  0  0  0  0
  3  1  1  0  0  0  0
  3  2  1  0  0  0  0
  3  7  1  1  0  0  0
  6  2  1  0  0  0  0
  8  9  2  0  0  0  0
  8 13  1  0  0  0  0
 10 17  1  0  0  0  0
 10 11  2  0  0  0  0
 11 15  1  0  0  0  0
 12 11  1  0  0  0  0
 12 16  1  0  0  0  0
 13 12  2  0  0  0  0
 14 13  1  0  0  0  0
 14 10  1  0  0  0  0
 17 18  2  0  0  0  0
 19 20  1  0  0  0  0
 19 17  1  0  0  0  0
 20 25  1  0  0  0  0
 21 26  1  0  0  0  0
 21 20  2  0  0  0  0
 22 21  1  0  0  0  0
 23 22  2  0  0  0  0
 23 24  1  0  0  0  0
 24 19  2  0  0  0  0
 27 23  1  0  0  0  0
 28  3  1  0  0  0  0
 29 28  1  0  0  0  0
 29 38  1  0  0  0  0
 30 29  2  0  0  0  0
 31 30  1  0  0  0  0
 31 36  1  0  0  0  0
 32 33  1  1  0  0  0
 32 34  1  0  0  0  0
 32 31  1  0  0  0  0
 32 36  1  0  0  0  0
 35 34  1  0  0  0  0
 36 34  1  6  0  0  0
 36 37  1  0  0  0  0
 37 38  1  0  0  0  0
 38 39  1  0  0  0  0
 40 30  1  0  0  0  0
 41 40  2  0  0  0  0
 42 40  1  0  0  0  0
 43 42  1  0  0  0  0
M  END
>  <minimizedAffinity>
-5.21777534

>  <minimizedRMSD>
1.70756817

$$$$
