REMARK  Name = 
REMARK  8 active torsions:
REMARK  status: ('A' for Active; 'I' for Inactive)
REMARK    1  A    between atoms: C_1  and  C_6
REMARK    2  A    between atoms: C_4  and  C_14
REMARK    3  A    between atoms: C_6  and  C_8
REMARK    4  A    between atoms: C_14  and  C_16
REMARK    5  A    between atoms: C_18  and  C_28
REMARK    6  A    between atoms: C_28  and  C_29
REMARK    7  A    between atoms: C_30  and  C_31
REMARK    8  A    between atoms: C_31  and  O_33
REMARK                            x       y       z     vdW  Elec       q    Type
REMARK                         _______ _______ _______ _____ _____    ______ ____
ROOT
ATOM      1  C   UNL     1      33.568  26.805  46.986  0.00  0.00    +0.000 C 
ATOM      2  C   UNL     1      33.790  25.273  47.300  0.00  0.00    +0.000 C 
ATOM      3  C   UNL     1      32.752  25.760  46.362  0.00  0.00    +0.000 C 
ATOM      4  H   UNL     1      34.541  27.207  46.632  0.00  0.00    +0.000 HD
ATOM      5  H   UNL     1      33.469  24.904  48.268  0.00  0.00    +0.000 HD
ATOM      6  H   UNL     1      34.693  24.812  46.881  0.00  0.00    +0.000 HD
ATOM      7  H   UNL     1      31.685  25.774  46.708  0.00  0.00    +0.000 HD
ENDROOT
BRANCH   1   8
ATOM      8  C   UNL     1      33.064  27.498  48.220  0.00  0.00    +0.000 C 
ATOM      9  O   UNL     1      31.846  27.407  48.583  0.00  0.00    +0.000 OA
BRANCH   8  13
ATOM     10  C   UNL     1      35.827  29.136  49.796  0.00  0.00    +0.000 A 
ATOM     11  C   UNL     1      34.803  29.661  50.565  0.00  0.00    +0.000 A 
ATOM     12  C   UNL     1      33.600  29.122  50.083  0.00  0.00    +0.000 A 
ATOM     13  C   UNL     1      33.971  28.296  49.044  0.00  0.00    +0.000 A 
ATOM     14  O   UNL     1      35.280  28.339  48.916  0.00  0.00    +0.000 OA
ATOM     15  H   UNL     1      34.771  30.360  51.408  0.00  0.00    +0.000 HD
ATOM     16  H   UNL     1      32.596  29.314  50.450  0.00  0.00    +0.000 HD
BRANCH  10  17
ATOM     17  C   UNL     1      37.215  29.484  50.026  0.00  0.00    +0.000 C 
ATOM     18  O   UNL     1      37.858  28.877  50.895  0.00  0.00    +0.000 OA
BRANCH  17  19
ATOM     19  C   UNL     1      37.768  30.533  49.214  0.00  0.00    +0.000 A 
ATOM     20  C   UNL     1      38.111  31.712  49.854  0.00  0.00    +0.000 A 
ATOM     21  C   UNL     1      38.648  32.752  49.090  0.00  0.00    +0.000 A 
ATOM     22  N   UNL     1      38.809  32.550  47.738  0.00  0.00    +0.000 NA
ATOM     23  C   UNL     1      38.465  31.395  47.157  0.00  0.00    +0.000 A 
ATOM     24  N   UNL     1      37.950  30.393  47.879  0.00  0.00    +0.000 NA
ATOM     25  H   UNL     1      37.983  31.864  50.912  0.00  0.00    +0.000 HD
ATOM     26  H   UNL     1      38.927  33.693  49.569  0.00  0.00    +0.000 HD
ATOM     27  H   UNL     1      38.604  31.267  46.087  0.00  0.00    +0.000 HD
ENDBRANCH  17  19
ENDBRANCH  10  17
ENDBRANCH   8  13
ENDBRANCH   1   8
BRANCH   3  28
ATOM     28  C   UNL     1      32.925  25.342  44.933  0.00  0.00    +0.000 C 
BRANCH  28  29
ATOM     29  C   UNL     1      34.322  25.157  44.530  0.00  0.00    +0.000 C 
ATOM     30  C   UNL     1      34.869  24.039  44.081  0.00  0.00    +0.000 C 
ATOM     31  N   UNL     1      36.247  23.986  43.731  0.00  0.00    +0.000 N 
ATOM     32  C   UNL     1      37.308  23.208  43.198  0.00  0.00    +0.000 C 
ATOM     33  O   UNL     1      37.651  21.988  43.181  0.00  0.00    +0.000 OA
ATOM     34  C   UNL     1      37.896  24.446  42.636  0.00  0.00    +0.000 C 
ATOM     35  H   UNL     1      37.496  24.795  41.676  0.00  0.00    +0.000 HD
ATOM     36  C   UNL     1      37.233  25.017  43.870  0.00  0.00    +0.000 C 
ATOM     37  S   UNL     1      36.484  26.629  43.654  0.00  0.00    +0.000 S 
ATOM     38  C   UNL     1      35.033  26.430  44.716  0.00  0.00    +0.000 C 
ATOM     39  H   UNL     1      35.396  26.515  45.776  0.00  0.00    +0.000 HD
BRANCH  30  40
ATOM     40  C   UNL     1      34.094  22.785  43.926  0.00  0.00    +0.000 C 
ATOM     41  O   UNL     1      32.918  22.489  44.144  0.00  0.00    +0.000 OA
BRANCH  40  42
ATOM     42  O   UNL     1      34.650  21.623  43.456  0.00  0.00    +0.000 OA
ATOM     43  H   UNL     1      34.198  21.040  42.790  0.00  0.00    +0.000 HD
ENDBRANCH  40  42
ENDBRANCH  30  40
ENDBRANCH  28  29
ENDBRANCH   3  28
TORSDOF 8
