
 OpenBabel03272507093D

 34 37  0  0  1  0  0  0  0  0999 V2000
   35.7790   29.1010   49.7880 C   0  0  0  0  0  0  0  0  0  0  0  0
   34.7800   29.6330   50.5680 C   0  0  0  0  0  0  0  0  0  0  0  0
   33.5790   29.0810   50.0860 C   0  0  0  0  0  0  0  0  0  0  0  0
   33.9370   28.2480   49.0420 C   0  0  0  0  0  0  0  0  0  0  0  0
   35.2340   28.3030   48.9180 O   0  0  0  0  0  0  0  0  0  0  0  0
   34.8780   30.3420   51.3980 H   0  0  0  0  0  0  0  0  0  0  0  0
   32.5770   29.2880   50.4790 H   0  0  0  0  0  0  0  0  0  0  0  0
   37.1710   29.4500   49.9990 C   0  0  0  0  0  0  0  0  0  0  0  0
   37.8290   28.8350   50.8700 O   0  0  0  0  0  0  0  0  0  0  0  0
   37.7310   30.5040   49.1840 C   0  0  0  0  0  0  0  0  0  0  0  0
   38.0830   31.6880   49.8160 C   0  0  0  0  0  0  0  0  0  0  0  0
   38.6230   32.7200   49.0620 C   0  0  0  0  0  0  0  0  0  0  0  0
   38.7830   32.5130   47.7200 N   0  0  0  0  0  0  0  0  0  0  0  0
   38.4340   31.3530   47.1240 C   0  0  0  0  0  0  0  0  0  0  0  0
   37.9140   30.3610   47.8490 N   0  0  0  0  0  0  0  0  0  0  0  0
   37.9590   31.8570   50.8730 H   0  0  0  0  0  0  0  0  0  0  0  0
   38.9070   33.6550   49.5270 H   0  0  0  0  0  0  0  0  0  0  0  0
   38.5840   31.2390   46.0410 H   0  0  0  0  0  0  0  0  0  0  0  0
   32.9100   27.4800   48.2780 C   0  0  0  0  0  2  0  0  0  0  0  0
   33.2330   27.6370   46.8490 C   0  0  0  0  0  0  0  0  0  0  0  0
   33.7340   26.6900   46.0890 C   0  0  0  0  0  0  0  0  0  0  0  0
   33.9890   26.9700   44.7270 N   0  0  0  0  0  0  0  0  0  0  0  0
   34.8840   26.8190   43.6060 C   0  0  0  0  0  0  0  0  0  0  0  0
   35.9120   26.1200   43.3190 O   0  0  0  0  0  0  0  0  0  0  0  0
   34.1730   27.8290   42.8010 C   0  0  0  0  0  3  0  0  0  0  0  0
   33.8840   27.5020   41.7760 H   0  0  0  0  0  0  0  0  0  0  0  0
   33.1100   27.7330   43.8440 C   0  0  2  0  0  3  0  0  0  0  0  0
   32.8300   29.3170   44.7030 S   0  0  0  0  0  0  0  0  0  0  0  0
   32.8960   29.0320   46.4930 C   0  0  0  0  0  3  0  0  0  0  0  0
   31.8710   29.3320   46.8640 H   0  0  0  0  0  0  0  0  0  0  0  0
   34.0400   25.3310   46.5860 C   0  0  0  0  0  0  0  0  0  0  0  0
   33.5910   24.5960   47.4820 O   0  0  0  0  0  0  0  0  0  0  0  0
   35.0230   24.5340   46.0550 O   0  0  0  0  0  0  0  0  0  0  0  0
   35.7260   24.0960   46.6350 H   0  0  0  0  0  0  0  0  0  0  0  0
  1  8  1  0  0  0  0
  1  2  2  0  0  0  0
  2  6  1  0  0  0  0
  3  7  1  0  0  0  0
  3  2  1  0  0  0  0
  4  3  2  0  0  0  0
  5  4  1  0  0  0  0
  5  1  1  0  0  0  0
  8  9  2  0  0  0  0
 10 11  1  0  0  0  0
 10  8  1  0  0  0  0
 11 16  1  0  0  0  0
 12 17  1  0  0  0  0
 12 11  2  0  0  0  0
 13 12  1  0  0  0  0
 14 13  2  0  0  0  0
 14 15  1  0  0  0  0
 15 10  2  0  0  0  0
 18 14  1  0  0  0  0
 19  4  1  0  0  0  0
 20 19  1  0  0  0  0
 21 31  1  0  0  0  0
 21 20  2  0  0  0  0
 22 21  1  0  0  0  0
 23 22  1  0  0  0  0
 24 23  2  0  0  0  0
 25 23  1  0  0  0  0
 26 25  1  0  0  0  0
 27 25  1  6  0  0  0
 27 28  1  0  0  0  0
 27 22  1  0  0  0  0
 28 29  1  0  0  0  0
 29 20  1  0  0  0  0
 29 30  1  0  0  0  0
 31 32  2  0  0  0  0
 33 31  1  0  0  0  0
 33 34  1  0  0  0  0
M  END
>  <minimizedAffinity>
-5.15699196

>  <minimizedRMSD>
1.05599725

$$$$
