
 OpenBabel03272509533D

 50 54  0  0  1  0  0  0  0  0999 V2000
   33.5180   27.5920   47.8010 C   0  0  0  0  0  0  0  0  0  0  0  0
   33.3590   26.8170   48.5880 H   0  0  0  0  0  0  0  0  0  0  0  0
   33.9440   27.0460   46.9240 H   0  0  0  0  0  0  0  0  0  0  0  0
   32.2160   28.1360   47.3620 C   0  0  0  0  0  0  0  0  0  0  0  0
   31.0680   27.7670   48.0600 C   0  0  0  0  0  0  0  0  0  0  0  0
   29.8210   28.2090   47.7400 C   0  0  0  0  0  0  0  0  0  0  0  0
   29.6920   29.0370   46.7100 N   0  0  0  0  0  0  0  0  0  0  0  0
   30.8070   29.4090   46.0140 C   0  0  0  0  0  0  0  0  0  0  0  0
   32.0620   28.9780   46.3190 N   0  0  0  0  0  0  0  0  0  0  0  0
   31.1650   27.0890   48.9050 H   0  0  0  0  0  0  0  0  0  0  0  0
   28.9630   27.8900   48.3150 H   0  0  0  0  0  0  0  0  0  0  0  0
   30.6600   30.3490   44.8460 C   0  0  0  0  0  2  0  0  0  0  0  0
   31.9090   30.5690   44.1160 C   0  0  0  0  0  0  0  0  0  0  0  0
   32.3780   31.7870   43.9100 C   0  0  0  0  0  0  0  0  0  0  0  0
   33.5880   31.9870   43.2020 N   0  0  0  0  0  0  0  0  0  0  0  0
   34.2790   32.7730   42.2460 C   0  0  0  0  0  0  0  0  0  0  0  0
   34.1570   33.8270   41.5980 O   0  0  0  0  0  0  0  0  0  0  0  0
   35.3960   31.8000   42.2360 C   0  0  0  0  0  3  0  0  0  0  0  0
   36.3480   32.3080   42.4400 H   0  0  0  0  0  0  0  0  0  0  0  0
   34.7430   31.0950   43.4070 C   0  0  2  0  0  3  0  0  0  0  0  0
   34.1840   29.4330   43.0510 S   0  0  0  0  0  0  0  0  0  0  0  0
   32.4970   29.2860   43.6830 C   0  0  0  0  0  3  0  0  0  0  0  0
   31.8740   28.7650   42.9260 H   0  0  0  0  0  0  0  0  0  0  0  0
   31.6680   32.9580   44.4030 C   0  0  0  0  0  0  0  0  0  0  0  0
   32.1280   34.1220   44.3650 O   0  0  0  0  0  0  0  0  0  0  0  0
   30.7320   33.7880   44.9480 O   0  0  0  0  0  0  0  0  0  0  0  0
   30.2340   33.4970   45.8000 H   0  0  0  0  0  0  0  0  0  0  0  0
   34.4870   28.6620   48.2010 C   0  0  0  0  0  0  0  0  0  0  0  0
   35.3800   28.6650   47.5390 H   0  0  0  0  0  0  0  0  0  0  0  0
   34.0480   29.6780   48.1240 H   0  0  0  0  0  0  0  0  0  0  0  0
   34.9790   28.4210   49.5180 O   0  0  0  0  0  0  0  0  0  0  0  0
   37.3800   30.1820   51.5450 C   0  0  0  0  0  0  0  0  0  0  0  0
   38.1080   30.8740   50.5420 C   0  0  0  0  0  0  0  0  0  0  0  0
   37.7180   30.6840   49.2350 C   0  0  0  0  0  0  0  0  0  0  0  0
   36.6540   29.8370   49.0190 N   0  0  0  0  0  0  0  0  0  0  0  0
   35.9880   29.1980   49.9900 C   0  0  0  0  0  0  0  0  0  0  0  0
   36.3680   29.3830   51.2610 N   0  0  0  0  0  0  0  0  0  0  0  0
   37.7520   30.3870   52.5350 H   0  0  0  0  0  0  0  0  0  0  0  0
   38.9320   31.5310   50.6930 H   0  0  0  0  0  0  0  0  0  0  0  0
   38.9740   33.2830   49.0380 F   0  0  0  0  0  0  0  0  0  0  0  0
   38.9200   32.5080   47.9640 C   0  0  0  0  0  0  0  0  0  0  0  0
   38.3260   31.2950   48.0790 C   0  0  0  0  0  0  0  0  0  0  0  0
   38.3250   30.5630   46.8860 C   0  0  0  0  0  0  0  0  0  0  0  0
   38.8710   31.0290   45.7170 C   0  0  0  0  0  0  0  0  0  0  0  0
   39.4610   32.2700   45.6570 C   0  0  0  0  0  0  0  0  0  0  0  0
   39.4790   33.0120   46.8090 C   0  0  0  0  0  0  0  0  0  0  0  0
   37.8790   29.5650   46.8330 H   0  0  0  0  0  0  0  0  0  0  0  0
   38.8620   30.4500   44.8030 H   0  0  0  0  0  0  0  0  0  0  0  0
   39.8910   32.6430   44.7480 H   0  0  0  0  0  0  0  0  0  0  0  0
   39.9370   33.9900   46.7880 H   0  0  0  0  0  0  0  0  0  0  0  0
  1 28  1  0  0  0  0
  1  2  1  0  0  0  0
  3  1  1  0  0  0  0
  4  1  1  0  0  0  0
  4  5  1  0  0  0  0
  5 10  1  0  0  0  0
  6  5  2  0  0  0  0
  6 11  1  0  0  0  0
  7  6  1  0  0  0  0
  8  9  1  0  0  0  0
  8  7  2  0  0  0  0
  9  4  2  0  0  0  0
 12  8  1  0  0  0  0
 13 12  1  0  0  0  0
 14 13  2  0  0  0  0
 14 24  1  0  0  0  0
 15 20  1  0  0  0  0
 15 14  1  0  0  0  0
 16 15  1  0  0  0  0
 17 16  2  0  0  0  0
 18 16  1  0  0  0  0
 18 19  1  0  0  0  0
 20 18  1  6  0  0  0
 21 20  1  0  0  0  0
 21 22  1  0  0  0  0
 22 13  1  0  0  0  0
 23 22  1  0  0  0  0
 24 26  1  0  0  0  0
 25 24  2  0  0  0  0
 26 27  1  0  0  0  0
 28 31  1  0  0  0  0
 29 28  1  0  0  0  0
 30 28  1  0  0  0  0
 31 36  1  0  0  0  0
 32 38  1  0  0  0  0
 33 39  1  0  0  0  0
 33 32  2  0  0  0  0
 34 33  1  0  0  0  0
 35 34  2  0  0  0  0
 35 36  1  0  0  0  0
 36 37  2  0  0  0  0
 37 32  1  0  0  0  0
 41 42  1  0  0  0  0
 41 40  1  0  0  0  0
 42 34  1  0  0  0  0
 43 42  2  0  0  0  0
 44 43  1  0  0  0  0
 45 44  2  0  0  0  0
 45 46  1  0  0  0  0
 46 41  2  0  0  0  0
 47 43  1  0  0  0  0
 48 44  1  0  0  0  0
 49 45  1  0  0  0  0
 50 46  1  0  0  0  0
M  END
>  <minimizedAffinity>
-6.99446106

>  <minimizedRMSD>
1.45684743

$$$$
