REMARK  Name = 
REMARK  5 active torsions:
REMARK  status: ('A' for Active; 'I' for Inactive)
REMARK    1  A    between atoms: C_1  and  C_7
REMARK    2  A    between atoms: C_9  and  C_26
REMARK    3  A    between atoms: C_26  and  C_27
REMARK    4  A    between atoms: C_28  and  C_29
REMARK    5  A    between atoms: C_29  and  O_31
REMARK                            x       y       z     vdW  Elec       q    Type
REMARK                         _______ _______ _______ _____ _____    ______ ____
ROOT
ATOM      1  C   UNL     1      35.520  30.305  49.733  0.00  0.00    +0.000 C 
ATOM      2  C   UNL     1      36.466  31.178  48.966  0.00  0.00    +0.000 C 
ATOM      3  C   UNL     1      37.925  30.824  49.170  0.00  0.00    +0.000 C 
ATOM      4  C   UNL     1      38.308  30.785  50.603  0.00  0.00    +0.000 C 
ATOM      5  C   UNL     1      37.315  30.086  51.485  0.00  0.00    +0.000 C 
ATOM      6  C   UNL     1      36.189  29.436  50.734  0.00  0.00    +0.000 C 
ATOM      7  H   UNL     1      34.719  30.932  50.227  0.00  0.00    +0.000 HD
ATOM      8  H   UNL     1      36.332  32.227  49.345  0.00  0.00    +0.000 HD
ATOM      9  H   UNL     1      36.280  31.154  47.895  0.00  0.00    +0.000 HD
ATOM     10  H   UNL     1      38.449  31.766  48.771  0.00  0.00    +0.000 HD
ATOM     11  H   UNL     1      39.300  30.330  50.725  0.00  0.00    +0.000 HD
ATOM     12  H   UNL     1      38.449  31.847  50.999  0.00  0.00    +0.000 HD
ATOM     13  H   UNL     1      36.854  30.845  52.154  0.00  0.00    +0.000 HD
ATOM     14  H   UNL     1      37.785  29.328  52.144  0.00  0.00    +0.000 HD
ATOM     15  H   UNL     1      36.402  28.398  50.395  0.00  0.00    +0.000 HD
ATOM     16  H   UNL     1      35.395  29.254  51.538  0.00  0.00    +0.000 HD
ENDROOT
BRANCH   1  17
ATOM     17  C   UNL     1      34.757  29.433  48.795  0.00  0.00    +0.000 A 
ATOM     18  C   UNL     1      34.235  30.053  47.646  0.00  0.00    +0.000 A 
ATOM     19  C   UNL     1      33.505  29.242  46.768  0.00  0.00    +0.000 A 
ATOM     20  N   UNL     1      33.339  27.912  47.065  0.00  0.00    +0.000 NA
ATOM     21  C   UNL     1      33.862  27.353  48.190  0.00  0.00    +0.000 A 
ATOM     22  N   UNL     1      34.564  28.123  49.038  0.00  0.00    +0.000 NA
ATOM     23  H   UNL     1      34.329  31.074  47.366  0.00  0.00    +0.000 HD
ATOM     24  H   UNL     1      33.081  29.648  45.876  0.00  0.00    +0.000 HD
ATOM     25  H   UNL     1      33.676  26.297  48.334  0.00  0.00    +0.000 HD
ENDBRANCH   1  17
BRANCH   3  26
ATOM     26  C   UNL     1      38.401  29.749  48.273  0.00  0.00    +0.000 C 
BRANCH  26  27
ATOM     27  C   UNL     1      37.759  29.634  46.954  0.00  0.00    +0.000 C 
ATOM     28  C   UNL     1      37.033  28.520  46.824  0.00  0.00    +0.000 C 
ATOM     29  N   UNL     1      36.347  28.203  45.632  0.00  0.00    +0.000 N 
ATOM     30  C   UNL     1      35.147  27.832  44.948  0.00  0.00    +0.000 C 
ATOM     31  O   UNL     1      34.111  27.192  45.338  0.00  0.00    +0.000 OA
ATOM     32  C   UNL     1      35.628  28.484  43.685  0.00  0.00    +0.000 C 
ATOM     33  H   UNL     1      35.403  29.553  43.586  0.00  0.00    +0.000 HD
ATOM     34  C   UNL     1      36.981  28.174  44.305  0.00  0.00    +0.000 C 
ATOM     35  S   UNL     1      38.180  29.523  44.263  0.00  0.00    +0.000 S 
ATOM     36  C   UNL     1      37.806  30.522  45.767  0.00  0.00    +0.000 C 
ATOM     37  H   UNL     1      36.866  31.025  45.539  0.00  0.00    +0.000 HD
BRANCH  28  38
ATOM     38  C   UNL     1      36.927  27.548  47.940  0.00  0.00    +0.000 C 
ATOM     39  O   UNL     1      36.275  26.450  47.958  0.00  0.00    +0.000 OA
BRANCH  38  40
ATOM     40  O   UNL     1      37.092  26.945  49.169  0.00  0.00    +0.000 OA
ATOM     41  H   UNL     1      36.938  27.487  50.036  0.00  0.00    +0.000 HD
ENDBRANCH  38  40
ENDBRANCH  28  38
ENDBRANCH  26  27
ENDBRANCH   3  26
TORSDOF 5
