
     RDKit          3D

 43 46  0  0  0  0  0  0  0  0999 V2000
   35.6295   30.1799   46.4561 O   0  0  0  0  0  0  0  0  0  0  0  0
   34.4190   29.8747   47.3146 P   0  0  1  0  0  0  0  0  0  0  0  0
   34.2280   28.1966   47.5526 O   0  0  0  0  0  0  0  0  0  0  0  0
   34.5285   30.5681   48.8701 O   0  0  0  0  0  0  0  0  0  0  0  0
   35.6821   30.4649   49.6449 C   0  0  0  0  0  0  0  0  0  0  0  0
   35.9010   29.5140   50.6418 C   0  0  0  0  0  0  0  0  0  0  0  0
   37.1086   29.5553   51.3167 C   0  0  0  0  0  0  0  0  0  0  0  0
   38.0323   30.4945   51.0046 N   0  0  0  0  0  0  0  0  0  0  0  0
   37.7818   31.4214   50.0108 C   0  0  0  0  0  0  0  0  0  0  0  0
   36.6031   31.3823   49.3511 N   0  0  0  0  0  0  0  0  0  0  0  0
   33.0634   30.5112   46.5066 O   0  0  0  0  0  0  0  0  0  0  0  0
   32.0928   29.5989   46.0917 C   0  0  0  0  0  0  0  0  0  0  0  0
   31.5131   29.4163   44.8624 C   0  0  0  0  0  0  0  0  0  0  0  0
   30.6249   28.4185   44.9243 N   0  0  0  0  0  0  0  0  0  0  0  0
   30.6179   27.9431   46.1910 C   0  0  0  0  0  0  0  0  0  0  0  0
   31.5147   28.6703   46.8878 N   0  0  0  0  0  0  0  0  0  0  0  0
   34.7982   27.9385   48.3173 H   0  0  0  0  0  0  0  0  0  0  0  0
   35.0985   28.8048   50.8155 H   0  0  0  0  0  0  0  0  0  0  0  0
   37.2736   28.8171   52.0876 H   0  0  0  0  0  0  0  0  0  0  0  0
   38.5338   32.1631   49.7777 H   0  0  0  0  0  0  0  0  0  0  0  0
   31.7710   30.0233   43.9856 H   0  0  0  0  0  0  0  0  0  0  0  0
   30.0653   28.1159   44.0797 H   0  0  0  0  0  0  0  0  0  0  0  0
   29.7549   26.8289   46.6425 C   0  0  0  0  0  0  0  0  0  0  0  0
   28.9005   26.2947   45.5499 C   0  0  0  0  0  0  0  0  0  0  0  0
   28.9433   25.0449   45.1276 C   0  0  0  0  0  0  0  0  0  0  0  0
   29.8759   24.1224   45.7575 C   0  0  0  0  0  0  0  0  0  0  0  0
   29.9988   22.9138   45.4353 O   0  0  0  0  0  0  0  0  0  0  0  0
   30.8391   23.5177   46.5381 O   0  0  0  0  0  0  0  0  0  0  0  0
   28.1280   24.5343   44.0852 N   0  0  0  0  0  0  0  0  0  0  0  0
   27.3551   23.5612   43.4012 C   0  0  0  0  0  0  0  0  0  0  0  0
   27.2048   22.3360   43.7031 O   0  0  0  0  0  0  0  0  0  0  0  0
   26.8810   24.4663   42.3513 C   0  0  1  0  0  0  0  0  0  0  0  0
   27.1082   24.2017   41.3041 H   0  0  0  0  0  0  0  0  0  0  0  0
   27.7980   25.4477   42.9769 C   0  0  1  0  0  0  0  0  0  0  0  0
   26.8168   26.7531   43.8218 S   0  0  0  0  0  0  0  0  0  0  0  0
   28.0197   27.3654   45.0301 C   0  0  2  0  0  0  0  0  0  0  0  0
   28.7042   28.0199   44.4137 H   0  0  0  0  0  0  0  0  0  0  0  0
   29.0409   27.2006   47.4349 H   0  0  0  0  0  0  0  0  0  0  0  0
   30.3445   26.0551   47.1366 H   0  0  0  0  0  0  0  0  0  0  0  0
   31.5767   23.9980   47.0378 H   0  0  0  0  0  0  0  0  0  0  0  0
   25.7872   24.6423   42.4903 H   0  0  0  0  0  0  0  0  0  0  0  0
   28.6435   25.8131   42.3958 H   0  0  0  0  0  0  0  0  0  0  0  0
   27.5377   27.9487   45.8390 H   0  0  0  0  0  0  0  0  0  0  0  0
  2  1  2  0
  2  3  1  1
  2  4  1  0
  4  5  1  0
  5  6  2  0
  6  7  1  0
  8  7  2  0
  9  8  1  0
 10  5  1  0
 10  9  2  0
 11  2  1  0
 12 11  1  0
 12 16  1  0
 13 14  1  0
 13 12  2  0
 14 15  1  0
 15 16  2  0
  3 17  1  0
  6 18  1  0
  7 19  1  0
  9 20  1  0
 13 21  1  0
 14 22  1  0
 23 24  1  0
 24 25  2  0
 25 26  1  0
 26 27  2  0
 26 28  1  0
 25 29  1  0
 29 30  1  0
 30 31  2  0
 30 32  1  0
 32 33  1  6
 32 34  1  0
 34 35  1  0
 35 36  1  0
 36 37  1  6
 36 24  1  0
 34 29  1  0
 23 38  1  0
 23 39  1  0
 28 40  1  0
 32 41  1  0
 34 42  1  6
 36 43  1  0
 15 23  1  0
M  ISO  8  17   3  18  14  19  14  20  14  21  14  22   9  33  15  37  15
M  END
>  <DihAtoms>  (1) 
13,14,22,23

>  <DihDeg>  (1) 
89.99046807898841

$$$$
