
 OpenBabel03272509403D

 42 45  0  0  1  0  0  0  0  0999 V2000
   36.9750   30.9370   49.0990 C   0  0  0  0  0  0  0  0  0  0  0  0
   36.6790   31.8600   50.1000 C   0  0  0  0  0  0  0  0  0  0  0  0
   37.2710   33.1170   50.1670 C   0  0  0  0  0  0  0  0  0  0  0  0
   38.2080   33.4810   49.1920 C   0  0  0  0  0  0  0  0  0  0  0  0
   38.4900   32.5650   48.2160 C   0  0  0  0  0  0  0  0  0  0  0  0
   37.8810   31.3270   48.1820 C   0  0  0  0  0  0  0  0  0  0  0  0
   35.9540   31.6360   50.8900 H   0  0  0  0  0  0  0  0  0  0  0  0
   37.0060   33.7980   50.9650 H   0  0  0  0  0  0  0  0  0  0  0  0
   38.6550   34.4630   49.2650 H   0  0  0  0  0  0  0  0  0  0  0  0
   39.2250   32.9330   47.5060 H   0  0  0  0  0  0  0  0  0  0  0  0
   36.3060   29.6600   49.1170 C   0  0  0  0  0  0  0  0  0  0  0  0
   36.8400   28.7910   49.8950 O   0  0  0  0  0  0  0  0  0  0  0  0
   33.5780   30.1450   46.7770 C   0  0  0  0  0  0  0  0  0  0  0  0
   32.8990   28.9370   46.7780 C   0  0  0  0  0  0  0  0  0  0  0  0
   33.3780   27.9390   47.5900 C   0  0  0  0  0  0  0  0  0  0  0  0
   34.4820   28.1620   48.3530 N   0  0  0  0  0  0  0  0  0  0  0  0
   35.1110   29.3240   48.3330 C   0  0  0  0  0  0  0  0  0  0  0  0
   34.6500   30.3160   47.5380 N   0  0  0  0  0  0  0  0  0  0  0  0
   33.2520   30.9890   46.1530 H   0  0  0  0  0  0  0  0  0  0  0  0
   32.0380   28.8960   46.1240 H   0  0  0  0  0  0  0  0  0  0  0  0
   32.8520   27.0120   47.5870 H   0  0  0  0  0  0  0  0  0  0  0  0
   38.3020   30.4810   47.0810 C   0  0  0  0  0  3  0  0  0  0  0  0
   38.9810   30.8490   46.0030 C   0  0  0  0  0  3  0  0  0  0  0  0
   39.4650   30.1020   44.8440 C   0  0  0  0  0  0  0  0  0  0  0  0
   40.5360   30.3140   44.6670 H   0  0  0  0  0  0  0  0  0  0  0  0
   39.4360   29.0010   45.0840 H   0  0  0  0  0  0  0  0  0  0  0  0
   38.6620   29.1680   39.5950 C   0  0  0  0  0  0  0  0  0  0  0  0
   39.5600   29.8770   40.2570 C   0  0  0  0  0  0  0  0  0  0  0  0
   39.3000   30.1930   41.6410 N   0  0  0  0  0  0  0  0  0  0  0  0
   39.3510   31.2260   42.6490 C   0  0  0  0  0  0  0  0  0  0  0  0
   39.7900   32.4220   42.7430 O   0  0  0  0  0  0  0  0  0  0  0  0
   38.6600   30.3090   43.5800 C   0  0  1  0  0  3  0  0  0  0  0  0
   38.7640   29.1970   42.5840 C   0  0  1  0  0  3  0  0  0  0  0  0
   37.2330   28.6090   41.8790 S   0  0  0  0  0  0  0  0  0  0  0  0
   37.3660   28.6380   40.0780 C   0  0  0  0  0  3  0  0  0  0  0  0
   36.5030   29.1980   39.6240 H   0  0  0  0  0  0  0  0  0  0  0  0
   38.9450   28.8500   38.1960 C   0  0  0  0  0  2  0  0  0  0  0  0
   39.8970   28.2840   38.1460 H   0  0  0  0  0  0  0  0  0  0  0  0
   40.8050   30.3500   39.6590 C   0  0  0  0  0  0  0  0  0  0  0  0
   41.9360   29.8480   39.7830 O   0  0  0  0  0  0  0  0  0  0  0  0
   40.9020   31.4470   38.8540 O   0  0  0  0  0  0  0  0  0  0  0  0
   41.4460   31.4440   38.0180 H   0  0  0  0  0  0  0  0  0  0  0  0
  1 11  1  0  0  0  0
  1  2  1  0  0  0  0
  2  3  2  0  0  0  0
  2  7  1  0  0  0  0
  3  8  1  0  0  0  0
  4  9  1  0  0  0  0
  4  3  1  0  0  0  0
  5  4  2  0  0  0  0
  6  5  1  0  0  0  0
  6  1  2  0  0  0  0
 10  5  1  0  0  0  0
 11 12  2  0  0  0  0
 13 14  2  0  0  0  0
 13 18  1  0  0  0  0
 14 15  1  0  0  0  0
 15 16  2  0  0  0  0
 17 16  1  0  0  0  0
 17 11  1  0  0  0  0
 18 17  2  0  0  0  0
 19 13  1  0  0  0  0
 20 14  1  0  0  0  0
 21 15  1  0  0  0  0
 22  6  1  0  0  0  0
 23 22  2  0  0  0  0
 24 26  1  0  0  0  0
 24 23  1  0  0  0  0
 25 24  1  0  0  0  0
 27 35  1  0  0  0  0
 27 28  2  0  0  0  0
 28 29  1  0  0  0  0
 29 33  1  0  0  0  0
 29 30  1  0  0  0  0
 30 31  2  0  0  0  0
 30 32  1  0  0  0  0
 32 24  1  1  0  0  0
 33 34  1  6  0  0  0
 33 32  1  0  0  0  0
 35 34  1  0  0  0  0
 36 35  1  0  0  0  0
 37 27  1  0  0  0  0
 38 37  1  0  0  0  0
 39 40  2  0  0  0  0
 39 28  1  0  0  0  0
 41 39  1  0  0  0  0
 42 41  1  0  0  0  0
M  END
>  <minimizedAffinity>
-6.0250783

>  <minimizedRMSD>
0.592131495

$$$$
