
 OpenBabel03272507333D

 43 48  0  0  1  0  0  0  0  0999 V2000
   33.7650   26.6620   46.7240 C   0  0  1  0  0  0  0  0  0  0  0  0
   33.1630   25.3360   47.3360 C   0  0  0  0  0  0  0  0  0  0  0  0
   32.8060   25.8340   45.9880 C   0  0  2  0  0  0  0  0  0  0  0  0
   34.8700   26.5570   46.7510 H   0  0  0  0  0  0  0  0  0  0  0  0
   32.4260   25.4340   48.1270 H   0  0  0  0  0  0  0  0  0  0  0  0
   33.8410   24.4770   47.4100 H   0  0  0  0  0  0  0  0  0  0  0  0
   31.8120   26.3350   45.8500 H   0  0  0  0  0  0  0  0  0  0  0  0
   33.2710   27.8430   47.5110 C   0  0  0  0  0  0  0  0  0  0  0  0
   32.1170   28.3430   47.3060 O   0  0  0  0  0  0  0  0  0  0  0  0
   35.8840   29.2210   49.5280 C   0  0  0  0  0  0  0  0  0  0  0  0
   34.8330   29.3650   50.4170 C   0  0  0  0  0  0  0  0  0  0  0  0
   33.6820   28.8660   49.7870 C   0  0  0  0  0  0  0  0  0  0  0  0
   34.1100   28.4470   48.5450 C   0  0  0  0  0  0  0  0  0  0  0  0
   35.4010   28.6760   48.4430 O   0  0  0  0  0  0  0  0  0  0  0  0
   34.7510   29.7630   51.4340 H   0  0  0  0  0  0  0  0  0  0  0  0
   32.6750   28.8210   50.1900 H   0  0  0  0  0  0  0  0  0  0  0  0
   37.2320   29.6370   49.8610 C   0  0  0  0  0  0  0  0  0  0  0  0
   37.8100   29.1130   50.8240 O   0  0  0  0  0  0  0  0  0  0  0  0
   37.8250   30.6530   49.0340 C   0  0  0  0  0  0  0  0  0  0  0  0
   38.1210   31.8640   49.6370 C   0  0  0  0  0  0  0  0  0  0  0  0
   38.6950   32.8720   48.8570 C   0  0  0  0  0  0  0  0  0  0  0  0
   38.9360   32.6090   47.5280 N   0  0  0  0  0  0  0  0  0  0  0  0
   38.6350   31.4250   46.9830 C   0  0  0  0  0  0  0  0  0  0  0  0
   38.0850   30.4530   47.7200 N   0  0  0  0  0  0  0  0  0  0  0  0
   37.9310   32.0630   50.6770 H   0  0  0  0  0  0  0  0  0  0  0  0
   38.9390   33.8370   49.3070 H   0  0  0  0  0  0  0  0  0  0  0  0
   38.8370   31.2490   45.9300 H   0  0  0  0  0  0  0  0  0  0  0  0
   33.2080   24.9510   44.8450 C   0  0  0  0  0  2  0  0  0  0  0  0
   34.4290   25.3820   44.1580 C   0  0  0  0  0  0  0  0  0  0  0  0
   35.6220   24.8160   44.2470 C   0  0  0  0  0  0  0  0  0  0  0  0
   36.7370   25.3390   43.5350 N   0  0  0  0  0  0  0  0  0  0  0  0
   38.1070   25.1880   43.1940 C   0  0  1  0  0  0  0  0  0  0  0  0
   39.1550   24.7310   43.7380 O   0  0  0  0  0  1  0  0  0  0  0  0
   37.8190   25.8070   41.8790 C   0  0  0  0  0  3  0  0  0  0  0  0
   37.4180   25.1510   41.0990 H   0  0  0  0  0  0  0  0  0  0  0  0
   36.7910   26.5220   42.7270 C   0  0  1  0  0  0  0  0  0  0  0  0
   35.2130   26.8080   41.9310 S   0  0  0  0  0  0  0  0  0  0  0  0
   34.1150   26.5670   43.3490 C   0  0  0  0  0  3  0  0  0  0  0  0
   34.1940   27.4940   43.9790 H   0  0  0  0  0  0  0  0  0  0  0  0
   35.8720   23.6250   45.0930 C   0  0  0  0  0  0  0  0  0  0  0  0
   35.2130   22.6140   45.3400 O   0  0  0  0  0  0  0  0  0  0  0  0
   37.0260   23.4580   45.8160 O   0  0  0  0  0  0  0  0  0  0  0  0
   37.5170   22.5950   45.8550 H   0  0  0  0  0  0  0  0  0  0  0  0
  1  4  1  6  0  0  0
  1  2  1  0  0  0  0
  1  8  1  0  0  0  0
  2  6  1  0  0  0  0
  2  5  1  0  0  0  0
  3  7  1  6  0  0  0
  3  1  1  0  0  0  0
  3  2  1  0  0  0  0
  8 13  1  0  0  0  0
  9  8  2  0  0  0  0
 10 17  1  0  0  0  0
 10 11  2  0  0  0  0
 11 15  1  0  0  0  0
 12 16  1  0  0  0  0
 12 11  1  0  0  0  0
 13 12  2  0  0  0  0
 14 13  1  0  0  0  0
 14 10  1  0  0  0  0
 17 18  2  0  0  0  0
 19 20  1  0  0  0  0
 19 17  1  0  0  0  0
 20 25  1  0  0  0  0
 21 26  1  0  0  0  0
 21 20  2  0  0  0  0
 22 21  1  0  0  0  0
 23 22  2  0  0  0  0
 23 24  1  0  0  0  0
 24 19  2  0  0  0  0
 27 23  1  0  0  0  0
 28  3  1  0  0  0  0
 29 30  2  0  0  0  0
 29 28  1  0  0  0  0
 30 40  1  0  0  0  0
 31 30  1  0  0  0  0
 32 31  1  0  0  0  0
 32 33  1  1  0  0  0
 34 32  1  0  0  0  0
 35 34  1  0  0  0  0
 36 34  1  6  0  0  0
 36 32  1  0  0  0  0
 36 31  1  0  0  0  0
 37 36  1  0  0  0  0
 37 38  1  0  0  0  0
 38 39  1  0  0  0  0
 38 29  1  0  0  0  0
 40 41  2  0  0  0  0
 40 42  1  0  0  0  0
 42 43  1  0  0  0  0
M  END
>  <minimizedAffinity>
-5.14667845

>  <minimizedRMSD>
1.16288924

$$$$
