
     RDKit          3D

 53 57  0  0  0  0  0  0  0  0999 V2000
   38.2687   32.2931   47.3951 C   0  0  0  0  0  0  0  0  0  0  0  0
   37.9068   32.7293   48.6519 C   0  0  0  0  0  0  0  0  0  0  0  0
   38.6678   33.6837   49.3073 C   0  0  0  0  0  0  0  0  0  0  0  0
   39.8040   34.1968   48.6788 C   0  0  0  0  0  0  0  0  0  0  0  0
   40.1574   33.7546   47.4231 C   0  0  0  0  0  0  0  0  0  0  0  0
   39.3746   32.8076   46.8101 C   0  0  0  0  0  0  0  0  0  0  0  0
   39.7655   32.3392   45.4581 C   0  0  0  0  0  0  0  0  0  0  0  0
   40.6177   31.3347   45.0952 C   0  0  0  0  0  0  0  0  0  0  0  0
   40.6512   31.2863   43.7035 C   0  0  0  0  0  0  0  0  0  0  0  0
   39.7973   32.2877   43.3034 C   0  0  0  0  0  0  0  0  0  0  0  0
   39.2801   32.9027   44.3558 O   0  0  0  0  0  0  0  0  0  0  0  0
   36.7467   30.5282   46.2957 N   0  0  0  0  0  0  0  0  0  0  0  0
   37.4270   31.3094   46.7953 C   0  0  0  0  0  0  0  0  0  0  0  0
   36.8106   32.3123   49.3959 O   0  0  0  0  0  0  0  0  0  0  0  0
   36.7864   31.2027   50.1698 C   0  0  0  0  0  0  0  0  0  0  0  0
   35.6510   30.4323   49.9484 C   0  0  0  0  0  0  0  0  0  0  0  0
   35.4438   29.2569   50.6464 C   0  0  0  0  0  0  0  0  0  0  0  0
   36.3848   28.8808   51.5528 N   0  0  0  0  0  0  0  0  0  0  0  0
   37.4968   29.6563   51.7540 C   0  0  0  0  0  0  0  0  0  0  0  0
   37.6672   30.7744   51.0726 N   0  0  0  0  0  0  0  0  0  0  0  0
   34.1330   29.7190   48.1470 C   0  0  0  0  0  0  0  0  0  0  0  0
   34.5467   28.5263   47.8783 O   0  0  0  0  0  0  0  0  0  0  0  0
   34.6180   30.6996   49.0435 N   0  0  0  0  0  0  0  0  0  0  0  0
   38.4476   34.0739   50.2918 H   0  0  0  0  0  0  0  0  0  0  0  0
   40.3992   34.9423   49.1896 H   0  0  0  0  0  0  0  0  0  0  0  0
   41.0355   34.1364   46.9114 H   0  0  0  0  0  0  0  0  0  0  0  0
   41.1283   30.7392   45.8412 H   0  0  0  0  0  0  0  0  0  0  0  0
   41.2546   30.5733   43.1753 H   0  0  0  0  0  0  0  0  0  0  0  0
   39.6002   32.5128   42.2607 H   0  0  0  0  0  0  0  0  0  0  0  0
   34.5941   28.5976   50.5404 H   0  0  0  0  0  0  0  0  0  0  0  0
   38.2416   29.3432   52.4823 H   0  0  0  0  0  0  0  0  0  0  0  0
   34.2819   31.6751   49.1307 H   0  0  0  0  0  0  0  0  0  0  0  0
   29.7823   31.0546   43.1211 C   0  0  0  0  0  0  0  0  0  0  0  0
   29.1995   31.9540   43.4195 H   0  0  0  0  0  0  0  0  0  0  0  0
   30.5518   30.6433   44.3016 C   0  0  0  0  0  0  0  0  0  0  0  0
   31.6415   31.3437   44.5585 C   0  0  0  0  0  0  0  0  0  0  0  0
   31.9862   32.4456   43.6711 C   0  0  0  0  0  0  0  0  0  0  0  0
   32.9781   33.2047   43.7720 O   0  0  0  0  0  0  0  0  0  0  0  0
   32.0464   33.4011   42.6765 O   0  0  0  0  0  0  0  0  0  0  0  0
   32.4615   31.0471   45.6531 N   0  0  0  0  0  0  0  0  0  0  0  0
   33.2168   31.4760   46.8069 C   0  0  0  0  0  0  0  0  0  0  0  0
   33.7942   32.5628   47.0710 O   0  0  0  0  0  0  0  0  0  0  0  0
   32.9276   30.0974   47.3541 C   0  0  1  0  0  0  0  0  0  0  0  0
   32.8605   29.6551   45.9346 C   0  0  1  0  0  0  0  0  0  0  0  0
   31.4883   28.5239   45.6489 S   0  0  0  0  0  0  0  0  0  0  0  0
   30.0743   29.5072   45.1201 C   0  0  1  0  0  0  0  0  0  0  0  0
   29.5383   29.9637   45.9882 H   0  0  0  0  0  0  0  0  0  0  0  0
   29.0182   30.2803   42.8409 H   0  0  0  0  0  0  0  0  0  0  0  0
   30.4180   31.3228   42.2518 H   0  0  0  0  0  0  0  0  0  0  0  0
   31.2729   33.5529   42.0177 H   0  0  0  0  0  0  0  0  0  0  0  0
   31.9648   30.0886   47.9089 H   0  0  0  0  0  0  0  0  0  0  0  0
   33.8011   29.3778   45.4599 H   0  0  0  0  0  0  0  0  0  0  0  0
   29.3922   28.8828   44.5077 H   0  0  0  0  0  0  0  0  0  0  0  0
  1  2  2  0
  2  3  1  0
  2 14  1  0
  4  3  2  0
  5  4  1  0
  6  1  1  0
  6  5  2  0
  7  6  1  0
  8  7  2  0
  9  8  1  0
 10  9  2  0
 10 11  1  0
 11  7  1  0
 12 13  3  0
 13  1  1  0
 14 15  1  0
 15 20  2  0
 16 15  1  0
 16 17  2  0
 17 18  1  0
 18 19  2  0
 20 19  1  0
 21 23  1  0
 22 21  2  0
 23 16  1  0
  3 24  1  0
  4 25  1  0
  5 26  1  0
  8 27  1  0
  9 28  1  0
 10 29  1  0
 17 30  1  0
 19 31  1  0
 23 32  1  0
 33 34  1  0
 33 35  1  0
 35 36  2  0
 36 37  1  0
 37 38  2  0
 37 39  1  0
 36 40  1  0
 40 41  1  0
 41 42  2  0
 41 43  1  0
 43 44  1  0
 44 45  1  0
 45 46  1  0
 46 47  1  1
 46 35  1  0
 44 40  1  0
 33 48  1  0
 33 49  1  0
 39 50  1  0
 43 51  1  1
 44 52  1  6
 46 53  1  0
 21 43  1  0
M  ISO  8  24  14  25  14  26  14  27  14  28  14  29  14  30  14  31  14
M  ISO  2  34   8  47  15
M  END
>  <DihAtoms>  (1) 
22,20,42,40

>  <DihDeg>  (1) 
-57.65435999980958

$$$$
