
     RDKit          3D

 54 58  0  0  0  0  0  0  0  0999 V2000
   35.0094   28.3789   49.4601 C   0  0  0  0  0  0  0  0  0  0  0  0
   34.2880   28.7633   48.4424 C   0  0  0  0  0  0  0  0  0  0  0  0
   37.3896   30.1642   51.5744 C   0  0  0  0  0  0  0  0  0  0  0  0
   38.0899   30.9353   50.6291 C   0  0  0  0  0  0  0  0  0  0  0  0
   37.7191   30.8189   49.2702 C   0  0  0  0  0  0  0  0  0  0  0  0
   36.6949   29.9590   48.9454 N   0  0  0  0  0  0  0  0  0  0  0  0
   36.0697   29.2503   49.9187 C   0  0  0  0  0  0  0  0  0  0  0  0
   36.4037   29.3450   51.2076 N   0  0  0  0  0  0  0  0  0  0  0  0
   38.3775   31.5729   48.2030 C   0  0  0  0  0  0  0  0  0  0  0  0
   38.5904   31.0394   46.9449 C   0  0  0  0  0  0  0  0  0  0  0  0
   39.2357   32.0187   46.1803 C   0  0  0  0  0  0  0  0  0  0  0  0
   39.3854   33.0942   46.9990 N   0  0  0  0  0  0  0  0  0  0  0  0
   38.8711   32.8171   48.1996 N   0  0  0  0  0  0  0  0  0  0  0  0
   33.1603   28.0396   47.8062 C   0  0  0  0  0  0  0  0  0  0  0  0
   33.5932   26.9579   46.8933 C   0  0  0  0  0  0  0  0  0  0  0  0
   33.7760   25.6427   47.3177 C   0  0  0  0  0  0  0  0  0  0  0  0
   34.1899   24.6433   46.4502 C   0  0  0  0  0  0  0  0  0  0  0  0
   34.4351   24.9395   45.1130 C   0  0  0  0  0  0  0  0  0  0  0  0
   34.2528   26.2296   44.7080 C   0  0  0  0  0  0  0  0  0  0  0  0
   33.8432   27.2322   45.5570 C   0  0  0  0  0  0  0  0  0  0  0  0
   34.7393   27.4007   49.8894 H   0  0  0  0  0  0  0  0  0  0  0  0
   34.5550   29.7259   48.0217 H   0  0  0  0  0  0  0  0  0  0  0  0
   37.7557   30.3335   52.5697 H   0  0  0  0  0  0  0  0  0  0  0  0
   38.8863   31.6222   50.7653 H   0  0  0  0  0  0  0  0  0  0  0  0
   38.3580   30.0792   46.5065 H   0  0  0  0  0  0  0  0  0  0  0  0
   39.5540   31.9492   45.1540 H   0  0  0  0  0  0  0  0  0  0  0  0
   39.8444   33.9702   46.6657 H   0  0  0  0  0  0  0  0  0  0  0  0
   32.4089   28.7211   47.3869 H   0  0  0  0  0  0  0  0  0  0  0  0
   32.6340   27.5201   48.6616 H   0  0  0  0  0  0  0  0  0  0  0  0
   33.5690   25.4657   48.3770 H   0  0  0  0  0  0  0  0  0  0  0  0
   34.2923   23.6728   46.9071 H   0  0  0  0  0  0  0  0  0  0  0  0
   34.7557   24.1319   44.4719 H   0  0  0  0  0  0  0  0  0  0  0  0
   34.4553   26.4234   43.6473 H   0  0  0  0  0  0  0  0  0  0  0  0
   33.7365   28.5614   44.9919 C   0  0  0  0  0  0  0  0  0  0  0  0
   32.8507   28.8397   43.8814 C   0  0  0  0  0  0  0  0  0  0  0  0
   32.0877   28.0479   43.1344 C   0  0  0  0  0  0  0  0  0  0  0  0
   32.0880   26.6152   43.4245 C   0  0  0  0  0  0  0  0  0  0  0  0
   31.3696   25.8311   42.7411 O   0  0  0  0  0  0  0  0  0  0  0  0
   32.0908   25.2590   43.7020 O   0  0  0  0  0  0  0  0  0  0  0  0
   31.2641   28.4645   42.0518 N   0  0  0  0  0  0  0  0  0  0  0  0
   30.1310   28.3548   41.2168 C   0  0  0  0  0  0  0  0  0  0  0  0
   29.2464   27.4756   41.0421 O   0  0  0  0  0  0  0  0  0  0  0  0
   30.3067   29.6571   40.5738 C   0  0  1  0  0  0  0  0  0  0  0  0
   30.3262   29.6475   39.4646 H   0  0  0  0  0  0  0  0  0  0  0  0
   31.6356   29.6224   41.2532 C   0  0  1  0  0  0  0  0  0  0  0  0
   31.7732   30.9705   42.4584 S   0  0  0  0  0  0  0  0  0  0  0  0
   32.8951   30.2852   43.6556 C   0  0  1  0  0  0  0  0  0  0  0  0
   32.8806   30.8427   44.6274 H   0  0  0  0  0  0  0  0  0  0  0  0
   34.7665   28.9657   44.6905 H   0  0  0  0  0  0  0  0  0  0  0  0
   33.5088   29.2473   45.8765 H   0  0  0  0  0  0  0  0  0  0  0  0
   32.9320   24.7869   44.0811 H   0  0  0  0  0  0  0  0  0  0  0  0
   29.5989   30.4017   40.9816 H   0  0  0  0  0  0  0  0  0  0  0  0
   32.5172   29.5000   40.5976 H   0  0  0  0  0  0  0  0  0  0  0  0
   33.9408   30.4931   43.2675 H   0  0  0  0  0  0  0  0  0  0  0  0
  1  7  1  0
  2  1  2  0
  4  3  2  0
  5  4  1  0
  6  5  2  0
  6  7  1  0
  7  8  2  0
  8  3  1  0
  9  5  1  0
 10  9  1  0
 11 10  2  0
 11 12  1  0
 12 13  1  0
 13  9  2  0
 14  2  1  0
 15 16  2  0
 15 14  1  0
 17 16  1  0
 18 17  2  0
 19 18  1  0
 19 20  2  0
 20 15  1  0
  1 21  1  0
  2 22  1  0
  3 23  1  0
  4 24  1  0
 10 25  1  0
 11 26  1  0
 12 27  1  0
 14 28  1  0
 14 29  1  0
 16 30  1  0
 17 31  1  0
 18 32  1  0
 19 33  1  0
 34 35  1  0
 35 36  2  0
 36 37  1  0
 37 38  2  0
 37 39  1  0
 36 40  1  0
 40 41  1  0
 41 42  2  0
 41 43  1  0
 43 44  1  6
 43 45  1  0
 45 46  1  0
 46 47  1  0
 47 48  1  1
 47 35  1  0
 45 40  1  0
 34 49  1  0
 34 50  1  0
 39 51  1  0
 43 52  1  0
 45 53  1  6
 47 54  1  0
 20 34  1  0
M  ISO  8  23  14  24  14  25  14  26  14  27   9  28   8  29   8  30  14
M  ISO  5  31  14  32  14  33  14  44  15  48  15
M  END
>  <DihAtoms>  (1) 
18,19,33,34

>  <DihDeg>  (1) 
104.63159947009089

$$$$
