
 OpenBabel03262521003D

 42 45  0  0  1  0  0  0  0  0999 V2000
   36.9930   30.5900   50.5220 C   0  0  0  0  0  0  0  0  0  0  0  0
   37.8820   30.8220   49.4750 C   0  0  0  0  0  0  0  0  0  0  0  0
   37.5500   30.4210   48.2090 C   0  0  0  0  0  0  0  0  0  0  0  0
   36.3290   29.7930   48.0280 N   0  0  0  0  0  0  0  0  0  0  0  0
   35.5160   29.5950   49.0590 C   0  0  0  0  0  0  0  0  0  0  0  0
   35.8370   29.9880   50.3060 N   0  0  0  0  0  0  0  0  0  0  0  0
   37.3310   30.9380   51.4880 H   0  0  0  0  0  0  0  0  0  0  0  0
   38.8450   31.2990   49.5150 H   0  0  0  0  0  0  0  0  0  0  0  0
   38.5770   30.6480   46.7770 S   0  0  0  0  0  0  0  0  0  0  0  0
   39.7500   33.0110   46.1710 N   0  0  0  0  0  0  0  0  0  0  0  0
   38.4620   32.3960   46.2080 C   0  0  1  0  0  0  0  0  0  0  0  0
   37.8520   32.3310   44.8280 C   0  0  0  0  0  0  0  0  0  0  0  0
   38.7720   31.5750   43.9830 N   0  0  0  0  0  0  0  0  0  0  0  0
   39.9470   32.4610   43.8300 C   0  0  0  0  0  0  0  0  0  0  0  0
   40.6310   32.4630   45.1910 C   0  0  2  0  0  0  0  0  0  0  0  0
   39.6980   34.0280   46.1870 H   0  0  0  0  0  0  0  0  0  0  0  0
   37.8140   32.9720   46.9040 H   0  0  0  0  0  0  0  0  0  0  0  0
   36.8980   31.7590   44.9230 H   0  0  0  0  0  0  0  0  0  0  0  0
   37.6430   33.3250   44.3890 H   0  0  0  0  0  0  0  0  0  0  0  0
   38.2890   31.4870   43.0440 H   0  0  0  0  0  0  0  0  0  0  0  0
   40.5980   31.9780   43.0860 H   0  0  0  0  0  0  0  0  0  0  0  0
   39.6200   33.4680   43.5420 H   0  0  0  0  0  0  0  0  0  0  0  0
   41.5020   33.1370   45.0930 H   0  0  0  0  0  0  0  0  0  0  0  0
   41.0700   31.1290   45.5070 N   0  0  0  0  0  0  0  0  0  0  0  0
   40.5060   30.3900   45.0350 H   0  0  0  0  0  0  0  0  0  0  0  0
   41.2830   30.9720   46.4970 H   0  0  0  0  0  0  0  0  0  0  0  0
   34.1960   28.9060   48.8070 C   0  0  0  0  0  2  0  0  0  0  0  0
   33.9150   29.0730   47.3850 C   0  0  0  0  0  0  0  0  0  0  0  0
   33.7870   28.0700   46.5210 C   0  0  0  0  0  0  0  0  0  0  0  0
   33.5020   28.3620   45.1570 N   0  0  0  0  0  0  0  0  0  0  0  0
   33.7500   28.1780   43.7680 C   0  0  0  0  0  0  0  0  0  0  0  0
   34.0920   27.1600   43.1130 O   0  0  0  0  0  0  0  0  0  0  0  0
   33.4160   29.6440   43.6290 C   0  0  0  0  0  3  0  0  0  0  0  0
   32.9510   29.8910   42.6550 H   0  0  0  0  0  0  0  0  0  0  0  0
   32.4640   29.3010   44.7530 C   0  0  2  0  0  3  0  0  0  0  0  0
   32.3470   30.6740   45.9270 S   0  0  0  0  0  0  0  0  0  0  0  0
   33.8060   30.5060   47.0210 C   0  0  0  0  0  3  0  0  0  0  0  0
   34.6870   30.8480   46.4350 H   0  0  0  0  0  0  0  0  0  0  0  0
   33.9220   26.6510   46.9230 C   0  0  0  0  0  0  0  0  0  0  0  0
   33.7620   25.9800   47.9570 O   0  0  0  0  0  0  0  0  0  0  0  0
   34.3140   25.6280   46.0970 O   0  0  0  0  0  0  0  0  0  0  0  0
   35.1130   25.0390   46.2750 H   0  0  0  0  0  0  0  0  0  0  0  0
  1  7  1  0  0  0  0
  2  8  1  0  0  0  0
  2  1  2  0  0  0  0
  3  2  1  0  0  0  0
  4  3  2  0  0  0  0
  4  5  1  0  0  0  0
  5  6  2  0  0  0  0
  6  1  1  0  0  0  0
  9  3  1  0  0  0  0
 10 16  1  0  0  0  0
 10 11  1  0  0  0  0
 11  9  1  0  0  0  0
 11 17  1  1  0  0  0
 12 18  1  0  0  0  0
 12 11  1  0  0  0  0
 13 12  1  0  0  0  0
 14 13  1  0  0  0  0
 14 15  1  0  0  0  0
 15 23  1  6  0  0  0
 15 24  1  0  0  0  0
 15 10  1  0  0  0  0
 19 12  1  0  0  0  0
 20 13  1  0  0  0  0
 21 14  1  0  0  0  0
 22 14  1  0  0  0  0
 24 26  1  0  0  0  0
 25 24  1  0  0  0  0
 27  5  1  0  0  0  0
 28 27  1  0  0  0  0
 29 39  1  0  0  0  0
 29 28  2  0  0  0  0
 30 29  1  0  0  0  0
 31 30  1  0  0  0  0
 32 31  2  0  0  0  0
 33 31  1  0  0  0  0
 34 33  1  0  0  0  0
 35 33  1  6  0  0  0
 35 30  1  0  0  0  0
 35 36  1  0  0  0  0
 36 37  1  0  0  0  0
 37 28  1  0  0  0  0
 38 37  1  0  0  0  0
 39 40  2  0  0  0  0
 41 42  1  0  0  0  0
 41 39  1  0  0  0  0
M  END
>  <minimizedAffinity>
-5.55605078

>  <minimizedRMSD>
1.74235487

$$$$
