REMARK  Name = 
REMARK  5 active torsions:
REMARK  status: ('A' for Active; 'I' for Inactive)
REMARK    1  A    between atoms: C_1  and  C_7
REMARK    2  A    between atoms: C_3  and  C_26
REMARK    3  A    between atoms: C_26  and  C_27
REMARK    4  A    between atoms: C_28  and  C_29
REMARK    5  A    between atoms: C_29  and  O_31
REMARK                            x       y       z     vdW  Elec       q    Type
REMARK                         _______ _______ _______ _____ _____    ______ ____
ROOT
ATOM      1  C   UNL     1      34.759  29.425  48.797  0.00  0.00    +0.000 A 
ATOM      2  C   UNL     1      34.219  30.057  47.663  0.00  0.00    +0.000 A 
ATOM      3  C   UNL     1      33.487  29.257  46.784  0.00  0.00    +0.000 A 
ATOM      4  N   UNL     1      33.326  27.916  47.058  0.00  0.00    +0.000 NA
ATOM      5  C   UNL     1      33.873  27.349  48.178  0.00  0.00    +0.000 A 
ATOM      6  N   UNL     1      34.576  28.113  49.021  0.00  0.00    +0.000 NA
ATOM      7  H   UNL     1      34.318  31.102  47.408  0.00  0.00    +0.000 HD
ATOM      8  H   UNL     1      33.715  26.305  48.337  0.00  0.00    +0.000 HD
ENDROOT
BRANCH   1   9
ATOM      9  C   UNL     1      35.530  30.301  49.733  0.00  0.00    +0.000 C 
ATOM     10  C   UNL     1      36.489  31.166  48.939  0.00  0.00    +0.000 C 
ATOM     11  C   UNL     1      37.925  30.796  49.167  0.00  0.00    +0.000 C 
ATOM     12  C   UNL     1      38.305  30.799  50.625  0.00  0.00    +0.000 C 
ATOM     13  C   UNL     1      37.290  30.131  51.501  0.00  0.00    +0.000 C 
ATOM     14  C   UNL     1      36.206  29.418  50.725  0.00  0.00    +0.000 C 
ATOM     15  H   UNL     1      34.811  30.961  50.244  0.00  0.00    +0.000 HD
ATOM     16  H   UNL     1      36.337  32.219  49.194  0.00  0.00    +0.000 HD
ATOM     17  H   UNL     1      36.304  30.999  47.844  0.00  0.00    +0.000 HD
ATOM     18  H   UNL     1      38.528  31.618  48.685  0.00  0.00    +0.000 HD
ATOM     19  H   UNL     1      38.125  29.802  48.717  0.00  0.00    +0.000 HD
ATOM     20  H   UNL     1      38.462  31.823  50.992  0.00  0.00    +0.000 HD
ATOM     21  H   UNL     1      39.307  30.291  50.688  0.00  0.00    +0.000 HD
ATOM     22  H   UNL     1      36.860  30.818  52.245  0.00  0.00    +0.000 HD
ATOM     23  H   UNL     1      37.812  29.328  52.084  0.00  0.00    +0.000 HD
ATOM     24  H   UNL     1      36.606  28.478  50.291  0.00  0.00    +0.000 HD
ATOM     25  H   UNL     1      35.456  29.087  51.476  0.00  0.00    +0.000 HD
ENDBRANCH   1   9
BRANCH   3  26
ATOM     26  C   UNL     1      32.847  29.775  45.531  0.00  0.00    +0.000 C 
BRANCH  26  27
ATOM     27  C   UNL     1      32.809  31.235  45.447  0.00  0.00    +0.000 C 
ATOM     28  C   UNL     1      33.384  31.948  44.490  0.00  0.00    +0.000 C 
ATOM     29  N   UNL     1      33.279  33.351  44.516  0.00  0.00    +0.000 N 
ATOM     30  C   UNL     1      33.185  34.545  43.792  0.00  0.00    +0.000 C 
ATOM     31  O   UNL     1      33.426  34.953  42.613  0.00  0.00    +0.000 OA
ATOM     32  C   UNL     1      32.658  35.296  44.933  0.00  0.00    +0.000 C 
ATOM     33  H   UNL     1      31.557  35.368  44.899  0.00  0.00    +0.000 HD
ATOM     34  C   UNL     1      33.224  34.141  45.733  0.00  0.00    +0.000 C 
ATOM     35  S   UNL     1      31.885  33.470  46.778  0.00  0.00    +0.000 S 
ATOM     36  C   UNL     1      32.020  31.670  46.621  0.00  0.00    +0.000 C 
ATOM     37  H   UNL     1      31.030  31.175  46.707  0.00  0.00    +0.000 HD
BRANCH  28  38
ATOM     38  C   UNL     1      34.133  31.341  43.396  0.00  0.00    +0.000 C 
ATOM     39  O   UNL     1      34.466  30.202  43.002  0.00  0.00    +0.000 OA
BRANCH  38  40
ATOM     40  O   UNL     1      34.723  32.081  42.398  0.00  0.00    +0.000 OA
ATOM     41  H   UNL     1      34.683  31.920  41.398  0.00  0.00    +0.000 HD
ENDBRANCH  38  40
ENDBRANCH  28  38
ENDBRANCH  26  27
ENDBRANCH   3  26
TORSDOF 5
