
     RDKit          3D

 49 52  0  0  0  0  0  0  0  0999 V2000
   37.1298   30.9576   49.0203 C   0  0  0  0  0  0  0  0  0  0  0  0
   36.9186   31.9283   49.9977 C   0  0  0  0  0  0  0  0  0  0  0  0
   37.5547   33.1647   49.9849 C   0  0  0  0  0  0  0  0  0  0  0  0
   38.4498   33.4587   48.9480 C   0  0  0  0  0  0  0  0  0  0  0  0
   38.6480   32.4983   47.9961 C   0  0  0  0  0  0  0  0  0  0  0  0
   37.9983   31.2817   48.0419 C   0  0  0  0  0  0  0  0  0  0  0  0
   36.4213   29.7068   49.1234 C   0  0  0  0  0  0  0  0  0  0  0  0
   36.9350   28.8723   49.9505 O   0  0  0  0  0  0  0  0  0  0  0  0
   33.6274   30.1712   46.8592 C   0  0  0  0  0  0  0  0  0  0  0  0
   32.9598   28.9558   46.8741 C   0  0  0  0  0  0  0  0  0  0  0  0
   33.4712   27.9610   47.6701 C   0  0  0  0  0  0  0  0  0  0  0  0
   34.5927   28.1928   48.4037 N   0  0  0  0  0  0  0  0  0  0  0  0
   35.2089   29.3612   48.3705 C   0  0  0  0  0  0  0  0  0  0  0  0
   34.7167   30.3510   47.5909 N   0  0  0  0  0  0  0  0  0  0  0  0
   38.3307   30.3806   46.9536 C   0  0  0  0  0  0  0  0  0  0  0  0
   38.8090   30.7091   45.7616 C   0  0  0  0  0  0  0  0  0  0  0  0
   39.1870   29.9060   44.5996 C   0  0  0  0  0  0  0  0  0  0  0  0
   36.2313   31.7588   50.8334 H   0  0  0  0  0  0  0  0  0  0  0  0
   37.3560   33.8836   50.7677 H   0  0  0  0  0  0  0  0  0  0  0  0
   38.9325   34.4266   48.9591 H   0  0  0  0  0  0  0  0  0  0  0  0
   39.3560   32.8132   47.2345 H   0  0  0  0  0  0  0  0  0  0  0  0
   33.2764   31.0144   46.2456 H   0  0  0  0  0  0  0  0  0  0  0  0
   32.0819   28.9090   46.2433 H   0  0  0  0  0  0  0  0  0  0  0  0
   32.9544   27.0292   47.6778 H   0  0  0  0  0  0  0  0  0  0  0  0
   38.2154   29.2840   47.0070 H   0  0  0  0  0  0  0  0  0  0  0  0
   38.9859   31.7584   45.5325 H   0  0  0  0  0  0  0  0  0  0  0  0
   40.2747   29.9789   44.4170 H   0  0  0  0  0  0  0  0  0  0  0  0
   39.0169   28.8180   44.8403 H   0  0  0  0  0  0  0  0  0  0  0  0
   37.6807   28.0031   38.2638 C   0  0  0  0  0  0  0  0  0  0  0  0
   38.3517   27.1210   38.2835 H   0  0  0  0  0  0  0  0  0  0  0  0
   37.6532   28.6001   39.5992 C   0  0  0  0  0  0  0  0  0  0  0  0
   38.8015   29.0081   40.1118 C   0  0  0  0  0  0  0  0  0  0  0  0
   40.0776   28.8907   39.4114 C   0  0  0  0  0  0  0  0  0  0  0  0
   40.2718   28.4103   38.2819 O   0  0  0  0  0  0  0  0  0  0  0  0
   41.2731   29.3071   39.9186 O   0  0  0  0  0  0  0  0  0  0  0  0
   38.7946   29.5931   41.4312 N   0  0  0  0  0  0  0  0  0  0  0  0
   39.3044   30.6646   42.2539 C   0  0  0  0  0  0  0  0  0  0  0  0
   40.1562   31.6100   42.1381 O   0  0  0  0  0  0  0  0  0  0  0  0
   38.4085   30.2173   43.3404 C   0  0  1  0  0  0  0  0  0  0  0  0
   38.0136   29.0161   42.5380 C   0  0  1  0  0  0  0  0  0  0  0  0
   36.3191   28.9498   41.9794 S   0  0  0  0  0  0  0  0  0  0  0  0
   36.2998   28.6685   40.1949 C   0  0  1  0  0  0  0  0  0  0  0  0
   35.6651   29.4401   39.6787 H   0  0  0  0  0  0  0  0  0  0  0  0
   38.1032   28.7590   37.5575 H   0  0  0  0  0  0  0  0  0  0  0  0
   36.6929   27.6891   37.8640 H   0  0  0  0  0  0  0  0  0  0  0  0
   41.9380   29.8053   39.3678 H   0  0  0  0  0  0  0  0  0  0  0  0
   37.5571   30.9222   43.5502 H   0  0  0  0  0  0  0  0  0  0  0  0
   38.4320   28.0666   42.9291 H   0  0  0  0  0  0  0  0  0  0  0  0
   35.7666   27.6970   39.9950 H   0  0  0  0  0  0  0  0  0  0  0  0
  1  7  1  0
  1  2  2  0
  3  2  1  0
  4  3  2  0
  5  6  2  0
  5  4  1  0
  6  1  1  0
  7  8  2  0
  9 10  2  0
  9 14  1  0
 10 11  1  0
 11 12  2  0
 13 12  1  0
 13  7  1  0
 14 13  2  0
 15  6  1  0
 16 15  2  0
 17 16  1  0
  2 18  1  0
  3 19  1  0
  4 20  1  0
  5 21  1  0
  9 22  1  0
 10 23  1  0
 11 24  1  0
 15 25  1  0
 16 26  1  0
 17 27  1  0
 17 28  1  0
 29 30  1  0
 29 31  1  0
 31 32  2  0
 32 33  1  0
 33 34  2  0
 33 35  1  0
 32 36  1  0
 36 37  1  0
 37 38  2  0
 37 39  1  0
 39 40  1  0
 40 41  1  0
 41 42  1  0
 42 43  1  6
 42 31  1  0
 40 36  1  0
 29 44  1  0
 29 45  1  0
 35 46  1  0
 39 47  1  1
 40 48  1  1
 42 49  1  0
 17 39  1  0
M  ISO  8  18  14  19  14  20  14  21  14  22  14  23  14  24  14  27   8
M  ISO  3  28   8  30   8  43  15
M  END
>  <DihAtoms>  (1) 
15,16,38,36

>  <DihDeg>  (1) 
60.032290044664876

$$$$
