
 OpenBabel03262523363D

 41 44  0  0  1  0  0  0  0  0999 V2000
   35.3310   29.9520   49.7730 C   0  0  2  0  0  0  0  0  0  0  0  0
   35.8330   31.2170   49.1460 C   0  0  0  0  0  0  0  0  0  0  0  0
   37.2940   31.1620   48.7460 C   0  0  1  0  0  0  0  0  0  0  0  0
   38.1780   30.7570   49.8670 C   0  0  0  0  0  0  0  0  0  0  0  0
   37.6560   29.6040   50.6740 C   0  0  0  0  0  0  0  0  0  0  0  0
   36.4070   28.9870   50.1140 C   0  0  0  0  0  0  0  0  0  0  0  0
   34.7070   30.1870   50.6860 H   0  0  0  0  0  0  0  0  0  0  0  0
   35.7400   32.0300   49.9160 H   0  0  0  0  0  0  0  0  0  0  0  0
   35.2710   31.4940   48.2580 H   0  0  0  0  0  0  0  0  0  0  0  0
   37.5340   32.2760   48.5960 H   0  0  0  0  0  0  0  0  0  0  0  0
   39.1870   30.5270   49.4990 H   0  0  0  0  0  0  0  0  0  0  0  0
   38.3430   31.6390   50.5730 H   0  0  0  0  0  0  0  0  0  0  0  0
   37.3970   29.9820   51.6870 H   0  0  0  0  0  0  0  0  0  0  0  0
   38.4110   28.8050   50.8190 H   0  0  0  0  0  0  0  0  0  0  0  0
   36.5870   28.1900   49.3590 H   0  0  0  0  0  0  0  0  0  0  0  0
   35.9870   28.3810   50.9890 H   0  0  0  0  0  0  0  0  0  0  0  0
   34.3720   29.2750   48.8550 C   0  0  0  0  0  0  0  0  0  0  0  0
   33.9930   29.9890   47.7040 C   0  0  0  0  0  0  0  0  0  0  0  0
   33.0810   29.3640   46.8450 C   0  0  0  0  0  0  0  0  0  0  0  0
   32.6130   28.1120   47.1600 N   0  0  0  0  0  0  0  0  0  0  0  0
   33.0060   27.4570   48.2860 C   0  0  0  0  0  0  0  0  0  0  0  0
   33.8810   28.0490   49.1160 N   0  0  0  0  0  0  0  0  0  0  0  0
   34.3200   30.9570   47.4110 H   0  0  0  0  0  0  0  0  0  0  0  0
   32.7520   29.8500   45.9530 H   0  0  0  0  0  0  0  0  0  0  0  0
   32.5800   26.4750   48.4450 H   0  0  0  0  0  0  0  0  0  0  0  0
   37.5160   30.5700   47.4100 C   0  0  0  0  0  2  0  0  0  0  0  0
   38.2560   31.3750   46.4250 C   0  0  0  0  0  0  0  0  0  0  0  0
   37.7710   31.2570   45.1860 C   0  0  0  0  0  0  0  0  0  0  0  0
   38.3430   31.9300   44.0870 N   0  0  0  0  0  0  0  0  0  0  0  0
   38.2150   32.7860   42.9470 C   0  0  0  0  0  0  0  0  0  0  0  0
   37.2270   33.0200   42.1690 O   0  0  0  0  0  0  0  0  0  0  0  0
   39.6410   33.2330   43.0820 C   0  0  0  0  0  3  0  0  0  0  0  0
   39.8100   34.0840   43.7530 H   0  0  0  0  0  0  0  0  0  0  0  0
   39.7720   31.8690   43.7400 C   0  0  1  0  0  3  0  0  0  0  0  0
   40.6910   31.8430   45.2940 S   0  0  0  0  0  0  0  0  0  0  0  0
   39.4360   32.2580   46.5800 C   0  0  0  0  0  3  0  0  0  0  0  0
   39.2320   33.3190   46.4370 H   0  0  0  0  0  0  0  0  0  0  0  0
   36.6020   30.3870   44.9080 C   0  0  0  0  0  0  0  0  0  0  0  0
   35.4460   30.7420   44.4950 O   0  0  0  0  0  0  0  0  0  0  0  0
   35.8050   29.2690   44.7780 O   0  0  0  0  0  0  0  0  0  0  0  0
   35.7340   28.5910   45.5550 H   0  0  0  0  0  0  0  0  0  0  0  0
  1  6  1  0  0  0  0
  1  7  1  1  0  0  0
  2  1  1  0  0  0  0
  2  8  1  0  0  0  0
  3 10  1  6  0  0  0
  3  2  1  0  0  0  0
  3  4  1  0  0  0  0
  4 12  1  0  0  0  0
  4  5  1  0  0  0  0
  5 14  1  0  0  0  0
  5 13  1  0  0  0  0
  6  5  1  0  0  0  0
  6 16  1  0  0  0  0
  9  2  1  0  0  0  0
 11  4  1  0  0  0  0
 15  6  1  0  0  0  0
 17 22  1  0  0  0  0
 17  1  1  0  0  0  0
 18 17  2  0  0  0  0
 19 20  2  0  0  0  0
 19 18  1  0  0  0  0
 20 21  1  0  0  0  0
 21 25  1  0  0  0  0
 21 22  2  0  0  0  0
 23 18  1  0  0  0  0
 24 19  1  0  0  0  0
 26  3  1  0  0  0  0
 27 36  1  0  0  0  0
 27 26  1  0  0  0  0
 28 27  2  0  0  0  0
 29 28  1  0  0  0  0
 30 32  1  0  0  0  0
 30 29  1  0  0  0  0
 31 30  2  0  0  0  0
 32 33  1  0  0  0  0
 34 32  1  6  0  0  0
 34 29  1  0  0  0  0
 34 35  1  0  0  0  0
 35 36  1  0  0  0  0
 37 36  1  0  0  0  0
 38 28  1  0  0  0  0
 39 38  2  0  0  0  0
 40 38  1  0  0  0  0
 40 41  1  0  0  0  0
M  END
>  <minimizedAffinity>
-6.22578573

>  <minimizedRMSD>
1.53091764

$$$$
