
 OpenBabel03272507333D

 43 48  0  0  1  0  0  0  0  0999 V2000
   33.7380   26.7120   46.7840 C   0  0  1  0  0  0  0  0  0  0  0  0
   33.8100   25.2850   47.4580 C   0  0  0  0  0  0  0  0  0  0  0  0
   32.9210   25.5900   46.3130 C   0  0  2  0  0  0  0  0  0  0  0  0
   34.7710   26.9750   46.4730 H   0  0  0  0  0  0  0  0  0  0  0  0
   33.3570   25.1640   48.4360 H   0  0  0  0  0  0  0  0  0  0  0  0
   34.7170   24.6980   47.2680 H   0  0  0  0  0  0  0  0  0  0  0  0
   31.8260   25.7330   46.5110 H   0  0  0  0  0  0  0  0  0  0  0  0
   33.1530   27.6930   47.7600 C   0  0  0  0  0  0  0  0  0  0  0  0
   31.9040   27.9460   47.7800 O   0  0  0  0  0  0  0  0  0  0  0  0
   35.8170   29.1760   49.6320 C   0  0  0  0  0  0  0  0  0  0  0  0
   34.7620   29.5060   50.4660 C   0  0  0  0  0  0  0  0  0  0  0  0
   33.5920   28.9970   49.8810 C   0  0  0  0  0  0  0  0  0  0  0  0
   34.0120   28.3830   48.7210 C   0  0  0  0  0  0  0  0  0  0  0  0
   35.3170   28.5150   48.6210 O   0  0  0  0  0  0  0  0  0  0  0  0
   34.6890   30.0470   51.4160 H   0  0  0  0  0  0  0  0  0  0  0  0
   32.5780   29.0710   50.2620 H   0  0  0  0  0  0  0  0  0  0  0  0
   37.1830   29.5500   49.9380 C   0  0  0  0  0  0  0  0  0  0  0  0
   37.7840   28.9660   50.8520 O   0  0  0  0  0  0  0  0  0  0  0  0
   37.7660   30.5980   49.1450 C   0  0  0  0  0  0  0  0  0  0  0  0
   38.0390   31.7950   49.7850 C   0  0  0  0  0  0  0  0  0  0  0  0
   38.6020   32.8340   49.0390 C   0  0  0  0  0  0  0  0  0  0  0  0
   38.8580   32.6130   47.7040 N   0  0  0  0  0  0  0  0  0  0  0  0
   38.5800   31.4400   47.1240 C   0  0  0  0  0  0  0  0  0  0  0  0
   38.0400   30.4390   47.8280 N   0  0  0  0  0  0  0  0  0  0  0  0
   37.8370   31.9630   50.8290 H   0  0  0  0  0  0  0  0  0  0  0  0
   38.8280   33.7900   49.5170 H   0  0  0  0  0  0  0  0  0  0  0  0
   38.7930   31.2970   46.0680 H   0  0  0  0  0  0  0  0  0  0  0  0
   33.2200   24.8460   45.0460 C   0  0  0  0  0  2  0  0  0  0  0  0
   34.0680   23.6660   45.2330 C   0  0  0  0  0  0  0  0  0  0  0  0
   33.6790   22.4780   45.6670 C   0  0  0  0  0  0  0  0  0  0  0  0
   34.6060   21.4110   45.8160 N   0  0  0  0  0  0  0  0  0  0  0  0
   34.8020   20.0420   46.1400 C   0  0  1  0  0  0  0  0  0  0  0  0
   34.2770   19.1840   46.9100 O   0  0  0  0  0  1  0  0  0  0  0  0
   35.9250   20.0030   45.1750 C   0  0  0  0  0  3  0  0  0  0  0  0
   35.6670   19.8510   44.1200 H   0  0  0  0  0  0  0  0  0  0  0  0
   36.0270   21.4440   45.6240 C   0  0  1  0  0  0  0  0  0  0  0  0
   36.4560   22.6140   44.3390 S   0  0  0  0  0  0  0  0  0  0  0  0
   35.4460   24.0200   44.8650 C   0  0  0  0  0  3  0  0  0  0  0  0
   35.9710   24.4830   45.7430 H   0  0  0  0  0  0  0  0  0  0  0  0
   32.2710   22.1920   46.0320 C   0  0  0  0  0  0  0  0  0  0  0  0
   31.2730   21.8960   45.3730 O   0  0  0  0  0  0  0  0  0  0  0  0
   31.8200   22.2180   47.3280 O   0  0  0  0  0  0  0  0  0  0  0  0
   31.2170   21.5220   47.7030 H   0  0  0  0  0  0  0  0  0  0  0  0
  1  4  1  6  0  0  0
  1  2  1  0  0  0  0
  1  8  1  0  0  0  0
  2  5  1  0  0  0  0
  3  7  1  1  0  0  0
  3  1  1  0  0  0  0
  3  2  1  0  0  0  0
  6  2  1  0  0  0  0
  8  9  2  0  0  0  0
  8 13  1  0  0  0  0
 10 17  1  0  0  0  0
 10 11  2  0  0  0  0
 11 15  1  0  0  0  0
 12 16  1  0  0  0  0
 12 11  1  0  0  0  0
 13 12  2  0  0  0  0
 14 13  1  0  0  0  0
 14 10  1  0  0  0  0
 17 18  2  0  0  0  0
 19 20  1  0  0  0  0
 19 17  1  0  0  0  0
 20 25  1  0  0  0  0
 21 26  1  0  0  0  0
 21 20  2  0  0  0  0
 22 21  1  0  0  0  0
 23 22  2  0  0  0  0
 23 24  1  0  0  0  0
 24 19  2  0  0  0  0
 27 23  1  0  0  0  0
 28 29  1  0  0  0  0
 28  3  1  0  0  0  0
 29 30  2  0  0  0  0
 30 31  1  0  0  0  0
 30 40  1  0  0  0  0
 31 32  1  0  0  0  0
 32 33  1  1  0  0  0
 34 36  1  0  0  0  0
 34 32  1  0  0  0  0
 35 34  1  0  0  0  0
 36 37  1  1  0  0  0
 36 31  1  0  0  0  0
 36 32  1  0  0  0  0
 37 38  1  0  0  0  0
 38 29  1  0  0  0  0
 38 39  1  0  0  0  0
 40 42  1  0  0  0  0
 41 40  2  0  0  0  0
 42 43  1  0  0  0  0
M  END
>  <minimizedAffinity>
-4.89385271

>  <minimizedRMSD>
1.64354587

$$$$
