
     RDKit          3D

 59 63  0  0  0  0  0  0  0  0999 V2000
   37.1385   29.2794   51.5713 C   0  0  0  0  0  0  0  0  0  0  0  0
   37.4661   30.4889   51.0422 C   0  0  0  0  0  0  0  0  0  0  0  0
   37.4377   30.1456   49.7141 O   0  0  0  0  0  0  0  0  0  0  0  0
   38.0383   30.9854   48.8211 C   0  0  0  0  0  0  0  0  0  0  0  0
   38.3536   32.2108   49.3537 C   0  0  0  0  0  0  0  0  0  0  0  0
   38.9782   33.1717   48.5373 C   0  0  0  0  0  0  0  0  0  0  0  0
   39.2348   32.8192   47.2481 N   0  0  0  0  0  0  0  0  0  0  0  0
   38.9086   31.5867   46.7421 C   0  0  0  0  0  0  0  0  0  0  0  0
   38.3108   30.6854   47.5472 N   0  0  0  0  0  0  0  0  0  0  0  0
   39.8082   32.4080   44.6889 C   0  0  0  0  0  0  0  0  0  0  0  0
   40.0634   33.5450   45.1701 O   0  0  0  0  0  0  0  0  0  0  0  0
   39.2204   31.3235   45.3858 N   0  0  0  0  0  0  0  0  0  0  0  0
   38.1693   28.1984   51.3151 C   0  0  0  0  0  0  0  0  0  0  0  0
   38.6978   27.3314   52.7727 S   0  0  0  0  0  0  0  0  0  0  0  0
   40.3809   25.1154   53.4030 C   0  0  0  0  0  0  0  0  0  0  0  0
   39.8132   25.9963   52.4908 C   0  0  0  0  0  0  0  0  0  0  0  0
   40.1823   25.7909   51.1458 C   0  0  0  0  0  0  0  0  0  0  0  0
   41.0313   24.8088   50.7393 C   0  0  0  0  0  0  0  0  0  0  0  0
   41.5389   24.4038   49.5816 N   0  0  0  0  0  0  0  0  0  0  0  0
   42.3816   23.3238   49.7532 C   0  0  0  0  0  0  0  0  0  0  0  0
   42.3878   23.0473   51.1359 C   0  0  0  0  0  0  0  0  0  0  0  0
   41.5539   23.9754   51.6906 C   0  0  0  0  0  0  0  0  0  0  0  0
   41.2345   24.1267   52.9972 C   0  0  0  0  0  0  0  0  0  0  0  0
   36.1631   28.8503   51.2472 H   0  0  0  0  0  0  0  0  0  0  0  0
   37.0393   29.3122   52.6976 H   0  0  0  0  0  0  0  0  0  0  0  0
   38.5102   30.8344   51.3040 H   0  0  0  0  0  0  0  0  0  0  0  0
   36.7605   31.3246   51.2330 H   0  0  0  0  0  0  0  0  0  0  0  0
   38.2013   32.6029   50.3497 H   0  0  0  0  0  0  0  0  0  0  0  0
   39.2613   34.1490   48.8586 H   0  0  0  0  0  0  0  0  0  0  0  0
   40.0938   32.3257   43.6339 H   0  0  0  0  0  0  0  0  0  0  0  0
   39.0369   30.4208   44.9397 H   0  0  0  0  0  0  0  0  0  0  0  0
   39.0783   28.6886   50.8693 H   0  0  0  0  0  0  0  0  0  0  0  0
   37.8176   27.4778   50.5444 H   0  0  0  0  0  0  0  0  0  0  0  0
   40.0374   25.3539   54.4039 H   0  0  0  0  0  0  0  0  0  0  0  0
   39.7936   26.4297   50.3357 H   0  0  0  0  0  0  0  0  0  0  0  0
   41.3199   24.8554   48.6603 H   0  0  0  0  0  0  0  0  0  0  0  0
   42.9077   22.8207   48.9786 H   0  0  0  0  0  0  0  0  0  0  0  0
   42.9913   22.2347   51.4988 H   0  0  0  0  0  0  0  0  0  0  0  0
   41.6643   23.3127   54.1651 C   0  0  0  0  0  0  0  0  0  0  0  0
   42.9856   23.6859   54.7224 C   0  0  0  0  0  0  0  0  0  0  0  0
   43.9229   22.7370   54.7284 C   0  0  0  0  0  0  0  0  0  0  0  0
   43.5160   21.4216   54.1714 C   0  0  0  0  0  0  0  0  0  0  0  0
   44.3327   20.4350   54.1292 O   0  0  0  0  0  0  0  0  0  0  0  0
   42.8866   20.3282   53.6108 O   0  0  0  0  0  0  0  0  0  0  0  0
   45.2510   22.7794   55.1816 N   0  0  0  0  0  0  0  0  0  0  0  0
   46.4477   22.1642   55.6360 C   0  0  0  0  0  0  0  0  0  0  0  0
   46.9611   21.0353   55.3457 O   0  0  0  0  0  0  0  0  0  0  0  0
   46.6816   23.3743   56.4709 C   0  0  2  0  0  0  0  0  0  0  0  0
   47.7255   23.7080   56.5746 H   0  0  0  0  0  0  0  0  0  0  0  0
   45.9115   24.0354   55.3207 C   0  0  2  0  0  0  0  0  0  0  0  0
   44.8139   25.2821   55.9996 S   0  0  0  0  0  0  0  0  0  0  0  0
   43.1904   25.0612   55.2312 C   0  0  1  0  0  0  0  0  0  0  0  0
   43.1203   25.7219   54.3285 H   0  0  0  0  0  0  0  0  0  0  0  0
   40.8596   23.5284   54.9479 H   0  0  0  0  0  0  0  0  0  0  0  0
   41.6145   22.2392   54.0275 H   0  0  0  0  0  0  0  0  0  0  0  0
   42.3619   20.3924   52.7487 H   0  0  0  0  0  0  0  0  0  0  0  0
   46.0870   23.3901   57.4165 H   0  0  0  0  0  0  0  0  0  0  0  0
   46.6009   24.3579   54.5156 H   0  0  0  0  0  0  0  0  0  0  0  0
   42.4241   25.3523   55.9753 H   0  0  0  0  0  0  0  0  0  0  0  0
  2  1  1  0
  3  2  1  0
  4  5  2  0
  4  3  1  0
  6  5  1  0
  7  6  2  0
  8  7  1  0
  8  9  2  0
  9  4  1  0
 10 11  2  0
 10 12  1  0
 12  8  1  0
 13  1  1  0
 13 14  1  0
 16 14  1  0
 16 15  2  0
 17 16  1  0
 18 17  2  0
 18 22  1  0
 19 20  1  0
 19 18  1  0
 20 21  2  0
 21 22  1  0
 22 23  2  0
 23 15  1  0
  1 24  1  0
  1 25  1  0
  2 26  1  0
  2 27  1  0
  5 28  1  0
  6 29  1  0
 10 30  1  0
 12 31  1  0
 13 32  1  0
 13 33  1  0
 15 34  1  0
 17 35  1  0
 19 36  1  0
 20 37  1  0
 21 38  1  0
 39 40  1  0
 40 41  2  0
 41 42  1  0
 42 43  2  0
 42 44  1  0
 41 45  1  0
 45 46  1  0
 46 47  2  0
 46 48  1  0
 48 49  1  1
 48 50  1  0
 50 51  1  0
 51 52  1  0
 52 53  1  6
 52 40  1  0
 50 45  1  0
 39 54  1  0
 39 55  1  0
 44 56  1  0
 48 57  1  0
 50 58  1  6
 52 59  1  0
 23 39  1  0
M  ISO  8  24   8  25   8  26   8  27   8  28  14  29  14  30   6  32   8
M  ISO  8  33   8  34  14  35  14  36   9  37  14  38  14  49  15  53  15
M  END
>  <DihAtoms>  (1) 
21,22,38,39

>  <DihDeg>  (1) 
-81.51707829313031

$$$$
