
 OpenBabel03272507093D

 34 37  0  0  1  0  0  0  0  0999 V2000
   35.8830   29.1910   49.8160 C   0  0  0  0  0  0  0  0  0  0  0  0
   34.9290   29.6390   50.6990 C   0  0  0  0  0  0  0  0  0  0  0  0
   33.7020   29.1390   50.2280 C   0  0  0  0  0  0  0  0  0  0  0  0
   34.0000   28.4200   49.0850 C   0  0  0  0  0  0  0  0  0  0  0  0
   35.2890   28.4880   48.8970 O   0  0  0  0  0  0  0  0  0  0  0  0
   35.0750   30.2580   51.5920 H   0  0  0  0  0  0  0  0  0  0  0  0
   32.7230   29.3030   50.6940 H   0  0  0  0  0  0  0  0  0  0  0  0
   37.2860   29.5180   49.9870 C   0  0  0  0  0  0  0  0  0  0  0  0
   37.9620   28.8800   50.8270 O   0  0  0  0  0  0  0  0  0  0  0  0
   37.8340   30.5760   49.1700 C   0  0  0  0  0  0  0  0  0  0  0  0
   38.1610   31.7700   49.7970 C   0  0  0  0  0  0  0  0  0  0  0  0
   38.6900   32.8070   49.0410 C   0  0  0  0  0  0  0  0  0  0  0  0
   38.8650   32.5930   47.7020 N   0  0  0  0  0  0  0  0  0  0  0  0
   38.5400   31.4250   47.1110 C   0  0  0  0  0  0  0  0  0  0  0  0
   38.0310   30.4280   47.8370 N   0  0  0  0  0  0  0  0  0  0  0  0
   38.0260   31.9430   50.8520 H   0  0  0  0  0  0  0  0  0  0  0  0
   38.9540   33.7490   49.5030 H   0  0  0  0  0  0  0  0  0  0  0  0
   38.7010   31.3070   46.0290 H   0  0  0  0  0  0  0  0  0  0  0  0
   32.9290   27.7350   48.3010 C   0  0  0  0  0  2  0  0  0  0  0  0
   33.2550   27.9210   46.8760 C   0  0  0  0  0  0  0  0  0  0  0  0
   33.7110   26.9760   46.0860 C   0  0  0  0  0  0  0  0  0  0  0  0
   33.9760   27.2870   44.7320 N   0  0  0  0  0  0  0  0  0  0  0  0
   34.8600   27.1300   43.6030 C   0  0  0  0  0  0  0  0  0  0  0  0
   35.8540   26.3940   43.2910 O   0  0  0  0  0  0  0  0  0  0  0  0
   34.1940   28.1960   42.8330 C   0  0  0  0  0  3  0  0  0  0  0  0
   33.8890   27.9140   41.8000 H   0  0  0  0  0  0  0  0  0  0  0  0
   33.1300   28.1170   43.8770 C   0  0  2  0  0  3  0  0  0  0  0  0
   32.9250   29.6840   44.7860 S   0  0  0  0  0  0  0  0  0  0  0  0
   32.9820   29.3410   46.5650 C   0  0  0  0  0  3  0  0  0  0  0  0
   31.9740   29.6750   46.9490 H   0  0  0  0  0  0  0  0  0  0  0  0
   33.9550   25.5890   46.5400 C   0  0  0  0  0  0  0  0  0  0  0  0
   33.4790   24.8510   47.4180 O   0  0  0  0  0  0  0  0  0  0  0  0
   34.8960   24.7640   45.9750 O   0  0  0  0  0  0  0  0  0  0  0  0
   35.5800   24.2740   46.5350 H   0  0  0  0  0  0  0  0  0  0  0  0
  1  8  1  0  0  0  0
  1  2  2  0  0  0  0
  2  6  1  0  0  0  0
  3  7  1  0  0  0  0
  3  2  1  0  0  0  0
  4  3  2  0  0  0  0
  5  4  1  0  0  0  0
  5  1  1  0  0  0  0
  8  9  2  0  0  0  0
 10 11  1  0  0  0  0
 10  8  1  0  0  0  0
 11 16  1  0  0  0  0
 12 17  1  0  0  0  0
 12 11  2  0  0  0  0
 13 12  1  0  0  0  0
 14 13  2  0  0  0  0
 14 15  1  0  0  0  0
 15 10  2  0  0  0  0
 18 14  1  0  0  0  0
 19  4  1  0  0  0  0
 20 19  1  0  0  0  0
 21 31  1  0  0  0  0
 21 20  2  0  0  0  0
 22 21  1  0  0  0  0
 23 22  1  0  0  0  0
 24 23  2  0  0  0  0
 25 23  1  0  0  0  0
 26 25  1  0  0  0  0
 27 25  1  6  0  0  0
 27 22  1  0  0  0  0
 27 28  1  0  0  0  0
 28 29  1  0  0  0  0
 29 20  1  0  0  0  0
 29 30  1  0  0  0  0
 31 32  2  0  0  0  0
 33 34  1  0  0  0  0
 33 31  1  0  0  0  0
M  END
>  <minimizedAffinity>
-5.15558958

>  <minimizedRMSD>
1.67913747

$$$$
