
 OpenBabel03262521233D

 54 58  0  0  1  0  0  0  0  0999 V2000
   39.9380   25.0930   53.3950 C   0  0  0  0  0  0  0  0  0  0  0  0
   39.6410   26.0980   52.4830 C   0  0  0  0  0  0  0  0  0  0  0  0
   40.2010   25.9320   51.2000 C   0  0  0  0  0  0  0  0  0  0  0  0
   40.9800   24.8730   50.8500 C   0  0  0  0  0  0  0  0  0  0  0  0
   41.6210   24.4790   49.7570 N   0  0  0  0  0  0  0  0  0  0  0  0
   42.2870   23.2870   49.9660 C   0  0  0  0  0  0  0  0  0  0  0  0
   42.0290   22.9240   51.3050 C   0  0  0  0  0  0  0  0  0  0  0  0
   41.2330   23.9180   51.7980 C   0  0  0  0  0  0  0  0  0  0  0  0
   40.7200   24.0280   53.0460 C   0  0  0  0  0  0  0  0  0  0  0  0
   39.4630   25.3110   54.3460 H   0  0  0  0  0  0  0  0  0  0  0  0
   40.0340   26.6670   50.3960 H   0  0  0  0  0  0  0  0  0  0  0  0
   41.6150   25.0130   48.8530 H   0  0  0  0  0  0  0  0  0  0  0  0
   42.8700   22.7690   49.2450 H   0  0  0  0  0  0  0  0  0  0  0  0
   42.4600   22.0180   51.6880 H   0  0  0  0  0  0  0  0  0  0  0  0
   38.6640   27.5490   52.6980 S   0  0  0  0  0  0  0  0  0  0  0  0
   38.0220   28.2600   51.2010 C   0  0  0  0  0  0  0  0  0  0  0  0
   38.8950   28.6790   50.6280 H   0  0  0  0  0  0  0  0  0  0  0  0
   37.5980   27.4660   50.5480 H   0  0  0  0  0  0  0  0  0  0  0  0
   37.0310   29.3840   51.4200 C   0  0  0  0  0  0  0  0  0  0  0  0
   36.0460   28.9900   51.0770 H   0  0  0  0  0  0  0  0  0  0  0  0
   36.9050   29.4350   52.5440 H   0  0  0  0  0  0  0  0  0  0  0  0
   37.4180   30.5730   50.8850 C   0  0  0  0  0  0  0  0  0  0  0  0
   38.4560   30.8960   51.1960 H   0  0  0  0  0  0  0  0  0  0  0  0
   36.7270   31.4320   51.0200 H   0  0  0  0  0  0  0  0  0  0  0  0
   37.4520   30.2020   49.5640 O   0  0  0  0  0  0  0  0  0  0  0  0
   38.0740   31.0340   48.6790 C   0  0  0  0  0  0  0  0  0  0  0  0
   38.3730   32.2660   49.2080 C   0  0  0  0  0  0  0  0  0  0  0  0
   39.0170   33.2200   48.3980 C   0  0  0  0  0  0  0  0  0  0  0  0
   39.3100   32.8540   47.1200 N   0  0  0  0  0  0  0  0  0  0  0  0
   39.0000   31.6160   46.6190 C   0  0  0  0  0  0  0  0  0  0  0  0
   38.3830   30.7210   47.4160 N   0  0  0  0  0  0  0  0  0  0  0  0
   39.9530   32.4170   44.5820 C   0  0  0  0  0  0  0  0  0  0  0  0
   40.1930   33.5600   45.0580 O   0  0  0  0  0  0  0  0  0  0  0  0
   39.3490   31.3380   45.2740 N   0  0  0  0  0  0  0  0  0  0  0  0
   38.1920   32.6680   50.1950 H   0  0  0  0  0  0  0  0  0  0  0  0
   39.2890   34.2010   48.7170 H   0  0  0  0  0  0  0  0  0  0  0  0
   40.2680   32.3250   43.5360 H   0  0  0  0  0  0  0  0  0  0  0  0
   39.1800   30.4310   44.8330 H   0  0  0  0  0  0  0  0  0  0  0  0
   40.8480   23.0910   54.1940 C   0  0  0  0  0  2  0  0  0  0  0  0
   42.0830   23.2650   54.9960 C   0  0  0  0  0  0  0  0  0  0  0  0
   42.8850   22.2050   55.0970 C   0  0  0  0  0  0  0  0  0  0  0  0
   44.1060   22.0550   55.7740 N   0  0  0  0  0  0  0  0  0  0  0  0
   45.1210   21.2710   56.3830 C   0  0  0  0  0  0  0  0  0  0  0  0
   45.5420   20.1000   56.1080 O   0  0  0  0  0  0  0  0  0  0  0  0
   45.3410   22.3990   57.3300 C   0  0  0  0  0  3  0  0  0  0  0  0
   46.3820   22.5900   57.6340 H   0  0  0  0  0  0  0  0  0  0  0  0
   44.8730   23.2070   56.1130 C   0  0  2  0  0  3  0  0  0  0  0  0
   43.8260   24.5500   56.6790 S   0  0  0  0  0  0  0  0  0  0  0  0
   42.3520   24.5760   55.6280 C   0  0  0  0  0  3  0  0  0  0  0  0
   42.5230   25.2840   54.7750 H   0  0  0  0  0  0  0  0  0  0  0  0
   42.4340   20.9810   54.3870 C   0  0  0  0  0  0  0  0  0  0  0  0
   43.1800   20.3990   53.5230 O   0  0  0  0  0  0  0  0  0  0  0  0
   41.7770   19.8760   53.8820 O   0  0  0  0  0  0  0  0  0  0  0  0
   40.8210   19.9210   53.5540 H   0  0  0  0  0  0  0  0  0  0  0  0
  1 10  1  0  0  0  0
  2 15  1  0  0  0  0
  2  1  2  0  0  0  0
  3  2  1  0  0  0  0
  4  3  2  0  0  0  0
  4  8  1  0  0  0  0
  5  6  1  0  0  0  0
  5  4  1  0  0  0  0
  6  7  2  0  0  0  0
  7 14  1  0  0  0  0
  7  8  1  0  0  0  0
  8  9  2  0  0  0  0
  9  1  1  0  0  0  0
  9 39  1  0  0  0  0
 11  3  1  0  0  0  0
 12  5  1  0  0  0  0
 13  6  1  0  0  0  0
 16 19  1  0  0  0  0
 16 15  1  0  0  0  0
 17 16  1  0  0  0  0
 18 16  1  0  0  0  0
 19 21  1  0  0  0  0
 20 19  1  0  0  0  0
 22 24  1  0  0  0  0
 22 23  1  0  0  0  0
 22 19  1  0  0  0  0
 25 22  1  0  0  0  0
 26 27  1  0  0  0  0
 26 25  1  0  0  0  0
 27 35  1  0  0  0  0
 28 36  1  0  0  0  0
 28 27  2  0  0  0  0
 29 28  1  0  0  0  0
 30 29  2  0  0  0  0
 30 31  1  0  0  0  0
 31 26  2  0  0  0  0
 32 33  2  0  0  0  0
 32 34  1  0  0  0  0
 34 30  1  0  0  0  0
 37 32  1  0  0  0  0
 38 34  1  0  0  0  0
 39 40  1  0  0  0  0
 40 41  2  0  0  0  0
 40 49  1  0  0  0  0
 41 42  1  0  0  0  0
 42 47  1  0  0  0  0
 42 43  1  0  0  0  0
 43 45  1  0  0  0  0
 44 43  2  0  0  0  0
 45 46  1  0  0  0  0
 47 48  1  1  0  0  0
 47 45  1  0  0  0  0
 49 48  1  0  0  0  0
 50 49  1  0  0  0  0
 51 41  1  0  0  0  0
 52 51  2  0  0  0  0
 53 51  1  0  0  0  0
 54 53  1  0  0  0  0
M  END
>  <minimizedAffinity>
-4.32373285

>  <minimizedRMSD>
2.31516528

$$$$
