
 OpenBabel03272507423D

 48 52  0  0  1  0  0  0  0  0999 V2000
   36.4540   30.5430   49.2200 C   0  0  0  0  0  0  0  0  0  0  0  0
   35.2630   29.9100   49.5570 C   0  0  0  0  0  0  0  0  0  0  0  0
   35.1050   29.3060   50.7900 C   0  0  0  0  0  0  0  0  0  0  0  0
   36.1500   29.3490   51.6590 N   0  0  0  0  0  0  0  0  0  0  0  0
   37.3160   29.9770   51.3050 C   0  0  0  0  0  0  0  0  0  0  0  0
   37.4370   30.5470   50.1200 N   0  0  0  0  0  0  0  0  0  0  0  0
   34.2190   28.7940   51.1360 H   0  0  0  0  0  0  0  0  0  0  0  0
   38.1440   30.0040   52.0100 H   0  0  0  0  0  0  0  0  0  0  0  0
   33.7550   28.5590   48.1580 C   0  0  0  0  0  0  0  0  0  0  0  0
   34.3620   27.4220   48.0970 O   0  0  0  0  0  0  0  0  0  0  0  0
   34.1230   29.7880   48.7570 N   0  0  0  0  0  0  0  0  0  0  0  0
   33.6170   30.6870   48.6780 H   0  0  0  0  0  0  0  0  0  0  0  0
   29.7020   27.8020   44.7740 C   0  0  0  0  0  0  0  0  0  0  0  0
   30.7140   28.6360   44.6260 C   0  0  0  0  0  0  0  0  0  0  0  0
   31.6760   28.8030   45.6290 N   0  0  0  0  0  0  0  0  0  0  0  0
   32.4880   29.6650   46.4560 C   0  0  0  0  0  0  0  0  0  0  0  0
   32.9490   30.8200   46.2610 O   0  0  0  0  0  0  0  0  0  0  0  0
   32.4350   28.5400   47.4650 C   0  0  1  0  0  3  0  0  0  0  0  0
   32.2750   27.6320   46.2960 C   0  0  1  0  0  3  0  0  0  0  0  0
   31.0340   26.3620   46.5990 S   0  0  0  0  0  0  0  0  0  0  0  0
   29.4600   26.9820   45.9810 C   0  0  0  0  0  3  0  0  0  0  0  0
   28.9650   27.6630   46.7160 H   0  0  0  0  0  0  0  0  0  0  0  0
   28.7660   27.7160   43.6450 C   0  0  0  0  0  2  0  0  0  0  0  0
   28.1090   28.6120   43.7080 H   0  0  0  0  0  0  0  0  0  0  0  0
   30.8220   29.3890   43.3850 C   0  0  0  0  0  0  0  0  0  0  0  0
   31.7570   30.1550   43.0540 O   0  0  0  0  0  0  0  0  0  0  0  0
   30.6430   29.9640   42.1420 O   0  0  0  0  0  0  0  0  0  0  0  0
   29.7610   29.8760   41.6220 H   0  0  0  0  0  0  0  0  0  0  0  0
   36.4180   31.0740   47.9770 O   0  0  0  0  0  0  0  0  0  0  0  0
   37.8570   31.4500   45.9980 C   0  0  0  0  0  0  0  0  0  0  0  0
   37.5130   31.6220   47.3220 C   0  0  0  0  0  0  0  0  0  0  0  0
   38.2940   32.4110   48.1510 C   0  0  0  0  0  0  0  0  0  0  0  0
   39.4320   33.0280   47.6290 C   0  0  0  0  0  0  0  0  0  0  0  0
   39.7670   32.8510   46.3040 C   0  0  0  0  0  0  0  0  0  0  0  0
   38.9650   32.0610   45.5180 C   0  0  0  0  0  0  0  0  0  0  0  0
   38.0890   32.5920   49.1980 H   0  0  0  0  0  0  0  0  0  0  0  0
   40.0430   33.6440   48.2750 H   0  0  0  0  0  0  0  0  0  0  0  0
   40.6460   33.3180   45.8710 H   0  0  0  0  0  0  0  0  0  0  0  0
   39.3370   31.8770   44.0940 C   0  0  0  0  0  0  0  0  0  0  0  0
   40.1810   30.9680   43.5230 C   0  0  0  0  0  0  0  0  0  0  0  0
   40.1950   31.2030   42.1500 C   0  0  0  0  0  0  0  0  0  0  0  0
   39.3380   32.2650   41.9730 C   0  0  0  0  0  0  0  0  0  0  0  0
   38.8370   32.6530   43.1360 O   0  0  0  0  0  0  0  0  0  0  0  0
   40.7000   30.2330   44.1250 H   0  0  0  0  0  0  0  0  0  0  0  0
   40.7900   30.6120   41.4800 H   0  0  0  0  0  0  0  0  0  0  0  0
   39.1280   32.6970   41.0020 H   0  0  0  0  0  0  0  0  0  0  0  0
   36.2980   29.9700   44.5760 N   0  0  0  0  0  0  0  0  0  0  0  0
   36.9950   30.6220   45.2180 C   0  0  0  0  0  0  0  0  0  0  0  0
  1  2  2  0  0  0  0
  1  6  1  0  0  0  0
  2  3  1  0  0  0  0
  3  7  1  0  0  0  0
  3  4  2  0  0  0  0
  5  4  1  0  0  0  0
  5  8  1  0  0  0  0
  6  5  2  0  0  0  0
  9 11  1  0  0  0  0
 10  9  2  0  0  0  0
 11  2  1  0  0  0  0
 12 11  1  0  0  0  0
 13 21  1  0  0  0  0
 14 13  2  0  0  0  0
 14 15  1  0  0  0  0
 15 19  1  0  0  0  0
 15 16  1  0  0  0  0
 16 18  1  0  0  0  0
 17 16  2  0  0  0  0
 18  9  1  6  0  0  0
 19 20  1  1  0  0  0
 19 18  1  0  0  0  0
 21 20  1  0  0  0  0
 21 22  1  0  0  0  0
 23 24  1  0  0  0  0
 23 13  1  0  0  0  0
 25 14  1  0  0  0  0
 26 25  2  0  0  0  0
 27 25  1  0  0  0  0
 28 27  1  0  0  0  0
 29  1  1  0  0  0  0
 30 31  1  0  0  0  0
 31 29  1  0  0  0  0
 31 32  2  0  0  0  0
 32 36  1  0  0  0  0
 33 32  1  0  0  0  0
 33 37  1  0  0  0  0
 34 33  2  0  0  0  0
 35 30  2  0  0  0  0
 35 34  1  0  0  0  0
 38 34  1  0  0  0  0
 39 35  1  0  0  0  0
 40 39  2  0  0  0  0
 40 44  1  0  0  0  0
 41 40  1  0  0  0  0
 42 41  2  0  0  0  0
 42 43  1  0  0  0  0
 43 39  1  0  0  0  0
 45 41  1  0  0  0  0
 46 42  1  0  0  0  0
 47 48  3  0  0  0  0
 48 30  1  0  0  0  0
M  END
>  <minimizedAffinity>
-6.22199869

>  <minimizedRMSD>
2.4425056

$$$$
