REMARK  Name = 
REMARK  8 active torsions:
REMARK  status: ('A' for Active; 'I' for Inactive)
REMARK    1  A    between atoms: C_1  and  C_7
REMARK    2  A    between atoms: C_2  and  C_14
REMARK    3  A    between atoms: C_5  and  C_9
REMARK    4  A    between atoms: C_14  and  C_15
REMARK    5  A    between atoms: C_20  and  C_34
REMARK    6  A    between atoms: C_34  and  C_35
REMARK    7  A    between atoms: C_36  and  C_37
REMARK    8  A    between atoms: C_37  and  O_39
REMARK                            x       y       z     vdW  Elec       q    Type
REMARK                         _______ _______ _______ _____ _____    ______ ____
ROOT
ATOM      1  C   UNL     1      33.593  26.958  46.893  0.00  0.00    +0.000 A 
ATOM      2  C   UNL     1      33.776  25.643  47.318  0.00  0.00    +0.000 A 
ATOM      3  C   UNL     1      34.190  24.643  46.450  0.00  0.00    +0.000 A 
ATOM      4  C   UNL     1      34.435  24.939  45.113  0.00  0.00    +0.000 A 
ATOM      5  C   UNL     1      34.253  26.230  44.708  0.00  0.00    +0.000 A 
ATOM      6  C   UNL     1      33.843  27.232  45.557  0.00  0.00    +0.000 A 
ATOM      7  H   UNL     1      33.569  25.466  48.377  0.00  0.00    +0.000 HD
ATOM      8  H   UNL     1      34.292  23.673  46.907  0.00  0.00    +0.000 HD
ATOM      9  H   UNL     1      34.756  24.132  44.472  0.00  0.00    +0.000 HD
ATOM     10  H   UNL     1      34.455  26.423  43.647  0.00  0.00    +0.000 HD
ENDROOT
BRANCH   1  11
ATOM     11  C   UNL     1      33.160  28.040  47.806  0.00  0.00    +0.000 C 
ATOM     12  H   UNL     1      32.409  28.721  47.387  0.00  0.00    +0.000 HD
ATOM     13  H   UNL     1      32.634  27.520  48.662  0.00  0.00    +0.000 HD
BRANCH  11  15
ATOM     14  C   UNL     1      35.009  28.379  49.460  0.00  0.00    +0.000 C 
ATOM     15  C   UNL     1      34.288  28.763  48.442  0.00  0.00    +0.000 C 
BRANCH  14  20
ATOM     16  C   UNL     1      37.390  30.164  51.574  0.00  0.00    +0.000 A 
ATOM     17  C   UNL     1      38.090  30.935  50.629  0.00  0.00    +0.000 A 
ATOM     18  C   UNL     1      37.719  30.819  49.270  0.00  0.00    +0.000 A 
ATOM     19  N   UNL     1      36.695  29.959  48.945  0.00  0.00    +0.000 NA
ATOM     20  C   UNL     1      36.070  29.250  49.919  0.00  0.00    +0.000 A 
ATOM     21  N   UNL     1      36.404  29.345  51.208  0.00  0.00    +0.000 NA
ATOM     22  H   UNL     1      37.756  30.334  52.570  0.00  0.00    +0.000 HD
ATOM     23  H   UNL     1      38.886  31.622  50.765  0.00  0.00    +0.000 HD
BRANCH  18  24
ATOM     24  C   UNL     1      38.377  31.573  48.203  0.00  0.00    +0.000 A 
ATOM     25  C   UNL     1      38.590  31.039  46.945  0.00  0.00    +0.000 A 
ATOM     26  C   UNL     1      39.236  32.019  46.180  0.00  0.00    +0.000 A 
ATOM     27  N   UNL     1      39.385  33.094  46.999  0.00  0.00    +0.000 N 
ATOM     28  N   UNL     1      38.871  32.817  48.200  0.00  0.00    +0.000 NA
ATOM     29  H   UNL     1      38.358  30.079  46.507  0.00  0.00    +0.000 HD
ATOM     30  H   UNL     1      39.554  31.949  45.154  0.00  0.00    +0.000 HD
ATOM     31  H   UNL     1      39.844  33.970  46.666  0.00  0.00    +0.000 HD
ENDBRANCH  18  24
ENDBRANCH  14  20
ENDBRANCH  11  15
ENDBRANCH   1  11
BRANCH   6  32
ATOM     32  C   UNL     1      33.736  28.561  44.992  0.00  0.00    +0.000 C 
BRANCH  32  33
ATOM     33  C   UNL     1      32.450  29.147  44.681  0.00  0.00    +0.000 C 
ATOM     34  C   UNL     1      31.215  28.657  44.732  0.00  0.00    +0.000 C 
ATOM     35  N   UNL     1      30.027  29.355  44.381  0.00  0.00    +0.000 N 
ATOM     36  C   UNL     1      28.647  29.630  44.496  0.00  0.00    +0.000 C 
ATOM     37  O   UNL     1      27.680  29.062  45.069  0.00  0.00    +0.000 OA
ATOM     38  C   UNL     1      28.682  30.854  43.696  0.00  0.00    +0.000 C 
ATOM     39  H   UNL     1      27.964  30.898  42.851  0.00  0.00    +0.000 HD
ATOM     40  C   UNL     1      30.062  30.392  43.361  0.00  0.00    +0.000 C 
ATOM     41  S   UNL     1      31.297  31.573  43.967  0.00  0.00    +0.000 S 
ATOM     42  C   UNL     1      32.703  30.525  44.256  0.00  0.00    +0.000 C 
ATOM     43  H   UNL     1      33.474  31.010  44.908  0.00  0.00    +0.000 HD
BRANCH  34  44
ATOM     44  C   UNL     1      31.039  27.275  45.175  0.00  0.00    +0.000 C 
ATOM     45  O   UNL     1      29.880  26.776  45.245  0.00  0.00    +0.000 OA
BRANCH  44  46
ATOM     46  O   UNL     1      30.877  25.966  45.595  0.00  0.00    +0.000 OA
ATOM     47  H   UNL     1      31.601  25.247  45.415  0.00  0.00    +0.000 HD
ENDBRANCH  44  46
ENDBRANCH  34  44
ENDBRANCH  32  33
ENDBRANCH   6  32
TORSDOF 8
