
 OpenBabel03272507443D

 48 52  0  0  1  0  0  0  0  0999 V2000
   36.1910   28.8510   32.4050 C   0  0  0  0  0  0  0  0  0  0  0  0
   37.3990   28.1990   32.1900 C   0  0  0  0  0  0  0  0  0  0  0  0
   38.0280   28.2580   30.9600 C   0  0  0  0  0  0  0  0  0  0  0  0
   37.4270   28.9720   29.9710 N   0  0  0  0  0  0  0  0  0  0  0  0
   36.2340   29.6050   30.2060 C   0  0  0  0  0  0  0  0  0  0  0  0
   35.6580   29.5310   31.3910 N   0  0  0  0  0  0  0  0  0  0  0  0
   38.9660   27.7860   30.7050 H   0  0  0  0  0  0  0  0  0  0  0  0
   35.7640   30.1720   29.4050 H   0  0  0  0  0  0  0  0  0  0  0  0
   38.2010   26.0220   33.0100 C   0  0  0  0  0  0  0  0  0  0  0  0
   37.6180   25.1850   32.2190 O   0  0  0  0  0  0  0  0  0  0  0  0
   38.1140   27.4310   33.1140 N   0  0  0  0  0  0  0  0  0  0  0  0
   38.5470   28.0220   33.8450 H   0  0  0  0  0  0  0  0  0  0  0  0
   40.6170   22.6510   36.3660 C   0  0  0  0  0  0  0  0  0  0  0  0
   39.5370   23.3710   36.6040 C   0  0  0  0  0  0  0  0  0  0  0  0
   39.0460   24.2860   35.6660 N   0  0  0  0  0  0  0  0  0  0  0  0
   38.5350   25.5980   35.3410 C   0  0  0  0  0  0  0  0  0  0  0  0
   37.8980   26.4400   36.0260 O   0  0  0  0  0  0  0  0  0  0  0  0
   39.1240   25.3520   33.9710 C   0  0  1  0  0  3  0  0  0  0  0  0
   38.9110   23.9050   34.2470 C   0  0  1  0  0  3  0  0  0  0  0  0
   40.3140   22.9070   33.7150 S   0  0  0  0  0  0  0  0  0  0  0  0
   41.4200   22.7300   35.1260 C   0  0  0  0  0  3  0  0  0  0  0  0
   42.0820   23.6220   35.2500 H   0  0  0  0  0  0  0  0  0  0  0  0
   41.0250   21.7260   37.4310 C   0  0  0  0  0  2  0  0  0  0  0  0
   41.5380   22.3390   38.2050 H   0  0  0  0  0  0  0  0  0  0  0  0
   38.8500   23.1970   37.8760 C   0  0  0  0  0  0  0  0  0  0  0  0
   38.2210   24.0750   38.5120 O   0  0  0  0  0  0  0  0  0  0  0  0
   38.3040   22.7310   39.0550 O   0  0  0  0  0  0  0  0  0  0  0  0
   38.5260   21.8000   39.4280 H   0  0  0  0  0  0  0  0  0  0  0  0
   35.7330   28.6780   33.6660 O   0  0  0  0  0  0  0  0  0  0  0  0
   33.9390   30.0890   34.6260 C   0  0  0  0  0  0  0  0  0  0  0  0
   35.2530   29.6980   34.4770 C   0  0  0  0  0  0  0  0  0  0  0  0
   36.2590   30.3440   35.1780 C   0  0  0  0  0  0  0  0  0  0  0  0
   35.9250   31.3940   36.0350 C   0  0  0  0  0  0  0  0  0  0  0  0
   34.6090   31.7770   36.1770 C   0  0  0  0  0  0  0  0  0  0  0  0
   33.6450   31.1100   35.4640 C   0  0  0  0  0  0  0  0  0  0  0  0
   37.3100   30.0950   35.1130 H   0  0  0  0  0  0  0  0  0  0  0  0
   36.7100   31.9000   36.5820 H   0  0  0  0  0  0  0  0  0  0  0  0
   34.3210   32.5900   36.8360 H   0  0  0  0  0  0  0  0  0  0  0  0
   32.2320   31.5320   35.6250 C   0  0  0  0  0  0  0  0  0  0  0  0
   31.3470   31.2570   36.6290 C   0  0  0  0  0  0  0  0  0  0  0  0
   30.1420   31.8840   36.3200 C   0  0  0  0  0  0  0  0  0  0  0  0
   30.3790   32.5120   35.1190 C   0  0  0  0  0  0  0  0  0  0  0  0
   31.6230   32.2940   34.7200 O   0  0  0  0  0  0  0  0  0  0  0  0
   31.6370   30.6480   37.4760 H   0  0  0  0  0  0  0  0  0  0  0  0
   29.2860   31.8140   36.9630 H   0  0  0  0  0  0  0  0  0  0  0  0
   29.6270   33.0960   34.6010 H   0  0  0  0  0  0  0  0  0  0  0  0
   32.1780   28.8020   33.2550 N   0  0  0  0  0  0  0  0  0  0  0  0
   32.9700   29.3680   33.8670 C   0  0  0  0  0  0  0  0  0  0  0  0
  1 29  1  0  0  0  0
  2  1  1  0  0  0  0
  2 11  1  0  0  0  0
  3  2  2  0  0  0  0
  4  5  2  0  0  0  0
  4  3  1  0  0  0  0
  5  6  1  0  0  0  0
  6  1  2  0  0  0  0
  7  3  1  0  0  0  0
  8  5  1  0  0  0  0
  9 11  1  0  0  0  0
 10  9  2  0  0  0  0
 11 12  1  0  0  0  0
 13 14  2  0  0  0  0
 13 23  1  0  0  0  0
 14 25  1  0  0  0  0
 15 14  1  0  0  0  0
 16 15  1  0  0  0  0
 16 17  2  0  0  0  0
 18  9  1  6  0  0  0
 18 19  1  0  0  0  0
 18 16  1  0  0  0  0
 19 20  1  6  0  0  0
 19 15  1  0  0  0  0
 20 21  1  0  0  0  0
 21 22  1  0  0  0  0
 21 13  1  0  0  0  0
 23 24  1  0  0  0  0
 25 26  2  0  0  0  0
 25 27  1  0  0  0  0
 27 28  1  0  0  0  0
 29 31  1  0  0  0  0
 30 35  1  0  0  0  0
 31 30  2  0  0  0  0
 31 32  1  0  0  0  0
 32 33  2  0  0  0  0
 33 34  1  0  0  0  0
 33 37  1  0  0  0  0
 34 38  1  0  0  0  0
 35 39  1  0  0  0  0
 35 34  2  0  0  0  0
 36 32  1  0  0  0  0
 39 40  2  0  0  0  0
 40 44  1  0  0  0  0
 41 40  1  0  0  0  0
 41 45  1  0  0  0  0
 42 41  2  0  0  0  0
 43 42  1  0  0  0  0
 43 39  1  0  0  0  0
 46 42  1  0  0  0  0
 47 48  3  0  0  0  0
 48 30  1  0  0  0  0
M  END
>  <minimizedAffinity>
-6.77869654

$$$$

 OpenBabel03272507443D

 48 52  0  0  1  0  0  0  0  0999 V2000
   35.6490   29.5290   33.0610 C   0  0  0  0  0  0  0  0  0  0  0  0
   36.6720   28.7180   32.5830 C   0  0  0  0  0  0  0  0  0  0  0  0
   36.9850   28.6900   31.2370 C   0  0  0  0  0  0  0  0  0  0  0  0
   36.2610   29.4780   30.3980 N   0  0  0  0  0  0  0  0  0  0  0  0
   35.2560   30.2690   30.8910 C   0  0  0  0  0  0  0  0  0  0  0  0
   34.9800   30.2750   32.1820 N   0  0  0  0  0  0  0  0  0  0  0  0
   37.7620   28.0940   30.7790 H   0  0  0  0  0  0  0  0  0  0  0  0
   34.6840   30.8940   30.2090 H   0  0  0  0  0  0  0  0  0  0  0  0
   37.4420   26.4550   33.1680 C   0  0  0  0  0  0  0  0  0  0  0  0
   36.6630   25.6980   32.4700 O   0  0  0  0  0  0  0  0  0  0  0  0
   37.4820   27.8600   33.3330 N   0  0  0  0  0  0  0  0  0  0  0  0
   38.0830   28.3850   33.9920 H   0  0  0  0  0  0  0  0  0  0  0  0
   40.1600   22.7730   35.9090 C   0  0  0  0  0  0  0  0  0  0  0  0
   39.2020   23.5560   36.3660 C   0  0  0  0  0  0  0  0  0  0  0  0
   38.6200   24.5450   35.5640 N   0  0  0  0  0  0  0  0  0  0  0  0
   38.1610   25.9030   35.3820 C   0  0  0  0  0  0  0  0  0  0  0  0
   37.7270   26.7550   36.1990 O   0  0  0  0  0  0  0  0  0  0  0  0
   38.4690   25.6780   33.9190 C   0  0  1  0  0  3  0  0  0  0  0  0
   38.1990   24.2390   34.1840 C   0  0  1  0  0  3  0  0  0  0  0  0
   39.3990   23.1700   33.3700 S   0  0  0  0  0  0  0  0  0  0  0  0
   40.7280   22.8510   34.5440 C   0  0  0  0  0  3  0  0  0  0  0  0
   41.4680   23.6890   34.5720 H   0  0  0  0  0  0  0  0  0  0  0  0
   40.6830   21.7750   36.8500 C   0  0  0  0  0  2  0  0  0  0  0  0
   41.3750   22.3140   37.5340 H   0  0  0  0  0  0  0  0  0  0  0  0
   38.7460   23.3740   37.7370 C   0  0  0  0  0  0  0  0  0  0  0  0
   38.1920   24.2330   38.4620 O   0  0  0  0  0  0  0  0  0  0  0  0
   38.4290   22.9040   38.9960 O   0  0  0  0  0  0  0  0  0  0  0  0
   38.7540   21.9900   39.3350 H   0  0  0  0  0  0  0  0  0  0  0  0
   35.4930   29.4210   34.4000 O   0  0  0  0  0  0  0  0  0  0  0  0
   34.4570   31.2570   35.6980 C   0  0  0  0  0  0  0  0  0  0  0  0
   34.4600   30.0040   35.1220 C   0  0  0  0  0  0  0  0  0  0  0  0
   33.3520   29.1800   35.2330 C   0  0  0  0  0  0  0  0  0  0  0  0
   32.2340   29.6350   35.9350 C   0  0  0  0  0  0  0  0  0  0  0  0
   32.2400   30.8880   36.5060 C   0  0  0  0  0  0  0  0  0  0  0  0
   33.3590   31.6720   36.3720 C   0  0  0  0  0  0  0  0  0  0  0  0
   33.2800   28.1870   34.8100 H   0  0  0  0  0  0  0  0  0  0  0  0
   31.3680   28.9920   36.0220 H   0  0  0  0  0  0  0  0  0  0  0  0
   31.3850   31.2670   37.0570 H   0  0  0  0  0  0  0  0  0  0  0  0
   33.3540   33.0190   36.9920 C   0  0  0  0  0  0  0  0  0  0  0  0
   32.5110   34.0730   36.7830 C   0  0  0  0  0  0  0  0  0  0  0  0
   32.9220   35.1180   37.6080 C   0  0  0  0  0  0  0  0  0  0  0  0
   34.0140   34.6180   38.2790 C   0  0  0  0  0  0  0  0  0  0  0  0
   34.2570   33.3720   37.9030 O   0  0  0  0  0  0  0  0  0  0  0  0
   31.6940   34.0030   36.0760 H   0  0  0  0  0  0  0  0  0  0  0  0
   32.4120   36.0630   37.6230 H   0  0  0  0  0  0  0  0  0  0  0  0
   34.5720   35.1940   39.0080 H   0  0  0  0  0  0  0  0  0  0  0  0
   36.6040   32.6500   35.4000 N   0  0  0  0  0  0  0  0  0  0  0  0
   35.6400   32.0380   35.5330 C   0  0  0  0  0  0  0  0  0  0  0  0
  1 29  1  0  0  0  0
  2  1  1  0  0  0  0
  2 11  1  0  0  0  0
  3  2  2  0  0  0  0
  4  5  2  0  0  0  0
  4  3  1  0  0  0  0
  5  6  1  0  0  0  0
  6  1  2  0  0  0  0
  7  3  1  0  0  0  0
  8  5  1  0  0  0  0
  9 11  1  0  0  0  0
 10  9  2  0  0  0  0
 11 12  1  0  0  0  0
 13 14  2  0  0  0  0
 13 23  1  0  0  0  0
 14 25  1  0  0  0  0
 15 14  1  0  0  0  0
 16 15  1  0  0  0  0
 16 17  2  0  0  0  0
 18  9  1  6  0  0  0
 18 19  1  0  0  0  0
 18 16  1  0  0  0  0
 19 20  1  6  0  0  0
 19 15  1  0  0  0  0
 20 21  1  0  0  0  0
 21 22  1  0  0  0  0
 21 13  1  0  0  0  0
 23 24  1  0  0  0  0
 25 26  2  0  0  0  0
 25 27  1  0  0  0  0
 27 28  1  0  0  0  0
 29 31  1  0  0  0  0
 30 35  1  0  0  0  0
 31 32  1  0  0  0  0
 31 30  2  0  0  0  0
 32 33  2  0  0  0  0
 33 37  1  0  0  0  0
 33 34  1  0  0  0  0
 34 38  1  0  0  0  0
 35 34  2  0  0  0  0
 35 39  1  0  0  0  0
 36 32  1  0  0  0  0
 39 43  1  0  0  0  0
 40 39  2  0  0  0  0
 40 41  1  0  0  0  0
 41 45  1  0  0  0  0
 41 42  2  0  0  0  0
 42 46  1  0  0  0  0
 43 42  1  0  0  0  0
 44 40  1  0  0  0  0
 47 48  3  0  0  0  0
 48 30  1  0  0  0  0
M  END
>  <minimizedAffinity>
-6.52401447

$$$$

 OpenBabel03272507443D

 48 52  0  0  1  0  0  0  0  0999 V2000
   36.1170   24.0150   31.9850 C   0  0  0  0  0  0  0  0  0  0  0  0
   36.9720   25.0870   32.2120 C   0  0  0  0  0  0  0  0  0  0  0  0
   36.7070   26.3320   31.6720 C   0  0  0  0  0  0  0  0  0  0  0  0
   35.5870   26.4730   30.9150 N   0  0  0  0  0  0  0  0  0  0  0  0
   34.7590   25.4010   30.7030 C   0  0  0  0  0  0  0  0  0  0  0  0
   35.0370   24.2240   31.2320 N   0  0  0  0  0  0  0  0  0  0  0  0
   37.3130   27.2190   31.7970 H   0  0  0  0  0  0  0  0  0  0  0  0
   33.8660   25.5280   30.0950 H   0  0  0  0  0  0  0  0  0  0  0  0
   38.2030   25.5520   34.2910 C   0  0  0  0  0  0  0  0  0  0  0  0
   37.3230   26.1580   35.0160 O   0  0  0  0  0  0  0  0  0  0  0  0
   38.1530   25.0750   32.9600 N   0  0  0  0  0  0  0  0  0  0  0  0
   38.9420   24.6810   32.4170 H   0  0  0  0  0  0  0  0  0  0  0  0
   42.9540   23.8170   35.9880 C   0  0  0  0  0  0  0  0  0  0  0  0
   41.7870   23.2220   36.1490 C   0  0  0  0  0  0  0  0  0  0  0  0
   40.5950   23.8230   35.7280 N   0  0  0  0  0  0  0  0  0  0  0  0
   39.2220   24.1970   35.9790 C   0  0  0  0  0  0  0  0  0  0  0  0
   38.3370   23.6850   36.7100 O   0  0  0  0  0  0  0  0  0  0  0  0
   39.4870   25.3320   35.0170 C   0  0  1  0  0  3  0  0  0  0  0  0
   40.4970   24.4370   34.3910 C   0  0  1  0  0  3  0  0  0  0  0  0
   42.0120   25.3190   33.9780 S   0  0  0  0  0  0  0  0  0  0  0  0
   43.1370   25.1510   35.3750 C   0  0  0  0  0  3  0  0  0  0  0  0
   42.9090   25.8890   36.1830 H   0  0  0  0  0  0  0  0  0  0  0  0
   44.1280   23.0780   36.4690 C   0  0  0  0  0  2  0  0  0  0  0  0
   44.1540   23.2080   37.5740 H   0  0  0  0  0  0  0  0  0  0  0  0
   41.7550   21.9100   36.7790 C   0  0  0  0  0  0  0  0  0  0  0  0
   41.1230   21.5920   37.8130 O   0  0  0  0  0  0  0  0  0  0  0  0
   41.9220   20.5860   37.1360 O   0  0  0  0  0  0  0  0  0  0  0  0
   42.6120   19.9800   36.6760 H   0  0  0  0  0  0  0  0  0  0  0  0
   36.5410   22.8840   32.5930 O   0  0  0  0  0  0  0  0  0  0  0  0
   37.0460   21.0040   31.0630 C   0  0  0  0  0  0  0  0  0  0  0  0
   36.3520   21.6020   32.0930 C   0  0  0  0  0  0  0  0  0  0  0  0
   35.3430   20.9150   32.7490 C   0  0  0  0  0  0  0  0  0  0  0  0
   35.0400   19.6110   32.3540 C   0  0  0  0  0  0  0  0  0  0  0  0
   35.7390   19.0220   31.3230 C   0  0  0  0  0  0  0  0  0  0  0  0
   36.7300   19.7390   30.7010 C   0  0  0  0  0  0  0  0  0  0  0  0
   34.7560   21.3170   33.5640 H   0  0  0  0  0  0  0  0  0  0  0  0
   34.2520   19.0740   32.8650 H   0  0  0  0  0  0  0  0  0  0  0  0
   35.5240   18.0100   30.9940 H   0  0  0  0  0  0  0  0  0  0  0  0
   37.4760   19.0950   29.5920 C   0  0  0  0  0  0  0  0  0  0  0  0
   37.0820   18.8370   28.3090 C   0  0  0  0  0  0  0  0  0  0  0  0
   38.1430   18.2150   27.6540 C   0  0  0  0  0  0  0  0  0  0  0  0
   39.1350   18.1340   28.6050 C   0  0  0  0  0  0  0  0  0  0  0  0
   38.7230   18.6600   29.7490 O   0  0  0  0  0  0  0  0  0  0  0  0
   36.0940   19.1110   27.9630 H   0  0  0  0  0  0  0  0  0  0  0  0
   38.0760   17.9120   26.6270 H   0  0  0  0  0  0  0  0  0  0  0  0
   40.1050   17.6940   28.4080 H   0  0  0  0  0  0  0  0  0  0  0  0
   38.8930   22.4250   29.9640 N   0  0  0  0  0  0  0  0  0  0  0  0
   38.0680   21.7850   30.4450 C   0  0  0  0  0  0  0  0  0  0  0  0
  1  2  1  0  0  0  0
  1 29  1  0  0  0  0
  2 11  1  0  0  0  0
  3  7  1  0  0  0  0
  3  2  2  0  0  0  0
  4  3  1  0  0  0  0
  5  4  2  0  0  0  0
  5  6  1  0  0  0  0
  6  1  2  0  0  0  0
  8  5  1  0  0  0  0
  9 10  2  0  0  0  0
 11  9  1  0  0  0  0
 12 11  1  0  0  0  0
 13 14  2  0  0  0  0
 13 23  1  0  0  0  0
 14 25  1  0  0  0  0
 15 16  1  0  0  0  0
 15 14  1  0  0  0  0
 16 17  2  0  0  0  0
 18  9  1  6  0  0  0
 18 16  1  0  0  0  0
 19 20  1  1  0  0  0
 19 18  1  0  0  0  0
 19 15  1  0  0  0  0
 20 21  1  0  0  0  0
 21 13  1  0  0  0  0
 21 22  1  0  0  0  0
 23 24  1  0  0  0  0
 25 27  1  0  0  0  0
 25 26  2  0  0  0  0
 28 27  1  0  0  0  0
 30 31  1  0  0  0  0
 31 29  1  0  0  0  0
 31 32  2  0  0  0  0
 32 36  1  0  0  0  0
 33 32  1  0  0  0  0
 33 37  1  0  0  0  0
 34 33  2  0  0  0  0
 35 30  2  0  0  0  0
 35 34  1  0  0  0  0
 38 34  1  0  0  0  0
 39 43  1  0  0  0  0
 39 35  1  0  0  0  0
 40 39  2  0  0  0  0
 41 40  1  0  0  0  0
 41 42  2  0  0  0  0
 42 43  1  0  0  0  0
 44 40  1  0  0  0  0
 45 41  1  0  0  0  0
 46 42  1  0  0  0  0
 47 48  3  0  0  0  0
 48 30  1  0  0  0  0
M  END
>  <minimizedAffinity>
-6.45116949

$$$$

 OpenBabel03272507443D

 48 52  0  0  1  0  0  0  0  0999 V2000
   38.6330   27.7210   31.0200 C   0  0  0  0  0  0  0  0  0  0  0  0
   37.5650   28.5340   30.6620 C   0  0  0  0  0  0  0  0  0  0  0  0
   37.4270   28.9960   29.3670 C   0  0  0  0  0  0  0  0  0  0  0  0
   38.3700   28.6300   28.4570 N   0  0  0  0  0  0  0  0  0  0  0  0
   39.4160   27.8280   28.8330 C   0  0  0  0  0  0  0  0  0  0  0  0
   39.5200   27.4020   30.0780 N   0  0  0  0  0  0  0  0  0  0  0  0
   36.6320   29.6290   29.0000 H   0  0  0  0  0  0  0  0  0  0  0  0
   40.1630   27.5440   28.0950 H   0  0  0  0  0  0  0  0  0  0  0  0
   35.4260   28.1770   31.8270 C   0  0  0  0  0  0  0  0  0  0  0  0
   35.0570   27.0170   31.3990 O   0  0  0  0  0  0  0  0  0  0  0  0
   36.5390   28.9880   31.4980 N   0  0  0  0  0  0  0  0  0  0  0  0
   36.7120   29.9560   31.8200 H   0  0  0  0  0  0  0  0  0  0  0  0
   32.5850   31.3120   35.0770 C   0  0  0  0  0  0  0  0  0  0  0  0
   33.8630   31.0030   35.1880 C   0  0  0  0  0  0  0  0  0  0  0  0
   34.4770   30.0990   34.3140 N   0  0  0  0  0  0  0  0  0  0  0  0
   35.3310   28.9560   34.0870 C   0  0  0  0  0  0  0  0  0  0  0  0
   36.3030   28.4970   34.7410 O   0  0  0  0  0  0  0  0  0  0  0  0
   34.4930   28.7320   32.8500 C   0  0  1  0  0  3  0  0  0  0  0  0
   34.2630   30.2020   32.8580 C   0  0  1  0  0  3  0  0  0  0  0  0
   32.5490   30.6150   32.4890 S   0  0  0  0  0  0  0  0  0  0  0  0
   31.6720   30.7480   34.0570 C   0  0  0  0  0  3  0  0  0  0  0  0
   31.3640   29.7470   34.4480 H   0  0  0  0  0  0  0  0  0  0  0  0
   32.0650   32.2760   36.0550 C   0  0  0  0  0  2  0  0  0  0  0  0
   31.9030   31.7130   37.0010 H   0  0  0  0  0  0  0  0  0  0  0  0
   34.6410   31.6280   36.2490 C   0  0  0  0  0  0  0  0  0  0  0  0
   35.8680   31.8850   36.2240 O   0  0  0  0  0  0  0  0  0  0  0  0
   35.0980   32.2240   37.4070 O   0  0  0  0  0  0  0  0  0  0  0  0
   34.5110   32.3050   38.2470 H   0  0  0  0  0  0  0  0  0  0  0  0
   38.5960   27.3720   32.3270 O   0  0  0  0  0  0  0  0  0  0  0  0
   38.5650   25.6300   34.0860 C   0  0  0  0  0  0  0  0  0  0  0  0
   38.4090   26.0760   32.7910 C   0  0  0  0  0  0  0  0  0  0  0  0
   38.0250   25.1980   31.7900 C   0  0  0  0  0  0  0  0  0  0  0  0
   37.8000   23.8580   32.1100 C   0  0  0  0  0  0  0  0  0  0  0  0
   37.9590   23.4220   33.4070 C   0  0  0  0  0  0  0  0  0  0  0  0
   38.3400   24.3260   34.3680 C   0  0  0  0  0  0  0  0  0  0  0  0
   37.8820   25.4730   30.7540 H   0  0  0  0  0  0  0  0  0  0  0  0
   37.5010   23.1720   31.3290 H   0  0  0  0  0  0  0  0  0  0  0  0
   37.7910   22.3860   33.6850 H   0  0  0  0  0  0  0  0  0  0  0  0
   38.5090   23.8450   35.7610 C   0  0  0  0  0  0  0  0  0  0  0  0
   39.6070   23.3080   36.3710 C   0  0  0  0  0  0  0  0  0  0  0  0
   39.2610   23.0140   37.6890 C   0  0  0  0  0  0  0  0  0  0  0  0
   37.9440   23.4000   37.7930 C   0  0  0  0  0  0  0  0  0  0  0  0
   37.5130   23.8910   36.6410 O   0  0  0  0  0  0  0  0  0  0  0  0
   40.5370   23.1790   35.8340 H   0  0  0  0  0  0  0  0  0  0  0  0
   39.9620   22.5800   38.3750 H   0  0  0  0  0  0  0  0  0  0  0  0
   37.3720   23.3000   38.7080 H   0  0  0  0  0  0  0  0  0  0  0  0
   39.2640   27.3840   35.8400 N   0  0  0  0  0  0  0  0  0  0  0  0
   38.9610   26.6040   35.0520 C   0  0  0  0  0  0  0  0  0  0  0  0
  1 29  1  0  0  0  0
  2  1  1  0  0  0  0
  2 11  1  0  0  0  0
  3  2  2  0  0  0  0
  4  5  2  0  0  0  0
  4  3  1  0  0  0  0
  5  6  1  0  0  0  0
  6  1  2  0  0  0  0
  7  3  1  0  0  0  0
  8  5  1  0  0  0  0
 10  9  2  0  0  0  0
 11 12  1  0  0  0  0
 11  9  1  0  0  0  0
 13 14  2  0  0  0  0
 13 23  1  0  0  0  0
 14 25  1  0  0  0  0
 15 14  1  0  0  0  0
 16 15  1  0  0  0  0
 16 17  2  0  0  0  0
 18  9  1  6  0  0  0
 18 19  1  0  0  0  0
 18 16  1  0  0  0  0
 19 20  1  1  0  0  0
 19 15  1  0  0  0  0
 20 21  1  0  0  0  0
 21 22  1  0  0  0  0
 21 13  1  0  0  0  0
 23 24  1  0  0  0  0
 25 27  1  0  0  0  0
 26 25  2  0  0  0  0
 27 28  1  0  0  0  0
 29 31  1  0  0  0  0
 30 35  1  0  0  0  0
 30 48  1  0  0  0  0
 31 30  2  0  0  0  0
 32 33  2  0  0  0  0
 32 31  1  0  0  0  0
 33 34  1  0  0  0  0
 34 38  1  0  0  0  0
 34 35  2  0  0  0  0
 35 39  1  0  0  0  0
 36 32  1  0  0  0  0
 37 33  1  0  0  0  0
 39 40  2  0  0  0  0
 39 43  1  0  0  0  0
 40 41  1  0  0  0  0
 41 42  2  0  0  0  0
 41 45  1  0  0  0  0
 42 46  1  0  0  0  0
 43 42  1  0  0  0  0
 44 40  1  0  0  0  0
 48 47  3  0  0  0  0
M  END
>  <minimizedAffinity>
-6.41882753

$$$$

 OpenBabel03272507443D

 48 52  0  0  1  0  0  0  0  0999 V2000
   37.9360   25.6840   31.1830 C   0  0  0  0  0  0  0  0  0  0  0  0
   37.7790   27.0440   31.4210 C   0  0  0  0  0  0  0  0  0  0  0  0
   38.6040   27.9710   30.8110 C   0  0  0  0  0  0  0  0  0  0  0  0
   39.5710   27.5080   29.9740 N   0  0  0  0  0  0  0  0  0  0  0  0
   39.7080   26.1620   29.7560 C   0  0  0  0  0  0  0  0  0  0  0  0
   38.9040   25.3010   30.3520 N   0  0  0  0  0  0  0  0  0  0  0  0
   38.5550   29.0430   30.9360 H   0  0  0  0  0  0  0  0  0  0  0  0
   40.4860   25.8060   29.0840 H   0  0  0  0  0  0  0  0  0  0  0  0
   35.9480   28.6450   31.7960 C   0  0  0  0  0  0  0  0  0  0  0  0
   35.8740   29.2660   30.6660 O   0  0  0  0  0  0  0  0  0  0  0  0
   36.8360   27.6460   32.2610 N   0  0  0  0  0  0  0  0  0  0  0  0
   36.8870   27.2660   33.2220 H   0  0  0  0  0  0  0  0  0  0  0  0
   32.6540   31.4090   34.9540 C   0  0  0  0  0  0  0  0  0  0  0  0
   33.9310   31.1520   35.1680 C   0  0  0  0  0  0  0  0  0  0  0  0
   34.6710   30.3410   34.3000 N   0  0  0  0  0  0  0  0  0  0  0  0
   35.6010   29.2580   34.0820 C   0  0  0  0  0  0  0  0  0  0  0  0
   36.5310   28.7990   34.7950 O   0  0  0  0  0  0  0  0  0  0  0  0
   34.8960   29.0830   32.7570 C   0  0  1  0  0  3  0  0  0  0  0  0
   34.5880   30.5360   32.8400 C   0  0  1  0  0  3  0  0  0  0  0  0
   32.8970   30.8950   32.3350 S   0  0  0  0  0  0  0  0  0  0  0  0
   31.8720   30.8770   33.8160 C   0  0  0  0  0  3  0  0  0  0  0  0
   31.5820   29.8370   34.1090 H   0  0  0  0  0  0  0  0  0  0  0  0
   31.9950   32.2760   35.9380 C   0  0  0  0  0  2  0  0  0  0  0  0
   31.7760   31.6420   36.8250 H   0  0  0  0  0  0  0  0  0  0  0  0
   34.5730   31.7370   36.3370 C   0  0  0  0  0  0  0  0  0  0  0  0
   35.6480   32.3800   36.3570 O   0  0  0  0  0  0  0  0  0  0  0  0
   34.9300   32.1660   37.6000 O   0  0  0  0  0  0  0  0  0  0  0  0
   34.4310   31.8550   38.4430 H   0  0  0  0  0  0  0  0  0  0  0  0
   37.0380   24.9380   31.8670 O   0  0  0  0  0  0  0  0  0  0  0  0
   37.9890   23.8950   33.9010 C   0  0  0  0  0  0  0  0  0  0  0  0
   37.3650   23.8550   32.6730 C   0  0  0  0  0  0  0  0  0  0  0  0
   36.9930   22.6410   32.1160 C   0  0  0  0  0  0  0  0  0  0  0  0
   37.2590   21.4620   32.8150 C   0  0  0  0  0  0  0  0  0  0  0  0
   37.8830   21.5130   34.0420 C   0  0  0  0  0  0  0  0  0  0  0  0
   38.2340   22.7360   34.5560 C   0  0  0  0  0  0  0  0  0  0  0  0
   36.5010   22.5300   31.1590 H   0  0  0  0  0  0  0  0  0  0  0  0
   36.9690   20.5150   32.3810 H   0  0  0  0  0  0  0  0  0  0  0  0
   38.1020   20.6130   34.6070 H   0  0  0  0  0  0  0  0  0  0  0  0
   38.9070   22.7780   35.8780 C   0  0  0  0  0  0  0  0  0  0  0  0
   38.4010   23.1030   37.1040 C   0  0  0  0  0  0  0  0  0  0  0  0
   39.4330   22.9900   38.0340 C   0  0  0  0  0  0  0  0  0  0  0  0
   40.5230   22.5960   37.2930 C   0  0  0  0  0  0  0  0  0  0  0  0
   40.1940   22.4740   36.0160 O   0  0  0  0  0  0  0  0  0  0  0  0
   37.3630   23.3840   37.2230 H   0  0  0  0  0  0  0  0  0  0  0  0
   39.2810   23.1960   39.0770 H   0  0  0  0  0  0  0  0  0  0  0  0
   41.4990   22.4190   37.7290 H   0  0  0  0  0  0  0  0  0  0  0  0
   38.6130   26.2350   34.7800 N   0  0  0  0  0  0  0  0  0  0  0  0
   38.3360   25.1870   34.3980 C   0  0  0  0  0  0  0  0  0  0  0  0
  1  2  1  0  0  0  0
  1 29  1  0  0  0  0
  2 11  1  0  0  0  0
  3  7  1  0  0  0  0
  3  2  2  0  0  0  0
  4  3  1  0  0  0  0
  5  4  2  0  0  0  0
  5  6  1  0  0  0  0
  6  1  2  0  0  0  0
  8  5  1  0  0  0  0
  9 11  1  0  0  0  0
 10  9  2  0  0  0  0
 11 12  1  0  0  0  0
 13 14  2  0  0  0  0
 13 23  1  0  0  0  0
 14 25  1  0  0  0  0
 15 14  1  0  0  0  0
 16 15  1  0  0  0  0
 16 17  2  0  0  0  0
 18  9  1  6  0  0  0
 18 19  1  0  0  0  0
 18 16  1  0  0  0  0
 19 20  1  1  0  0  0
 19 15  1  0  0  0  0
 20 21  1  0  0  0  0
 21 22  1  0  0  0  0
 21 13  1  0  0  0  0
 23 24  1  0  0  0  0
 25 26  2  0  0  0  0
 25 27  1  0  0  0  0
 27 28  1  0  0  0  0
 29 31  1  0  0  0  0
 30 48  1  0  0  0  0
 30 35  1  0  0  0  0
 31 30  2  0  0  0  0
 32 31  1  0  0  0  0
 32 33  2  0  0  0  0
 33 34  1  0  0  0  0
 34 35  2  0  0  0  0
 34 38  1  0  0  0  0
 35 39  1  0  0  0  0
 36 32  1  0  0  0  0
 37 33  1  0  0  0  0
 39 43  1  0  0  0  0
 39 40  2  0  0  0  0
 40 44  1  0  0  0  0
 40 41  1  0  0  0  0
 41 45  1  0  0  0  0
 42 46  1  0  0  0  0
 42 41  2  0  0  0  0
 43 42  1  0  0  0  0
 48 47  3  0  0  0  0
M  END
>  <minimizedAffinity>
-6.36987209

$$$$

 OpenBabel03272507443D

 48 52  0  0  1  0  0  0  0  0999 V2000
   36.8290   27.4380   31.3240 C   0  0  0  0  0  0  0  0  0  0  0  0
   37.0840   27.5230   32.6870 C   0  0  0  0  0  0  0  0  0  0  0  0
   36.5350   28.5360   33.4500 C   0  0  0  0  0  0  0  0  0  0  0  0
   35.7400   29.4450   32.8240 N   0  0  0  0  0  0  0  0  0  0  0  0
   35.5040   29.3420   31.4780 C   0  0  0  0  0  0  0  0  0  0  0  0
   36.0420   28.3620   30.7750 N   0  0  0  0  0  0  0  0  0  0  0  0
   36.6770   28.6790   34.5120 H   0  0  0  0  0  0  0  0  0  0  0  0
   34.8670   30.0760   30.9890 H   0  0  0  0  0  0  0  0  0  0  0  0
   39.2980   26.7020   33.3830 C   0  0  0  0  0  0  0  0  0  0  0  0
   40.1020   27.3610   32.6180 O   0  0  0  0  0  0  0  0  0  0  0  0
   37.8850   26.6630   33.4470 N   0  0  0  0  0  0  0  0  0  0  0  0
   37.3120   26.0300   34.0320 H   0  0  0  0  0  0  0  0  0  0  0  0
   41.0150   22.7100   36.4780 C   0  0  0  0  0  0  0  0  0  0  0  0
   39.9200   23.4280   36.6420 C   0  0  0  0  0  0  0  0  0  0  0  0
   39.6200   24.5090   35.8040 N   0  0  0  0  0  0  0  0  0  0  0  0
   39.1950   25.8780   35.6260 C   0  0  0  0  0  0  0  0  0  0  0  0
   38.4560   26.6200   36.3230 O   0  0  0  0  0  0  0  0  0  0  0  0
   40.0200   25.8390   34.3610 C   0  0  1  0  0  3  0  0  0  0  0  0
   39.7420   24.3780   34.3400 C   0  0  1  0  0  3  0  0  0  0  0  0
   41.2030   23.4220   33.9010 S   0  0  0  0  0  0  0  0  0  0  0  0
   42.0320   22.9600   35.4330 C   0  0  0  0  0  3  0  0  0  0  0  0
   42.6720   23.7890   35.8250 H   0  0  0  0  0  0  0  0  0  0  0  0
   41.2090   21.6030   37.4220 C   0  0  0  0  0  2  0  0  0  0  0  0
   41.5810   22.0530   38.3680 H   0  0  0  0  0  0  0  0  0  0  0  0
   39.0100   23.0740   37.7220 C   0  0  0  0  0  0  0  0  0  0  0  0
   37.7730   23.2710   37.7520 O   0  0  0  0  0  0  0  0  0  0  0  0
   38.4140   22.6290   38.8860 O   0  0  0  0  0  0  0  0  0  0  0  0
   38.9640   22.3070   39.6920 H   0  0  0  0  0  0  0  0  0  0  0  0
   37.4520   26.3820   30.7510 O   0  0  0  0  0  0  0  0  0  0  0  0
   37.9000   23.9510   30.8860 C   0  0  0  0  0  0  0  0  0  0  0  0
   37.0770   25.0560   30.9260 C   0  0  0  0  0  0  0  0  0  0  0  0
   35.7190   24.9090   31.1610 C   0  0  0  0  0  0  0  0  0  0  0  0
   35.1970   23.6300   31.3550 C   0  0  0  0  0  0  0  0  0  0  0  0
   36.0280   22.5320   31.3130 C   0  0  0  0  0  0  0  0  0  0  0  0
   37.3660   22.7220   31.0780 C   0  0  0  0  0  0  0  0  0  0  0  0
   35.0130   25.7270   31.2060 H   0  0  0  0  0  0  0  0  0  0  0  0
   34.1370   23.5140   31.5380 H   0  0  0  0  0  0  0  0  0  0  0  0
   35.6490   21.5250   31.4610 H   0  0  0  0  0  0  0  0  0  0  0  0
   38.2510   21.5320   31.0340 C   0  0  0  0  0  0  0  0  0  0  0  0
   38.5800   20.7270   29.9810 C   0  0  0  0  0  0  0  0  0  0  0  0
   39.4450   19.7420   30.4510 C   0  0  0  0  0  0  0  0  0  0  0  0
   39.5870   20.0190   31.7910 C   0  0  0  0  0  0  0  0  0  0  0  0
   38.8720   21.0840   32.1210 O   0  0  0  0  0  0  0  0  0  0  0  0
   38.1820   20.9130   28.9910 H   0  0  0  0  0  0  0  0  0  0  0  0
   39.8450   18.9840   29.8050 H   0  0  0  0  0  0  0  0  0  0  0  0
   40.2070   19.4250   32.4530 H   0  0  0  0  0  0  0  0  0  0  0  0
   40.4010   24.4010   30.4590 N   0  0  0  0  0  0  0  0  0  0  0  0
   39.2850   24.1960   30.6400 C   0  0  0  0  0  0  0  0  0  0  0  0
  1  2  1  0  0  0  0
  2 11  1  0  0  0  0
  2  3  2  0  0  0  0
  3  7  1  0  0  0  0
  4  3  1  0  0  0  0
  5  4  2  0  0  0  0
  6  1  2  0  0  0  0
  6  5  1  0  0  0  0
  8  5  1  0  0  0  0
  9 11  1  0  0  0  0
 10  9  2  0  0  0  0
 11 12  1  0  0  0  0
 13 14  2  0  0  0  0
 13 23  1  0  0  0  0
 14 25  1  0  0  0  0
 15 14  1  0  0  0  0
 16 15  1  0  0  0  0
 16 17  2  0  0  0  0
 18  9  1  6  0  0  0
 18 16  1  0  0  0  0
 19 20  1  1  0  0  0
 19 18  1  0  0  0  0
 19 15  1  0  0  0  0
 20 21  1  0  0  0  0
 21 22  1  0  0  0  0
 21 13  1  0  0  0  0
 23 24  1  0  0  0  0
 25 26  2  0  0  0  0
 25 27  1  0  0  0  0
 27 28  1  0  0  0  0
 29 31  1  0  0  0  0
 29  1  1  0  0  0  0
 30 31  2  0  0  0  0
 30 35  1  0  0  0  0
 31 32  1  0  0  0  0
 32 36  1  0  0  0  0
 32 33  2  0  0  0  0
 33 37  1  0  0  0  0
 34 33  1  0  0  0  0
 34 38  1  0  0  0  0
 35 34  2  0  0  0  0
 39 35  1  0  0  0  0
 39 43  1  0  0  0  0
 40 41  1  0  0  0  0
 40 39  2  0  0  0  0
 41 42  2  0  0  0  0
 42 43  1  0  0  0  0
 42 46  1  0  0  0  0
 44 40  1  0  0  0  0
 45 41  1  0  0  0  0
 47 48  3  0  0  0  0
 48 30  1  0  0  0  0
M  END
>  <minimizedAffinity>
-6.33170128

$$$$

 OpenBabel03272507443D

 48 52  0  0  1  0  0  0  0  0999 V2000
   39.3640   26.0920   32.3850 C   0  0  0  0  0  0  0  0  0  0  0  0
   38.8840   27.2450   31.7750 C   0  0  0  0  0  0  0  0  0  0  0  0
   39.4650   27.7300   30.6180 C   0  0  0  0  0  0  0  0  0  0  0  0
   40.5200   27.0460   30.1000 N   0  0  0  0  0  0  0  0  0  0  0  0
   40.9770   25.9120   30.7200 C   0  0  0  0  0  0  0  0  0  0  0  0
   40.4010   25.4720   31.8230 N   0  0  0  0  0  0  0  0  0  0  0  0
   39.1580   28.6140   30.0770 H   0  0  0  0  0  0  0  0  0  0  0  0
   41.8220   25.3750   30.2950 H   0  0  0  0  0  0  0  0  0  0  0  0
   36.5210   27.9230   31.6560 C   0  0  0  0  0  0  0  0  0  0  0  0
   36.0750   27.2340   30.6590 O   0  0  0  0  0  0  0  0  0  0  0  0
   37.8190   28.0420   32.2070 N   0  0  0  0  0  0  0  0  0  0  0  0
   38.1140   28.6950   32.9540 H   0  0  0  0  0  0  0  0  0  0  0  0
   33.5890   31.7530   33.9350 C   0  0  0  0  0  0  0  0  0  0  0  0
   34.6100   31.1100   34.4690 C   0  0  0  0  0  0  0  0  0  0  0  0
   35.2490   30.0620   33.7960 N   0  0  0  0  0  0  0  0  0  0  0  0
   35.8020   28.7280   33.7910 C   0  0  0  0  0  0  0  0  0  0  0  0
   36.3100   28.0300   34.7060 O   0  0  0  0  0  0  0  0  0  0  0  0
   35.4530   28.7240   32.3200 C   0  0  1  0  0  3  0  0  0  0  0  0
   35.6220   30.2010   32.3760 C   0  0  1  0  0  3  0  0  0  0  0  0
   34.3340   31.0590   31.4550 S   0  0  0  0  0  0  0  0  0  0  0  0
   33.0060   31.4460   32.6100 C   0  0  0  0  0  3  0  0  0  0  0  0
   32.3290   30.5710   32.7730 H   0  0  0  0  0  0  0  0  0  0  0  0
   33.0110   32.8350   34.7420 C   0  0  0  0  0  2  0  0  0  0  0  0
   32.3720   32.3490   35.5130 H   0  0  0  0  0  0  0  0  0  0  0  0
   35.0740   31.5140   35.7890 C   0  0  0  0  0  0  0  0  0  0  0  0
   36.2510   31.7950   36.1140 O   0  0  0  0  0  0  0  0  0  0  0  0
   35.2050   31.8630   37.1180 O   0  0  0  0  0  0  0  0  0  0  0  0
   34.4340   31.7550   37.7890 H   0  0  0  0  0  0  0  0  0  0  0  0
   38.6690   25.7760   33.5010 O   0  0  0  0  0  0  0  0  0  0  0  0
   37.7810   23.4650   33.4750 C   0  0  0  0  0  0  0  0  0  0  0  0
   38.5340   24.4900   34.0080 C   0  0  0  0  0  0  0  0  0  0  0  0
   39.2610   24.2920   35.1710 C   0  0  0  0  0  0  0  0  0  0  0  0
   39.2210   23.0440   35.7950 C   0  0  0  0  0  0  0  0  0  0  0  0
   38.4660   22.0270   35.2540 C   0  0  0  0  0  0  0  0  0  0  0  0
   37.7610   22.2660   34.1010 C   0  0  0  0  0  0  0  0  0  0  0  0
   39.8730   25.0470   35.6480 H   0  0  0  0  0  0  0  0  0  0  0  0
   39.7880   22.8890   36.7030 H   0  0  0  0  0  0  0  0  0  0  0  0
   38.4160   21.0470   35.7180 H   0  0  0  0  0  0  0  0  0  0  0  0
   36.9510   21.1620   33.5290 C   0  0  0  0  0  0  0  0  0  0  0  0
   35.7220   20.6980   33.9020 C   0  0  0  0  0  0  0  0  0  0  0  0
   35.3880   19.6450   33.0530 C   0  0  0  0  0  0  0  0  0  0  0  0
   36.4620   19.5370   32.2000 C   0  0  0  0  0  0  0  0  0  0  0  0
   37.3810   20.4440   32.4950 O   0  0  0  0  0  0  0  0  0  0  0  0
   35.1840   21.1440   34.7290 H   0  0  0  0  0  0  0  0  0  0  0  0
   34.4610   19.1130   33.1470 H   0  0  0  0  0  0  0  0  0  0  0  0
   36.5130   18.7990   31.4080 H   0  0  0  0  0  0  0  0  0  0  0  0
   36.5000   23.9790   31.2990 N   0  0  0  0  0  0  0  0  0  0  0  0
   37.0660   23.7570   32.2750 C   0  0  0  0  0  0  0  0  0  0  0  0
  1 29  1  0  0  0  0
  2 11  1  0  0  0  0
  2  1  2  0  0  0  0
  3  2  1  0  0  0  0
  4  3  2  0  0  0  0
  4  5  1  0  0  0  0
  5  6  2  0  0  0  0
  6  1  1  0  0  0  0
  7  3  1  0  0  0  0
  8  5  1  0  0  0  0
  9 11  1  0  0  0  0
 10  9  2  0  0  0  0
 11 12  1  0  0  0  0
 13 14  2  0  0  0  0
 13 23  1  0  0  0  0
 14 25  1  0  0  0  0
 15 14  1  0  0  0  0
 16 15  1  0  0  0  0
 16 17  2  0  0  0  0
 18  9  1  6  0  0  0
 18 19  1  0  0  0  0
 18 16  1  0  0  0  0
 19 20  1  6  0  0  0
 19 15  1  0  0  0  0
 20 21  1  0  0  0  0
 21 22  1  0  0  0  0
 21 13  1  0  0  0  0
 23 24  1  0  0  0  0
 25 26  2  0  0  0  0
 25 27  1  0  0  0  0
 27 28  1  0  0  0  0
 29 31  1  0  0  0  0
 30 31  2  0  0  0  0
 30 35  1  0  0  0  0
 31 32  1  0  0  0  0
 32 36  1  0  0  0  0
 32 33  2  0  0  0  0
 33 37  1  0  0  0  0
 34 38  1  0  0  0  0
 34 33  1  0  0  0  0
 35 34  2  0  0  0  0
 39 40  2  0  0  0  0
 39 35  1  0  0  0  0
 40 44  1  0  0  0  0
 41 45  1  0  0  0  0
 41 40  1  0  0  0  0
 42 43  1  0  0  0  0
 42 41  2  0  0  0  0
 43 39  1  0  0  0  0
 46 42  1  0  0  0  0
 47 48  3  0  0  0  0
 48 30  1  0  0  0  0
M  END
>  <minimizedAffinity>
-6.2655549

$$$$

 OpenBabel03272507443D

 48 52  0  0  1  0  0  0  0  0999 V2000
   36.1500   28.8440   32.1580 C   0  0  0  0  0  0  0  0  0  0  0  0
   37.2350   27.9810   32.0480 C   0  0  0  0  0  0  0  0  0  0  0  0
   38.0930   28.0560   30.9670 C   0  0  0  0  0  0  0  0  0  0  0  0
   37.8420   28.9970   30.0180 N   0  0  0  0  0  0  0  0  0  0  0  0
   36.7660   29.8350   30.1470 C   0  0  0  0  0  0  0  0  0  0  0  0
   35.9640   29.7410   31.1910 N   0  0  0  0  0  0  0  0  0  0  0  0
   38.9580   27.4300   30.8000 H   0  0  0  0  0  0  0  0  0  0  0  0
   36.5760   30.5830   29.3800 H   0  0  0  0  0  0  0  0  0  0  0  0
   37.1630   25.6340   32.7830 C   0  0  0  0  0  0  0  0  0  0  0  0
   36.3290   25.0990   31.9550 O   0  0  0  0  0  0  0  0  0  0  0  0
   37.5980   26.9710   32.9440 N   0  0  0  0  0  0  0  0  0  0  0  0
   38.2020   27.3350   33.7010 H   0  0  0  0  0  0  0  0  0  0  0  0
   40.0010   23.0990   36.5220 C   0  0  0  0  0  0  0  0  0  0  0  0
   40.4180   23.4760   35.3280 C   0  0  0  0  0  0  0  0  0  0  0  0
   39.5490   24.0630   34.4010 N   0  0  0  0  0  0  0  0  0  0  0  0
   39.0240   24.1560   33.0580 C   0  0  0  0  0  0  0  0  0  0  0  0
   39.5420   23.9060   31.9390 O   0  0  0  0  0  0  0  0  0  0  0  0
   37.7540   24.6370   33.7210 C   0  0  1  0  0  3  0  0  0  0  0  0
   38.6300   25.1410   34.8120 C   0  0  1  0  0  3  0  0  0  0  0  0
   37.9360   24.8050   36.4400 S   0  0  0  0  0  0  0  0  0  0  0  0
   38.6090   23.2320   37.0040 C   0  0  0  0  0  3  0  0  0  0  0  0
   38.0540   22.3630   36.5710 H   0  0  0  0  0  0  0  0  0  0  0  0
   41.0140   22.5000   37.4010 C   0  0  0  0  0  2  0  0  0  0  0  0
   41.1530   21.4520   37.0570 H   0  0  0  0  0  0  0  0  0  0  0  0
   41.8180   23.2750   34.9830 C   0  0  0  0  0  0  0  0  0  0  0  0
   42.5940   24.1220   34.4830 O   0  0  0  0  0  0  0  0  0  0  0  0
   43.0910   22.7870   34.7650 O   0  0  0  0  0  0  0  0  0  0  0  0
   43.3200   21.7910   34.8690 H   0  0  0  0  0  0  0  0  0  0  0  0
   35.4290   28.6190   33.2810 O   0  0  0  0  0  0  0  0  0  0  0  0
   33.7680   30.0390   34.4440 C   0  0  0  0  0  0  0  0  0  0  0  0
   35.0500   29.6030   34.1840 C   0  0  0  0  0  0  0  0  0  0  0  0
   36.1270   30.1580   34.8560 C   0  0  0  0  0  0  0  0  0  0  0  0
   35.8980   31.1630   35.7980 C   0  0  0  0  0  0  0  0  0  0  0  0
   34.6130   31.5910   36.0500 C   0  0  0  0  0  0  0  0  0  0  0  0
   33.5750   31.0140   35.3620 C   0  0  0  0  0  0  0  0  0  0  0  0
   37.1590   29.8690   34.7060 H   0  0  0  0  0  0  0  0  0  0  0  0
   36.7380   31.5970   36.3220 H   0  0  0  0  0  0  0  0  0  0  0  0
   34.4050   32.3710   36.7770 H   0  0  0  0  0  0  0  0  0  0  0  0
   32.1960   31.4850   35.6420 C   0  0  0  0  0  0  0  0  0  0  0  0
   31.3080   31.0670   36.5910 C   0  0  0  0  0  0  0  0  0  0  0  0
   30.1450   31.8210   36.4470 C   0  0  0  0  0  0  0  0  0  0  0  0
   30.4100   32.6660   35.3940 C   0  0  0  0  0  0  0  0  0  0  0  0
   31.6320   32.4550   34.9280 O   0  0  0  0  0  0  0  0  0  0  0  0
   31.5640   30.2790   37.2870 H   0  0  0  0  0  0  0  0  0  0  0  0
   29.2930   31.6760   37.0840 H   0  0  0  0  0  0  0  0  0  0  0  0
   29.6940   33.3920   35.0260 H   0  0  0  0  0  0  0  0  0  0  0  0
   31.8740   28.9220   33.1010 N   0  0  0  0  0  0  0  0  0  0  0  0
   32.7200   29.4120   33.7060 C   0  0  0  0  0  0  0  0  0  0  0  0
  1 29  1  0  0  0  0
  2  1  1  0  0  0  0
  2 11  1  0  0  0  0
  3  2  2  0  0  0  0
  4  5  2  0  0  0  0
  4  3  1  0  0  0  0
  5  6  1  0  0  0  0
  6  1  2  0  0  0  0
  7  3  1  0  0  0  0
  8  5  1  0  0  0  0
  9 11  1  0  0  0  0
 10  9  2  0  0  0  0
 11 12  1  0  0  0  0
 13 21  1  0  0  0  0
 13 23  1  0  0  0  0
 14 13  2  0  0  0  0
 15 19  1  0  0  0  0
 15 14  1  0  0  0  0
 16 18  1  0  0  0  0
 16 15  1  0  0  0  0
 17 16  2  0  0  0  0
 18  9  1  6  0  0  0
 18 19  1  0  0  0  0
 19 20  1  1  0  0  0
 20 21  1  0  0  0  0
 22 21  1  0  0  0  0
 24 23  1  0  0  0  0
 25 14  1  0  0  0  0
 26 25  2  0  0  0  0
 27 28  1  0  0  0  0
 27 25  1  0  0  0  0
 29 31  1  0  0  0  0
 30 35  1  0  0  0  0
 31 30  2  0  0  0  0
 31 32  1  0  0  0  0
 32 33  2  0  0  0  0
 33 34  1  0  0  0  0
 33 37  1  0  0  0  0
 34 38  1  0  0  0  0
 35 39  1  0  0  0  0
 35 34  2  0  0  0  0
 36 32  1  0  0  0  0
 39 40  2  0  0  0  0
 40 44  1  0  0  0  0
 41 40  1  0  0  0  0
 41 45  1  0  0  0  0
 42 41  2  0  0  0  0
 43 42  1  0  0  0  0
 43 39  1  0  0  0  0
 46 42  1  0  0  0  0
 47 48  3  0  0  0  0
 48 30  1  0  0  0  0
M  END
>  <minimizedAffinity>
-6.21587133

$$$$

 OpenBabel03272507443D

 48 52  0  0  1  0  0  0  0  0999 V2000
   36.9080   27.1460   33.9330 C   0  0  0  0  0  0  0  0  0  0  0  0
   36.5630   26.5200   32.7410 C   0  0  0  0  0  0  0  0  0  0  0  0
   35.9650   27.2280   31.7160 C   0  0  0  0  0  0  0  0  0  0  0  0
   35.7240   28.5520   31.9120 N   0  0  0  0  0  0  0  0  0  0  0  0
   36.0710   29.1470   33.0960 C   0  0  0  0  0  0  0  0  0  0  0  0
   36.6420   28.4460   34.0570 N   0  0  0  0  0  0  0  0  0  0  0  0
   35.6650   26.8260   30.7580 H   0  0  0  0  0  0  0  0  0  0  0  0
   35.8720   30.2070   33.2400 H   0  0  0  0  0  0  0  0  0  0  0  0
   35.8450   24.4710   31.5830 C   0  0  0  0  0  0  0  0  0  0  0  0
   34.7050   24.8100   31.0790 O   0  0  0  0  0  0  0  0  0  0  0  0
   36.7480   25.1720   32.4170 N   0  0  0  0  0  0  0  0  0  0  0  0
   37.6020   24.7900   32.8580 H   0  0  0  0  0  0  0  0  0  0  0  0
   37.5480   19.4160   31.4880 C   0  0  0  0  0  0  0  0  0  0  0  0
   38.2870   20.5010   31.6190 C   0  0  0  0  0  0  0  0  0  0  0  0
   37.7280   21.7820   31.5450 N   0  0  0  0  0  0  0  0  0  0  0  0
   37.7520   23.1340   31.0370 C   0  0  0  0  0  0  0  0  0  0  0  0
   38.7030   23.8730   30.6730 O   0  0  0  0  0  0  0  0  0  0  0  0
   36.2500   23.0890   31.1970 C   0  0  1  0  0  3  0  0  0  0  0  0
   36.4930   22.1040   32.2850 C   0  0  1  0  0  3  0  0  0  0  0  0
   35.3290   20.7300   32.2190 S   0  0  0  0  0  0  0  0  0  0  0  0
   36.0890   19.4210   31.2430 C   0  0  0  0  0  3  0  0  0  0  0  0
   35.9670   19.5970   30.1450 H   0  0  0  0  0  0  0  0  0  0  0  0
   38.2570   18.1340   31.5900 C   0  0  0  0  0  2  0  0  0  0  0  0
   38.7630   17.9730   30.6130 H   0  0  0  0  0  0  0  0  0  0  0  0
   39.7170   20.3470   31.8480 C   0  0  0  0  0  0  0  0  0  0  0  0
   40.6410   20.7130   31.0840 O   0  0  0  0  0  0  0  0  0  0  0  0
   40.9760   20.0620   32.3380 O   0  0  0  0  0  0  0  0  0  0  0  0
   41.1180   19.4790   33.1720 H   0  0  0  0  0  0  0  0  0  0  0  0
   37.4820   26.2920   34.8120 O   0  0  0  0  0  0  0  0  0  0  0  0
   39.3960   24.7690   35.1910 C   0  0  0  0  0  0  0  0  0  0  0  0
   38.8340   25.9760   34.8350 C   0  0  0  0  0  0  0  0  0  0  0  0
   39.6390   27.0360   34.4480 C   0  0  0  0  0  0  0  0  0  0  0  0
   41.0240   26.8640   34.4230 C   0  0  0  0  0  0  0  0  0  0  0  0
   41.5760   25.6540   34.7800 C   0  0  0  0  0  0  0  0  0  0  0  0
   40.7420   24.6310   35.1570 C   0  0  0  0  0  0  0  0  0  0  0  0
   39.2720   28.0110   34.1560 H   0  0  0  0  0  0  0  0  0  0  0  0
   41.6530   27.6910   34.1220 H   0  0  0  0  0  0  0  0  0  0  0  0
   42.6490   25.4920   34.7710 H   0  0  0  0  0  0  0  0  0  0  0  0
   41.3480   23.3320   35.5410 C   0  0  0  0  0  0  0  0  0  0  0  0
   41.8360   22.9190   36.7480 C   0  0  0  0  0  0  0  0  0  0  0  0
   42.2990   21.6140   36.5970 C   0  0  0  0  0  0  0  0  0  0  0  0
   42.0560   21.3130   35.2760 C   0  0  0  0  0  0  0  0  0  0  0  0
   41.4920   22.3430   34.6630 O   0  0  0  0  0  0  0  0  0  0  0  0
   41.8170   23.5730   37.6100 H   0  0  0  0  0  0  0  0  0  0  0  0
   42.7330   21.0680   37.4130 H   0  0  0  0  0  0  0  0  0  0  0  0
   42.3070   20.3560   34.8340 H   0  0  0  0  0  0  0  0  0  0  0  0
   37.7580   22.8980   35.8660 N   0  0  0  0  0  0  0  0  0  0  0  0
   38.4920   23.7330   35.5750 C   0  0  0  0  0  0  0  0  0  0  0  0
  1  6  1  0  0  0  0
  1 29  1  0  0  0  0
  2  1  2  0  0  0  0
  3  4  2  0  0  0  0
  3  2  1  0  0  0  0
  4  5  1  0  0  0  0
  5  8  1  0  0  0  0
  5  6  2  0  0  0  0
  7  3  1  0  0  0  0
  9 11  1  0  0  0  0
 10  9  2  0  0  0  0
 11  2  1  0  0  0  0
 11 12  1  0  0  0  0
 13 23  1  0  0  0  0
 13 14  2  0  0  0  0
 14 25  1  0  0  0  0
 15 14  1  0  0  0  0
 15 19  1  0  0  0  0
 16 18  1  0  0  0  0
 16 15  1  0  0  0  0
 17 16  2  0  0  0  0
 18  9  1  1  0  0  0
 18 19  1  0  0  0  0
 19 20  1  6  0  0  0
 21 13  1  0  0  0  0
 21 20  1  0  0  0  0
 22 21  1  0  0  0  0
 24 23  1  0  0  0  0
 25 27  1  0  0  0  0
 26 25  2  0  0  0  0
 27 28  1  0  0  0  0
 29 31  1  0  0  0  0
 30 48  1  0  0  0  0
 31 30  2  0  0  0  0
 32 31  1  0  0  0  0
 33 32  2  0  0  0  0
 33 34  1  0  0  0  0
 34 35  2  0  0  0  0
 35 30  1  0  0  0  0
 35 39  1  0  0  0  0
 36 32  1  0  0  0  0
 37 33  1  0  0  0  0
 38 34  1  0  0  0  0
 39 40  2  0  0  0  0
 40 44  1  0  0  0  0
 41 40  1  0  0  0  0
 41 45  1  0  0  0  0
 42 41  2  0  0  0  0
 43 42  1  0  0  0  0
 43 39  1  0  0  0  0
 46 42  1  0  0  0  0
 48 47  3  0  0  0  0
M  END
>  <minimizedAffinity>
-6.21403265

$$$$
