REMARK  Name = 
REMARK  6 active torsions:
REMARK  status: ('A' for Active; 'I' for Inactive)
REMARK    1  A    between atoms: N_1  and  C_7
REMARK    2  A    between atoms: C_6  and  O_13
REMARK    3  A    between atoms: O_13  and  C_26
REMARK    4  A    between atoms: C_26  and  C_27
REMARK    5  A    between atoms: C_28  and  C_29
REMARK    6  A    between atoms: C_29  and  O_31
REMARK                            x       y       z     vdW  Elec       q    Type
REMARK                         _______ _______ _______ _____ _____    ______ ____
ROOT
ATOM      1  N   UNL     1      35.970  29.627  48.864  0.00  0.00    +0.000 N 
ATOM      2  C   UNL     1      36.567  28.858  49.924  0.00  0.00    +0.000 C 
ATOM      3  C   UNL     1      37.037  29.571  51.118  0.00  0.00    +0.000 C 
ATOM      4  C   UNL     1      37.423  30.994  50.978  0.00  0.00    +0.000 C 
ATOM      5  C   UNL     1      36.820  31.693  49.781  0.00  0.00    +0.000 C 
ATOM      6  C   UNL     1      36.841  30.735  48.584  0.00  0.00    +0.000 C 
ATOM      7  H   UNL     1      37.397  28.259  49.478  0.00  0.00    +0.000 HD
ATOM      8  H   UNL     1      35.801  28.095  50.221  0.00  0.00    +0.000 HD
ATOM      9  H   UNL     1      36.240  29.523  51.911  0.00  0.00    +0.000 HD
ATOM     10  H   UNL     1      37.905  29.024  51.546  0.00  0.00    +0.000 HD
ATOM     11  H   UNL     1      37.148  31.607  51.862  0.00  0.00    +0.000 HD
ATOM     12  H   UNL     1      38.535  31.104  50.885  0.00  0.00    +0.000 HD
ATOM     13  H   UNL     1      37.465  32.542  49.489  0.00  0.00    +0.000 HD
ATOM     14  H   UNL     1      35.806  32.068  49.974  0.00  0.00    +0.000 HD
ATOM     15  H   UNL     1      36.596  31.262  47.651  0.00  0.00    +0.000 HD
ENDROOT
BRANCH   1  16
ATOM     16  C   UNL     1      34.736  29.329  48.217  0.00  0.00    +0.000 A 
ATOM     17  C   UNL     1      34.247  30.013  47.100  0.00  0.00    +0.000 A 
ATOM     18  C   UNL     1      33.031  29.620  46.571  0.00  0.00    +0.000 A 
ATOM     19  N   UNL     1      32.374  28.585  47.167  0.00  0.00    +0.000 NA
ATOM     20  C   UNL     1      32.879  27.958  48.237  0.00  0.00    +0.000 A 
ATOM     21  N   UNL     1      34.065  28.325  48.771  0.00  0.00    +0.000 NA
ATOM     22  H   UNL     1      34.843  30.814  46.707  0.00  0.00    +0.000 HD
ATOM     23  H   UNL     1      32.717  30.187  45.716  0.00  0.00    +0.000 HD
ATOM     24  H   UNL     1      32.275  27.148  48.633  0.00  0.00    +0.000 HD
ENDBRANCH   1  16
BRANCH   6  25
ATOM     25  O   UNL     1      38.179  30.348  48.475  0.00  0.00    +0.000 OA
BRANCH  25  26
ATOM     26  C   UNL     1      38.728  30.749  47.259  0.00  0.00    +0.000 C 
BRANCH  26  27
ATOM     27  C   UNL     1      37.622  31.125  46.354  0.00  0.00    +0.000 C 
ATOM     28  C   UNL     1      37.409  30.520  45.194  0.00  0.00    +0.000 C 
ATOM     29  N   UNL     1      36.313  30.970  44.409  0.00  0.00    +0.000 N 
ATOM     30  C   UNL     1      35.124  30.692  43.638  0.00  0.00    +0.000 C 
ATOM     31  O   UNL     1      34.829  29.710  42.887  0.00  0.00    +0.000 OA
ATOM     32  C   UNL     1      34.604  31.982  44.167  0.00  0.00    +0.000 C 
ATOM     33  H   UNL     1      33.944  32.538  43.480  0.00  0.00    +0.000 HD
ATOM     34  C   UNL     1      36.064  32.373  44.092  0.00  0.00    +0.000 C 
ATOM     35  S   UNL     1      36.477  33.406  45.550  0.00  0.00    +0.000 S 
ATOM     36  C   UNL     1      36.783  32.219  46.890  0.00  0.00    +0.000 C 
ATOM     37  H   UNL     1      37.349  32.779  47.654  0.00  0.00    +0.000 HD
BRANCH  28  38
ATOM     38  C   UNL     1      38.235  29.412  44.668  0.00  0.00    +0.000 C 
ATOM     39  O   UNL     1      39.230  28.716  44.969  0.00  0.00    +0.000 OA
BRANCH  38  40
ATOM     40  O   UNL     1      38.060  28.756  43.479  0.00  0.00    +0.000 OA
ATOM     41  H   UNL     1      38.683  28.723  42.696  0.00  0.00    +0.000 HD
ENDBRANCH  38  40
ENDBRANCH  28  38
ENDBRANCH  26  27
ENDBRANCH  25  26
ENDBRANCH   6  25
TORSDOF 6
