
 OpenBabel03272509533D

 50 54  0  0  1  0  0  0  0  0999 V2000
   33.5100   27.5450   47.8790 C   0  0  0  0  0  0  0  0  0  0  0  0
   33.3710   26.7680   48.6690 H   0  0  0  0  0  0  0  0  0  0  0  0
   33.9170   27.0010   46.9920 H   0  0  0  0  0  0  0  0  0  0  0  0
   32.1950   28.0850   47.4700 C   0  0  0  0  0  0  0  0  0  0  0  0
   31.0680   27.7260   48.2050 C   0  0  0  0  0  0  0  0  0  0  0  0
   29.8120   28.1660   47.9150 C   0  0  0  0  0  0  0  0  0  0  0  0
   29.6550   28.9800   46.8780 N   0  0  0  0  0  0  0  0  0  0  0  0
   30.7500   29.3420   46.1460 C   0  0  0  0  0  0  0  0  0  0  0  0
   32.0130   28.9130   46.4200 N   0  0  0  0  0  0  0  0  0  0  0  0
   31.1880   27.0600   49.0550 H   0  0  0  0  0  0  0  0  0  0  0  0
   28.9710   27.8560   48.5180 H   0  0  0  0  0  0  0  0  0  0  0  0
   30.5700   30.2670   44.9700 C   0  0  0  0  0  2  0  0  0  0  0  0
   31.8040   30.4950   44.2160 C   0  0  0  0  0  0  0  0  0  0  0  0
   32.2450   31.7170   43.9760 C   0  0  0  0  0  0  0  0  0  0  0  0
   33.4400   31.9250   43.2470 N   0  0  0  0  0  0  0  0  0  0  0  0
   34.1010   32.7050   42.2640 C   0  0  0  0  0  0  0  0  0  0  0  0
   33.9500   33.7410   41.5950 O   0  0  0  0  0  0  0  0  0  0  0  0
   35.2380   31.7560   42.2600 C   0  0  0  0  0  3  0  0  0  0  0  0
   36.1820   32.2860   42.4370 H   0  0  0  0  0  0  0  0  0  0  0  0
   34.6160   31.0630   43.4540 C   0  0  2  0  0  3  0  0  0  0  0  0
   34.0860   29.3820   43.1430 S   0  0  0  0  0  0  0  0  0  0  0  0
   32.4130   29.2150   43.8040 C   0  0  0  0  0  3  0  0  0  0  0  0
   31.7890   28.6650   43.0680 H   0  0  0  0  0  0  0  0  0  0  0  0
   31.5200   32.8850   44.4540 C   0  0  0  0  0  0  0  0  0  0  0  0
   32.0230   34.0240   44.5670 O   0  0  0  0  0  0  0  0  0  0  0  0
   30.5480   33.7190   44.9280 O   0  0  0  0  0  0  0  0  0  0  0  0
   29.9250   33.3940   45.6790 H   0  0  0  0  0  0  0  0  0  0  0  0
   34.4830   28.6180   48.2580 C   0  0  0  0  0  0  0  0  0  0  0  0
   35.3660   28.6180   47.5810 H   0  0  0  0  0  0  0  0  0  0  0  0
   34.0420   29.6320   48.1820 H   0  0  0  0  0  0  0  0  0  0  0  0
   34.9970   28.3840   49.5680 O   0  0  0  0  0  0  0  0  0  0  0  0
   37.3860   30.1940   51.5650 C   0  0  0  0  0  0  0  0  0  0  0  0
   38.1040   30.8810   50.5510 C   0  0  0  0  0  0  0  0  0  0  0  0
   37.7120   30.6710   49.2480 C   0  0  0  0  0  0  0  0  0  0  0  0
   36.6560   29.8100   49.0460 N   0  0  0  0  0  0  0  0  0  0  0  0
   35.9990   29.1760   50.0260 C   0  0  0  0  0  0  0  0  0  0  0  0
   36.3820   29.3820   51.2940 N   0  0  0  0  0  0  0  0  0  0  0  0
   37.7590   30.4150   52.5510 H   0  0  0  0  0  0  0  0  0  0  0  0
   38.9210   31.5480   50.6920 H   0  0  0  0  0  0  0  0  0  0  0  0
   38.9840   33.2600   49.0270 F   0  0  0  0  0  0  0  0  0  0  0  0
   38.9110   32.4820   47.9560 C   0  0  0  0  0  0  0  0  0  0  0  0
   38.3100   31.2730   48.0830 C   0  0  0  0  0  0  0  0  0  0  0  0
   38.2900   30.5370   46.8920 C   0  0  0  0  0  0  0  0  0  0  0  0
   38.8250   30.9950   45.7150 C   0  0  0  0  0  0  0  0  0  0  0  0
   39.4230   32.2320   45.6440 C   0  0  0  0  0  0  0  0  0  0  0  0
   39.4600   32.9770   46.7930 C   0  0  0  0  0  0  0  0  0  0  0  0
   37.8370   29.5420   46.8480 H   0  0  0  0  0  0  0  0  0  0  0  0
   38.8010   30.4130   44.8040 H   0  0  0  0  0  0  0  0  0  0  0  0
   39.8450   32.5980   44.7290 H   0  0  0  0  0  0  0  0  0  0  0  0
   39.9240   33.9520   46.7630 H   0  0  0  0  0  0  0  0  0  0  0  0
  1 28  1  0  0  0  0
  1  2  1  0  0  0  0
  3  1  1  0  0  0  0
  4  1  1  0  0  0  0
  4  5  1  0  0  0  0
  5 10  1  0  0  0  0
  6  5  2  0  0  0  0
  6 11  1  0  0  0  0
  7  6  1  0  0  0  0
  8  9  1  0  0  0  0
  8  7  2  0  0  0  0
  9  4  2  0  0  0  0
 12  8  1  0  0  0  0
 13 12  1  0  0  0  0
 14 13  2  0  0  0  0
 14 24  1  0  0  0  0
 15 20  1  0  0  0  0
 15 14  1  0  0  0  0
 16 15  1  0  0  0  0
 17 16  2  0  0  0  0
 18 16  1  0  0  0  0
 18 19  1  0  0  0  0
 20 18  1  6  0  0  0
 21 20  1  0  0  0  0
 21 22  1  0  0  0  0
 22 13  1  0  0  0  0
 23 22  1  0  0  0  0
 24 25  2  0  0  0  0
 24 26  1  0  0  0  0
 26 27  1  0  0  0  0
 28 31  1  0  0  0  0
 29 28  1  0  0  0  0
 30 28  1  0  0  0  0
 31 36  1  0  0  0  0
 32 38  1  0  0  0  0
 33 39  1  0  0  0  0
 33 32  2  0  0  0  0
 34 33  1  0  0  0  0
 35 34  2  0  0  0  0
 35 36  1  0  0  0  0
 36 37  2  0  0  0  0
 37 32  1  0  0  0  0
 41 42  1  0  0  0  0
 41 40  1  0  0  0  0
 42 34  1  0  0  0  0
 43 42  2  0  0  0  0
 44 43  1  0  0  0  0
 45 44  2  0  0  0  0
 45 46  1  0  0  0  0
 46 41  2  0  0  0  0
 47 43  1  0  0  0  0
 48 44  1  0  0  0  0
 49 45  1  0  0  0  0
 50 46  1  0  0  0  0
M  END
>  <minimizedAffinity>
-7.00900364

>  <minimizedRMSD>
1.68353963

$$$$
