REMARK  Name = 
REMARK  8 active torsions:
REMARK  status: ('A' for Active; 'I' for Inactive)
REMARK    1  A    between atoms: C_1  and  C_7
REMARK    2  A    between atoms: C_6  and  C_15
REMARK    3  A    between atoms: C_7  and  C_13
REMARK    4  A    between atoms: C_16  and  C_17
REMARK    5  A    between atoms: C_17  and  C_39
REMARK    6  A    between atoms: C_29  and  C_31
REMARK    7  A    between atoms: C_32  and  C_33
REMARK    8  A    between atoms: C_33  and  O_35
REMARK                            x       y       z     vdW  Elec       q    Type
REMARK                         _______ _______ _______ _____ _____    ______ ____
ROOT
ATOM      1  C   UNL     1      37.130  30.958  49.020  0.00  0.00    +0.000 A 
ATOM      2  C   UNL     1      36.919  31.928  49.998  0.00  0.00    +0.000 A 
ATOM      3  C   UNL     1      37.555  33.165  49.985  0.00  0.00    +0.000 A 
ATOM      4  C   UNL     1      38.450  33.459  48.948  0.00  0.00    +0.000 A 
ATOM      5  C   UNL     1      38.648  32.498  47.996  0.00  0.00    +0.000 A 
ATOM      6  C   UNL     1      37.998  31.282  48.042  0.00  0.00    +0.000 A 
ATOM      7  H   UNL     1      36.231  31.759  50.833  0.00  0.00    +0.000 HD
ATOM      8  H   UNL     1      37.356  33.884  50.768  0.00  0.00    +0.000 HD
ATOM      9  H   UNL     1      38.932  34.427  48.959  0.00  0.00    +0.000 HD
ATOM     10  H   UNL     1      39.356  32.813  47.234  0.00  0.00    +0.000 HD
ENDROOT
BRANCH   1  11
ATOM     11  C   UNL     1      36.421  29.707  49.123  0.00  0.00    +0.000 C 
ATOM     12  O   UNL     1      36.935  28.872  49.950  0.00  0.00    +0.000 OA
BRANCH  11  17
ATOM     13  C   UNL     1      33.627  30.171  46.859  0.00  0.00    +0.000 A 
ATOM     14  C   UNL     1      32.960  28.956  46.874  0.00  0.00    +0.000 A 
ATOM     15  C   UNL     1      33.471  27.961  47.670  0.00  0.00    +0.000 A 
ATOM     16  N   UNL     1      34.593  28.193  48.404  0.00  0.00    +0.000 NA
ATOM     17  C   UNL     1      35.209  29.361  48.370  0.00  0.00    +0.000 A 
ATOM     18  N   UNL     1      34.717  30.351  47.591  0.00  0.00    +0.000 NA
ATOM     19  H   UNL     1      33.276  31.014  46.246  0.00  0.00    +0.000 HD
ATOM     20  H   UNL     1      32.082  28.909  46.243  0.00  0.00    +0.000 HD
ATOM     21  H   UNL     1      32.954  27.029  47.678  0.00  0.00    +0.000 HD
ENDBRANCH  11  17
ENDBRANCH   1  11
BRANCH   6  22
ATOM     22  C   UNL     1      38.331  30.381  46.954  0.00  0.00    +0.000 C 
ATOM     23  C   UNL     1      38.809  30.709  45.762  0.00  0.00    +0.000 C 
BRANCH  23  24
ATOM     24  C   UNL     1      39.187  29.906  44.600  0.00  0.00    +0.000 C 
ATOM     25  H   UNL     1      40.275  29.979  44.417  0.00  0.00    +0.000 HD
ATOM     26  H   UNL     1      39.017  28.818  44.840  0.00  0.00    +0.000 HD
BRANCH  24  32
ATOM     27  C   UNL     1      37.653  28.600  39.599  0.00  0.00    +0.000 C 
ATOM     28  C   UNL     1      38.801  29.008  40.112  0.00  0.00    +0.000 C 
ATOM     29  N   UNL     1      38.795  29.593  41.431  0.00  0.00    +0.000 N 
ATOM     30  C   UNL     1      39.304  30.665  42.254  0.00  0.00    +0.000 C 
ATOM     31  O   UNL     1      40.156  31.610  42.138  0.00  0.00    +0.000 OA
ATOM     32  C   UNL     1      38.408  30.217  43.340  0.00  0.00    +0.000 C 
ATOM     33  C   UNL     1      38.014  29.016  42.538  0.00  0.00    +0.000 C 
ATOM     34  S   UNL     1      36.319  28.950  41.979  0.00  0.00    +0.000 S 
ATOM     35  C   UNL     1      36.300  28.669  40.195  0.00  0.00    +0.000 C 
ATOM     36  H   UNL     1      35.665  29.440  39.679  0.00  0.00    +0.000 HD
BRANCH  27  37
ATOM     37  C   UNL     1      37.681  28.003  38.264  0.00  0.00    +0.000 C 
ATOM     38  H   UNL     1      38.352  27.121  38.283  0.00  0.00    +0.000 HD
ENDBRANCH  27  37
BRANCH  28  39
ATOM     39  C   UNL     1      40.078  28.891  39.411  0.00  0.00    +0.000 C 
ATOM     40  O   UNL     1      40.272  28.410  38.282  0.00  0.00    +0.000 OA
BRANCH  39  41
ATOM     41  O   UNL     1      41.273  29.307  39.919  0.00  0.00    +0.000 OA
ATOM     42  H   UNL     1      41.938  29.805  39.368  0.00  0.00    +0.000 HD
ENDBRANCH  39  41
ENDBRANCH  28  39
ENDBRANCH  24  32
ENDBRANCH  23  24
ENDBRANCH   6  22
TORSDOF 8
