
 OpenBabel03272506593D

 42 46  0  0  1  0  0  0  0  0999 V2000
   34.4940   29.2920   48.9260 C   0  0  0  0  0  0  0  0  0  0  0  0
   33.9300   29.6110   47.7110 C   0  0  0  0  0  0  0  0  0  0  0  0
   32.7450   28.9480   47.5650 N   0  0  0  0  0  0  0  0  0  0  0  0
   32.5930   28.2160   48.7110 C   0  0  0  0  0  0  0  0  0  0  0  0
   33.6560   28.4330   49.5240 N   0  0  0  0  0  0  0  0  0  0  0  0
   34.2430   30.2670   46.8870 H   0  0  0  0  0  0  0  0  0  0  0  0
   32.0680   28.9760   46.7510 H   0  0  0  0  0  0  0  0  0  0  0  0
   37.5270   31.1370   48.2740 C   0  0  0  0  0  0  0  0  0  0  0  0
   38.0850   31.1200   49.5450 C   0  0  0  0  0  0  0  0  0  0  0  0
   37.5400   30.5330   50.6620 C   0  0  0  0  0  0  0  0  0  0  0  0
   36.3430   29.9160   50.4830 N   0  0  0  0  0  0  0  0  0  0  0  0
   35.7640   29.9130   49.2430 C   0  0  0  0  0  0  0  0  0  0  0  0
   36.3560   30.5120   48.1830 N   0  0  0  0  0  0  0  0  0  0  0  0
   39.0420   31.6080   49.7100 H   0  0  0  0  0  0  0  0  0  0  0  0
   38.0150   30.5530   51.6170 H   0  0  0  0  0  0  0  0  0  0  0  0
   38.2260   32.2200   44.8900 C   0  0  0  0  0  0  0  0  0  0  0  0
   39.4070   32.9930   44.9970 C   0  0  0  0  0  0  0  0  0  0  0  0
   39.9410   33.1200   46.2750 C   0  0  0  0  0  0  0  0  0  0  0  0
   39.3250   32.5190   47.3130 N   0  0  0  0  0  0  0  0  0  0  0  0
   38.2130   31.7990   47.1680 C   0  0  0  0  0  0  0  0  0  0  0  0
   37.6150   31.6180   45.9530 N   0  0  0  0  0  0  0  0  0  0  0  0
   37.8200   32.1280   43.8930 H   0  0  0  0  0  0  0  0  0  0  0  0
   40.8470   33.7020   46.4140 H   0  0  0  0  0  0  0  0  0  0  0  0
   39.9810   33.5820   43.8550 N   0  0  0  0  0  0  0  0  0  0  0  0
   39.5620   34.3860   43.3360 H   0  0  0  0  0  0  0  0  0  0  0  0
   40.8960   33.1920   43.4910 H   0  0  0  0  0  0  0  0  0  0  0  0
   31.4010   27.3520   48.9240 C   0  0  0  0  0  2  0  0  0  0  0  0
   31.0680   26.5810   47.7160 C   0  0  0  0  0  0  0  0  0  0  0  0
   30.1450   26.9120   46.8430 C   0  0  0  0  0  0  0  0  0  0  0  0
   29.9440   26.0690   45.7290 N   0  0  0  0  0  0  0  0  0  0  0  0
   28.9890   25.4870   44.8210 C   0  0  0  0  0  0  0  0  0  0  0  0
   27.7570   25.6070   44.5080 O   0  0  0  0  0  0  0  0  0  0  0  0
   30.0000   24.5510   44.2560 C   0  0  0  0  0  3  0  0  0  0  0  0
   30.1210   24.6140   43.1570 H   0  0  0  0  0  0  0  0  0  0  0  0
   31.0080   25.3630   45.0000 C   0  0  2  0  0  3  0  0  0  0  0  0
   31.8230   24.3470   46.2820 S   0  0  0  0  0  0  0  0  0  0  0  0
   31.9640   25.4220   47.7170 C   0  0  0  0  0  3  0  0  0  0  0  0
   31.8580   24.8020   48.6510 H   0  0  0  0  0  0  0  0  0  0  0  0
   29.2940   28.1170   46.9360 C   0  0  0  0  0  0  0  0  0  0  0  0
   29.5310   29.3450   46.8430 O   0  0  0  0  0  0  0  0  0  0  0  0
   27.9610   28.0780   47.1640 O   0  0  0  0  0  0  0  0  0  0  0  0
   27.5060   28.6650   47.8480 H   0  0  0  0  0  0  0  0  0  0  0  0
  1 12  1  0  0  0  0
  1  5  1  0  0  0  0
  2  1  2  0  0  0  0
  3  2  1  0  0  0  0
  3  4  1  0  0  0  0
  4 27  1  0  0  0  0
  4  5  2  0  0  0  0
  6  2  1  0  0  0  0
  7  3  1  0  0  0  0
  8  9  1  0  0  0  0
  9 14  1  0  0  0  0
  9 10  2  0  0  0  0
 10 15  1  0  0  0  0
 11 10  1  0  0  0  0
 12 11  2  0  0  0  0
 13  8  2  0  0  0  0
 13 12  1  0  0  0  0
 16 17  2  0  0  0  0
 16 21  1  0  0  0  0
 17 18  1  0  0  0  0
 18 23  1  0  0  0  0
 18 19  2  0  0  0  0
 20 19  1  0  0  0  0
 20  8  1  0  0  0  0
 21 20  2  0  0  0  0
 22 16  1  0  0  0  0
 24 17  1  0  0  0  0
 25 24  1  0  0  0  0
 26 24  1  0  0  0  0
 28 37  1  0  0  0  0
 28 27  1  0  0  0  0
 29 39  1  0  0  0  0
 29 28  2  0  0  0  0
 30 29  1  0  0  0  0
 31 30  1  0  0  0  0
 32 31  2  0  0  0  0
 33 31  1  0  0  0  0
 34 33  1  0  0  0  0
 35 33  1  6  0  0  0
 35 30  1  0  0  0  0
 35 36  1  0  0  0  0
 36 37  1  0  0  0  0
 37 38  1  0  0  0  0
 39 41  1  0  0  0  0
 40 39  2  0  0  0  0
 41 42  1  0  0  0  0
M  END
>  <minimizedAffinity>
-6.27737379

>  <minimizedRMSD>
3.0119884

$$$$
