
 OpenBabel03272507093D

 34 37  0  0  1  0  0  0  0  0999 V2000
   36.1030   29.6220   49.9290 C   0  0  0  0  0  0  0  0  0  0  0  0
   34.9610   29.6430   50.6950 C   0  0  0  0  0  0  0  0  0  0  0  0
   34.0380   28.8110   50.0350 C   0  0  0  0  0  0  0  0  0  0  0  0
   34.6890   28.3420   48.9090 C   0  0  0  0  0  0  0  0  0  0  0  0
   35.8900   28.8510   48.9040 O   0  0  0  0  0  0  0  0  0  0  0  0
   34.7860   30.1880   51.6290 H   0  0  0  0  0  0  0  0  0  0  0  0
   33.0160   28.5970   50.3700 H   0  0  0  0  0  0  0  0  0  0  0  0
   37.2820   30.3770   50.3070 C   0  0  0  0  0  0  0  0  0  0  0  0
   37.6980   30.3080   51.4870 O   0  0  0  0  0  0  0  0  0  0  0  0
   37.9200   31.1810   49.2900 C   0  0  0  0  0  0  0  0  0  0  0  0
   38.3320   32.4590   49.6440 C   0  0  0  0  0  0  0  0  0  0  0  0
   38.9480   33.2570   48.6910 C   0  0  0  0  0  0  0  0  0  0  0  0
   39.1200   32.7350   47.4380 N   0  0  0  0  0  0  0  0  0  0  0  0
   38.7120   31.4910   47.1140 C   0  0  0  0  0  0  0  0  0  0  0  0
   38.1190   30.7230   48.0300 N   0  0  0  0  0  0  0  0  0  0  0  0
   38.1990   32.8740   50.6290 H   0  0  0  0  0  0  0  0  0  0  0  0
   39.2800   34.2570   48.9370 H   0  0  0  0  0  0  0  0  0  0  0  0
   38.8750   31.1210   46.0910 H   0  0  0  0  0  0  0  0  0  0  0  0
   34.0110   27.4180   47.9520 C   0  0  0  0  0  2  0  0  0  0  0  0
   32.9430   28.1910   47.2940 C   0  0  0  0  0  0  0  0  0  0  0  0
   33.1460   29.1190   46.3870 C   0  0  0  0  0  0  0  0  0  0  0  0
   32.0290   29.7810   45.8260 N   0  0  0  0  0  0  0  0  0  0  0  0
   31.4560   31.0280   45.3840 C   0  0  0  0  0  0  0  0  0  0  0  0
   31.8650   32.2150   45.1520 O   0  0  0  0  0  0  0  0  0  0  0  0
   30.1020   30.4570   45.2690 C   0  0  0  0  0  3  0  0  0  0  0  0
   29.5940   30.6320   44.2930 H   0  0  0  0  0  0  0  0  0  0  0  0
   30.7800   29.1360   45.4290 C   0  0  2  0  0  3  0  0  0  0  0  0
   30.2160   28.2370   46.9110 S   0  0  0  0  0  0  0  0  0  0  0  0
   31.6650   27.7150   47.8670 C   0  0  0  0  0  3  0  0  0  0  0  0
   31.6000   26.5880   47.8870 H   0  0  0  0  0  0  0  0  0  0  0  0
   34.4920   29.5090   45.9130 C   0  0  0  0  0  0  0  0  0  0  0  0
   35.2390   29.1520   44.9870 O   0  0  0  0  0  0  0  0  0  0  0  0
   35.2540   30.4790   46.5130 O   0  0  0  0  0  0  0  0  0  0  0  0
   36.2140   30.3130   46.7830 H   0  0  0  0  0  0  0  0  0  0  0  0
  1  8  1  0  0  0  0
  1  2  2  0  0  0  0
  2  6  1  0  0  0  0
  3  7  1  0  0  0  0
  3  2  1  0  0  0  0
  4  3  2  0  0  0  0
  5  4  1  0  0  0  0
  5  1  1  0  0  0  0
  8  9  2  0  0  0  0
 10 11  1  0  0  0  0
 10  8  1  0  0  0  0
 11 16  1  0  0  0  0
 12 17  1  0  0  0  0
 12 11  2  0  0  0  0
 13 12  1  0  0  0  0
 14 13  2  0  0  0  0
 14 15  1  0  0  0  0
 15 10  2  0  0  0  0
 18 14  1  0  0  0  0
 19  4  1  0  0  0  0
 20 29  1  0  0  0  0
 20 19  1  0  0  0  0
 21 20  2  0  0  0  0
 22 21  1  0  0  0  0
 23 22  1  0  0  0  0
 24 23  2  0  0  0  0
 25 23  1  0  0  0  0
 26 25  1  0  0  0  0
 27 25  1  1  0  0  0
 27 22  1  0  0  0  0
 27 28  1  0  0  0  0
 28 29  1  0  0  0  0
 29 30  1  0  0  0  0
 31 21  1  0  0  0  0
 31 33  1  0  0  0  0
 32 31  2  0  0  0  0
 33 34  1  0  0  0  0
M  END
>  <minimizedAffinity>
-6.10223436

>  <minimizedRMSD>
2.1442008

$$$$
