
 OpenBabel03272506103D

 51 55  0  0  1  0  0  0  0  0999 V2000
   36.4240   26.8150   31.2330 C   0  0  0  0  0  0  0  0  0  0  0  0
   37.2220   26.1920   30.7410 H   0  0  0  0  0  0  0  0  0  0  0  0
   35.4710   26.3400   30.9300 H   0  0  0  0  0  0  0  0  0  0  0  0
   37.5580   29.6600   29.1520 C   0  0  0  0  0  0  0  0  0  0  0  0
   36.8390   30.7350   29.6460 C   0  0  0  0  0  0  0  0  0  0  0  0
   35.9530   30.4610   30.7140 C   0  0  0  0  0  0  0  0  0  0  0  0
   35.8780   29.1910   31.1640 N   0  0  0  0  0  0  0  0  0  0  0  0
   36.6050   28.1840   30.6410 C   0  0  0  0  0  0  0  0  0  0  0  0
   37.4380   28.4110   29.6450 N   0  0  0  0  0  0  0  0  0  0  0  0
   38.2260   29.8820   28.3420 H   0  0  0  0  0  0  0  0  0  0  0  0
   36.8820   31.7490   29.3060 H   0  0  0  0  0  0  0  0  0  0  0  0
   35.1190   31.5180   31.2460 C   0  0  0  0  0  2  0  0  0  0  0  0
   34.9530   31.6690   32.6930 C   0  0  0  0  0  0  0  0  0  0  0  0
   34.0330   31.2080   33.5190 C   0  0  0  0  0  0  0  0  0  0  0  0
   34.0500   31.4670   34.9350 N   0  0  0  0  0  0  0  0  0  0  0  0
   33.3550   31.7450   36.1410 C   0  0  0  0  0  0  0  0  0  0  0  0
   32.1440   31.8170   36.4740 O   0  0  0  0  0  0  0  0  0  0  0  0
   34.5960   31.9330   36.9230 C   0  0  0  0  0  3  0  0  0  0  0  0
   34.7340   31.1820   37.7430 H   0  0  0  0  0  0  0  0  0  0  0  0
   35.3220   31.5030   35.6880 C   0  0  2  0  0  3  0  0  0  0  0  0
   36.2700   32.8040   34.8540 S   0  0  0  0  0  0  0  0  0  0  0  0
   36.0990   32.5230   33.0950 C   0  0  0  0  0  3  0  0  0  0  0  0
   36.0710   33.5020   32.5200 H   0  0  0  0  0  0  0  0  0  0  0  0
   32.9560   30.4020   32.9940 C   0  0  0  0  0  2  0  0  0  0  0  0
   33.0060   29.1420   33.1400 O   0  0  0  0  0  0  0  0  0  0  0  0
   31.9310   29.6330   32.4940 O   0  0  0  0  0  0  0  0  0  0  0  0
   30.9770   29.9100   32.3570 H   0  0  0  0  0  0  0  0  0  0  0  0
   36.6770   26.8420   32.6970 C   0  0  0  0  0  0  0  0  0  0  0  0
   35.6710   26.7690   33.1960 H   0  0  0  0  0  0  0  0  0  0  0  0
   37.0960   27.8040   33.0760 H   0  0  0  0  0  0  0  0  0  0  0  0
   37.5160   25.6780   33.1360 C   0  0  0  0  0  0  0  0  0  0  0  0
   38.0880   24.8430   32.1240 C   0  0  0  0  0  0  0  0  0  0  0  0
   38.9550   23.6560   33.1180 S   0  0  0  0  0  0  0  0  0  0  0  0
   38.4430   24.4220   34.7460 C   0  0  0  0  0  0  0  0  0  0  0  0
   37.7870   25.3330   34.3550 N   0  0  0  0  0  0  0  0  0  0  0  0
   38.7410   24.0440   36.1200 N   0  0  0  0  0  0  0  0  0  0  0  0
   39.9780   23.3860   36.3410 C   0  0  0  0  0  0  0  0  0  0  0  0
   40.0680   22.6650   37.6470 C   0  0  0  0  0  0  0  0  0  0  0  0
   38.8100   22.6060   38.3720 N   0  0  0  0  0  0  0  0  0  0  0  0
   38.3600   23.9960   38.4870 C   0  0  0  0  0  0  0  0  0  0  0  0
   37.7800   24.3560   37.1540 C   0  0  0  0  0  0  0  0  0  0  0  0
   38.0100   24.9220   31.0740 H   0  0  0  0  0  0  0  0  0  0  0  0
   40.1510   22.6740   35.4980 H   0  0  0  0  0  0  0  0  0  0  0  0
   40.7940   24.1390   36.2700 H   0  0  0  0  0  0  0  0  0  0  0  0
   40.3960   21.6200   37.5170 H   0  0  0  0  0  0  0  0  0  0  0  0
   40.7850   23.2070   38.3230 H   0  0  0  0  0  0  0  0  0  0  0  0
   39.0000   22.2530   39.3200 H   0  0  0  0  0  0  0  0  0  0  0  0
   37.5940   24.0960   39.3000 H   0  0  0  0  0  0  0  0  0  0  0  0
   39.2280   24.6630   38.6860 H   0  0  0  0  0  0  0  0  0  0  0  0
   37.4510   25.4150   37.1030 H   0  0  0  0  0  0  0  0  0  0  0  0
   36.9110   23.6650   36.9900 H   0  0  0  0  0  0  0  0  0  0  0  0
  1 28  1  0  0  0  0
  2  1  1  0  0  0  0
  3  1  1  0  0  0  0
  4  9  2  0  0  0  0
  4  5  1  0  0  0  0
  5  6  2  0  0  0  0
  6  7  1  0  0  0  0
  6 12  1  0  0  0  0
  8  7  2  0  0  0  0
  8  1  1  0  0  0  0
  9  8  1  0  0  0  0
 10  4  1  0  0  0  0
 11  5  1  0  0  0  0
 12 13  1  0  0  0  0
 13 22  1  0  0  0  0
 13 14  2  0  0  0  0
 14 15  1  0  0  0  0
 15 20  1  0  0  0  0
 15 16  1  0  0  0  0
 16 17  2  0  0  0  0
 16 18  1  0  0  0  0
 18 19  1  0  0  0  0
 20 21  1  6  0  0  0
 20 18  1  0  0  0  0
 22 21  1  0  0  0  0
 23 22  1  0  0  0  0
 24 25  1  0  0  0  0
 24 14  1  0  0  0  0
 26 25  1  0  0  0  0
 27 26  1  0  0  0  0
 28 30  1  0  0  0  0
 28 31  1  0  0  0  0
 28 29  1  0  0  0  0
 31 35  1  0  0  0  0
 32 33  1  0  0  0  0
 32 31  2  0  0  0  0
 33 34  1  0  0  0  0
 34 36  1  0  0  0  0
 35 34  2  0  0  0  0
 36 37  1  0  0  0  0
 36 41  1  0  0  0  0
 37 38  1  0  0  0  0
 38 46  1  0  0  0  0
 38 39  1  0  0  0  0
 39 40  1  0  0  0  0
 39 47  1  0  0  0  0
 40 49  1  0  0  0  0
 40 48  1  0  0  0  0
 41 40  1  0  0  0  0
 42 32  1  0  0  0  0
 43 37  1  0  0  0  0
 44 37  1  0  0  0  0
 45 38  1  0  0  0  0
 50 41  1  0  0  0  0
 51 41  1  0  0  0  0
M  END
>  <minimizedAffinity>
-6.56941414

$$$$

 OpenBabel03272506103D

 51 55  0  0  1  0  0  0  0  0999 V2000
   36.5930   25.4580   31.0860 C   0  0  0  0  0  0  0  0  0  0  0  0
   36.1240   26.0950   30.2860 H   0  0  0  0  0  0  0  0  0  0  0  0
   35.8930   24.6100   31.2150 H   0  0  0  0  0  0  0  0  0  0  0  0
   36.2410   28.3430   33.3810 C   0  0  0  0  0  0  0  0  0  0  0  0
   36.7990   27.8900   34.5650 C   0  0  0  0  0  0  0  0  0  0  0  0
   37.3010   26.5680   34.5590 C   0  0  0  0  0  0  0  0  0  0  0  0
   37.2000   25.8590   33.4150 N   0  0  0  0  0  0  0  0  0  0  0  0
   36.6450   26.3550   32.2910 C   0  0  0  0  0  0  0  0  0  0  0  0
   36.1690   27.5840   32.2700 N   0  0  0  0  0  0  0  0  0  0  0  0
   35.8640   29.3480   33.4000 H   0  0  0  0  0  0  0  0  0  0  0  0
   36.8890   28.4340   35.4820 H   0  0  0  0  0  0  0  0  0  0  0  0
   37.8440   25.9990   35.7730 C   0  0  0  0  0  2  0  0  0  0  0  0
   39.0150   25.1220   35.7190 C   0  0  0  0  0  0  0  0  0  0  0  0
   39.1870   23.8710   36.1010 C   0  0  0  0  0  0  0  0  0  0  0  0
   40.4370   23.1700   35.9530 N   0  0  0  0  0  0  0  0  0  0  0  0
   41.3960   22.2510   36.4520 C   0  0  0  0  0  0  0  0  0  0  0  0
   41.4550   21.4780   37.4430 O   0  0  0  0  0  0  0  0  0  0  0  0
   42.3560   22.5150   35.3600 C   0  0  0  0  0  3  0  0  0  0  0  0
   42.5570   21.6270   34.7060 H   0  0  0  0  0  0  0  0  0  0  0  0
   41.2890   23.3770   34.7620 C   0  0  2  0  0  3  0  0  0  0  0  0
   41.6270   25.1580   34.7860 S   0  0  0  0  0  0  0  0  0  0  0  0
   40.0690   25.9760   35.1170 C   0  0  0  0  0  3  0  0  0  0  0  0
   40.2170   26.9090   35.7470 H   0  0  0  0  0  0  0  0  0  0  0  0
   38.0800   23.1570   36.6920 C   0  0  0  0  0  2  0  0  0  0  0  0
   37.5420   22.2110   36.0390 O   0  0  0  0  0  0  0  0  0  0  0  0
   37.0260   22.4760   37.2540 O   0  0  0  0  0  0  0  0  0  0  0  0
   36.8390   22.3490   38.2320 H   0  0  0  0  0  0  0  0  0  0  0  0
   37.9650   25.0840   30.6550 C   0  0  0  0  0  0  0  0  0  0  0  0
   38.6630   25.4500   31.4590 H   0  0  0  0  0  0  0  0  0  0  0  0
   38.3190   25.6060   29.7350 H   0  0  0  0  0  0  0  0  0  0  0  0
   38.1190   23.5980   30.5260 C   0  0  0  0  0  0  0  0  0  0  0  0
   39.2290   23.1010   29.7700 C   0  0  0  0  0  0  0  0  0  0  0  0
   38.9750   21.3500   29.9120 S   0  0  0  0  0  0  0  0  0  0  0  0
   37.4300   21.5070   30.9550 C   0  0  0  0  0  0  0  0  0  0  0  0
   37.3450   22.6910   31.0320 N   0  0  0  0  0  0  0  0  0  0  0  0
   36.5520   20.4970   31.5290 N   0  0  0  0  0  0  0  0  0  0  0  0
   37.1500   19.2530   31.8560 C   0  0  0  0  0  0  0  0  0  0  0  0
   36.1770   18.1340   32.0500 C   0  0  0  0  0  0  0  0  0  0  0  0
   34.8130   18.4740   31.6830 N   0  0  0  0  0  0  0  0  0  0  0  0
   34.4920   19.6820   32.4460 C   0  0  0  0  0  0  0  0  0  0  0  0
   35.1560   20.8170   31.7270 C   0  0  0  0  0  0  0  0  0  0  0  0
   39.9860   23.6380   29.2690 H   0  0  0  0  0  0  0  0  0  0  0  0
   37.8780   18.9910   31.0500 H   0  0  0  0  0  0  0  0  0  0  0  0
   37.7580   19.3860   32.7780 H   0  0  0  0  0  0  0  0  0  0  0  0
   36.4450   17.2490   31.4480 H   0  0  0  0  0  0  0  0  0  0  0  0
   36.1400   17.8570   33.1390 H   0  0  0  0  0  0  0  0  0  0  0  0
   34.1940   17.7180   32.0070 H   0  0  0  0  0  0  0  0  0  0  0  0
   33.3820   19.8330   32.4970 H   0  0  0  0  0  0  0  0  0  0  0  0
   34.9230   19.6130   33.4700 H   0  0  0  0  0  0  0  0  0  0  0  0
   35.0270   21.7880   32.2490 H   0  0  0  0  0  0  0  0  0  0  0  0
   34.6970   20.8550   30.7040 H   0  0  0  0  0  0  0  0  0  0  0  0
  1  3  1  0  0  0  0
  1  8  1  0  0  0  0
  2  1  1  0  0  0  0
  4 10  1  0  0  0  0
  4  5  1  0  0  0  0
  5 11  1  0  0  0  0
  6  5  2  0  0  0  0
  6 12  1  0  0  0  0
  7  6  1  0  0  0  0
  8  7  2  0  0  0  0
  9  8  1  0  0  0  0
  9  4  2  0  0  0  0
 13 12  1  0  0  0  0
 13 14  2  0  0  0  0
 14 24  1  0  0  0  0
 15 14  1  0  0  0  0
 15 16  1  0  0  0  0
 16 17  2  0  0  0  0
 18 16  1  0  0  0  0
 19 18  1  0  0  0  0
 20 21  1  1  0  0  0
 20 18  1  0  0  0  0
 20 15  1  0  0  0  0
 21 22  1  0  0  0  0
 22 13  1  0  0  0  0
 22 23  1  0  0  0  0
 25 24  1  0  0  0  0
 25 26  1  0  0  0  0
 26 27  1  0  0  0  0
 28  1  1  0  0  0  0
 28 29  1  0  0  0  0
 30 28  1  0  0  0  0
 31 28  1  0  0  0  0
 31 35  1  0  0  0  0
 32 33  1  0  0  0  0
 32 31  2  0  0  0  0
 33 34  1  0  0  0  0
 34 35  2  0  0  0  0
 34 36  1  0  0  0  0
 36 41  1  0  0  0  0
 36 37  1  0  0  0  0
 37 38  1  0  0  0  0
 37 44  1  0  0  0  0
 38 46  1  0  0  0  0
 39 47  1  0  0  0  0
 39 38  1  0  0  0  0
 39 40  1  0  0  0  0
 40 48  1  0  0  0  0
 40 49  1  0  0  0  0
 41 50  1  0  0  0  0
 41 40  1  0  0  0  0
 42 32  1  0  0  0  0
 43 37  1  0  0  0  0
 45 38  1  0  0  0  0
 51 41  1  0  0  0  0
M  END
>  <minimizedAffinity>
-6.45380068

$$$$

 OpenBabel03272506103D

 51 55  0  0  1  0  0  0  0  0999 V2000
   36.5730   26.7330   31.2110 C   0  0  0  0  0  0  0  0  0  0  0  0
   37.4690   26.2050   30.7810 H   0  0  0  0  0  0  0  0  0  0  0  0
   35.7030   26.2200   30.7600 H   0  0  0  0  0  0  0  0  0  0  0  0
   37.3580   29.7430   29.2010 C   0  0  0  0  0  0  0  0  0  0  0  0
   36.9210   30.7900   29.9950 C   0  0  0  0  0  0  0  0  0  0  0  0
   36.3490   30.4400   31.2400 C   0  0  0  0  0  0  0  0  0  0  0  0
   36.2750   29.1300   31.5550 N   0  0  0  0  0  0  0  0  0  0  0  0
   36.7190   28.1530   30.7390 C   0  0  0  0  0  0  0  0  0  0  0  0
   37.2560   28.4520   29.5740 N   0  0  0  0  0  0  0  0  0  0  0  0
   37.7900   30.0240   28.2600 H   0  0  0  0  0  0  0  0  0  0  0  0
   36.9690   31.8350   29.7660 H   0  0  0  0  0  0  0  0  0  0  0  0
   35.8110   31.4720   32.1010 C   0  0  0  0  0  2  0  0  0  0  0  0
   34.5490   31.2580   32.8100 C   0  0  0  0  0  0  0  0  0  0  0  0
   34.2920   31.0170   34.0820 C   0  0  0  0  0  0  0  0  0  0  0  0
   32.9580   30.8400   34.5940 N   0  0  0  0  0  0  0  0  0  0  0  0
   32.0560   30.1860   35.4730 C   0  0  0  0  0  0  0  0  0  0  0  0
   32.1720   29.3480   36.4040 O   0  0  0  0  0  0  0  0  0  0  0  0
   30.8670   30.8520   34.9000 C   0  0  0  0  0  3  0  0  0  0  0  0
   30.3280   31.5190   35.6220 H   0  0  0  0  0  0  0  0  0  0  0  0
   31.8290   31.6420   34.0720 C   0  0  2  0  0  3  0  0  0  0  0  0
   31.8220   31.2610   32.2990 S   0  0  0  0  0  0  0  0  0  0  0  0
   33.5210   31.3530   31.7430 C   0  0  0  0  0  3  0  0  0  0  0  0
   33.7340   30.5860   30.9330 H   0  0  0  0  0  0  0  0  0  0  0  0
   35.3890   30.9310   35.0170 C   0  0  0  0  0  2  0  0  0  0  0  0
   35.2590   31.4540   36.1660 O   0  0  0  0  0  0  0  0  0  0  0  0
   36.4330   30.8480   35.9080 O   0  0  0  0  0  0  0  0  0  0  0  0
   37.1400   30.1370   35.9490 H   0  0  0  0  0  0  0  0  0  0  0  0
   36.6470   26.6670   32.6940 C   0  0  0  0  0  0  0  0  0  0  0  0
   35.5990   26.4790   33.0570 H   0  0  0  0  0  0  0  0  0  0  0  0
   36.9350   27.6240   33.1860 H   0  0  0  0  0  0  0  0  0  0  0  0
   37.5230   25.5380   33.1540 C   0  0  0  0  0  0  0  0  0  0  0  0
   38.1310   24.7110   32.1570 C   0  0  0  0  0  0  0  0  0  0  0  0
   39.0320   23.5680   33.1720 S   0  0  0  0  0  0  0  0  0  0  0  0
   38.4830   24.3370   34.7860 C   0  0  0  0  0  0  0  0  0  0  0  0
   37.7980   25.2190   34.3780 N   0  0  0  0  0  0  0  0  0  0  0  0
   38.7850   23.9890   36.1680 N   0  0  0  0  0  0  0  0  0  0  0  0
   40.0420   23.3770   36.4050 C   0  0  0  0  0  0  0  0  0  0  0  0
   40.1490   22.6780   37.7220 C   0  0  0  0  0  0  0  0  0  0  0  0
   38.8890   22.5850   38.4390 N   0  0  0  0  0  0  0  0  0  0  0  0
   38.3890   23.9590   38.5330 C   0  0  0  0  0  0  0  0  0  0  0  0
   37.8060   24.2810   37.1900 C   0  0  0  0  0  0  0  0  0  0  0  0
   38.0570   24.7730   31.1050 H   0  0  0  0  0  0  0  0  0  0  0  0
   40.2460   22.6600   35.5730 H   0  0  0  0  0  0  0  0  0  0  0  0
   40.8320   24.1570   36.3290 H   0  0  0  0  0  0  0  0  0  0  0  0
   40.5140   21.6430   37.6080 H   0  0  0  0  0  0  0  0  0  0  0  0
   40.8410   23.2540   38.3950 H   0  0  0  0  0  0  0  0  0  0  0  0
   39.0840   22.2510   39.3930 H   0  0  0  0  0  0  0  0  0  0  0  0
   37.6150   24.0430   39.3390 H   0  0  0  0  0  0  0  0  0  0  0  0
   39.2330   24.6590   38.7280 H   0  0  0  0  0  0  0  0  0  0  0  0
   37.4400   25.3270   37.1230 H   0  0  0  0  0  0  0  0  0  0  0  0
   36.9630   23.5580   37.0310 H   0  0  0  0  0  0  0  0  0  0  0  0
  1 28  1  0  0  0  0
  2  1  1  0  0  0  0
  3  1  1  0  0  0  0
  4  9  2  0  0  0  0
  4  5  1  0  0  0  0
  5  6  2  0  0  0  0
  6  7  1  0  0  0  0
  6 12  1  0  0  0  0
  8  1  1  0  0  0  0
  8  7  2  0  0  0  0
  9  8  1  0  0  0  0
 10  4  1  0  0  0  0
 11  5  1  0  0  0  0
 12 13  1  0  0  0  0
 13 14  2  0  0  0  0
 14 15  1  0  0  0  0
 14 24  1  0  0  0  0
 15 16  1  0  0  0  0
 16 17  2  0  0  0  0
 18 16  1  0  0  0  0
 18 19  1  0  0  0  0
 20 21  1  6  0  0  0
 20 15  1  0  0  0  0
 20 18  1  0  0  0  0
 22 21  1  0  0  0  0
 22 13  1  0  0  0  0
 23 22  1  0  0  0  0
 24 25  1  0  0  0  0
 26 27  1  0  0  0  0
 26 25  1  0  0  0  0
 28 29  1  0  0  0  0
 28 31  1  0  0  0  0
 28 30  1  0  0  0  0
 31 35  1  0  0  0  0
 32 31  2  0  0  0  0
 32 33  1  0  0  0  0
 33 34  1  0  0  0  0
 34 36  1  0  0  0  0
 35 34  2  0  0  0  0
 36 37  1  0  0  0  0
 36 41  1  0  0  0  0
 37 38  1  0  0  0  0
 38 46  1  0  0  0  0
 38 39  1  0  0  0  0
 39 40  1  0  0  0  0
 39 47  1  0  0  0  0
 40 49  1  0  0  0  0
 40 48  1  0  0  0  0
 41 40  1  0  0  0  0
 42 32  1  0  0  0  0
 43 37  1  0  0  0  0
 44 37  1  0  0  0  0
 45 38  1  0  0  0  0
 50 41  1  0  0  0  0
 51 41  1  0  0  0  0
M  END
>  <minimizedAffinity>
-6.39021158

$$$$

 OpenBabel03272506103D

 51 55  0  0  1  0  0  0  0  0999 V2000
   37.3470   25.8920   30.9820 C   0  0  0  0  0  0  0  0  0  0  0  0
   38.4220   25.8790   31.3120 H   0  0  0  0  0  0  0  0  0  0  0  0
   37.3850   25.6880   29.8950 H   0  0  0  0  0  0  0  0  0  0  0  0
   36.4090   29.4650   30.7150 C   0  0  0  0  0  0  0  0  0  0  0  0
   36.0020   29.7940   31.9970 C   0  0  0  0  0  0  0  0  0  0  0  0
   36.0560   28.7590   32.9590 C   0  0  0  0  0  0  0  0  0  0  0  0
   36.4970   27.5470   32.5600 N   0  0  0  0  0  0  0  0  0  0  0  0
   36.8800   27.2860   31.2950 C   0  0  0  0  0  0  0  0  0  0  0  0
   36.8390   28.2330   30.3780 N   0  0  0  0  0  0  0  0  0  0  0  0
   36.3620   30.2600   29.9950 H   0  0  0  0  0  0  0  0  0  0  0  0
   35.6500   30.7460   32.3350 H   0  0  0  0  0  0  0  0  0  0  0  0
   35.5910   29.0040   34.3070 C   0  0  0  0  0  2  0  0  0  0  0  0
   34.8160   30.2080   34.6140 C   0  0  0  0  0  0  0  0  0  0  0  0
   33.5790   30.5520   34.3080 C   0  0  0  0  0  0  0  0  0  0  0  0
   32.9880   31.8000   34.7160 N   0  0  0  0  0  0  0  0  0  0  0  0
   32.1460   32.9090   34.4400 C   0  0  0  0  0  0  0  0  0  0  0  0
   31.3690   33.2230   33.5020 O   0  0  0  0  0  0  0  0  0  0  0  0
   32.5040   33.6120   35.6900 C   0  0  0  0  0  3  0  0  0  0  0  0
   31.6440   33.7510   36.3940 H   0  0  0  0  0  0  0  0  0  0  0  0
   33.2800   32.3830   36.0430 C   0  0  2  0  0  3  0  0  0  0  0  0
   35.0830   32.5750   36.0350 S   0  0  0  0  0  0  0  0  0  0  0  0
   35.7630   31.0530   35.3850 C   0  0  0  0  0  3  0  0  0  0  0  0
   36.6970   31.2460   34.7690 H   0  0  0  0  0  0  0  0  0  0  0  0
   32.7680   29.6430   33.5340 C   0  0  0  0  0  2  0  0  0  0  0  0
   31.5180   29.5990   33.7510 O   0  0  0  0  0  0  0  0  0  0  0  0
   31.9940   28.7780   32.7960 O   0  0  0  0  0  0  0  0  0  0  0  0
   32.1780   28.4390   31.8700 H   0  0  0  0  0  0  0  0  0  0  0  0
   36.5900   24.8970   31.7860 C   0  0  0  0  0  0  0  0  0  0  0  0
   36.0050   24.2740   31.0540 H   0  0  0  0  0  0  0  0  0  0  0  0
   35.8080   25.3360   32.4490 H   0  0  0  0  0  0  0  0  0  0  0  0
   37.5080   23.9950   32.5570 C   0  0  0  0  0  0  0  0  0  0  0  0
   38.1930   22.9630   31.8400 C   0  0  0  0  0  0  0  0  0  0  0  0
   39.1180   22.2020   33.1490 S   0  0  0  0  0  0  0  0  0  0  0  0
   38.4740   23.3520   34.4760 C   0  0  0  0  0  0  0  0  0  0  0  0
   37.7570   24.0440   33.8270 N   0  0  0  0  0  0  0  0  0  0  0  0
   38.7470   23.4180   35.9050 N   0  0  0  0  0  0  0  0  0  0  0  0
   40.0270   22.9730   36.3250 C   0  0  0  0  0  0  0  0  0  0  0  0
   40.1250   22.6720   37.7860 C   0  0  0  0  0  0  0  0  0  0  0  0
   38.8480   22.7050   38.4780 N   0  0  0  0  0  0  0  0  0  0  0  0
   38.2730   24.0180   38.1780 C   0  0  0  0  0  0  0  0  0  0  0  0
   37.7190   23.9210   36.7880 C   0  0  0  0  0  0  0  0  0  0  0  0
   38.1510   22.7270   30.8120 H   0  0  0  0  0  0  0  0  0  0  0  0
   40.2960   22.0680   35.7290 H   0  0  0  0  0  0  0  0  0  0  0  0
   40.7760   23.7480   36.0490 H   0  0  0  0  0  0  0  0  0  0  0  0
   40.5480   21.6700   37.9700 H   0  0  0  0  0  0  0  0  0  0  0  0
   40.7630   23.4520   38.2850 H   0  0  0  0  0  0  0  0  0  0  0  0
   39.0290   22.6600   39.4910 H   0  0  0  0  0  0  0  0  0  0  0  0
   37.4690   24.2750   38.9150 H   0  0  0  0  0  0  0  0  0  0  0  0
   39.0710   24.7950   38.1860 H   0  0  0  0  0  0  0  0  0  0  0  0
   37.3020   24.8840   36.4270 H   0  0  0  0  0  0  0  0  0  0  0  0
   36.9220   23.1320   36.8210 H   0  0  0  0  0  0  0  0  0  0  0  0
  1  8  1  0  0  0  0
  1  2  1  0  0  0  0
  1 28  1  0  0  0  0
  3  1  1  0  0  0  0
  4  5  1  0  0  0  0
  5 11  1  0  0  0  0
  5  6  2  0  0  0  0
  6 12  1  0  0  0  0
  7  6  1  0  0  0  0
  8  7  2  0  0  0  0
  9  4  2  0  0  0  0
  9  8  1  0  0  0  0
 10  4  1  0  0  0  0
 12 13  1  0  0  0  0
 13 22  1  0  0  0  0
 14 13  2  0  0  0  0
 14 15  1  0  0  0  0
 15 20  1  0  0  0  0
 16 15  1  0  0  0  0
 16 18  1  0  0  0  0
 17 16  2  0  0  0  0
 18 19  1  0  0  0  0
 20 18  1  6  0  0  0
 21 20  1  0  0  0  0
 22 21  1  0  0  0  0
 23 22  1  0  0  0  0
 24 25  1  0  0  0  0
 24 14  1  0  0  0  0
 26 25  1  0  0  0  0
 27 26  1  0  0  0  0
 28 30  1  0  0  0  0
 28 31  1  0  0  0  0
 29 28  1  0  0  0  0
 31 35  1  0  0  0  0
 32 31  2  0  0  0  0
 32 33  1  0  0  0  0
 33 34  1  0  0  0  0
 34 36  1  0  0  0  0
 35 34  2  0  0  0  0
 36 37  1  0  0  0  0
 36 41  1  0  0  0  0
 37 38  1  0  0  0  0
 38 45  1  0  0  0  0
 38 46  1  0  0  0  0
 38 39  1  0  0  0  0
 39 47  1  0  0  0  0
 40 49  1  0  0  0  0
 40 39  1  0  0  0  0
 40 48  1  0  0  0  0
 41 51  1  0  0  0  0
 41 40  1  0  0  0  0
 42 32  1  0  0  0  0
 43 37  1  0  0  0  0
 44 37  1  0  0  0  0
 50 41  1  0  0  0  0
M  END
>  <minimizedAffinity>
-6.38476706

$$$$

 OpenBabel03272506103D

 51 55  0  0  1  0  0  0  0  0999 V2000
   36.9070   27.3410   33.2110 C   0  0  0  0  0  0  0  0  0  0  0  0
   35.9100   26.9200   33.5210 H   0  0  0  0  0  0  0  0  0  0  0  0
   37.4720   27.4470   34.1560 H   0  0  0  0  0  0  0  0  0  0  0  0
   36.7190   30.2260   30.8970 C   0  0  0  0  0  0  0  0  0  0  0  0
   35.8730   31.1110   31.5440 C   0  0  0  0  0  0  0  0  0  0  0  0
   35.3660   30.6950   32.7970 C   0  0  0  0  0  0  0  0  0  0  0  0
   35.7420   29.4840   33.2610 N   0  0  0  0  0  0  0  0  0  0  0  0
   36.5710   28.6640   32.5830 C   0  0  0  0  0  0  0  0  0  0  0  0
   37.0570   29.0280   31.4130 N   0  0  0  0  0  0  0  0  0  0  0  0
   37.0960   30.5550   29.9470 H   0  0  0  0  0  0  0  0  0  0  0  0
   35.5620   32.0740   31.1960 H   0  0  0  0  0  0  0  0  0  0  0  0
   34.4270   31.5350   33.5090 C   0  0  0  0  0  2  0  0  0  0  0  0
   33.3160   30.9370   34.2510 C   0  0  0  0  0  0  0  0  0  0  0  0
   33.0860   30.8350   35.5460 C   0  0  0  0  0  0  0  0  0  0  0  0
   31.9090   30.2050   36.0870 N   0  0  0  0  0  0  0  0  0  0  0  0
   31.2940   29.3950   37.0770 C   0  0  0  0  0  0  0  0  0  0  0  0
   31.6750   28.8590   38.1490 O   0  0  0  0  0  0  0  0  0  0  0  0
   29.9840   29.3890   36.3930 C   0  0  0  0  0  3  0  0  0  0  0  0
   29.1650   29.8820   36.9780 H   0  0  0  0  0  0  0  0  0  0  0  0
   30.5940   30.3550   35.4270 C   0  0  2  0  0  3  0  0  0  0  0  0
   30.8800   29.7060   33.7590 S   0  0  0  0  0  0  0  0  0  0  0  0
   32.4250   30.4060   33.1890 C   0  0  0  0  0  3  0  0  0  0  0  0
   32.9970   29.6720   32.5370 H   0  0  0  0  0  0  0  0  0  0  0  0
   34.0460   31.3800   36.4760 C   0  0  0  0  0  2  0  0  0  0  0  0
   33.6490   32.2060   37.3550 O   0  0  0  0  0  0  0  0  0  0  0  0
   34.9600   31.8990   37.3630 O   0  0  0  0  0  0  0  0  0  0  0  0
   35.8120   31.4710   37.6770 H   0  0  0  0  0  0  0  0  0  0  0  0
   37.5170   26.4290   32.2090 C   0  0  0  0  0  0  0  0  0  0  0  0
   38.2800   27.0370   31.6470 H   0  0  0  0  0  0  0  0  0  0  0  0
   36.8170   26.0780   31.4160 H   0  0  0  0  0  0  0  0  0  0  0  0
   38.2140   25.2740   32.8640 C   0  0  0  0  0  0  0  0  0  0  0  0
   38.8410   24.3010   32.0220 C   0  0  0  0  0  0  0  0  0  0  0  0
   39.5000   23.1820   33.2320 S   0  0  0  0  0  0  0  0  0  0  0  0
   38.8570   24.1510   34.6970 C   0  0  0  0  0  0  0  0  0  0  0  0
   38.3160   25.0500   34.1360 N   0  0  0  0  0  0  0  0  0  0  0  0
   38.9650   23.9100   36.1290 N   0  0  0  0  0  0  0  0  0  0  0  0
   40.1180   23.2100   36.5660 C   0  0  0  0  0  0  0  0  0  0  0  0
   40.0040   22.6340   37.9410 C   0  0  0  0  0  0  0  0  0  0  0  0
   38.6690   22.7280   38.5070 N   0  0  0  0  0  0  0  0  0  0  0  0
   38.3080   24.1450   38.4230 C   0  0  0  0  0  0  0  0  0  0  0  0
   37.9140   24.3900   36.9980 C   0  0  0  0  0  0  0  0  0  0  0  0
   38.8910   24.2680   30.9680 H   0  0  0  0  0  0  0  0  0  0  0  0
   40.3380   22.4000   35.8300 H   0  0  0  0  0  0  0  0  0  0  0  0
   40.9880   23.9020   36.5200 H   0  0  0  0  0  0  0  0  0  0  0  0
   40.2700   21.5630   37.9600 H   0  0  0  0  0  0  0  0  0  0  0  0
   40.6730   23.2050   38.6410 H   0  0  0  0  0  0  0  0  0  0  0  0
   38.7220   22.4710   39.5030 H   0  0  0  0  0  0  0  0  0  0  0  0
   37.4610   24.3790   39.1200 H   0  0  0  0  0  0  0  0  0  0  0  0
   39.1920   24.7790   38.6580 H   0  0  0  0  0  0  0  0  0  0  0  0
   37.6690   25.4540   36.7990 H   0  0  0  0  0  0  0  0  0  0  0  0
   37.0230   23.7360   36.8000 H   0  0  0  0  0  0  0  0  0  0  0  0
  1  2  1  0  0  0  0
  1  3  1  0  0  0  0
  4  9  2  0  0  0  0
  4  5  1  0  0  0  0
  5  6  2  0  0  0  0
  6  7  1  0  0  0  0
  6 12  1  0  0  0  0
  8  1  1  0  0  0  0
  8  7  2  0  0  0  0
  9  8  1  0  0  0  0
 10  4  1  0  0  0  0
 11  5  1  0  0  0  0
 12 13  1  0  0  0  0
 13 14  2  0  0  0  0
 14 15  1  0  0  0  0
 14 24  1  0  0  0  0
 15 16  1  0  0  0  0
 16 17  2  0  0  0  0
 18 19  1  0  0  0  0
 18 16  1  0  0  0  0
 20 21  1  6  0  0  0
 20 15  1  0  0  0  0
 20 18  1  0  0  0  0
 22 21  1  0  0  0  0
 22 13  1  0  0  0  0
 23 22  1  0  0  0  0
 24 25  1  0  0  0  0
 25 26  1  0  0  0  0
 26 27  1  0  0  0  0
 28 31  1  0  0  0  0
 28  1  1  0  0  0  0
 29 28  1  0  0  0  0
 30 28  1  0  0  0  0
 31 35  1  0  0  0  0
 32 31  2  0  0  0  0
 32 33  1  0  0  0  0
 33 34  1  0  0  0  0
 34 36  1  0  0  0  0
 35 34  2  0  0  0  0
 36 37  1  0  0  0  0
 36 41  1  0  0  0  0
 37 38  1  0  0  0  0
 38 45  1  0  0  0  0
 38 39  1  0  0  0  0
 38 46  1  0  0  0  0
 39 47  1  0  0  0  0
 40 39  1  0  0  0  0
 40 49  1  0  0  0  0
 40 48  1  0  0  0  0
 41 40  1  0  0  0  0
 42 32  1  0  0  0  0
 43 37  1  0  0  0  0
 44 37  1  0  0  0  0
 50 41  1  0  0  0  0
 51 41  1  0  0  0  0
M  END
>  <minimizedAffinity>
-6.35030413

$$$$

 OpenBabel03272506103D

 51 55  0  0  1  0  0  0  0  0999 V2000
   36.2680   26.7890   31.1020 C   0  0  0  0  0  0  0  0  0  0  0  0
   37.3510   26.5440   30.9220 H   0  0  0  0  0  0  0  0  0  0  0  0
   35.9740   27.4120   30.2370 H   0  0  0  0  0  0  0  0  0  0  0  0
   35.4630   29.1780   33.8140 C   0  0  0  0  0  0  0  0  0  0  0  0
   36.3800   28.8710   34.8050 C   0  0  0  0  0  0  0  0  0  0  0  0
   37.2850   27.8220   34.5210 C   0  0  0  0  0  0  0  0  0  0  0  0
   37.1880   27.2100   33.3220 N   0  0  0  0  0  0  0  0  0  0  0  0
   36.2710   27.5540   32.3950 C   0  0  0  0  0  0  0  0  0  0  0  0
   35.4160   28.5280   32.6350 N   0  0  0  0  0  0  0  0  0  0  0  0
   34.7830   29.9760   34.0430 H   0  0  0  0  0  0  0  0  0  0  0  0
   36.4760   29.3420   35.7610 H   0  0  0  0  0  0  0  0  0  0  0  0
   38.2350   27.3980   35.5280 C   0  0  0  0  0  2  0  0  0  0  0  0
   38.8360   26.0650   35.4610 C   0  0  0  0  0  0  0  0  0  0  0  0
   40.0190   25.6610   35.0380 C   0  0  0  0  0  0  0  0  0  0  0  0
   40.4320   24.2820   35.0610 N   0  0  0  0  0  0  0  0  0  0  0  0
   41.1200   23.1950   34.4610 C   0  0  0  0  0  0  0  0  0  0  0  0
   41.8580   23.0590   33.4520 O   0  0  0  0  0  0  0  0  0  0  0  0
   40.6550   22.2210   35.4710 C   0  0  0  0  0  3  0  0  0  0  0  0
   41.4800   21.7750   36.0850 H   0  0  0  0  0  0  0  0  0  0  0  0
   40.0480   23.3910   36.1780 C   0  0  2  0  0  3  0  0  0  0  0  0
   38.2360   23.4500   36.1630 S   0  0  0  0  0  0  0  0  0  0  0  0
   37.7750   25.1710   35.9880 C   0  0  0  0  0  3  0  0  0  0  0  0
   36.8310   25.2850   35.3670 H   0  0  0  0  0  0  0  0  0  0  0  0
   40.9550   26.6360   34.5300 C   0  0  0  0  0  2  0  0  0  0  0  0
   41.1360   26.7180   33.2760 O   0  0  0  0  0  0  0  0  0  0  0  0
   41.8460   27.5650   34.0460 O   0  0  0  0  0  0  0  0  0  0  0  0
   42.1080   28.4340   34.4730 H   0  0  0  0  0  0  0  0  0  0  0  0
   35.5120   25.5170   31.2510 C   0  0  0  0  0  0  0  0  0  0  0  0
   34.7370   25.5100   30.4340 H   0  0  0  0  0  0  0  0  0  0  0  0
   34.9140   25.4410   32.1890 H   0  0  0  0  0  0  0  0  0  0  0  0
   36.4000   24.3210   31.0770 C   0  0  0  0  0  0  0  0  0  0  0  0
   37.7060   24.5290   30.5280 C   0  0  0  0  0  0  0  0  0  0  0  0
   38.3370   22.8700   30.5270 S   0  0  0  0  0  0  0  0  0  0  0  0
   36.7860   22.1190   31.2540 C   0  0  0  0  0  0  0  0  0  0  0  0
   36.1150   23.0930   31.3740 N   0  0  0  0  0  0  0  0  0  0  0  0
   36.4530   20.7420   31.5920 N   0  0  0  0  0  0  0  0  0  0  0  0
   37.5350   19.9040   31.9640 C   0  0  0  0  0  0  0  0  0  0  0  0
   37.2290   18.4420   31.9060 C   0  0  0  0  0  0  0  0  0  0  0  0
   35.9460   18.1350   31.2970 N   0  0  0  0  0  0  0  0  0  0  0  0
   34.9610   18.9200   32.0440 C   0  0  0  0  0  0  0  0  0  0  0  0
   35.0710   20.3230   31.5290 C   0  0  0  0  0  0  0  0  0  0  0  0
   38.1600   25.4280   30.2140 H   0  0  0  0  0  0  0  0  0  0  0  0
   38.4040   20.1400   31.3050 H   0  0  0  0  0  0  0  0  0  0  0  0
   37.8550   20.1800   32.9930 H   0  0  0  0  0  0  0  0  0  0  0  0
   37.9860   17.8880   31.3230 H   0  0  0  0  0  0  0  0  0  0  0  0
   37.1780   18.0290   32.9500 H   0  0  0  0  0  0  0  0  0  0  0  0
   35.7450   17.1380   31.4540 H   0  0  0  0  0  0  0  0  0  0  0  0
   33.9290   18.5130   31.8850 H   0  0  0  0  0  0  0  0  0  0  0  0
   35.2160   18.9210   33.1280 H   0  0  0  0  0  0  0  0  0  0  0  0
   34.4020   21.0280   32.0660 H   0  0  0  0  0  0  0  0  0  0  0  0
   34.8070   20.2810   30.4400 H   0  0  0  0  0  0  0  0  0  0  0  0
  1 28  1  0  0  0  0
  1  8  1  0  0  0  0
  2  1  1  0  0  0  0
  3  1  1  0  0  0  0
  4 10  1  0  0  0  0
  4  5  1  0  0  0  0
  5 11  1  0  0  0  0
  6  5  2  0  0  0  0
  6 12  1  0  0  0  0
  7  6  1  0  0  0  0
  8  9  1  0  0  0  0
  8  7  2  0  0  0  0
  9  4  2  0  0  0  0
 13 12  1  0  0  0  0
 13 22  1  0  0  0  0
 14 15  1  0  0  0  0
 14 13  2  0  0  0  0
 15 20  1  0  0  0  0
 16 15  1  0  0  0  0
 16 18  1  0  0  0  0
 17 16  2  0  0  0  0
 18 19  1  0  0  0  0
 20 18  1  6  0  0  0
 21 20  1  0  0  0  0
 22 21  1  0  0  0  0
 23 22  1  0  0  0  0
 24 14  1  0  0  0  0
 25 26  1  0  0  0  0
 25 24  1  0  0  0  0
 26 27  1  0  0  0  0
 28 30  1  0  0  0  0
 29 28  1  0  0  0  0
 31 28  1  0  0  0  0
 31 35  1  0  0  0  0
 32 31  2  0  0  0  0
 33 32  1  0  0  0  0
 33 34  1  0  0  0  0
 34 35  2  0  0  0  0
 34 36  1  0  0  0  0
 36 37  1  0  0  0  0
 37 44  1  0  0  0  0
 38 37  1  0  0  0  0
 38 46  1  0  0  0  0
 39 47  1  0  0  0  0
 39 38  1  0  0  0  0
 39 40  1  0  0  0  0
 40 49  1  0  0  0  0
 41 36  1  0  0  0  0
 41 40  1  0  0  0  0
 41 50  1  0  0  0  0
 42 32  1  0  0  0  0
 43 37  1  0  0  0  0
 45 38  1  0  0  0  0
 48 40  1  0  0  0  0
 51 41  1  0  0  0  0
M  END
>  <minimizedAffinity>
-6.26348829

$$$$

 OpenBabel03272506103D

 51 55  0  0  1  0  0  0  0  0999 V2000
   37.2290   25.1150   31.6720 C   0  0  0  0  0  0  0  0  0  0  0  0
   38.3470   25.0620   31.5540 H   0  0  0  0  0  0  0  0  0  0  0  0
   36.8580   25.4520   30.6860 H   0  0  0  0  0  0  0  0  0  0  0  0
   37.1540   26.8720   34.9310 C   0  0  0  0  0  0  0  0  0  0  0  0
   36.5850   28.0980   34.6290 C   0  0  0  0  0  0  0  0  0  0  0  0
   36.2270   28.3100   33.2780 C   0  0  0  0  0  0  0  0  0  0  0  0
   36.4610   27.3140   32.3980 N   0  0  0  0  0  0  0  0  0  0  0  0
   37.0190   26.1390   32.7520 C   0  0  0  0  0  0  0  0  0  0  0  0
   37.3630   25.9160   34.0050 N   0  0  0  0  0  0  0  0  0  0  0  0
   37.4210   26.7260   35.9600 H   0  0  0  0  0  0  0  0  0  0  0  0
   36.3900   28.9020   35.3090 H   0  0  0  0  0  0  0  0  0  0  0  0
   35.6840   29.5880   32.8680 C   0  0  0  0  0  2  0  0  0  0  0  0
   34.4640   30.1050   33.4900 C   0  0  0  0  0  0  0  0  0  0  0  0
   34.2790   31.0150   34.4280 C   0  0  0  0  0  0  0  0  0  0  0  0
   32.9760   31.3950   34.9070 N   0  0  0  0  0  0  0  0  0  0  0  0
   32.1230   31.7780   35.9750 C   0  0  0  0  0  0  0  0  0  0  0  0
   32.2900   32.0470   37.1930 O   0  0  0  0  0  0  0  0  0  0  0  0
   30.9060   31.7550   35.1370 C   0  0  0  0  0  3  0  0  0  0  0  0
   30.4130   32.7550   35.0250 H   0  0  0  0  0  0  0  0  0  0  0  0
   31.8230   31.4900   33.9850 C   0  0  2  0  0  3  0  0  0  0  0  0
   31.7120   29.8260   33.2740 S   0  0  0  0  0  0  0  0  0  0  0  0
   33.3770   29.3420   32.8270 C   0  0  0  0  0  3  0  0  0  0  0  0
   33.5390   28.2280   32.9790 H   0  0  0  0  0  0  0  0  0  0  0  0
   35.4280   31.6720   35.0060 C   0  0  0  0  0  2  0  0  0  0  0  0
   35.8250   31.3140   36.1570 O   0  0  0  0  0  0  0  0  0  0  0  0
   36.5220   32.2960   35.5560 O   0  0  0  0  0  0  0  0  0  0  0  0
   37.2840   32.7300   35.0660 H   0  0  0  0  0  0  0  0  0  0  0  0
   36.7340   23.7840   32.1130 C   0  0  0  0  0  0  0  0  0  0  0  0
   36.2300   23.3200   31.2200 H   0  0  0  0  0  0  0  0  0  0  0  0
   35.9310   23.8220   32.8850 H   0  0  0  0  0  0  0  0  0  0  0  0
   37.8590   22.8910   32.5460 C   0  0  0  0  0  0  0  0  0  0  0  0
   38.3400   21.9170   31.6140 C   0  0  0  0  0  0  0  0  0  0  0  0
   39.6220   21.1440   32.5680 S   0  0  0  0  0  0  0  0  0  0  0  0
   39.3510   22.2140   34.0780 C   0  0  0  0  0  0  0  0  0  0  0  0
   38.4590   22.9010   33.6940 N   0  0  0  0  0  0  0  0  0  0  0  0
   40.0180   22.2350   35.3720 N   0  0  0  0  0  0  0  0  0  0  0  0
   41.3760   21.8270   35.3890 C   0  0  0  0  0  0  0  0  0  0  0  0
   41.8960   21.4740   36.7460 C   0  0  0  0  0  0  0  0  0  0  0  0
   40.8690   21.4260   37.7730 N   0  0  0  0  0  0  0  0  0  0  0  0
   40.1950   22.7260   37.7130 C   0  0  0  0  0  0  0  0  0  0  0  0
   39.2710   22.6610   36.5350 C   0  0  0  0  0  0  0  0  0  0  0  0
   38.0140   21.7200   30.6300 H   0  0  0  0  0  0  0  0  0  0  0  0
   41.4900   20.9570   34.6980 H   0  0  0  0  0  0  0  0  0  0  0  0
   41.9930   22.6420   34.9510 H   0  0  0  0  0  0  0  0  0  0  0  0
   42.3820   20.4830   36.7530 H   0  0  0  0  0  0  0  0  0  0  0  0
   42.6270   22.2590   37.0810 H   0  0  0  0  0  0  0  0  0  0  0  0
   41.3320   21.3490   38.6890 H   0  0  0  0  0  0  0  0  0  0  0  0
   39.6270   22.9200   38.6590 H   0  0  0  0  0  0  0  0  0  0  0  0
   40.9400   23.5340   37.5320 H   0  0  0  0  0  0  0  0  0  0  0  0
   38.7410   23.6190   36.3540 H   0  0  0  0  0  0  0  0  0  0  0  0
   38.5390   21.8390   36.7530 H   0  0  0  0  0  0  0  0  0  0  0  0
  1 28  1  0  0  0  0
  1  8  1  0  0  0  0
  2  1  1  0  0  0  0
  3  1  1  0  0  0  0
  4 10  1  0  0  0  0
  5  4  1  0  0  0  0
  5 11  1  0  0  0  0
  6  5  2  0  0  0  0
  7  8  2  0  0  0  0
  7  6  1  0  0  0  0
  8  9  1  0  0  0  0
  9  4  2  0  0  0  0
 12  6  1  0  0  0  0
 12 13  1  0  0  0  0
 13 14  2  0  0  0  0
 14 15  1  0  0  0  0
 14 24  1  0  0  0  0
 15 16  1  0  0  0  0
 16 17  2  0  0  0  0
 18 16  1  0  0  0  0
 19 18  1  0  0  0  0
 20 21  1  1  0  0  0
 20 15  1  0  0  0  0
 20 18  1  0  0  0  0
 22 23  1  0  0  0  0
 22 21  1  0  0  0  0
 22 13  1  0  0  0  0
 24 25  1  0  0  0  0
 26 25  1  0  0  0  0
 27 26  1  0  0  0  0
 28 31  1  0  0  0  0
 28 30  1  0  0  0  0
 29 28  1  0  0  0  0
 31 35  1  0  0  0  0
 32 31  2  0  0  0  0
 32 33  1  0  0  0  0
 33 34  1  0  0  0  0
 34 36  1  0  0  0  0
 35 34  2  0  0  0  0
 36 37  1  0  0  0  0
 36 41  1  0  0  0  0
 37 38  1  0  0  0  0
 38 45  1  0  0  0  0
 38 46  1  0  0  0  0
 38 39  1  0  0  0  0
 39 47  1  0  0  0  0
 40 39  1  0  0  0  0
 40 48  1  0  0  0  0
 41 51  1  0  0  0  0
 41 40  1  0  0  0  0
 42 32  1  0  0  0  0
 43 37  1  0  0  0  0
 44 37  1  0  0  0  0
 49 40  1  0  0  0  0
 50 41  1  0  0  0  0
M  END
>  <minimizedAffinity>
-6.23575974

$$$$

 OpenBabel03272506103D

 51 55  0  0  1  0  0  0  0  0999 V2000
   38.7590   27.2860   35.6140 C   0  0  0  0  0  0  0  0  0  0  0  0
   38.8890   28.3790   35.3820 H   0  0  0  0  0  0  0  0  0  0  0  0
   38.8930   27.2140   36.7100 H   0  0  0  0  0  0  0  0  0  0  0  0
   41.9190   26.5880   33.8140 C   0  0  0  0  0  0  0  0  0  0  0  0
   41.8040   25.2560   33.4540 C   0  0  0  0  0  0  0  0  0  0  0  0
   40.6130   24.6000   33.8420 C   0  0  0  0  0  0  0  0  0  0  0  0
   39.6920   25.3120   34.5250 N   0  0  0  0  0  0  0  0  0  0  0  0
   39.8610   26.6100   34.8480 C   0  0  0  0  0  0  0  0  0  0  0  0
   40.9620   27.2460   34.4980 N   0  0  0  0  0  0  0  0  0  0  0  0
   42.8280   27.0740   33.5130 H   0  0  0  0  0  0  0  0  0  0  0  0
   42.5200   24.6720   32.9130 H   0  0  0  0  0  0  0  0  0  0  0  0
   40.4420   23.1910   33.5580 C   0  0  0  0  0  2  0  0  0  0  0  0
   39.1290   22.6700   33.1750 C   0  0  0  0  0  0  0  0  0  0  0  0
   38.1410   22.1740   33.8970 C   0  0  0  0  0  0  0  0  0  0  0  0
   36.9040   21.7130   33.3230 N   0  0  0  0  0  0  0  0  0  0  0  0
   35.8290   20.7870   33.3040 C   0  0  0  0  0  0  0  0  0  0  0  0
   35.4700   19.8260   34.0320 O   0  0  0  0  0  0  0  0  0  0  0  0
   35.2350   21.3570   32.0760 C   0  0  0  0  0  3  0  0  0  0  0  0
   34.2170   21.7990   32.2270 H   0  0  0  0  0  0  0  0  0  0  0  0
   36.2870   22.4160   32.1770 C   0  0  2  0  0  3  0  0  0  0  0  0
   37.5730   22.3540   30.9000 S   0  0  0  0  0  0  0  0  0  0  0  0
   39.1150   22.7960   31.6960 C   0  0  0  0  0  3  0  0  0  0  0  0
   39.9890   22.2230   31.2510 H   0  0  0  0  0  0  0  0  0  0  0  0
   38.2920   22.0900   35.3300 C   0  0  0  0  0  2  0  0  0  0  0  0
   37.3860   22.5810   36.0720 O   0  0  0  0  0  0  0  0  0  0  0  0
   38.4340   22.0100   36.6960 O   0  0  0  0  0  0  0  0  0  0  0  0
   38.9420   21.3160   37.2130 H   0  0  0  0  0  0  0  0  0  0  0  0
   37.4310   26.8480   35.1100 C   0  0  0  0  0  0  0  0  0  0  0  0
   36.7120   26.9570   35.9700 H   0  0  0  0  0  0  0  0  0  0  0  0
   37.3700   25.7670   34.8450 H   0  0  0  0  0  0  0  0  0  0  0  0
   36.9570   27.7090   33.9780 C   0  0  0  0  0  0  0  0  0  0  0  0
   35.8000   28.5250   34.1930 C   0  0  0  0  0  0  0  0  0  0  0  0
   35.6530   29.3230   32.6140 S   0  0  0  0  0  0  0  0  0  0  0  0
   37.1450   28.4690   31.8760 C   0  0  0  0  0  0  0  0  0  0  0  0
   37.4860   27.8020   32.8000 N   0  0  0  0  0  0  0  0  0  0  0  0
   37.7500   28.5650   30.5550 N   0  0  0  0  0  0  0  0  0  0  0  0
   37.6040   29.8060   29.8820 C   0  0  0  0  0  0  0  0  0  0  0  0
   37.8660   29.7430   28.4110 C   0  0  0  0  0  0  0  0  0  0  0  0
   38.0330   28.3920   27.9030 N   0  0  0  0  0  0  0  0  0  0  0  0
   39.0900   27.7940   28.7220 C   0  0  0  0  0  0  0  0  0  0  0  0
   38.4460   27.4160   30.0210 C   0  0  0  0  0  0  0  0  0  0  0  0
   35.2040   28.6190   35.0590 H   0  0  0  0  0  0  0  0  0  0  0  0
   36.5730   30.1880   30.0710 H   0  0  0  0  0  0  0  0  0  0  0  0
   38.2900   30.5430   30.3540 H   0  0  0  0  0  0  0  0  0  0  0  0
   37.0410   30.1890   27.8290 H   0  0  0  0  0  0  0  0  0  0  0  0
   38.8270   30.2770   28.1810 H   0  0  0  0  0  0  0  0  0  0  0  0
   38.3760   28.4520   26.9340 H   0  0  0  0  0  0  0  0  0  0  0  0
   39.5240   26.8950   28.2120 H   0  0  0  0  0  0  0  0  0  0  0  0
   39.8850   28.5460   28.9290 H   0  0  0  0  0  0  0  0  0  0  0  0
   39.1690   26.9980   30.7520 H   0  0  0  0  0  0  0  0  0  0  0  0
   37.6550   26.6600   29.7730 H   0  0  0  0  0  0  0  0  0  0  0  0
  1  3  1  0  0  0  0
  2  1  1  0  0  0  0
  4  9  1  0  0  0  0
  5  4  2  0  0  0  0
  5  6  1  0  0  0  0
  6  7  2  0  0  0  0
  7  8  1  0  0  0  0
  8  1  1  0  0  0  0
  9  8  2  0  0  0  0
 10  4  1  0  0  0  0
 11  5  1  0  0  0  0
 12  6  1  0  0  0  0
 13 12  1  0  0  0  0
 13 14  2  0  0  0  0
 14 24  1  0  0  0  0
 15 14  1  0  0  0  0
 16 15  1  0  0  0  0
 16 17  2  0  0  0  0
 18 20  1  0  0  0  0
 18 19  1  0  0  0  0
 18 16  1  0  0  0  0
 20 21  1  6  0  0  0
 20 15  1  0  0  0  0
 21 22  1  0  0  0  0
 22 13  1  0  0  0  0
 23 22  1  0  0  0  0
 24 25  1  0  0  0  0
 25 26  1  0  0  0  0
 26 27  1  0  0  0  0
 28  1  1  0  0  0  0
 28 29  1  0  0  0  0
 30 28  1  0  0  0  0
 31 32  2  0  0  0  0
 31 28  1  0  0  0  0
 32 42  1  0  0  0  0
 33 32  1  0  0  0  0
 34 33  1  0  0  0  0
 34 35  2  0  0  0  0
 35 31  1  0  0  0  0
 36 34  1  0  0  0  0
 37 43  1  0  0  0  0
 37 44  1  0  0  0  0
 37 36  1  0  0  0  0
 38 37  1  0  0  0  0
 39 38  1  0  0  0  0
 39 40  1  0  0  0  0
 40 49  1  0  0  0  0
 40 41  1  0  0  0  0
 41 36  1  0  0  0  0
 41 50  1  0  0  0  0
 45 38  1  0  0  0  0
 46 38  1  0  0  0  0
 47 39  1  0  0  0  0
 48 40  1  0  0  0  0
 51 41  1  0  0  0  0
M  END
>  <minimizedAffinity>
-6.226758

$$$$

 OpenBabel03272506103D

 51 55  0  0  1  0  0  0  0  0999 V2000
   35.9270   29.1100   31.8430 C   0  0  0  0  0  0  0  0  0  0  0  0
   35.1010   28.4800   31.4130 H   0  0  0  0  0  0  0  0  0  0  0  0
   35.7380   30.1270   31.4480 H   0  0  0  0  0  0  0  0  0  0  0  0
   38.6400   28.0050   29.5780 C   0  0  0  0  0  0  0  0  0  0  0  0
   39.5180   27.3400   30.4180 C   0  0  0  0  0  0  0  0  0  0  0  0
   39.1570   27.2790   31.7830 C   0  0  0  0  0  0  0  0  0  0  0  0
   38.0000   27.8630   32.1590 N   0  0  0  0  0  0  0  0  0  0  0  0
   37.1850   28.4980   31.2930 C   0  0  0  0  0  0  0  0  0  0  0  0
   37.4980   28.5700   30.0150 N   0  0  0  0  0  0  0  0  0  0  0  0
   38.9270   28.0440   28.5440 H   0  0  0  0  0  0  0  0  0  0  0  0
   40.4390   26.8690   30.1430 H   0  0  0  0  0  0  0  0  0  0  0  0
   40.0500   26.6550   32.7370 C   0  0  0  0  0  2  0  0  0  0  0  0
   39.6050   25.5010   33.5200 C   0  0  0  0  0  0  0  0  0  0  0  0
   39.1110   25.4120   34.7400 C   0  0  0  0  0  0  0  0  0  0  0  0
   38.7200   24.1630   35.3390 N   0  0  0  0  0  0  0  0  0  0  0  0
   38.6350   23.3200   36.4780 C   0  0  0  0  0  0  0  0  0  0  0  0
   38.8920   23.4520   37.7030 O   0  0  0  0  0  0  0  0  0  0  0  0
   38.1160   22.1710   35.7070 C   0  0  0  0  0  3  0  0  0  0  0  0
   37.0800   21.8600   35.9990 H   0  0  0  0  0  0  0  0  0  0  0  0
   38.0740   23.1020   34.5360 C   0  0  2  0  0  3  0  0  0  0  0  0
   39.2850   22.7610   33.2310 S   0  0  0  0  0  0  0  0  0  0  0  0
   39.8470   24.3460   32.6190 C   0  0  0  0  0  3  0  0  0  0  0  0
   40.9430   24.3110   32.3220 H   0  0  0  0  0  0  0  0  0  0  0  0
   38.9440   26.6150   35.5210 C   0  0  0  0  0  2  0  0  0  0  0  0
   37.7690   27.0170   35.7850 O   0  0  0  0  0  0  0  0  0  0  0  0
   38.7840   27.7610   36.2640 O   0  0  0  0  0  0  0  0  0  0  0  0
   39.4200   28.1370   36.9430 H   0  0  0  0  0  0  0  0  0  0  0  0
   35.8950   28.9920   33.3240 C   0  0  0  0  0  0  0  0  0  0  0  0
   36.8800   29.3870   33.6970 H   0  0  0  0  0  0  0  0  0  0  0  0
   35.8640   27.9440   33.7040 H   0  0  0  0  0  0  0  0  0  0  0  0
   34.7920   29.8150   33.9210 C   0  0  0  0  0  0  0  0  0  0  0  0
   34.8870   31.2400   33.8190 C   0  0  0  0  0  0  0  0  0  0  0  0
   33.3970   31.7370   34.6460 S   0  0  0  0  0  0  0  0  0  0  0  0
   32.8440   29.9890   35.0190 C   0  0  0  0  0  0  0  0  0  0  0  0
   33.7390   29.3750   34.5330 N   0  0  0  0  0  0  0  0  0  0  0  0
   31.6640   29.4810   35.7050 N   0  0  0  0  0  0  0  0  0  0  0  0
   30.4950   30.2800   35.6250 C   0  0  0  0  0  0  0  0  0  0  0  0
   29.4540   29.9520   36.6480 C   0  0  0  0  0  0  0  0  0  0  0  0
   29.9020   29.0090   37.6580 N   0  0  0  0  0  0  0  0  0  0  0  0
   30.3950   27.8460   36.9160 C   0  0  0  0  0  0  0  0  0  0  0  0
   31.7550   28.2220   36.4100 C   0  0  0  0  0  0  0  0  0  0  0  0
   35.6420   31.8260   33.3710 H   0  0  0  0  0  0  0  0  0  0  0  0
   30.7950   31.3520   35.7150 H   0  0  0  0  0  0  0  0  0  0  0  0
   30.0650   30.1730   34.6050 H   0  0  0  0  0  0  0  0  0  0  0  0
   29.1200   30.8510   37.1940 H   0  0  0  0  0  0  0  0  0  0  0  0
   28.5760   29.4650   36.1430 H   0  0  0  0  0  0  0  0  0  0  0  0
   29.0840   28.7130   38.2090 H   0  0  0  0  0  0  0  0  0  0  0  0
   30.4490   26.9460   37.5830 H   0  0  0  0  0  0  0  0  0  0  0  0
   29.7370   27.6440   36.0410 H   0  0  0  0  0  0  0  0  0  0  0  0
   32.2100   27.4300   35.7800 H   0  0  0  0  0  0  0  0  0  0  0  0
   32.3860   28.4170   37.3160 H   0  0  0  0  0  0  0  0  0  0  0  0
  1 28  1  0  0  0  0
  2  1  1  0  0  0  0
  3  1  1  0  0  0  0
  4  9  2  0  0  0  0
  4  5  1  0  0  0  0
  5  6  2  0  0  0  0
  6  7  1  0  0  0  0
  6 12  1  0  0  0  0
  8  1  1  0  0  0  0
  8  7  2  0  0  0  0
  9  8  1  0  0  0  0
 10  4  1  0  0  0  0
 11  5  1  0  0  0  0
 12 13  1  0  0  0  0
 13 14  2  0  0  0  0
 14 15  1  0  0  0  0
 14 24  1  0  0  0  0
 15 16  1  0  0  0  0
 16 17  2  0  0  0  0
 18 19  1  0  0  0  0
 18 16  1  0  0  0  0
 20 21  1  6  0  0  0
 20 15  1  0  0  0  0
 20 18  1  0  0  0  0
 22 21  1  0  0  0  0
 22 13  1  0  0  0  0
 23 22  1  0  0  0  0
 24 25  1  0  0  0  0
 25 26  1  0  0  0  0
 26 27  1  0  0  0  0
 28 29  1  0  0  0  0
 28 30  1  0  0  0  0
 28 31  1  0  0  0  0
 31 35  1  0  0  0  0
 32 31  2  0  0  0  0
 32 33  1  0  0  0  0
 33 34  1  0  0  0  0
 34 36  1  0  0  0  0
 35 34  2  0  0  0  0
 36 41  1  0  0  0  0
 37 36  1  0  0  0  0
 37 43  1  0  0  0  0
 37 38  1  0  0  0  0
 38 45  1  0  0  0  0
 38 39  1  0  0  0  0
 39 47  1  0  0  0  0
 40 48  1  0  0  0  0
 40 39  1  0  0  0  0
 41 40  1  0  0  0  0
 41 51  1  0  0  0  0
 42 32  1  0  0  0  0
 44 37  1  0  0  0  0
 46 38  1  0  0  0  0
 49 40  1  0  0  0  0
 50 41  1  0  0  0  0
M  END
>  <minimizedAffinity>
-6.20749331

$$$$
