
 OpenBabel03272507423D

 48 52  0  0  1  0  0  0  0  0999 V2000
   36.4530   30.5420   49.2190 C   0  0  0  0  0  0  0  0  0  0  0  0
   35.2620   29.9100   49.5560 C   0  0  0  0  0  0  0  0  0  0  0  0
   35.1040   29.3050   50.7890 C   0  0  0  0  0  0  0  0  0  0  0  0
   36.1490   29.3480   51.6580 N   0  0  0  0  0  0  0  0  0  0  0  0
   37.3140   29.9750   51.3040 C   0  0  0  0  0  0  0  0  0  0  0  0
   37.4360   30.5450   50.1190 N   0  0  0  0  0  0  0  0  0  0  0  0
   34.2160   28.7940   51.1360 H   0  0  0  0  0  0  0  0  0  0  0  0
   38.1430   30.0020   52.0080 H   0  0  0  0  0  0  0  0  0  0  0  0
   33.7530   28.5600   48.1570 C   0  0  0  0  0  0  0  0  0  0  0  0
   34.3600   27.4220   48.0940 O   0  0  0  0  0  0  0  0  0  0  0  0
   34.1210   29.7880   48.7570 N   0  0  0  0  0  0  0  0  0  0  0  0
   33.6150   30.6870   48.6780 H   0  0  0  0  0  0  0  0  0  0  0  0
   29.6970   27.8040   44.7740 C   0  0  0  0  0  0  0  0  0  0  0  0
   30.7120   28.6370   44.6260 C   0  0  0  0  0  0  0  0  0  0  0  0
   31.6740   28.8040   45.6280 N   0  0  0  0  0  0  0  0  0  0  0  0
   32.4870   29.6650   46.4540 C   0  0  0  0  0  0  0  0  0  0  0  0
   32.9480   30.8200   46.2580 O   0  0  0  0  0  0  0  0  0  0  0  0
   32.4330   28.5410   47.4630 C   0  0  1  0  0  3  0  0  0  0  0  0
   32.2720   27.6330   46.2960 C   0  0  1  0  0  3  0  0  0  0  0  0
   31.0290   26.3640   46.6000 S   0  0  0  0  0  0  0  0  0  0  0  0
   29.4550   26.9850   45.9820 C   0  0  0  0  0  3  0  0  0  0  0  0
   28.9610   27.6680   46.7160 H   0  0  0  0  0  0  0  0  0  0  0  0
   28.7610   27.7180   43.6460 C   0  0  0  0  0  2  0  0  0  0  0  0
   28.1050   28.6140   43.7080 H   0  0  0  0  0  0  0  0  0  0  0  0
   30.8190   29.3890   43.3830 C   0  0  0  0  0  0  0  0  0  0  0  0
   31.7420   30.1730   43.0620 O   0  0  0  0  0  0  0  0  0  0  0  0
   30.6430   29.9570   42.1370 O   0  0  0  0  0  0  0  0  0  0  0  0
   29.7700   29.8520   41.6080 H   0  0  0  0  0  0  0  0  0  0  0  0
   36.4170   31.0720   47.9760 O   0  0  0  0  0  0  0  0  0  0  0  0
   37.8560   31.4490   45.9970 C   0  0  0  0  0  0  0  0  0  0  0  0
   37.5120   31.6200   47.3210 C   0  0  0  0  0  0  0  0  0  0  0  0
   38.2930   32.4090   48.1500 C   0  0  0  0  0  0  0  0  0  0  0  0
   39.4310   33.0270   47.6280 C   0  0  0  0  0  0  0  0  0  0  0  0
   39.7660   32.8500   46.3040 C   0  0  0  0  0  0  0  0  0  0  0  0
   38.9640   32.0600   45.5180 C   0  0  0  0  0  0  0  0  0  0  0  0
   38.0880   32.5900   49.1970 H   0  0  0  0  0  0  0  0  0  0  0  0
   40.0420   33.6420   48.2750 H   0  0  0  0  0  0  0  0  0  0  0  0
   40.6450   33.3170   45.8710 H   0  0  0  0  0  0  0  0  0  0  0  0
   39.3360   31.8760   44.0930 C   0  0  0  0  0  0  0  0  0  0  0  0
   40.1810   30.9670   43.5220 C   0  0  0  0  0  0  0  0  0  0  0  0
   40.1950   31.2030   42.1490 C   0  0  0  0  0  0  0  0  0  0  0  0
   39.3380   32.2650   41.9730 C   0  0  0  0  0  0  0  0  0  0  0  0
   38.8370   32.6530   43.1360 O   0  0  0  0  0  0  0  0  0  0  0  0
   40.6990   30.2320   44.1240 H   0  0  0  0  0  0  0  0  0  0  0  0
   40.7900   30.6120   41.4790 H   0  0  0  0  0  0  0  0  0  0  0  0
   39.1280   32.6970   41.0010 H   0  0  0  0  0  0  0  0  0  0  0  0
   36.2980   29.9690   44.5750 N   0  0  0  0  0  0  0  0  0  0  0  0
   36.9940   30.6220   45.2160 C   0  0  0  0  0  0  0  0  0  0  0  0
  1  2  2  0  0  0  0
  1  6  1  0  0  0  0
  2  3  1  0  0  0  0
  3  7  1  0  0  0  0
  3  4  2  0  0  0  0
  5  4  1  0  0  0  0
  5  8  1  0  0  0  0
  6  5  2  0  0  0  0
  9 11  1  0  0  0  0
 10  9  2  0  0  0  0
 11  2  1  0  0  0  0
 12 11  1  0  0  0  0
 13 21  1  0  0  0  0
 14 13  2  0  0  0  0
 14 15  1  0  0  0  0
 15 19  1  0  0  0  0
 15 16  1  0  0  0  0
 16 18  1  0  0  0  0
 17 16  2  0  0  0  0
 18  9  1  6  0  0  0
 19 20  1  1  0  0  0
 19 18  1  0  0  0  0
 21 20  1  0  0  0  0
 21 22  1  0  0  0  0
 23 24  1  0  0  0  0
 23 13  1  0  0  0  0
 25 14  1  0  0  0  0
 26 25  2  0  0  0  0
 27 25  1  0  0  0  0
 28 27  1  0  0  0  0
 29  1  1  0  0  0  0
 30 31  1  0  0  0  0
 31 29  1  0  0  0  0
 31 32  2  0  0  0  0
 32 36  1  0  0  0  0
 33 32  1  0  0  0  0
 33 37  1  0  0  0  0
 34 33  2  0  0  0  0
 35 30  2  0  0  0  0
 35 34  1  0  0  0  0
 38 34  1  0  0  0  0
 39 35  1  0  0  0  0
 40 39  2  0  0  0  0
 40 44  1  0  0  0  0
 41 40  1  0  0  0  0
 42 41  2  0  0  0  0
 42 43  1  0  0  0  0
 43 39  1  0  0  0  0
 45 41  1  0  0  0  0
 46 42  1  0  0  0  0
 47 48  3  0  0  0  0
 48 30  1  0  0  0  0
M  END
>  <minimizedAffinity>
-6.21780205

>  <minimizedRMSD>
2.01497722

$$$$
