REMARK  Name = 
REMARK  6 active torsions:
REMARK  status: ('A' for Active; 'I' for Inactive)
REMARK    1  A    between atoms: C_1  and  N_9
REMARK    2  A    between atoms: C_2  and  N_10
REMARK    3  A    between atoms: N_15  and  C_24
REMARK    4  A    between atoms: C_24  and  C_25
REMARK    5  A    between atoms: C_26  and  C_27
REMARK    6  A    between atoms: C_27  and  O_29
REMARK                            x       y       z     vdW  Elec       q    Type
REMARK                         _______ _______ _______ _____ _____    ______ ____
ROOT
ATOM      1  N   UNL     1      36.720  31.333  48.957  0.00  0.00    +0.000 N 
ATOM      2  C   UNL     1      36.547  32.337  49.824  0.00  0.00    +0.000 A 
ATOM      3  C   UNL     1      37.538  33.319  49.925  0.00  0.00    +0.000 A 
ATOM      4  C   UNL     1      38.611  33.141  49.101  0.00  0.00    +0.000 A 
ATOM      5  O   UNL     1      39.477  34.065  49.239  0.00  0.00    +0.000 OA
ATOM      6  N   UNL     1      38.813  32.143  48.219  0.00  0.00    +0.000 N 
ATOM      7  C   UNL     1      37.823  31.232  48.172  0.00  0.00    +0.000 A 
ATOM      8  O   UNL     1      37.990  30.280  47.353  0.00  0.00    +0.000 OA
ATOM      9  H   UNL     1      35.635  32.327  50.403  0.00  0.00    +0.000 HD
ATOM     10  H   UNL     1      37.400  34.114  50.612  0.00  0.00    +0.000 HD
ENDROOT
BRANCH   1  12
ATOM     11  C   UNL     1      35.648  29.331  49.841  0.00  0.00    +0.000 A 
ATOM     12  C   UNL     1      35.754  30.295  48.800  0.00  0.00    +0.000 A 
ATOM     13  C   UNL     1      34.906  30.159  47.689  0.00  0.00    +0.000 A 
ATOM     14  N   UNL     1      34.035  29.121  47.664  0.00  0.00    +0.000 NA
ATOM     15  C   UNL     1      33.946  28.230  48.636  0.00  0.00    +0.000 A 
ATOM     16  N   UNL     1      34.745  28.333  49.714  0.00  0.00    +0.000 NA
ATOM     17  H   UNL     1      35.006  30.899  46.921  0.00  0.00    +0.000 HD
ATOM     18  H   UNL     1      33.256  27.391  48.635  0.00  0.00    +0.000 HD
BRANCH  11  21
ATOM     19  C   UNL     1      37.651  30.051  51.341  0.00  0.00    +0.000 C 
ATOM     20  O   UNL     1      38.205  30.835  50.544  0.00  0.00    +0.000 OA
ATOM     21  N   UNL     1      36.432  29.367  51.014  0.00  0.00    +0.000 N 
ATOM     22  H   UNL     1      38.157  29.931  52.283  0.00  0.00    +0.000 HD
ATOM     23  H   UNL     1      36.102  28.802  51.845  0.00  0.00    +0.000 HD
ENDBRANCH  11  21
ENDBRANCH   1  12
BRANCH   6  24
ATOM     24  C   UNL     1      40.046  32.122  47.444  0.00  0.00    +0.000 C 
BRANCH  24  25
ATOM     25  C   UNL     1      39.897  31.934  46.019  0.00  0.00    +0.000 C 
ATOM     26  C   UNL     1      40.334  32.840  45.127  0.00  0.00    +0.000 C 
ATOM     27  N   UNL     1      40.184  32.587  43.712  0.00  0.00    +0.000 N 
ATOM     28  C   UNL     1      39.656  33.130  42.481  0.00  0.00    +0.000 C 
ATOM     29  O   UNL     1      39.359  34.279  42.035  0.00  0.00    +0.000 OA
ATOM     30  C   UNL     1      39.633  31.702  42.003  0.00  0.00    +0.000 C 
ATOM     31  H   UNL     1      38.669  31.192  42.101  0.00  0.00    +0.000 HD
ATOM     32  C   UNL     1      40.689  31.371  43.039  0.00  0.00    +0.000 C 
ATOM     33  S   UNL     1      40.327  30.015  44.150  0.00  0.00    +0.000 S 
ATOM     34  C   UNL     1      39.247  30.758  45.441  0.00  0.00    +0.000 C 
ATOM     35  H   UNL     1      38.916  29.985  46.108  0.00  0.00    +0.000 HD
BRANCH  26  36
ATOM     36  C   UNL     1      40.999  34.101  45.532  0.00  0.00    +0.000 C 
ATOM     37  O   UNL     1      41.358  34.711  46.544  0.00  0.00    +0.000 OA
BRANCH  36  38
ATOM     38  O   UNL     1      41.478  35.105  44.727  0.00  0.00    +0.000 OA
ATOM     39  H   UNL     1      41.109  36.032  44.640  0.00  0.00    +0.000 HD
ENDBRANCH  36  38
ENDBRANCH  26  36
ENDBRANCH  24  25
ENDBRANCH   6  24
TORSDOF 6
