
 OpenBabel03272503293D

 41 44  0  0  1  0  0  0  0  0999 V2000
   35.1800   29.4970   47.8470 C   0  0  0  0  0  0  0  0  0  0  0  0
   35.1440   29.9900   46.5300 C   0  0  0  0  0  0  0  0  0  0  0  0
   34.0090   29.6910   45.7710 C   0  0  0  0  0  0  0  0  0  0  0  0
   33.0280   28.9460   46.3650 N   0  0  0  0  0  0  0  0  0  0  0  0
   33.0980   28.4950   47.6170 C   0  0  0  0  0  0  0  0  0  0  0  0
   34.1830   28.7710   48.3720 N   0  0  0  0  0  0  0  0  0  0  0  0
   35.9110   30.5680   46.0780 H   0  0  0  0  0  0  0  0  0  0  0  0
   33.9080   30.0350   44.7500 H   0  0  0  0  0  0  0  0  0  0  0  0
   36.3510   29.8120   48.6110 N   0  0  0  0  0  0  0  0  0  0  0  0
   37.4860   30.5740   48.2040 C   0  0  0  0  0  0  0  0  0  0  0  0
   37.9980   31.1670   49.5050 C   0  0  2  0  0  0  0  0  0  0  0  0
   36.9910   30.7490   50.5700 C   0  0  0  0  0  0  0  0  0  0  0  0
   36.6060   29.4020   49.9800 C   0  0  0  0  0  0  0  0  0  0  0  0
   37.2360   31.3800   47.4910 H   0  0  0  0  0  0  0  0  0  0  0  0
   38.2440   29.8670   47.7990 H   0  0  0  0  0  0  0  0  0  0  0  0
   38.9780   30.7010   49.7970 H   0  0  0  0  0  0  0  0  0  0  0  0
   36.1100   31.4090   50.5770 H   0  0  0  0  0  0  0  0  0  0  0  0
   37.4780   30.6370   51.5580 H   0  0  0  0  0  0  0  0  0  0  0  0
   35.7020   29.0430   50.4790 H   0  0  0  0  0  0  0  0  0  0  0  0
   37.4420   28.7010   50.0530 H   0  0  0  0  0  0  0  0  0  0  0  0
   38.1890   32.6410   49.4420 C   0  0  0  0  0  0  0  0  0  0  0  0
   37.0280   33.2180   49.9560 F   0  0  0  0  0  0  0  0  0  0  0  0
   38.2070   33.0010   48.1060 F   0  0  0  0  0  0  0  0  0  0  0  0
   39.3140   33.0860   50.0640 F   0  0  0  0  0  0  0  0  0  0  0  0
   31.7960   27.5270   48.3500 S   0  0  0  0  0  0  0  0  0  0  0  0
   30.2340   28.0420   47.5480 C   0  0  0  0  0  2  0  0  0  0  0  0
   29.1170   28.0340   48.4830 C   0  0  0  0  0  0  0  0  0  0  0  0
   27.8070   27.8930   48.3820 C   0  0  0  0  0  0  0  0  0  0  0  0
   26.9010   27.9030   49.4590 N   0  0  0  0  0  0  0  0  0  0  0  0
   25.7210   28.4250   50.0590 C   0  0  0  0  0  0  0  0  0  0  0  0
   24.6610   28.9260   49.5600 O   0  0  0  0  0  0  0  0  0  0  0  0
   26.3640   28.0890   51.3800 C   0  0  0  0  0  3  0  0  0  0  0  0
   26.9880   28.9060   51.7480 H   0  0  0  0  0  0  0  0  0  0  0  0
   27.1080   27.0120   50.6180 C   0  0  2  0  0  3  0  0  0  0  0  0
   28.8980   26.9450   50.9320 S   0  0  0  0  0  0  0  0  0  0  0  0
   29.6070   28.2570   49.8540 C   0  0  0  0  0  3  0  0  0  0  0  0
   29.1710   29.2010   50.2520 H   0  0  0  0  0  0  0  0  0  0  0  0
   27.2810   27.6940   47.0130 C   0  0  0  0  0  0  0  0  0  0  0  0
   27.5980   27.0130   46.0320 O   0  0  0  0  0  0  0  0  0  0  0  0
   26.3620   27.9800   46.0500 O   0  0  0  0  0  0  0  0  0  0  0  0
   26.2330   28.8990   45.6510 H   0  0  0  0  0  0  0  0  0  0  0  0
  1  6  1  0  0  0  0
  1  9  1  0  0  0  0
  2  1  2  0  0  0  0
  3  4  2  0  0  0  0
  3  2  1  0  0  0  0
  4  5  1  0  0  0  0
  5 25  1  0  0  0  0
  5  6  2  0  0  0  0
  7  2  1  0  0  0  0
  8  3  1  0  0  0  0
  9 13  1  0  0  0  0
 10  9  1  0  0  0  0
 10 11  1  0  0  0  0
 11 16  1  1  0  0  0
 11 12  1  0  0  0  0
 12 17  1  0  0  0  0
 12 18  1  0  0  0  0
 13 20  1  0  0  0  0
 13 19  1  0  0  0  0
 13 12  1  0  0  0  0
 14 10  1  0  0  0  0
 15 10  1  0  0  0  0
 21 11  1  0  0  0  0
 21 22  1  0  0  0  0
 21 24  1  0  0  0  0
 23 21  1  0  0  0  0
 26 25  1  0  0  0  0
 26 27  1  0  0  0  0
 27 36  1  0  0  0  0
 28 27  2  0  0  0  0
 28 29  1  0  0  0  0
 29 30  1  0  0  0  0
 29 34  1  0  0  0  0
 30 32  1  0  0  0  0
 31 30  2  0  0  0  0
 32 33  1  0  0  0  0
 34 35  1  1  0  0  0
 34 32  1  0  0  0  0
 36 37  1  0  0  0  0
 36 35  1  0  0  0  0
 38 28  1  0  0  0  0
 39 38  2  0  0  0  0
 40 38  1  0  0  0  0
 41 40  1  0  0  0  0
M  END
>  <minimizedAffinity>
-7.43020773

>  <minimizedRMSD>
1.56377947

$$$$
