
 OpenBabel03272503293D

 41 44  0  0  1  0  0  0  0  0999 V2000
   35.5360   29.6710   47.8710 C   0  0  0  0  0  0  0  0  0  0  0  0
   35.6170   30.0530   46.5190 C   0  0  0  0  0  0  0  0  0  0  0  0
   34.5390   29.7150   45.6990 C   0  0  0  0  0  0  0  0  0  0  0  0
   33.4930   29.0430   46.2710 N   0  0  0  0  0  0  0  0  0  0  0  0
   33.4510   28.6980   47.5570 C   0  0  0  0  0  0  0  0  0  0  0  0
   34.4810   29.0130   48.3710 N   0  0  0  0  0  0  0  0  0  0  0  0
   36.4340   30.5740   46.0860 H   0  0  0  0  0  0  0  0  0  0  0  0
   34.5270   29.9730   44.6470 H   0  0  0  0  0  0  0  0  0  0  0  0
   36.6520   30.0250   48.6990 N   0  0  0  0  0  0  0  0  0  0  0  0
   37.8320   30.7320   48.3250 C   0  0  0  0  0  0  0  0  0  0  0  0
   38.2560   31.4160   49.6130 C   0  0  2  0  0  0  0  0  0  0  0  0
   37.1590   31.1020   50.6240 C   0  0  0  0  0  0  0  0  0  0  0  0
   36.7890   29.7190   50.1110 C   0  0  0  0  0  0  0  0  0  0  0  0
   37.6580   31.4830   47.5350 H   0  0  0  0  0  0  0  0  0  0  0  0
   38.6030   29.9810   48.0380 H   0  0  0  0  0  0  0  0  0  0  0  0
   39.1990   30.9570   50.0170 H   0  0  0  0  0  0  0  0  0  0  0  0
   36.2970   31.7750   50.5110 H   0  0  0  0  0  0  0  0  0  0  0  0
   37.5650   31.0590   51.6530 H   0  0  0  0  0  0  0  0  0  0  0  0
   35.8410   29.4170   50.5630 H   0  0  0  0  0  0  0  0  0  0  0  0
   37.6000   29.0110   50.3040 H   0  0  0  0  0  0  0  0  0  0  0  0
   38.4860   32.8770   49.4520 C   0  0  0  0  0  0  0  0  0  0  0  0
   37.2700   33.5060   49.7140 F   0  0  0  0  0  0  0  0  0  0  0  0
   38.7320   33.1140   48.1110 F   0  0  0  0  0  0  0  0  0  0  0  0
   39.5030   33.3690   50.2100 F   0  0  0  0  0  0  0  0  0  0  0  0
   32.0690   27.8230   48.2590 S   0  0  0  0  0  0  0  0  0  0  0  0
   31.2940   26.8740   46.9000 C   0  0  0  0  0  2  0  0  0  0  0  0
   30.2080   27.6160   46.2730 C   0  0  0  0  0  0  0  0  0  0  0  0
   28.9200   27.7820   46.5170 C   0  0  0  0  0  0  0  0  0  0  0  0
   28.0450   28.5830   45.7590 N   0  0  0  0  0  0  0  0  0  0  0  0
   26.8290   28.7160   45.0320 C   0  0  0  0  0  0  0  0  0  0  0  0
   25.7090   28.1190   45.1290 O   0  0  0  0  0  0  0  0  0  0  0  0
   27.5390   29.7820   44.2360 C   0  0  0  0  0  3  0  0  0  0  0  0
   28.0750   29.3620   43.3830 H   0  0  0  0  0  0  0  0  0  0  0  0
   28.3780   29.9940   45.4780 C   0  0  2  0  0  3  0  0  0  0  0  0
   30.1720   30.0750   45.1870 S   0  0  0  0  0  0  0  0  0  0  0  0
   30.7040   28.3160   45.0770 C   0  0  0  0  0  3  0  0  0  0  0  0
   30.1750   27.9290   44.1770 H   0  0  0  0  0  0  0  0  0  0  0  0
   28.3860   27.0680   47.6970 C   0  0  0  0  0  0  0  0  0  0  0  0
   28.6260   27.0550   48.9100 O   0  0  0  0  0  0  0  0  0  0  0  0
   27.5170   26.1710   48.2390 O   0  0  0  0  0  0  0  0  0  0  0  0
   27.5040   25.1880   48.0050 H   0  0  0  0  0  0  0  0  0  0  0  0
  1  6  1  0  0  0  0
  1  9  1  0  0  0  0
  2  1  2  0  0  0  0
  3  4  2  0  0  0  0
  3  2  1  0  0  0  0
  4  5  1  0  0  0  0
  5 25  1  0  0  0  0
  5  6  2  0  0  0  0
  7  2  1  0  0  0  0
  8  3  1  0  0  0  0
  9 13  1  0  0  0  0
 10  9  1  0  0  0  0
 10 11  1  0  0  0  0
 11 16  1  1  0  0  0
 11 12  1  0  0  0  0
 12 18  1  0  0  0  0
 13 20  1  0  0  0  0
 13 19  1  0  0  0  0
 13 12  1  0  0  0  0
 14 10  1  0  0  0  0
 15 10  1  0  0  0  0
 17 12  1  0  0  0  0
 21 11  1  0  0  0  0
 21 22  1  0  0  0  0
 21 24  1  0  0  0  0
 23 21  1  0  0  0  0
 26 25  1  0  0  0  0
 27 28  2  0  0  0  0
 27 26  1  0  0  0  0
 28 38  1  0  0  0  0
 29 28  1  0  0  0  0
 30 31  2  0  0  0  0
 30 29  1  0  0  0  0
 32 30  1  0  0  0  0
 33 32  1  0  0  0  0
 34 32  1  6  0  0  0
 34 29  1  0  0  0  0
 35 34  1  0  0  0  0
 36 35  1  0  0  0  0
 36 27  1  0  0  0  0
 37 36  1  0  0  0  0
 38 40  1  0  0  0  0
 38 39  2  0  0  0  0
 41 40  1  0  0  0  0
M  END
>  <minimizedAffinity>
-6.05828762

>  <minimizedRMSD>
1.37861812

$$$$
