REMARK  Name = 
REMARK  8 active torsions:
REMARK  status: ('A' for Active; 'I' for Inactive)
REMARK    1  A    between atoms: C_3  and  C_7
REMARK    2  A    between atoms: C_5  and  O_17
REMARK    3  A    between atoms: C_11  and  C_13
REMARK    4  A    between atoms: O_17  and  C_20
REMARK    5  A    between atoms: N_23  and  C_32
REMARK    6  A    between atoms: C_32  and  C_33
REMARK    7  A    between atoms: C_34  and  C_35
REMARK    8  A    between atoms: C_35  and  O_37
REMARK                            x       y       z     vdW  Elec       q    Type
REMARK                         _______ _______ _______ _____ _____    ______ ____
ROOT
ATOM      1  N   UNL     1      33.287  27.168  47.002  0.00  0.00    +0.000 N 
ATOM      2  C   UNL     1      34.175  27.003  48.009  0.00  0.00    +0.000 A 
ATOM      3  C   UNL     1      34.401  28.062  48.878  0.00  0.00    +0.000 A 
ATOM      4  C   UNL     1      33.716  29.251  48.691  0.00  0.00    +0.000 A 
ATOM      5  O   UNL     1      33.776  30.312  49.363  0.00  0.00    +0.000 OA
ATOM      6  N   UNL     1      32.840  29.378  47.673  0.00  0.00    +0.000 N 
ATOM      7  C   UNL     1      32.617  28.333  46.819  0.00  0.00    +0.000 A 
ATOM      8  O   UNL     1      31.818  28.364  45.850  0.00  0.00    +0.000 OA
ATOM      9  H   UNL     1      33.146  26.348  46.373  0.00  0.00    +0.000 HD
ATOM     10  H   UNL     1      34.741  26.112  48.214  0.00  0.00    +0.000 HD
ENDROOT
BRANCH   3  11
ATOM     11  O   UNL     1      35.260  28.094  49.959  0.00  0.00    +0.000 OA
BRANCH  11  16
ATOM     12  C   UNL     1      37.827  30.389  51.095  0.00  0.00    +0.000 A 
ATOM     13  C   UNL     1      38.224  30.974  49.886  0.00  0.00    +0.000 A 
ATOM     14  C   UNL     1      37.589  30.550  48.741  0.00  0.00    +0.000 A 
ATOM     15  N   UNL     1      36.640  29.613  48.851  0.00  0.00    +0.000 NA
ATOM     16  C   UNL     1      36.265  29.058  50.010  0.00  0.00    +0.000 A 
ATOM     17  N   UNL     1      36.866  29.452  51.140  0.00  0.00    +0.000 NA
ATOM     18  H   UNL     1      38.341  30.742  51.961  0.00  0.00    +0.000 HD
ATOM     19  H   UNL     1      38.985  31.722  49.820  0.00  0.00    +0.000 HD
BRANCH  14  20
ATOM     20  C   UNL     1      37.895  31.081  47.421  0.00  0.00    +0.000 A 
ATOM     21  C   UNL     1      37.106  30.754  46.318  0.00  0.00    +0.000 A 
ATOM     22  C   UNL     1      37.354  31.237  45.057  0.00  0.00    +0.000 A 
ATOM     23  N   UNL     1      38.409  32.066  44.865  0.00  0.00    +0.000 NA
ATOM     24  C   UNL     1      39.154  32.368  45.934  0.00  0.00    +0.000 A 
ATOM     25  N   UNL     1      38.933  31.909  47.181  0.00  0.00    +0.000 NA
ATOM     26  H   UNL     1      36.256  30.101  46.406  0.00  0.00    +0.000 HD
ATOM     27  H   UNL     1      36.737  30.979  44.206  0.00  0.00    +0.000 HD
BRANCH  24  28
ATOM     28  C   UNL     1      40.317  33.276  45.754  0.00  0.00    +0.000 C 
ATOM     29  F   UNL     1      40.422  34.064  46.924  0.00  0.00    +0.000 F 
ATOM     30  F   UNL     1      41.466  32.583  45.527  0.00  0.00    +0.000 F 
ATOM     31  F   UNL     1      40.103  34.186  44.731  0.00  0.00    +0.000 F 
ENDBRANCH  24  28
ENDBRANCH  14  20
ENDBRANCH  11  16
ENDBRANCH   3  11
BRANCH   6  32
ATOM     32  C   UNL     1      32.114  30.583  47.347  0.00  0.00    +0.000 C 
BRANCH  32  33
ATOM     33  C   UNL     1      32.488  31.353  46.198  0.00  0.00    +0.000 C 
ATOM     34  C   UNL     1      33.414  31.250  45.247  0.00  0.00    +0.000 C 
ATOM     35  N   UNL     1      33.514  32.212  44.181  0.00  0.00    +0.000 N 
ATOM     36  C   UNL     1      34.427  33.084  43.511  0.00  0.00    +0.000 C 
ATOM     37  O   UNL     1      35.675  33.121  43.340  0.00  0.00    +0.000 OA
ATOM     38  C   UNL     1      33.195  33.883  43.141  0.00  0.00    +0.000 C 
ATOM     39  H   UNL     1      32.949  34.697  43.826  0.00  0.00    +0.000 HD
ATOM     40  C   UNL     1      32.382  32.618  43.308  0.00  0.00    +0.000 C 
ATOM     41  S   UNL     1      30.954  32.713  44.400  0.00  0.00    +0.000 S 
ATOM     42  C   UNL     1      31.626  32.564  46.099  0.00  0.00    +0.000 C 
ATOM     43  H   UNL     1      30.831  32.645  46.838  0.00  0.00    +0.000 HD
BRANCH  34  44
ATOM     44  C   UNL     1      34.299  30.095  45.343  0.00  0.00    +0.000 C 
ATOM     45  O   UNL     1      35.178  29.983  44.456  0.00  0.00    +0.000 OA
BRANCH  44  46
ATOM     46  O   UNL     1      35.127  29.021  45.426  0.00  0.00    +0.000 OA
ATOM     47  H   UNL     1      35.404  28.643  46.321  0.00  0.00    +0.000 HD
ENDBRANCH  44  46
ENDBRANCH  34  44
ENDBRANCH  32  33
ENDBRANCH   6  32
TORSDOF 8
