
     RDKit          3D

 52 56  0  0  0  0  0  0  0  0999 V2000
   37.8269   30.3890   51.0953 C   0  0  0  0  0  0  0  0  0  0  0  0
   38.2235   30.9738   49.8864 C   0  0  0  0  0  0  0  0  0  0  0  0
   37.5891   30.5504   48.7407 C   0  0  0  0  0  0  0  0  0  0  0  0
   36.6401   29.6131   48.8509 N   0  0  0  0  0  0  0  0  0  0  0  0
   36.2652   29.0578   50.0101 C   0  0  0  0  0  0  0  0  0  0  0  0
   36.8662   29.4518   51.1400 N   0  0  0  0  0  0  0  0  0  0  0  0
   37.8955   31.0809   47.4208 C   0  0  0  0  0  0  0  0  0  0  0  0
   37.1064   30.7544   46.3182 C   0  0  0  0  0  0  0  0  0  0  0  0
   37.3543   31.2368   45.0568 C   0  0  0  0  0  0  0  0  0  0  0  0
   38.4087   32.0664   44.8651 N   0  0  0  0  0  0  0  0  0  0  0  0
   39.1539   32.3681   45.9337 C   0  0  0  0  0  0  0  0  0  0  0  0
   38.9331   31.9091   47.1811 N   0  0  0  0  0  0  0  0  0  0  0  0
   40.3170   33.2764   45.7539 C   0  0  0  0  0  0  0  0  0  0  0  0
   40.4220   34.0644   46.9242 F   0  0  0  0  0  0  0  0  0  0  0  0
   41.4660   32.5830   45.5273 F   0  0  0  0  0  0  0  0  0  0  0  0
   40.1030   34.1858   44.7312 F   0  0  0  0  0  0  0  0  0  0  0  0
   35.2600   28.0938   49.9589 O   0  0  0  0  0  0  0  0  0  0  0  0
   33.2870   27.1684   47.0020 N   0  0  0  0  0  0  0  0  0  0  0  0
   34.1749   27.0028   48.0089 C   0  0  0  0  0  0  0  0  0  0  0  0
   34.4011   28.0618   48.8781 C   0  0  0  0  0  0  0  0  0  0  0  0
   33.7163   29.2512   48.6912 C   0  0  0  0  0  0  0  0  0  0  0  0
   33.7759   30.3118   49.3633 O   0  0  0  0  0  0  0  0  0  0  0  0
   32.8403   29.3775   47.6726 N   0  0  0  0  0  0  0  0  0  0  0  0
   32.6174   28.3328   46.8189 C   0  0  0  0  0  0  0  0  0  0  0  0
   31.8182   28.3640   45.8497 O   0  0  0  0  0  0  0  0  0  0  0  0
   38.3407   30.7423   51.9611 H   0  0  0  0  0  0  0  0  0  0  0  0
   38.9853   31.7221   49.8197 H   0  0  0  0  0  0  0  0  0  0  0  0
   36.2562   30.1011   46.4062 H   0  0  0  0  0  0  0  0  0  0  0  0
   36.7372   30.9786   44.2065 H   0  0  0  0  0  0  0  0  0  0  0  0
   33.1460   26.3484   46.3730 H   0  0  0  0  0  0  0  0  0  0  0  0
   34.7410   26.1118   48.2138 H   0  0  0  0  0  0  0  0  0  0  0  0
   32.1136   30.5829   47.3474 C   0  0  0  0  0  0  0  0  0  0  0  0
   32.2599   31.1759   46.0507 C   0  0  0  0  0  0  0  0  0  0  0  0
   32.9490   30.8889   44.9482 C   0  0  0  0  0  0  0  0  0  0  0  0
   33.7816   29.6935   45.0103 C   0  0  0  0  0  0  0  0  0  0  0  0
   34.4386   29.4091   43.9814 O   0  0  0  0  0  0  0  0  0  0  0  0
   34.5592   28.5808   45.0621 O   0  0  0  0  0  0  0  0  0  0  0  0
   32.8541   31.7020   43.7639 N   0  0  0  0  0  0  0  0  0  0  0  0
   33.6346   32.4149   42.8034 C   0  0  0  0  0  0  0  0  0  0  0  0
   34.8154   32.3403   42.3669 O   0  0  0  0  0  0  0  0  0  0  0  0
   32.3877   33.2499   42.5970 C   0  0  1  0  0  0  0  0  0  0  0  0
   32.3350   34.1576   43.2011 H   0  0  0  0  0  0  0  0  0  0  0  0
   31.5767   32.0770   43.1042 C   0  0  2  0  0  0  0  0  0  0  0  0
   30.4295   32.4104   44.4498 S   0  0  0  0  0  0  0  0  0  0  0  0
   31.4509   32.4247   45.9726 C   0  0  1  0  0  0  0  0  0  0  0  0
   30.8421   32.6541   46.8452 H   0  0  0  0  0  0  0  0  0  0  0  0
   32.3467   31.3909   48.1258 H   0  0  0  0  0  0  0  0  0  0  0  0
   31.0221   30.3736   47.6255 H   0  0  0  0  0  0  0  0  0  0  0  0
   35.0096   28.2973   45.9213 H   0  0  0  0  0  0  0  0  0  0  0  0
   32.2864   33.4016   41.5085 H   0  0  0  0  0  0  0  0  0  0  0  0
   31.2601   31.3676   42.3311 H   0  0  0  0  0  0  0  0  0  0  0  0
   32.1336   33.3182   45.8189 H   0  0  0  0  0  0  0  0  0  0  0  0
  1  6  2  0
  2  1  1  0
  3  4  1  0
  3  2  2  0
  4  5  2  0
  5  6  1  0
  7  3  1  0
  8  7  2  0
  9  8  1  0
 10  9  2  0
 10 11  1  0
 11 12  2  0
 12  7  1  0
 13 11  1  0
 13 14  1  0
 15 13  1  0
 16 13  1  0
 17  5  1  0
 18 19  1  0
 19 20  2  0
 20 17  1  0
 21 20  1  0
 21 22  2  0
 23 21  1  0
 24 18  1  0
 24 23  1  0
 25 24  2  0
  1 26  1  0
  2 27  1  0
  8 28  1  0
  9 29  1  0
 18 30  1  0
 19 31  1  0
 32 33  1  0
 33 34  2  0
 34 35  1  0
 35 36  2  0
 35 37  1  0
 34 38  1  0
 38 39  1  0
 39 40  2  0
 39 41  1  0
 41 42  1  1
 41 43  1  0
 43 44  1  0
 44 45  1  0
 45 46  1  1
 45 33  1  0
 43 38  1  0
 32 47  1  0
 32 48  1  0
 37 49  1  0
 41 50  1  0
 43 51  1  6
 45 52  1  0
 23 32  1  0
M  ISO  8  26  14  27  14  28  14  29  14  30   9  31  14  42  15  46  15
M  END
>  <DihAtoms>  (1) 
20,22,31,32

>  <DihDeg>  (1) 
-88.64061171298471

$$$$
