
 OpenBabel03262522153D

 52 56  0  0  1  0  0  0  0  0999 V2000
   39.0430   29.5730   42.5580 C   0  0  1  0  0  0  0  0  0  0  0  0
   38.8160   31.0290   42.1900 C   0  0  0  0  0  0  0  0  0  0  0  0
   39.9320   31.7070   42.9350 C   0  0  2  0  0  0  0  0  0  0  0  0
   40.5340   30.7710   43.7430 O   0  0  0  0  0  0  0  0  0  0  0  0
   39.6340   29.7280   43.9380 C   0  0  0  0  0  0  0  0  0  0  0  0
   39.7370   29.0930   41.8570 H   0  0  0  0  0  0  0  0  0  0  0  0
   37.8030   31.3760   42.4970 H   0  0  0  0  0  0  0  0  0  0  0  0
   38.8940   31.0950   41.0920 H   0  0  0  0  0  0  0  0  0  0  0  0
   40.6180   32.1120   42.1560 H   0  0  0  0  0  0  0  0  0  0  0  0
   38.8410   30.0080   44.6330 H   0  0  0  0  0  0  0  0  0  0  0  0
   40.1870   28.8130   44.2330 H   0  0  0  0  0  0  0  0  0  0  0  0
   39.4340   32.9040   43.7100 C   0  0  0  0  0  0  0  0  0  0  0  0
   38.3900   32.7330   43.9780 H   0  0  0  0  0  0  0  0  0  0  0  0
   39.4590   33.8330   43.0790 H   0  0  0  0  0  0  0  0  0  0  0  0
   40.5400   33.1440   45.1310 S   0  0  0  0  0  0  0  0  0  0  0  0
   37.7490   31.7390   47.5790 C   0  0  0  0  0  0  0  0  0  0  0  0
   37.9490   32.4740   48.7690 C   0  0  0  0  0  0  0  0  0  0  0  0
   38.9380   33.4170   48.8570 C   0  0  0  0  0  0  0  0  0  0  0  0
   39.7130   33.6030   47.7370 C   0  0  0  0  0  0  0  0  0  0  0  0
   39.5140   32.8910   46.5970 C   0  0  0  0  0  0  0  0  0  0  0  0
   38.5350   31.9510   46.4960 N   0  0  0  0  0  0  0  0  0  0  0  0
   37.3130   32.2960   49.6310 H   0  0  0  0  0  0  0  0  0  0  0  0
   39.1510   34.0120   49.7150 H   0  0  0  0  0  0  0  0  0  0  0  0
   40.5220   34.3290   47.7110 H   0  0  0  0  0  0  0  0  0  0  0  0
   36.6950   30.7710   47.5680 C   0  0  0  0  0  0  0  0  0  0  0  0
   36.2180   30.3620   46.5020 O   0  0  0  0  0  0  0  0  0  0  0  0
   36.9860   29.5890   49.7040 C   0  0  0  0  0  0  0  0  0  0  0  0
   36.1190   30.2110   48.7990 C   0  0  0  0  0  0  0  0  0  0  0  0
   34.7590   30.2730   49.0940 C   0  0  0  0  0  0  0  0  0  0  0  0
   34.3140   29.7210   50.2690 N   0  0  0  0  0  0  0  0  0  0  0  0
   35.1690   29.1300   51.1210 C   0  0  0  0  0  0  0  0  0  0  0  0
   36.4780   29.0640   50.8470 N   0  0  0  0  0  0  0  0  0  0  0  0
   38.0520   29.5060   49.5340 H   0  0  0  0  0  0  0  0  0  0  0  0
   34.0950   30.7580   48.3830 H   0  0  0  0  0  0  0  0  0  0  0  0
   34.8440   28.6880   52.0510 H   0  0  0  0  0  0  0  0  0  0  0  0
   37.8410   28.8690   42.5770 O   0  0  0  0  0  0  0  0  0  0  0  0
   38.0320   27.6730   41.8330 C   0  0  0  0  0  2  0  0  0  0  0  0
   37.7520   26.5100   42.6840 C   0  0  0  0  0  0  0  0  0  0  0  0
   36.5200   26.0760   42.8940 C   0  0  0  0  0  0  0  0  0  0  0  0
   36.3580   24.9310   43.7580 N   0  0  0  0  0  0  0  0  0  0  0  0
   35.5380   24.2730   44.6930 C   0  0  0  0  0  0  0  0  0  0  0  0
   34.3150   24.2070   45.0000 O   0  0  0  0  0  0  0  0  0  0  0  0
   36.7060   23.5980   45.2760 C   0  0  0  0  0  3  0  0  0  0  0  0
   37.2170   24.1740   46.0980 H   0  0  0  0  0  0  0  0  0  0  0  0
   37.3080   23.8490   43.9120 C   0  0  2  0  0  3  0  0  0  0  0  0
   38.9940   24.4750   44.0890 S   0  0  0  0  0  0  0  0  0  0  0  0
   39.0270   26.0220   43.1890 C   0  0  0  0  0  3  0  0  0  0  0  0
   39.6980   25.8340   42.2960 H   0  0  0  0  0  0  0  0  0  0  0  0
   35.2960   26.6550   42.3380 C   0  0  0  0  0  0  0  0  0  0  0  0
   35.0210   27.6760   41.7060 O   0  0  0  0  0  0  0  0  0  0  0  0
   34.0700   26.0460   42.4580 O   0  0  0  0  0  0  0  0  0  0  0  0
   33.4170   25.9590   41.6910 H   0  0  0  0  0  0  0  0  0  0  0  0
  1  6  1  6  0  0  0
  1 36  1  0  0  0  0
  1  5  1  0  0  0  0
  2  7  1  0  0  0  0
  2  1  1  0  0  0  0
  2  3  1  0  0  0  0
  3  9  1  6  0  0  0
  3 12  1  0  0  0  0
  3  4  1  0  0  0  0
  4  5  1  0  0  0  0
  5 11  1  0  0  0  0
  5 10  1  0  0  0  0
  8  2  1  0  0  0  0
 12 13  1  0  0  0  0
 12 15  1  0  0  0  0
 14 12  1  0  0  0  0
 15 20  1  0  0  0  0
 16 17  1  0  0  0  0
 17 18  2  0  0  0  0
 17 22  1  0  0  0  0
 18 23  1  0  0  0  0
 19 18  1  0  0  0  0
 20 19  2  0  0  0  0
 21 20  1  0  0  0  0
 21 16  2  0  0  0  0
 24 19  1  0  0  0  0
 25 16  1  0  0  0  0
 25 28  1  0  0  0  0
 26 25  2  0  0  0  0
 27 32  1  0  0  0  0
 28 29  1  0  0  0  0
 28 27  2  0  0  0  0
 29 30  2  0  0  0  0
 30 31  1  0  0  0  0
 31 35  1  0  0  0  0
 32 31  2  0  0  0  0
 33 27  1  0  0  0  0
 34 29  1  0  0  0  0
 37 36  1  0  0  0  0
 37 38  1  0  0  0  0
 38 39  2  0  0  0  0
 38 47  1  0  0  0  0
 39 40  1  0  0  0  0
 40 45  1  0  0  0  0
 40 41  1  0  0  0  0
 41 42  2  0  0  0  0
 41 43  1  0  0  0  0
 43 44  1  0  0  0  0
 45 46  1  1  0  0  0
 45 43  1  0  0  0  0
 47 46  1  0  0  0  0
 48 47  1  0  0  0  0
 49 51  1  0  0  0  0
 49 39  1  0  0  0  0
 50 49  2  0  0  0  0
 52 51  1  0  0  0  0
M  END
>  <minimizedAffinity>
-5.55015039

>  <minimizedRMSD>
0.953460634

$$$$
