
 OpenBabel03262522153D

 52 56  0  0  1  0  0  0  0  0999 V2000
   39.0260   29.5520   42.5280 C   0  0  1  0  0  0  0  0  0  0  0  0
   38.7910   31.0070   42.1630 C   0  0  0  0  0  0  0  0  0  0  0  0
   39.9120   31.6890   42.8960 C   0  0  2  0  0  0  0  0  0  0  0  0
   40.5260   30.7550   43.6970 O   0  0  0  0  0  0  0  0  0  0  0  0
   39.6310   29.7090   43.9020 C   0  0  0  0  0  0  0  0  0  0  0  0
   39.7140   29.0750   41.8200 H   0  0  0  0  0  0  0  0  0  0  0  0
   37.7800   31.3510   42.4810 H   0  0  0  0  0  0  0  0  0  0  0  0
   38.8560   31.0730   41.0640 H   0  0  0  0  0  0  0  0  0  0  0  0
   40.5890   32.0960   42.1100 H   0  0  0  0  0  0  0  0  0  0  0  0
   38.8450   29.9870   44.6060 H   0  0  0  0  0  0  0  0  0  0  0  0
   40.1900   28.7960   44.1910 H   0  0  0  0  0  0  0  0  0  0  0  0
   39.4180   32.8840   43.6770 C   0  0  0  0  0  0  0  0  0  0  0  0
   38.3760   32.7130   43.9490 H   0  0  0  0  0  0  0  0  0  0  0  0
   39.4410   33.8150   43.0470 H   0  0  0  0  0  0  0  0  0  0  0  0
   40.5310   33.1200   45.0920 S   0  0  0  0  0  0  0  0  0  0  0  0
   37.7460   31.7240   47.5520 C   0  0  0  0  0  0  0  0  0  0  0  0
   37.9520   32.4590   48.7410 C   0  0  0  0  0  0  0  0  0  0  0  0
   38.9450   33.3980   48.8250 C   0  0  0  0  0  0  0  0  0  0  0  0
   39.7160   33.5810   47.7020 C   0  0  0  0  0  0  0  0  0  0  0  0
   39.5100   32.8700   46.5630 C   0  0  0  0  0  0  0  0  0  0  0  0
   38.5280   31.9340   46.4650 N   0  0  0  0  0  0  0  0  0  0  0  0
   37.3200   32.2830   49.6050 H   0  0  0  0  0  0  0  0  0  0  0  0
   39.1640   33.9920   49.6820 H   0  0  0  0  0  0  0  0  0  0  0  0
   40.5270   34.3050   47.6730 H   0  0  0  0  0  0  0  0  0  0  0  0
   36.6880   30.7600   47.5440 C   0  0  0  0  0  0  0  0  0  0  0  0
   36.2080   30.3500   46.4800 O   0  0  0  0  0  0  0  0  0  0  0  0
   36.9790   29.5830   49.6840 C   0  0  0  0  0  0  0  0  0  0  0  0
   36.1130   30.2040   48.7780 C   0  0  0  0  0  0  0  0  0  0  0  0
   34.7530   30.2700   49.0750 C   0  0  0  0  0  0  0  0  0  0  0  0
   34.3080   29.7230   50.2520 N   0  0  0  0  0  0  0  0  0  0  0  0
   35.1630   29.1330   51.1040 C   0  0  0  0  0  0  0  0  0  0  0  0
   36.4720   29.0630   50.8300 N   0  0  0  0  0  0  0  0  0  0  0  0
   38.0440   29.4990   49.5130 H   0  0  0  0  0  0  0  0  0  0  0  0
   34.0890   30.7540   48.3630 H   0  0  0  0  0  0  0  0  0  0  0  0
   34.8380   28.6940   52.0370 H   0  0  0  0  0  0  0  0  0  0  0  0
   37.8270   28.8440   42.5600 O   0  0  0  0  0  0  0  0  0  0  0  0
   38.0160   27.6450   41.8220 C   0  0  0  0  0  2  0  0  0  0  0  0
   37.7430   26.4870   42.6800 C   0  0  0  0  0  0  0  0  0  0  0  0
   36.5150   26.0460   42.8970 C   0  0  0  0  0  0  0  0  0  0  0  0
   36.3600   24.9060   43.7680 N   0  0  0  0  0  0  0  0  0  0  0  0
   35.5460   24.2500   44.7090 C   0  0  0  0  0  0  0  0  0  0  0  0
   34.3250   24.1800   45.0210 O   0  0  0  0  0  0  0  0  0  0  0  0
   36.7180   23.5840   45.2940 C   0  0  0  0  0  3  0  0  0  0  0  0
   37.2290   24.1670   46.1110 H   0  0  0  0  0  0  0  0  0  0  0  0
   37.3160   23.8290   43.9260 C   0  0  2  0  0  3  0  0  0  0  0  0
   38.9990   24.4650   44.0940 S   0  0  0  0  0  0  0  0  0  0  0  0
   39.0230   26.0070   43.1850 C   0  0  0  0  0  3  0  0  0  0  0  0
   39.6910   25.8160   42.2910 H   0  0  0  0  0  0  0  0  0  0  0  0
   35.2860   26.6170   42.3410 C   0  0  0  0  0  0  0  0  0  0  0  0
   35.0020   27.6430   41.7210 O   0  0  0  0  0  0  0  0  0  0  0  0
   34.0680   25.9900   42.4450 O   0  0  0  0  0  0  0  0  0  0  0  0
   33.4210   25.9040   41.6720 H   0  0  0  0  0  0  0  0  0  0  0  0
  1  6  1  6  0  0  0
  1 36  1  0  0  0  0
  1  5  1  0  0  0  0
  2  7  1  0  0  0  0
  2  1  1  0  0  0  0
  2  3  1  0  0  0  0
  3  9  1  6  0  0  0
  3 12  1  0  0  0  0
  3  4  1  0  0  0  0
  4  5  1  0  0  0  0
  5 11  1  0  0  0  0
  5 10  1  0  0  0  0
  8  2  1  0  0  0  0
 12 13  1  0  0  0  0
 12 15  1  0  0  0  0
 14 12  1  0  0  0  0
 15 20  1  0  0  0  0
 16 17  1  0  0  0  0
 17 18  2  0  0  0  0
 17 22  1  0  0  0  0
 18 23  1  0  0  0  0
 19 18  1  0  0  0  0
 20 19  2  0  0  0  0
 21 20  1  0  0  0  0
 21 16  2  0  0  0  0
 24 19  1  0  0  0  0
 25 16  1  0  0  0  0
 25 28  1  0  0  0  0
 26 25  2  0  0  0  0
 27 32  1  0  0  0  0
 28 29  1  0  0  0  0
 28 27  2  0  0  0  0
 29 30  2  0  0  0  0
 30 31  1  0  0  0  0
 31 35  1  0  0  0  0
 32 31  2  0  0  0  0
 33 27  1  0  0  0  0
 34 29  1  0  0  0  0
 37 36  1  0  0  0  0
 37 38  1  0  0  0  0
 38 39  2  0  0  0  0
 38 47  1  0  0  0  0
 39 40  1  0  0  0  0
 40 45  1  0  0  0  0
 40 41  1  0  0  0  0
 41 42  2  0  0  0  0
 41 43  1  0  0  0  0
 43 44  1  0  0  0  0
 45 46  1  1  0  0  0
 45 43  1  0  0  0  0
 47 46  1  0  0  0  0
 48 47  1  0  0  0  0
 49 51  1  0  0  0  0
 49 39  1  0  0  0  0
 50 49  2  0  0  0  0
 52 51  1  0  0  0  0
M  END
>  <minimizedAffinity>
-5.55425978

>  <minimizedRMSD>
1.21358526

$$$$
