
 OpenBabel03262522153D

 52 56  0  0  1  0  0  0  0  0999 V2000
   38.7070   29.9360   42.1440 C   0  0  1  0  0  0  0  0  0  0  0  0
   38.8200   31.4400   41.9680 C   0  0  0  0  0  0  0  0  0  0  0  0
   39.9380   31.7730   42.9160 C   0  0  2  0  0  0  0  0  0  0  0  0
   40.2340   30.6410   43.6380 O   0  0  0  0  0  0  0  0  0  0  0  0
   39.1300   29.7970   43.5870 C   0  0  0  0  0  0  0  0  0  0  0  0
   39.3800   29.4080   41.4590 H   0  0  0  0  0  0  0  0  0  0  0  0
   37.8630   31.9540   42.2150 H   0  0  0  0  0  0  0  0  0  0  0  0
   39.0530   31.6190   40.9050 H   0  0  0  0  0  0  0  0  0  0  0  0
   40.7870   32.1130   42.2790 H   0  0  0  0  0  0  0  0  0  0  0  0
   38.3230   30.1530   44.2290 H   0  0  0  0  0  0  0  0  0  0  0  0
   39.4500   28.7560   43.8030 H   0  0  0  0  0  0  0  0  0  0  0  0
   39.5870   32.9470   43.7990 C   0  0  0  0  0  0  0  0  0  0  0  0
   38.5230   32.8950   44.0350 H   0  0  0  0  0  0  0  0  0  0  0  0
   39.7540   33.9200   43.2620 H   0  0  0  0  0  0  0  0  0  0  0  0
   40.6770   32.8950   45.2500 S   0  0  0  0  0  0  0  0  0  0  0  0
   37.7510   31.7080   47.6550 C   0  0  0  0  0  0  0  0  0  0  0  0
   37.9090   32.5210   48.8000 C   0  0  0  0  0  0  0  0  0  0  0  0
   38.9110   33.4520   48.8690 C   0  0  0  0  0  0  0  0  0  0  0  0
   39.7400   33.5470   47.7770 C   0  0  0  0  0  0  0  0  0  0  0  0
   39.5800   32.7610   46.6810 C   0  0  0  0  0  0  0  0  0  0  0  0
   38.5890   31.8320   46.5980 N   0  0  0  0  0  0  0  0  0  0  0  0
   37.2320   32.4140   49.6410 H   0  0  0  0  0  0  0  0  0  0  0  0
   39.0960   34.1020   49.6930 H   0  0  0  0  0  0  0  0  0  0  0  0
   40.5630   34.2570   47.7390 H   0  0  0  0  0  0  0  0  0  0  0  0
   36.6800   30.7590   47.6610 C   0  0  0  0  0  0  0  0  0  0  0  0
   36.1830   30.3530   46.6030 O   0  0  0  0  0  0  0  0  0  0  0  0
   36.9820   29.6140   49.8170 C   0  0  0  0  0  0  0  0  0  0  0  0
   36.1100   30.2130   48.9020 C   0  0  0  0  0  0  0  0  0  0  0  0
   34.7490   30.2690   49.1970 C   0  0  0  0  0  0  0  0  0  0  0  0
   34.3090   29.7320   50.3800 N   0  0  0  0  0  0  0  0  0  0  0  0
   35.1700   29.1630   51.2410 C   0  0  0  0  0  0  0  0  0  0  0  0
   36.4800   29.1030   50.9680 N   0  0  0  0  0  0  0  0  0  0  0  0
   38.0490   29.5380   49.6470 H   0  0  0  0  0  0  0  0  0  0  0  0
   34.0810   30.7360   48.4780 H   0  0  0  0  0  0  0  0  0  0  0  0
   34.8490   28.7330   52.1790 H   0  0  0  0  0  0  0  0  0  0  0  0
   37.3990   29.5040   41.9360 O   0  0  0  0  0  0  0  0  0  0  0  0
   37.0750   28.5940   42.9790 C   0  0  0  0  0  2  0  0  0  0  0  0
   35.6700   28.7640   43.3660 C   0  0  0  0  0  0  0  0  0  0  0  0
   34.9060   27.7390   43.7070 C   0  0  0  0  0  0  0  0  0  0  0  0
   33.5350   28.0200   44.0600 N   0  0  0  0  0  0  0  0  0  0  0  0
   32.2070   27.5550   44.0680 C   0  0  0  0  0  0  0  0  0  0  0  0
   31.5880   26.4550   44.0620 O   0  0  0  0  0  0  0  0  0  0  0  0
   31.7010   28.9330   44.0850 C   0  0  0  0  0  3  0  0  0  0  0  0
   31.5560   29.3930   43.0670 H   0  0  0  0  0  0  0  0  0  0  0  0
   33.0560   29.2350   44.6850 C   0  0  2  0  0  3  0  0  0  0  0  0
   33.7640   30.7000   43.9020 S   0  0  0  0  0  0  0  0  0  0  0  0
   35.3620   30.1870   43.2780 C   0  0  0  0  0  3  0  0  0  0  0  0
   36.1230   30.7390   43.9110 H   0  0  0  0  0  0  0  0  0  0  0  0
   35.3210   26.3360   43.7520 C   0  0  0  0  0  0  0  0  0  0  0  0
   36.2040   25.6680   43.2110 O   0  0  0  0  0  0  0  0  0  0  0  0
   34.6810   25.4020   44.5300 O   0  0  0  0  0  0  0  0  0  0  0  0
   35.1720   24.7280   45.1020 H   0  0  0  0  0  0  0  0  0  0  0  0
  1  6  1  6  0  0  0
  1  5  1  0  0  0  0
  2  1  1  0  0  0  0
  2  7  1  0  0  0  0
  2  3  1  0  0  0  0
  3  9  1  6  0  0  0
  3  4  1  0  0  0  0
  3 12  1  0  0  0  0
  5  4  1  0  0  0  0
  5 11  1  0  0  0  0
  5 10  1  0  0  0  0
  8  2  1  0  0  0  0
 12 13  1  0  0  0  0
 12 15  1  0  0  0  0
 14 12  1  0  0  0  0
 15 20  1  0  0  0  0
 16 25  1  0  0  0  0
 16 17  1  0  0  0  0
 17 18  2  0  0  0  0
 17 22  1  0  0  0  0
 18 23  1  0  0  0  0
 19 18  1  0  0  0  0
 20 19  2  0  0  0  0
 21 20  1  0  0  0  0
 21 16  2  0  0  0  0
 24 19  1  0  0  0  0
 25 28  1  0  0  0  0
 26 25  2  0  0  0  0
 27 32  1  0  0  0  0
 28 29  1  0  0  0  0
 28 27  2  0  0  0  0
 29 30  2  0  0  0  0
 30 31  1  0  0  0  0
 31 35  1  0  0  0  0
 32 31  2  0  0  0  0
 33 27  1  0  0  0  0
 34 29  1  0  0  0  0
 36  1  1  0  0  0  0
 36 37  1  0  0  0  0
 37 38  1  0  0  0  0
 38 39  2  0  0  0  0
 39 49  1  0  0  0  0
 39 40  1  0  0  0  0
 40 41  1  0  0  0  0
 40 45  1  0  0  0  0
 41 43  1  0  0  0  0
 42 41  2  0  0  0  0
 43 45  1  0  0  0  0
 44 43  1  0  0  0  0
 45 46  1  6  0  0  0
 47 38  1  0  0  0  0
 47 46  1  0  0  0  0
 47 48  1  0  0  0  0
 49 51  1  0  0  0  0
 50 49  2  0  0  0  0
 51 52  1  0  0  0  0
M  END
>  <minimizedAffinity>
-5.19721174

>  <minimizedRMSD>
2.9768908

$$$$
