
 OpenBabel03262522153D

 52 56  0  0  1  0  0  0  0  0999 V2000
   39.0550   29.5810   42.5580 C   0  0  1  0  0  0  0  0  0  0  0  0
   38.8270   31.0370   42.1940 C   0  0  0  0  0  0  0  0  0  0  0  0
   39.9270   31.7170   42.9610 C   0  0  2  0  0  0  0  0  0  0  0  0
   40.5210   30.7790   43.7730 O   0  0  0  0  0  0  0  0  0  0  0  0
   39.6230   29.7310   43.9480 C   0  0  0  0  0  0  0  0  0  0  0  0
   39.7630   29.1090   41.8660 H   0  0  0  0  0  0  0  0  0  0  0  0
   37.8080   31.3780   42.4870 H   0  0  0  0  0  0  0  0  0  0  0  0
   38.9220   31.1100   41.0980 H   0  0  0  0  0  0  0  0  0  0  0  0
   40.6240   32.1290   42.1960 H   0  0  0  0  0  0  0  0  0  0  0  0
   38.8190   30.0030   44.6320 H   0  0  0  0  0  0  0  0  0  0  0  0
   40.1770   28.8170   44.2470 H   0  0  0  0  0  0  0  0  0  0  0  0
   39.4110   32.9070   43.7350 C   0  0  0  0  0  0  0  0  0  0  0  0
   38.3720   32.7170   44.0090 H   0  0  0  0  0  0  0  0  0  0  0  0
   39.4150   33.8340   43.1000 H   0  0  0  0  0  0  0  0  0  0  0  0
   40.5210   33.1730   45.1480 S   0  0  0  0  0  0  0  0  0  0  0  0
   37.7530   31.7550   47.6150 C   0  0  0  0  0  0  0  0  0  0  0  0
   37.9570   32.4910   48.8040 C   0  0  0  0  0  0  0  0  0  0  0  0
   38.9420   33.4380   48.8850 C   0  0  0  0  0  0  0  0  0  0  0  0
   39.7090   33.6280   47.7600 C   0  0  0  0  0  0  0  0  0  0  0  0
   39.5050   32.9150   46.6220 C   0  0  0  0  0  0  0  0  0  0  0  0
   38.5300   31.9710   46.5260 N   0  0  0  0  0  0  0  0  0  0  0  0
   37.3280   32.3090   49.6690 H   0  0  0  0  0  0  0  0  0  0  0  0
   39.1580   34.0330   49.7420 H   0  0  0  0  0  0  0  0  0  0  0  0
   40.5140   34.3580   47.7290 H   0  0  0  0  0  0  0  0  0  0  0  0
   36.7030   30.7820   47.6100 C   0  0  0  0  0  0  0  0  0  0  0  0
   36.2230   30.3690   46.5470 O   0  0  0  0  0  0  0  0  0  0  0  0
   37.0110   29.6080   49.7490 C   0  0  0  0  0  0  0  0  0  0  0  0
   36.1360   30.2210   48.8450 C   0  0  0  0  0  0  0  0  0  0  0  0
   34.7770   30.2730   49.1450 C   0  0  0  0  0  0  0  0  0  0  0  0
   34.3400   29.7220   50.3230 N   0  0  0  0  0  0  0  0  0  0  0  0
   35.2030   29.1400   51.1730 C   0  0  0  0  0  0  0  0  0  0  0  0
   36.5110   29.0830   50.8960 N   0  0  0  0  0  0  0  0  0  0  0  0
   38.0770   29.5340   49.5750 H   0  0  0  0  0  0  0  0  0  0  0  0
   34.1060   30.7510   48.4350 H   0  0  0  0  0  0  0  0  0  0  0  0
   34.8840   28.6980   52.1070 H   0  0  0  0  0  0  0  0  0  0  0  0
   37.8570   28.8700   42.5540 O   0  0  0  0  0  0  0  0  0  0  0  0
   38.0720   27.6690   41.8260 C   0  0  0  0  0  2  0  0  0  0  0  0
   37.7720   26.5130   42.6790 C   0  0  0  0  0  0  0  0  0  0  0  0
   36.5330   26.1070   42.9010 C   0  0  0  0  0  0  0  0  0  0  0  0
   36.3520   24.9660   43.7660 N   0  0  0  0  0  0  0  0  0  0  0  0
   35.5250   24.3280   44.7090 C   0  0  0  0  0  0  0  0  0  0  0  0
   34.3040   24.2920   45.0270 O   0  0  0  0  0  0  0  0  0  0  0  0
   36.6810   23.6250   45.2810 C   0  0  0  0  0  3  0  0  0  0  0  0
   37.2140   24.1890   46.0980 H   0  0  0  0  0  0  0  0  0  0  0  0
   37.2770   23.8610   43.9110 C   0  0  2  0  0  3  0  0  0  0  0  0
   38.9790   24.4470   44.0730 S   0  0  0  0  0  0  0  0  0  0  0  0
   39.0410   25.9930   43.1730 C   0  0  0  0  0  3  0  0  0  0  0  0
   39.6980   25.7900   42.2730 H   0  0  0  0  0  0  0  0  0  0  0  0
   35.3180   26.7170   42.3570 C   0  0  0  0  0  0  0  0  0  0  0  0
   34.9520   27.0890   41.2410 O   0  0  0  0  0  0  0  0  0  0  0  0
   34.2270   27.0110   43.1370 O   0  0  0  0  0  0  0  0  0  0  0  0
   33.2760   26.8010   42.8640 H   0  0  0  0  0  0  0  0  0  0  0  0
  1  6  1  6  0  0  0
  1  5  1  0  0  0  0
  2  7  1  0  0  0  0
  2  1  1  0  0  0  0
  2  3  1  0  0  0  0
  3  9  1  6  0  0  0
  3 12  1  0  0  0  0
  3  4  1  0  0  0  0
  4  5  1  0  0  0  0
  5 11  1  0  0  0  0
  5 10  1  0  0  0  0
  8  2  1  0  0  0  0
 12 13  1  0  0  0  0
 12 15  1  0  0  0  0
 14 12  1  0  0  0  0
 15 20  1  0  0  0  0
 16 17  1  0  0  0  0
 17 18  2  0  0  0  0
 17 22  1  0  0  0  0
 18 23  1  0  0  0  0
 19 18  1  0  0  0  0
 20 19  2  0  0  0  0
 21 20  1  0  0  0  0
 21 16  2  0  0  0  0
 24 19  1  0  0  0  0
 25 16  1  0  0  0  0
 25 28  1  0  0  0  0
 26 25  2  0  0  0  0
 27 32  1  0  0  0  0
 28 29  1  0  0  0  0
 28 27  2  0  0  0  0
 29 30  2  0  0  0  0
 30 31  1  0  0  0  0
 31 35  1  0  0  0  0
 32 31  2  0  0  0  0
 33 27  1  0  0  0  0
 34 29  1  0  0  0  0
 36  1  1  0  0  0  0
 37 36  1  0  0  0  0
 37 38  1  0  0  0  0
 38 39  2  0  0  0  0
 38 47  1  0  0  0  0
 39 40  1  0  0  0  0
 40 45  1  0  0  0  0
 40 41  1  0  0  0  0
 41 42  2  0  0  0  0
 41 43  1  0  0  0  0
 43 44  1  0  0  0  0
 45 46  1  1  0  0  0
 45 43  1  0  0  0  0
 47 46  1  0  0  0  0
 48 47  1  0  0  0  0
 49 39  1  0  0  0  0
 49 51  1  0  0  0  0
 50 49  2  0  0  0  0
 52 51  1  0  0  0  0
M  END
>  <minimizedAffinity>
-5.55162191

>  <minimizedRMSD>
1.94021773

$$$$
