
 OpenBabel03262522153D

 52 56  0  0  1  0  0  0  0  0999 V2000
   38.7370   30.3260   42.1430 C   0  0  1  0  0  0  0  0  0  0  0  0
   39.1390   31.7870   42.0570 C   0  0  0  0  0  0  0  0  0  0  0  0
   40.0050   31.9360   43.2760 C   0  0  2  0  0  0  0  0  0  0  0  0
   39.9090   30.7770   44.0100 O   0  0  0  0  0  0  0  0  0  0  0  0
   38.7340   30.1300   43.6400 C   0  0  0  0  0  0  0  0  0  0  0  0
   39.4720   29.6850   41.6390 H   0  0  0  0  0  0  0  0  0  0  0  0
   38.2490   32.4580   42.0620 H   0  0  0  0  0  0  0  0  0  0  0  0
   39.6710   31.9150   41.1000 H   0  0  0  0  0  0  0  0  0  0  0  0
   41.0370   32.1230   42.8980 H   0  0  0  0  0  0  0  0  0  0  0  0
   37.8560   30.6230   44.0600 H   0  0  0  0  0  0  0  0  0  0  0  0
   38.8100   29.0530   43.8950 H   0  0  0  0  0  0  0  0  0  0  0  0
   39.6310   33.1610   44.0780 C   0  0  0  0  0  0  0  0  0  0  0  0
   38.5600   33.1250   44.2820 H   0  0  0  0  0  0  0  0  0  0  0  0
   39.8190   34.1000   43.4910 H   0  0  0  0  0  0  0  0  0  0  0  0
   40.6750   33.1910   45.5630 S   0  0  0  0  0  0  0  0  0  0  0  0
   37.7320   31.8160   47.8450 C   0  0  0  0  0  0  0  0  0  0  0  0
   37.8300   32.5930   49.0210 C   0  0  0  0  0  0  0  0  0  0  0  0
   38.7960   33.5560   49.1500 C   0  0  0  0  0  0  0  0  0  0  0  0
   39.6490   33.7190   48.0850 C   0  0  0  0  0  0  0  0  0  0  0  0
   39.5470   32.9670   46.9580 C   0  0  0  0  0  0  0  0  0  0  0  0
   38.5930   32.0070   46.8160 N   0  0  0  0  0  0  0  0  0  0  0  0
   37.1360   32.4310   49.8390 H   0  0  0  0  0  0  0  0  0  0  0  0
   38.9360   34.1810   50.0010 H   0  0  0  0  0  0  0  0  0  0  0  0
   40.4460   34.4580   48.0940 H   0  0  0  0  0  0  0  0  0  0  0  0
   36.6960   30.8300   47.7880 C   0  0  0  0  0  0  0  0  0  0  0  0
   36.2670   30.4190   46.7020 O   0  0  0  0  0  0  0  0  0  0  0  0
   36.9270   29.6240   49.9190 C   0  0  0  0  0  0  0  0  0  0  0  0
   36.0850   30.2510   48.9930 C   0  0  0  0  0  0  0  0  0  0  0  0
   34.7160   30.3000   49.2450 C   0  0  0  0  0  0  0  0  0  0  0  0
   34.2370   29.7310   50.3980 N   0  0  0  0  0  0  0  0  0  0  0  0
   35.0680   29.1360   51.2700 C   0  0  0  0  0  0  0  0  0  0  0  0
   36.3860   29.0820   51.0390 N   0  0  0  0  0  0  0  0  0  0  0  0
   37.9980   29.5510   49.7830 H   0  0  0  0  0  0  0  0  0  0  0  0
   34.0710   30.7880   48.5180 H   0  0  0  0  0  0  0  0  0  0  0  0
   34.7160   28.6810   52.1850 H   0  0  0  0  0  0  0  0  0  0  0  0
   37.4790   30.1190   41.5830 O   0  0  0  0  0  0  0  0  0  0  0  0
   37.4190   28.7670   41.1480 C   0  0  0  0  0  2  0  0  0  0  0  0
   38.2490   28.5960   39.9510 C   0  0  0  0  0  0  0  0  0  0  0  0
   39.2810   27.7680   39.9250 C   0  0  0  0  0  0  0  0  0  0  0  0
   40.0370   27.6850   38.6990 N   0  0  0  0  0  0  0  0  0  0  0  0
   41.2950   27.4680   38.1090 C   0  0  0  0  0  0  0  0  0  0  0  0
   42.3790   26.8790   38.3770 O   0  0  0  0  0  0  0  0  0  0  0  0
   40.9000   28.2450   36.9260 C   0  0  0  0  0  3  0  0  0  0  0  0
   41.1030   29.3510   37.0020 H   0  0  0  0  0  0  0  0  0  0  0  0
   39.5030   27.8660   37.3650 C   0  0  2  0  0  3  0  0  0  0  0  0
   38.4180   29.3080   37.2820 S   0  0  0  0  0  0  0  0  0  0  0  0
   37.7160   29.4770   38.9200 C   0  0  0  0  0  3  0  0  0  0  0  0
   36.6160   29.2350   38.8010 H   0  0  0  0  0  0  0  0  0  0  0  0
   39.7380   26.9280   41.0350 C   0  0  0  0  0  0  0  0  0  0  0  0
   40.1150   27.1350   42.1900 O   0  0  0  0  0  0  0  0  0  0  0  0
   39.8320   25.5610   40.9350 O   0  0  0  0  0  0  0  0  0  0  0  0
   39.5020   24.9290   41.6530 H   0  0  0  0  0  0  0  0  0  0  0  0
  1  6  1  6  0  0  0
  1  5  1  0  0  0  0
  2  7  1  0  0  0  0
  2  1  1  0  0  0  0
  2  3  1  0  0  0  0
  3  9  1  6  0  0  0
  3  4  1  0  0  0  0
  3 12  1  0  0  0  0
  5 11  1  0  0  0  0
  5  4  1  0  0  0  0
  5 10  1  0  0  0  0
  8  2  1  0  0  0  0
 12 13  1  0  0  0  0
 12 15  1  0  0  0  0
 14 12  1  0  0  0  0
 15 20  1  0  0  0  0
 16 17  1  0  0  0  0
 17 18  2  0  0  0  0
 17 22  1  0  0  0  0
 18 23  1  0  0  0  0
 19 24  1  0  0  0  0
 19 18  1  0  0  0  0
 20 19  2  0  0  0  0
 21 20  1  0  0  0  0
 21 16  2  0  0  0  0
 25 16  1  0  0  0  0
 25 28  1  0  0  0  0
 26 25  2  0  0  0  0
 27 32  1  0  0  0  0
 28 29  1  0  0  0  0
 28 27  2  0  0  0  0
 29 30  2  0  0  0  0
 30 31  1  0  0  0  0
 31 35  1  0  0  0  0
 32 31  2  0  0  0  0
 33 27  1  0  0  0  0
 34 29  1  0  0  0  0
 36  1  1  0  0  0  0
 37 36  1  0  0  0  0
 38 37  1  0  0  0  0
 39 38  2  0  0  0  0
 39 49  1  0  0  0  0
 40 39  1  0  0  0  0
 41 42  2  0  0  0  0
 41 40  1  0  0  0  0
 43 44  1  0  0  0  0
 43 41  1  0  0  0  0
 45 43  1  6  0  0  0
 45 40  1  0  0  0  0
 46 45  1  0  0  0  0
 46 47  1  0  0  0  0
 47 38  1  0  0  0  0
 48 47  1  0  0  0  0
 49 50  2  0  0  0  0
 51 49  1  0  0  0  0
 51 52  1  0  0  0  0
M  END
>  <minimizedAffinity>
-5.3333931

>  <minimizedRMSD>
1.03132093

$$$$
