
 OpenBabel03262522153D

 52 56  0  0  1  0  0  0  0  0999 V2000
   38.8990   30.0240   41.9430 C   0  0  1  0  0  0  0  0  0  0  0  0
   38.7530   31.5330   41.8580 C   0  0  0  0  0  0  0  0  0  0  0  0
   39.9090   31.9970   42.6990 C   0  0  2  0  0  0  0  0  0  0  0  0
   40.4620   30.8950   43.3070 O   0  0  0  0  0  0  0  0  0  0  0  0
   39.5060   29.8850   43.3180 C   0  0  0  0  0  0  0  0  0  0  0  0
   39.5610   29.6470   41.1540 H   0  0  0  0  0  0  0  0  0  0  0  0
   37.7630   31.8700   42.2410 H   0  0  0  0  0  0  0  0  0  0  0  0
   38.8280   31.8000   40.7900 H   0  0  0  0  0  0  0  0  0  0  0  0
   40.6130   32.5030   41.9980 H   0  0  0  0  0  0  0  0  0  0  0  0
   38.7350   30.0710   44.0660 H   0  0  0  0  0  0  0  0  0  0  0  0
   40.0090   28.9010   43.4270 H   0  0  0  0  0  0  0  0  0  0  0  0
   39.4840   33.0530   43.6920 C   0  0  0  0  0  0  0  0  0  0  0  0
   38.4330   32.8920   43.9390 H   0  0  0  0  0  0  0  0  0  0  0  0
   39.5590   34.0810   43.2460 H   0  0  0  0  0  0  0  0  0  0  0  0
   40.6080   32.9590   45.1150 S   0  0  0  0  0  0  0  0  0  0  0  0
   37.7400   31.6830   47.5440 C   0  0  0  0  0  0  0  0  0  0  0  0
   37.9260   32.4530   48.7150 C   0  0  0  0  0  0  0  0  0  0  0  0
   38.9310   33.3810   48.7940 C   0  0  0  0  0  0  0  0  0  0  0  0
   39.7330   33.5170   47.6870 C   0  0  0  0  0  0  0  0  0  0  0  0
   39.5460   32.7720   46.5660 C   0  0  0  0  0  0  0  0  0  0  0  0
   38.5530   31.8460   46.4730 N   0  0  0  0  0  0  0  0  0  0  0  0
   37.2690   32.3140   49.5670 H   0  0  0  0  0  0  0  0  0  0  0  0
   39.1360   33.9990   49.6370 H   0  0  0  0  0  0  0  0  0  0  0  0
   40.5550   34.2280   47.6560 H   0  0  0  0  0  0  0  0  0  0  0  0
   36.6680   30.7350   47.5400 C   0  0  0  0  0  0  0  0  0  0  0  0
   36.1800   30.3310   46.4780 O   0  0  0  0  0  0  0  0  0  0  0  0
   36.9470   29.5460   49.6760 C   0  0  0  0  0  0  0  0  0  0  0  0
   36.0890   30.1870   48.7760 C   0  0  0  0  0  0  0  0  0  0  0  0
   34.7320   30.2800   49.0800 C   0  0  0  0  0  0  0  0  0  0  0  0
   34.2820   29.7400   50.2580 N   0  0  0  0  0  0  0  0  0  0  0  0
   35.1300   29.1290   51.1040 C   0  0  0  0  0  0  0  0  0  0  0  0
   36.4350   29.0330   50.8220 N   0  0  0  0  0  0  0  0  0  0  0  0
   38.0100   29.4400   49.4980 H   0  0  0  0  0  0  0  0  0  0  0  0
   34.0740   30.7800   48.3730 H   0  0  0  0  0  0  0  0  0  0  0  0
   34.8010   28.6950   52.0370 H   0  0  0  0  0  0  0  0  0  0  0  0
   37.6600   29.3950   41.8490 O   0  0  0  0  0  0  0  0  0  0  0  0
   37.4000   28.7670   43.0980 C   0  0  0  0  0  2  0  0  0  0  0  0
   36.6610   27.5180   42.8800 C   0  0  0  0  0  0  0  0  0  0  0  0
   37.2760   26.3700   42.6470 C   0  0  0  0  0  0  0  0  0  0  0  0
   36.4510   25.2050   42.4370 N   0  0  0  0  0  0  0  0  0  0  0  0
   36.3170   23.9650   41.7860 C   0  0  0  0  0  0  0  0  0  0  0  0
   37.0570   23.0680   41.2940 O   0  0  0  0  0  0  0  0  0  0  0  0
   34.8530   24.0520   41.8720 C   0  0  0  0  0  3  0  0  0  0  0  0
   34.3650   24.5830   41.0070 H   0  0  0  0  0  0  0  0  0  0  0  0
   35.1540   24.9690   43.0370 C   0  0  2  0  0  3  0  0  0  0  0  0
   34.1120   26.4420   42.9470 S   0  0  0  0  0  0  0  0  0  0  0  0
   35.2410   27.8310   42.9660 C   0  0  0  0  0  3  0  0  0  0  0  0
   35.0650   28.3470   43.9590 H   0  0  0  0  0  0  0  0  0  0  0  0
   38.7250   26.1690   42.5730 C   0  0  0  0  0  0  0  0  0  0  0  0
   39.6270   26.5760   41.8380 O   0  0  0  0  0  0  0  0  0  0  0  0
   39.4050   25.3650   43.4540 O   0  0  0  0  0  0  0  0  0  0  0  0
   40.2760   25.6350   43.8910 H   0  0  0  0  0  0  0  0  0  0  0  0
  1  6  1  6  0  0  0
  1  5  1  0  0  0  0
  2  1  1  0  0  0  0
  2  7  1  0  0  0  0
  2  3  1  0  0  0  0
  3  9  1  6  0  0  0
  3  4  1  0  0  0  0
  3 12  1  0  0  0  0
  4  5  1  0  0  0  0
  5 11  1  0  0  0  0
  5 10  1  0  0  0  0
  8  2  1  0  0  0  0
 12 13  1  0  0  0  0
 12 15  1  0  0  0  0
 14 12  1  0  0  0  0
 15 20  1  0  0  0  0
 16 17  1  0  0  0  0
 17 18  2  0  0  0  0
 17 22  1  0  0  0  0
 18 23  1  0  0  0  0
 19 18  1  0  0  0  0
 20 19  2  0  0  0  0
 21 20  1  0  0  0  0
 21 16  2  0  0  0  0
 24 19  1  0  0  0  0
 25 16  1  0  0  0  0
 25 28  1  0  0  0  0
 26 25  2  0  0  0  0
 27 32  1  0  0  0  0
 28 29  1  0  0  0  0
 28 27  2  0  0  0  0
 29 30  2  0  0  0  0
 30 31  1  0  0  0  0
 31 35  1  0  0  0  0
 32 31  2  0  0  0  0
 33 27  1  0  0  0  0
 34 29  1  0  0  0  0
 36  1  1  0  0  0  0
 36 37  1  0  0  0  0
 38 47  1  0  0  0  0
 38 37  1  0  0  0  0
 39 38  2  0  0  0  0
 40 39  1  0  0  0  0
 40 45  1  0  0  0  0
 41 43  1  0  0  0  0
 41 40  1  0  0  0  0
 42 41  2  0  0  0  0
 44 43  1  0  0  0  0
 45 43  1  6  0  0  0
 46 47  1  0  0  0  0
 46 45  1  0  0  0  0
 47 48  1  0  0  0  0
 49 39  1  0  0  0  0
 49 51  1  0  0  0  0
 50 49  2  0  0  0  0
 51 52  1  0  0  0  0
M  END
>  <minimizedAffinity>
-5.44257736

>  <minimizedRMSD>
2.89806986

$$$$
