
 OpenBabel03272502283D

 47 51  0  0  1  0  0  0  0  0999 V2000
   35.5370   30.1020   30.4040 N   0  0  0  0  0  0  0  0  0  0  0  0
   36.4920   29.2030   30.7340 C   0  0  0  0  0  0  0  0  0  0  0  0
   36.6890   28.9030   32.0760 C   0  0  0  0  0  0  0  0  0  0  0  0
   35.9070   29.5290   33.0320 C   0  0  0  0  0  0  0  0  0  0  0  0
   35.9270   29.3930   34.2820 O   0  0  0  0  0  0  0  0  0  0  0  0
   34.9660   30.4220   32.6630 N   0  0  0  0  0  0  0  0  0  0  0  0
   34.7730   30.7150   31.3410 C   0  0  0  0  0  0  0  0  0  0  0  0
   33.9180   31.5290   30.9100 O   0  0  0  0  0  0  0  0  0  0  0  0
   35.4210   30.2970   29.3860 H   0  0  0  0  0  0  0  0  0  0  0  0
   37.1340   28.6800   30.0480 H   0  0  0  0  0  0  0  0  0  0  0  0
   37.6050   28.0210   32.6150 O   0  0  0  0  0  0  0  0  0  0  0  0
   36.4580   24.7400   31.5820 C   0  0  0  0  0  0  0  0  0  0  0  0
   37.0200   23.9290   32.5760 C   0  0  0  0  0  0  0  0  0  0  0  0
   37.7650   24.5520   33.5520 C   0  0  0  0  0  0  0  0  0  0  0  0
   37.9060   25.8810   33.4920 N   0  0  0  0  0  0  0  0  0  0  0  0
   37.3660   26.6500   32.5390 C   0  0  0  0  0  0  0  0  0  0  0  0
   36.6360   26.0710   31.5770 N   0  0  0  0  0  0  0  0  0  0  0  0
   35.8870   24.2230   30.8430 H   0  0  0  0  0  0  0  0  0  0  0  0
   36.8950   22.8680   32.6060 H   0  0  0  0  0  0  0  0  0  0  0  0
   38.3960   23.8320   34.6480 C   0  0  0  0  0  0  0  0  0  0  0  0
   39.3600   22.8550   34.4020 C   0  0  0  0  0  0  0  0  0  0  0  0
   39.9850   22.1570   35.4050 C   0  0  0  0  0  0  0  0  0  0  0  0
   39.6560   22.4200   36.6940 N   0  0  0  0  0  0  0  0  0  0  0  0
   38.7290   23.3590   36.9110 C   0  0  0  0  0  0  0  0  0  0  0  0
   38.1010   24.0590   35.9460 N   0  0  0  0  0  0  0  0  0  0  0  0
   39.6640   22.6010   33.4020 H   0  0  0  0  0  0  0  0  0  0  0  0
   40.7330   21.4010   35.2060 H   0  0  0  0  0  0  0  0  0  0  0  0
   38.3490   23.6700   38.3140 C   0  0  0  0  0  0  0  0  0  0  0  0
   37.9780   25.0340   38.3580 F   0  0  0  0  0  0  0  0  0  0  0  0
   37.3350   22.8730   38.7480 F   0  0  0  0  0  0  0  0  0  0  0  0
   39.4320   23.5680   39.1720 F   0  0  0  0  0  0  0  0  0  0  0  0
   34.1350   31.1770   33.5710 C   0  0  0  0  0  2  0  0  0  0  0  0
   33.0900   30.5180   34.2980 C   0  0  0  0  0  0  0  0  0  0  0  0
   32.7100   30.4640   35.5730 C   0  0  0  0  0  0  0  0  0  0  0  0
   31.5620   29.7020   35.9880 N   0  0  0  0  0  0  0  0  0  0  0  0
   31.1290   28.6990   36.9100 C   0  0  0  0  0  0  0  0  0  0  0  0
   31.5110   28.2870   38.0380 O   0  0  0  0  0  0  0  0  0  0  0  0
   30.0460   28.4100   35.8910 C   0  0  0  0  0  3  0  0  0  0  0  0
   30.2860   27.6230   35.1730 H   0  0  0  0  0  0  0  0  0  0  0  0
   30.2090   29.8280   35.3860 C   0  0  2  0  0  3  0  0  0  0  0  0
   30.4950   30.0280   33.6210 S   0  0  0  0  0  0  0  0  0  0  0  0
   32.2780   29.6820   33.3700 C   0  0  0  0  0  3  0  0  0  0  0  0
   32.5400   29.7480   32.3160 H   0  0  0  0  0  0  0  0  0  0  0  0
   33.5130   31.2410   36.5110 C   0  0  0  0  0  0  0  0  0  0  0  0
   32.9570   31.5830   37.5800 O   0  0  0  0  0  0  0  0  0  0  0  0
   34.2560   31.9640   37.3890 O   0  0  0  0  0  0  0  0  0  0  0  0
   35.2500   31.8130   37.4810 H   0  0  0  0  0  0  0  0  0  0  0  0
  1  2  1  0  0  0  0
  1  7  1  0  0  0  0
  2  3  2  0  0  0  0
  3 11  1  0  0  0  0
  3  4  1  0  0  0  0
  4  5  2  0  0  0  0
  6  4  1  0  0  0  0
  6 32  1  0  0  0  0
  7  6  1  0  0  0  0
  8  7  2  0  0  0  0
  9  1  1  0  0  0  0
 10  2  1  0  0  0  0
 12 13  1  0  0  0  0
 13 19  1  0  0  0  0
 13 14  2  0  0  0  0
 14 20  1  0  0  0  0
 15 14  1  0  0  0  0
 16 11  1  0  0  0  0
 16 15  2  0  0  0  0
 17 12  2  0  0  0  0
 17 16  1  0  0  0  0
 18 12  1  0  0  0  0
 20 25  1  0  0  0  0
 21 20  2  0  0  0  0
 21 22  1  0  0  0  0
 22 23  2  0  0  0  0
 23 24  1  0  0  0  0
 24 28  1  0  0  0  0
 25 24  2  0  0  0  0
 26 21  1  0  0  0  0
 27 22  1  0  0  0  0
 28 29  1  0  0  0  0
 28 30  1  0  0  0  0
 28 31  1  0  0  0  0
 32 33  1  0  0  0  0
 33 34  2  0  0  0  0
 34 35  1  0  0  0  0
 34 44  1  0  0  0  0
 35 36  1  0  0  0  0
 36 37  2  0  0  0  0
 38 36  1  0  0  0  0
 39 38  1  0  0  0  0
 40 41  1  6  0  0  0
 40 38  1  0  0  0  0
 40 35  1  0  0  0  0
 42 41  1  0  0  0  0
 42 33  1  0  0  0  0
 43 42  1  0  0  0  0
 44 46  1  0  0  0  0
 44 45  2  0  0  0  0
 46 47  1  0  0  0  0
M  END
>  <minimizedAffinity>
-7.38628674

$$$$

 OpenBabel03272502283D

 47 51  0  0  1  0  0  0  0  0999 V2000
   34.9720   30.2180   30.7930 N   0  0  0  0  0  0  0  0  0  0  0  0
   36.0770   29.4700   31.0160 C   0  0  0  0  0  0  0  0  0  0  0  0
   36.2690   28.9250   32.2780 C   0  0  0  0  0  0  0  0  0  0  0  0
   35.3310   29.1620   33.2690 C   0  0  0  0  0  0  0  0  0  0  0  0
   35.3210   28.7590   34.4600 O   0  0  0  0  0  0  0  0  0  0  0  0
   34.2430   29.9160   33.0090 N   0  0  0  0  0  0  0  0  0  0  0  0
   34.0540   30.4500   31.7640 C   0  0  0  0  0  0  0  0  0  0  0  0
   33.0700   31.1590   31.4360 O   0  0  0  0  0  0  0  0  0  0  0  0
   34.8660   30.6080   29.8310 H   0  0  0  0  0  0  0  0  0  0  0  0
   36.8450   29.2450   30.2970 H   0  0  0  0  0  0  0  0  0  0  0  0
   37.3230   28.1390   32.7030 O   0  0  0  0  0  0  0  0  0  0  0  0
   36.5500   24.7730   31.5990 C   0  0  0  0  0  0  0  0  0  0  0  0
   37.1660   24.0100   32.5990 C   0  0  0  0  0  0  0  0  0  0  0  0
   37.8160   24.6920   33.6030 C   0  0  0  0  0  0  0  0  0  0  0  0
   37.8200   26.0290   33.5630 N   0  0  0  0  0  0  0  0  0  0  0  0
   37.2290   26.7530   32.6040 C   0  0  0  0  0  0  0  0  0  0  0  0
   36.5890   26.1160   31.6150 N   0  0  0  0  0  0  0  0  0  0  0  0
   36.0560   24.2110   30.8380 H   0  0  0  0  0  0  0  0  0  0  0  0
   37.1510   22.9410   32.6130 H   0  0  0  0  0  0  0  0  0  0  0  0
   38.4880   24.0250   34.7080 C   0  0  0  0  0  0  0  0  0  0  0  0
   39.5670   23.1710   34.4790 C   0  0  0  0  0  0  0  0  0  0  0  0
   40.2340   22.5270   35.4920 C   0  0  0  0  0  0  0  0  0  0  0  0
   39.8330   22.7210   36.7720 N   0  0  0  0  0  0  0  0  0  0  0  0
   38.7970   23.5430   36.9720 C   0  0  0  0  0  0  0  0  0  0  0  0
   38.1260   24.1870   35.9980 N   0  0  0  0  0  0  0  0  0  0  0  0
   39.9310   22.9760   33.4860 H   0  0  0  0  0  0  0  0  0  0  0  0
   41.0710   21.8660   35.3060 H   0  0  0  0  0  0  0  0  0  0  0  0
   38.3360   23.7760   38.3660 C   0  0  0  0  0  0  0  0  0  0  0  0
   37.9380   25.1310   38.4570 F   0  0  0  0  0  0  0  0  0  0  0  0
   37.3150   22.9430   38.7040 F   0  0  0  0  0  0  0  0  0  0  0  0
   39.3730   23.6490   39.2760 F   0  0  0  0  0  0  0  0  0  0  0  0
   33.2320   30.2760   33.9750 C   0  0  0  0  0  2  0  0  0  0  0  0
   33.4700   31.3510   34.8920 C   0  0  0  0  0  0  0  0  0  0  0  0
   32.9310   31.7550   36.0410 C   0  0  0  0  0  0  0  0  0  0  0  0
   33.4350   32.9020   36.7500 N   0  0  0  0  0  0  0  0  0  0  0  0
   33.0420   34.1420   37.3430 C   0  0  0  0  0  0  0  0  0  0  0  0
   31.9760   34.6120   37.8230 O   0  0  0  0  0  0  0  0  0  0  0  0
   34.4780   34.5630   37.1080 C   0  0  0  0  0  3  0  0  0  0  0  0
   34.6570   35.0900   36.1690 H   0  0  0  0  0  0  0  0  0  0  0  0
   34.8610   33.0990   37.1220 C   0  0  2  0  0  3  0  0  0  0  0  0
   35.8040   32.4980   35.7130 S   0  0  0  0  0  0  0  0  0  0  0  0
   34.5730   32.2150   34.3830 C   0  0  0  0  0  3  0  0  0  0  0  0
   35.0600   31.8770   33.4700 H   0  0  0  0  0  0  0  0  0  0  0  0
   31.8230   30.9520   36.5420 C   0  0  0  0  0  0  0  0  0  0  0  0
   32.0910   30.1140   37.4350 O   0  0  0  0  0  0  0  0  0  0  0  0
   30.7930   30.2010   37.0140 O   0  0  0  0  0  0  0  0  0  0  0  0
   29.8590   30.5780   37.0810 H   0  0  0  0  0  0  0  0  0  0  0  0
  1  2  1  0  0  0  0
  1  7  1  0  0  0  0
  2  3  2  0  0  0  0
  3 11  1  0  0  0  0
  3  4  1  0  0  0  0
  4  5  2  0  0  0  0
  6  4  1  0  0  0  0
  6 32  1  0  0  0  0
  7  6  1  0  0  0  0
  8  7  2  0  0  0  0
  9  1  1  0  0  0  0
 10  2  1  0  0  0  0
 12 17  2  0  0  0  0
 12 13  1  0  0  0  0
 13 19  1  0  0  0  0
 13 14  2  0  0  0  0
 14 20  1  0  0  0  0
 15 14  1  0  0  0  0
 16 11  1  0  0  0  0
 16 15  2  0  0  0  0
 17 16  1  0  0  0  0
 18 12  1  0  0  0  0
 20 25  1  0  0  0  0
 21 20  2  0  0  0  0
 21 22  1  0  0  0  0
 22 23  2  0  0  0  0
 23 24  1  0  0  0  0
 24 28  1  0  0  0  0
 25 24  2  0  0  0  0
 26 21  1  0  0  0  0
 27 22  1  0  0  0  0
 28 29  1  0  0  0  0
 28 30  1  0  0  0  0
 28 31  1  0  0  0  0
 32 33  1  0  0  0  0
 33 34  2  0  0  0  0
 34 44  1  0  0  0  0
 34 35  1  0  0  0  0
 35 40  1  0  0  0  0
 35 36  1  0  0  0  0
 36 37  2  0  0  0  0
 38 40  1  0  0  0  0
 38 36  1  0  0  0  0
 39 38  1  0  0  0  0
 40 41  1  6  0  0  0
 42 33  1  0  0  0  0
 42 41  1  0  0  0  0
 43 42  1  0  0  0  0
 44 46  1  0  0  0  0
 44 45  2  0  0  0  0
 46 47  1  0  0  0  0
M  END
>  <minimizedAffinity>
-7.24933863

$$$$

 OpenBabel03272502283D

 47 51  0  0  1  0  0  0  0  0999 V2000
   41.4810   25.3110   34.7320 N   0  0  0  0  0  0  0  0  0  0  0  0
   40.7310   26.4310   34.8560 C   0  0  0  0  0  0  0  0  0  0  0  0
   39.3910   26.3000   35.1950 C   0  0  0  0  0  0  0  0  0  0  0  0
   38.8610   25.0360   35.3950 C   0  0  0  0  0  0  0  0  0  0  0  0
   37.6880   24.7110   35.7080 O   0  0  0  0  0  0  0  0  0  0  0  0
   39.6410   23.9440   35.2590 N   0  0  0  0  0  0  0  0  0  0  0  0
   40.9610   24.0740   34.9270 C   0  0  0  0  0  0  0  0  0  0  0  0
   41.7570   23.1120   34.7840 O   0  0  0  0  0  0  0  0  0  0  0  0
   42.4820   25.4540   34.4780 H   0  0  0  0  0  0  0  0  0  0  0  0
   41.0730   27.4400   34.7170 H   0  0  0  0  0  0  0  0  0  0  0  0
   38.4660   27.3110   35.3690 O   0  0  0  0  0  0  0  0  0  0  0  0
   37.1670   27.8970   32.0350 C   0  0  0  0  0  0  0  0  0  0  0  0
   35.9960   28.6100   32.3200 C   0  0  0  0  0  0  0  0  0  0  0  0
   35.7120   28.8540   33.6440 C   0  0  0  0  0  0  0  0  0  0  0  0
   36.5630   28.3990   34.5710 N   0  0  0  0  0  0  0  0  0  0  0  0
   37.6810   27.7180   34.2910 C   0  0  0  0  0  0  0  0  0  0  0  0
   37.9820   27.4660   33.0110 N   0  0  0  0  0  0  0  0  0  0  0  0
   37.3540   27.7270   30.9980 H   0  0  0  0  0  0  0  0  0  0  0  0
   35.3290   28.9660   31.5640 H   0  0  0  0  0  0  0  0  0  0  0  0
   34.5360   29.5920   34.0810 C   0  0  0  0  0  0  0  0  0  0  0  0
   33.3520   29.5520   33.3440 C   0  0  0  0  0  0  0  0  0  0  0  0
   32.2180   30.2270   33.7220 C   0  0  0  0  0  0  0  0  0  0  0  0
   32.2390   30.9680   34.8570 N   0  0  0  0  0  0  0  0  0  0  0  0
   33.3830   30.9950   35.5500 C   0  0  0  0  0  0  0  0  0  0  0  0
   34.5090   30.3430   35.2020 N   0  0  0  0  0  0  0  0  0  0  0  0
   33.2720   28.9820   32.4360 H   0  0  0  0  0  0  0  0  0  0  0  0
   31.3020   30.1900   33.1460 H   0  0  0  0  0  0  0  0  0  0  0  0
   33.4370   31.7990   36.7990 C   0  0  0  0  0  0  0  0  0  0  0  0
   33.1120   33.1320   36.4570 F   0  0  0  0  0  0  0  0  0  0  0  0
   32.5850   31.3160   37.7440 F   0  0  0  0  0  0  0  0  0  0  0  0
   34.7230   31.8660   37.3100 F   0  0  0  0  0  0  0  0  0  0  0  0
   39.1870   22.5790   35.3860 C   0  0  0  0  0  2  0  0  0  0  0  0
   38.2720   22.0380   34.4250 C   0  0  0  0  0  0  0  0  0  0  0  0
   37.0870   21.4320   34.4790 C   0  0  0  0  0  0  0  0  0  0  0  0
   36.3940   21.0180   33.2870 N   0  0  0  0  0  0  0  0  0  0  0  0
   35.7620   19.8980   32.6650 C   0  0  0  0  0  0  0  0  0  0  0  0
   35.2120   18.8370   33.0660 O   0  0  0  0  0  0  0  0  0  0  0  0
   36.0780   20.6040   31.3630 C   0  0  0  0  0  3  0  0  0  0  0  0
   37.0190   20.3100   30.8950 H   0  0  0  0  0  0  0  0  0  0  0  0
   36.1070   21.9070   32.1320 C   0  0  2  0  0  3  0  0  0  0  0  0
   37.5790   22.9240   31.9410 S   0  0  0  0  0  0  0  0  0  0  0  0
   38.8350   22.1830   33.0530 C   0  0  0  0  0  3  0  0  0  0  0  0
   39.7800   22.7180   32.9800 H   0  0  0  0  0  0  0  0  0  0  0  0
   36.5300   21.2400   35.8130 C   0  0  0  0  0  0  0  0  0  0  0  0
   35.3280   20.8910   35.8780 O   0  0  0  0  0  0  0  0  0  0  0  0
   36.0060   21.0580   37.0530 O   0  0  0  0  0  0  0  0  0  0  0  0
   36.5710   20.7060   37.8130 H   0  0  0  0  0  0  0  0  0  0  0  0
  1  2  1  0  0  0  0
  1  7  1  0  0  0  0
  2  3  2  0  0  0  0
  3 11  1  0  0  0  0
  3  4  1  0  0  0  0
  4  5  2  0  0  0  0
  6 32  1  0  0  0  0
  6  4  1  0  0  0  0
  7  6  1  0  0  0  0
  8  7  2  0  0  0  0
  9  1  1  0  0  0  0
 10  2  1  0  0  0  0
 12 13  2  0  0  0  0
 12 17  1  0  0  0  0
 13 14  1  0  0  0  0
 14 20  1  0  0  0  0
 14 15  2  0  0  0  0
 16 15  1  0  0  0  0
 16 11  1  0  0  0  0
 17 16  2  0  0  0  0
 18 12  1  0  0  0  0
 19 13  1  0  0  0  0
 20 25  1  0  0  0  0
 21 22  1  0  0  0  0
 21 20  2  0  0  0  0
 22 23  2  0  0  0  0
 23 24  1  0  0  0  0
 24 28  1  0  0  0  0
 25 24  2  0  0  0  0
 26 21  1  0  0  0  0
 27 22  1  0  0  0  0
 28 31  1  0  0  0  0
 28 30  1  0  0  0  0
 29 28  1  0  0  0  0
 33 34  2  0  0  0  0
 33 32  1  0  0  0  0
 34 44  1  0  0  0  0
 35 34  1  0  0  0  0
 36 37  2  0  0  0  0
 36 35  1  0  0  0  0
 38 36  1  0  0  0  0
 39 38  1  0  0  0  0
 40 38  1  6  0  0  0
 40 35  1  0  0  0  0
 41 40  1  0  0  0  0
 41 42  1  0  0  0  0
 42 33  1  0  0  0  0
 43 42  1  0  0  0  0
 44 45  2  0  0  0  0
 44 46  1  0  0  0  0
 46 47  1  0  0  0  0
M  END
>  <minimizedAffinity>
-6.9265089

$$$$

 OpenBabel03272502283D

 47 51  0  0  1  0  0  0  0  0999 V2000
   36.4860   23.9250   31.7790 N   0  0  0  0  0  0  0  0  0  0  0  0
   36.6310   25.2640   31.9080 C   0  0  0  0  0  0  0  0  0  0  0  0
   37.4350   25.7520   32.9290 C   0  0  0  0  0  0  0  0  0  0  0  0
   38.0630   24.8600   33.7830 C   0  0  0  0  0  0  0  0  0  0  0  0
   38.8250   25.0990   34.7530 O   0  0  0  0  0  0  0  0  0  0  0  0
   37.8920   23.5320   33.6240 N   0  0  0  0  0  0  0  0  0  0  0  0
   37.1000   23.0530   32.6170 C   0  0  0  0  0  0  0  0  0  0  0  0
   36.8900   21.8340   32.3960 O   0  0  0  0  0  0  0  0  0  0  0  0
   35.8740   23.6000   30.9990 H   0  0  0  0  0  0  0  0  0  0  0  0
   36.1750   26.0120   31.2840 H   0  0  0  0  0  0  0  0  0  0  0  0
   37.7090   27.0730   33.2250 O   0  0  0  0  0  0  0  0  0  0  0  0
   36.4100   29.5870   30.9580 C   0  0  0  0  0  0  0  0  0  0  0  0
   35.3060   30.0590   31.6780 C   0  0  0  0  0  0  0  0  0  0  0  0
   35.0630   29.4890   32.9070 C   0  0  0  0  0  0  0  0  0  0  0  0
   35.8890   28.5270   33.3350 N   0  0  0  0  0  0  0  0  0  0  0  0
   36.9440   28.0810   32.6420 C   0  0  0  0  0  0  0  0  0  0  0  0
   37.2030   28.6180   31.4430 N   0  0  0  0  0  0  0  0  0  0  0  0
   36.5670   30.0520   30.0100 H   0  0  0  0  0  0  0  0  0  0  0  0
   34.6580   30.8290   31.3180 H   0  0  0  0  0  0  0  0  0  0  0  0
   33.9580   29.8910   33.7640 C   0  0  0  0  0  0  0  0  0  0  0  0
   32.6370   29.6340   33.3960 C   0  0  0  0  0  0  0  0  0  0  0  0
   31.5650   29.9890   34.1770 C   0  0  0  0  0  0  0  0  0  0  0  0
   31.7890   30.6200   35.3560 N   0  0  0  0  0  0  0  0  0  0  0  0
   33.0610   30.8580   35.6910 C   0  0  0  0  0  0  0  0  0  0  0  0
   34.1310   30.5200   34.9460 N   0  0  0  0  0  0  0  0  0  0  0  0
   32.3950   29.1380   32.4730 H   0  0  0  0  0  0  0  0  0  0  0  0
   30.5430   29.7860   33.8850 H   0  0  0  0  0  0  0  0  0  0  0  0
   33.3380   31.5470   36.9790 C   0  0  0  0  0  0  0  0  0  0  0  0
   32.7050   30.8010   38.0010 F   0  0  0  0  0  0  0  0  0  0  0  0
   34.6730   31.6600   37.2130 F   0  0  0  0  0  0  0  0  0  0  0  0
   32.7410   32.7970   37.0310 F   0  0  0  0  0  0  0  0  0  0  0  0
   38.4470   22.5140   34.4850 C   0  0  0  0  0  2  0  0  0  0  0  0
   39.8660   22.3280   34.5470 C   0  0  0  0  0  0  0  0  0  0  0  0
   40.7690   22.2350   35.5220 C   0  0  0  0  0  0  0  0  0  0  0  0
   42.1640   22.0160   35.2420 N   0  0  0  0  0  0  0  0  0  0  0  0
   43.4750   22.5210   35.5060 C   0  0  0  0  0  0  0  0  0  0  0  0
   44.0110   23.1980   36.4240 O   0  0  0  0  0  0  0  0  0  0  0  0
   43.8550   21.8610   34.1960 C   0  0  0  0  0  3  0  0  0  0  0  0
   43.8000   22.5100   33.3200 H   0  0  0  0  0  0  0  0  0  0  0  0
   42.6860   20.9180   34.3870 C   0  0  2  0  0  3  0  0  0  0  0  0
   41.5220   20.7900   33.0210 S   0  0  0  0  0  0  0  0  0  0  0  0
   40.4280   22.2540   33.1690 C   0  0  0  0  0  3  0  0  0  0  0  0
   39.7030   22.2790   32.3570 H   0  0  0  0  0  0  0  0  0  0  0  0
   40.2530   22.3440   36.8810 C   0  0  0  0  0  0  0  0  0  0  0  0
   40.8910   21.7440   37.7770 O   0  0  0  0  0  0  0  0  0  0  0  0
   39.7770   22.4440   38.1500 O   0  0  0  0  0  0  0  0  0  0  0  0
   39.3220   23.2850   38.4730 H   0  0  0  0  0  0  0  0  0  0  0  0
  1  2  1  0  0  0  0
  1  7  1  0  0  0  0
  2  3  2  0  0  0  0
  3 11  1  0  0  0  0
  3  4  1  0  0  0  0
  4  5  2  0  0  0  0
  6  4  1  0  0  0  0
  6 32  1  0  0  0  0
  7  6  1  0  0  0  0
  8  7  2  0  0  0  0
  9  1  1  0  0  0  0
 10  2  1  0  0  0  0
 12 17  2  0  0  0  0
 12 13  1  0  0  0  0
 13 14  2  0  0  0  0
 14 15  1  0  0  0  0
 14 20  1  0  0  0  0
 16 11  1  0  0  0  0
 16 15  2  0  0  0  0
 17 16  1  0  0  0  0
 18 12  1  0  0  0  0
 19 13  1  0  0  0  0
 20 25  1  0  0  0  0
 21 20  2  0  0  0  0
 21 22  1  0  0  0  0
 22 23  2  0  0  0  0
 23 24  1  0  0  0  0
 24 28  1  0  0  0  0
 25 24  2  0  0  0  0
 26 21  1  0  0  0  0
 27 22  1  0  0  0  0
 28 31  1  0  0  0  0
 28 30  1  0  0  0  0
 28 29  1  0  0  0  0
 32 33  1  0  0  0  0
 33 34  2  0  0  0  0
 34 44  1  0  0  0  0
 35 36  1  0  0  0  0
 35 34  1  0  0  0  0
 36 37  2  0  0  0  0
 38 40  1  0  0  0  0
 38 36  1  0  0  0  0
 39 38  1  0  0  0  0
 40 41  1  6  0  0  0
 40 35  1  0  0  0  0
 41 42  1  0  0  0  0
 42 33  1  0  0  0  0
 43 42  1  0  0  0  0
 44 45  2  0  0  0  0
 44 46  1  0  0  0  0
 46 47  1  0  0  0  0
M  END
>  <minimizedAffinity>
-6.74202442

$$$$

 OpenBabel03272502283D

 47 51  0  0  1  0  0  0  0  0999 V2000
   35.8730   27.0070   31.3060 N   0  0  0  0  0  0  0  0  0  0  0  0
   35.6480   25.6860   31.1210 C   0  0  0  0  0  0  0  0  0  0  0  0
   36.7350   24.8480   30.9140 C   0  0  0  0  0  0  0  0  0  0  0  0
   38.0120   25.3830   30.9010 C   0  0  0  0  0  0  0  0  0  0  0  0
   39.1130   24.7980   30.7360 O   0  0  0  0  0  0  0  0  0  0  0  0
   38.1960   26.7070   31.0870 N   0  0  0  0  0  0  0  0  0  0  0  0
   37.1240   27.5310   31.2930 C   0  0  0  0  0  0  0  0  0  0  0  0
   37.2060   28.7710   31.4780 O   0  0  0  0  0  0  0  0  0  0  0  0
   35.0300   27.6020   31.4600 H   0  0  0  0  0  0  0  0  0  0  0  0
   34.6880   25.2030   31.1180 H   0  0  0  0  0  0  0  0  0  0  0  0
   36.7160   23.4820   30.7070 O   0  0  0  0  0  0  0  0  0  0  0  0
   35.4720   20.8930   32.9190 C   0  0  0  0  0  0  0  0  0  0  0  0
   36.3220   21.0450   34.0220 C   0  0  0  0  0  0  0  0  0  0  0  0
   37.2790   22.0310   33.9500 C   0  0  0  0  0  0  0  0  0  0  0  0
   37.3410   22.7770   32.8400 N   0  0  0  0  0  0  0  0  0  0  0  0
   36.5250   22.6260   31.7890 C   0  0  0  0  0  0  0  0  0  0  0  0
   35.5840   21.6740   31.8330 N   0  0  0  0  0  0  0  0  0  0  0  0
   34.7430   20.1190   33.0110 H   0  0  0  0  0  0  0  0  0  0  0  0
   36.2560   20.4390   34.9000 H   0  0  0  0  0  0  0  0  0  0  0  0
   38.2190   22.3050   35.0270 C   0  0  0  0  0  0  0  0  0  0  0  0
   39.5790   22.0390   34.8740 C   0  0  0  0  0  0  0  0  0  0  0  0
   40.5010   22.2880   35.8610 C   0  0  0  0  0  0  0  0  0  0  0  0
   40.0810   22.8130   37.0380 N   0  0  0  0  0  0  0  0  0  0  0  0
   38.7730   23.0620   37.1660 C   0  0  0  0  0  0  0  0  0  0  0  0
   37.8480   22.8280   36.2150 N   0  0  0  0  0  0  0  0  0  0  0  0
   39.9740   21.6220   33.9650 H   0  0  0  0  0  0  0  0  0  0  0  0
   41.5560   22.0780   35.7350 H   0  0  0  0  0  0  0  0  0  0  0  0
   38.2830   23.6390   38.4450 C   0  0  0  0  0  0  0  0  0  0  0  0
   39.3690   23.6400   39.3510 F   0  0  0  0  0  0  0  0  0  0  0  0
   37.7880   24.8950   38.2730 F   0  0  0  0  0  0  0  0  0  0  0  0
   37.3260   22.8310   39.0380 F   0  0  0  0  0  0  0  0  0  0  0  0
   39.4710   27.3830   31.0370 C   0  0  0  0  0  2  0  0  0  0  0  0
   40.1870   27.4690   29.7990 C   0  0  0  0  0  0  0  0  0  0  0  0
   39.9320   27.9640   28.5890 C   0  0  0  0  0  0  0  0  0  0  0  0
   40.9070   27.9110   27.5310 N   0  0  0  0  0  0  0  0  0  0  0  0
   41.0980   27.5060   26.1740 C   0  0  0  0  0  0  0  0  0  0  0  0
   40.3530   27.3330   25.1720 O   0  0  0  0  0  0  0  0  0  0  0  0
   42.5630   27.4010   26.5440 C   0  0  0  0  0  3  0  0  0  0  0  0
   42.8880   26.4100   26.8670 H   0  0  0  0  0  0  0  0  0  0  0  0
   42.3050   28.3990   27.6520 C   0  0  2  0  0  3  0  0  0  0  0  0
   42.8300   27.9230   29.3060 S   0  0  0  0  0  0  0  0  0  0  0  0
   41.5160   26.8100   29.9360 C   0  0  0  0  0  3  0  0  0  0  0  0
   41.7650   26.4410   30.9290 H   0  0  0  0  0  0  0  0  0  0  0  0
   38.6220   28.5790   28.4150 C   0  0  0  0  0  0  0  0  0  0  0  0
   38.5700   29.5990   27.6880 O   0  0  0  0  0  0  0  0  0  0  0  0
   37.4040   29.1570   28.2470 O   0  0  0  0  0  0  0  0  0  0  0  0
   36.5610   28.6020   28.2250 H   0  0  0  0  0  0  0  0  0  0  0  0
  1  9  1  0  0  0  0
  2  1  1  0  0  0  0
  3  2  2  0  0  0  0
  4  3  1  0  0  0  0
  4  6  1  0  0  0  0
  5  4  2  0  0  0  0
  6  7  1  0  0  0  0
  7  1  1  0  0  0  0
  7  8  2  0  0  0  0
 10  2  1  0  0  0  0
 11  3  1  0  0  0  0
 11 16  1  0  0  0  0
 12 18  1  0  0  0  0
 12 13  1  0  0  0  0
 13 19  1  0  0  0  0
 14 13  2  0  0  0  0
 14 20  1  0  0  0  0
 15 14  1  0  0  0  0
 16 17  1  0  0  0  0
 16 15  2  0  0  0  0
 17 12  2  0  0  0  0
 20 25  1  0  0  0  0
 21 20  2  0  0  0  0
 21 22  1  0  0  0  0
 22 23  2  0  0  0  0
 23 24  1  0  0  0  0
 24 28  1  0  0  0  0
 25 24  2  0  0  0  0
 26 21  1  0  0  0  0
 27 22  1  0  0  0  0
 28 31  1  0  0  0  0
 28 29  1  0  0  0  0
 30 28  1  0  0  0  0
 32  6  1  0  0  0  0
 33 42  1  0  0  0  0
 33 32  1  0  0  0  0
 34 33  2  0  0  0  0
 35 40  1  0  0  0  0
 35 34  1  0  0  0  0
 36 38  1  0  0  0  0
 36 35  1  0  0  0  0
 37 36  2  0  0  0  0
 38 39  1  0  0  0  0
 40 38  1  6  0  0  0
 40 41  1  0  0  0  0
 41 42  1  0  0  0  0
 42 43  1  0  0  0  0
 44 34  1  0  0  0  0
 45 44  2  0  0  0  0
 46 44  1  0  0  0  0
 47 46  1  0  0  0  0
M  END
>  <minimizedAffinity>
-6.52112722

$$$$

 OpenBabel03272502283D

 47 51  0  0  1  0  0  0  0  0999 V2000
   36.3610   25.0950   30.5990 N   0  0  0  0  0  0  0  0  0  0  0  0
   35.6650   26.0910   31.1940 C   0  0  0  0  0  0  0  0  0  0  0  0
   36.2880   26.8390   32.1850 C   0  0  0  0  0  0  0  0  0  0  0  0
   37.5950   26.5450   32.5360 C   0  0  0  0  0  0  0  0  0  0  0  0
   38.3270   27.1000   33.3940 O   0  0  0  0  0  0  0  0  0  0  0  0
   38.2550   25.5410   31.9210 N   0  0  0  0  0  0  0  0  0  0  0  0
   37.6410   24.8080   30.9440 C   0  0  0  0  0  0  0  0  0  0  0  0
   38.1810   23.8610   30.3190 O   0  0  0  0  0  0  0  0  0  0  0  0
   35.8570   24.5590   29.8600 H   0  0  0  0  0  0  0  0  0  0  0  0
   34.6520   26.3750   30.9740 H   0  0  0  0  0  0  0  0  0  0  0  0
   35.7540   27.8890   32.9060 O   0  0  0  0  0  0  0  0  0  0  0  0
   36.1090   30.7670   30.7300 C   0  0  0  0  0  0  0  0  0  0  0  0
   36.0630   31.8160   31.6560 C   0  0  0  0  0  0  0  0  0  0  0  0
   35.9120   31.4820   32.9820 C   0  0  0  0  0  0  0  0  0  0  0  0
   35.8190   30.1860   33.3040 N   0  0  0  0  0  0  0  0  0  0  0  0
   35.8640   29.1870   32.4130 C   0  0  0  0  0  0  0  0  0  0  0  0
   36.0110   29.4840   31.1160 N   0  0  0  0  0  0  0  0  0  0  0  0
   36.2270   31.0640   29.7120 H   0  0  0  0  0  0  0  0  0  0  0  0
   36.1390   32.8460   31.3780 H   0  0  0  0  0  0  0  0  0  0  0  0
   35.8590   32.4700   34.0490 C   0  0  0  0  0  0  0  0  0  0  0  0
   36.6930   33.5880   34.0300 C   0  0  0  0  0  0  0  0  0  0  0  0
   36.6730   34.5480   35.0110 C   0  0  0  0  0  0  0  0  0  0  0  0
   35.8100   34.4120   36.0480 N   0  0  0  0  0  0  0  0  0  0  0  0
   35.0180   33.3340   36.0490 C   0  0  0  0  0  0  0  0  0  0  0  0
   35.0180   32.3780   35.1000 N   0  0  0  0  0  0  0  0  0  0  0  0
   37.3990   33.7520   33.2350 H   0  0  0  0  0  0  0  0  0  0  0  0
   37.3230   35.4130   34.9890 H   0  0  0  0  0  0  0  0  0  0  0  0
   34.0610   33.1580   37.1730 C   0  0  0  0  0  0  0  0  0  0  0  0
   34.0950   31.7950   37.5470 F   0  0  0  0  0  0  0  0  0  0  0  0
   34.3700   33.9620   38.2270 F   0  0  0  0  0  0  0  0  0  0  0  0
   32.7540   33.3840   36.7720 F   0  0  0  0  0  0  0  0  0  0  0  0
   39.5940   25.1090   32.2420 C   0  0  0  0  0  2  0  0  0  0  0  0
   39.8490   24.4280   33.4770 C   0  0  0  0  0  0  0  0  0  0  0  0
   40.6070   24.6570   34.5480 C   0  0  0  0  0  0  0  0  0  0  0  0
   40.6200   23.7560   35.6710 N   0  0  0  0  0  0  0  0  0  0  0  0
   41.4870   23.0020   36.5200 C   0  0  0  0  0  0  0  0  0  0  0  0
   42.6930   23.0850   36.8780 O   0  0  0  0  0  0  0  0  0  0  0  0
   40.2830   22.1120   36.7480 C   0  0  0  0  0  3  0  0  0  0  0  0
   40.2130   21.2500   36.0820 H   0  0  0  0  0  0  0  0  0  0  0  0
   39.4030   23.2910   36.3870 C   0  0  2  0  0  3  0  0  0  0  0  0
   38.1740   23.0180   35.1020 S   0  0  0  0  0  0  0  0  0  0  0  0
   39.0850   23.1490   33.5160 C   0  0  0  0  0  3  0  0  0  0  0  0
   38.4220   22.9640   32.6730 H   0  0  0  0  0  0  0  0  0  0  0  0
   41.3970   25.8820   34.5190 C   0  0  0  0  0  0  0  0  0  0  0  0
   42.6430   25.7490   34.5110 O   0  0  0  0  0  0  0  0  0  0  0  0
   42.1400   27.0190   34.4910 O   0  0  0  0  0  0  0  0  0  0  0  0
   41.8180   27.8420   34.0010 H   0  0  0  0  0  0  0  0  0  0  0  0
  1  7  1  0  0  0  0
  1  2  1  0  0  0  0
  2  3  2  0  0  0  0
  3  4  1  0  0  0  0
  3 11  1  0  0  0  0
  4  5  2  0  0  0  0
  6 32  1  0  0  0  0
  6  4  1  0  0  0  0
  7  6  1  0  0  0  0
  8  7  2  0  0  0  0
  9  1  1  0  0  0  0
 10  2  1  0  0  0  0
 12 17  2  0  0  0  0
 12 13  1  0  0  0  0
 13 14  2  0  0  0  0
 14 15  1  0  0  0  0
 14 20  1  0  0  0  0
 16 11  1  0  0  0  0
 16 15  2  0  0  0  0
 17 16  1  0  0  0  0
 18 12  1  0  0  0  0
 19 13  1  0  0  0  0
 20 25  1  0  0  0  0
 21 20  2  0  0  0  0
 21 22  1  0  0  0  0
 22 23  2  0  0  0  0
 23 24  1  0  0  0  0
 24 28  1  0  0  0  0
 25 24  2  0  0  0  0
 26 21  1  0  0  0  0
 27 22  1  0  0  0  0
 28 29  1  0  0  0  0
 28 30  1  0  0  0  0
 31 28  1  0  0  0  0
 32 33  1  0  0  0  0
 33 42  1  0  0  0  0
 33 34  2  0  0  0  0
 34 35  1  0  0  0  0
 35 40  1  0  0  0  0
 35 36  1  0  0  0  0
 36 38  1  0  0  0  0
 36 37  2  0  0  0  0
 39 38  1  0  0  0  0
 40 41  1  6  0  0  0
 40 38  1  0  0  0  0
 42 41  1  0  0  0  0
 43 42  1  0  0  0  0
 44 34  1  0  0  0  0
 45 44  2  0  0  0  0
 46 44  1  0  0  0  0
 47 46  1  0  0  0  0
M  END
>  <minimizedAffinity>
-6.51838303

$$$$

 OpenBabel03272502283D

 47 51  0  0  1  0  0  0  0  0999 V2000
   41.9550   25.4440   30.5740 N   0  0  0  0  0  0  0  0  0  0  0  0
   40.8120   25.8580   29.9810 C   0  0  0  0  0  0  0  0  0  0  0  0
   39.8410   26.4720   30.7620 C   0  0  0  0  0  0  0  0  0  0  0  0
   40.0680   26.6400   32.1180 C   0  0  0  0  0  0  0  0  0  0  0  0
   39.3250   27.1690   32.9840 O   0  0  0  0  0  0  0  0  0  0  0  0
   41.2200   26.2100   32.6730 N   0  0  0  0  0  0  0  0  0  0  0  0
   42.1760   25.6080   31.9020 C   0  0  0  0  0  0  0  0  0  0  0  0
   43.2760   25.1830   32.3350 O   0  0  0  0  0  0  0  0  0  0  0  0
   42.6580   24.9890   29.9510 H   0  0  0  0  0  0  0  0  0  0  0  0
   40.5680   25.7610   28.9380 H   0  0  0  0  0  0  0  0  0  0  0  0
   38.6170   26.9610   30.3510 O   0  0  0  0  0  0  0  0  0  0  0  0
   35.1940   26.0760   31.1570 C   0  0  0  0  0  0  0  0  0  0  0  0
   35.2920   24.6830   31.2670 C   0  0  0  0  0  0  0  0  0  0  0  0
   36.5300   24.1190   31.0590 C   0  0  0  0  0  0  0  0  0  0  0  0
   37.5550   24.9270   30.7660 N   0  0  0  0  0  0  0  0  0  0  0  0
   37.4550   26.2580   30.6620 C   0  0  0  0  0  0  0  0  0  0  0  0
   36.2630   26.8340   30.8610 N   0  0  0  0  0  0  0  0  0  0  0  0
   34.2200   26.4780   31.3250 H   0  0  0  0  0  0  0  0  0  0  0  0
   34.4590   24.0550   31.5030 H   0  0  0  0  0  0  0  0  0  0  0  0
   36.7750   22.6870   31.1530 C   0  0  0  0  0  0  0  0  0  0  0  0
   37.9750   22.1360   30.7050 C   0  0  0  0  0  0  0  0  0  0  0  0
   38.2510   20.7930   30.7800 C   0  0  0  0  0  0  0  0  0  0  0  0
   37.3230   19.9590   31.3100 N   0  0  0  0  0  0  0  0  0  0  0  0
   36.1780   20.5050   31.7340 C   0  0  0  0  0  0  0  0  0  0  0  0
   35.8820   21.8180   31.6720 N   0  0  0  0  0  0  0  0  0  0  0  0
   38.7500   22.7450   30.2750 H   0  0  0  0  0  0  0  0  0  0  0  0
   39.1850   20.3730   30.4310 H   0  0  0  0  0  0  0  0  0  0  0  0
   35.1420   19.6150   32.3200 C   0  0  0  0  0  0  0  0  0  0  0  0
   35.3180   19.6310   33.7240 F   0  0  0  0  0  0  0  0  0  0  0  0
   33.8860   20.0130   31.9800 F   0  0  0  0  0  0  0  0  0  0  0  0
   35.3350   18.2930   31.9530 F   0  0  0  0  0  0  0  0  0  0  0  0
   41.5410   26.2800   34.0790 C   0  0  0  0  0  2  0  0  0  0  0  0
   41.3430   25.1340   34.9150 C   0  0  0  0  0  0  0  0  0  0  0  0
   40.2860   24.4630   35.3700 C   0  0  0  0  0  0  0  0  0  0  0  0
   40.4310   23.2960   36.2000 N   0  0  0  0  0  0  0  0  0  0  0  0
   40.0140   22.7160   37.4380 C   0  0  0  0  0  0  0  0  0  0  0  0
   39.0180   22.8400   38.2000 O   0  0  0  0  0  0  0  0  0  0  0  0
   41.3050   21.9280   37.3580 C   0  0  0  0  0  3  0  0  0  0  0  0
   42.1540   22.3790   37.8760 H   0  0  0  0  0  0  0  0  0  0  0  0
   41.2760   22.1220   35.8570 C   0  0  2  0  0  3  0  0  0  0  0  0
   42.7570   22.8100   35.1030 S   0  0  0  0  0  0  0  0  0  0  0  0
   42.6580   24.6190   35.3880 C   0  0  0  0  0  3  0  0  0  0  0  0
   43.5380   25.1220   34.9900 H   0  0  0  0  0  0  0  0  0  0  0  0
   38.9830   24.9700   34.9550 C   0  0  0  0  0  0  0  0  0  0  0  0
   38.2810   24.2090   34.2480 O   0  0  0  0  0  0  0  0  0  0  0  0
   37.7670   25.4350   34.5670 O   0  0  0  0  0  0  0  0  0  0  0  0
   37.2270   26.0460   35.1620 H   0  0  0  0  0  0  0  0  0  0  0  0
  1  7  1  0  0  0  0
  2  1  1  0  0  0  0
  2  3  2  0  0  0  0
  3  4  1  0  0  0  0
  4  6  1  0  0  0  0
  4  5  2  0  0  0  0
  6 32  1  0  0  0  0
  7  8  2  0  0  0  0
  7  6  1  0  0  0  0
  9  1  1  0  0  0  0
 10  2  1  0  0  0  0
 11 16  1  0  0  0  0
 11  3  1  0  0  0  0
 12 13  1  0  0  0  0
 12 18  1  0  0  0  0
 13 19  1  0  0  0  0
 14 20  1  0  0  0  0
 14 13  2  0  0  0  0
 15 14  1  0  0  0  0
 16 15  2  0  0  0  0
 16 17  1  0  0  0  0
 17 12  2  0  0  0  0
 20 25  1  0  0  0  0
 21 22  1  0  0  0  0
 21 20  2  0  0  0  0
 22 23  2  0  0  0  0
 23 24  1  0  0  0  0
 24 28  1  0  0  0  0
 25 24  2  0  0  0  0
 26 21  1  0  0  0  0
 27 22  1  0  0  0  0
 28 29  1  0  0  0  0
 30 28  1  0  0  0  0
 31 28  1  0  0  0  0
 32 33  1  0  0  0  0
 33 34  2  0  0  0  0
 33 42  1  0  0  0  0
 34 35  1  0  0  0  0
 35 36  1  0  0  0  0
 36 37  2  0  0  0  0
 38 36  1  0  0  0  0
 38 39  1  0  0  0  0
 40 41  1  1  0  0  0
 40 35  1  0  0  0  0
 40 38  1  0  0  0  0
 41 42  1  0  0  0  0
 43 42  1  0  0  0  0
 44 34  1  0  0  0  0
 45 44  2  0  0  0  0
 46 44  1  0  0  0  0
 46 47  1  0  0  0  0
M  END
>  <minimizedAffinity>
-6.49146128

$$$$

 OpenBabel03272502283D

 47 51  0  0  1  0  0  0  0  0999 V2000
   35.8620   26.8970   31.5340 N   0  0  0  0  0  0  0  0  0  0  0  0
   35.3660   25.6530   31.3470 C   0  0  0  0  0  0  0  0  0  0  0  0
   36.2380   24.6340   30.9900 C   0  0  0  0  0  0  0  0  0  0  0  0
   37.5850   24.9170   30.8360 C   0  0  0  0  0  0  0  0  0  0  0  0
   38.5250   24.1430   30.5250 O   0  0  0  0  0  0  0  0  0  0  0  0
   38.0420   26.1720   31.0280 N   0  0  0  0  0  0  0  0  0  0  0  0
   37.1810   27.1740   31.3820 C   0  0  0  0  0  0  0  0  0  0  0  0
   37.5220   28.3660   31.5850 O   0  0  0  0  0  0  0  0  0  0  0  0
   35.1730   27.6330   31.8030 H   0  0  0  0  0  0  0  0  0  0  0  0
   34.3360   25.3610   31.4490 H   0  0  0  0  0  0  0  0  0  0  0  0
   35.9320   23.3080   30.7550 O   0  0  0  0  0  0  0  0  0  0  0  0
   35.2710   20.5060   32.9600 C   0  0  0  0  0  0  0  0  0  0  0  0
   36.2170   20.7250   33.9690 C   0  0  0  0  0  0  0  0  0  0  0  0
   37.0340   21.8250   33.8410 C   0  0  0  0  0  0  0  0  0  0  0  0
   36.8780   22.6110   32.7700 N   0  0  0  0  0  0  0  0  0  0  0  0
   35.9710   22.3960   31.8090 C   0  0  0  0  0  0  0  0  0  0  0  0
   35.1630   21.3330   31.9080 N   0  0  0  0  0  0  0  0  0  0  0  0
   34.6560   19.6440   33.0930 H   0  0  0  0  0  0  0  0  0  0  0  0
   36.3260   20.0840   34.8180 H   0  0  0  0  0  0  0  0  0  0  0  0
   38.0510   22.1760   34.8220 C   0  0  0  0  0  0  0  0  0  0  0  0
   39.4050   21.9720   34.5530 C   0  0  0  0  0  0  0  0  0  0  0  0
   40.3970   22.2940   35.4450 C   0  0  0  0  0  0  0  0  0  0  0  0
   40.0570   22.8330   36.6410 N   0  0  0  0  0  0  0  0  0  0  0  0
   38.7550   23.0220   36.8810 C   0  0  0  0  0  0  0  0  0  0  0  0
   37.7620   22.7150   36.0240 N   0  0  0  0  0  0  0  0  0  0  0  0
   39.7370   21.5470   33.6220 H   0  0  0  0  0  0  0  0  0  0  0  0
   41.4450   22.1330   35.2290 H   0  0  0  0  0  0  0  0  0  0  0  0
   38.3530   23.6120   38.1840 C   0  0  0  0  0  0  0  0  0  0  0  0
   38.0460   24.9740   37.9540 F   0  0  0  0  0  0  0  0  0  0  0  0
   37.2900   22.9580   38.7270 F   0  0  0  0  0  0  0  0  0  0  0  0
   39.4060   23.6330   39.0850 F   0  0  0  0  0  0  0  0  0  0  0  0
   39.4100   26.5960   30.8410 C   0  0  0  0  0  2  0  0  0  0  0  0
   40.4620   25.9620   31.5800 C   0  0  0  0  0  0  0  0  0  0  0  0
   40.5920   25.4660   32.8090 C   0  0  0  0  0  0  0  0  0  0  0  0
   41.8170   24.8530   33.2510 N   0  0  0  0  0  0  0  0  0  0  0  0
   42.7970   24.8780   34.2910 C   0  0  0  0  0  0  0  0  0  0  0  0
   42.8160   25.2290   35.5010 O   0  0  0  0  0  0  0  0  0  0  0  0
   43.7330   24.3020   33.2490 C   0  0  0  0  0  3  0  0  0  0  0  0
   44.3230   25.0390   32.7000 H   0  0  0  0  0  0  0  0  0  0  0  0
   42.5190   23.7630   32.5240 C   0  0  2  0  0  3  0  0  0  0  0  0
   42.3680   24.1830   30.7810 S   0  0  0  0  0  0  0  0  0  0  0  0
   41.6930   25.8880   30.7440 C   0  0  0  0  0  3  0  0  0  0  0  0
   41.5960   26.2440   29.7200 H   0  0  0  0  0  0  0  0  0  0  0  0
   39.4140   25.5620   33.6630 C   0  0  0  0  0  0  0  0  0  0  0  0
   39.6150   25.8140   34.8740 O   0  0  0  0  0  0  0  0  0  0  0  0
   38.3210   25.6540   34.4640 O   0  0  0  0  0  0  0  0  0  0  0  0
   37.4460   26.0190   34.1150 H   0  0  0  0  0  0  0  0  0  0  0  0
  1  9  1  0  0  0  0
  2 10  1  0  0  0  0
  2  1  1  0  0  0  0
  3  2  2  0  0  0  0
  4  3  1  0  0  0  0
  4  6  1  0  0  0  0
  5  4  2  0  0  0  0
  6  7  1  0  0  0  0
  7  1  1  0  0  0  0
  7  8  2  0  0  0  0
 11  3  1  0  0  0  0
 11 16  1  0  0  0  0
 12 18  1  0  0  0  0
 12 13  1  0  0  0  0
 13 19  1  0  0  0  0
 14 13  2  0  0  0  0
 14 20  1  0  0  0  0
 15 14  1  0  0  0  0
 16 17  1  0  0  0  0
 16 15  2  0  0  0  0
 17 12  2  0  0  0  0
 20 25  1  0  0  0  0
 21 20  2  0  0  0  0
 21 22  1  0  0  0  0
 22 23  2  0  0  0  0
 23 24  1  0  0  0  0
 24 28  1  0  0  0  0
 25 24  2  0  0  0  0
 26 21  1  0  0  0  0
 27 22  1  0  0  0  0
 28 30  1  0  0  0  0
 28 31  1  0  0  0  0
 29 28  1  0  0  0  0
 32  6  1  0  0  0  0
 32 33  1  0  0  0  0
 33 34  2  0  0  0  0
 34 35  1  0  0  0  0
 34 44  1  0  0  0  0
 35 36  1  0  0  0  0
 36 37  2  0  0  0  0
 38 36  1  0  0  0  0
 39 38  1  0  0  0  0
 40 41  1  6  0  0  0
 40 38  1  0  0  0  0
 40 35  1  0  0  0  0
 42 41  1  0  0  0  0
 42 33  1  0  0  0  0
 43 42  1  0  0  0  0
 44 46  1  0  0  0  0
 44 45  2  0  0  0  0
 47 46  1  0  0  0  0
M  END
>  <minimizedAffinity>
-6.4887867

$$$$

 OpenBabel03272502283D

 47 51  0  0  1  0  0  0  0  0999 V2000
   35.1370   26.1650   31.0100 N   0  0  0  0  0  0  0  0  0  0  0  0
   35.3110   24.8240   31.0380 C   0  0  0  0  0  0  0  0  0  0  0  0
   36.5810   24.3220   31.2880 C   0  0  0  0  0  0  0  0  0  0  0  0
   37.6290   25.2020   31.5000 C   0  0  0  0  0  0  0  0  0  0  0  0
   38.8360   24.9500   31.7430 O   0  0  0  0  0  0  0  0  0  0  0  0
   37.4160   26.5340   31.4610 N   0  0  0  0  0  0  0  0  0  0  0  0
   36.1640   27.0270   31.2170 C   0  0  0  0  0  0  0  0  0  0  0  0
   35.8770   28.2490   31.1680 O   0  0  0  0  0  0  0  0  0  0  0  0
   34.1680   26.5010   30.8200 H   0  0  0  0  0  0  0  0  0  0  0  0
   34.5470   24.0840   30.8830 H   0  0  0  0  0  0  0  0  0  0  0  0
   36.9620   22.9960   31.3570 O   0  0  0  0  0  0  0  0  0  0  0  0
   35.5340   20.6670   33.7400 C   0  0  0  0  0  0  0  0  0  0  0  0
   36.3110   20.9280   34.8760 C   0  0  0  0  0  0  0  0  0  0  0  0
   37.2870   21.8920   34.7650 C   0  0  0  0  0  0  0  0  0  0  0  0
   37.4330   22.5150   33.5900 N   0  0  0  0  0  0  0  0  0  0  0  0
   36.6870   22.2610   32.5080 C   0  0  0  0  0  0  0  0  0  0  0  0
   35.7290   21.3280   32.5880 N   0  0  0  0  0  0  0  0  0  0  0  0
   34.7870   19.9140   33.8640 H   0  0  0  0  0  0  0  0  0  0  0  0
   36.1770   20.4180   35.8060 H   0  0  0  0  0  0  0  0  0  0  0  0
   38.1580   22.2700   35.8680 C   0  0  0  0  0  0  0  0  0  0  0  0
   37.6820   23.0570   36.9170 C   0  0  0  0  0  0  0  0  0  0  0  0
   38.4660   23.4310   37.9800 C   0  0  0  0  0  0  0  0  0  0  0  0
   39.7590   23.0250   38.0200 N   0  0  0  0  0  0  0  0  0  0  0  0
   40.1970   22.2720   37.0060 C   0  0  0  0  0  0  0  0  0  0  0  0
   39.4500   21.8900   35.9520 N   0  0  0  0  0  0  0  0  0  0  0  0
   36.6670   23.4100   36.9420 H   0  0  0  0  0  0  0  0  0  0  0  0
   38.0900   24.0410   38.7910 H   0  0  0  0  0  0  0  0  0  0  0  0
   41.6100   21.8120   37.0230 C   0  0  0  0  0  0  0  0  0  0  0  0
   42.4290   22.9640   37.0570 F   0  0  0  0  0  0  0  0  0  0  0  0
   41.8620   21.0020   38.0870 F   0  0  0  0  0  0  0  0  0  0  0  0
   41.9530   21.1670   35.8460 F   0  0  0  0  0  0  0  0  0  0  0  0
   38.4380   27.5430   31.6100 C   0  0  0  0  0  2  0  0  0  0  0  0
   39.5420   27.5820   30.6970 C   0  0  0  0  0  0  0  0  0  0  0  0
   40.8680   27.5280   30.8090 C   0  0  0  0  0  0  0  0  0  0  0  0
   41.7260   27.5690   29.6540 N   0  0  0  0  0  0  0  0  0  0  0  0
   42.8520   28.2460   29.0920 C   0  0  0  0  0  0  0  0  0  0  0  0
   43.8330   28.8940   29.5470 O   0  0  0  0  0  0  0  0  0  0  0  0
   42.2890   27.8060   27.7560 C   0  0  0  0  0  3  0  0  0  0  0  0
   41.6330   28.5310   27.2710 H   0  0  0  0  0  0  0  0  0  0  0  0
   41.5920   26.6720   28.4770 C   0  0  2  0  0  3  0  0  0  0  0  0
   39.8210   26.5110   28.2050 S   0  0  0  0  0  0  0  0  0  0  0  0
   39.0410   27.7540   29.3050 C   0  0  0  0  0  3  0  0  0  0  0  0
   37.9590   27.7530   29.1840 H   0  0  0  0  0  0  0  0  0  0  0  0
   41.3880   27.4010   32.1650 C   0  0  0  0  0  0  0  0  0  0  0  0
   42.3810   28.1070   32.4570 O   0  0  0  0  0  0  0  0  0  0  0  0
   41.8770   27.2880   33.4280 O   0  0  0  0  0  0  0  0  0  0  0  0
   41.2660   27.1070   34.2110 H   0  0  0  0  0  0  0  0  0  0  0  0
  1  2  1  0  0  0  0
  1  7  1  0  0  0  0
  2  3  2  0  0  0  0
  3 11  1  0  0  0  0
  3  4  1  0  0  0  0
  4  5  2  0  0  0  0
  6  4  1  0  0  0  0
  6 32  1  0  0  0  0
  7  6  1  0  0  0  0
  8  7  2  0  0  0  0
  9  1  1  0  0  0  0
 10  2  1  0  0  0  0
 11 16  1  0  0  0  0
 12 18  1  0  0  0  0
 12 13  1  0  0  0  0
 13 19  1  0  0  0  0
 14 13  2  0  0  0  0
 14 20  1  0  0  0  0
 15 14  1  0  0  0  0
 16 17  1  0  0  0  0
 16 15  2  0  0  0  0
 17 12  2  0  0  0  0
 20 25  2  0  0  0  0
 20 21  1  0  0  0  0
 21 26  1  0  0  0  0
 21 22  2  0  0  0  0
 22 23  1  0  0  0  0
 22 27  1  0  0  0  0
 24 28  1  0  0  0  0
 24 23  2  0  0  0  0
 25 24  1  0  0  0  0
 28 29  1  0  0  0  0
 28 30  1  0  0  0  0
 31 28  1  0  0  0  0
 33 34  2  0  0  0  0
 33 32  1  0  0  0  0
 34 44  1  0  0  0  0
 35 34  1  0  0  0  0
 36 37  2  0  0  0  0
 36 35  1  0  0  0  0
 38 36  1  0  0  0  0
 39 38  1  0  0  0  0
 40 38  1  6  0  0  0
 40 35  1  0  0  0  0
 41 40  1  0  0  0  0
 41 42  1  0  0  0  0
 42 33  1  0  0  0  0
 43 42  1  0  0  0  0
 44 45  2  0  0  0  0
 44 46  1  0  0  0  0
 46 47  1  0  0  0  0
M  END
>  <minimizedAffinity>
-6.45087767

$$$$
