REMARK  Name = 
REMARK  10 active torsions:
REMARK  status: ('A' for Active; 'I' for Inactive)
REMARK    1  A    between atoms: C_1  and  C_7
REMARK    2  A    between atoms: C_5  and  S_15
REMARK    3  A    between atoms: C_7  and  C_10
REMARK    4  A    between atoms: S_15  and  C_16
REMARK    5  A    between atoms: C_16  and  C_19
REMARK    6  A    between atoms: C_17  and  O_22
REMARK    7  A    between atoms: O_22  and  C_37
REMARK    8  A    between atoms: C_37  and  C_38
REMARK    9  A    between atoms: C_39  and  C_40
REMARK   10  A    between atoms: C_40  and  O_42
REMARK                            x       y       z     vdW  Elec       q    Type
REMARK                         _______ _______ _______ _____ _____    ______ ____
ROOT
ATOM      1  C   UNL     1      38.780  29.785  42.352  0.00  0.00    +0.000 C 
ATOM      2  C   UNL     1      38.811  31.279  42.082  0.00  0.00    +0.000 C 
ATOM      3  C   UNL     1      39.939  31.724  42.970  0.00  0.00    +0.000 C 
ATOM      4  O   UNL     1      40.314  30.655  43.749  0.00  0.00    +0.000 OA
ATOM      5  C   UNL     1      39.253  29.756  43.785  0.00  0.00    +0.000 C 
ATOM      6  H   UNL     1      39.458  29.249  41.677  0.00  0.00    +0.000 HD
ATOM      7  H   UNL     1      37.837  31.760  42.329  0.00  0.00    +0.000 HD
ATOM      8  H   UNL     1      39.002  31.403  41.003  0.00  0.00    +0.000 HD
ATOM      9  H   UNL     1      40.750  32.066  42.286  0.00  0.00    +0.000 HD
ATOM     10  H   UNL     1      38.449  30.111  44.431  0.00  0.00    +0.000 HD
ATOM     11  H   UNL     1      39.632  28.748  44.053  0.00  0.00    +0.000 HD
ENDROOT
BRANCH   3  12
ATOM     12  C   UNL     1      39.555  32.932  43.792  0.00  0.00    +0.000 C 
ATOM     13  H   UNL     1      38.495  32.859  44.039  0.00  0.00    +0.000 HD
ATOM     14  H   UNL     1      39.687  33.880  43.203  0.00  0.00    +0.000 HD
BRANCH  12  15
ATOM     15  S   UNL     1      40.656  32.993  45.235  0.00  0.00    +0.000 S 
BRANCH  15  20
ATOM     16  C   UNL     1      37.769  31.744  47.656  0.00  0.00    +0.000 A 
ATOM     17  C   UNL     1      37.940  32.534  48.815  0.00  0.00    +0.000 A 
ATOM     18  C   UNL     1      38.939  33.468  48.889  0.00  0.00    +0.000 A 
ATOM     19  C   UNL     1      39.752  33.589  47.788  0.00  0.00    +0.000 A 
ATOM     20  C   UNL     1      39.580  32.825  46.678  0.00  0.00    +0.000 A 
ATOM     21  N   UNL     1      38.592  31.893  46.590  0.00  0.00    +0.000 NA
ATOM     22  H   UNL     1      37.275  32.406  49.663  0.00  0.00    +0.000 HD
ATOM     23  H   UNL     1      39.133  34.101  49.724  0.00  0.00    +0.000 HD
ATOM     24  H   UNL     1      40.571  34.303  47.753  0.00  0.00    +0.000 HD
BRANCH  16  25
ATOM     25  C   UNL     1      36.702  30.790  47.657  0.00  0.00    +0.000 C 
ATOM     26  O   UNL     1      36.205  30.390  46.597  0.00  0.00    +0.000 OA
BRANCH  25  28
ATOM     27  C   UNL     1      37.015  29.637  49.807  0.00  0.00    +0.000 A 
ATOM     28  C   UNL     1      36.137  30.233  48.895  0.00  0.00    +0.000 A 
ATOM     29  C   UNL     1      34.776  30.274  49.190  0.00  0.00    +0.000 A 
ATOM     30  N   UNL     1      34.341  29.728  50.371  0.00  0.00    +0.000 NA
ATOM     31  C   UNL     1      35.207  29.162  51.229  0.00  0.00    +0.000 A 
ATOM     32  N   UNL     1      36.517  29.116  50.956  0.00  0.00    +0.000 NA
ATOM     33  H   UNL     1      38.082  29.572  49.637  0.00  0.00    +0.000 HD
ATOM     34  H   UNL     1      34.103  30.739  48.474  0.00  0.00    +0.000 HD
ATOM     35  H   UNL     1      34.890  28.725  52.165  0.00  0.00    +0.000 HD
ENDBRANCH  25  28
ENDBRANCH  16  25
ENDBRANCH  15  20
ENDBRANCH  12  15
ENDBRANCH   3  12
BRANCH   1  36
ATOM     36  O   UNL     1      37.490  29.278  42.214  0.00  0.00    +0.000 OA
BRANCH  36  37
ATOM     37  C   UNL     1      37.536  28.245  41.239  0.00  0.00    +0.000 C 
BRANCH  37  38
ATOM     38  C   UNL     1      38.329  28.687  40.086  0.00  0.00    +0.000 C 
ATOM     39  C   UNL     1      39.420  28.049  39.698  0.00  0.00    +0.000 C 
ATOM     40  N   UNL     1      40.130  28.577  38.558  0.00  0.00    +0.000 N 
ATOM     41  C   UNL     1      41.377  28.751  37.931  0.00  0.00    +0.000 C 
ATOM     42  O   UNL     1      42.514  28.202  37.912  0.00  0.00    +0.000 OA
ATOM     43  C   UNL     1      40.875  29.929  37.209  0.00  0.00    +0.000 C 
ATOM     44  H   UNL     1      40.994  30.903  37.763  0.00  0.00    +0.000 HD
ATOM     45  C   UNL     1      39.531  29.275  37.440  0.00  0.00    +0.000 C 
ATOM     46  S   UNL     1      38.335  30.507  38.000  0.00  0.00    +0.000 S 
ATOM     47  C   UNL     1      37.688  29.880  39.547  0.00  0.00    +0.000 C 
ATOM     48  H   UNL     1      36.606  29.619  39.336  0.00  0.00    +0.000 HD
BRANCH  39  49
ATOM     49  C   UNL     1      39.986  26.853  40.326  0.00  0.00    +0.000 C 
ATOM     50  O   UNL     1      39.682  26.144  41.287  0.00  0.00    +0.000 OA
BRANCH  49  51
ATOM     51  O   UNL     1      41.126  26.244  39.861  0.00  0.00    +0.000 OA
ATOM     52  H   UNL     1      41.214  25.243  39.748  0.00  0.00    +0.000 HD
ENDBRANCH  49  51
ENDBRANCH  39  49
ENDBRANCH  37  38
ENDBRANCH  36  37
ENDBRANCH   1  36
TORSDOF 10
