REMARK  Name = 
REMARK  7 active torsions:
REMARK  status: ('A' for Active; 'I' for Inactive)
REMARK    1  A    between atoms: C_3  and  C_7
REMARK    2  A    between atoms: C_8  and  C_9
REMARK    3  A    between atoms: C_9  and  S_10
REMARK    4  A    between atoms: S_10  and  C_18
REMARK    5  A    between atoms: C_18  and  C_19
REMARK    6  A    between atoms: C_20  and  C_21
REMARK    7  A    between atoms: C_21  and  O_23
REMARK                            x       y       z     vdW  Elec       q    Type
REMARK                         _______ _______ _______ _____ _____    ______ ____
ROOT
ATOM      1  C   UNL     1      36.915  33.400  45.410  0.00  0.00    +0.000 C 
ENDROOT
BRANCH   1   2
ATOM      2  C   UNL     1      35.826  33.433  44.425  0.00  0.00    +0.000 C 
ATOM      3  C   UNL     1      35.607  32.659  43.395  0.00  0.00    +0.000 C 
ATOM      4  N   UNL     1      34.450  32.854  42.552  0.00  0.00    +0.000 N 
ATOM      5  C   UNL     1      33.948  32.864  41.222  0.00  0.00    +0.000 C 
ATOM      6  O   UNL     1      34.387  32.580  40.057  0.00  0.00    +0.000 OA
ATOM      7  C   UNL     1      32.635  33.357  41.703  0.00  0.00    +0.000 C 
ATOM      8  H   UNL     1      31.807  32.617  41.524  0.00  0.00    +0.000 HD
ATOM      9  C   UNL     1      33.137  33.197  43.121  0.00  0.00    +0.000 C 
ATOM     10  S   UNL     1      33.419  34.743  44.013  0.00  0.00    +0.000 S 
ATOM     11  C   UNL     1      34.993  34.587  44.865  0.00  0.00    +0.000 C 
ATOM     12  H   UNL     1      35.620  35.509  44.749  0.00  0.00    +0.000 HD
BRANCH   3  13
ATOM     13  C   UNL     1      36.468  31.516  43.003  0.00  0.00    +0.000 C 
ATOM     14  O   UNL     1      37.435  30.726  43.121  0.00  0.00    +0.000 OA
BRANCH  13  15
ATOM     15  O   UNL     1      36.300  30.718  41.912  0.00  0.00    +0.000 OA
ATOM     16  H   UNL     1      36.881  30.757  41.051  0.00  0.00    +0.000 HD
ENDBRANCH  13  15
ENDBRANCH   3  13
ENDBRANCH   1   2
BRANCH   1  17
ATOM     17  S   UNL     1      38.281  32.298  45.144  0.00  0.00    +0.000 S 
BRANCH  17  18
ATOM     18  C   UNL     1      39.456  32.508  46.559  0.00  0.00    +0.000 C 
ATOM     19  H   UNL     1      40.312  31.820  46.379  0.00  0.00    +0.000 HD
ATOM     20  H   UNL     1      39.752  33.548  46.685  0.00  0.00    +0.000 HD
BRANCH  18  22
ATOM     21  C   UNL     1      38.160  30.858  47.824  0.00  0.00    +0.000 C 
ATOM     22  C   UNL     1      38.777  32.009  47.791  0.00  0.00    +0.000 C 
BRANCH  21  25
ATOM     23  C   UNL     1      37.353  30.218  51.401  0.00  0.00    +0.000 A 
ATOM     24  C   UNL     1      38.000  30.720  50.254  0.00  0.00    +0.000 A 
ATOM     25  C   UNL     1      37.512  30.361  48.999  0.00  0.00    +0.000 A 
ATOM     26  N   UNL     1      36.431  29.543  48.901  0.00  0.00    +0.000 NA
ATOM     27  C   UNL     1      35.840  29.084  50.029  0.00  0.00    +0.000 A 
ATOM     28  N   UNL     1      36.289  29.412  51.270  0.00  0.00    +0.000 NA
ATOM     29  H   UNL     1      37.819  30.562  52.310  0.00  0.00    +0.000 HD
ATOM     30  H   UNL     1      38.856  31.369  50.301  0.00  0.00    +0.000 HD
ATOM     31  H   UNL     1      34.976  28.430  49.939  0.00  0.00    +0.000 HD
ENDBRANCH  21  25
ENDBRANCH  18  22
ENDBRANCH  17  18
ENDBRANCH   1  17
TORSDOF 7
