
     RDKit          3D

 42 45  0  0  0  0  0  0  0  0999 V2000
   36.6419   30.7285   47.5387 C   0  0  0  0  0  0  0  0  0  0  0  0
   36.0664   30.3423   46.4990 O   0  0  0  0  0  0  0  0  0  0  0  0
   36.9940   29.6461   49.7274 C   0  0  0  0  0  0  0  0  0  0  0  0
   36.1230   30.2049   48.8028 C   0  0  0  0  0  0  0  0  0  0  0  0
   34.7642   30.2374   49.1388 C   0  0  0  0  0  0  0  0  0  0  0  0
   34.3550   29.7319   50.3318 N   0  0  0  0  0  0  0  0  0  0  0  0
   35.2548   29.1944   51.2028 C   0  0  0  0  0  0  0  0  0  0  0  0
   36.5333   29.1557   50.9039 N   0  0  0  0  0  0  0  0  0  0  0  0
   37.7562   31.6421   47.4706 C   0  0  0  0  0  0  0  0  0  0  0  0
   37.9546   32.4603   48.5901 C   0  0  0  0  0  0  0  0  0  0  0  0
   38.9995   33.3582   48.5975 C   0  0  0  0  0  0  0  0  0  0  0  0
   39.7966   33.3889   47.4736 C   0  0  0  0  0  0  0  0  0  0  0  0
   39.5937   32.5876   46.3899 C   0  0  0  0  0  0  0  0  0  0  0  0
   38.5569   31.6993   46.3872 N   0  0  0  0  0  0  0  0  0  0  0  0
   40.6279   32.6194   44.9179 S   0  0  0  0  0  0  0  0  0  0  0  0
   38.0665   29.6025   49.5001 H   0  0  0  0  0  0  0  0  0  0  0  0
   34.0982   30.6764   48.4070 H   0  0  0  0  0  0  0  0  0  0  0  0
   34.7622   28.8344   52.1125 H   0  0  0  0  0  0  0  0  0  0  0  0
   37.3047   32.3965   49.4397 H   0  0  0  0  0  0  0  0  0  0  0  0
   39.2050   34.0154   49.4286 H   0  0  0  0  0  0  0  0  0  0  0  0
   40.6450   34.0503   47.3627 H   0  0  0  0  0  0  0  0  0  0  0  0
   39.8727   33.8569   43.7854 C   0  0  0  0  0  0  0  0  0  0  0  0
   38.4197   33.8501   44.0603 C   0  0  0  0  0  0  0  0  0  0  0  0
   37.5178   33.5641   43.1694 C   0  0  0  0  0  0  0  0  0  0  0  0
   37.8238   33.2073   41.7636 C   0  0  0  0  0  0  0  0  0  0  0  0
   38.8424   33.0730   41.0641 O   0  0  0  0  0  0  0  0  0  0  0  0
   36.8762   32.9087   40.8134 O   0  0  0  0  0  0  0  0  0  0  0  0
   36.1367   33.5594   43.4634 N   0  0  0  0  0  0  0  0  0  0  0  0
   34.7655   33.4856   43.0845 C   0  0  0  0  0  0  0  0  0  0  0  0
   34.0846   33.9431   42.1275 O   0  0  0  0  0  0  0  0  0  0  0  0
   34.6031   32.6449   44.3344 C   0  0  1  0  0  0  0  0  0  0  0  0
   33.5826   32.6604   44.7605 H   0  0  0  0  0  0  0  0  0  0  0  0
   35.5626   33.6728   44.8129 C   0  0  1  0  0  0  0  0  0  0  0  0
   36.7830   33.1888   46.0510 S   0  0  0  0  0  0  0  0  0  0  0  0
   38.1975   34.2148   45.4630 C   0  0  1  0  0  0  0  0  0  0  0  0
   39.0507   34.0719   46.1140 H   0  0  0  0  0  0  0  0  0  0  0  0
   40.1429   33.5541   42.7771 H   0  0  0  0  0  0  0  0  0  0  0  0
   40.3402   34.8355   44.0470 H   0  0  0  0  0  0  0  0  0  0  0  0
   36.8369   33.2167   39.8503 H   0  0  0  0  0  0  0  0  0  0  0  0
   35.0917   31.6707   44.2013 H   0  0  0  0  0  0  0  0  0  0  0  0
   35.0754   34.6575   44.9692 H   0  0  0  0  0  0  0  0  0  0  0  0
   37.8821   35.2842   45.5509 H   0  0  0  0  0  0  0  0  0  0  0  0
  1  4  1  0
  2  1  2  0
  3  8  2  0
  4  5  2  0
  4  3  1  0
  5  6  1  0
  6  7  2  0
  8  7  1  0
  9  1  1  0
  9 10  2  0
 10 11  1  0
 12 11  2  0
 13 14  2  0
 13 12  1  0
 14  9  1  0
 15 13  1  0
  3 16  1  0
  5 17  1  0
  7 18  1  0
 10 19  1  0
 11 20  1  0
 12 21  1  0
 22 23  1  0
 23 24  2  0
 24 25  1  0
 25 26  2  0
 25 27  1  0
 24 28  1  0
 28 29  1  0
 29 30  2  0
 29 31  1  0
 31 32  1  1
 31 33  1  0
 33 34  1  0
 34 35  1  0
 35 36  1  1
 35 23  1  0
 33 28  1  0
 22 37  1  0
 22 38  1  0
 27 39  1  0
 31 40  1  0
 33 41  1  1
 35 42  1  0
 15 22  1  0
M  ISO  8  16  14  17  14  18  14  19  14  20  14  21  14  32  15  36  15
M  END
>  <DihAtoms>  (1) 
12,14,21,22

>  <DihDeg>  (1) 
-179.9959480656615

$$$$
