
     RDKit          3D

 38 40  0  0  0  0  0  0  0  0999 V2000
   37.3532   30.2177   51.4013 C   0  0  0  0  0  0  0  0  0  0  0  0
   38.0002   30.7197   50.2544 C   0  0  0  0  0  0  0  0  0  0  0  0
   37.5118   30.3614   48.9994 C   0  0  0  0  0  0  0  0  0  0  0  0
   36.4309   29.5429   48.9015 N   0  0  0  0  0  0  0  0  0  0  0  0
   35.8398   29.0836   50.0285 C   0  0  0  0  0  0  0  0  0  0  0  0
   36.2889   29.4119   51.2696 N   0  0  0  0  0  0  0  0  0  0  0  0
   38.1600   30.8578   47.8236 C   0  0  0  0  0  0  0  0  0  0  0  0
   38.7767   32.0087   47.7910 C   0  0  0  0  0  0  0  0  0  0  0  0
   39.4564   32.5084   46.5592 C   0  0  0  0  0  0  0  0  0  0  0  0
   38.2810   32.2979   45.1435 S   0  0  0  0  0  0  0  0  0  0  0  0
   37.8185   30.5616   52.3099 H   0  0  0  0  0  0  0  0  0  0  0  0
   38.8561   31.3695   50.3009 H   0  0  0  0  0  0  0  0  0  0  0  0
   34.9763   28.4298   49.9394 H   0  0  0  0  0  0  0  0  0  0  0  0
   38.1311   30.2380   46.9184 H   0  0  0  0  0  0  0  0  0  0  0  0
   38.8038   32.6309   48.7010 H   0  0  0  0  0  0  0  0  0  0  0  0
   40.3122   31.8202   46.3792 H   0  0  0  0  0  0  0  0  0  0  0  0
   39.7519   33.5481   46.6849 H   0  0  0  0  0  0  0  0  0  0  0  0
   36.9147   33.3999   45.4097 C   0  0  0  0  0  0  0  0  0  0  0  0
   35.6853   33.2081   44.6300 C   0  0  0  0  0  0  0  0  0  0  0  0
   35.3506   32.2374   43.8228 C   0  0  0  0  0  0  0  0  0  0  0  0
   36.2008   31.0585   43.5259 C   0  0  0  0  0  0  0  0  0  0  0  0
   37.2160   30.3303   43.6358 O   0  0  0  0  0  0  0  0  0  0  0  0
   35.9076   30.0526   42.6551 O   0  0  0  0  0  0  0  0  0  0  0  0
   34.0668   32.2320   43.1599 N   0  0  0  0  0  0  0  0  0  0  0  0
   33.3626   31.9610   41.9552 C   0  0  0  0  0  0  0  0  0  0  0  0
   33.6284   31.4566   40.8121 O   0  0  0  0  0  0  0  0  0  0  0  0
   32.1157   32.5118   42.5393 C   0  0  2  0  0  0  0  0  0  0  0  0
   31.3119   31.7324   42.6477 H   0  0  0  0  0  0  0  0  0  0  0  0
   32.8422   32.6530   43.8583 C   0  0  2  0  0  0  0  0  0  0  0  0
   33.1751   34.3533   44.3715 S   0  0  0  0  0  0  0  0  0  0  0  0
   34.8693   34.4088   44.9672 C   0  0  2  0  0  0  0  0  0  0  0  0
   35.4184   35.3019   44.5705 H   0  0  0  0  0  0  0  0  0  0  0  0
   36.5988   33.3622   46.5043 H   0  0  0  0  0  0  0  0  0  0  0  0
   37.2631   34.4673   45.2575 H   0  0  0  0  0  0  0  0  0  0  0  0
   36.3437   29.9297   41.7194 H   0  0  0  0  0  0  0  0  0  0  0  0
   31.7699   33.4693   42.0933 H   0  0  0  0  0  0  0  0  0  0  0  0
   32.5485   31.9585   44.6417 H   0  0  0  0  0  0  0  0  0  0  0  0
   34.7771   34.5035   46.0941 H   0  0  0  0  0  0  0  0  0  0  0  0
  2  1  2  0
  3  2  1  0
  4  3  2  0
  4  5  1  0
  5  6  2  0
  6  1  1  0
  7  3  1  0
  8  7  2  0
  9  8  1  0
 10  9  1  0
  1 11  1  0
  2 12  1  0
  5 13  1  0
  7 14  1  0
  8 15  1  0
  9 16  1  0
  9 17  1  0
 18 19  1  0
 19 20  2  0
 20 21  1  0
 21 22  2  0
 21 23  1  0
 20 24  1  0
 24 25  1  0
 25 26  2  0
 25 27  1  0
 27 28  1  1
 27 29  1  0
 29 30  1  0
 30 31  1  0
 31 32  1  6
 31 19  1  0
 29 24  1  0
 18 33  1  0
 18 34  1  0
 23 35  1  0
 27 36  1  0
 29 37  1  1
 31 38  1  0
 10 18  1  0
M  ISO  7  11  14  12  14  13  14  16   8  17   8  28  15  32  15
M  END
>  <DihAtoms>  (1) 
8,9,17,18

>  <DihDeg>  (1) 
75.05576747105674

$$$$
