REMARK  Name = 
REMARK  6 active torsions:
REMARK  status: ('A' for Active; 'I' for Inactive)
REMARK    1  A    between atoms: C_1  and  C_8
REMARK    2  A    between atoms: C_4  and  O_13
REMARK    3  A    between atoms: O_13  and  C_14
REMARK    4  A    between atoms: N_17  and  C_19
REMARK    5  A    between atoms: C_19  and  C_20
REMARK    6  A    between atoms: C_20  and  C_33
REMARK                            x       y       z     vdW  Elec       q    Type
REMARK                         _______ _______ _______ _____ _____    ______ ____
ROOT
ATOM      1  C   UNL     1      38.368  31.266  48.637  0.00  0.00    +0.000 A 
ATOM      2  C   UNL     1      38.451  32.508  49.236  0.00  0.00    +0.000 A 
ATOM      3  C   UNL     1      39.053  33.364  48.325  0.00  0.00    +0.000 A 
ATOM      4  N   UNL     1      39.309  32.628  47.225  0.00  0.00    +0.000 N 
ATOM      5  N   UNL     1      38.908  31.404  47.411  0.00  0.00    +0.000 NA
ATOM      6  H   UNL     1      38.175  32.938  50.188  0.00  0.00    +0.000 HD
ATOM      7  H   UNL     1      39.309  34.425  48.387  0.00  0.00    +0.000 HD
ENDROOT
BRANCH   4   8
ATOM      8  C   UNL     1      39.941  33.119  46.005  0.00  0.00    +0.000 C 
ATOM      9  H   UNL     1      39.211  33.608  45.344  0.00  0.00    +0.000 HD
ATOM     10  H   UNL     1      40.638  33.935  46.328  0.00  0.00    +0.000 HD
BRANCH   8  11
ATOM     11  C   UNL     1      40.670  31.961  45.388  0.00  0.00    +0.000 C 
ATOM     12  H   UNL     1      39.911  31.202  45.124  0.00  0.00    +0.000 HD
ATOM     13  H   UNL     1      41.412  31.577  46.091  0.00  0.00    +0.000 HD
BRANCH  11  14
ATOM     14  C   UNL     1      41.370  32.377  44.095  0.00  0.00    +0.000 C 
ATOM     15  C   UNL     1      40.653  33.478  43.390  0.00  0.00    +0.000 C 
ATOM     16  H   UNL     1      39.706  33.673  43.977  0.00  0.00    +0.000 HD
ATOM     17  C   UNL     1      40.232  33.194  41.991  0.00  0.00    +0.000 C 
ATOM     18  H   UNL     1      40.306  34.111  41.376  0.00  0.00    +0.000 HD
ATOM     19  O   UNL     1      41.002  32.237  41.333  0.00  0.00    +0.000 OA
ATOM     20  C   UNL     1      40.784  31.042  42.056  0.00  0.00    +0.000 C 
ATOM     21  H   UNL     1      41.092  30.162  41.485  0.00  0.00    +0.000 HD
ATOM     22  C   UNL     1      41.675  31.170  43.276  0.00  0.00    +0.000 C 
ATOM     23  H   UNL     1      41.510  30.268  43.883  0.00  0.00    +0.000 HD
ENDBRANCH  11  14
ENDBRANCH   8  11
ENDBRANCH   4   8
BRANCH   1  24
ATOM     24  O   UNL     1      37.782  30.289  49.433  0.00  0.00    +0.000 OA
BRANCH  24  28
ATOM     25  C   UNL     1      34.002  28.817  48.280  0.00  0.00    +0.000 A 
ATOM     26  C   UNL     1      34.622  28.380  49.411  0.00  0.00    +0.000 A 
ATOM     27  C   UNL     1      35.854  28.810  49.858  0.00  0.00    +0.000 A 
ATOM     28  C   UNL     1      36.541  29.744  49.141  0.00  0.00    +0.000 A 
ATOM     29  C   UNL     1      35.918  30.200  47.980  0.00  0.00    +0.000 A 
ATOM     30  N   UNL     1      34.713  29.746  47.590  0.00  0.00    +0.000 NA
ATOM     31  H   UNL     1      34.154  27.637  50.047  0.00  0.00    +0.000 HD
ATOM     32  H   UNL     1      36.335  28.453  50.760  0.00  0.00    +0.000 HD
ATOM     33  H   UNL     1      36.326  30.940  47.296  0.00  0.00    +0.000 HD
BRANCH  25  35
ATOM     34  C   UNL     1      31.894  27.515  48.564  0.00  0.00    +0.000 A 
ATOM     35  C   UNL     1      32.732  28.363  47.836  0.00  0.00    +0.000 A 
ATOM     36  C   UNL     1      32.262  28.764  46.610  0.00  0.00    +0.000 A 
ATOM     37  N   UNL     1      31.041  28.341  46.157  0.00  0.00    +0.000 NA
ATOM     38  C   UNL     1      30.276  27.518  46.913  0.00  0.00    +0.000 A 
ATOM     39  N   UNL     1      30.691  27.087  48.138  0.00  0.00    +0.000 NA
ATOM     40  H   UNL     1      32.222  27.174  49.534  0.00  0.00    +0.000 HD
ATOM     41  H   UNL     1      32.797  29.419  45.933  0.00  0.00    +0.000 HD
ATOM     42  H   UNL     1      29.311  27.153  46.611  0.00  0.00    +0.000 HD
ENDBRANCH  25  35
ENDBRANCH  24  28
ENDBRANCH   1  24
TORSDOF 6
