
 OpenBabel03272503053D

 33 35  0  0  0  0  0  0  0  0999 V2000
   38.4930   30.4540   47.2960 F   0  0  0  0  0  0  0  0  0  0  0  0
   38.7730   31.6800   47.7820 C   0  0  0  0  0  0  0  0  0  0  0  0
   38.2090   32.0910   48.9680 C   0  0  0  0  0  0  0  0  0  0  0  0
   38.5310   33.3500   49.4140 C   0  0  0  0  0  0  0  0  0  0  0  0
   39.3810   34.1860   48.7220 C   0  0  0  0  0  0  0  0  0  0  0  0
   39.9340   33.7590   47.5420 C   0  0  0  0  0  0  0  0  0  0  0  0
   39.6280   32.4950   47.0670 C   0  0  0  0  0  0  0  0  0  0  0  0
   38.0790   33.6560   50.3490 H   0  0  0  0  0  0  0  0  0  0  0  0
   39.6090   35.1720   49.1110 H   0  0  0  0  0  0  0  0  0  0  0  0
   40.6060   34.4010   46.9800 H   0  0  0  0  0  0  0  0  0  0  0  0
   36.8150   29.5780   51.4370 C   0  0  0  0  0  0  0  0  0  0  0  0
   37.6970   30.4620   50.8000 C   0  0  0  0  0  0  0  0  0  0  0  0
   37.3180   31.1630   49.6550 C   0  0  0  0  0  0  0  0  0  0  0  0
   36.0470   30.9410   49.1940 N   0  0  0  0  0  0  0  0  0  0  0  0
   35.2120   30.0840   49.8230 C   0  0  0  0  0  0  0  0  0  0  0  0
   35.5910   29.4210   50.9170 N   0  0  0  0  0  0  0  0  0  0  0  0
   37.2430   29.1040   52.3120 H   0  0  0  0  0  0  0  0  0  0  0  0
   38.7160   30.6690   51.1320 H   0  0  0  0  0  0  0  0  0  0  0  0
   34.2150   29.9490   49.4090 H   0  0  0  0  0  0  0  0  0  0  0  0
   39.3600   32.2310   44.6870 C   0  0  0  0  0  0  0  0  0  0  0  0
   38.2550   32.8150   44.9380 O   0  0  0  0  0  0  0  0  0  0  0  0
   40.1800   32.0000   45.8340 N   0  0  0  0  0  0  0  0  0  0  0  0
   41.0980   31.5130   45.7760 H   0  0  0  0  0  0  0  0  0  0  0  0
   39.9060   31.7630   43.3860 C   0  0  0  0  0  3  0  0  0  0  0  0
   38.9240   31.9010   42.2610 C   0  0  0  0  0  3  0  0  0  0  0  0
   38.4720   32.8920   42.2500 H   0  0  0  0  0  0  0  0  0  0  0  0
   39.7180   31.5830   40.9900 C   0  0  0  0  0  3  0  0  0  0  0  0
   40.7180   32.0890   41.1060 H   0  0  0  0  0  0  0  0  0  0  0  0
   40.0090   30.2210   41.0480 O   0  0  0  0  0  0  0  0  0  0  0  0
   40.8950   29.9650   42.0720 C   0  0  0  0  0  3  0  0  0  0  0  0
   41.8120   30.6110   41.9640 H   0  0  0  0  0  0  0  0  0  0  0  0
   40.2820   30.2810   43.4230 C   0  0  0  0  0  3  0  0  0  0  0  0
   39.3560   29.6450   43.5150 H   0  0  0  0  0  0  0  0  0  0  0  0
  1  2  1  0  0  0  0
  2  3  1  0  0  0  0
  3  4  2  0  0  0  0
  3 13  1  0  0  0  0
  4  8  1  0  0  0  0
  5  9  1  0  0  0  0
  5  4  1  0  0  0  0
  6  5  2  0  0  0  0
  7  6  1  0  0  0  0
  7  2  2  0  0  0  0
 10  6  1  0  0  0  0
 11 17  1  0  0  0  0
 12 18  1  0  0  0  0
 12 11  2  0  0  0  0
 13 12  1  0  0  0  0
 14 13  2  0  0  0  0
 14 15  1  0  0  0  0
 15 16  2  0  0  0  0
 16 11  1  0  0  0  0
 19 15  1  0  0  0  0
 20 21  2  0  0  0  0
 20 22  1  0  0  0  0
 22  7  1  0  0  0  0
 23 22  1  0  0  0  0
 24 32  1  0  0  0  0
 24 20  1  0  0  0  0
 25 24  1  0  0  0  0
 26 25  1  0  0  0  0
 27 29  1  0  0  0  0
 27 28  1  0  0  0  0
 27 25  1  0  0  0  0
 29 30  1  0  0  0  0
 30 32  1  0  0  0  0
 31 30  1  0  0  0  0
 32 33  1  0  0  0  0
M  END
>  <minimizedAffinity>
-6.60086536

>  <minimizedRMSD>
0.279260784

$$$$
