
 OpenBabel03272504413D

 46 48  0  0  0  0  0  0  0  0999 V2000
   34.7940   29.4080   48.8420 C   0  0  0  0  0  0  0  0  0  0  0  0
   34.1590   30.2230   49.2880 H   0  0  0  0  0  0  0  0  0  0  0  0
   35.7160   29.4330   49.4940 H   0  0  0  0  0  0  0  0  0  0  0  0
   37.5480   30.4650   48.5330 Cl  0  0  0  0  0  0  0  0  0  0  0  0
   36.4000   30.3000   47.1940 C   0  0  0  0  0  0  0  0  0  0  0  0
   36.7810   30.6700   45.9510 C   0  0  0  0  0  0  0  0  0  0  0  0
   35.8980   30.5470   44.9030 C   0  0  0  0  0  0  0  0  0  0  0  0
   34.6330   30.0430   45.1610 C   0  0  0  0  0  0  0  0  0  0  0  0
   34.3080   29.6800   46.4730 C   0  0  0  0  0  0  0  0  0  0  0  0
   35.1630   29.7940   47.5100 C   0  0  0  0  0  0  0  0  0  0  0  0
   36.2210   30.8520   43.9050 H   0  0  0  0  0  0  0  0  0  0  0  0
   34.0070   29.9800   44.2910 H   0  0  0  0  0  0  0  0  0  0  0  0
   33.3300   29.3220   46.4930 H   0  0  0  0  0  0  0  0  0  0  0  0
   39.7660   32.8320   45.9890 C   0  0  0  0  0  0  0  0  0  0  0  0
   40.6340   32.1130   45.1170 C   0  0  0  0  0  0  0  0  0  0  0  0
   40.1610   30.9100   44.5470 C   0  0  0  0  0  0  0  0  0  0  0  0
   38.9070   30.4930   44.8550 N   0  0  0  0  0  0  0  0  0  0  0  0
   38.1090   31.2030   45.6890 C   0  0  0  0  0  0  0  0  0  0  0  0
   38.5400   32.3510   46.2410 N   0  0  0  0  0  0  0  0  0  0  0  0
   40.1320   33.7540   46.4250 H   0  0  0  0  0  0  0  0  0  0  0  0
   41.6080   32.5540   44.9560 H   0  0  0  0  0  0  0  0  0  0  0  0
   41.0330   30.2270   43.6970 N   0  0  0  0  0  0  0  0  0  0  0  0
   41.5970   30.6580   42.9590 H   0  0  0  0  0  0  0  0  0  0  0  0
   41.1360   29.1890   43.8010 H   0  0  0  0  0  0  0  0  0  0  0  0
   34.1200   28.1160   49.0610 C   0  0  0  0  0  0  0  0  0  0  0  0
   34.5450   27.5510   49.9240 H   0  0  0  0  0  0  0  0  0  0  0  0
   34.2880   27.4630   48.1700 H   0  0  0  0  0  0  0  0  0  0  0  0
   32.7870   28.2880   49.3270 O   0  0  0  0  0  0  0  0  0  0  0  0
   32.6790   26.5120   47.3930 O   0  0  0  0  0  0  0  0  0  0  0  0
   31.8430   27.4050   48.2560 P   0  0  2  0  0  0  0  0  0  0  0  0
   31.0070   28.5520   47.2760 O   0  0  0  0  0  0  0  0  0  0  0  0
   30.8690   28.0130   45.9990 C   0  0  0  0  0  3  0  0  0  0  0  0
   29.6070   27.2270   45.7720 C   0  0  0  0  0  3  0  0  0  0  0  0
   29.6990   26.7650   44.7550 H   0  0  0  0  0  0  0  0  0  0  0  0
   28.3860   28.1000   45.7280 C   0  0  0  0  0  3  0  0  0  0  0  0
   27.6110   27.5060   45.1520 H   0  0  0  0  0  0  0  0  0  0  0  0
   28.6110   29.2750   45.0090 O   0  0  0  0  0  0  0  0  0  0  0  0
   29.6860   29.1550   44.1500 C   0  0  0  0  0  3  0  0  0  0  0  0
   29.5070   28.2920   43.4850 H   0  0  0  0  0  0  0  0  0  0  0  0
   30.9600   29.0560   44.9380 C   0  0  0  0  0  3  0  0  0  0  0  0
   31.8500   28.9110   44.2820 H   0  0  0  0  0  0  0  0  0  0  0  0
   30.6720   26.5170   49.0270 O   0  0  0  0  0  0  0  0  0  0  0  0
   29.8320   27.3160   49.7710 C   0  0  0  0  0  0  0  0  0  0  0  0
   29.3000   26.6490   50.8750 F   0  0  0  0  0  0  0  0  0  0  0  0
   30.5040   28.4220   50.2750 F   0  0  0  0  0  0  0  0  0  0  0  0
   28.7870   27.7670   49.0060 F   0  0  0  0  0  0  0  0  0  0  0  0
  1 25  1  0  0  0  0
  1  2  1  0  0  0  0
  1  3  1  0  0  0  0
  5 10  1  0  0  0  0
  5  4  1  0  0  0  0
  6  5  2  0  0  0  0
  7  8  2  0  0  0  0
  7  6  1  0  0  0  0
  8  9  1  0  0  0  0
  9 13  1  0  0  0  0
  9 10  2  0  0  0  0
 10  1  1  0  0  0  0
 11  7  1  0  0  0  0
 12  8  1  0  0  0  0
 14 19  1  0  0  0  0
 14 20  1  0  0  0  0
 15 14  2  0  0  0  0
 16 17  2  0  0  0  0
 16 15  1  0  0  0  0
 17 18  1  0  0  0  0
 18  6  1  0  0  0  0
 18 19  2  0  0  0  0
 21 15  1  0  0  0  0
 22 24  1  0  0  0  0
 22 16  1  0  0  0  0
 23 22  1  0  0  0  0
 25 28  1  0  0  0  0
 25 26  1  0  0  0  0
 27 25  1  0  0  0  0
 30 29  2  6  0  0  0
 30 42  1  0  0  0  0
 30 28  1  0  0  0  0
 31 30  1  0  0  0  0
 32 31  1  0  0  0  0
 33 32  1  0  0  0  0
 34 33  1  0  0  0  0
 35 33  1  0  0  0  0
 36 35  1  0  0  0  0
 37 35  1  0  0  0  0
 38 40  1  0  0  0  0
 38 37  1  0  0  0  0
 39 38  1  0  0  0  0
 40 32  1  0  0  0  0
 41 40  1  0  0  0  0
 42 43  1  0  0  0  0
 43 45  1  0  0  0  0
 43 44  1  0  0  0  0
 46 43  1  0  0  0  0
M  END
>  <minimizedAffinity>
-5.75377417

>  <minimizedRMSD>
0.329834163

$$$$
