
 OpenBabel03272504413D

 46 48  0  0  0  0  0  0  0  0999 V2000
   34.8420   29.3790   48.8500 C   0  0  0  0  0  0  0  0  0  0  0  0
   34.2300   30.1980   49.3200 H   0  0  0  0  0  0  0  0  0  0  0  0
   35.7730   29.3730   49.4900 H   0  0  0  0  0  0  0  0  0  0  0  0
   37.5970   30.4330   48.5350 Cl  0  0  0  0  0  0  0  0  0  0  0  0
   36.4380   30.2910   47.2020 C   0  0  0  0  0  0  0  0  0  0  0  0
   36.8100   30.6780   45.9620 C   0  0  0  0  0  0  0  0  0  0  0  0
   35.9190   30.5730   44.9190 C   0  0  0  0  0  0  0  0  0  0  0  0
   34.6550   30.0680   45.1800 C   0  0  0  0  0  0  0  0  0  0  0  0
   34.3390   29.6870   46.4890 C   0  0  0  0  0  0  0  0  0  0  0  0
   35.2020   29.7830   47.5200 C   0  0  0  0  0  0  0  0  0  0  0  0
   36.2360   30.8900   43.9240 H   0  0  0  0  0  0  0  0  0  0  0  0
   34.0210   30.0190   44.3130 H   0  0  0  0  0  0  0  0  0  0  0  0
   33.3600   29.3310   46.5120 H   0  0  0  0  0  0  0  0  0  0  0  0
   39.7950   32.8390   45.9960 C   0  0  0  0  0  0  0  0  0  0  0  0
   40.6620   32.1210   45.1210 C   0  0  0  0  0  0  0  0  0  0  0  0
   40.1870   30.9180   44.5500 C   0  0  0  0  0  0  0  0  0  0  0  0
   38.9340   30.5020   44.8610 N   0  0  0  0  0  0  0  0  0  0  0  0
   38.1380   31.2110   45.6970 C   0  0  0  0  0  0  0  0  0  0  0  0
   38.5710   32.3580   46.2500 N   0  0  0  0  0  0  0  0  0  0  0  0
   40.1630   33.7600   46.4320 H   0  0  0  0  0  0  0  0  0  0  0  0
   41.6350   32.5620   44.9580 H   0  0  0  0  0  0  0  0  0  0  0  0
   41.0570   30.2360   43.6980 N   0  0  0  0  0  0  0  0  0  0  0  0
   41.6190   30.6680   42.9580 H   0  0  0  0  0  0  0  0  0  0  0  0
   41.1600   29.1980   43.8010 H   0  0  0  0  0  0  0  0  0  0  0  0
   34.1440   28.0970   49.0530 C   0  0  0  0  0  0  0  0  0  0  0  0
   34.5650   27.5090   49.9020 H   0  0  0  0  0  0  0  0  0  0  0  0
   34.2920   27.4560   48.1500 H   0  0  0  0  0  0  0  0  0  0  0  0
   32.8170   28.2910   49.3330 O   0  0  0  0  0  0  0  0  0  0  0  0
   32.6610   26.6000   47.3270 O   0  0  0  0  0  0  0  0  0  0  0  0
   31.8470   27.4590   48.2450 P   0  0  2  0  0  0  0  0  0  0  0  0
   30.9970   28.6500   47.3320 O   0  0  0  0  0  0  0  0  0  0  0  0
   30.8770   28.1910   46.0230 C   0  0  0  0  0  3  0  0  0  0  0  0
   29.6210   27.4170   45.7310 C   0  0  0  0  0  3  0  0  0  0  0  0
   29.7270   27.0180   44.6890 H   0  0  0  0  0  0  0  0  0  0  0  0
   28.3980   28.2880   45.7260 C   0  0  0  0  0  3  0  0  0  0  0  0
   27.6320   27.7270   45.1050 H   0  0  0  0  0  0  0  0  0  0  0  0
   28.6270   29.5050   45.0830 O   0  0  0  0  0  0  0  0  0  0  0  0
   29.7130   29.4410   44.2330 C   0  0  0  0  0  3  0  0  0  0  0  0
   29.5460   28.6210   43.5130 H   0  0  0  0  0  0  0  0  0  0  0  0
   30.9780   29.2980   45.0300 C   0  0  0  0  0  3  0  0  0  0  0  0
   31.8760   29.1950   44.3770 H   0  0  0  0  0  0  0  0  0  0  0  0
   30.6880   26.5430   49.0010 O   0  0  0  0  0  0  0  0  0  0  0  0
   29.8360   27.3200   49.7550 C   0  0  0  0  0  0  0  0  0  0  0  0
   29.3090   26.6270   50.8470 F   0  0  0  0  0  0  0  0  0  0  0  0
   30.4920   28.4250   50.2790 F   0  0  0  0  0  0  0  0  0  0  0  0
   28.7870   27.7700   48.9950 F   0  0  0  0  0  0  0  0  0  0  0  0
  1 25  1  0  0  0  0
  1  2  1  0  0  0  0
  1  3  1  0  0  0  0
  5 10  1  0  0  0  0
  5  4  1  0  0  0  0
  6  5  2  0  0  0  0
  7  8  2  0  0  0  0
  7  6  1  0  0  0  0
  8  9  1  0  0  0  0
  9 13  1  0  0  0  0
  9 10  2  0  0  0  0
 10  1  1  0  0  0  0
 11  7  1  0  0  0  0
 12  8  1  0  0  0  0
 14 19  1  0  0  0  0
 14 20  1  0  0  0  0
 15 14  2  0  0  0  0
 16 17  2  0  0  0  0
 16 15  1  0  0  0  0
 17 18  1  0  0  0  0
 18  6  1  0  0  0  0
 18 19  2  0  0  0  0
 21 15  1  0  0  0  0
 22 24  1  0  0  0  0
 22 16  1  0  0  0  0
 23 22  1  0  0  0  0
 25 28  1  0  0  0  0
 25 26  1  0  0  0  0
 27 25  1  0  0  0  0
 30 29  2  6  0  0  0
 30 42  1  0  0  0  0
 30 28  1  0  0  0  0
 31 30  1  0  0  0  0
 32 31  1  0  0  0  0
 33 32  1  0  0  0  0
 34 33  1  0  0  0  0
 35 33  1  0  0  0  0
 36 35  1  0  0  0  0
 37 35  1  0  0  0  0
 38 40  1  0  0  0  0
 38 37  1  0  0  0  0
 39 38  1  0  0  0  0
 40 32  1  0  0  0  0
 41 40  1  0  0  0  0
 42 43  1  0  0  0  0
 43 45  1  0  0  0  0
 43 44  1  0  0  0  0
 46 43  1  0  0  0  0
M  END
>  <minimizedAffinity>
-5.74469948

>  <minimizedRMSD>
0.177807823

$$$$
