
 OpenBabel03272507423D

 42 45  0  0  0  0  0  0  0  0999 V2000
   36.6290   31.1850   50.0880 C   0  0  0  0  0  0  0  0  0  0  0  0
   35.5530   30.3280   49.8750 C   0  0  0  0  0  0  0  0  0  0  0  0
   35.3590   29.2270   50.6810 C   0  0  0  0  0  0  0  0  0  0  0  0
   36.2540   29.0150   51.6830 N   0  0  0  0  0  0  0  0  0  0  0  0
   37.3010   29.8610   51.8800 C   0  0  0  0  0  0  0  0  0  0  0  0
   37.4700   30.9150   51.0920 N   0  0  0  0  0  0  0  0  0  0  0  0
   34.5470   28.5200   50.5730 H   0  0  0  0  0  0  0  0  0  0  0  0
   37.9920   29.6500   52.6970 H   0  0  0  0  0  0  0  0  0  0  0  0
   34.2410   29.3350   48.0570 C   0  0  0  0  0  0  0  0  0  0  0  0
   34.7260   28.1410   47.9530 O   0  0  0  0  0  0  0  0  0  0  0  0
   34.5850   30.4670   48.8690 N   0  0  0  0  0  0  0  0  0  0  0  0
   34.0400   31.3190   48.6010 H   0  0  0  0  0  0  0  0  0  0  0  0
   33.1200   29.3550   47.0710 C   0  0  0  0  0  3  0  0  0  0  0  0
   33.1490   28.0870   46.2970 C   0  0  0  0  0  3  0  0  0  0  0  0
   32.6720   27.2400   46.8730 H   0  0  0  0  0  0  0  0  0  0  0  0
   32.4120   28.1440   44.9850 C   0  0  0  0  0  3  0  0  0  0  0  0
   33.1420   28.1660   44.1420 H   0  0  0  0  0  0  0  0  0  0  0  0
   31.6780   29.3250   44.8480 O   0  0  0  0  0  0  0  0  0  0  0  0
   32.6580   30.3390   44.8030 C   0  0  0  0  0  3  0  0  0  0  0  0
   32.2460   31.2710   44.3690 H   0  0  0  0  0  0  0  0  0  0  0  0
   33.0100   30.6030   46.2700 C   0  0  0  0  0  3  0  0  0  0  0  0
   33.8990   31.2540   46.2570 H   0  0  0  0  0  0  0  0  0  0  0  0
   36.6570   32.2050   49.2010 O   0  0  0  0  0  0  0  0  0  0  0  0
   38.1860   32.1550   47.2470 C   0  0  0  0  0  0  0  0  0  0  0  0
   37.7890   32.6050   48.4930 C   0  0  0  0  0  0  0  0  0  0  0  0
   38.5480   33.5540   49.1640 C   0  0  0  0  0  0  0  0  0  0  0  0
   39.7060   34.0430   48.5720 C   0  0  0  0  0  0  0  0  0  0  0  0
   40.0940   33.5860   47.3280 C   0  0  0  0  0  0  0  0  0  0  0  0
   39.3180   32.6510   46.6990 C   0  0  0  0  0  0  0  0  0  0  0  0
   38.2930   33.9480   50.1390 H   0  0  0  0  0  0  0  0  0  0  0  0
   40.2950   34.7800   49.0950 H   0  0  0  0  0  0  0  0  0  0  0  0
   40.9890   33.9450   46.8390 H   0  0  0  0  0  0  0  0  0  0  0  0
   39.7430   32.1650   45.3610 C   0  0  0  0  0  0  0  0  0  0  0  0
   40.5720   31.1370   45.0340 C   0  0  0  0  0  0  0  0  0  0  0  0
   40.6670   31.0680   43.6500 C   0  0  0  0  0  0  0  0  0  0  0  0
   39.8660   32.0890   43.2120 C   0  0  0  0  0  0  0  0  0  0  0  0
   39.3220   32.7340   44.2420 O   0  0  0  0  0  0  0  0  0  0  0  0
   41.0710   30.4840   45.7390 H   0  0  0  0  0  0  0  0  0  0  0  0
   41.2420   30.3680   43.0370 H   0  0  0  0  0  0  0  0  0  0  0  0
   39.6780   32.3620   42.1650 H   0  0  0  0  0  0  0  0  0  0  0  0
   36.6800   30.4070   46.1140 N   0  0  0  0  0  0  0  0  0  0  0  0
   37.3490   31.1800   46.6260 C   0  0  0  0  0  0  0  0  0  0  0  0
  1  6  1  0  0  0  0
  2  1  2  0  0  0  0
  2  3  1  0  0  0  0
  3  4  2  0  0  0  0
  4  5  1  0  0  0  0
  5  8  1  0  0  0  0
  6  5  2  0  0  0  0
  7  3  1  0  0  0  0
  9 11  1  0  0  0  0
 10  9  2  0  0  0  0
 11  2  1  0  0  0  0
 12 11  1  0  0  0  0
 13  9  1  0  0  0  0
 14 15  1  0  0  0  0
 14 13  1  0  0  0  0
 16 14  1  0  0  0  0
 17 16  1  0  0  0  0
 18 16  1  0  0  0  0
 19 18  1  0  0  0  0
 19 21  1  0  0  0  0
 20 19  1  0  0  0  0
 21 13  1  0  0  0  0
 22 21  1  0  0  0  0
 23  1  1  0  0  0  0
 24 25  1  0  0  0  0
 25 26  2  0  0  0  0
 25 23  1  0  0  0  0
 26 30  1  0  0  0  0
 27 31  1  0  0  0  0
 27 26  1  0  0  0  0
 28 27  2  0  0  0  0
 29 24  2  0  0  0  0
 29 28  1  0  0  0  0
 32 28  1  0  0  0  0
 33 29  1  0  0  0  0
 34 33  2  0  0  0  0
 34 38  1  0  0  0  0
 35 34  1  0  0  0  0
 36 35  2  0  0  0  0
 36 37  1  0  0  0  0
 37 33  1  0  0  0  0
 39 35  1  0  0  0  0
 40 36  1  0  0  0  0
 41 42  3  0  0  0  0
 42 24  1  0  0  0  0
M  END
>  <minimizedAffinity>
-5.92635012

>  <minimizedRMSD>
0.408768237

$$$$
