
 OpenBabel03272508573D

 41 44  0  0  1  0  0  0  0  0999 V2000
   39.1150   31.4940   43.3010 C   0  0  0  0  0  0  0  0  0  0  0  0
   40.1110   30.5570   43.4390 C   0  0  0  0  0  0  0  0  0  0  0  0
   40.8330   30.2160   42.3030 C   0  0  0  0  0  0  0  0  0  0  0  0
   40.5030   30.8420   41.1150 C   0  0  0  0  0  0  0  0  0  0  0  0
   39.4930   31.7900   40.9820 C   0  0  0  0  0  0  0  0  0  0  0  0
   38.8200   32.0880   42.1110 N   0  0  0  0  0  0  0  0  0  0  0  0
   40.3590   30.0750   44.3740 H   0  0  0  0  0  0  0  0  0  0  0  0
   41.6180   29.4900   42.3670 H   0  0  0  0  0  0  0  0  0  0  0  0
   41.0480   30.5990   40.2110 H   0  0  0  0  0  0  0  0  0  0  0  0
   38.3330   31.8930   44.4900 C   0  0  0  0  0  0  0  0  0  0  0  0
   37.2430   32.4660   44.4060 O   0  0  0  0  0  0  0  0  0  0  0  0
   38.9150   31.5730   45.7880 N   0  0  0  0  0  0  0  0  0  0  0  0
   39.8900   31.2720   45.9380 H   0  0  0  0  0  0  0  0  0  0  0  0
   38.4290   31.0700   48.1740 C   0  0  2  0  0  0  0  0  0  0  0  0
   38.6850   32.5320   48.0920 C   0  0  0  0  0  0  0  0  0  0  0  0
   38.0550   31.6920   46.9470 C   0  0  1  0  0  0  0  0  0  0  0  0
   39.3570   30.4630   48.2550 H   0  0  0  0  0  0  0  0  0  0  0  0
   38.0280   33.2460   48.6150 H   0  0  0  0  0  0  0  0  0  0  0  0
   39.7030   32.8960   47.9490 H   0  0  0  0  0  0  0  0  0  0  0  0
   36.9870   31.9570   46.7620 H   0  0  0  0  0  0  0  0  0  0  0  0
   35.0730   30.2230   49.5180 C   0  0  0  0  0  0  0  0  0  0  0  0
   35.4080   29.5380   50.7330 C   0  0  0  0  0  0  0  0  0  0  0  0
   36.7950   29.3930   51.0630 C   0  0  0  0  0  0  0  0  0  0  0  0
   37.7520   29.9040   50.2210 N   0  0  0  0  0  0  0  0  0  0  0  0
   37.3540   30.5390   49.0890 C   0  0  0  0  0  0  0  0  0  0  0  0
   36.0300   30.7170   48.7060 N   0  0  0  0  0  0  0  0  0  0  0  0
   34.0140   30.3050   49.3160 H   0  0  0  0  0  0  0  0  0  0  0  0
   34.6490   29.1420   51.3860 H   0  0  0  0  0  0  0  0  0  0  0  0
   37.0590   28.8800   51.9760 H   0  0  0  0  0  0  0  0  0  0  0  0
   39.2000   32.4060   39.6940 C   0  0  0  0  0  0  0  0  0  0  0  0
   38.7760   33.5860   39.6780 O   0  0  0  0  0  0  0  0  0  0  0  0
   39.3490   31.7850   38.3800 C   0  0  0  0  0  3  0  0  0  0  0  0
   40.4740   32.5380   37.6610 C   0  0  0  0  0  3  0  0  0  0  0  0
   41.3310   32.4980   38.3580 H   0  0  0  0  0  0  0  0  0  0  0  0
   40.7580   31.9170   36.3270 C   0  0  0  0  0  3  0  0  0  0  0  0
   41.2510   30.9320   36.4360 H   0  0  0  0  0  0  0  0  0  0  0  0
   39.5910   31.8820   35.5880 O   0  0  0  0  0  0  0  0  0  0  0  0
   38.5780   31.1530   36.1830 C   0  0  0  0  0  3  0  0  0  0  0  0
   39.0610   30.1840   36.5020 H   0  0  0  0  0  0  0  0  0  0  0  0
   38.1530   31.8300   37.4920 C   0  0  0  0  0  3  0  0  0  0  0  0
   37.7970   32.8350   37.2410 H   0  0  0  0  0  0  0  0  0  0  0  0
  1  2  1  0  0  0  0
  1 10  1  0  0  0  0
  2  7  1  0  0  0  0
  3  8  1  0  0  0  0
  3  2  2  0  0  0  0
  4  3  1  0  0  0  0
  5  4  2  0  0  0  0
  5  6  1  0  0  0  0
  6  1  2  0  0  0  0
  9  4  1  0  0  0  0
 10 12  1  0  0  0  0
 11 10  2  0  0  0  0
 12 13  1  0  0  0  0
 12 16  1  0  0  0  0
 14 17  1  6  0  0  0
 14 25  1  0  0  0  0
 15 14  1  0  0  0  0
 15 18  1  0  0  0  0
 16 20  1  6  0  0  0
 16 15  1  0  0  0  0
 16 14  1  0  0  0  0
 19 15  1  0  0  0  0
 21 22  1  0  0  0  0
 22 23  2  0  0  0  0
 22 28  1  0  0  0  0
 23 29  1  0  0  0  0
 24 23  1  0  0  0  0
 25 24  2  0  0  0  0
 26 25  1  0  0  0  0
 26 21  2  0  0  0  0
 27 21  1  0  0  0  0
 30  5  1  0  0  0  0
 31 30  2  0  0  0  0
 32 30  1  0  0  0  0
 33 34  1  0  0  0  0
 33 32  1  0  0  0  0
 35 36  1  0  0  0  0
 35 33  1  0  0  0  0
 37 38  1  0  0  0  0
 37 35  1  0  0  0  0
 38 39  1  0  0  0  0
 38 40  1  0  0  0  0
 40 32  1  0  0  0  0
 41 40  1  0  0  0  0
M  END
>  <minimizedAffinity>
-4.91326094

>  <minimizedRMSD>
0.391722888

$$$$
