REMARK  Name = 
REMARK  4 active torsions:
REMARK  status: ('A' for Active; 'I' for Inactive)
REMARK    1  A    between atoms: C_1  and  O_12
REMARK    2  A    between atoms: C_3  and  C_7
REMARK    3  A    between atoms: N_10  and  C_21
REMARK    4  A    between atoms: O_12  and  C_13
REMARK                            x       y       z     vdW  Elec       q    Type
REMARK                         _______ _______ _______ _____ _____    ______ ____
ROOT
ATOM      1  C   UNL     1      39.072  31.497  46.313  0.00  0.00    +0.000 A 
ATOM      2  C   UNL     1      39.762  30.691  45.450  0.00  0.00    +0.000 A 
ATOM      3  C   UNL     1      40.784  31.488  44.940  0.00  0.00    +0.000 A 
ATOM      4  N   UNL     1      40.697  32.710  45.482  0.00  0.00    +0.000 N 
ATOM      5  N   UNL     1      39.660  32.706  46.311  0.00  0.00    +0.000 NA
ATOM      6  H   UNL     1      39.572  29.651  45.199  0.00  0.00    +0.000 HD
ATOM      7  H   UNL     1      41.518  31.114  44.208  0.00  0.00    +0.000 HD
ENDROOT
BRANCH   4   8
ATOM      8  C   UNL     1      41.603  33.770  45.166  0.00  0.00    +0.000 C 
ATOM      9  C   UNL     1      42.961  33.486  45.715  0.00  0.00    +0.000 C 
ATOM     10  H   UNL     1      43.053  33.893  46.755  0.00  0.00    +0.000 HD
ATOM     11  C   UNL     1      44.010  34.096  44.808  0.00  0.00    +0.000 C 
ATOM     12  H   UNL     1      44.348  33.369  44.044  0.00  0.00    +0.000 HD
ATOM     13  O   UNL     1      43.647  35.331  44.295  0.00  0.00    +0.000 OA
ATOM     14  C   UNL     1      42.498  35.310  43.524  0.00  0.00    +0.000 C 
ATOM     15  H   UNL     1      42.704  35.570  42.463  0.00  0.00    +0.000 HD
ATOM     16  C   UNL     1      41.721  34.025  43.681  0.00  0.00    +0.000 C 
ATOM     17  H   UNL     1      40.693  34.202  43.297  0.00  0.00    +0.000 HD
ENDBRANCH   4   8
BRANCH   1  20
ATOM     18  C   UNL     1      36.805  30.742  49.187  0.00  0.00    +0.000 A 
ATOM     19  C   UNL     1      37.922  31.125  48.468  0.00  0.00    +0.000 A 
ATOM     20  C   UNL     1      37.918  31.103  47.084  0.00  0.00    +0.000 A 
ATOM     21  N   UNL     1      36.794  30.699  46.475  0.00  0.00    +0.000 NA
ATOM     22  C   UNL     1      35.693  30.322  47.186  0.00  0.00    +0.000 A 
ATOM     23  N   UNL     1      35.694  30.342  48.522  0.00  0.00    +0.000 NA
ATOM     24  H   UNL     1      38.854  31.459  48.914  0.00  0.00    +0.000 HD
ATOM     25  H   UNL     1      34.777  29.994  46.724  0.00  0.00    +0.000 HD
BRANCH  18  26
ATOM     26  O   UNL     1      36.978  30.823  50.565  0.00  0.00    +0.000 OA
BRANCH  26  27
ATOM     27  C   UNL     1      36.947  29.707  51.412  0.00  0.00    +0.000 C 
ATOM     28  F   UNL     1      35.666  29.262  51.657  0.00  0.00    +0.000 F 
ATOM     29  F   UNL     1      37.569  30.041  52.591  0.00  0.00    +0.000 F 
ATOM     30  F   UNL     1      37.675  28.691  50.820  0.00  0.00    +0.000 F 
ENDBRANCH  26  27
ENDBRANCH  18  26
ENDBRANCH   1  20
TORSDOF 4
