REMARK  Name = 
REMARK  4 active torsions:
REMARK  status: ('A' for Active; 'I' for Inactive)
REMARK    1  A    between atoms: C_3  and  C_7
REMARK    2  A    between atoms: C_8  and  C_9
REMARK    3  A    between atoms: C_9  and  S_10
REMARK    4  A    between atoms: S_10  and  C_18
REMARK                            x       y       z     vdW  Elec       q    Type
REMARK                         _______ _______ _______ _____ _____    ______ ____
ROOT
ATOM      1  C   UNL     1      39.433  32.513  46.545  0.00  0.00    +0.000 C 
ATOM      2  H   UNL     1      40.389  31.969  46.386  0.00  0.00    +0.000 HD
ATOM      3  H   UNL     1      39.636  33.601  46.612  0.00  0.00    +0.000 HD
ENDROOT
BRANCH   1   5
ATOM      4  C   UNL     1      38.144  30.876  47.822  0.00  0.00    +0.000 C 
ATOM      5  C   UNL     1      38.779  32.015  47.803  0.00  0.00    +0.000 C 
BRANCH   4   8
ATOM      6  C   UNL     1      37.360  30.201  51.401  0.00  0.00    +0.000 A 
ATOM      7  C   UNL     1      38.008  30.716  50.261  0.00  0.00    +0.000 A 
ATOM      8  C   UNL     1      37.513  30.373  49.005  0.00  0.00    +0.000 A 
ATOM      9  N   UNL     1      36.428  29.559  48.916  0.00  0.00    +0.000 NA
ATOM     10  C   UNL     1      35.842  29.090  50.023  0.00  0.00    +0.000 A 
ATOM     11  N   UNL     1      36.286  29.395  51.259  0.00  0.00    +0.000 NA
ATOM     12  H   UNL     1      37.701  30.434  52.406  0.00  0.00    +0.000 HD
ATOM     13  H   UNL     1      38.876  31.367  50.405  0.00  0.00    +0.000 HD
ATOM     14  H   UNL     1      34.981  28.446  49.850  0.00  0.00    +0.000 HD
ENDBRANCH   4   8
ENDBRANCH   1   5
BRANCH   1  15
ATOM     15  S   UNL     1      38.308  32.272  45.137  0.00  0.00    +0.000 S 
BRANCH  15  16
ATOM     16  C   UNL     1      39.110  32.875  43.637  0.00  0.00    +0.000 C 
ATOM     17  C   UNL     1      38.881  34.361  43.570  0.00  0.00    +0.000 C 
ATOM     18  H   UNL     1      37.781  34.526  43.724  0.00  0.00    +0.000 HD
ATOM     19  C   UNL     1      39.584  35.103  44.682  0.00  0.00    +0.000 C 
ATOM     20  H   UNL     1      39.006  35.092  45.632  0.00  0.00    +0.000 HD
ATOM     21  O   UNL     1      40.895  34.675  44.874  0.00  0.00    +0.000 OA
ATOM     22  C   UNL     1      40.970  33.303  45.128  0.00  0.00    +0.000 C 
ATOM     23  H   UNL     1      40.279  32.995  45.933  0.00  0.00    +0.000 HD
ATOM     24  C   UNL     1      40.604  32.644  43.792  0.00  0.00    +0.000 C 
ATOM     25  H   UNL     1      40.864  31.569  43.794  0.00  0.00    +0.000 HD
ENDBRANCH  15  16
ENDBRANCH   1  15
TORSDOF 4
