REMARK  Name = 
REMARK  10 active torsions:
REMARK  status: ('A' for Active; 'I' for Inactive)
REMARK    1  A    between atoms: C_3  and  C_12
REMARK    2  A    between atoms: C_7  and  C_15
REMARK    3  A    between atoms: C_10  and  N_14
REMARK    4  A    between atoms: C_15  and  C_16
REMARK    5  A    between atoms: C_16  and  O_17
REMARK    6  A    between atoms: O_17  and  P_19
REMARK    7  A    between atoms: P_19  and  O_20
REMARK    8  A    between atoms: P_19  and  O_21
REMARK    9  A    between atoms: O_20  and  C_37
REMARK   10  A    between atoms: O_21  and  C_22
REMARK                            x       y       z     vdW  Elec       q    Type
REMARK                         _______ _______ _______ _____ _____    ______ ____
ROOT
ATOM      1  C   UNL     1      34.840  29.428  48.848  0.00  0.00    +0.000 C 
ATOM      2  H   UNL     1      34.204  30.239  49.299  0.00  0.00    +0.000 HD
ATOM      3  H   UNL     1      35.764  29.454  49.497  0.00  0.00    +0.000 HD
ENDROOT
BRANCH   1  10
ATOM      4 CL   UNL     1      37.602  30.463  48.529  0.00  0.00    +0.000 Cl
ATOM      5  C   UNL     1      36.444  30.319  47.196  0.00  0.00    +0.000 A 
ATOM      6  C   UNL     1      36.820  30.695  45.954  0.00  0.00    +0.000 A 
ATOM      7  C   UNL     1      35.929  30.588  44.910  0.00  0.00    +0.000 A 
ATOM      8  C   UNL     1      34.662  30.093  45.173  0.00  0.00    +0.000 A 
ATOM      9  C   UNL     1      34.342  29.723  46.484  0.00  0.00    +0.000 A 
ATOM     10  C   UNL     1      35.204  29.821  47.516  0.00  0.00    +0.000 A 
ATOM     11  H   UNL     1      36.249  30.897  43.913  0.00  0.00    +0.000 HD
ATOM     12  H   UNL     1      34.029  30.042  44.306  0.00  0.00    +0.000 HD
ATOM     13  H   UNL     1      33.361  29.373  46.508  0.00  0.00    +0.000 HD
BRANCH   6  18
ATOM     14  C   UNL     1      39.819  32.837  45.978  0.00  0.00    +0.000 A 
ATOM     15  C   UNL     1      40.681  32.109  45.107  0.00  0.00    +0.000 A 
ATOM     16  C   UNL     1      40.199  30.907  44.542  0.00  0.00    +0.000 A 
ATOM     17  N   UNL     1      38.943  30.500  44.854  0.00  0.00    +0.000 NA
ATOM     18  C   UNL     1      38.151  31.218  45.687  0.00  0.00    +0.000 A 
ATOM     19  N   UNL     1      38.591  32.365  46.234  0.00  0.00    +0.000 NA
ATOM     20  H   UNL     1      40.192  33.758  46.410  0.00  0.00    +0.000 HD
ATOM     21  H   UNL     1      41.657  32.543  44.942  0.00  0.00    +0.000 HD
BRANCH  16  22
ATOM     22  N   UNL     1      41.065  30.215  43.693  0.00  0.00    +0.000 N 
ATOM     23  H   UNL     1      41.630  30.640  42.952  0.00  0.00    +0.000 HD
ATOM     24  H   UNL     1      41.161  29.177  43.801  0.00  0.00    +0.000 HD
ENDBRANCH  16  22
ENDBRANCH   6  18
ENDBRANCH   1  10
BRANCH   1  25
ATOM     25  C   UNL     1      34.171  28.133  49.063  0.00  0.00    +0.000 C 
ATOM     26  H   UNL     1      34.626  27.549  49.898  0.00  0.00    +0.000 HD
ATOM     27  H   UNL     1      34.306  27.499  48.153  0.00  0.00    +0.000 HD
BRANCH  25  28
ATOM     28  O   UNL     1      32.849  28.302  49.380  0.00  0.00    +0.000 OA
BRANCH  28  30
ATOM     29  O   UNL     1      32.659  26.704  47.302  0.00  0.00    +0.000 OA
ATOM     30  P   UNL     1      31.862  27.530  48.263  0.00  0.00    +0.000 P 
BRANCH  30  31
ATOM     31  O   UNL     1      31.020  28.771  47.411  0.00  0.00    +0.000 OA
BRANCH  31  32
ATOM     32  C   UNL     1      30.755  28.311  46.123  0.00  0.00    +0.000 C 
ATOM     33  C   UNL     1      29.359  27.794  45.905  0.00  0.00    +0.000 C 
ATOM     34  H   UNL     1      29.340  27.355  44.874  0.00  0.00    +0.000 HD
ATOM     35  C   UNL     1      28.333  28.890  45.917  0.00  0.00    +0.000 C 
ATOM     36  H   UNL     1      27.444  28.476  45.344  0.00  0.00    +0.000 HD
ATOM     37  O   UNL     1      28.769  30.020  45.225  0.00  0.00    +0.000 OA
ATOM     38  C   UNL     1      29.783  29.720  44.336  0.00  0.00    +0.000 C 
ATOM     39  H   UNL     1      29.426  28.930  43.653  0.00  0.00    +0.000 HD
ATOM     40  C   UNL     1      31.029  29.349  45.089  0.00  0.00    +0.000 C 
ATOM     41  H   UNL     1      31.860  29.054  44.408  0.00  0.00    +0.000 HD
ENDBRANCH  31  32
ENDBRANCH  30  31
BRANCH  30  42
ATOM     42  O   UNL     1      30.697  26.595  48.986  0.00  0.00    +0.000 OA
BRANCH  42  43
ATOM     43  C   UNL     1      29.848  27.350  49.765  0.00  0.00    +0.000 C 
ATOM     44  F   UNL     1      29.325  26.627  50.839  0.00  0.00    +0.000 F 
ATOM     45  F   UNL     1      30.506  28.440  50.318  0.00  0.00    +0.000 F 
ATOM     46  F   UNL     1      28.796  27.821  49.022  0.00  0.00    +0.000 F 
ENDBRANCH  42  43
ENDBRANCH  30  42
ENDBRANCH  28  30
ENDBRANCH  25  28
ENDBRANCH   1  25
TORSDOF 10
