REMARK  Name = 
REMARK  3 active torsions:
REMARK  status: ('A' for Active; 'I' for Inactive)
REMARK    1  A    between atoms: C_3  and  C_10
REMARK    2  A    between atoms: C_7  and  N_16
REMARK    3  A    between atoms: C_14  and  C_24
REMARK                            x       y       z     vdW  Elec       q    Type
REMARK                         _______ _______ _______ _____ _____    ______ ____
ROOT
ATOM      1  F   UNL     1      38.452  30.445  47.310  0.00  0.00    +0.000 F 
ATOM      2  C   UNL     1      38.753  31.670  47.785  0.00  0.00    +0.000 A 
ATOM      3  C   UNL     1      38.236  32.081  48.992  0.00  0.00    +0.000 A 
ATOM      4  C   UNL     1      38.577  33.339  49.427  0.00  0.00    +0.000 A 
ATOM      5  C   UNL     1      39.401  34.174  48.703  0.00  0.00    +0.000 A 
ATOM      6  C   UNL     1      39.907  33.747  47.502  0.00  0.00    +0.000 A 
ATOM      7  C   UNL     1      39.581  32.484  47.038  0.00  0.00    +0.000 A 
ATOM      8  H   UNL     1      38.162  33.645  50.379  0.00  0.00    +0.000 HD
ATOM      9  H   UNL     1      39.646  35.160  49.083  0.00  0.00    +0.000 HD
ATOM     10  H   UNL     1      40.558  34.389  46.915  0.00  0.00    +0.000 HD
ENDROOT
BRANCH   3  13
ATOM     11  C   UNL     1      36.921  29.599  51.535  0.00  0.00    +0.000 A 
ATOM     12  C   UNL     1      37.779  30.483  50.865  0.00  0.00    +0.000 A 
ATOM     13  C   UNL     1      37.371  31.154  49.713  0.00  0.00    +0.000 A 
ATOM     14  N   UNL     1      36.096  30.903  49.277  0.00  0.00    +0.000 NA
ATOM     15  C   UNL     1      35.285  30.046  49.937  0.00  0.00    +0.000 A 
ATOM     16  N   UNL     1      35.691  29.412  51.038  0.00  0.00    +0.000 NA
ATOM     17  H   UNL     1      37.370  29.150  52.412  0.00  0.00    +0.000 HD
ATOM     18  H   UNL     1      38.799  30.712  51.177  0.00  0.00    +0.000 HD
ATOM     19  H   UNL     1      34.284  29.888  49.542  0.00  0.00    +0.000 HD
ENDBRANCH   3  13
BRANCH   7  22
ATOM     20  C   UNL     1      39.194  32.166  44.681  0.00  0.00    +0.000 C 
ATOM     21  O   UNL     1      38.081  32.710  44.984  0.00  0.00    +0.000 OA
ATOM     22  N   UNL     1      40.084  31.989  45.785  0.00  0.00    +0.000 N 
ATOM     23  H   UNL     1      41.017  31.538  45.683  0.00  0.00    +0.000 HD
BRANCH  20  24
ATOM     24  C   UNL     1      39.686  31.697  43.360  0.00  0.00    +0.000 C 
ATOM     25  C   UNL     1      39.659  30.204  43.225  0.00  0.00    +0.000 C 
ATOM     26  H   UNL     1      38.697  29.797  43.538  0.00  0.00    +0.000 HD
ATOM     27  C   UNL     1      39.987  29.924  41.755  0.00  0.00    +0.000 C 
ATOM     28  H   UNL     1      39.416  30.686  41.153  0.00  0.00    +0.000 HD
ATOM     29  O   UNL     1      41.325  30.275  41.585  0.00  0.00    +0.000 OA
ATOM     30  C   UNL     1      41.480  31.639  41.711  0.00  0.00    +0.000 C 
ATOM     31  H   UNL     1      40.786  32.177  41.005  0.00  0.00    +0.000 HD
ATOM     32  C   UNL     1      41.140  32.105  43.114  0.00  0.00    +0.000 C 
ATOM     33  H   UNL     1      41.825  31.548  43.815  0.00  0.00    +0.000 HD
ENDBRANCH  20  24
ENDBRANCH   7  22
TORSDOF 3
