REMARK  Name = 
REMARK  4 active torsions:
REMARK  status: ('A' for Active; 'I' for Inactive)
REMARK    1  A    between atoms: C_1  and  C_16
REMARK    2  A    between atoms: C_4  and  C_8
REMARK    3  A    between atoms: C_18  and  C_20
REMARK    4  A    between atoms: C_20  and  C_29
REMARK                            x       y       z     vdW  Elec       q    Type
REMARK                         _______ _______ _______ _____ _____    ______ ____
ROOT
ATOM      1  C   UNL     1      37.156  29.913  51.672  0.00  0.00    +0.000 A 
ATOM      2  C   UNL     1      37.799  30.550  50.597  0.00  0.00    +0.000 A 
ATOM      3  C   UNL     1      37.077  30.648  49.386  0.00  0.00    +0.000 A 
ATOM      4  N   UNL     1      35.848  30.139  49.329  0.00  0.00    +0.000 NA
ATOM      5  C   UNL     1      35.261  29.538  50.370  0.00  0.00    +0.000 A 
ATOM      6  N   UNL     1      35.911  29.429  51.525  0.00  0.00    +0.000 NA
ATOM      7  H   UNL     1      37.737  29.854  52.591  0.00  0.00    +0.000 HD
ATOM      8  H   UNL     1      38.790  30.971  50.609  0.00  0.00    +0.000 HD
ENDROOT
BRANCH   3   9
ATOM      9  C   UNL     1      37.680  31.302  48.210  0.00  0.00    +0.000 A 
ATOM     10  C   UNL     1      38.536  32.309  48.086  0.00  0.00    +0.000 A 
ATOM     11  C   UNL     1      38.925  32.708  46.865  0.00  0.00    +0.000 A 
ATOM     12  C   UNL     1      38.412  32.043  45.778  0.00  0.00    +0.000 A 
ATOM     13  S   UNL     1      37.325  30.796  46.570  0.00  0.00    +0.000 S 
ATOM     14  H   UNL     1      38.893  32.780  48.997  0.00  0.00    +0.000 HD
ATOM     15  H   UNL     1      39.612  33.509  46.618  0.00  0.00    +0.000 HD
BRANCH  12  18
ATOM     16 CL   UNL     1      41.155  31.236  44.722  0.00  0.00    +0.000 Cl
ATOM     17  C   UNL     1      39.782  31.829  43.806  0.00  0.00    +0.000 A 
ATOM     18  C   UNL     1      38.582  32.171  44.350  0.00  0.00    +0.000 A 
ATOM     19  C   UNL     1      37.508  32.627  43.690  0.00  0.00    +0.000 A 
ATOM     20  C   UNL     1      37.610  32.774  42.299  0.00  0.00    +0.000 A 
ATOM     21  C   UNL     1      38.778  32.453  41.683  0.00  0.00    +0.000 A 
ATOM     22 CL   UNL     1      38.948  32.620  39.950  0.00  0.00    +0.000 Cl
ATOM     23  C   UNL     1      39.860  31.982  42.426  0.00  0.00    +0.000 A 
ATOM     24  H   UNL     1      36.558  32.895  44.148  0.00  0.00    +0.000 HD
ATOM     25  H   UNL     1      36.746  33.147  41.727  0.00  0.00    +0.000 HD
ATOM     26  H   UNL     1      40.771  31.740  41.881  0.00  0.00    +0.000 HD
ENDBRANCH  12  18
ENDBRANCH   3   9
BRANCH   5  27
ATOM     27  C   UNL     1      33.918  29.022  50.191  0.00  0.00    +0.000 C 
ATOM     28  O   UNL     1      33.673  28.294  49.202  0.00  0.00    +0.000 OA
BRANCH  27  29
ATOM     29  C   UNL     1      32.898  29.386  51.197  0.00  0.00    +0.000 C 
ATOM     30  C   UNL     1      33.095  30.710  51.851  0.00  0.00    +0.000 C 
ATOM     31  H   UNL     1      32.932  31.520  51.106  0.00  0.00    +0.000 HD
ATOM     32  C   UNL     1      31.994  30.813  52.913  0.00  0.00    +0.000 C 
ATOM     33  H   UNL     1      32.202  31.569  53.672  0.00  0.00    +0.000 HD
ATOM     34  O   UNL     1      30.733  30.889  52.339  0.00  0.00    +0.000 OA
ATOM     35  C   UNL     1      30.706  30.614  50.992  0.00  0.00    +0.000 C 
ATOM     36  H   UNL     1      29.653  30.400  50.710  0.00  0.00    +0.000 HD
ATOM     37  C   UNL     1      31.501  29.397  50.598  0.00  0.00    +0.000 C 
ATOM     38  H   UNL     1      30.967  28.445  50.731  0.00  0.00    +0.000 HD
ENDBRANCH  27  29
ENDBRANCH   5  27
TORSDOF 4
