REMARK  Name = 
REMARK  7 active torsions:
REMARK  status: ('A' for Active; 'I' for Inactive)
REMARK    1  A    between atoms: C_1  and  C_7
REMARK    2  A    between atoms: C_6  and  C_15
REMARK    3  A    between atoms: C_7  and  O_8
REMARK    4  A    between atoms: C_7  and  C_13
REMARK    5  A    between atoms: C_16  and  C_17
REMARK    6  A    between atoms: C_17  and  S_18
REMARK    7  A    between atoms: S_18  and  C_32
REMARK                            x       y       z     vdW  Elec       q    Type
REMARK                         _______ _______ _______ _____ _____    ______ ____
ROOT
ATOM      1  C   UNL     1      37.080  30.948  49.028  0.00  0.00    +0.000 A 
ATOM      2  C   UNL     1      36.810  31.878  50.035  0.00  0.00    +0.000 A 
ATOM      3  C   UNL     1      37.424  33.122  50.062  0.00  0.00    +0.000 A 
ATOM      4  C   UNL     1      38.336  33.463  49.063  0.00  0.00    +0.000 A 
ATOM      5  C   UNL     1      38.588  32.540  48.085  0.00  0.00    +0.000 A 
ATOM      6  C   UNL     1      37.959  31.306  48.086  0.00  0.00    +0.000 A 
ATOM      7  H   UNL     1      36.089  31.574  50.801  0.00  0.00    +0.000 HD
ATOM      8  H   UNL     1      37.124  33.738  50.894  0.00  0.00    +0.000 HD
ATOM      9  H   UNL     1      38.773  34.447  49.151  0.00  0.00    +0.000 HD
ATOM     10  H   UNL     1      39.320  32.945  47.377  0.00  0.00    +0.000 HD
ENDROOT
BRANCH   1  11
ATOM     11  C   UNL     1      36.467  29.638  49.018  0.00  0.00    +0.000 C 
ATOM     12  H   UNL     1      37.007  29.058  48.175  0.00  0.00    +0.000 HD
BRANCH  11  17
ATOM     13  C   UNL     1      33.615  30.149  46.823  0.00  0.00    +0.000 A 
ATOM     14  C   UNL     1      32.955  28.936  46.844  0.00  0.00    +0.000 A 
ATOM     15  C   UNL     1      33.448  27.940  47.667  0.00  0.00    +0.000 A 
ATOM     16  N   UNL     1      34.569  28.187  48.428  0.00  0.00    +0.000 NA
ATOM     17  C   UNL     1      35.156  29.364  48.362  0.00  0.00    +0.000 A 
ATOM     18  N   UNL     1      34.688  30.348  47.567  0.00  0.00    +0.000 NA
ATOM     19  H   UNL     1      33.258  30.964  46.187  0.00  0.00    +0.000 HD
ATOM     20  H   UNL     1      32.090  28.856  46.207  0.00  0.00    +0.000 HD
ATOM     21  H   UNL     1      32.927  26.993  47.682  0.00  0.00    +0.000 HD
ENDBRANCH  11  17
BRANCH  11  22
ATOM     22  O   UNL     1      36.864  28.897  49.991  0.00  0.00    +0.000 OA
ATOM     23  H   UNL     1      36.602  29.046  50.924  0.00  0.00    +0.000 HD
ENDBRANCH  11  22
ENDBRANCH   1  11
BRANCH   6  24
ATOM     24  C   UNL     1      38.344  30.419  47.012  0.00  0.00    +0.000 C 
ATOM     25  C   UNL     1      38.820  30.840  45.835  0.00  0.00    +0.000 C 
BRANCH  25  26
ATOM     26  C   UNL     1      39.286  30.024  44.689  0.00  0.00    +0.000 C 
ATOM     27  H   UNL     1      40.376  29.817  44.868  0.00  0.00    +0.000 HD
ATOM     28  H   UNL     1      38.730  29.077  44.658  0.00  0.00    +0.000 HD
BRANCH  26  29
ATOM     29  S   UNL     1      39.185  30.986  43.178  0.00  0.00    +0.000 S 
BRANCH  29  30
ATOM     30  C   UNL     1      39.724  30.049  41.728  0.00  0.00    +0.000 C 
ATOM     31  C   UNL     1      39.764  30.942  40.532  0.00  0.00    +0.000 C 
ATOM     32  H   UNL     1      38.902  31.629  40.462  0.00  0.00    +0.000 HD
ATOM     33  C   UNL     1      39.933  30.239  39.229  0.00  0.00    +0.000 C 
ATOM     34  H   UNL     1      41.029  30.069  39.056  0.00  0.00    +0.000 HD
ATOM     35  O   UNL     1      39.269  29.046  39.099  0.00  0.00    +0.000 OA
ATOM     36  C   UNL     1      38.328  28.775  40.066  0.00  0.00    +0.000 C 
ATOM     37  H   UNL     1      38.046  27.693  39.919  0.00  0.00    +0.000 HD
ATOM     38  C   UNL     1      38.823  28.888  41.469  0.00  0.00    +0.000 C 
ATOM     39  H   UNL     1      37.922  28.970  42.141  0.00  0.00    +0.000 HD
ENDBRANCH  29  30
ENDBRANCH  26  29
ENDBRANCH  25  26
ENDBRANCH   6  24
TORSDOF 7
