
 OpenBabel03272503053D

 33 35  0  0  0  0  0  0  0  0999 V2000
   38.1820   30.2030   47.3900 F   0  0  0  0  0  0  0  0  0  0  0  0
   38.5520   31.4320   47.8040 C   0  0  0  0  0  0  0  0  0  0  0  0
   38.1320   31.8950   49.0290 C   0  0  0  0  0  0  0  0  0  0  0  0
   38.5400   33.1540   49.3990 C   0  0  0  0  0  0  0  0  0  0  0  0
   39.3370   33.9400   48.5940 C   0  0  0  0  0  0  0  0  0  0  0  0
   39.7460   33.4610   47.3760 C   0  0  0  0  0  0  0  0  0  0  0  0
   39.3510   32.1960   46.9760 C   0  0  0  0  0  0  0  0  0  0  0  0
   38.2000   33.5020   50.3670 H   0  0  0  0  0  0  0  0  0  0  0  0
   39.6370   34.9290   48.9250 H   0  0  0  0  0  0  0  0  0  0  0  0
   40.3740   34.0640   46.7260 H   0  0  0  0  0  0  0  0  0  0  0  0
   36.9060   29.5750   51.7610 C   0  0  0  0  0  0  0  0  0  0  0  0
   37.7410   30.4110   51.0080 C   0  0  0  0  0  0  0  0  0  0  0  0
   37.2910   31.0190   49.8360 C   0  0  0  0  0  0  0  0  0  0  0  0
   35.9970   30.7550   49.4680 N   0  0  0  0  0  0  0  0  0  0  0  0
   35.2090   29.9440   50.2080 C   0  0  0  0  0  0  0  0  0  0  0  0
   35.6550   29.3710   51.3260 N   0  0  0  0  0  0  0  0  0  0  0  0
   37.3870   29.1720   52.6440 H   0  0  0  0  0  0  0  0  0  0  0  0
   38.7750   30.6480   51.2640 H   0  0  0  0  0  0  0  0  0  0  0  0
   34.1910   29.7730   49.8640 H   0  0  0  0  0  0  0  0  0  0  0  0
   38.8060   31.8450   44.6550 C   0  0  0  0  0  0  0  0  0  0  0  0
   37.7420   32.4530   45.0100 O   0  0  0  0  0  0  0  0  0  0  0  0
   39.7510   31.6470   45.7090 N   0  0  0  0  0  0  0  0  0  0  0  0
   40.6520   31.1470   45.5630 H   0  0  0  0  0  0  0  0  0  0  0  0
   39.1930   31.3220   43.3200 C   0  0  0  0  0  3  0  0  0  0  0  0
   40.5460   30.6740   43.3180 C   0  0  0  0  0  3  0  0  0  0  0  0
   40.6470   29.9710   44.1450 H   0  0  0  0  0  0  0  0  0  0  0  0
   40.6780   30.0170   41.9410 C   0  0  0  0  0  3  0  0  0  0  0  0
   39.6810   29.5430   41.7200 H   0  0  0  0  0  0  0  0  0  0  0  0
   40.7790   31.0610   41.0240 O   0  0  0  0  0  0  0  0  0  0  0  0
   39.5890   31.7530   40.9540 C   0  0  0  0  0  3  0  0  0  0  0  0
   38.7410   31.0460   40.7300 H   0  0  0  0  0  0  0  0  0  0  0  0
   39.2690   32.4340   42.2710 C   0  0  0  0  0  3  0  0  0  0  0  0
   40.1310   33.1240   42.4960 H   0  0  0  0  0  0  0  0  0  0  0  0
  1  2  1  0  0  0  0
  2  3  1  0  0  0  0
  3  4  2  0  0  0  0
  3 13  1  0  0  0  0
  4  8  1  0  0  0  0
  5  9  1  0  0  0  0
  5  4  1  0  0  0  0
  6  5  2  0  0  0  0
  7  6  1  0  0  0  0
  7  2  2  0  0  0  0
 10  6  1  0  0  0  0
 11 17  1  0  0  0  0
 12 18  1  0  0  0  0
 12 11  2  0  0  0  0
 13 12  1  0  0  0  0
 14 13  2  0  0  0  0
 14 15  1  0  0  0  0
 15 16  2  0  0  0  0
 16 11  1  0  0  0  0
 19 15  1  0  0  0  0
 20 21  2  0  0  0  0
 20 22  1  0  0  0  0
 22  7  1  0  0  0  0
 23 22  1  0  0  0  0
 24 20  1  0  0  0  0
 25 24  1  0  0  0  0
 25 26  1  0  0  0  0
 27 25  1  0  0  0  0
 28 27  1  0  0  0  0
 29 27  1  0  0  0  0
 30 29  1  0  0  0  0
 30 32  1  0  0  0  0
 31 30  1  0  0  0  0
 32 33  1  0  0  0  0
 32 24  1  0  0  0  0
M  END
>  <minimizedAffinity>
-6.56962681

>  <minimizedRMSD>
0.471901596

$$$$
