
     RDKit          3D

 38 40  0  0  0  0  0  0  0  0999 V2000
   38.1137   31.1855   47.8906 C   0  0  0  0  0  0  0  0  0  0  0  0
   38.3964   30.3819   46.7956 C   0  0  0  0  0  0  0  0  0  0  0  0
   39.1829   30.8131   45.7346 C   0  0  0  0  0  0  0  0  0  0  0  0
   39.7146   32.1319   45.7788 C   0  0  0  0  0  0  0  0  0  0  0  0
   39.4131   32.8917   46.8742 C   0  0  0  0  0  0  0  0  0  0  0  0
   38.6473   32.4677   47.9126 C   0  0  0  0  0  0  0  0  0  0  0  0
   37.8525   29.9706   49.9721 C   0  0  0  0  0  0  0  0  0  0  0  0
   37.2305   30.6025   48.8812 C   0  0  0  0  0  0  0  0  0  0  0  0
   35.8283   30.6007   48.8661 C   0  0  0  0  0  0  0  0  0  0  0  0
   35.1465   30.0146   49.8615 N   0  0  0  0  0  0  0  0  0  0  0  0
   35.7520   29.4161   50.8950 C   0  0  0  0  0  0  0  0  0  0  0  0
   37.0969   29.4004   50.9392 N   0  0  0  0  0  0  0  0  0  0  0  0
   39.3399   34.3015   49.2115 C   0  0  0  0  0  0  0  0  0  0  0  0
   40.3807   34.2793   48.4623 O   0  0  0  0  0  0  0  0  0  0  0  0
   38.3737   33.2464   49.0407 N   0  0  0  0  0  0  0  0  0  0  0  0
   37.9952   29.3621   46.7414 H   0  0  0  0  0  0  0  0  0  0  0  0
   39.3472   30.0944   44.9137 H   0  0  0  0  0  0  0  0  0  0  0  0
   40.2917   32.3078   44.8939 H   0  0  0  0  0  0  0  0  0  0  0  0
   39.8721   33.8336   46.6595 H   0  0  0  0  0  0  0  0  0  0  0  0
   38.9217   29.8990   50.1090 H   0  0  0  0  0  0  0  0  0  0  0  0
   35.3949   31.0882   48.0248 H   0  0  0  0  0  0  0  0  0  0  0  0
   35.2528   28.9302   51.7214 H   0  0  0  0  0  0  0  0  0  0  0  0
   37.5882   33.0853   49.6576 H   0  0  0  0  0  0  0  0  0  0  0  0
   39.0798   35.3593   50.2465 C   0  0  2  0  0  0  0  0  0  0  0  0
   40.2179   36.3746   50.2648 C   0  0  2  0  0  0  0  0  0  0  0  0
   40.2790   36.7512   49.2217 H   0  0  0  0  0  0  0  0  0  0  0  0
   39.7371   37.5266   51.1394 C   0  0  2  0  0  0  0  0  0  0  0  0
   38.8697   38.0214   50.6299 H   0  0  0  0  0  0  0  0  0  0  0  0
   39.2843   37.0947   52.3639 O   0  0  0  0  0  0  0  0  0  0  0  0
   39.5220   35.7637   52.6037 C   0  0  2  0  0  0  0  0  0  0  0  0
   39.1098   35.5125   53.6053 H   0  0  0  0  0  0  0  0  0  0  0  0
   38.8086   34.8489   51.6014 C   0  0  2  0  0  0  0  0  0  0  0  0
   39.1761   33.8370   51.8281 H   0  0  0  0  0  0  0  0  0  0  0  0
   38.1849   35.9264   49.9015 H   0  0  0  0  0  0  0  0  0  0  0  0
   41.1514   35.9665   50.6621 H   0  0  0  0  0  0  0  0  0  0  0  0
   40.5123   38.3196   51.2454 H   0  0  0  0  0  0  0  0  0  0  0  0
   40.6007   35.5089   52.5788 H   0  0  0  0  0  0  0  0  0  0  0  0
   37.7359   34.8625   51.9000 H   0  0  0  0  0  0  0  0  0  0  0  0
  1  6  1  0
  1  8  1  0
  2  1  2  0
  3  4  2  0
  3  2  1  0
  4  5  1  0
  5  6  2  0
  6 15  1  0
  7 12  2  0
  8  9  2  0
  8  7  1  0
  9 10  1  0
 10 11  2  0
 11 12  1  0
 14 13  2  0
 15 13  1  0
  2 16  1  0
  3 17  1  0
  4 18  1  0
  5 19  1  0
  7 20  1  0
  9 21  1  0
 11 22  1  0
 15 23  1  0
 24 25  1  0
 25 26  1  6
 25 27  1  0
 27 28  1  6
 27 29  1  0
 29 30  1  0
 30 31  1  1
 30 32  1  0
 32 33  1  6
 32 24  1  0
 24 34  1  6
 25 35  1  0
 27 36  1  0
 30 37  1  0
 32 38  1  0
 13 24  1  0
M  ISO  8  16  14  17  14  18  14  19  14  20  14  21  14  22  14  26  15
M  ISO  3  28  15  31  15  33  15
M  END
>  <DihAtoms>  (1) 
13,12,23,24

>  <DihDeg>  (1) 
-119.99891712432202

$$$$
