
 OpenBabel03272508573D

 41 44  0  0  1  0  0  0  0  0999 V2000
   39.1300   31.4760   43.3150 C   0  0  0  0  0  0  0  0  0  0  0  0
   40.1250   30.5380   43.4610 C   0  0  0  0  0  0  0  0  0  0  0  0
   40.8520   30.1930   42.3290 C   0  0  0  0  0  0  0  0  0  0  0  0
   40.5270   30.8140   41.1370 C   0  0  0  0  0  0  0  0  0  0  0  0
   39.5180   31.7620   40.9960 C   0  0  0  0  0  0  0  0  0  0  0  0
   38.8410   32.0650   42.1210 N   0  0  0  0  0  0  0  0  0  0  0  0
   40.3690   30.0600   44.3990 H   0  0  0  0  0  0  0  0  0  0  0  0
   41.6360   29.4660   42.3990 H   0  0  0  0  0  0  0  0  0  0  0  0
   41.0750   30.5670   40.2360 H   0  0  0  0  0  0  0  0  0  0  0  0
   38.3440   31.8790   44.5000 C   0  0  0  0  0  0  0  0  0  0  0  0
   37.2570   32.4570   44.4090 O   0  0  0  0  0  0  0  0  0  0  0  0
   38.9180   31.5590   45.8000 N   0  0  0  0  0  0  0  0  0  0  0  0
   39.8900   31.2530   45.9560 H   0  0  0  0  0  0  0  0  0  0  0  0
   38.4240   31.0710   48.1880 C   0  0  2  0  0  0  0  0  0  0  0  0
   38.6740   32.5340   48.0970 C   0  0  0  0  0  0  0  0  0  0  0  0
   38.0530   31.6830   46.9550 C   0  0  1  0  0  0  0  0  0  0  0  0
   39.3540   30.4690   48.2780 H   0  0  0  0  0  0  0  0  0  0  0  0
   38.0130   33.2500   48.6110 H   0  0  0  0  0  0  0  0  0  0  0  0
   39.6910   32.9010   47.9550 H   0  0  0  0  0  0  0  0  0  0  0  0
   36.9840   31.9430   46.7630 H   0  0  0  0  0  0  0  0  0  0  0  0
   35.0650   30.2310   49.5290 C   0  0  0  0  0  0  0  0  0  0  0  0
   35.3960   29.5480   50.7450 C   0  0  0  0  0  0  0  0  0  0  0  0
   36.7830   29.4010   51.0780 C   0  0  0  0  0  0  0  0  0  0  0  0
   37.7420   29.9100   50.2360 N   0  0  0  0  0  0  0  0  0  0  0  0
   37.3460   30.5430   49.1030 C   0  0  0  0  0  0  0  0  0  0  0  0
   36.0230   30.7230   48.7170 N   0  0  0  0  0  0  0  0  0  0  0  0
   34.0060   30.3140   49.3250 H   0  0  0  0  0  0  0  0  0  0  0  0
   34.6360   29.1530   51.3980 H   0  0  0  0  0  0  0  0  0  0  0  0
   37.0450   28.8890   51.9920 H   0  0  0  0  0  0  0  0  0  0  0  0
   39.2300   32.3740   39.7040 C   0  0  0  0  0  0  0  0  0  0  0  0
   38.6870   33.5040   39.6860 O   0  0  0  0  0  0  0  0  0  0  0  0
   39.5120   31.8010   38.3900 C   0  0  0  0  0  3  0  0  0  0  0  0
   40.3410   32.8390   37.6250 C   0  0  0  0  0  3  0  0  0  0  0  0
   41.1950   33.0640   38.2910 H   0  0  0  0  0  0  0  0  0  0  0  0
   40.7500   32.3060   36.2850 C   0  0  0  0  0  3  0  0  0  0  0  0
   41.5150   31.5120   36.3840 H   0  0  0  0  0  0  0  0  0  0  0  0
   39.6220   31.9160   35.5910 O   0  0  0  0  0  0  0  0  0  0  0  0
   38.8890   30.9320   36.2270 C   0  0  0  0  0  3  0  0  0  0  0  0
   39.6470   30.1540   36.5340 H   0  0  0  0  0  0  0  0  0  0  0  0
   38.3260   31.4770   37.5460 C   0  0  0  0  0  3  0  0  0  0  0  0
   37.6830   32.3280   37.3020 H   0  0  0  0  0  0  0  0  0  0  0  0
  1  2  1  0  0  0  0
  1 10  1  0  0  0  0
  2  7  1  0  0  0  0
  3  8  1  0  0  0  0
  3  2  2  0  0  0  0
  4  3  1  0  0  0  0
  5  4  2  0  0  0  0
  5  6  1  0  0  0  0
  6  1  2  0  0  0  0
  9  4  1  0  0  0  0
 10 12  1  0  0  0  0
 11 10  2  0  0  0  0
 12 13  1  0  0  0  0
 12 16  1  0  0  0  0
 14 17  1  6  0  0  0
 14 25  1  0  0  0  0
 15 14  1  0  0  0  0
 15 18  1  0  0  0  0
 16 20  1  6  0  0  0
 16 15  1  0  0  0  0
 16 14  1  0  0  0  0
 19 15  1  0  0  0  0
 21 22  1  0  0  0  0
 22 23  2  0  0  0  0
 22 28  1  0  0  0  0
 23 29  1  0  0  0  0
 24 23  1  0  0  0  0
 25 24  2  0  0  0  0
 26 25  1  0  0  0  0
 26 21  2  0  0  0  0
 27 21  1  0  0  0  0
 30  5  1  0  0  0  0
 31 30  2  0  0  0  0
 32 30  1  0  0  0  0
 33 34  1  0  0  0  0
 33 32  1  0  0  0  0
 35 36  1  0  0  0  0
 35 33  1  0  0  0  0
 37 38  1  0  0  0  0
 37 35  1  0  0  0  0
 38 39  1  0  0  0  0
 38 40  1  0  0  0  0
 40 32  1  0  0  0  0
 41 40  1  0  0  0  0
M  END
>  <minimizedAffinity>
-4.9155879

>  <minimizedRMSD>
0.273524106

$$$$
