
 OpenBabel03272507423D

 42 45  0  0  0  0  0  0  0  0999 V2000
   36.7600   31.2280   50.0390 C   0  0  0  0  0  0  0  0  0  0  0  0
   35.7110   30.3420   49.8090 C   0  0  0  0  0  0  0  0  0  0  0  0
   35.5330   29.2370   50.6130 C   0  0  0  0  0  0  0  0  0  0  0  0
   36.4160   29.0510   51.6310 N   0  0  0  0  0  0  0  0  0  0  0  0
   37.4360   29.9250   51.8440 C   0  0  0  0  0  0  0  0  0  0  0  0
   37.5900   30.9820   51.0570 N   0  0  0  0  0  0  0  0  0  0  0  0
   34.7420   28.5090   50.4920 H   0  0  0  0  0  0  0  0  0  0  0  0
   38.1190   29.7330   52.6730 H   0  0  0  0  0  0  0  0  0  0  0  0
   34.3240   29.2760   48.0900 C   0  0  0  0  0  0  0  0  0  0  0  0
   34.7140   28.0440   48.1110 O   0  0  0  0  0  0  0  0  0  0  0  0
   34.7570   30.4540   48.7860 N   0  0  0  0  0  0  0  0  0  0  0  0
   34.2810   31.3150   48.4290 H   0  0  0  0  0  0  0  0  0  0  0  0
   33.2090   29.2840   47.0980 C   0  0  0  0  0  3  0  0  0  0  0  0
   33.2840   28.0370   46.2930 C   0  0  0  0  0  3  0  0  0  0  0  0
   32.8300   27.1610   46.8460 H   0  0  0  0  0  0  0  0  0  0  0  0
   32.5520   28.1010   44.9780 C   0  0  0  0  0  3  0  0  0  0  0  0
   33.2850   28.1680   44.1410 H   0  0  0  0  0  0  0  0  0  0  0  0
   31.7810   29.2610   44.8660 O   0  0  0  0  0  0  0  0  0  0  0  0
   32.7280   30.3070   44.8510 C   0  0  0  0  0  3  0  0  0  0  0  0
   32.2880   31.2370   44.4380 H   0  0  0  0  0  0  0  0  0  0  0  0
   33.0640   30.5470   46.3260 C   0  0  0  0  0  3  0  0  0  0  0  0
   33.9310   31.2250   46.3340 H   0  0  0  0  0  0  0  0  0  0  0  0
   36.7760   32.2480   49.1510 O   0  0  0  0  0  0  0  0  0  0  0  0
   38.2580   32.1850   47.1610 C   0  0  0  0  0  0  0  0  0  0  0  0
   37.8940   32.6380   48.4170 C   0  0  0  0  0  0  0  0  0  0  0  0
   38.6770   33.5800   49.0700 C   0  0  0  0  0  0  0  0  0  0  0  0
   39.8250   34.0590   48.4520 C   0  0  0  0  0  0  0  0  0  0  0  0
   40.1800   33.5990   47.1980 C   0  0  0  0  0  0  0  0  0  0  0  0
   39.3820   32.6710   46.5880 C   0  0  0  0  0  0  0  0  0  0  0  0
   38.4490   33.9750   50.0510 H   0  0  0  0  0  0  0  0  0  0  0  0
   40.4330   34.7900   48.9610 H   0  0  0  0  0  0  0  0  0  0  0  0
   41.0670   33.9510   46.6890 H   0  0  0  0  0  0  0  0  0  0  0  0
   39.7710   32.1820   45.2400 C   0  0  0  0  0  0  0  0  0  0  0  0
   40.6130   31.1720   44.8930 C   0  0  0  0  0  0  0  0  0  0  0  0
   40.6610   31.0910   43.5070 C   0  0  0  0  0  0  0  0  0  0  0  0
   39.8200   32.0880   43.0880 C   0  0  0  0  0  0  0  0  0  0  0  0
   39.2970   32.7300   44.1310 O   0  0  0  0  0  0  0  0  0  0  0  0
   41.1530   30.5380   45.5860 H   0  0  0  0  0  0  0  0  0  0  0  0
   41.2310   30.3990   42.8810 H   0  0  0  0  0  0  0  0  0  0  0  0
   39.5880   32.3460   42.0460 H   0  0  0  0  0  0  0  0  0  0  0  0
   36.7110   30.4510   46.0630 N   0  0  0  0  0  0  0  0  0  0  0  0
   37.3990   31.2180   46.5610 C   0  0  0  0  0  0  0  0  0  0  0  0
  1  6  1  0  0  0  0
  2  1  2  0  0  0  0
  2  3  1  0  0  0  0
  3  4  2  0  0  0  0
  4  5  1  0  0  0  0
  5  8  1  0  0  0  0
  6  5  2  0  0  0  0
  7  3  1  0  0  0  0
  9 10  2  0  0  0  0
  9 11  1  0  0  0  0
 11  2  1  0  0  0  0
 12 11  1  0  0  0  0
 13  9  1  0  0  0  0
 14 15  1  0  0  0  0
 14 13  1  0  0  0  0
 16 14  1  0  0  0  0
 17 16  1  0  0  0  0
 18 16  1  0  0  0  0
 19 18  1  0  0  0  0
 19 21  1  0  0  0  0
 20 19  1  0  0  0  0
 21 22  1  0  0  0  0
 21 13  1  0  0  0  0
 23  1  1  0  0  0  0
 24 25  1  0  0  0  0
 25 26  2  0  0  0  0
 25 23  1  0  0  0  0
 26 30  1  0  0  0  0
 27 31  1  0  0  0  0
 27 26  1  0  0  0  0
 28 27  2  0  0  0  0
 29 24  2  0  0  0  0
 29 28  1  0  0  0  0
 32 28  1  0  0  0  0
 33 29  1  0  0  0  0
 34 33  2  0  0  0  0
 34 38  1  0  0  0  0
 35 34  1  0  0  0  0
 36 35  2  0  0  0  0
 36 37  1  0  0  0  0
 37 33  1  0  0  0  0
 39 35  1  0  0  0  0
 40 36  1  0  0  0  0
 41 42  3  0  0  0  0
 42 24  1  0  0  0  0
M  END
>  <minimizedAffinity>
-5.96140718

>  <minimizedRMSD>
0.869627237

$$$$
