
 OpenBabel03272508573D

 41 44  0  0  1  0  0  0  0  0999 V2000
   39.1390   31.4050   43.3390 C   0  0  0  0  0  0  0  0  0  0  0  0
   40.2430   30.6080   43.5330 C   0  0  0  0  0  0  0  0  0  0  0  0
   40.9810   30.2510   42.4110 C   0  0  0  0  0  0  0  0  0  0  0  0
   40.5560   30.7200   41.1820 C   0  0  0  0  0  0  0  0  0  0  0  0
   39.4370   31.5250   40.9930 C   0  0  0  0  0  0  0  0  0  0  0  0
   38.7530   31.8450   42.1090 N   0  0  0  0  0  0  0  0  0  0  0  0
   40.5640   30.2490   44.5000 H   0  0  0  0  0  0  0  0  0  0  0  0
   41.8480   29.6320   42.5180 H   0  0  0  0  0  0  0  0  0  0  0  0
   41.1090   30.4590   40.2880 H   0  0  0  0  0  0  0  0  0  0  0  0
   38.3360   31.8170   44.5100 C   0  0  0  0  0  0  0  0  0  0  0  0
   37.2330   32.3590   44.4000 O   0  0  0  0  0  0  0  0  0  0  0  0
   38.9150   31.5510   45.8210 N   0  0  0  0  0  0  0  0  0  0  0  0
   39.8960   31.2790   45.9880 H   0  0  0  0  0  0  0  0  0  0  0  0
   38.4110   31.0850   48.2110 C   0  0  2  0  0  0  0  0  0  0  0  0
   38.6510   32.5480   48.1060 C   0  0  0  0  0  0  0  0  0  0  0  0
   38.0420   31.6800   46.9690 C   0  0  1  0  0  0  0  0  0  0  0  0
   39.3440   30.4900   48.3120 H   0  0  0  0  0  0  0  0  0  0  0  0
   37.9820   33.2640   48.6090 H   0  0  0  0  0  0  0  0  0  0  0  0
   39.6670   32.9210   47.9660 H   0  0  0  0  0  0  0  0  0  0  0  0
   36.9740   31.9310   46.7690 H   0  0  0  0  0  0  0  0  0  0  0  0
   35.0510   30.2260   49.5370 C   0  0  0  0  0  0  0  0  0  0  0  0
   35.3800   29.5670   50.7670 C   0  0  0  0  0  0  0  0  0  0  0  0
   36.7650   29.4420   51.1130 C   0  0  0  0  0  0  0  0  0  0  0  0
   37.7250   29.9480   50.2710 N   0  0  0  0  0  0  0  0  0  0  0  0
   37.3320   30.5590   49.1250 C   0  0  0  0  0  0  0  0  0  0  0  0
   36.0100   30.7160   48.7260 N   0  0  0  0  0  0  0  0  0  0  0  0
   33.9930   30.2930   49.3240 H   0  0  0  0  0  0  0  0  0  0  0  0
   34.6190   29.1730   51.4190 H   0  0  0  0  0  0  0  0  0  0  0  0
   37.0250   28.9470   52.0380 H   0  0  0  0  0  0  0  0  0  0  0  0
   39.0480   31.9800   39.6630 C   0  0  0  0  0  0  0  0  0  0  0  0
   39.1410   33.2010   39.3980 O   0  0  0  0  0  0  0  0  0  0  0  0
   38.5480   31.1460   38.5730 C   0  0  0  0  0  3  0  0  0  0  0  0
   37.5970   30.1210   39.2000 C   0  0  0  0  0  3  0  0  0  0  0  0
   36.8700   30.7250   39.7720 H   0  0  0  0  0  0  0  0  0  0  0  0
   36.9680   29.2660   38.1420 C   0  0  0  0  0  3  0  0  0  0  0  0
   36.2320   29.8400   37.5440 H   0  0  0  0  0  0  0  0  0  0  0  0
   37.9610   28.6730   37.3890 O   0  0  0  0  0  0  0  0  0  0  0  0
   38.7960   29.5770   36.7560 C   0  0  0  0  0  3  0  0  0  0  0  0
   38.1030   30.3240   36.2700 H   0  0  0  0  0  0  0  0  0  0  0  0
   39.5730   30.3840   37.8040 C   0  0  0  0  0  3  0  0  0  0  0  0
   40.1630   29.6750   38.3940 H   0  0  0  0  0  0  0  0  0  0  0  0
  1  2  1  0  0  0  0
  1 10  1  0  0  0  0
  2  7  1  0  0  0  0
  3  8  1  0  0  0  0
  3  2  2  0  0  0  0
  4  3  1  0  0  0  0
  5  4  2  0  0  0  0
  5  6  1  0  0  0  0
  6  1  2  0  0  0  0
  9  4  1  0  0  0  0
 10 12  1  0  0  0  0
 11 10  2  0  0  0  0
 12 13  1  0  0  0  0
 12 16  1  0  0  0  0
 14 17  1  6  0  0  0
 14 25  1  0  0  0  0
 15 14  1  0  0  0  0
 15 18  1  0  0  0  0
 16 20  1  6  0  0  0
 16 15  1  0  0  0  0
 16 14  1  0  0  0  0
 19 15  1  0  0  0  0
 21 22  1  0  0  0  0
 22 23  2  0  0  0  0
 22 28  1  0  0  0  0
 23 29  1  0  0  0  0
 24 23  1  0  0  0  0
 25 24  2  0  0  0  0
 26 25  1  0  0  0  0
 26 21  2  0  0  0  0
 27 21  1  0  0  0  0
 30  5  1  0  0  0  0
 31 30  2  0  0  0  0
 32 33  1  0  0  0  0
 32 30  1  0  0  0  0
 33 34  1  0  0  0  0
 35 33  1  0  0  0  0
 36 35  1  0  0  0  0
 37 35  1  0  0  0  0
 38 37  1  0  0  0  0
 38 40  1  0  0  0  0
 39 38  1  0  0  0  0
 40 41  1  0  0  0  0
 40 32  1  0  0  0  0
M  END
>  <minimizedAffinity>
-4.80953312

>  <minimizedRMSD>
1.14845932

$$$$
