
 OpenBabel03272508583D

 41 44  0  0  1  0  0  0  0  0999 V2000
   39.1160   31.4950   43.2970 C   0  0  0  0  0  0  0  0  0  0  0  0
   40.1120   30.5580   43.4350 C   0  0  0  0  0  0  0  0  0  0  0  0
   40.8340   30.2170   42.2990 C   0  0  0  0  0  0  0  0  0  0  0  0
   40.5030   30.8430   41.1110 C   0  0  0  0  0  0  0  0  0  0  0  0
   39.4930   31.7910   40.9780 C   0  0  0  0  0  0  0  0  0  0  0  0
   38.8200   32.0890   42.1070 N   0  0  0  0  0  0  0  0  0  0  0  0
   40.3600   30.0760   44.3700 H   0  0  0  0  0  0  0  0  0  0  0  0
   41.6180   29.4910   42.3630 H   0  0  0  0  0  0  0  0  0  0  0  0
   41.0470   30.5990   40.2070 H   0  0  0  0  0  0  0  0  0  0  0  0
   38.3340   31.8940   44.4870 C   0  0  0  0  0  0  0  0  0  0  0  0
   37.2440   32.4670   44.4020 O   0  0  0  0  0  0  0  0  0  0  0  0
   38.9160   31.5750   45.7840 N   0  0  0  0  0  0  0  0  0  0  0  0
   39.8910   31.2730   45.9340 H   0  0  0  0  0  0  0  0  0  0  0  0
   38.4300   31.0690   48.1700 C   0  0  2  0  0  0  0  0  0  0  0  0
   38.6890   32.5310   48.0900 C   0  0  0  0  0  0  0  0  0  0  0  0
   38.0570   31.6930   46.9440 C   0  0  1  0  0  0  0  0  0  0  0  0
   39.3570   30.4610   48.2500 H   0  0  0  0  0  0  0  0  0  0  0  0
   38.0330   33.2460   48.6130 H   0  0  0  0  0  0  0  0  0  0  0  0
   39.7070   32.8940   47.9460 H   0  0  0  0  0  0  0  0  0  0  0  0
   36.9900   31.9610   46.7590 H   0  0  0  0  0  0  0  0  0  0  0  0
   35.0730   30.2240   49.5120 C   0  0  0  0  0  0  0  0  0  0  0  0
   35.4070   29.5400   50.7280 C   0  0  0  0  0  0  0  0  0  0  0  0
   36.7940   29.3940   51.0590 C   0  0  0  0  0  0  0  0  0  0  0  0
   37.7510   29.9050   50.2160 N   0  0  0  0  0  0  0  0  0  0  0  0
   37.3540   30.5390   49.0850 C   0  0  0  0  0  0  0  0  0  0  0  0
   36.0300   30.7180   48.7000 N   0  0  0  0  0  0  0  0  0  0  0  0
   34.0140   30.3060   49.3100 H   0  0  0  0  0  0  0  0  0  0  0  0
   34.6480   29.1440   51.3800 H   0  0  0  0  0  0  0  0  0  0  0  0
   37.0570   28.8810   51.9720 H   0  0  0  0  0  0  0  0  0  0  0  0
   39.2000   32.4070   39.6900 C   0  0  0  0  0  0  0  0  0  0  0  0
   38.7730   33.5860   39.6740 O   0  0  0  0  0  0  0  0  0  0  0  0
   39.3520   31.7870   38.3760 C   0  0  0  0  0  3  0  0  0  0  0  0
   40.4800   32.5410   37.6610 C   0  0  0  0  0  3  0  0  0  0  0  0
   41.3340   32.4990   38.3610 H   0  0  0  0  0  0  0  0  0  0  0  0
   40.7670   31.9220   36.3260 C   0  0  0  0  0  3  0  0  0  0  0  0
   41.2590   30.9360   36.4360 H   0  0  0  0  0  0  0  0  0  0  0  0
   39.6010   31.8870   35.5850 O   0  0  0  0  0  0  0  0  0  0  0  0
   38.5860   31.1570   36.1760 C   0  0  0  0  0  3  0  0  0  0  0  0
   39.0690   30.1880   36.4950 H   0  0  0  0  0  0  0  0  0  0  0  0
   38.1580   31.8340   37.4840 C   0  0  0  0  0  3  0  0  0  0  0  0
   37.8040   32.8390   37.2340 H   0  0  0  0  0  0  0  0  0  0  0  0
  1  2  1  0  0  0  0
  1 10  1  0  0  0  0
  2  7  1  0  0  0  0
  3  8  1  0  0  0  0
  3  2  2  0  0  0  0
  4  3  1  0  0  0  0
  5  4  2  0  0  0  0
  5  6  1  0  0  0  0
  6  1  2  0  0  0  0
  9  4  1  0  0  0  0
 10 12  1  0  0  0  0
 11 10  2  0  0  0  0
 12 13  1  0  0  0  0
 12 16  1  0  0  0  0
 14 17  1  6  0  0  0
 14 25  1  0  0  0  0
 15 14  1  0  0  0  0
 15 18  1  0  0  0  0
 16 20  1  6  0  0  0
 16 15  1  0  0  0  0
 16 14  1  0  0  0  0
 19 15  1  0  0  0  0
 21 22  1  0  0  0  0
 22 23  2  0  0  0  0
 22 28  1  0  0  0  0
 23 29  1  0  0  0  0
 24 23  1  0  0  0  0
 25 24  2  0  0  0  0
 26 25  1  0  0  0  0
 26 21  2  0  0  0  0
 27 21  1  0  0  0  0
 30  5  1  0  0  0  0
 31 30  2  0  0  0  0
 32 30  1  0  0  0  0
 33 34  1  0  0  0  0
 33 32  1  0  0  0  0
 35 36  1  0  0  0  0
 35 33  1  0  0  0  0
 37 38  1  0  0  0  0
 37 35  1  0  0  0  0
 38 39  1  0  0  0  0
 38 40  1  0  0  0  0
 40 32  1  0  0  0  0
 41 40  1  0  0  0  0
M  END
>  <minimizedAffinity>
-4.90887928

>  <minimizedRMSD>
0.122705437

$$$$
