
 OpenBabel03272504413D

 46 48  0  0  0  0  0  0  0  0999 V2000
   34.8050   29.3870   48.8320 C   0  0  0  0  0  0  0  0  0  0  0  0
   34.1800   30.2030   49.2900 H   0  0  0  0  0  0  0  0  0  0  0  0
   35.7290   29.3960   49.4820 H   0  0  0  0  0  0  0  0  0  0  0  0
   37.5620   30.4420   48.5350 Cl  0  0  0  0  0  0  0  0  0  0  0  0
   36.4140   30.2930   47.1930 C   0  0  0  0  0  0  0  0  0  0  0  0
   36.7960   30.6750   45.9550 C   0  0  0  0  0  0  0  0  0  0  0  0
   35.9130   30.5650   44.9050 C   0  0  0  0  0  0  0  0  0  0  0  0
   34.6470   30.0610   45.1580 C   0  0  0  0  0  0  0  0  0  0  0  0
   34.3210   29.6850   46.4660 C   0  0  0  0  0  0  0  0  0  0  0  0
   35.1750   29.7860   47.5040 C   0  0  0  0  0  0  0  0  0  0  0  0
   36.2370   30.8790   43.9110 H   0  0  0  0  0  0  0  0  0  0  0  0
   34.0200   30.0080   44.2870 H   0  0  0  0  0  0  0  0  0  0  0  0
   33.3420   29.3280   46.4820 H   0  0  0  0  0  0  0  0  0  0  0  0
   39.7830   32.8330   46.0110 C   0  0  0  0  0  0  0  0  0  0  0  0
   40.6520   32.1180   45.1370 C   0  0  0  0  0  0  0  0  0  0  0  0
   40.1790   30.9190   44.5590 C   0  0  0  0  0  0  0  0  0  0  0  0
   38.9240   30.5020   44.8620 N   0  0  0  0  0  0  0  0  0  0  0  0
   38.1250   31.2080   45.6980 C   0  0  0  0  0  0  0  0  0  0  0  0
   38.5570   32.3520   46.2580 N   0  0  0  0  0  0  0  0  0  0  0  0
   40.1490   33.7520   46.4530 H   0  0  0  0  0  0  0  0  0  0  0  0
   41.6270   32.5590   44.9800 H   0  0  0  0  0  0  0  0  0  0  0  0
   41.0520   30.2400   43.7060 N   0  0  0  0  0  0  0  0  0  0  0  0
   41.6180   30.6750   42.9720 H   0  0  0  0  0  0  0  0  0  0  0  0
   41.1530   29.2010   43.8050 H   0  0  0  0  0  0  0  0  0  0  0  0
   34.1190   28.0990   49.0360 C   0  0  0  0  0  0  0  0  0  0  0  0
   34.5440   27.5180   49.8890 H   0  0  0  0  0  0  0  0  0  0  0  0
   34.2760   27.4580   48.1350 H   0  0  0  0  0  0  0  0  0  0  0  0
   32.7900   28.2820   49.3120 O   0  0  0  0  0  0  0  0  0  0  0  0
   32.6530   26.5380   47.3510 O   0  0  0  0  0  0  0  0  0  0  0  0
   31.8310   27.4270   48.2320 P   0  0  2  0  0  0  0  0  0  0  0  0
   31.0040   28.5990   47.2750 O   0  0  0  0  0  0  0  0  0  0  0  0
   30.7680   28.0460   46.0180 C   0  0  0  0  0  0  0  0  0  0  0  0
   29.3810   27.5040   45.8100 C   0  0  0  0  0  0  0  0  0  0  0  0
   29.3860   26.9910   44.8130 H   0  0  0  0  0  0  0  0  0  0  0  0
   28.3470   28.5880   45.7230 C   0  0  0  0  0  0  0  0  0  0  0  0
   27.4730   28.1280   45.1630 H   0  0  0  0  0  0  0  0  0  0  0  0
   28.7900   29.6710   44.9610 O   0  0  0  0  0  0  0  0  0  0  0  0
   29.8240   29.3150   44.1160 C   0  0  0  0  0  0  0  0  0  0  0  0
   29.4860   28.4770   43.4830 H   0  0  0  0  0  0  0  0  0  0  0  0
   31.0570   29.0100   44.9180 C   0  0  0  0  0  0  0  0  0  0  0  0
   31.9030   28.6730   44.2760 H   0  0  0  0  0  0  0  0  0  0  0  0
   30.6530   26.5400   48.9940 O   0  0  0  0  0  0  0  0  0  0  0  0
   29.8350   27.3350   49.7650 C   0  0  0  0  0  0  0  0  0  0  0  0
   29.3080   26.6520   50.8630 F   0  0  0  0  0  0  0  0  0  0  0  0
   30.5270   28.4210   50.2820 F   0  0  0  0  0  0  0  0  0  0  0  0
   28.7850   27.8140   49.0240 F   0  0  0  0  0  0  0  0  0  0  0  0
  1 25  1  0  0  0  0
  1  2  1  0  0  0  0
  1  3  1  0  0  0  0
  5 10  1  0  0  0  0
  5  4  1  0  0  0  0
  6  5  2  0  0  0  0
  7  8  2  0  0  0  0
  7  6  1  0  0  0  0
  8  9  1  0  0  0  0
  9 13  1  0  0  0  0
  9 10  2  0  0  0  0
 10  1  1  0  0  0  0
 11  7  1  0  0  0  0
 12  8  1  0  0  0  0
 14 19  1  0  0  0  0
 14 20  1  0  0  0  0
 15 14  2  0  0  0  0
 16 17  2  0  0  0  0
 16 15  1  0  0  0  0
 17 18  1  0  0  0  0
 18  6  1  0  0  0  0
 18 19  2  0  0  0  0
 21 15  1  0  0  0  0
 22 24  1  0  0  0  0
 22 16  1  0  0  0  0
 23 22  1  0  0  0  0
 25 28  1  0  0  0  0
 25 26  1  0  0  0  0
 27 25  1  0  0  0  0
 30 29  2  6  0  0  0
 30 42  1  0  0  0  0
 30 28  1  0  0  0  0
 31 30  1  0  0  0  0
 32 31  1  0  0  0  0
 33 32  1  0  0  0  0
 34 33  1  0  0  0  0
 35 33  1  0  0  0  0
 36 35  1  0  0  0  0
 37 35  1  0  0  0  0
 38 40  1  0  0  0  0
 38 37  1  0  0  0  0
 39 38  1  0  0  0  0
 40 32  1  0  0  0  0
 41 40  1  0  0  0  0
 42 43  1  0  0  0  0
 43 45  1  0  0  0  0
 43 44  1  0  0  0  0
 46 43  1  0  0  0  0
M  END
>  <minimizedAffinity>
-5.75835848

>  <minimizedRMSD>
0.299877048

$$$$
