
 OpenBabel03272509443D

 39 41  0  0  1  0  0  0  0  0999 V2000
   39.6750   26.9560   34.3350 C   0  0  0  0  0  0  0  0  0  0  0  0
   41.0630   26.8510   34.2130 C   0  0  0  0  0  0  0  0  0  0  0  0
   41.7020   27.0120   32.9920 C   0  0  0  0  0  0  0  0  0  0  0  0
   40.9490   27.2860   31.8500 C   0  0  0  0  0  0  0  0  0  0  0  0
   39.5920   27.3860   31.9880 C   0  0  0  0  0  0  0  0  0  0  0  0
   38.9830   27.2200   33.2210 C   0  0  0  0  0  0  0  0  0  0  0  0
   41.6190   26.6350   35.1310 H   0  0  0  0  0  0  0  0  0  0  0  0
   42.7730   26.9040   33.0430 H   0  0  0  0  0  0  0  0  0  0  0  0
   41.5160   27.3980   30.9370 H   0  0  0  0  0  0  0  0  0  0  0  0
   39.1380   27.6010   31.0140 H   0  0  0  0  0  0  0  0  0  0  0  0
   39.0050   26.7540   35.6000 C   0  0  2  0  0  0  0  0  0  0  0  0
   39.8540   26.6340   36.3760 H   0  0  0  0  0  0  0  0  0  0  0  0
   38.1480   23.2280   35.3890 C   0  0  0  0  0  0  0  0  0  0  0  0
   37.7600   22.9000   36.6730 C   0  0  0  0  0  0  0  0  0  0  0  0
   37.7270   23.9070   37.6210 C   0  0  0  0  0  0  0  0  0  0  0  0
   38.0790   25.1880   37.2570 N   0  0  0  0  0  0  0  0  0  0  0  0
   38.4430   25.4370   36.0160 C   0  0  0  0  0  0  0  0  0  0  0  0
   38.4800   24.4680   35.0780 N   0  0  0  0  0  0  0  0  0  0  0  0
   38.1880   22.4620   34.6090 H   0  0  0  0  0  0  0  0  0  0  0  0
   37.5080   21.8670   36.8430 H   0  0  0  0  0  0  0  0  0  0  0  0
   37.4200   23.6470   38.6240 H   0  0  0  0  0  0  0  0  0  0  0  0
   38.5130   27.8410   36.0800 O   0  0  0  0  0  0  0  0  0  0  0  0
   37.7280   28.2910   35.7010 H   0  0  0  0  0  0  0  0  0  0  0  0
   37.5420   27.3200   33.2140 C   0  0  0  0  0  3  0  0  0  0  0  0
   36.8710   28.3440   32.6740 C   0  0  0  0  0  3  0  0  0  0  0  0
   35.4040   28.5260   32.5690 C   0  0  0  0  0  0  0  0  0  0  0  0
   35.1500   28.4460   31.4770 H   0  0  0  0  0  0  0  0  0  0  0  0
   34.8910   27.7310   33.1270 H   0  0  0  0  0  0  0  0  0  0  0  0
   34.9600   30.1870   33.0810 S   0  0  0  0  0  0  0  0  0  0  0  0
   34.7630   30.3260   34.8730 C   0  0  0  0  0  3  0  0  0  0  0  0
   33.4290   30.9150   35.1930 C   0  0  0  0  0  3  0  0  0  0  0  0
   33.1460   31.7570   34.5360 H   0  0  0  0  0  0  0  0  0  0  0  0
   33.2490   31.3270   36.6130 C   0  0  0  0  0  3  0  0  0  0  0  0
   32.9200   30.4310   37.2050 H   0  0  0  0  0  0  0  0  0  0  0  0
   34.3450   31.8880   37.2210 O   0  0  0  0  0  0  0  0  0  0  0  0
   35.3770   32.2430   36.3840 C   0  0  0  0  0  3  0  0  0  0  0  0
   36.2470   32.4820   37.0610 H   0  0  0  0  0  0  0  0  0  0  0  0
   35.8460   31.1570   35.4740 C   0  0  0  0  0  3  0  0  0  0  0  0
   36.4360   31.6420   34.6440 H   0  0  0  0  0  0  0  0  0  0  0  0
  1 11  1  0  0  0  0
  2  1  1  0  0  0  0
  2  7  1  0  0  0  0
  3  8  1  0  0  0  0
  3  2  2  0  0  0  0
  4  5  2  0  0  0  0
  4  3  1  0  0  0  0
  5  6  1  0  0  0  0
  6  1  2  0  0  0  0
  9  4  1  0  0  0  0
 10  5  1  0  0  0  0
 11 17  1  0  0  0  0
 11 22  1  0  0  0  0
 11 12  1  1  0  0  0
 13 14  1  0  0  0  0
 14 20  1  0  0  0  0
 14 15  2  0  0  0  0
 15 21  1  0  0  0  0
 16 15  1  0  0  0  0
 17 16  2  0  0  0  0
 18 13  2  0  0  0  0
 18 17  1  0  0  0  0
 19 13  1  0  0  0  0
 23 22  1  0  0  0  0
 24  6  1  0  0  0  0
 25 24  2  0  0  0  0
 26 25  1  0  0  0  0
 26 29  1  0  0  0  0
 26 28  1  0  0  0  0
 27 26  1  0  0  0  0
 29 30  1  0  0  0  0
 30 31  1  0  0  0  0
 30 38  1  0  0  0  0
 31 33  1  0  0  0  0
 32 31  1  0  0  0  0
 33 34  1  0  0  0  0
 33 35  1  0  0  0  0
 36 37  1  0  0  0  0
 36 35  1  0  0  0  0
 38 36  1  0  0  0  0
 39 38  1  0  0  0  0
M  END
>  <minimizedAffinity>
-5.82866907

$$$$

 OpenBabel03272509443D

 39 41  0  0  1  0  0  0  0  0999 V2000
   40.0050   26.9250   34.2220 C   0  0  0  0  0  0  0  0  0  0  0  0
   41.4000   26.9570   34.1590 C   0  0  0  0  0  0  0  0  0  0  0  0
   42.0710   27.2060   32.9700 C   0  0  0  0  0  0  0  0  0  0  0  0
   41.3430   27.4310   31.8020 C   0  0  0  0  0  0  0  0  0  0  0  0
   39.9780   27.3960   31.8820 C   0  0  0  0  0  0  0  0  0  0  0  0
   39.3370   27.1440   33.0840 C   0  0  0  0  0  0  0  0  0  0  0  0
   41.9360   26.7760   35.0970 H   0  0  0  0  0  0  0  0  0  0  0  0
   43.1440   27.2010   33.0670 H   0  0  0  0  0  0  0  0  0  0  0  0
   41.9340   27.6170   30.9170 H   0  0  0  0  0  0  0  0  0  0  0  0
   39.5470   27.5870   30.8920 H   0  0  0  0  0  0  0  0  0  0  0  0
   39.3050   26.6310   35.4530 C   0  0  2  0  0  0  0  0  0  0  0  0
   40.1360   26.4280   36.2320 H   0  0  0  0  0  0  0  0  0  0  0  0
   38.7710   23.0440   35.2130 C   0  0  0  0  0  0  0  0  0  0  0  0
   37.9840   22.7490   36.3090 C   0  0  0  0  0  0  0  0  0  0  0  0
   37.5700   23.7940   37.1150 C   0  0  0  0  0  0  0  0  0  0  0  0
   37.9540   25.0790   36.8030 N   0  0  0  0  0  0  0  0  0  0  0  0
   38.7090   25.2960   35.7450 C   0  0  0  0  0  0  0  0  0  0  0  0
   39.1200   24.2900   34.9470 N   0  0  0  0  0  0  0  0  0  0  0  0
   39.1200   22.2470   34.5490 H   0  0  0  0  0  0  0  0  0  0  0  0
   37.7470   21.7080   36.4550 H   0  0  0  0  0  0  0  0  0  0  0  0
   36.9530   23.5580   37.9700 H   0  0  0  0  0  0  0  0  0  0  0  0
   38.8240   27.6840   36.0140 O   0  0  0  0  0  0  0  0  0  0  0  0
   38.0570   28.1810   35.6600 H   0  0  0  0  0  0  0  0  0  0  0  0
   37.8940   27.1050   33.0150 C   0  0  0  0  0  3  0  0  0  0  0  0
   37.2060   27.0700   31.8690 C   0  0  0  0  0  3  0  0  0  0  0  0
   35.7380   26.9820   31.6820 C   0  0  0  0  0  0  0  0  0  0  0  0
   35.2860   26.9880   32.7110 H   0  0  0  0  0  0  0  0  0  0  0  0
   35.3830   27.8540   31.1170 H   0  0  0  0  0  0  0  0  0  0  0  0
   35.3140   25.4040   30.9420 S   0  0  0  0  0  0  0  0  0  0  0  0
   36.3560   24.0560   31.5500 C   0  0  0  0  0  3  0  0  0  0  0  0
   37.4650   23.7960   30.5850 C   0  0  0  0  0  3  0  0  0  0  0  0
   37.1480   23.8200   29.5270 H   0  0  0  0  0  0  0  0  0  0  0  0
   38.2320   22.5440   30.8340 C   0  0  0  0  0  3  0  0  0  0  0  0
   39.0330   22.7610   31.5910 H   0  0  0  0  0  0  0  0  0  0  0  0
   37.5000   21.4620   31.2540 O   0  0  0  0  0  0  0  0  0  0  0  0
   36.1340   21.5830   31.1390 C   0  0  0  0  0  3  0  0  0  0  0  0
   35.7050   20.7110   31.7120 H   0  0  0  0  0  0  0  0  0  0  0  0
   35.5620   22.8120   31.7630 C   0  0  0  0  0  3  0  0  0  0  0  0
   34.5300   22.9600   31.3310 H   0  0  0  0  0  0  0  0  0  0  0  0
  1 11  1  0  0  0  0
  2  1  1  0  0  0  0
  2  7  1  0  0  0  0
  3  8  1  0  0  0  0
  3  2  2  0  0  0  0
  4  5  2  0  0  0  0
  4  3  1  0  0  0  0
  5  6  1  0  0  0  0
  6  1  2  0  0  0  0
  9  4  1  0  0  0  0
 10  5  1  0  0  0  0
 11 17  1  0  0  0  0
 11 22  1  0  0  0  0
 11 12  1  1  0  0  0
 13 14  1  0  0  0  0
 14 20  1  0  0  0  0
 14 15  2  0  0  0  0
 15 21  1  0  0  0  0
 16 15  1  0  0  0  0
 17 16  2  0  0  0  0
 18 13  2  0  0  0  0
 18 17  1  0  0  0  0
 19 13  1  0  0  0  0
 23 22  1  0  0  0  0
 24  6  1  0  0  0  0
 25 24  2  0  0  0  0
 26 25  1  0  0  0  0
 26 27  1  0  0  0  0
 28 26  1  0  0  0  0
 29 30  1  0  0  0  0
 29 26  1  0  0  0  0
 30 38  1  0  0  0  0
 31 33  1  0  0  0  0
 31 30  1  0  0  0  0
 32 31  1  0  0  0  0
 33 35  1  0  0  0  0
 33 34  1  0  0  0  0
 36 35  1  0  0  0  0
 36 37  1  0  0  0  0
 36 38  1  0  0  0  0
 39 38  1  0  0  0  0
M  END
>  <minimizedAffinity>
-5.64425516

$$$$

 OpenBabel03272509443D

 39 41  0  0  1  0  0  0  0  0999 V2000
   36.3740   28.3890   31.9560 C   0  0  0  0  0  0  0  0  0  0  0  0
   35.6070   29.5520   31.8530 C   0  0  0  0  0  0  0  0  0  0  0  0
   35.1470   30.2230   32.9770 C   0  0  0  0  0  0  0  0  0  0  0  0
   35.4530   29.7320   34.2470 C   0  0  0  0  0  0  0  0  0  0  0  0
   36.2050   28.5920   34.3280 C   0  0  0  0  0  0  0  0  0  0  0  0
   36.6490   27.9450   33.1870 C   0  0  0  0  0  0  0  0  0  0  0  0
   35.3880   29.9060   30.8410 H   0  0  0  0  0  0  0  0  0  0  0  0
   34.5670   31.1030   32.7520 H   0  0  0  0  0  0  0  0  0  0  0  0
   35.0600   30.3070   35.0730 H   0  0  0  0  0  0  0  0  0  0  0  0
   36.3620   28.3290   35.3800 H   0  0  0  0  0  0  0  0  0  0  0  0
   36.8250   27.6690   30.7850 C   0  0  2  0  0  0  0  0  0  0  0  0
   37.5140   26.8330   31.1910 H   0  0  0  0  0  0  0  0  0  0  0  0
   38.4440   29.3650   28.0070 C   0  0  0  0  0  0  0  0  0  0  0  0
   39.7800   29.3790   28.3570 C   0  0  0  0  0  0  0  0  0  0  0  0
   40.1540   28.7460   29.5280 C   0  0  0  0  0  0  0  0  0  0  0  0
   39.1930   28.1320   30.2990 N   0  0  0  0  0  0  0  0  0  0  0  0
   37.9340   28.1550   29.9140 C   0  0  0  0  0  0  0  0  0  0  0  0
   37.5510   28.7660   28.7740 N   0  0  0  0  0  0  0  0  0  0  0  0
   38.1060   29.8520   27.0880 H   0  0  0  0  0  0  0  0  0  0  0  0
   40.4420   29.8900   27.6780 H   0  0  0  0  0  0  0  0  0  0  0  0
   41.2010   28.7570   29.7960 H   0  0  0  0  0  0  0  0  0  0  0  0
   35.9190   26.8970   30.2980 O   0  0  0  0  0  0  0  0  0  0  0  0
   35.1250   27.2270   29.8270 H   0  0  0  0  0  0  0  0  0  0  0  0
   37.4060   26.7360   33.4210 C   0  0  0  0  0  3  0  0  0  0  0  0
   38.6630   26.7240   33.8770 C   0  0  0  0  0  3  0  0  0  0  0  0
   39.5120   25.5510   34.1960 C   0  0  0  0  0  0  0  0  0  0  0  0
   40.2530   25.4570   33.3560 H   0  0  0  0  0  0  0  0  0  0  0  0
   40.0440   25.7240   35.1410 H   0  0  0  0  0  0  0  0  0  0  0  0
   38.5170   24.0580   34.1740 S   0  0  0  0  0  0  0  0  0  0  0  0
   38.1870   23.4260   35.8360 C   0  0  0  0  0  3  0  0  0  0  0  0
   38.0030   24.5640   36.7850 C   0  0  0  0  0  3  0  0  0  0  0  0
   38.7250   25.3880   36.6360 H   0  0  0  0  0  0  0  0  0  0  0  0
   37.9910   24.1840   38.2260 C   0  0  0  0  0  3  0  0  0  0  0  0
   36.9480   23.8730   38.5030 H   0  0  0  0  0  0  0  0  0  0  0  0
   38.8680   23.1950   38.5950 O   0  0  0  0  0  0  0  0  0  0  0  0
   39.8250   22.8650   37.6640 C   0  0  0  0  0  3  0  0  0  0  0  0
   40.3050   21.9190   38.0460 H   0  0  0  0  0  0  0  0  0  0  0  0
   39.2920   22.5410   36.3080 C   0  0  0  0  0  3  0  0  0  0  0  0
   40.1510   22.6130   35.5810 H   0  0  0  0  0  0  0  0  0  0  0  0
  1  6  1  0  0  0  0
  2  1  2  0  0  0  0
  2  3  1  0  0  0  0
  3  4  2  0  0  0  0
  4  5  1  0  0  0  0
  4  9  1  0  0  0  0
  5 10  1  0  0  0  0
  6 24  1  0  0  0  0
  6  5  2  0  0  0  0
  7  2  1  0  0  0  0
  8  3  1  0  0  0  0
 11 12  1  1  0  0  0
 11  1  1  0  0  0  0
 13 14  2  0  0  0  0
 13 18  1  0  0  0  0
 14 15  1  0  0  0  0
 15 21  1  0  0  0  0
 15 16  2  0  0  0  0
 17 16  1  0  0  0  0
 17 11  1  0  0  0  0
 18 17  2  0  0  0  0
 19 13  1  0  0  0  0
 20 14  1  0  0  0  0
 22 11  1  0  0  0  0
 23 22  1  0  0  0  0
 24 25  2  0  0  0  0
 25 26  1  0  0  0  0
 26 28  1  0  0  0  0
 27 26  1  0  0  0  0
 29 26  1  0  0  0  0
 29 30  1  0  0  0  0
 30 38  1  0  0  0  0
 30 31  1  0  0  0  0
 31 33  1  0  0  0  0
 32 31  1  0  0  0  0
 33 34  1  0  0  0  0
 33 35  1  0  0  0  0
 36 37  1  0  0  0  0
 36 35  1  0  0  0  0
 38 36  1  0  0  0  0
 39 38  1  0  0  0  0
M  END
>  <minimizedAffinity>
-5.5829134

$$$$

 OpenBabel03272509443D

 39 41  0  0  1  0  0  0  0  0999 V2000
   36.7270   28.3910   32.4650 C   0  0  0  0  0  0  0  0  0  0  0  0
   36.2040   29.4480   31.7160 C   0  0  0  0  0  0  0  0  0  0  0  0
   35.4550   30.4570   32.3040 C   0  0  0  0  0  0  0  0  0  0  0  0
   35.2120   30.4250   33.6780 C   0  0  0  0  0  0  0  0  0  0  0  0
   35.7320   29.3830   34.3950 C   0  0  0  0  0  0  0  0  0  0  0  0
   36.4760   28.3900   33.7790 C   0  0  0  0  0  0  0  0  0  0  0  0
   36.4150   29.4380   30.6420 H   0  0  0  0  0  0  0  0  0  0  0  0
   35.1140   31.2080   31.6100 H   0  0  0  0  0  0  0  0  0  0  0  0
   34.6220   31.2440   34.0630 H   0  0  0  0  0  0  0  0  0  0  0  0
   35.4600   29.4910   35.4510 H   0  0  0  0  0  0  0  0  0  0  0  0
   37.4780   27.3190   31.8480 C   0  0  2  0  0  0  0  0  0  0  0  0
   37.4090   27.5180   30.7100 H   0  0  0  0  0  0  0  0  0  0  0  0
   37.1320   23.7180   32.2000 C   0  0  0  0  0  0  0  0  0  0  0  0
   35.9000   23.4440   31.6400 C   0  0  0  0  0  0  0  0  0  0  0  0
   35.1940   24.4890   31.0730 C   0  0  0  0  0  0  0  0  0  0  0  0
   35.7360   25.7550   31.0880 N   0  0  0  0  0  0  0  0  0  0  0  0
   36.9150   25.9540   31.6400 C   0  0  0  0  0  0  0  0  0  0  0  0
   37.6190   24.9460   32.1950 N   0  0  0  0  0  0  0  0  0  0  0  0
   37.7240   22.9200   32.6570 H   0  0  0  0  0  0  0  0  0  0  0  0
   35.5760   22.4170   31.6860 H   0  0  0  0  0  0  0  0  0  0  0  0
   34.2310   24.2700   30.6340 H   0  0  0  0  0  0  0  0  0  0  0  0
   38.7490   27.4800   31.9540 O   0  0  0  0  0  0  0  0  0  0  0  0
   39.2370   27.3770   32.7980 H   0  0  0  0  0  0  0  0  0  0  0  0
   36.9350   27.3340   34.6520 C   0  0  0  0  0  3  0  0  0  0  0  0
   38.0030   27.4420   35.4500 C   0  0  0  0  0  3  0  0  0  0  0  0
   38.5330   26.4480   36.4130 C   0  0  0  0  0  0  0  0  0  0  0  0
   39.6240   26.3240   36.1750 H   0  0  0  0  0  0  0  0  0  0  0  0
   38.4190   26.8280   37.4380 H   0  0  0  0  0  0  0  0  0  0  0  0
   37.7580   24.8550   36.1290 S   0  0  0  0  0  0  0  0  0  0  0  0
   38.9670   23.5160   35.9960 C   0  0  0  0  0  3  0  0  0  0  0  0
   39.4380   23.1190   37.3560 C   0  0  0  0  0  3  0  0  0  0  0  0
   39.6290   23.9770   38.0270 H   0  0  0  0  0  0  0  0  0  0  0  0
   40.6230   22.2180   37.3720 C   0  0  0  0  0  3  0  0  0  0  0  0
   40.2660   21.1590   37.2610 H   0  0  0  0  0  0  0  0  0  0  0  0
   41.5830   22.4690   36.4240 O   0  0  0  0  0  0  0  0  0  0  0  0
   41.4680   23.6670   35.7580 C   0  0  0  0  0  3  0  0  0  0  0  0
   42.1950   23.6060   34.8980 H   0  0  0  0  0  0  0  0  0  0  0  0
   40.1280   23.9170   35.1500 C   0  0  0  0  0  3  0  0  0  0  0  0
   40.0560   25.0220   34.9340 H   0  0  0  0  0  0  0  0  0  0  0  0
  1  6  1  0  0  0  0
  2  3  1  0  0  0  0
  2  1  2  0  0  0  0
  3  4  2  0  0  0  0
  4  9  1  0  0  0  0
  4  5  1  0  0  0  0
  5 10  1  0  0  0  0
  6  5  2  0  0  0  0
  6 24  1  0  0  0  0
  7  2  1  0  0  0  0
  8  3  1  0  0  0  0
 11 12  1  6  0  0  0
 11 22  1  0  0  0  0
 11  1  1  0  0  0  0
 13 19  1  0  0  0  0
 14 20  1  0  0  0  0
 14 13  2  0  0  0  0
 15 16  2  0  0  0  0
 15 14  1  0  0  0  0
 16 17  1  0  0  0  0
 17 11  1  0  0  0  0
 17 18  2  0  0  0  0
 18 13  1  0  0  0  0
 21 15  1  0  0  0  0
 22 23  1  0  0  0  0
 24 25  2  0  0  0  0
 25 26  1  0  0  0  0
 26 28  1  0  0  0  0
 27 26  1  0  0  0  0
 29 26  1  0  0  0  0
 30 29  1  0  0  0  0
 30 31  1  0  0  0  0
 31 33  1  0  0  0  0
 31 32  1  0  0  0  0
 34 33  1  0  0  0  0
 35 33  1  0  0  0  0
 36 35  1  0  0  0  0
 37 36  1  0  0  0  0
 38 36  1  0  0  0  0
 38 30  1  0  0  0  0
 39 38  1  0  0  0  0
M  END
>  <minimizedAffinity>
-5.56048822

$$$$

 OpenBabel03272509443D

 39 41  0  0  1  0  0  0  0  0999 V2000
   35.9190   29.1340   33.0100 C   0  0  0  0  0  0  0  0  0  0  0  0
   35.8580   29.6320   31.7060 C   0  0  0  0  0  0  0  0  0  0  0  0
   36.6730   29.1370   30.6980 C   0  0  0  0  0  0  0  0  0  0  0  0
   37.5780   28.1150   30.9820 C   0  0  0  0  0  0  0  0  0  0  0  0
   37.6240   27.6390   32.2640 C   0  0  0  0  0  0  0  0  0  0  0  0
   36.7980   28.1550   33.2490 C   0  0  0  0  0  0  0  0  0  0  0  0
   35.1350   30.4340   31.5220 H   0  0  0  0  0  0  0  0  0  0  0  0
   36.5210   29.6120   29.7420 H   0  0  0  0  0  0  0  0  0  0  0  0
   38.1780   27.7810   30.1480 H   0  0  0  0  0  0  0  0  0  0  0  0
   38.3780   26.8470   32.3360 H   0  0  0  0  0  0  0  0  0  0  0  0
   35.0950   29.6730   34.0690 C   0  0  2  0  0  0  0  0  0  0  0  0
   35.2780   28.9800   34.9770 H   0  0  0  0  0  0  0  0  0  0  0  0
   31.7860   29.5050   35.5640 C   0  0  0  0  0  0  0  0  0  0  0  0
   30.9450   29.2830   34.4910 C   0  0  0  0  0  0  0  0  0  0  0  0
   31.5130   29.1240   33.2400 C   0  0  0  0  0  0  0  0  0  0  0  0
   32.8820   29.1930   33.1070 N   0  0  0  0  0  0  0  0  0  0  0  0
   33.6300   29.4100   34.1680 C   0  0  0  0  0  0  0  0  0  0  0  0
   33.0950   29.5650   35.3960 N   0  0  0  0  0  0  0  0  0  0  0  0
   31.3780   29.6350   36.5700 H   0  0  0  0  0  0  0  0  0  0  0  0
   29.8910   29.2490   34.7130 H   0  0  0  0  0  0  0  0  0  0  0  0
   30.8510   28.9490   32.4030 H   0  0  0  0  0  0  0  0  0  0  0  0
   35.5910   30.7390   34.5900 O   0  0  0  0  0  0  0  0  0  0  0  0
   35.6160   31.6040   34.1270 H   0  0  0  0  0  0  0  0  0  0  0  0
   36.9750   27.5810   34.5630 C   0  0  0  0  0  3  0  0  0  0  0  0
   38.0830   26.9400   34.9510 C   0  0  0  0  0  3  0  0  0  0  0  0
   38.3900   26.3570   36.2790 C   0  0  0  0  0  0  0  0  0  0  0  0
   39.5060   26.2340   36.3230 H   0  0  0  0  0  0  0  0  0  0  0  0
   38.0620   27.0450   37.0700 H   0  0  0  0  0  0  0  0  0  0  0  0
   37.6840   24.7120   36.3970 S   0  0  0  0  0  0  0  0  0  0  0  0
   38.9300   23.4140   36.2120 C   0  0  0  0  0  3  0  0  0  0  0  0
   39.4960   23.0580   37.5460 C   0  0  0  0  0  3  0  0  0  0  0  0
   39.6960   23.9330   38.1910 H   0  0  0  0  0  0  0  0  0  0  0  0
   40.7120   22.1990   37.5040 C   0  0  0  0  0  3  0  0  0  0  0  0
   40.3880   21.1260   37.4310 H   0  0  0  0  0  0  0  0  0  0  0  0
   41.6040   22.4670   36.4960 O   0  0  0  0  0  0  0  0  0  0  0  0
   41.4060   23.6480   35.8200 C   0  0  0  0  0  3  0  0  0  0  0  0
   42.0820   23.5980   34.9180 H   0  0  0  0  0  0  0  0  0  0  0  0
   40.0230   23.8410   35.2900 C   0  0  0  0  0  3  0  0  0  0  0  0
   39.8990   24.9380   35.0620 H   0  0  0  0  0  0  0  0  0  0  0  0
  1  6  1  0  0  0  0
  1 11  1  0  0  0  0
  2  1  2  0  0  0  0
  3  4  2  0  0  0  0
  3  2  1  0  0  0  0
  4  5  1  0  0  0  0
  5 10  1  0  0  0  0
  5  6  2  0  0  0  0
  6 24  1  0  0  0  0
  7  2  1  0  0  0  0
  8  3  1  0  0  0  0
  9  4  1  0  0  0  0
 11 17  1  0  0  0  0
 11 22  1  0  0  0  0
 11 12  1  1  0  0  0
 13 19  1  0  0  0  0
 14 20  1  0  0  0  0
 14 13  2  0  0  0  0
 15 14  1  0  0  0  0
 16 15  2  0  0  0  0
 16 17  1  0  0  0  0
 17 18  2  0  0  0  0
 18 13  1  0  0  0  0
 21 15  1  0  0  0  0
 23 22  1  0  0  0  0
 24 25  2  0  0  0  0
 25 26  1  0  0  0  0
 26 27  1  0  0  0  0
 26 29  1  0  0  0  0
 26 28  1  0  0  0  0
 30 29  1  0  0  0  0
 30 31  1  0  0  0  0
 31 32  1  0  0  0  0
 33 31  1  0  0  0  0
 34 33  1  0  0  0  0
 35 33  1  0  0  0  0
 36 35  1  0  0  0  0
 37 36  1  0  0  0  0
 38 36  1  0  0  0  0
 38 30  1  0  0  0  0
 39 38  1  0  0  0  0
M  END
>  <minimizedAffinity>
-5.32113743

$$$$

 OpenBabel03272509443D

 39 41  0  0  1  0  0  0  0  0999 V2000
   39.3170   26.2420   34.7750 C   0  0  0  0  0  0  0  0  0  0  0  0
   38.9270   27.1990   35.7150 C   0  0  0  0  0  0  0  0  0  0  0  0
   37.7410   27.9080   35.5830 C   0  0  0  0  0  0  0  0  0  0  0  0
   36.9110   27.6660   34.4890 C   0  0  0  0  0  0  0  0  0  0  0  0
   37.3090   26.7250   33.5790 C   0  0  0  0  0  0  0  0  0  0  0  0
   38.4990   26.0350   33.7380 C   0  0  0  0  0  0  0  0  0  0  0  0
   39.6050   27.3610   36.5590 H   0  0  0  0  0  0  0  0  0  0  0  0
   37.5650   28.6140   36.3780 H   0  0  0  0  0  0  0  0  0  0  0  0
   36.0060   28.2560   34.4550 H   0  0  0  0  0  0  0  0  0  0  0  0
   36.5630   26.6470   32.7800 H   0  0  0  0  0  0  0  0  0  0  0  0
   40.5690   25.5270   34.8920 C   0  0  2  0  0  0  0  0  0  0  0  0
   40.7170   25.0060   33.8700 H   0  0  0  0  0  0  0  0  0  0  0  0
   42.1660   22.6800   36.4920 C   0  0  0  0  0  0  0  0  0  0  0  0
   41.1190   21.9930   37.0740 C   0  0  0  0  0  0  0  0  0  0  0  0
   39.8360   22.4660   36.8710 C   0  0  0  0  0  0  0  0  0  0  0  0
   39.6460   23.5950   36.1050 N   0  0  0  0  0  0  0  0  0  0  0  0
   40.6860   24.2080   35.5780 C   0  0  0  0  0  0  0  0  0  0  0  0
   41.9450   23.7600   35.7640 N   0  0  0  0  0  0  0  0  0  0  0  0
   43.1970   22.3390   36.6260 H   0  0  0  0  0  0  0  0  0  0  0  0
   41.3860   21.1240   37.6520 H   0  0  0  0  0  0  0  0  0  0  0  0
   39.0190   21.9240   37.3270 H   0  0  0  0  0  0  0  0  0  0  0  0
   41.5920   26.3030   34.8160 O   0  0  0  0  0  0  0  0  0  0  0  0
   41.8480   26.9290   35.5260 H   0  0  0  0  0  0  0  0  0  0  0  0
   38.8090   25.0950   32.6850 C   0  0  0  0  0  3  0  0  0  0  0  0
   37.9680   24.7860   31.6930 C   0  0  0  0  0  3  0  0  0  0  0  0
   38.1970   23.8780   30.5440 C   0  0  0  0  0  0  0  0  0  0  0  0
   37.4540   24.1710   29.7530 H   0  0  0  0  0  0  0  0  0  0  0  0
   39.2170   24.0160   30.1610 H   0  0  0  0  0  0  0  0  0  0  0  0
   37.8110   22.1910   31.0170 S   0  0  0  0  0  0  0  0  0  0  0  0
   36.7580   22.1120   32.4850 C   0  0  0  0  0  3  0  0  0  0  0  0
   37.5700   21.7070   33.6710 C   0  0  0  0  0  3  0  0  0  0  0  0
   38.2920   20.8970   33.4590 H   0  0  0  0  0  0  0  0  0  0  0  0
   36.7780   21.3470   34.8800 C   0  0  0  0  0  3  0  0  0  0  0  0
   36.5450   22.2880   35.4460 H   0  0  0  0  0  0  0  0  0  0  0  0
   35.6120   20.6600   34.6540 O   0  0  0  0  0  0  0  0  0  0  0  0
   35.4500   20.1580   33.3830 C   0  0  0  0  0  3  0  0  0  0  0  0
   34.3750   19.8210   33.3270 H   0  0  0  0  0  0  0  0  0  0  0  0
   35.6280   21.1580   32.2900 C   0  0  0  0  0  3  0  0  0  0  0  0
   35.7960   20.5850   31.3320 H   0  0  0  0  0  0  0  0  0  0  0  0
  1 11  1  0  0  0  0
  1  2  1  0  0  0  0
  2  7  1  0  0  0  0
  3  2  2  0  0  0  0
  3  8  1  0  0  0  0
  4  3  1  0  0  0  0
  5  6  1  0  0  0  0
  5  4  2  0  0  0  0
  6  1  2  0  0  0  0
  9  4  1  0  0  0  0
 10  5  1  0  0  0  0
 11 12  1  6  0  0  0
 11 17  1  0  0  0  0
 13 19  1  0  0  0  0
 13 14  1  0  0  0  0
 14 20  1  0  0  0  0
 15 14  2  0  0  0  0
 15 21  1  0  0  0  0
 16 15  1  0  0  0  0
 17 18  1  0  0  0  0
 17 16  2  0  0  0  0
 18 13  2  0  0  0  0
 22 11  1  0  0  0  0
 22 23  1  0  0  0  0
 24  6  1  0  0  0  0
 25 24  2  0  0  0  0
 26 29  1  0  0  0  0
 26 25  1  0  0  0  0
 27 26  1  0  0  0  0
 28 26  1  0  0  0  0
 29 30  1  0  0  0  0
 30 31  1  0  0  0  0
 31 33  1  0  0  0  0
 32 31  1  0  0  0  0
 33 34  1  0  0  0  0
 35 33  1  0  0  0  0
 36 35  1  0  0  0  0
 37 36  1  0  0  0  0
 38 30  1  0  0  0  0
 38 36  1  0  0  0  0
 39 38  1  0  0  0  0
M  END
>  <minimizedAffinity>
-5.28242016

$$$$

 OpenBabel03272509443D

 39 41  0  0  1  0  0  0  0  0999 V2000
   37.9010   27.0520   34.1510 C   0  0  0  0  0  0  0  0  0  0  0  0
   37.1970   28.0050   34.8920 C   0  0  0  0  0  0  0  0  0  0  0  0
   36.1250   28.7010   34.3520 C   0  0  0  0  0  0  0  0  0  0  0  0
   35.7320   28.4510   33.0370 C   0  0  0  0  0  0  0  0  0  0  0  0
   36.4330   27.5150   32.3270 C   0  0  0  0  0  0  0  0  0  0  0  0
   37.4990   26.8370   32.8940 C   0  0  0  0  0  0  0  0  0  0  0  0
   37.5350   28.1730   35.9200 H   0  0  0  0  0  0  0  0  0  0  0  0
   35.6740   29.4040   35.0330 H   0  0  0  0  0  0  0  0  0  0  0  0
   34.8910   29.0310   32.6870 H   0  0  0  0  0  0  0  0  0  0  0  0
   36.0140   27.4290   31.3180 H   0  0  0  0  0  0  0  0  0  0  0  0
   39.0400   26.3510   34.7010 C   0  0  2  0  0  0  0  0  0  0  0  0
   39.3910   25.6370   33.8610 H   0  0  0  0  0  0  0  0  0  0  0  0
   39.9350   23.2690   36.4090 C   0  0  0  0  0  0  0  0  0  0  0  0
   39.0070   23.1690   37.4270 C   0  0  0  0  0  0  0  0  0  0  0  0
   38.0170   24.1320   37.5030 C   0  0  0  0  0  0  0  0  0  0  0  0
   37.9900   25.1470   36.5730 N   0  0  0  0  0  0  0  0  0  0  0  0
   38.9050   25.1890   35.6270 C   0  0  0  0  0  0  0  0  0  0  0  0
   39.8770   24.2580   35.5350 N   0  0  0  0  0  0  0  0  0  0  0  0
   40.7340   22.5290   36.3120 H   0  0  0  0  0  0  0  0  0  0  0  0
   39.1270   22.3340   38.0970 H   0  0  0  0  0  0  0  0  0  0  0  0
   37.2920   24.0480   38.3010 H   0  0  0  0  0  0  0  0  0  0  0  0
   40.1010   27.0780   34.7360 O   0  0  0  0  0  0  0  0  0  0  0  0
   40.2220   27.8250   35.3580 H   0  0  0  0  0  0  0  0  0  0  0  0
   38.1680   25.9000   32.0190 C   0  0  0  0  0  3  0  0  0  0  0  0
   37.5510   24.8820   31.4110 C   0  0  0  0  0  3  0  0  0  0  0  0
   38.1240   23.8960   30.4640 C   0  0  0  0  0  0  0  0  0  0  0  0
   37.6640   24.1130   29.4610 H   0  0  0  0  0  0  0  0  0  0  0  0
   39.2130   24.0270   30.4070 H   0  0  0  0  0  0  0  0  0  0  0  0
   37.6050   22.2410   30.9220 S   0  0  0  0  0  0  0  0  0  0  0  0
   36.6960   22.2130   32.4850 C   0  0  0  0  0  3  0  0  0  0  0  0
   37.6190   21.8570   33.6030 C   0  0  0  0  0  3  0  0  0  0  0  0
   38.3240   21.0430   33.3540 H   0  0  0  0  0  0  0  0  0  0  0  0
   36.9490   21.5400   34.8950 C   0  0  0  0  0  3  0  0  0  0  0  0
   36.7630   22.5010   35.4450 H   0  0  0  0  0  0  0  0  0  0  0  0
   35.7720   20.8390   34.8060 O   0  0  0  0  0  0  0  0  0  0  0  0
   35.4940   20.2890   33.5760 C   0  0  0  0  0  3  0  0  0  0  0  0
   34.4210   19.9450   33.6340 H   0  0  0  0  0  0  0  0  0  0  0  0
   35.5600   21.2480   32.4340 C   0  0  0  0  0  3  0  0  0  0  0  0
   35.6420   20.6400   31.4870 H   0  0  0  0  0  0  0  0  0  0  0  0
  1 11  1  0  0  0  0
  1  2  1  0  0  0  0
  2  7  1  0  0  0  0
  3  2  2  0  0  0  0
  3  8  1  0  0  0  0
  4  3  1  0  0  0  0
  5  6  1  0  0  0  0
  5  4  2  0  0  0  0
  6  1  2  0  0  0  0
  9  4  1  0  0  0  0
 10  5  1  0  0  0  0
 11 12  1  6  0  0  0
 11 22  1  0  0  0  0
 11 17  1  0  0  0  0
 13 14  1  0  0  0  0
 14 15  2  0  0  0  0
 14 20  1  0  0  0  0
 15 21  1  0  0  0  0
 16 15  1  0  0  0  0
 17 16  2  0  0  0  0
 18 17  1  0  0  0  0
 18 13  2  0  0  0  0
 19 13  1  0  0  0  0
 22 23  1  0  0  0  0
 24  6  1  0  0  0  0
 25 24  2  0  0  0  0
 26 29  1  0  0  0  0
 26 25  1  0  0  0  0
 27 26  1  0  0  0  0
 28 26  1  0  0  0  0
 29 30  1  0  0  0  0
 30 31  1  0  0  0  0
 31 33  1  0  0  0  0
 32 31  1  0  0  0  0
 33 34  1  0  0  0  0
 35 33  1  0  0  0  0
 36 37  1  0  0  0  0
 36 35  1  0  0  0  0
 38 30  1  0  0  0  0
 38 36  1  0  0  0  0
 39 38  1  0  0  0  0
M  END
>  <minimizedAffinity>
-5.24418736

$$$$

 OpenBabel03272509443D

 39 41  0  0  1  0  0  0  0  0999 V2000
   38.4840   27.0170   34.2720 C   0  0  0  0  0  0  0  0  0  0  0  0
   37.2610   27.5320   33.8320 C   0  0  0  0  0  0  0  0  0  0  0  0
   37.0600   27.9020   32.5100 C   0  0  0  0  0  0  0  0  0  0  0  0
   38.0980   27.7630   31.5890 C   0  0  0  0  0  0  0  0  0  0  0  0
   39.2880   27.2570   32.0380 C   0  0  0  0  0  0  0  0  0  0  0  0
   39.4570   26.8960   33.3640 C   0  0  0  0  0  0  0  0  0  0  0  0
   36.4710   27.6260   34.5850 H   0  0  0  0  0  0  0  0  0  0  0  0
   36.0720   28.2830   32.3100 H   0  0  0  0  0  0  0  0  0  0  0  0
   37.8670   28.0720   30.5800 H   0  0  0  0  0  0  0  0  0  0  0  0
   40.0020   27.2080   31.2080 H   0  0  0  0  0  0  0  0  0  0  0  0
   38.7060   26.6630   35.6570 C   0  0  2  0  0  0  0  0  0  0  0  0
   39.8410   26.4560   35.7370 H   0  0  0  0  0  0  0  0  0  0  0  0
   37.8110   24.1130   38.0870 C   0  0  0  0  0  0  0  0  0  0  0  0
   37.5920   22.9830   37.3230 C   0  0  0  0  0  0  0  0  0  0  0  0
   37.8120   23.0670   35.9600 C   0  0  0  0  0  0  0  0  0  0  0  0
   38.2350   24.2590   35.4160 N   0  0  0  0  0  0  0  0  0  0  0  0
   38.4230   25.3020   36.1980 C   0  0  0  0  0  0  0  0  0  0  0  0
   38.2160   25.2390   37.5300 N   0  0  0  0  0  0  0  0  0  0  0  0
   37.6500   24.0900   39.1690 H   0  0  0  0  0  0  0  0  0  0  0  0
   37.2610   22.1070   37.8550 H   0  0  0  0  0  0  0  0  0  0  0  0
   37.6420   22.1800   35.3660 H   0  0  0  0  0  0  0  0  0  0  0  0
   38.6810   27.6820   36.4400 O   0  0  0  0  0  0  0  0  0  0  0  0
   37.8600   28.1700   36.6650 H   0  0  0  0  0  0  0  0  0  0  0  0
   40.7740   26.4080   33.7040 C   0  0  0  0  0  3  0  0  0  0  0  0
   41.2030   25.1710   33.4270 C   0  0  0  0  0  3  0  0  0  0  0  0
   42.5380   24.5840   33.6860 C   0  0  0  0  0  0  0  0  0  0  0  0
   42.4160   23.4690   33.6080 H   0  0  0  0  0  0  0  0  0  0  0  0
   43.2500   24.9320   32.9260 H   0  0  0  0  0  0  0  0  0  0  0  0
   43.0370   24.9300   35.3740 S   0  0  0  0  0  0  0  0  0  0  0  0
   42.9500   23.4660   36.4330 C   0  0  0  0  0  3  0  0  0  0  0  0
   43.6170   22.3120   35.7600 C   0  0  0  0  0  3  0  0  0  0  0  0
   43.3880   22.2340   34.6820 H   0  0  0  0  0  0  0  0  0  0  0  0
   43.3830   20.9900   36.4030 C   0  0  0  0  0  3  0  0  0  0  0  0
   44.1340   20.8560   37.2270 H   0  0  0  0  0  0  0  0  0  0  0  0
   42.1230   20.7790   36.9070 O   0  0  0  0  0  0  0  0  0  0  0  0
   41.1670   21.6920   36.5260 C   0  0  0  0  0  3  0  0  0  0  0  0
   40.2750   21.4870   37.1860 H   0  0  0  0  0  0  0  0  0  0  0  0
   41.5370   23.1190   36.7610 C   0  0  0  0  0  3  0  0  0  0  0  0
   40.8500   23.7540   36.1300 H   0  0  0  0  0  0  0  0  0  0  0  0
  1 11  1  0  0  0  0
  2  1  1  0  0  0  0
  2  7  1  0  0  0  0
  3  2  2  0  0  0  0
  4  5  2  0  0  0  0
  4  3  1  0  0  0  0
  5  6  1  0  0  0  0
  6 24  1  0  0  0  0
  6  1  2  0  0  0  0
  8  3  1  0  0  0  0
  9  4  1  0  0  0  0
 10  5  1  0  0  0  0
 11 12  1  6  0  0  0
 11 17  1  0  0  0  0
 11 22  1  0  0  0  0
 13 19  1  0  0  0  0
 14 20  1  0  0  0  0
 14 13  2  0  0  0  0
 15 14  1  0  0  0  0
 16 15  2  0  0  0  0
 16 17  1  0  0  0  0
 17 18  2  0  0  0  0
 18 13  1  0  0  0  0
 21 15  1  0  0  0  0
 22 23  1  0  0  0  0
 25 26  1  0  0  0  0
 25 24  2  0  0  0  0
 26 29  1  0  0  0  0
 27 26  1  0  0  0  0
 28 26  1  0  0  0  0
 29 30  1  0  0  0  0
 30 38  1  0  0  0  0
 31 33  1  0  0  0  0
 31 30  1  0  0  0  0
 32 31  1  0  0  0  0
 33 35  1  0  0  0  0
 33 34  1  0  0  0  0
 36 38  1  0  0  0  0
 36 35  1  0  0  0  0
 36 37  1  0  0  0  0
 39 38  1  0  0  0  0
M  END
>  <minimizedAffinity>
-5.22773838

$$$$

 OpenBabel03272509443D

 39 41  0  0  1  0  0  0  0  0999 V2000
   37.2710   21.7170   33.0680 C   0  0  0  0  0  0  0  0  0  0  0  0
   36.7560   20.5010   33.5230 C   0  0  0  0  0  0  0  0  0  0  0  0
   35.5090   20.0420   33.1240 C   0  0  0  0  0  0  0  0  0  0  0  0
   34.7410   20.8070   32.2450 C   0  0  0  0  0  0  0  0  0  0  0  0
   35.2620   21.9950   31.8090 C   0  0  0  0  0  0  0  0  0  0  0  0
   36.5100   22.4260   32.2270 C   0  0  0  0  0  0  0  0  0  0  0  0
   37.3870   19.9290   34.2110 H   0  0  0  0  0  0  0  0  0  0  0  0
   35.2360   19.0910   33.5520 H   0  0  0  0  0  0  0  0  0  0  0  0
   33.7830   20.3860   31.9800 H   0  0  0  0  0  0  0  0  0  0  0  0
   34.5510   22.4820   31.1320 H   0  0  0  0  0  0  0  0  0  0  0  0
   38.5560   22.2120   33.5110 C   0  0  2  0  0  0  0  0  0  0  0  0
   39.1870   21.2670   33.7250 H   0  0  0  0  0  0  0  0  0  0  0  0
   37.8720   23.7920   36.7130 C   0  0  0  0  0  0  0  0  0  0  0  0
   38.9200   23.3870   37.5160 C   0  0  0  0  0  0  0  0  0  0  0  0
   39.9150   22.6130   36.9480 C   0  0  0  0  0  0  0  0  0  0  0  0
   39.8290   22.2730   35.6160 N   0  0  0  0  0  0  0  0  0  0  0  0
   38.8020   22.6880   34.9030 C   0  0  0  0  0  0  0  0  0  0  0  0
   37.8240   23.4460   35.4390 N   0  0  0  0  0  0  0  0  0  0  0  0
   37.0650   24.4060   37.1220 H   0  0  0  0  0  0  0  0  0  0  0  0
   38.8830   23.7110   38.5430 H   0  0  0  0  0  0  0  0  0  0  0  0
   40.7350   22.3000   37.5800 H   0  0  0  0  0  0  0  0  0  0  0  0
   39.2750   22.6600   32.5440 O   0  0  0  0  0  0  0  0  0  0  0  0
   39.0820   23.4960   32.0700 H   0  0  0  0  0  0  0  0  0  0  0  0
   36.9200   23.7130   31.7130 C   0  0  0  0  0  3  0  0  0  0  0  0
   36.0860   24.7440   31.5400 C   0  0  0  0  0  3  0  0  0  0  0  0
   36.4040   26.1120   31.0680 C   0  0  0  0  0  0  0  0  0  0  0  0
   37.4380   26.0660   30.6310 H   0  0  0  0  0  0  0  0  0  0  0  0
   35.6880   26.4120   30.2900 H   0  0  0  0  0  0  0  0  0  0  0  0
   36.4830   27.2330   32.4660 S   0  0  0  0  0  0  0  0  0  0  0  0
   37.5240   26.5960   33.8010 C   0  0  0  0  0  3  0  0  0  0  0  0
   37.4990   27.5380   34.9590 C   0  0  0  0  0  3  0  0  0  0  0  0
   37.5580   28.6020   34.6670 H   0  0  0  0  0  0  0  0  0  0  0  0
   38.5170   27.2660   36.0110 C   0  0  0  0  0  3  0  0  0  0  0  0
   38.1040   26.4960   36.7160 H   0  0  0  0  0  0  0  0  0  0  0  0
   39.7470   26.8520   35.5660 O   0  0  0  0  0  0  0  0  0  0  0  0
   39.9740   26.9940   34.2170 C   0  0  0  0  0  3  0  0  0  0  0  0
   40.9250   26.4230   34.0090 H   0  0  0  0  0  0  0  0  0  0  0  0
   38.9280   26.3900   33.3410 C   0  0  0  0  0  3  0  0  0  0  0  0
   39.0450   26.8420   32.3140 H   0  0  0  0  0  0  0  0  0  0  0  0
  1 11  1  0  0  0  0
  1  2  1  0  0  0  0
  2  7  1  0  0  0  0
  3  2  2  0  0  0  0
  3  8  1  0  0  0  0
  4  3  1  0  0  0  0
  5  6  1  0  0  0  0
  5  4  2  0  0  0  0
  6  1  2  0  0  0  0
  9  4  1  0  0  0  0
 10  5  1  0  0  0  0
 11 12  1  1  0  0  0
 11 17  1  0  0  0  0
 13 19  1  0  0  0  0
 13 14  1  0  0  0  0
 14 20  1  0  0  0  0
 15 14  2  0  0  0  0
 15 21  1  0  0  0  0
 16 15  1  0  0  0  0
 17 18  1  0  0  0  0
 17 16  2  0  0  0  0
 18 13  2  0  0  0  0
 22 11  1  0  0  0  0
 23 22  1  0  0  0  0
 24  6  1  0  0  0  0
 25 24  2  0  0  0  0
 26 25  1  0  0  0  0
 26 29  1  0  0  0  0
 27 26  1  0  0  0  0
 28 26  1  0  0  0  0
 29 30  1  0  0  0  0
 30 31  1  0  0  0  0
 31 33  1  0  0  0  0
 32 31  1  0  0  0  0
 33 34  1  0  0  0  0
 35 33  1  0  0  0  0
 36 35  1  0  0  0  0
 37 36  1  0  0  0  0
 38 30  1  0  0  0  0
 38 36  1  0  0  0  0
 39 38  1  0  0  0  0
M  END
>  <minimizedAffinity>
-5.22020531

$$$$
