REMARK  Name = 
REMARK  3 active torsions:
REMARK  status: ('A' for Active; 'I' for Inactive)
REMARK    1  A    between atoms: C_1  and  C_8
REMARK    2  A    between atoms: C_6  and  N_15
REMARK    3  A    between atoms: C_13  and  C_24
REMARK                            x       y       z     vdW  Elec       q    Type
REMARK                         _______ _______ _______ _____ _____    ______ ____
ROOT
ATOM      1  C   UNL     1      38.114  31.186  47.891  0.00  0.00    +0.000 A 
ATOM      2  C   UNL     1      38.396  30.382  46.796  0.00  0.00    +0.000 A 
ATOM      3  C   UNL     1      39.183  30.813  45.735  0.00  0.00    +0.000 A 
ATOM      4  C   UNL     1      39.715  32.132  45.779  0.00  0.00    +0.000 A 
ATOM      5  C   UNL     1      39.413  32.892  46.874  0.00  0.00    +0.000 A 
ATOM      6  C   UNL     1      38.647  32.468  47.913  0.00  0.00    +0.000 A 
ATOM      7  H   UNL     1      37.995  29.362  46.741  0.00  0.00    +0.000 HD
ATOM      8  H   UNL     1      39.347  30.094  44.914  0.00  0.00    +0.000 HD
ATOM      9  H   UNL     1      40.292  32.308  44.894  0.00  0.00    +0.000 HD
ATOM     10  H   UNL     1      39.872  33.834  46.660  0.00  0.00    +0.000 HD
ENDROOT
BRANCH   1  12
ATOM     11  C   UNL     1      37.852  29.971  49.972  0.00  0.00    +0.000 A 
ATOM     12  C   UNL     1      37.230  30.602  48.881  0.00  0.00    +0.000 A 
ATOM     13  C   UNL     1      35.828  30.601  48.866  0.00  0.00    +0.000 A 
ATOM     14  N   UNL     1      35.147  30.015  49.861  0.00  0.00    +0.000 NA
ATOM     15  C   UNL     1      35.752  29.416  50.895  0.00  0.00    +0.000 A 
ATOM     16  N   UNL     1      37.097  29.400  50.939  0.00  0.00    +0.000 NA
ATOM     17  H   UNL     1      38.922  29.899  50.109  0.00  0.00    +0.000 HD
ATOM     18  H   UNL     1      35.395  31.088  48.025  0.00  0.00    +0.000 HD
ATOM     19  H   UNL     1      35.253  28.930  51.721  0.00  0.00    +0.000 HD
ENDBRANCH   1  12
BRANCH   6  22
ATOM     20  C   UNL     1      39.340  34.301  49.212  0.00  0.00    +0.000 C 
ATOM     21  O   UNL     1      40.381  34.279  48.462  0.00  0.00    +0.000 OA
ATOM     22  N   UNL     1      38.374  33.246  49.041  0.00  0.00    +0.000 N 
ATOM     23  H   UNL     1      37.588  33.085  49.658  0.00  0.00    +0.000 HD
BRANCH  20  24
ATOM     24  C   UNL     1      39.080  35.359  50.246  0.00  0.00    +0.000 C 
ATOM     25  C   UNL     1      40.218  36.375  50.265  0.00  0.00    +0.000 C 
ATOM     26  H   UNL     1      40.279  36.751  49.222  0.00  0.00    +0.000 HD
ATOM     27  C   UNL     1      39.737  37.527  51.139  0.00  0.00    +0.000 C 
ATOM     28  H   UNL     1      38.870  38.021  50.630  0.00  0.00    +0.000 HD
ATOM     29  O   UNL     1      39.284  37.095  52.364  0.00  0.00    +0.000 OA
ATOM     30  C   UNL     1      39.522  35.764  52.604  0.00  0.00    +0.000 C 
ATOM     31  H   UNL     1      39.110  35.513  53.605  0.00  0.00    +0.000 HD
ATOM     32  C   UNL     1      38.809  34.849  51.601  0.00  0.00    +0.000 C 
ATOM     33  H   UNL     1      39.176  33.837  51.828  0.00  0.00    +0.000 HD
ENDBRANCH  20  24
ENDBRANCH   6  22
TORSDOF 3
