
     RDKit          3D

 32 33  0  0  0  0  0  0  0  0999 V2000
   37.3598   30.2006   51.4015 C   0  0  0  0  0  0  0  0  0  0  0  0
   38.0079   30.7162   50.2606 C   0  0  0  0  0  0  0  0  0  0  0  0
   37.5126   30.3733   49.0047 C   0  0  0  0  0  0  0  0  0  0  0  0
   36.4279   29.5587   48.9160 N   0  0  0  0  0  0  0  0  0  0  0  0
   35.8417   29.0905   50.0226 C   0  0  0  0  0  0  0  0  0  0  0  0
   36.2859   29.3952   51.2594 N   0  0  0  0  0  0  0  0  0  0  0  0
   38.1439   30.8759   47.8222 C   0  0  0  0  0  0  0  0  0  0  0  0
   38.7790   32.0150   47.8028 C   0  0  0  0  0  0  0  0  0  0  0  0
   39.4326   32.5125   46.5450 C   0  0  0  0  0  0  0  0  0  0  0  0
   38.3079   32.2721   45.1370 S   0  0  0  0  0  0  0  0  0  0  0  0
   37.7014   30.4345   52.4060 H   0  0  0  0  0  0  0  0  0  0  0  0
   38.8762   31.3672   50.4051 H   0  0  0  0  0  0  0  0  0  0  0  0
   34.9812   28.4458   49.8503 H   0  0  0  0  0  0  0  0  0  0  0  0
   38.0731   30.2621   46.9218 H   0  0  0  0  0  0  0  0  0  0  0  0
   38.8648   32.6449   48.6792 H   0  0  0  0  0  0  0  0  0  0  0  0
   40.3888   31.9694   46.3860 H   0  0  0  0  0  0  0  0  0  0  0  0
   39.6364   33.6012   46.6118 H   0  0  0  0  0  0  0  0  0  0  0  0
   39.1101   32.8746   43.6371 C   0  0  1  0  0  0  0  0  0  0  0  0
   38.8814   34.3610   43.5702 C   0  0  2  0  0  0  0  0  0  0  0  0
   37.7806   34.5264   43.7238 H   0  0  0  0  0  0  0  0  0  0  0  0
   39.5843   35.1030   44.6820 C   0  0  2  0  0  0  0  0  0  0  0  0
   39.0060   35.0915   45.6317 H   0  0  0  0  0  0  0  0  0  0  0  0
   40.8954   34.6746   44.8741 O   0  0  0  0  0  0  0  0  0  0  0  0
   40.9699   33.3032   45.1276 C   0  0  2  0  0  0  0  0  0  0  0  0
   40.2786   32.9948   45.9333 H   0  0  0  0  0  0  0  0  0  0  0  0
   40.6041   32.6440   43.7916 C   0  0  1  0  0  0  0  0  0  0  0  0
   40.8638   31.5689   43.7941 H   0  0  0  0  0  0  0  0  0  0  0  0
   38.7123   32.4121   42.7212 H   0  0  0  0  0  0  0  0  0  0  0  0
   39.1252   34.7502   42.5762 H   0  0  0  0  0  0  0  0  0  0  0  0
   39.6478   36.1693   44.3678 H   0  0  0  0  0  0  0  0  0  0  0  0
   42.0252   33.0500   45.3008 H   0  0  0  0  0  0  0  0  0  0  0  0
   41.1753   33.2171   43.0207 H   0  0  0  0  0  0  0  0  0  0  0  0
  2  1  2  0
  3  2  1  0
  4  3  2  0
  4  5  1  0
  5  6  2  0
  6  1  1  0
  7  3  1  0
  8  7  2  0
  9  8  1  0
 10  9  1  0
  1 11  1  0
  2 12  1  0
  5 13  1  0
  7 14  1  0
  8 15  1  0
  9 16  1  0
  9 17  1  0
 18 19  1  0
 19 20  1  1
 19 21  1  0
 21 22  1  1
 21 23  1  0
 23 24  1  0
 24 25  1  1
 24 26  1  0
 26 27  1  1
 26 18  1  0
 18 28  1  6
 19 29  1  0
 21 30  1  0
 24 31  1  0
 26 32  1  0
 10 18  1  0
M  ISO  8  11  14  12  14  13  14  16   8  17   8  20  15  22  15  25  15
M  ISO  1  27  15
M  END
>  <DihAtoms>  (1) 
8,9,17,18

>  <DihDeg>  (1) 
66.31312322197309

$$$$
