
 OpenBabel03272503053D

 33 35  0  0  0  0  0  0  0  0999 V2000
   38.1790   30.2010   47.3860 F   0  0  0  0  0  0  0  0  0  0  0  0
   38.5490   31.4290   47.8010 C   0  0  0  0  0  0  0  0  0  0  0  0
   38.1290   31.8920   49.0270 C   0  0  0  0  0  0  0  0  0  0  0  0
   38.5370   33.1510   49.3980 C   0  0  0  0  0  0  0  0  0  0  0  0
   39.3350   33.9370   48.5930 C   0  0  0  0  0  0  0  0  0  0  0  0
   39.7440   33.4580   47.3750 C   0  0  0  0  0  0  0  0  0  0  0  0
   39.3480   32.1930   46.9740 C   0  0  0  0  0  0  0  0  0  0  0  0
   38.1980   33.4980   50.3650 H   0  0  0  0  0  0  0  0  0  0  0  0
   39.6350   34.9250   48.9250 H   0  0  0  0  0  0  0  0  0  0  0  0
   40.3720   34.0610   46.7250 H   0  0  0  0  0  0  0  0  0  0  0  0
   36.9010   29.5740   51.7600 C   0  0  0  0  0  0  0  0  0  0  0  0
   37.7370   30.4110   51.0070 C   0  0  0  0  0  0  0  0  0  0  0  0
   37.2880   31.0150   49.8340 C   0  0  0  0  0  0  0  0  0  0  0  0
   35.9960   30.7480   49.4620 N   0  0  0  0  0  0  0  0  0  0  0  0
   35.2070   29.9370   50.2020 C   0  0  0  0  0  0  0  0  0  0  0  0
   35.6520   29.3660   51.3220 N   0  0  0  0  0  0  0  0  0  0  0  0
   37.3810   29.1740   52.6450 H   0  0  0  0  0  0  0  0  0  0  0  0
   38.7690   30.6510   51.2660 H   0  0  0  0  0  0  0  0  0  0  0  0
   34.1910   29.7620   49.8550 H   0  0  0  0  0  0  0  0  0  0  0  0
   38.8040   31.8450   44.6530 C   0  0  0  0  0  0  0  0  0  0  0  0
   37.7400   32.4530   45.0080 O   0  0  0  0  0  0  0  0  0  0  0  0
   39.7490   31.6460   45.7060 N   0  0  0  0  0  0  0  0  0  0  0  0
   40.6500   31.1450   45.5600 H   0  0  0  0  0  0  0  0  0  0  0  0
   39.1900   31.3220   43.3170 C   0  0  0  0  0  3  0  0  0  0  0  0
   40.5410   30.6710   43.3160 C   0  0  0  0  0  3  0  0  0  0  0  0
   40.6410   29.9670   44.1410 H   0  0  0  0  0  0  0  0  0  0  0  0
   40.6740   30.0160   41.9380 C   0  0  0  0  0  3  0  0  0  0  0  0
   39.6750   29.5440   41.7160 H   0  0  0  0  0  0  0  0  0  0  0  0
   40.7780   31.0610   41.0220 O   0  0  0  0  0  0  0  0  0  0  0  0
   39.5890   31.7550   40.9520 C   0  0  0  0  0  3  0  0  0  0  0  0
   38.7390   31.0500   40.7270 H   0  0  0  0  0  0  0  0  0  0  0  0
   39.2700   32.4350   42.2700 C   0  0  0  0  0  3  0  0  0  0  0  0
   40.1330   33.1240   42.4970 H   0  0  0  0  0  0  0  0  0  0  0  0
  1  2  1  0  0  0  0
  2  3  1  0  0  0  0
  3  4  2  0  0  0  0
  3 13  1  0  0  0  0
  4  8  1  0  0  0  0
  5  9  1  0  0  0  0
  5  4  1  0  0  0  0
  6  5  2  0  0  0  0
  7  6  1  0  0  0  0
  7  2  2  0  0  0  0
 10  6  1  0  0  0  0
 11 17  1  0  0  0  0
 12 18  1  0  0  0  0
 12 11  2  0  0  0  0
 13 12  1  0  0  0  0
 14 13  2  0  0  0  0
 14 15  1  0  0  0  0
 15 16  2  0  0  0  0
 16 11  1  0  0  0  0
 19 15  1  0  0  0  0
 20 21  2  0  0  0  0
 20 22  1  0  0  0  0
 22  7  1  0  0  0  0
 23 22  1  0  0  0  0
 24 20  1  0  0  0  0
 25 24  1  0  0  0  0
 25 26  1  0  0  0  0
 27 25  1  0  0  0  0
 28 27  1  0  0  0  0
 29 27  1  0  0  0  0
 30 29  1  0  0  0  0
 30 32  1  0  0  0  0
 31 30  1  0  0  0  0
 32 33  1  0  0  0  0
 32 24  1  0  0  0  0
M  END
>  <minimizedAffinity>
-6.57142115

>  <minimizedRMSD>
0.492903978

$$$$
