
     RDKit          3D

 38 40  0  0  0  0  0  0  0  0999 V2000
   38.4515   30.4454   47.3097 F   0  0  0  0  0  0  0  0  0  0  0  0
   38.7527   31.6699   47.7855 C   0  0  0  0  0  0  0  0  0  0  0  0
   38.2365   32.0807   48.9919 C   0  0  0  0  0  0  0  0  0  0  0  0
   38.5774   33.3387   49.4274 C   0  0  0  0  0  0  0  0  0  0  0  0
   39.4014   34.1744   48.7035 C   0  0  0  0  0  0  0  0  0  0  0  0
   39.9070   33.7471   47.5018 C   0  0  0  0  0  0  0  0  0  0  0  0
   39.5806   32.4842   47.0377 C   0  0  0  0  0  0  0  0  0  0  0  0
   36.9213   29.5992   51.5345 C   0  0  0  0  0  0  0  0  0  0  0  0
   37.7787   30.4835   50.8648 C   0  0  0  0  0  0  0  0  0  0  0  0
   37.3709   31.1543   49.7134 C   0  0  0  0  0  0  0  0  0  0  0  0
   36.0962   30.9027   49.2773 N   0  0  0  0  0  0  0  0  0  0  0  0
   35.2845   30.0464   49.9373 C   0  0  0  0  0  0  0  0  0  0  0  0
   35.6907   29.4123   51.0381 N   0  0  0  0  0  0  0  0  0  0  0  0
   39.1940   32.1656   44.6808 C   0  0  0  0  0  0  0  0  0  0  0  0
   38.0805   32.7101   44.9838 O   0  0  0  0  0  0  0  0  0  0  0  0
   40.0840   31.9886   45.7847 N   0  0  0  0  0  0  0  0  0  0  0  0
   38.1622   33.6452   50.3786 H   0  0  0  0  0  0  0  0  0  0  0  0
   39.6461   35.1603   49.0830 H   0  0  0  0  0  0  0  0  0  0  0  0
   40.5582   34.3890   46.9146 H   0  0  0  0  0  0  0  0  0  0  0  0
   37.3700   29.1499   52.4123 H   0  0  0  0  0  0  0  0  0  0  0  0
   38.7990   30.7120   51.1772 H   0  0  0  0  0  0  0  0  0  0  0  0
   34.2839   29.8879   49.5424 H   0  0  0  0  0  0  0  0  0  0  0  0
   41.0167   31.5380   45.6830 H   0  0  0  0  0  0  0  0  0  0  0  0
   39.6860   31.6974   43.3600 C   0  0  2  0  0  0  0  0  0  0  0  0
   38.5929   31.5828   42.3394 C   0  0  2  0  0  0  0  0  0  0  0  0
   37.9773   32.4820   42.3180 H   0  0  0  0  0  0  0  0  0  0  0  0
   39.3056   31.3040   41.0123 C   0  0  2  0  0  0  0  0  0  0  0  0
   40.2087   31.9774   40.9909 H   0  0  0  0  0  0  0  0  0  0  0  0
   39.8319   30.0182   41.1202 O   0  0  0  0  0  0  0  0  0  0  0  0
   40.8423   29.9930   42.0574 C   0  0  2  0  0  0  0  0  0  0  0  0
   41.6194   30.7716   41.8130 H   0  0  0  0  0  0  0  0  0  0  0  0
   40.3155   30.3053   43.4448 C   0  0  2  0  0  0  0  0  0  0  0  0
   39.5257   29.5333   43.6729 H   0  0  0  0  0  0  0  0  0  0  0  0
   40.4495   32.3689   42.9665 H   0  0  0  0  0  0  0  0  0  0  0  0
   38.0155   30.6400   42.5565 H   0  0  0  0  0  0  0  0  0  0  0  0
   38.6579   31.4211   40.1452 H   0  0  0  0  0  0  0  0  0  0  0  0
   41.3502   29.0027   42.0377 H   0  0  0  0  0  0  0  0  0  0  0  0
   41.1224   30.2811   44.1756 H   0  0  0  0  0  0  0  0  0  0  0  0
  1  2  1  0
  2  3  2  0
  3  4  1  0
  3 10  1  0
  5  4  2  0
  6  5  1  0
  7  6  2  0
  7  2  1  0
  9  8  2  0
 10  9  1  0
 11 10  2  0
 11 12  1  0
 12 13  2  0
 13  8  1  0
 14 15  2  0
 14 16  1  0
 16  7  1  0
  4 17  1  0
  5 18  1  0
  6 19  1  0
  8 20  1  0
  9 21  1  0
 12 22  1  0
 16 23  1  0
 24 25  1  0
 25 26  1  6
 25 27  1  0
 27 28  1  6
 27 29  1  0
 29 30  1  0
 30 31  1  6
 30 32  1  0
 32 33  1  1
 32 24  1  0
 24 34  1  6
 25 35  1  0
 27 36  1  0
 30 37  1  0
 32 38  1  0
 14 24  1  0
M  ISO  8  17  14  18  14  19  14  20  14  21  14  22  14  26  15  28  15
M  ISO  2  31  15  33  15
M  END
>  <DihAtoms>  (1) 
14,13,23,24

>  <DihDeg>  (1) 
0.003330803455893199

$$$$
