
 OpenBabel03272507313D

 30 32  0  0  0  0  0  0  0  0999 V2000
   37.7920   27.2680   34.3230 C   0  0  0  0  0  0  0  0  0  0  0  0
   37.7260   27.3380   32.9710 C   0  0  0  0  0  0  0  0  0  0  0  0
   36.6670   28.1600   32.6120 C   0  0  0  0  0  0  0  0  0  0  0  0
   36.1210   28.5640   33.8360 C   0  0  0  0  0  0  0  0  0  0  0  0
   36.8270   28.0070   34.7630 O   0  0  0  0  0  0  0  0  0  0  0  0
   38.3280   26.8850   32.1740 H   0  0  0  0  0  0  0  0  0  0  0  0
   36.3200   28.4400   31.6300 H   0  0  0  0  0  0  0  0  0  0  0  0
   38.7940   26.4870   35.0250 C   0  0  0  0  0  0  0  0  0  0  0  0
   39.9040   26.9740   35.2410 O   0  0  0  0  0  0  0  0  0  0  0  0
   38.4040   25.1410   35.4380 C   0  0  0  0  0  0  0  0  0  0  0  0
   38.0300   24.9790   36.7770 C   0  0  0  0  0  0  0  0  0  0  0  0
   37.6550   23.7130   37.2010 C   0  0  0  0  0  0  0  0  0  0  0  0
   37.6700   22.6860   36.2850 N   0  0  0  0  0  0  0  0  0  0  0  0
   38.0360   22.8800   35.0040 C   0  0  0  0  0  0  0  0  0  0  0  0
   38.4030   24.1020   34.5750 N   0  0  0  0  0  0  0  0  0  0  0  0
   38.0360   25.8100   37.4470 H   0  0  0  0  0  0  0  0  0  0  0  0
   37.3550   23.5120   38.2170 H   0  0  0  0  0  0  0  0  0  0  0  0
   38.0460   22.0660   34.2900 H   0  0  0  0  0  0  0  0  0  0  0  0
   34.9570   29.4600   33.9730 C   0  0  0  0  0  0  0  0  0  0  0  0
   34.0590   29.4260   33.0830 O   0  0  0  0  0  0  0  0  0  0  0  0
   34.9140   30.3410   35.1440 C   0  0  0  0  0  3  0  0  0  0  0  0
   33.5470   30.7910   35.5330 C   0  0  0  0  0  3  0  0  0  0  0  0
   32.8440   29.9570   35.7210 H   0  0  0  0  0  0  0  0  0  0  0  0
   33.7050   31.6300   36.8010 C   0  0  0  0  0  3  0  0  0  0  0  0
   33.0800   32.5320   36.8040 H   0  0  0  0  0  0  0  0  0  0  0  0
   35.0220   31.9750   37.0550 O   0  0  0  0  0  0  0  0  0  0  0  0
   35.5980   32.6150   35.9480 C   0  0  0  0  0  3  0  0  0  0  0  0
   36.5700   33.0420   36.2650 H   0  0  0  0  0  0  0  0  0  0  0  0
   35.7730   31.5470   34.8700 C   0  0  0  0  0  3  0  0  0  0  0  0
   35.5010   31.9440   33.8830 H   0  0  0  0  0  0  0  0  0  0  0  0
  1  5  1  0  0  0  0
  1  8  1  0  0  0  0
  2  1  2  0  0  0  0
  3  2  1  0  0  0  0
  3  4  2  0  0  0  0
  4 19  1  0  0  0  0
  4  5  1  0  0  0  0
  6  2  1  0  0  0  0
  7  3  1  0  0  0  0
  8  9  2  0  0  0  0
  8 10  1  0  0  0  0
 10 11  1  0  0  0  0
 11 12  2  0  0  0  0
 11 16  1  0  0  0  0
 12 17  1  0  0  0  0
 13 12  1  0  0  0  0
 14 13  2  0  0  0  0
 15 14  1  0  0  0  0
 15 10  2  0  0  0  0
 18 14  1  0  0  0  0
 19 21  1  0  0  0  0
 20 19  2  0  0  0  0
 21 22  1  0  0  0  0
 22 23  1  0  0  0  0
 22 24  1  0  0  0  0
 24 25  1  0  0  0  0
 24 26  1  0  0  0  0
 27 28  1  0  0  0  0
 27 26  1  0  0  0  0
 29 21  1  0  0  0  0
 29 27  1  0  0  0  0
 30 29  1  0  0  0  0
M  END
>  <minimizedAffinity>
-5.22495508

$$$$

 OpenBabel03272507313D

 30 32  0  0  0  0  0  0  0  0999 V2000
   35.8840   28.6210   33.7710 C   0  0  0  0  0  0  0  0  0  0  0  0
   36.5540   28.2260   32.6610 C   0  0  0  0  0  0  0  0  0  0  0  0
   37.5950   27.3880   33.0360 C   0  0  0  0  0  0  0  0  0  0  0  0
   37.4900   27.3190   34.4300 C   0  0  0  0  0  0  0  0  0  0  0  0
   36.4830   28.0540   34.7660 O   0  0  0  0  0  0  0  0  0  0  0  0
   36.4190   28.4450   31.5960 H   0  0  0  0  0  0  0  0  0  0  0  0
   38.3300   26.8920   32.4210 H   0  0  0  0  0  0  0  0  0  0  0  0
   34.7340   29.5060   33.7270 C   0  0  0  0  0  0  0  0  0  0  0  0
   34.0000   29.5000   32.7380 O   0  0  0  0  0  0  0  0  0  0  0  0
   34.5240   30.3650   34.8890 C   0  0  0  0  0  0  0  0  0  0  0  0
   35.6020   31.1670   35.2800 C   0  0  0  0  0  0  0  0  0  0  0  0
   35.4340   31.9940   36.3810 C   0  0  0  0  0  0  0  0  0  0  0  0
   34.2200   31.9820   37.0270 N   0  0  0  0  0  0  0  0  0  0  0  0
   33.2040   31.1970   36.6220 C   0  0  0  0  0  0  0  0  0  0  0  0
   33.3490   30.3880   35.5550 N   0  0  0  0  0  0  0  0  0  0  0  0
   36.5240   31.1370   34.7430 H   0  0  0  0  0  0  0  0  0  0  0  0
   36.2200   32.6390   36.7410 H   0  0  0  0  0  0  0  0  0  0  0  0
   32.2520   31.1940   37.1370 H   0  0  0  0  0  0  0  0  0  0  0  0
   38.3920   26.5340   35.2940 C   0  0  0  0  0  0  0  0  0  0  0  0
   39.4490   27.0820   35.7220 O   0  0  0  0  0  0  0  0  0  0  0  0
   38.0020   25.1560   35.6070 C   0  0  0  0  0  3  0  0  0  0  0  0
   38.0970   24.7960   37.0510 C   0  0  0  0  0  3  0  0  0  0  0  0
   37.5120   25.4630   37.7120 H   0  0  0  0  0  0  0  0  0  0  0  0
   37.5850   23.3610   37.1800 C   0  0  0  0  0  3  0  0  0  0  0  0
   38.1880   22.7470   37.8610 H   0  0  0  0  0  0  0  0  0  0  0  0
   37.4660   22.7220   35.9570 O   0  0  0  0  0  0  0  0  0  0  0  0
   38.6740   22.7680   35.2460 C   0  0  0  0  0  3  0  0  0  0  0  0
   38.5880   22.0840   34.3780 H   0  0  0  0  0  0  0  0  0  0  0  0
   38.8650   24.2180   34.8060 C   0  0  0  0  0  3  0  0  0  0  0  0
   39.9110   24.5270   34.9290 H   0  0  0  0  0  0  0  0  0  0  0  0
  1  5  1  0  0  0  0
  2  3  1  0  0  0  0
  2  1  2  0  0  0  0
  3  4  2  0  0  0  0
  4  5  1  0  0  0  0
  4 19  1  0  0  0  0
  6  2  1  0  0  0  0
  7  3  1  0  0  0  0
  8  1  1  0  0  0  0
  8 10  1  0  0  0  0
  9  8  2  0  0  0  0
 10 11  2  0  0  0  0
 10 15  1  0  0  0  0
 11 12  1  0  0  0  0
 12 17  1  0  0  0  0
 12 13  2  0  0  0  0
 14 13  1  0  0  0  0
 14 18  1  0  0  0  0
 15 14  2  0  0  0  0
 16 11  1  0  0  0  0
 19 21  1  0  0  0  0
 19 20  2  0  0  0  0
 21 22  1  0  0  0  0
 22 24  1  0  0  0  0
 22 23  1  0  0  0  0
 24 25  1  0  0  0  0
 26 24  1  0  0  0  0
 27 26  1  0  0  0  0
 28 27  1  0  0  0  0
 29 30  1  0  0  0  0
 29 27  1  0  0  0  0
 29 21  1  0  0  0  0
M  END
>  <minimizedAffinity>
-5.21839666

$$$$

 OpenBabel03272507313D

 30 32  0  0  0  0  0  0  0  0999 V2000
   37.2410   27.2200   34.5960 C   0  0  0  0  0  0  0  0  0  0  0  0
   38.0590   27.7750   35.5240 C   0  0  0  0  0  0  0  0  0  0  0  0
   38.5230   26.7770   36.3720 C   0  0  0  0  0  0  0  0  0  0  0  0
   37.9250   25.6100   35.8810 C   0  0  0  0  0  0  0  0  0  0  0  0
   37.2080   25.9560   34.8640 O   0  0  0  0  0  0  0  0  0  0  0  0
   38.3900   28.8040   35.7020 H   0  0  0  0  0  0  0  0  0  0  0  0
   39.1870   26.8520   37.2180 H   0  0  0  0  0  0  0  0  0  0  0  0
   36.5880   27.9940   33.5560 C   0  0  0  0  0  0  0  0  0  0  0  0
   35.5740   28.6390   33.8240 O   0  0  0  0  0  0  0  0  0  0  0  0
   37.1960   27.9510   32.2290 C   0  0  0  0  0  0  0  0  0  0  0  0
   36.4600   28.5200   31.1830 C   0  0  0  0  0  0  0  0  0  0  0  0
   37.0090   28.4960   29.9100 C   0  0  0  0  0  0  0  0  0  0  0  0
   38.2450   27.9150   29.7430 N   0  0  0  0  0  0  0  0  0  0  0  0
   38.9240   27.3770   30.7740 C   0  0  0  0  0  0  0  0  0  0  0  0
   38.4070   27.3920   32.0160 N   0  0  0  0  0  0  0  0  0  0  0  0
   35.5040   28.9580   31.3680 H   0  0  0  0  0  0  0  0  0  0  0  0
   36.5000   28.9140   29.0560 H   0  0  0  0  0  0  0  0  0  0  0  0
   39.8960   26.9210   30.6330 H   0  0  0  0  0  0  0  0  0  0  0  0
   38.1190   24.2680   36.4620 C   0  0  0  0  0  0  0  0  0  0  0  0
   37.1500   23.7240   37.0660 O   0  0  0  0  0  0  0  0  0  0  0  0
   39.4350   23.6430   36.3010 C   0  0  0  0  0  3  0  0  0  0  0  0
   39.5570   22.7480   35.1140 C   0  0  0  0  0  3  0  0  0  0  0  0
   39.3080   23.2460   34.1580 H   0  0  0  0  0  0  0  0  0  0  0  0
   41.0050   22.2590   35.0810 C   0  0  0  0  0  3  0  0  0  0  0  0
   41.0960   21.1940   34.8310 H   0  0  0  0  0  0  0  0  0  0  0  0
   41.6870   22.5200   36.2580 O   0  0  0  0  0  0  0  0  0  0  0  0
   41.0000   21.9990   37.3640 C   0  0  0  0  0  3  0  0  0  0  0  0
   41.6710   22.0580   38.2440 H   0  0  0  0  0  0  0  0  0  0  0  0
   39.7520   22.8600   37.5460 C   0  0  0  0  0  3  0  0  0  0  0  0
   38.8820   22.2360   37.7880 H   0  0  0  0  0  0  0  0  0  0  0  0
  1  5  1  0  0  0  0
  1  2  2  0  0  0  0
  2  6  1  0  0  0  0
  2  3  1  0  0  0  0
  3  7  1  0  0  0  0
  4  3  2  0  0  0  0
  4 19  1  0  0  0  0
  5  4  1  0  0  0  0
  8  9  2  0  0  0  0
  8  1  1  0  0  0  0
 10  8  1  0  0  0  0
 11 16  1  0  0  0  0
 11 10  2  0  0  0  0
 12 11  1  0  0  0  0
 13 12  2  0  0  0  0
 13 14  1  0  0  0  0
 14 15  2  0  0  0  0
 15 10  1  0  0  0  0
 17 12  1  0  0  0  0
 18 14  1  0  0  0  0
 19 20  2  0  0  0  0
 21 19  1  0  0  0  0
 21 29  1  0  0  0  0
 22 21  1  0  0  0  0
 23 22  1  0  0  0  0
 24 22  1  0  0  0  0
 24 26  1  0  0  0  0
 25 24  1  0  0  0  0
 26 27  1  0  0  0  0
 27 29  1  0  0  0  0
 27 28  1  0  0  0  0
 29 30  1  0  0  0  0
M  END
>  <minimizedAffinity>
-5.16682529

$$$$

 OpenBabel03272507313D

 30 32  0  0  0  0  0  0  0  0999 V2000
   37.7990   25.7670   34.7920 C   0  0  0  0  0  0  0  0  0  0  0  0
   38.3350   26.6910   35.6270 C   0  0  0  0  0  0  0  0  0  0  0  0
   37.8000   27.9360   35.3270 C   0  0  0  0  0  0  0  0  0  0  0  0
   36.9210   27.6810   34.2680 C   0  0  0  0  0  0  0  0  0  0  0  0
   36.9830   26.4130   34.0270 O   0  0  0  0  0  0  0  0  0  0  0  0
   39.0680   26.6200   36.4390 H   0  0  0  0  0  0  0  0  0  0  0  0
   37.9960   28.8940   35.7830 H   0  0  0  0  0  0  0  0  0  0  0  0
   38.1480   24.3590   34.8440 C   0  0  0  0  0  0  0  0  0  0  0  0
   38.0470   23.6700   33.8280 O   0  0  0  0  0  0  0  0  0  0  0  0
   38.6070   23.8450   36.1310 C   0  0  0  0  0  0  0  0  0  0  0  0
   39.8930   23.2920   36.1630 C   0  0  0  0  0  0  0  0  0  0  0  0
   40.3580   22.7930   37.3710 C   0  0  0  0  0  0  0  0  0  0  0  0
   39.5340   22.8690   38.4700 N   0  0  0  0  0  0  0  0  0  0  0  0
   38.3030   23.4080   38.4010 C   0  0  0  0  0  0  0  0  0  0  0  0
   37.8340   23.8970   37.2370 N   0  0  0  0  0  0  0  0  0  0  0  0
   40.4910   23.2580   35.2800 H   0  0  0  0  0  0  0  0  0  0  0  0
   41.3380   22.3530   37.4730 H   0  0  0  0  0  0  0  0  0  0  0  0
   37.6600   23.4640   39.2710 H   0  0  0  0  0  0  0  0  0  0  0  0
   36.1050   28.7110   33.5980 C   0  0  0  0  0  0  0  0  0  0  0  0
   36.3610   28.9960   32.3920 O   0  0  0  0  0  0  0  0  0  0  0  0
   35.0380   29.3450   34.3780 C   0  0  0  0  0  3  0  0  0  0  0  0
   33.7460   29.5030   33.6500 C   0  0  0  0  0  3  0  0  0  0  0  0
   33.3440   28.5520   33.2520 H   0  0  0  0  0  0  0  0  0  0  0  0
   32.7540   30.1080   34.6440 C   0  0  0  0  0  3  0  0  0  0  0  0
   32.1220   30.8890   34.2020 H   0  0  0  0  0  0  0  0  0  0  0  0
   33.3680   30.5960   35.7850 O   0  0  0  0  0  0  0  0  0  0  0  0
   34.3820   31.5090   35.4600 C   0  0  0  0  0  3  0  0  0  0  0  0
   34.7030   32.0120   36.3940 H   0  0  0  0  0  0  0  0  0  0  0  0
   35.5150   30.6960   34.8370 C   0  0  0  0  0  3  0  0  0  0  0  0
   35.9390   31.2220   33.9710 H   0  0  0  0  0  0  0  0  0  0  0  0
  1  8  1  0  0  0  0
  1  2  2  0  0  0  0
  2  6  1  0  0  0  0
  3  2  1  0  0  0  0
  3  7  1  0  0  0  0
  4  3  2  0  0  0  0
  5  4  1  0  0  0  0
  5  1  1  0  0  0  0
  8 10  1  0  0  0  0
  9  8  2  0  0  0  0
 10 11  2  0  0  0  0
 10 15  1  0  0  0  0
 11 12  1  0  0  0  0
 12 17  1  0  0  0  0
 12 13  2  0  0  0  0
 14 13  1  0  0  0  0
 14 18  1  0  0  0  0
 15 14  2  0  0  0  0
 16 11  1  0  0  0  0
 19  4  1  0  0  0  0
 19 21  1  0  0  0  0
 20 19  2  0  0  0  0
 21 29  1  0  0  0  0
 22 21  1  0  0  0  0
 22 24  1  0  0  0  0
 23 22  1  0  0  0  0
 24 26  1  0  0  0  0
 25 24  1  0  0  0  0
 27 26  1  0  0  0  0
 27 28  1  0  0  0  0
 29 27  1  0  0  0  0
 30 29  1  0  0  0  0
M  END
>  <minimizedAffinity>
-5.15697527

$$$$

 OpenBabel03272507313D

 30 32  0  0  0  0  0  0  0  0999 V2000
   36.5970   25.6990   32.3390 C   0  0  0  0  0  0  0  0  0  0  0  0
   36.7400   27.0470   32.2970 C   0  0  0  0  0  0  0  0  0  0  0  0
   37.3290   27.4760   33.4780 C   0  0  0  0  0  0  0  0  0  0  0  0
   37.5200   26.2970   34.2100 C   0  0  0  0  0  0  0  0  0  0  0  0
   37.0730   25.3290   33.4820 O   0  0  0  0  0  0  0  0  0  0  0  0
   36.4860   27.7960   31.5390 H   0  0  0  0  0  0  0  0  0  0  0  0
   37.5900   28.4750   33.7900 H   0  0  0  0  0  0  0  0  0  0  0  0
   36.0130   24.9330   31.2540 C   0  0  0  0  0  0  0  0  0  0  0  0
   35.1200   25.4320   30.5690 O   0  0  0  0  0  0  0  0  0  0  0  0
   36.5400   23.5870   31.0440 C   0  0  0  0  0  0  0  0  0  0  0  0
   35.6540   22.5250   31.2630 C   0  0  0  0  0  0  0  0  0  0  0  0
   36.1240   21.2340   31.0730 C   0  0  0  0  0  0  0  0  0  0  0  0
   37.4320   21.0660   30.6810 N   0  0  0  0  0  0  0  0  0  0  0  0
   38.2560   22.1120   30.4800 C   0  0  0  0  0  0  0  0  0  0  0  0
   37.8170   23.3720   30.6600 N   0  0  0  0  0  0  0  0  0  0  0  0
   34.6480   22.7120   31.5670 H   0  0  0  0  0  0  0  0  0  0  0  0
   35.5000   20.3670   31.2220 H   0  0  0  0  0  0  0  0  0  0  0  0
   39.2840   21.9710   30.1720 H   0  0  0  0  0  0  0  0  0  0  0  0
   38.1240   26.2420   35.5550 C   0  0  0  0  0  0  0  0  0  0  0  0
   38.5500   27.3150   36.0720 O   0  0  0  0  0  0  0  0  0  0  0  0
   38.1930   24.9340   36.2130 C   0  0  0  0  0  3  0  0  0  0  0  0
   38.0970   24.9810   37.7010 C   0  0  0  0  0  3  0  0  0  0  0  0
   37.1860   25.4890   38.0690 H   0  0  0  0  0  0  0  0  0  0  0  0
   38.1140   23.5320   38.1880 C   0  0  0  0  0  3  0  0  0  0  0  0
   38.7360   23.3830   39.0800 H   0  0  0  0  0  0  0  0  0  0  0  0
   38.4960   22.6390   37.2000 O   0  0  0  0  0  0  0  0  0  0  0  0
   39.7310   23.0020   36.6430 C   0  0  0  0  0  3  0  0  0  0  0  0
   40.0820   22.1620   36.0100 H   0  0  0  0  0  0  0  0  0  0  0  0
   39.4830   24.2650   35.8210 C   0  0  0  0  0  3  0  0  0  0  0  0
   40.2990   24.9860   35.9620 H   0  0  0  0  0  0  0  0  0  0  0  0
  1  5  1  0  0  0  0
  2  1  2  0  0  0  0
  2  3  1  0  0  0  0
  3  7  1  0  0  0  0
  3  4  2  0  0  0  0
  4 19  1  0  0  0  0
  5  4  1  0  0  0  0
  6  2  1  0  0  0  0
  8  1  1  0  0  0  0
  9  8  2  0  0  0  0
 10  8  1  0  0  0  0
 10 11  1  0  0  0  0
 11 16  1  0  0  0  0
 12 17  1  0  0  0  0
 12 11  2  0  0  0  0
 13 12  1  0  0  0  0
 14 15  1  0  0  0  0
 14 13  2  0  0  0  0
 15 10  2  0  0  0  0
 18 14  1  0  0  0  0
 19 20  2  0  0  0  0
 19 21  1  0  0  0  0
 21 22  1  0  0  0  0
 22 23  1  0  0  0  0
 22 24  1  0  0  0  0
 24 25  1  0  0  0  0
 26 24  1  0  0  0  0
 27 26  1  0  0  0  0
 28 27  1  0  0  0  0
 29 30  1  0  0  0  0
 29 21  1  0  0  0  0
 29 27  1  0  0  0  0
M  END
>  <minimizedAffinity>
-5.14881563

$$$$

 OpenBabel03272507313D

 30 32  0  0  0  0  0  0  0  0999 V2000
   38.0050   26.4070   34.1140 C   0  0  0  0  0  0  0  0  0  0  0  0
   38.1190   27.3570   35.0750 C   0  0  0  0  0  0  0  0  0  0  0  0
   38.3370   26.7380   36.2980 C   0  0  0  0  0  0  0  0  0  0  0  0
   38.3440   25.3720   35.9910 C   0  0  0  0  0  0  0  0  0  0  0  0
   38.1470   25.2730   34.7180 O   0  0  0  0  0  0  0  0  0  0  0  0
   38.0700   28.4510   35.0460 H   0  0  0  0  0  0  0  0  0  0  0  0
   38.4730   27.1780   37.2740 H   0  0  0  0  0  0  0  0  0  0  0  0
   37.7730   26.7220   32.7160 C   0  0  0  0  0  0  0  0  0  0  0  0
   38.3320   27.6960   32.2110 O   0  0  0  0  0  0  0  0  0  0  0  0
   36.8670   25.8380   31.9870 C   0  0  0  0  0  0  0  0  0  0  0  0
   37.3350   24.5470   31.7140 C   0  0  0  0  0  0  0  0  0  0  0  0
   36.4980   23.6840   31.0220 C   0  0  0  0  0  0  0  0  0  0  0  0
   35.2570   24.1400   30.6440 N   0  0  0  0  0  0  0  0  0  0  0  0
   34.8410   25.3890   30.9240 C   0  0  0  0  0  0  0  0  0  0  0  0
   35.6390   26.2410   31.5950 N   0  0  0  0  0  0  0  0  0  0  0  0
   38.3080   24.2450   32.0310 H   0  0  0  0  0  0  0  0  0  0  0  0
   36.7900   22.6750   30.7760 H   0  0  0  0  0  0  0  0  0  0  0  0
   33.8620   25.7400   30.6220 H   0  0  0  0  0  0  0  0  0  0  0  0
   38.5440   24.2970   36.9810 C   0  0  0  0  0  0  0  0  0  0  0  0
   37.8370   24.3020   38.0310 O   0  0  0  0  0  0  0  0  0  0  0  0
   39.5580   23.2810   36.6840 C   0  0  0  0  0  3  0  0  0  0  0  0
   40.1930   22.6660   37.8850 C   0  0  0  0  0  3  0  0  0  0  0  0
   39.4650   22.2130   38.5860 H   0  0  0  0  0  0  0  0  0  0  0  0
   41.1550   21.5950   37.3730 C   0  0  0  0  0  3  0  0  0  0  0  0
   42.1120   21.5810   37.9110 H   0  0  0  0  0  0  0  0  0  0  0  0
   41.3880   21.6900   36.0110 O   0  0  0  0  0  0  0  0  0  0  0  0
   41.8270   22.9750   35.6630 C   0  0  0  0  0  3  0  0  0  0  0  0
   42.1840   22.9440   34.6150 H   0  0  0  0  0  0  0  0  0  0  0  0
   40.6260   23.9040   35.8250 C   0  0  0  0  0  3  0  0  0  0  0  0
   40.9280   24.8520   36.2890 H   0  0  0  0  0  0  0  0  0  0  0  0
  1  5  1  0  0  0  0
  1  2  2  0  0  0  0
  2  3  1  0  0  0  0
  3  7  1  0  0  0  0
  4  3  2  0  0  0  0
  4 19  1  0  0  0  0
  5  4  1  0  0  0  0
  6  2  1  0  0  0  0
  8  1  1  0  0  0  0
  9  8  2  0  0  0  0
 10  8  1  0  0  0  0
 11 10  1  0  0  0  0
 11 16  1  0  0  0  0
 12 11  2  0  0  0  0
 13 14  2  0  0  0  0
 13 12  1  0  0  0  0
 14 15  1  0  0  0  0
 15 10  2  0  0  0  0
 17 12  1  0  0  0  0
 18 14  1  0  0  0  0
 19 20  2  0  0  0  0
 21 19  1  0  0  0  0
 21 22  1  0  0  0  0
 22 23  1  0  0  0  0
 24 22  1  0  0  0  0
 24 25  1  0  0  0  0
 26 24  1  0  0  0  0
 27 29  1  0  0  0  0
 27 26  1  0  0  0  0
 28 27  1  0  0  0  0
 29 30  1  0  0  0  0
 29 21  1  0  0  0  0
M  END
>  <minimizedAffinity>
-5.14242363

$$$$

 OpenBabel03272507313D

 30 32  0  0  0  0  0  0  0  0999 V2000
   37.9040   25.4050   35.9910 C   0  0  0  0  0  0  0  0  0  0  0  0
   38.7480   26.4040   36.3510 C   0  0  0  0  0  0  0  0  0  0  0  0
   38.3830   27.5660   35.6840 C   0  0  0  0  0  0  0  0  0  0  0  0
   37.2770   27.1830   34.9150 C   0  0  0  0  0  0  0  0  0  0  0  0
   37.0730   25.9300   35.1520 O   0  0  0  0  0  0  0  0  0  0  0  0
   39.6060   26.4410   37.0310 H   0  0  0  0  0  0  0  0  0  0  0  0
   38.8270   28.5480   35.7270 H   0  0  0  0  0  0  0  0  0  0  0  0
   38.0120   24.0550   36.5110 C   0  0  0  0  0  0  0  0  0  0  0  0
   37.0660   23.5630   37.1270 O   0  0  0  0  0  0  0  0  0  0  0  0
   39.2700   23.3550   36.2620 C   0  0  0  0  0  0  0  0  0  0  0  0
   39.9130   22.8050   37.3760 C   0  0  0  0  0  0  0  0  0  0  0  0
   41.1100   22.1340   37.1730 C   0  0  0  0  0  0  0  0  0  0  0  0
   41.5990   22.0450   35.8910 N   0  0  0  0  0  0  0  0  0  0  0  0
   40.9520   22.5870   34.8420 C   0  0  0  0  0  0  0  0  0  0  0  0
   39.7890   23.2420   35.0200 N   0  0  0  0  0  0  0  0  0  0  0  0
   39.4890   22.9030   38.3510 H   0  0  0  0  0  0  0  0  0  0  0  0
   41.6620   21.6850   37.9840 H   0  0  0  0  0  0  0  0  0  0  0  0
   41.3450   22.5130   33.8360 H   0  0  0  0  0  0  0  0  0  0  0  0
   36.5300   28.0890   34.0230 C   0  0  0  0  0  0  0  0  0  0  0  0
   35.7960   28.9800   34.5410 O   0  0  0  0  0  0  0  0  0  0  0  0
   36.6890   27.9010   32.5780 C   0  0  0  0  0  3  0  0  0  0  0  0
   38.0780   27.5800   32.1410 C   0  0  0  0  0  3  0  0  0  0  0  0
   38.5030   26.6880   32.6400 H   0  0  0  0  0  0  0  0  0  0  0  0
   38.0220   27.3510   30.6310 C   0  0  0  0  0  3  0  0  0  0  0  0
   38.8660   27.8030   30.0940 H   0  0  0  0  0  0  0  0  0  0  0  0
   36.8300   27.7760   30.0680 O   0  0  0  0  0  0  0  0  0  0  0  0
   36.5720   29.1160   30.3880 C   0  0  0  0  0  3  0  0  0  0  0  0
   35.7250   29.4610   29.7630 H   0  0  0  0  0  0  0  0  0  0  0  0
   36.2260   29.1490   31.8760 C   0  0  0  0  0  3  0  0  0  0  0  0
   36.6980   30.0120   32.3650 H   0  0  0  0  0  0  0  0  0  0  0  0
  1  2  2  0  0  0  0
  1  8  1  0  0  0  0
  2  6  1  0  0  0  0
  3  7  1  0  0  0  0
  3  2  1  0  0  0  0
  4  5  1  0  0  0  0
  4  3  2  0  0  0  0
  5  1  1  0  0  0  0
  8  9  2  0  0  0  0
 10  8  1  0  0  0  0
 10 11  1  0  0  0  0
 11 16  1  0  0  0  0
 12 11  2  0  0  0  0
 12 17  1  0  0  0  0
 13 12  1  0  0  0  0
 14 15  1  0  0  0  0
 14 13  2  0  0  0  0
 15 10  2  0  0  0  0
 18 14  1  0  0  0  0
 19 20  2  0  0  0  0
 19  4  1  0  0  0  0
 21 19  1  0  0  0  0
 22 21  1  0  0  0  0
 22 23  1  0  0  0  0
 24 22  1  0  0  0  0
 25 24  1  0  0  0  0
 26 27  1  0  0  0  0
 26 24  1  0  0  0  0
 27 29  1  0  0  0  0
 28 27  1  0  0  0  0
 29 30  1  0  0  0  0
 29 21  1  0  0  0  0
M  END
>  <minimizedAffinity>
-5.10014343

$$$$

 OpenBabel03272507313D

 30 32  0  0  0  0  0  0  0  0999 V2000
   37.8250   26.2700   33.8120 C   0  0  0  0  0  0  0  0  0  0  0  0
   38.1010   27.1170   32.7890 C   0  0  0  0  0  0  0  0  0  0  0  0
   37.3860   26.7190   31.6680 C   0  0  0  0  0  0  0  0  0  0  0  0
   36.6770   25.5910   32.0990 C   0  0  0  0  0  0  0  0  0  0  0  0
   36.9880   25.4060   33.3390 O   0  0  0  0  0  0  0  0  0  0  0  0
   38.7480   27.9980   32.7090 H   0  0  0  0  0  0  0  0  0  0  0  0
   37.3600   27.1550   30.6810 H   0  0  0  0  0  0  0  0  0  0  0  0
   38.4130   26.4090   35.1310 C   0  0  0  0  0  0  0  0  0  0  0  0
   38.6430   27.5320   35.5800 O   0  0  0  0  0  0  0  0  0  0  0  0
   38.6970   25.1720   35.8540 C   0  0  0  0  0  0  0  0  0  0  0  0
   39.7980   24.4280   35.4150 C   0  0  0  0  0  0  0  0  0  0  0  0
   40.0950   23.2470   36.0810 C   0  0  0  0  0  0  0  0  0  0  0  0
   39.2940   22.8730   37.1350 N   0  0  0  0  0  0  0  0  0  0  0  0
   38.2420   23.6160   37.5290 C   0  0  0  0  0  0  0  0  0  0  0  0
   37.9390   24.7640   36.8950 N   0  0  0  0  0  0  0  0  0  0  0  0
   40.3870   24.7640   34.5910 H   0  0  0  0  0  0  0  0  0  0  0  0
   40.9270   22.6220   35.8000 H   0  0  0  0  0  0  0  0  0  0  0  0
   37.6170   23.3130   38.3600 H   0  0  0  0  0  0  0  0  0  0  0  0
   35.7630   24.8060   31.2480 C   0  0  0  0  0  0  0  0  0  0  0  0
   34.7520   25.3830   30.7520 O   0  0  0  0  0  0  0  0  0  0  0  0
   36.0870   23.3940   31.0270 C   0  0  0  0  0  3  0  0  0  0  0  0
   35.5800   22.4670   32.0790 C   0  0  0  0  0  3  0  0  0  0  0  0
   34.4860   22.5350   32.2370 H   0  0  0  0  0  0  0  0  0  0  0  0
   35.9520   21.0530   31.6350 C   0  0  0  0  0  3  0  0  0  0  0  0
   36.3180   20.4240   32.4570 H   0  0  0  0  0  0  0  0  0  0  0  0
   36.8670   21.0400   30.5960 O   0  0  0  0  0  0  0  0  0  0  0  0
   38.0090   21.7870   30.9210 C   0  0  0  0  0  3  0  0  0  0  0  0
   38.7820   21.5860   30.1530 H   0  0  0  0  0  0  0  0  0  0  0  0
   37.5830   23.2540   30.9240 C   0  0  0  0  0  3  0  0  0  0  0  0
   38.0350   23.7880   31.7700 H   0  0  0  0  0  0  0  0  0  0  0  0
  1  8  1  0  0  0  0
  2  1  2  0  0  0  0
  3  4  2  0  0  0  0
  3  2  1  0  0  0  0
  4  5  1  0  0  0  0
  5  1  1  0  0  0  0
  6  2  1  0  0  0  0
  7  3  1  0  0  0  0
  8  9  2  0  0  0  0
  8 10  1  0  0  0  0
 10 15  1  0  0  0  0
 11 10  2  0  0  0  0
 11 12  1  0  0  0  0
 12 13  2  0  0  0  0
 13 14  1  0  0  0  0
 14 18  1  0  0  0  0
 15 14  2  0  0  0  0
 16 11  1  0  0  0  0
 17 12  1  0  0  0  0
 19  4  1  0  0  0  0
 20 19  2  0  0  0  0
 21 19  1  0  0  0  0
 21 22  1  0  0  0  0
 22 23  1  0  0  0  0
 24 22  1  0  0  0  0
 24 25  1  0  0  0  0
 26 27  1  0  0  0  0
 26 24  1  0  0  0  0
 27 29  1  0  0  0  0
 28 27  1  0  0  0  0
 29 21  1  0  0  0  0
 29 30  1  0  0  0  0
M  END
>  <minimizedAffinity>
-5.07577467

$$$$

 OpenBabel03272507313D

 30 32  0  0  0  0  0  0  0  0999 V2000
   35.9470   28.7680   33.8160 C   0  0  0  0  0  0  0  0  0  0  0  0
   36.2530   27.9840   32.7530 C   0  0  0  0  0  0  0  0  0  0  0  0
   37.1860   27.0340   33.1460 C   0  0  0  0  0  0  0  0  0  0  0  0
   37.4030   27.3120   34.5010 C   0  0  0  0  0  0  0  0  0  0  0  0
   36.6530   28.3200   34.8010 O   0  0  0  0  0  0  0  0  0  0  0  0
   35.9100   27.9770   31.7120 H   0  0  0  0  0  0  0  0  0  0  0  0
   37.6530   26.2520   32.5680 H   0  0  0  0  0  0  0  0  0  0  0  0
   34.9970   29.8620   33.7410 C   0  0  0  0  0  0  0  0  0  0  0  0
   35.3980   31.0000   33.4900 O   0  0  0  0  0  0  0  0  0  0  0  0
   33.5940   29.5300   33.9760 C   0  0  0  0  0  0  0  0  0  0  0  0
   33.1320   29.6520   35.2910 C   0  0  0  0  0  0  0  0  0  0  0  0
   31.8040   29.3430   35.5470 C   0  0  0  0  0  0  0  0  0  0  0  0
   31.0150   28.9350   34.4970 N   0  0  0  0  0  0  0  0  0  0  0  0
   31.4950   28.8280   33.2440 C   0  0  0  0  0  0  0  0  0  0  0  0
   32.7810   29.1240   32.9770 N   0  0  0  0  0  0  0  0  0  0  0  0
   33.7880   29.9740   36.0690 H   0  0  0  0  0  0  0  0  0  0  0  0
   31.3770   29.4140   36.5350 H   0  0  0  0  0  0  0  0  0  0  0  0
   30.8660   28.5050   32.4230 H   0  0  0  0  0  0  0  0  0  0  0  0
   38.3290   26.5580   35.3670 C   0  0  0  0  0  0  0  0  0  0  0  0
   39.3570   27.1470   35.8120 O   0  0  0  0  0  0  0  0  0  0  0  0
   37.9960   25.1610   35.6610 C   0  0  0  0  0  3  0  0  0  0  0  0
   38.0030   24.8120   37.1110 C   0  0  0  0  0  3  0  0  0  0  0  0
   37.3340   25.4480   37.7210 H   0  0  0  0  0  0  0  0  0  0  0  0
   37.5660   23.3510   37.2130 C   0  0  0  0  0  3  0  0  0  0  0  0
   38.1500   22.7750   37.9410 H   0  0  0  0  0  0  0  0  0  0  0  0
   37.5760   22.7020   35.9900 O   0  0  0  0  0  0  0  0  0  0  0  0
   38.8280   22.8140   35.3700 C   0  0  0  0  0  3  0  0  0  0  0  0
   38.8460   22.1240   34.5030 H   0  0  0  0  0  0  0  0  0  0  0  0
   38.9680   24.2720   34.9340 C   0  0  0  0  0  3  0  0  0  0  0  0
   39.9840   24.6400   35.1320 H   0  0  0  0  0  0  0  0  0  0  0  0
  1  5  1  0  0  0  0
  2  3  1  0  0  0  0
  2  1  2  0  0  0  0
  3  4  2  0  0  0  0
  4  5  1  0  0  0  0
  4 19  1  0  0  0  0
  6  2  1  0  0  0  0
  7  3  1  0  0  0  0
  8  1  1  0  0  0  0
  8 10  1  0  0  0  0
  9  8  2  0  0  0  0
 10 11  1  0  0  0  0
 11 12  2  0  0  0  0
 11 16  1  0  0  0  0
 12 17  1  0  0  0  0
 13 12  1  0  0  0  0
 14 13  2  0  0  0  0
 15 14  1  0  0  0  0
 15 10  2  0  0  0  0
 18 14  1  0  0  0  0
 19 21  1  0  0  0  0
 19 20  2  0  0  0  0
 21 22  1  0  0  0  0
 22 24  1  0  0  0  0
 22 23  1  0  0  0  0
 24 25  1  0  0  0  0
 26 24  1  0  0  0  0
 27 26  1  0  0  0  0
 28 27  1  0  0  0  0
 29 30  1  0  0  0  0
 29 27  1  0  0  0  0
 29 21  1  0  0  0  0
M  END
>  <minimizedAffinity>
-4.96635294

$$$$
