
     RDKit          3D

 47 50  0  0  0  0  0  0  0  0999 V2000
   38.2684   32.2949   47.3935 C   0  0  0  0  0  0  0  0  0  0  0  0
   37.9060   32.7315   48.6555 C   0  0  0  0  0  0  0  0  0  0  0  0
   38.6728   33.6873   49.3082 C   0  0  0  0  0  0  0  0  0  0  0  0
   39.8035   34.1983   48.6822 C   0  0  0  0  0  0  0  0  0  0  0  0
   40.1560   33.7551   47.4218 C   0  0  0  0  0  0  0  0  0  0  0  0
   39.3738   32.8123   46.8130 C   0  0  0  0  0  0  0  0  0  0  0  0
   39.7615   32.3422   45.4576 C   0  0  0  0  0  0  0  0  0  0  0  0
   40.6102   31.3428   45.0963 C   0  0  0  0  0  0  0  0  0  0  0  0
   40.6517   31.2783   43.7091 C   0  0  0  0  0  0  0  0  0  0  0  0
   39.8007   32.2716   43.3049 C   0  0  0  0  0  0  0  0  0  0  0  0
   39.2766   32.8982   44.3566 O   0  0  0  0  0  0  0  0  0  0  0  0
   36.7518   30.5322   46.2988 N   0  0  0  0  0  0  0  0  0  0  0  0
   37.4256   31.3118   46.7952 C   0  0  0  0  0  0  0  0  0  0  0  0
   36.8046   32.3093   49.3987 O   0  0  0  0  0  0  0  0  0  0  0  0
   36.7810   31.1985   50.1685 C   0  0  0  0  0  0  0  0  0  0  0  0
   35.6422   30.4266   49.9507 C   0  0  0  0  0  0  0  0  0  0  0  0
   35.4420   29.2542   50.6456 C   0  0  0  0  0  0  0  0  0  0  0  0
   36.3936   28.8848   51.5450 N   0  0  0  0  0  0  0  0  0  0  0  0
   37.5006   29.6476   51.7480 C   0  0  0  0  0  0  0  0  0  0  0  0
   37.6750   30.7740   51.0682 N   0  0  0  0  0  0  0  0  0  0  0  0
   34.1440   29.7151   48.1450 C   0  0  0  0  0  0  0  0  0  0  0  0
   34.5487   28.5181   47.8732 O   0  0  0  0  0  0  0  0  0  0  0  0
   34.6128   30.7290   49.0464 N   0  0  0  0  0  0  0  0  0  0  0  0
   38.4446   34.0703   50.2938 H   0  0  0  0  0  0  0  0  0  0  0  0
   40.3978   34.9404   49.1904 H   0  0  0  0  0  0  0  0  0  0  0  0
   41.0291   34.1311   46.9058 H   0  0  0  0  0  0  0  0  0  0  0  0
   41.1594   30.7065   45.7795 H   0  0  0  0  0  0  0  0  0  0  0  0
   41.2256   30.5979   43.0720 H   0  0  0  0  0  0  0  0  0  0  0  0
   39.5617   32.5399   42.2672 H   0  0  0  0  0  0  0  0  0  0  0  0
   34.5831   28.6074   50.5270 H   0  0  0  0  0  0  0  0  0  0  0  0
   38.2374   29.3108   52.4804 H   0  0  0  0  0  0  0  0  0  0  0  0
   34.1014   31.6321   48.9174 H   0  0  0  0  0  0  0  0  0  0  0  0
   32.9572   29.9043   47.2593 C   0  0  0  0  0  0  0  0  0  0  0  0
   32.8482   31.3471   46.9184 C   0  0  2  0  0  0  0  0  0  0  0  0
   33.5576   31.6287   46.0841 H   0  0  0  0  0  0  0  0  0  0  0  0
   31.4836   31.7712   46.4427 C   0  0  1  0  0  0  0  0  0  0  0  0
   30.9755   32.3680   47.2360 H   0  0  0  0  0  0  0  0  0  0  0  0
   30.6414   30.6763   46.2290 O   0  0  0  0  0  0  0  0  0  0  0  0
   30.4643   30.1201   47.5141 C   0  0  2  0  0  0  0  0  0  0  0  0
   29.5720   29.4640   47.5437 H   0  0  0  0  0  0  0  0  0  0  0  0
   31.7082   29.2533   47.7345 C   0  0  2  0  0  0  0  0  0  0  0  0
   31.6864   28.9562   48.7946 H   0  0  0  0  0  0  0  0  0  0  0  0
   33.2631   29.3866   46.3069 H   0  0  0  0  0  0  0  0  0  0  0  0
   33.1377   32.0108   47.7649 H   0  0  0  0  0  0  0  0  0  0  0  0
   31.5116   32.3962   45.5284 H   0  0  0  0  0  0  0  0  0  0  0  0
   30.3716   30.9185   48.2692 H   0  0  0  0  0  0  0  0  0  0  0  0
   31.4849   28.3115   47.1847 H   0  0  0  0  0  0  0  0  0  0  0  0
  1  2  2  0
  2  3  1  0
  2 14  1  0
  4  3  2  0
  5  4  1  0
  6  1  1  0
  6  5  2  0
  7  6  1  0
  8  7  2  0
  9  8  1  0
 10  9  2  0
 10 11  1  0
 11  7  1  0
 12 13  3  0
 13  1  1  0
 14 15  1  0
 15 20  2  0
 16 15  1  0
 16 17  2  0
 17 18  1  0
 18 19  2  0
 20 19  1  0
 21 23  1  0
 22 21  2  0
 23 16  1  0
  3 24  1  0
  4 25  1  0
  5 26  1  0
  8 27  1  0
  9 28  1  0
 10 29  1  0
 17 30  1  0
 19 31  1  0
 23 32  1  0
 33 34  1  0
 34 35  1  6
 34 36  1  0
 36 37  1  1
 36 38  1  0
 38 39  1  0
 39 40  1  6
 39 41  1  0
 41 42  1  1
 41 33  1  0
 33 43  1  0
 34 44  1  0
 36 45  1  0
 39 46  1  0
 41 47  1  0
 21 33  1  0
M  ISO  8  24  14  25  14  26  14  27  14  28  14  29  14  30  14  31  14
M  ISO  4  35  15  37  15  40  15  42  15
M  END
>  <DihAtoms>  (1) 
22,20,32,33

>  <DihDeg>  (1) 
179.99333474690678

$$$$
