
 OpenBabel03272507273D

 40 42  0  0  1  0  0  0  0  0999 V2000
   36.7550   29.9250   49.3300 C   0  0  0  0  0  0  0  0  0  0  0  0
   37.7490   30.6070   48.6080 C   0  0  0  0  0  0  0  0  0  0  0  0
   37.5020   30.8900   47.2570 C   0  0  0  0  0  0  0  0  0  0  0  0
   36.3370   30.4960   46.7390 N   0  0  0  0  0  0  0  0  0  0  0  0
   35.4010   29.8440   47.4530 C   0  0  0  0  0  0  0  0  0  0  0  0
   35.6180   29.5660   48.7370 N   0  0  0  0  0  0  0  0  0  0  0  0
   38.4650   31.5680   46.4890 N   0  0  0  0  0  0  0  0  0  0  0  0
   39.4430   32.5330   47.0060 C   0  0  0  0  0  0  0  0  0  0  0  0
   40.0940   33.1650   45.8130 C   0  0  0  0  0  0  0  0  0  0  0  0
   39.1470   32.8640   44.7200 C   0  0  0  0  0  0  0  0  0  0  0  0
   38.7030   31.4740   45.0790 C   0  0  2  0  0  0  0  0  0  0  0  0
   36.9410   29.7080   50.3570 H   0  0  0  0  0  0  0  0  0  0  0  0
   38.6740   30.9000   49.0890 H   0  0  0  0  0  0  0  0  0  0  0  0
   34.4990   29.5870   46.8880 H   0  0  0  0  0  0  0  0  0  0  0  0
   40.1840   32.0530   47.6690 H   0  0  0  0  0  0  0  0  0  0  0  0
   38.8560   33.2790   47.5630 H   0  0  0  0  0  0  0  0  0  0  0  0
   40.0770   34.2860   45.9610 H   0  0  0  0  0  0  0  0  0  0  0  0
   41.1390   32.8330   45.6630 H   0  0  0  0  0  0  0  0  0  0  0  0
   38.3190   33.5850   44.7120 H   0  0  0  0  0  0  0  0  0  0  0  0
   39.6130   32.8950   43.7020 H   0  0  0  0  0  0  0  0  0  0  0  0
   37.5900   30.9710   44.2230 C   0  0  0  0  0  0  0  0  0  0  0  0
   36.4380   31.6120   44.6520 F   0  0  0  0  0  0  0  0  0  0  0  0
   37.3560   29.6320   44.2690 F   0  0  0  0  0  0  0  0  0  0  0  0
   37.8410   31.4560   42.9480 F   0  0  0  0  0  0  0  0  0  0  0  0
   39.8560   30.5520   44.9270 C   0  0  0  0  0  0  0  0  0  0  0  0
   39.5000   29.5700   45.3000 H   0  0  0  0  0  0  0  0  0  0  0  0
   40.6240   30.8560   45.7020 H   0  0  0  0  0  0  0  0  0  0  0  0
   40.3610   30.7710   43.8210 O   0  0  0  0  0  0  0  0  0  0  0  0
   40.6900   30.0850   42.6990 C   0  0  0  0  0  0  0  0  0  0  0  0
   40.6750   30.8870   41.7280 O   0  0  0  0  0  0  0  0  0  0  0  0
   41.0690   28.8480   42.0090 C   0  0  0  0  0  3  0  0  0  0  0  0
   39.8030   27.9850   41.8710 C   0  0  0  0  0  3  0  0  0  0  0  0
   39.5890   27.4240   42.7880 H   0  0  0  0  0  0  0  0  0  0  0  0
   40.1720   26.9740   40.8010 C   0  0  0  0  0  3  0  0  0  0  0  0
   39.5170   26.0820   40.8320 H   0  0  0  0  0  0  0  0  0  0  0  0
   40.0550   27.6900   39.6250 O   0  0  0  0  0  0  0  0  0  0  0  0
   41.0890   28.5680   39.4810 C   0  0  0  0  0  3  0  0  0  0  0  0
   40.7100   29.3590   38.7670 H   0  0  0  0  0  0  0  0  0  0  0  0
   41.6780   29.1730   40.6890 C   0  0  0  0  0  3  0  0  0  0  0  0
   42.7560   28.8820   40.7300 H   0  0  0  0  0  0  0  0  0  0  0  0
  1 12  1  0  0  0  0
  2 13  1  0  0  0  0
  2  1  2  0  0  0  0
  3  2  1  0  0  0  0
  4  3  2  0  0  0  0
  4  5  1  0  0  0  0
  5  6  2  0  0  0  0
  6  1  1  0  0  0  0
  7  8  1  0  0  0  0
  7  3  1  0  0  0  0
  8 16  1  0  0  0  0
  8 15  1  0  0  0  0
  9 17  1  0  0  0  0
  9  8  1  0  0  0  0
 10 11  1  0  0  0  0
 10  9  1  0  0  0  0
 11 21  1  6  0  0  0
 11  7  1  0  0  0  0
 14  5  1  0  0  0  0
 18  9  1  0  0  0  0
 19 10  1  0  0  0  0
 20 10  1  0  0  0  0
 21 23  1  0  0  0  0
 21 22  1  0  0  0  0
 24 21  1  0  0  0  0
 25 11  1  0  0  0  0
 25 26  1  0  0  0  0
 25 27  1  0  0  0  0
 28 25  1  0  0  0  0
 29 28  1  0  0  0  0
 30 29  2  0  0  0  0
 31 29  1  0  0  0  0
 32 31  1  0  0  0  0
 32 33  1  0  0  0  0
 34 35  1  0  0  0  0
 34 32  1  0  0  0  0
 36 34  1  0  0  0  0
 37 36  1  0  0  0  0
 37 39  1  0  0  0  0
 38 37  1  0  0  0  0
 39 40  1  0  0  0  0
 39 31  1  0  0  0  0
M  END
>  <minimizedAffinity>
-5.22831631

>  <minimizedRMSD>
0.571826339

$$$$
