
 OpenBabel03272509433D

 39 41  0  0  1  0  0  0  0  0999 V2000
   37.0210   30.9220   49.0840 C   0  0  0  0  0  0  0  0  0  0  0  0
   36.7120   31.8250   50.1040 C   0  0  0  0  0  0  0  0  0  0  0  0
   37.2900   33.0850   50.1610 C   0  0  0  0  0  0  0  0  0  0  0  0
   38.2040   33.4700   49.1800 C   0  0  0  0  0  0  0  0  0  0  0  0
   38.4950   32.5720   48.1890 C   0  0  0  0  0  0  0  0  0  0  0  0
   37.9010   31.3210   48.1600 C   0  0  0  0  0  0  0  0  0  0  0  0
   35.9900   31.4870   50.8550 H   0  0  0  0  0  0  0  0  0  0  0  0
   36.9620   33.6780   51.0000 H   0  0  0  0  0  0  0  0  0  0  0  0
   38.6120   34.4640   49.2910 H   0  0  0  0  0  0  0  0  0  0  0  0
   39.2240   33.0100   47.4980 H   0  0  0  0  0  0  0  0  0  0  0  0
   36.4450   29.5950   49.0430 C   0  0  2  0  0  0  0  0  0  0  0  0
   36.9490   29.0750   48.1410 H   0  0  0  0  0  0  0  0  0  0  0  0
   33.5910   29.9470   46.8200 C   0  0  0  0  0  0  0  0  0  0  0  0
   32.8480   28.8040   47.0460 C   0  0  0  0  0  0  0  0  0  0  0  0
   33.2880   27.9230   48.0160 C   0  0  0  0  0  0  0  0  0  0  0  0
   34.4390   28.2090   48.7160 N   0  0  0  0  0  0  0  0  0  0  0  0
   35.1050   29.3140   48.4530 C   0  0  0  0  0  0  0  0  0  0  0  0
   34.6910   30.1860   47.5110 N   0  0  0  0  0  0  0  0  0  0  0  0
   33.2790   30.6710   46.0620 H   0  0  0  0  0  0  0  0  0  0  0  0
   31.9670   28.6850   46.4380 H   0  0  0  0  0  0  0  0  0  0  0  0
   32.7020   27.0310   48.1910 H   0  0  0  0  0  0  0  0  0  0  0  0
   36.9220   28.8190   49.9510 O   0  0  0  0  0  0  0  0  0  0  0  0
   36.7130   28.9130   50.9040 H   0  0  0  0  0  0  0  0  0  0  0  0
   38.3250   30.4650   47.0760 C   0  0  0  0  0  3  0  0  0  0  0  0
   38.9170   30.9130   45.9630 C   0  0  0  0  0  3  0  0  0  0  0  0
   39.4310   30.1260   44.8170 C   0  0  0  0  0  0  0  0  0  0  0  0
   40.5510   30.1390   44.8990 H   0  0  0  0  0  0  0  0  0  0  0  0
   39.0670   29.0920   44.8850 H   0  0  0  0  0  0  0  0  0  0  0  0
   39.0170   30.9520   43.2800 S   0  0  0  0  0  0  0  0  0  0  0  0
   39.4180   29.9490   41.8290 C   0  0  0  0  0  3  0  0  0  0  0  0
   39.7080   28.5450   42.2450 C   0  0  0  0  0  3  0  0  0  0  0  0
   40.3230   28.4710   43.1610 H   0  0  0  0  0  0  0  0  0  0  0  0
   40.3090   27.6870   41.1860 C   0  0  0  0  0  3  0  0  0  0  0  0
   39.4800   27.2610   40.5610 H   0  0  0  0  0  0  0  0  0  0  0  0
   41.2210   28.2980   40.3620 O   0  0  0  0  0  0  0  0  0  0  0  0
   41.6660   29.5340   40.7730 C   0  0  0  0  0  3  0  0  0  0  0  0
   42.2280   29.9600   39.8940 H   0  0  0  0  0  0  0  0  0  0  0  0
   40.5850   30.5130   41.0890 C   0  0  0  0  0  3  0  0  0  0  0  0
   41.0440   31.3370   41.7070 H   0  0  0  0  0  0  0  0  0  0  0  0
  1  2  1  0  0  0  0
  2  3  2  0  0  0  0
  2  7  1  0  0  0  0
  3  8  1  0  0  0  0
  4  9  1  0  0  0  0
  4  3  1  0  0  0  0
  5  4  2  0  0  0  0
  6  5  1  0  0  0  0
  6  1  2  0  0  0  0
 10  5  1  0  0  0  0
 11 12  1  6  0  0  0
 11  1  1  0  0  0  0
 11 22  1  0  0  0  0
 13 14  2  0  0  0  0
 13 18  1  0  0  0  0
 14 15  1  0  0  0  0
 15 21  1  0  0  0  0
 15 16  2  0  0  0  0
 17 16  1  0  0  0  0
 17 11  1  0  0  0  0
 18 17  2  0  0  0  0
 19 13  1  0  0  0  0
 20 14  1  0  0  0  0
 22 23  1  0  0  0  0
 24  6  1  0  0  0  0
 25 24  2  0  0  0  0
 26 28  1  0  0  0  0
 26 27  1  0  0  0  0
 26 25  1  0  0  0  0
 29 26  1  0  0  0  0
 30 31  1  0  0  0  0
 30 29  1  0  0  0  0
 31 32  1  0  0  0  0
 33 31  1  0  0  0  0
 34 33  1  0  0  0  0
 35 36  1  0  0  0  0
 35 33  1  0  0  0  0
 36 38  1  0  0  0  0
 37 36  1  0  0  0  0
 38 39  1  0  0  0  0
 38 30  1  0  0  0  0
M  END
>  <minimizedAffinity>
-5.73390961

>  <minimizedRMSD>
0.354150444

$$$$
