
     RDKit          3D

 35 37  0  0  0  0  0  0  0  0999 V2000
   36.8046   30.7423   49.1871 C   0  0  0  0  0  0  0  0  0  0  0  0
   37.9223   31.1245   48.4679 C   0  0  0  0  0  0  0  0  0  0  0  0
   37.9178   31.1026   47.0845 C   0  0  0  0  0  0  0  0  0  0  0  0
   36.7944   30.6989   46.4754 N   0  0  0  0  0  0  0  0  0  0  0  0
   35.6930   30.3223   47.1858 C   0  0  0  0  0  0  0  0  0  0  0  0
   35.6943   30.3423   48.5220 N   0  0  0  0  0  0  0  0  0  0  0  0
   39.0722   31.4970   46.3132 C   0  0  0  0  0  0  0  0  0  0  0  0
   39.7620   30.6911   45.4496 C   0  0  0  0  0  0  0  0  0  0  0  0
   40.7840   31.4875   44.9397 C   0  0  0  0  0  0  0  0  0  0  0  0
   40.6968   32.7100   45.4822 N   0  0  0  0  0  0  0  0  0  0  0  0
   39.6596   32.7064   46.3109 N   0  0  0  0  0  0  0  0  0  0  0  0
   36.9783   30.8235   50.5654 O   0  0  0  0  0  0  0  0  0  0  0  0
   36.9465   29.7074   51.4116 C   0  0  0  0  0  0  0  0  0  0  0  0
   35.6661   29.2618   51.6566 F   0  0  0  0  0  0  0  0  0  0  0  0
   37.5687   30.0409   52.5914 F   0  0  0  0  0  0  0  0  0  0  0  0
   37.6754   28.6906   50.8196 F   0  0  0  0  0  0  0  0  0  0  0  0
   38.8543   31.4585   48.9143 H   0  0  0  0  0  0  0  0  0  0  0  0
   34.7773   29.9937   46.7239 H   0  0  0  0  0  0  0  0  0  0  0  0
   39.5723   29.6515   45.1994 H   0  0  0  0  0  0  0  0  0  0  0  0
   41.5180   31.1145   44.2081 H   0  0  0  0  0  0  0  0  0  0  0  0
   41.6034   33.7697   45.1665 C   0  0  1  0  0  0  0  0  0  0  0  0
   42.9612   33.4860   45.7145 C   0  0  1  0  0  0  0  0  0  0  0  0
   43.0528   33.8931   46.7553 H   0  0  0  0  0  0  0  0  0  0  0  0
   44.0098   34.0961   44.8080 C   0  0  2  0  0  0  0  0  0  0  0  0
   44.3477   33.3689   44.0437 H   0  0  0  0  0  0  0  0  0  0  0  0
   43.6467   35.3314   44.2949 O   0  0  0  0  0  0  0  0  0  0  0  0
   42.4977   35.3099   43.5237 C   0  0  2  0  0  0  0  0  0  0  0  0
   42.7040   35.5696   42.4634 H   0  0  0  0  0  0  0  0  0  0  0  0
   41.7209   34.0252   43.6812 C   0  0  2  0  0  0  0  0  0  0  0  0
   40.6929   34.2022   43.2970 H   0  0  0  0  0  0  0  0  0  0  0  0
   41.2213   34.7247   45.6032 H   0  0  0  0  0  0  0  0  0  0  0  0
   43.1796   32.4030   45.7924 H   0  0  0  0  0  0  0  0  0  0  0  0
   44.9008   34.2967   45.4548 H   0  0  0  0  0  0  0  0  0  0  0  0
   41.8413   36.1277   43.9318 H   0  0  0  0  0  0  0  0  0  0  0  0
   42.1907   33.1860   43.1401 H   0  0  0  0  0  0  0  0  0  0  0  0
  1 12  1  0
  2  1  2  0
  3  2  1  0
  4  3  2  0
  4  5  1  0
  5  6  2  0
  6  1  1  0
  7 11  2  0
  7  3  1  0
  8  7  1  0
  9  8  2  0
  9 10  1  0
 10 11  1  0
 12 13  1  0
 13 14  1  0
 13 15  1  0
 16 13  1  0
  2 17  1  0
  5 18  1  0
  8 19  1  0
  9 20  1  0
 21 22  1  0
 22 23  1  1
 22 24  1  0
 24 25  1  6
 24 26  1  0
 26 27  1  0
 27 28  1  6
 27 29  1  0
 29 30  1  6
 29 21  1  0
 21 31  1  1
 22 32  1  0
 24 33  1  0
 27 34  1  0
 29 35  1  0
 10 21  1  0
M  ISO  8  17  14  18  14  19  14  20  14  23  15  25  15  28  15  30  15
M  END
>  <DihAtoms>  (1) 
8,9,20,21

>  <DihDeg>  (1) 
65.75334678504923

$$$$
