
 OpenBabel03272510133D

 42 45  0  0  0  0  0  0  0  0999 V2000
   38.2780   31.4320   48.7980 C   0  0  0  0  0  0  0  0  0  0  0  0
   38.3430   32.6970   49.3500 C   0  0  0  0  0  0  0  0  0  0  0  0
   38.9840   33.5140   48.4300 C   0  0  0  0  0  0  0  0  0  0  0  0
   39.2800   32.7340   47.3710 N   0  0  0  0  0  0  0  0  0  0  0  0
   38.8660   31.5190   47.5900 N   0  0  0  0  0  0  0  0  0  0  0  0
   38.0310   33.1660   50.2720 H   0  0  0  0  0  0  0  0  0  0  0  0
   39.2430   34.5760   48.4600 H   0  0  0  0  0  0  0  0  0  0  0  0
   39.9620   33.1730   46.1590 C   0  0  0  0  0  0  0  0  0  0  0  0
   39.2920   33.7560   45.5110 H   0  0  0  0  0  0  0  0  0  0  0  0
   40.7490   33.8970   46.4950 H   0  0  0  0  0  0  0  0  0  0  0  0
   40.5520   31.9520   45.5160 C   0  0  0  0  0  0  0  0  0  0  0  0
   39.9730   31.0820   45.8770 H   0  0  0  0  0  0  0  0  0  0  0  0
   41.6110   31.8780   45.7690 H   0  0  0  0  0  0  0  0  0  0  0  0
   40.4010   32.0030   43.9960 C   0  0  0  0  0  3  0  0  0  0  0  0
   39.3810   32.9980   43.5590 C   0  0  0  0  0  3  0  0  0  0  0  0
   38.9150   33.4170   44.5020 H   0  0  0  0  0  0  0  0  0  0  0  0
   38.2610   32.4690   42.7340 C   0  0  0  0  0  3  0  0  0  0  0  0
   37.9530   33.2190   41.9820 H   0  0  0  0  0  0  0  0  0  0  0  0
   38.5620   31.3150   42.0140 O   0  0  0  0  0  0  0  0  0  0  0  0
   38.8190   30.3340   42.9980 C   0  0  0  0  0  3  0  0  0  0  0  0
   38.7830   29.3240   42.5810 H   0  0  0  0  0  0  0  0  0  0  0  0
   40.2340   30.6220   43.4600 C   0  0  0  0  0  3  0  0  0  0  0  0
   40.4620   29.8950   44.2520 H   0  0  0  0  0  0  0  0  0  0  0  0
   37.6560   30.4900   49.6090 O   0  0  0  0  0  0  0  0  0  0  0  0
   33.9660   28.9070   48.3190 C   0  0  0  0  0  0  0  0  0  0  0  0
   34.6260   28.3920   49.3930 C   0  0  0  0  0  0  0  0  0  0  0  0
   35.8330   28.8500   49.8780 C   0  0  0  0  0  0  0  0  0  0  0  0
   36.4490   29.8990   49.2640 C   0  0  0  0  0  0  0  0  0  0  0  0
   35.7850   30.4370   48.1630 C   0  0  0  0  0  0  0  0  0  0  0  0
   34.6070   29.9500   47.7310 N   0  0  0  0  0  0  0  0  0  0  0  0
   34.2140   27.5550   49.9460 H   0  0  0  0  0  0  0  0  0  0  0  0
   36.3460   28.4300   50.7340 H   0  0  0  0  0  0  0  0  0  0  0  0
   36.1360   31.2720   47.5620 H   0  0  0  0  0  0  0  0  0  0  0  0
   31.9220   27.4890   48.4970 C   0  0  0  0  0  0  0  0  0  0  0  0
   32.7230   28.4220   47.8340 C   0  0  0  0  0  0  0  0  0  0  0  0
   32.2420   28.8780   46.6310 C   0  0  0  0  0  0  0  0  0  0  0  0
   31.0470   28.4260   46.1390 N   0  0  0  0  0  0  0  0  0  0  0  0
   30.3180   27.5200   46.8330 C   0  0  0  0  0  0  0  0  0  0  0  0
   30.7450   27.0320   48.0320 N   0  0  0  0  0  0  0  0  0  0  0  0
   32.2600   27.1020   49.4470 H   0  0  0  0  0  0  0  0  0  0  0  0
   32.7500   29.6000   46.0030 H   0  0  0  0  0  0  0  0  0  0  0  0
   29.3740   27.1290   46.4990 H   0  0  0  0  0  0  0  0  0  0  0  0
  1  2  1  0  0  0  0
  1 24  1  0  0  0  0
  2  6  1  0  0  0  0
  3  7  1  0  0  0  0
  3  2  2  0  0  0  0
  4  5  1  0  0  0  0
  4  3  1  0  0  0  0
  5  1  2  0  0  0  0
  8 10  1  0  0  0  0
  8  4  1  0  0  0  0
  9  8  1  0  0  0  0
 11 13  1  0  0  0  0
 11 12  1  0  0  0  0
 11  8  1  0  0  0  0
 14 11  1  0  0  0  0
 15 14  1  0  0  0  0
 15 16  1  0  0  0  0
 17 15  1  0  0  0  0
 18 17  1  0  0  0  0
 19 17  1  0  0  0  0
 19 20  1  0  0  0  0
 20 22  1  0  0  0  0
 21 20  1  0  0  0  0
 22 14  1  0  0  0  0
 22 23  1  0  0  0  0
 25 26  1  0  0  0  0
 26 27  2  0  0  0  0
 26 31  1  0  0  0  0
 27 32  1  0  0  0  0
 28 24  1  0  0  0  0
 28 27  1  0  0  0  0
 29 28  2  0  0  0  0
 30 29  1  0  0  0  0
 30 25  2  0  0  0  0
 33 29  1  0  0  0  0
 34 40  1  0  0  0  0
 35 25  1  0  0  0  0
 35 34  2  0  0  0  0
 36 35  1  0  0  0  0
 37 36  2  0  0  0  0
 37 38  1  0  0  0  0
 38 39  2  0  0  0  0
 39 34  1  0  0  0  0
 41 36  1  0  0  0  0
 42 38  1  0  0  0  0
M  END
>  <minimizedAffinity>
-6.21457338

>  <minimizedRMSD>
0.951562345

$$$$
