
 OpenBabel03272502233D

 30 32  0  0  0  0  0  0  0  0999 V2000
   37.0480   29.6820   49.7510 C   0  0  0  0  0  0  0  0  0  0  0  0
   37.6840   30.3640   48.7010 C   0  0  0  0  0  0  0  0  0  0  0  0
   36.9810   30.5070   47.5250 C   0  0  0  0  0  0  0  0  0  0  0  0
   35.7290   29.9930   47.4360 N   0  0  0  0  0  0  0  0  0  0  0  0
   35.1430   29.3430   48.4620 C   0  0  0  0  0  0  0  0  0  0  0  0
   35.8130   29.1920   49.6210 N   0  0  0  0  0  0  0  0  0  0  0  0
   37.6030   29.5750   50.6660 H   0  0  0  0  0  0  0  0  0  0  0  0
   38.6820   30.7830   48.7500 H   0  0  0  0  0  0  0  0  0  0  0  0
   33.7690   28.8210   48.2550 C   0  0  0  0  0  0  0  0  0  0  0  0
   33.8700   27.2970   48.2560 C   0  0  0  0  0  0  0  0  0  0  0  0
   34.2920   26.9410   49.1930 H   0  0  0  0  0  0  0  0  0  0  0  0
   32.4140   26.8740   48.0490 C   0  0  0  0  0  0  0  0  0  0  0  0
   32.2870   25.7930   48.2340 H   0  0  0  0  0  0  0  0  0  0  0  0
   32.1260   27.1040   46.7370 O   0  0  0  0  0  0  0  0  0  0  0  0
   32.3610   28.3300   46.2200 C   0  0  0  0  0  0  0  0  0  0  0  0
   32.9440   28.1770   45.2660 H   0  0  0  0  0  0  0  0  0  0  0  0
   33.0950   29.3310   47.0300 C   0  0  0  0  0  0  0  0  0  0  0  0
   32.3770   30.1190   47.3490 H   0  0  0  0  0  0  0  0  0  0  0  0
   37.4970   31.1930   46.3260 C   0  0  0  0  0  0  0  0  0  0  0  0
   36.9100   31.0820   45.0910 C   0  0  0  0  0  0  0  0  0  0  0  0
   37.3950   31.7240   43.9750 C   0  0  0  0  0  0  0  0  0  0  0  0
   38.4950   32.5010   44.0810 N   0  0  0  0  0  0  0  0  0  0  0  0
   39.0570   32.6000   45.2870 C   0  0  0  0  0  0  0  0  0  0  0  0
   38.5930   31.9820   46.3720 N   0  0  0  0  0  0  0  0  0  0  0  0
   36.0200   30.4450   45.0410 H   0  0  0  0  0  0  0  0  0  0  0  0
   36.8540   31.5740   43.0260 H   0  0  0  0  0  0  0  0  0  0  0  0
   40.2710   33.4520   45.4280 C   0  0  0  0  0  0  0  0  0  0  0  0
   40.2990   33.9480   46.7280 F   0  0  0  0  0  0  0  0  0  0  0  0
   41.4300   32.7030   45.1710 F   0  0  0  0  0  0  0  0  0  0  0  0
   40.2670   34.5130   44.5890 F   0  0  0  0  0  0  0  0  0  0  0  0
  1  7  1  0  0  0  0
  2  8  1  0  0  0  0
  2  1  2  0  0  0  0
  3  2  1  0  0  0  0
  4  3  2  0  0  0  0
  4  5  1  0  0  0  0
  5  6  2  0  0  0  0
  6  1  1  0  0  0  0
  9 10  1  0  0  0  0
  9  5  1  0  0  0  0
 10 11  1  0  0  0  0
 12 13  1  0  0  0  0
 12 10  1  0  0  0  0
 14 12  1  0  0  0  0
 15 14  1  0  0  0  0
 15 17  1  0  0  0  0
 16 15  1  0  0  0  0
 17 18  1  0  0  0  0
 17  9  1  0  0  0  0
 19 24  1  0  0  0  0
 19  3  1  0  0  0  0
 20 19  2  0  0  0  0
 21 22  2  0  0  0  0
 21 20  1  0  0  0  0
 22 23  1  0  0  0  0
 23 27  1  0  0  0  0
 23 24  2  0  0  0  0
 25 20  1  0  0  0  0
 26 21  1  0  0  0  0
 27 28  1  0  0  0  0
 29 27  1  0  0  0  0
 30 27  1  0  0  0  0
M  END
>  <minimizedAffinity>
-6.0286746

>  <minimizedRMSD>
1.78881097

$$$$
