
 OpenBabel03262521343D

 26 28  0  0  1  0  0  0  0  0999 V2000
   37.8050   26.0870   35.6810 C   0  0  1  0  0  0  0  0  0  0  0  0
   38.3610   27.4150   35.7730 C   0  0  0  0  0  0  0  0  0  0  0  0
   38.6600   26.5930   34.5130 C   0  0  2  0  0  0  0  0  0  0  0  0
   36.7240   25.9230   35.4230 H   0  0  0  0  0  0  0  0  0  0  0  0
   39.2640   27.5730   36.4060 H   0  0  0  0  0  0  0  0  0  0  0  0
   37.7360   28.3210   35.6980 H   0  0  0  0  0  0  0  0  0  0  0  0
   39.6610   26.1760   34.3860 H   0  0  0  0  0  0  0  0  0  0  0  0
   38.0090   27.1420   33.2970 C   0  0  0  0  0  3  0  0  0  0  0  0
   36.8870   26.2780   32.7770 C   0  0  0  0  0  3  0  0  0  0  0  0
   36.2130   25.9280   33.5970 H   0  0  0  0  0  0  0  0  0  0  0  0
   37.3960   25.0460   32.1040 C   0  0  0  0  0  3  0  0  0  0  0  0
   36.5050   24.4900   31.7440 H   0  0  0  0  0  0  0  0  0  0  0  0
   38.1960   25.2970   31.0110 O   0  0  0  0  0  0  0  0  0  0  0  0
   38.5770   26.6260   30.9030 C   0  0  0  0  0  3  0  0  0  0  0  0
   37.8020   27.2740   30.4950 H   0  0  0  0  0  0  0  0  0  0  0  0
   39.0530   27.2090   32.1970 C   0  0  0  0  0  3  0  0  0  0  0  0
   39.3150   28.2780   31.9850 H   0  0  0  0  0  0  0  0  0  0  0  0
   40.0030   23.1430   36.3870 C   0  0  0  0  0  0  0  0  0  0  0  0
   39.4370   24.2430   35.7210 C   0  0  0  0  0  0  0  0  0  0  0  0
   38.4120   24.9370   36.3820 C   0  0  0  0  0  0  0  0  0  0  0  0
   38.0280   24.4980   37.6330 N   0  0  0  0  0  0  0  0  0  0  0  0
   38.6000   23.4440   38.2240 C   0  0  0  0  0  0  0  0  0  0  0  0
   39.5840   22.7660   37.6050 N   0  0  0  0  0  0  0  0  0  0  0  0
   40.7990   22.5740   35.9170 H   0  0  0  0  0  0  0  0  0  0  0  0
   39.7870   24.5310   34.7400 H   0  0  0  0  0  0  0  0  0  0  0  0
   38.2180   23.1940   39.1990 H   0  0  0  0  0  0  0  0  0  0  0  0
  1  4  1  6  0  0  0
  1  2  1  0  0  0  0
  1 20  1  0  0  0  0
  2  5  1  0  0  0  0
  3  7  1  6  0  0  0
  3  1  1  0  0  0  0
  3  2  1  0  0  0  0
  6  2  1  0  0  0  0
  8  3  1  0  0  0  0
  9  8  1  0  0  0  0
  9 10  1  0  0  0  0
 11  9  1  0  0  0  0
 12 11  1  0  0  0  0
 13 11  1  0  0  0  0
 14 13  1  0  0  0  0
 14 16  1  0  0  0  0
 15 14  1  0  0  0  0
 16  8  1  0  0  0  0
 17 16  1  0  0  0  0
 18 23  1  0  0  0  0
 19 20  1  0  0  0  0
 19 18  2  0  0  0  0
 20 21  2  0  0  0  0
 21 22  1  0  0  0  0
 22 26  1  0  0  0  0
 23 22  2  0  0  0  0
 24 18  1  0  0  0  0
 25 19  1  0  0  0  0
M  END
>  <minimizedAffinity>
-4.42860174

$$$$

 OpenBabel03262521343D

 26 28  0  0  1  0  0  0  0  0999 V2000
   38.2210   27.0530   34.4970 C   0  0  1  0  0  0  0  0  0  0  0  0
   38.4360   27.3560   35.8900 C   0  0  0  0  0  0  0  0  0  0  0  0
   37.7970   26.0070   35.5350 C   0  0  2  0  0  0  0  0  0  0  0  0
   39.0660   26.7250   33.8330 H   0  0  0  0  0  0  0  0  0  0  0  0
   37.7260   28.0450   36.4020 H   0  0  0  0  0  0  0  0  0  0  0  0
   39.4430   27.3820   36.3380 H   0  0  0  0  0  0  0  0  0  0  0  0
   36.7300   25.8690   35.7230 H   0  0  0  0  0  0  0  0  0  0  0  0
   38.6810   24.8530   35.8330 C   0  0  0  0  0  3  0  0  0  0  0  0
   39.1810   24.1480   34.5980 C   0  0  0  0  0  3  0  0  0  0  0  0
   39.5340   24.8660   33.8190 H   0  0  0  0  0  0  0  0  0  0  0  0
   38.1130   23.3260   33.9520 C   0  0  0  0  0  3  0  0  0  0  0  0
   38.5790   22.8370   33.0710 H   0  0  0  0  0  0  0  0  0  0  0  0
   37.6100   22.3300   34.7600 O   0  0  0  0  0  0  0  0  0  0  0  0
   38.0060   22.4450   36.0840 C   0  0  0  0  0  3  0  0  0  0  0  0
   39.0210   22.0960   36.2720 H   0  0  0  0  0  0  0  0  0  0  0  0
   37.8740   23.8360   36.6200 C   0  0  0  0  0  3  0  0  0  0  0  0
   38.2350   23.8030   37.6810 H   0  0  0  0  0  0  0  0  0  0  0  0
   35.2080   29.1090   33.6630 C   0  0  0  0  0  0  0  0  0  0  0  0
   36.2990   28.5890   34.3790 C   0  0  0  0  0  0  0  0  0  0  0  0
   37.0790   27.6110   33.7430 C   0  0  0  0  0  0  0  0  0  0  0  0
   36.7270   27.2250   32.4650 N   0  0  0  0  0  0  0  0  0  0  0  0
   35.6770   27.7510   31.8260 C   0  0  0  0  0  0  0  0  0  0  0  0
   34.9190   28.6900   32.4210 N   0  0  0  0  0  0  0  0  0  0  0  0
   34.5750   29.8670   34.1110 H   0  0  0  0  0  0  0  0  0  0  0  0
   36.5160   28.9380   35.3790 H   0  0  0  0  0  0  0  0  0  0  0  0
   35.5000   27.3720   30.8350 H   0  0  0  0  0  0  0  0  0  0  0  0
  1  4  1  6  0  0  0
  1  3  1  0  0  0  0
  1  2  1  0  0  0  0
  2  6  1  0  0  0  0
  2  5  1  0  0  0  0
  3  7  1  1  0  0  0
  3  8  1  0  0  0  0
  3  2  1  0  0  0  0
  8 16  1  0  0  0  0
  9  8  1  0  0  0  0
 10  9  1  0  0  0  0
 11  9  1  0  0  0  0
 11 13  1  0  0  0  0
 12 11  1  0  0  0  0
 13 14  1  0  0  0  0
 14 15  1  0  0  0  0
 14 16  1  0  0  0  0
 16 17  1  0  0  0  0
 18 24  1  0  0  0  0
 18 19  1  0  0  0  0
 19 25  1  0  0  0  0
 20 19  2  0  0  0  0
 20  1  1  0  0  0  0
 21 20  1  0  0  0  0
 22 23  1  0  0  0  0
 22 21  2  0  0  0  0
 23 18  2  0  0  0  0
 26 22  1  0  0  0  0
M  END
>  <minimizedAffinity>
-4.31605577

$$$$

 OpenBabel03262521343D

 26 28  0  0  1  0  0  0  0  0999 V2000
   38.4480   25.9740   35.3010 C   0  0  1  0  0  0  0  0  0  0  0  0
   38.5800   27.3730   35.6290 C   0  0  0  0  0  0  0  0  0  0  0  0
   39.7610   26.6790   34.9390 C   0  0  2  0  0  0  0  0  0  0  0  0
   37.8480   25.6360   34.4140 H   0  0  0  0  0  0  0  0  0  0  0  0
   38.8040   27.6550   36.6820 H   0  0  0  0  0  0  0  0  0  0  0  0
   38.0190   28.1580   35.0940 H   0  0  0  0  0  0  0  0  0  0  0  0
   40.6500   26.4510   35.5310 H   0  0  0  0  0  0  0  0  0  0  0  0
   39.9890   27.1640   33.5560 C   0  0  0  0  0  3  0  0  0  0  0  0
   39.5890   26.1660   32.4980 C   0  0  0  0  0  3  0  0  0  0  0  0
   38.5960   25.7020   32.7140 H   0  0  0  0  0  0  0  0  0  0  0  0
   40.5610   25.0370   32.3990 C   0  0  0  0  0  3  0  0  0  0  0  0
   40.1930   24.3720   31.5900 H   0  0  0  0  0  0  0  0  0  0  0  0
   41.8390   25.4280   32.0620 O   0  0  0  0  0  0  0  0  0  0  0  0
   42.0290   26.8000   32.1320 C   0  0  0  0  0  3  0  0  0  0  0  0
   41.6280   27.3440   31.2770 H   0  0  0  0  0  0  0  0  0  0  0  0
   41.4770   27.4080   33.3840 C   0  0  0  0  0  3  0  0  0  0  0  0
   41.6770   28.5090   33.3160 H   0  0  0  0  0  0  0  0  0  0  0  0
   39.6680   22.8600   36.9780 C   0  0  0  0  0  0  0  0  0  0  0  0
   39.5120   23.8700   36.0140 C   0  0  0  0  0  0  0  0  0  0  0  0
   38.6240   24.9150   36.3160 C   0  0  0  0  0  0  0  0  0  0  0  0
   37.9660   24.8820   37.5290 N   0  0  0  0  0  0  0  0  0  0  0  0
   38.1500   23.8960   38.4120 C   0  0  0  0  0  0  0  0  0  0  0  0
   38.9970   22.8870   38.1400 N   0  0  0  0  0  0  0  0  0  0  0  0
   40.3430   22.0310   36.7920 H   0  0  0  0  0  0  0  0  0  0  0  0
   40.0610   23.8320   35.0840 H   0  0  0  0  0  0  0  0  0  0  0  0
   37.5830   23.9760   39.3230 H   0  0  0  0  0  0  0  0  0  0  0  0
  1  4  1  6  0  0  0
  1  2  1  0  0  0  0
  1 20  1  0  0  0  0
  2  5  1  0  0  0  0
  3  1  1  0  0  0  0
  3  7  1  1  0  0  0
  3  2  1  0  0  0  0
  6  2  1  0  0  0  0
  8  3  1  0  0  0  0
  9 10  1  0  0  0  0
  9  8  1  0  0  0  0
 11  9  1  0  0  0  0
 12 11  1  0  0  0  0
 13 14  1  0  0  0  0
 13 11  1  0  0  0  0
 14 16  1  0  0  0  0
 15 14  1  0  0  0  0
 16  8  1  0  0  0  0
 17 16  1  0  0  0  0
 18 23  1  0  0  0  0
 19 20  1  0  0  0  0
 19 18  2  0  0  0  0
 20 21  2  0  0  0  0
 21 22  1  0  0  0  0
 22 26  1  0  0  0  0
 23 22  2  0  0  0  0
 24 18  1  0  0  0  0
 25 19  1  0  0  0  0
M  END
>  <minimizedAffinity>
-4.21379137

$$$$

 OpenBabel03262521343D

 26 28  0  0  1  0  0  0  0  0999 V2000
   38.3600   26.8090   34.2740 C   0  0  1  0  0  0  0  0  0  0  0  0
   38.0820   27.5300   35.4920 C   0  0  0  0  0  0  0  0  0  0  0  0
   37.7060   26.0440   35.4310 C   0  0  2  0  0  0  0  0  0  0  0  0
   39.3990   26.4640   34.0230 H   0  0  0  0  0  0  0  0  0  0  0  0
   37.1910   28.1960   35.5270 H   0  0  0  0  0  0  0  0  0  0  0  0
   38.8830   27.8620   36.1740 H   0  0  0  0  0  0  0  0  0  0  0  0
   36.6510   25.7750   35.3420 H   0  0  0  0  0  0  0  0  0  0  0  0
   38.5350   25.2000   36.3270 C   0  0  0  0  0  3  0  0  0  0  0  0
   39.4240   24.2330   35.5870 C   0  0  0  0  0  3  0  0  0  0  0  0
   39.9450   24.7180   34.7260 H   0  0  0  0  0  0  0  0  0  0  0  0
   38.6520   23.0900   35.0140 C   0  0  0  0  0  3  0  0  0  0  0  0
   39.3880   22.4310   34.5090 H   0  0  0  0  0  0  0  0  0  0  0  0
   37.9970   22.3290   35.9590 O   0  0  0  0  0  0  0  0  0  0  0  0
   37.9730   22.9160   37.2150 C   0  0  0  0  0  3  0  0  0  0  0  0
   38.9070   22.8130   37.7670 H   0  0  0  0  0  0  0  0  0  0  0  0
   37.5980   24.3650   37.1820 C   0  0  0  0  0  3  0  0  0  0  0  0
   37.6290   24.7240   38.2430 H   0  0  0  0  0  0  0  0  0  0  0  0
   36.2380   25.8270   31.3530 C   0  0  0  0  0  0  0  0  0  0  0  0
   37.0600   25.7200   32.4870 C   0  0  0  0  0  0  0  0  0  0  0  0
   37.4860   26.9160   33.0880 C   0  0  0  0  0  0  0  0  0  0  0  0
   37.0740   28.1090   32.5290 N   0  0  0  0  0  0  0  0  0  0  0  0
   36.2910   28.1560   31.4470 C   0  0  0  0  0  0  0  0  0  0  0  0
   35.8720   27.0210   30.8590 N   0  0  0  0  0  0  0  0  0  0  0  0
   35.8820   24.9320   30.8540 H   0  0  0  0  0  0  0  0  0  0  0  0
   37.3440   24.7510   32.8710 H   0  0  0  0  0  0  0  0  0  0  0  0
   36.0340   29.1430   31.1020 H   0  0  0  0  0  0  0  0  0  0  0  0
  1  4  1  6  0  0  0
  1  3  1  0  0  0  0
  1  2  1  0  0  0  0
  2  5  1  0  0  0  0
  2  6  1  0  0  0  0
  3  7  1  6  0  0  0
  3  2  1  0  0  0  0
  3  8  1  0  0  0  0
  8 16  1  0  0  0  0
  9  8  1  0  0  0  0
 10  9  1  0  0  0  0
 11  9  1  0  0  0  0
 11 13  1  0  0  0  0
 12 11  1  0  0  0  0
 13 14  1  0  0  0  0
 14 15  1  0  0  0  0
 16 14  1  0  0  0  0
 16 17  1  0  0  0  0
 18 19  1  0  0  0  0
 19 25  1  0  0  0  0
 19 20  2  0  0  0  0
 20  1  1  0  0  0  0
 21 20  1  0  0  0  0
 22 21  2  0  0  0  0
 23 18  2  0  0  0  0
 23 22  1  0  0  0  0
 24 18  1  0  0  0  0
 26 22  1  0  0  0  0
M  END
>  <minimizedAffinity>
-4.20989227

$$$$

 OpenBabel03262521343D

 26 28  0  0  1  0  0  0  0  0999 V2000
   36.2430   28.8180   33.3680 C   0  0  1  0  0  0  0  0  0  0  0  0
   34.9950   28.6700   32.6600 C   0  0  0  0  0  0  0  0  0  0  0  0
   34.9490   29.1900   34.1030 C   0  0  2  0  0  0  0  0  0  0  0  0
   36.9260   29.6880   33.1720 H   0  0  0  0  0  0  0  0  0  0  0  0
   34.5580   27.6510   32.5580 H   0  0  0  0  0  0  0  0  0  0  0  0
   34.7070   29.3360   31.8300 H   0  0  0  0  0  0  0  0  0  0  0  0
   34.5900   28.5210   34.8880 H   0  0  0  0  0  0  0  0  0  0  0  0
   34.5250   30.6090   34.1920 C   0  0  0  0  0  3  0  0  0  0  0  0
   35.6570   31.5530   34.5130 C   0  0  0  0  0  3  0  0  0  0  0  0
   36.5690   31.3360   33.9060 H   0  0  0  0  0  0  0  0  0  0  0  0
   36.0780   31.4550   35.9430 C   0  0  0  0  0  3  0  0  0  0  0  0
   36.8950   32.1930   36.0840 H   0  0  0  0  0  0  0  0  0  0  0  0
   35.0800   31.7670   36.8410 O   0  0  0  0  0  0  0  0  0  0  0  0
   33.8260   31.8610   36.2570 C   0  0  0  0  0  3  0  0  0  0  0  0
   33.6550   32.7980   35.7290 H   0  0  0  0  0  0  0  0  0  0  0  0
   33.5230   30.7280   35.3260 C   0  0  0  0  0  3  0  0  0  0  0  0
   32.5000   30.9230   34.9120 H   0  0  0  0  0  0  0  0  0  0  0  0
   38.1800   26.7510   35.8120 C   0  0  0  0  0  0  0  0  0  0  0  0
   37.5110   27.8470   35.2440 C   0  0  0  0  0  0  0  0  0  0  0  0
   36.9380   27.6640   33.9750 C   0  0  0  0  0  0  0  0  0  0  0  0
   37.0700   26.4300   33.3730 N   0  0  0  0  0  0  0  0  0  0  0  0
   37.7180   25.4170   33.9570 C   0  0  0  0  0  0  0  0  0  0  0  0
   38.2720   25.5740   35.1720 N   0  0  0  0  0  0  0  0  0  0  0  0
   38.6390   26.8420   36.7910 H   0  0  0  0  0  0  0  0  0  0  0  0
   37.4470   28.7870   35.7740 H   0  0  0  0  0  0  0  0  0  0  0  0
   37.7560   24.5020   33.3910 H   0  0  0  0  0  0  0  0  0  0  0  0
  1  4  1  6  0  0  0
  1 20  1  0  0  0  0
  1  3  1  0  0  0  0
  2  1  1  0  0  0  0
  2  3  1  0  0  0  0
  3  8  1  0  0  0  0
  3  7  1  1  0  0  0
  5  2  1  0  0  0  0
  6  2  1  0  0  0  0
  8  9  1  0  0  0  0
  8 16  1  0  0  0  0
  9 11  1  0  0  0  0
 10  9  1  0  0  0  0
 11 12  1  0  0  0  0
 11 13  1  0  0  0  0
 14 13  1  0  0  0  0
 15 14  1  0  0  0  0
 16 14  1  0  0  0  0
 17 16  1  0  0  0  0
 18 24  1  0  0  0  0
 19 25  1  0  0  0  0
 19 18  1  0  0  0  0
 20 19  2  0  0  0  0
 21 22  2  0  0  0  0
 21 20  1  0  0  0  0
 22 23  1  0  0  0  0
 23 18  2  0  0  0  0
 26 22  1  0  0  0  0
M  END
>  <minimizedAffinity>
-4.10842419

$$$$

 OpenBabel03262521343D

 26 28  0  0  1  0  0  0  0  0999 V2000
   37.9880   24.4190   33.5630 C   0  0  1  0  0  0  0  0  0  0  0  0
   39.3080   24.1390   33.0530 C   0  0  0  0  0  0  0  0  0  0  0  0
   39.1320   24.2630   34.5720 C   0  0  2  0  0  0  0  0  0  0  0  0
   37.2040   23.6160   33.6290 H   0  0  0  0  0  0  0  0  0  0  0  0
   39.9010   24.9750   32.6200 H   0  0  0  0  0  0  0  0  0  0  0  0
   39.5730   23.1630   32.6120 H   0  0  0  0  0  0  0  0  0  0  0  0
   39.5080   25.1600   35.0690 H   0  0  0  0  0  0  0  0  0  0  0  0
   39.3270   22.9760   35.2840 C   0  0  0  0  0  3  0  0  0  0  0  0
   38.1280   22.5510   36.0920 C   0  0  0  0  0  3  0  0  0  0  0  0
   37.1740   22.6740   35.5230 H   0  0  0  0  0  0  0  0  0  0  0  0
   37.9750   23.3630   37.3360 C   0  0  0  0  0  3  0  0  0  0  0  0
   37.0840   22.9670   37.8670 H   0  0  0  0  0  0  0  0  0  0  0  0
   39.0450   23.2680   38.1990 O   0  0  0  0  0  0  0  0  0  0  0  0
   40.1510   22.6480   37.6360 C   0  0  0  0  0  3  0  0  0  0  0  0
   40.0750   21.5630   37.5970 H   0  0  0  0  0  0  0  0  0  0  0  0
   40.4730   23.1520   36.2640 C   0  0  0  0  0  3  0  0  0  0  0  0
   41.3660   22.5710   35.9140 H   0  0  0  0  0  0  0  0  0  0  0  0
   36.8910   27.8010   34.7260 C   0  0  0  0  0  0  0  0  0  0  0  0
   37.4450   26.5110   34.7450 C   0  0  0  0  0  0  0  0  0  0  0  0
   37.4170   25.7810   33.5450 C   0  0  0  0  0  0  0  0  0  0  0  0
   36.8510   26.3740   32.4340 N   0  0  0  0  0  0  0  0  0  0  0  0
   36.3370   27.6070   32.4690 C   0  0  0  0  0  0  0  0  0  0  0  0
   36.3550   28.3210   33.6100 N   0  0  0  0  0  0  0  0  0  0  0  0
   36.8890   28.4050   35.6270 H   0  0  0  0  0  0  0  0  0  0  0  0
   37.8710   26.1090   35.6530 H   0  0  0  0  0  0  0  0  0  0  0  0
   35.9230   27.9640   31.5420 H   0  0  0  0  0  0  0  0  0  0  0  0
  1  4  1  6  0  0  0
  1  3  1  0  0  0  0
  2  1  1  0  0  0  0
  2  3  1  0  0  0  0
  3  7  1  1  0  0  0
  3  8  1  0  0  0  0
  5  2  1  0  0  0  0
  6  2  1  0  0  0  0
  8  9  1  0  0  0  0
  8 16  1  0  0  0  0
  9 11  1  0  0  0  0
 10  9  1  0  0  0  0
 11 12  1  0  0  0  0
 11 13  1  0  0  0  0
 14 13  1  0  0  0  0
 15 14  1  0  0  0  0
 16 14  1  0  0  0  0
 17 16  1  0  0  0  0
 18 19  1  0  0  0  0
 18 24  1  0  0  0  0
 19 25  1  0  0  0  0
 20  1  1  0  0  0  0
 20 19  2  0  0  0  0
 21 22  2  0  0  0  0
 21 20  1  0  0  0  0
 22 23  1  0  0  0  0
 23 18  2  0  0  0  0
 26 22  1  0  0  0  0
M  END
>  <minimizedAffinity>
-4.03669453

$$$$

 OpenBabel03262521343D

 26 28  0  0  1  0  0  0  0  0999 V2000
   34.9020   29.1010   34.1640 C   0  0  1  0  0  0  0  0  0  0  0  0
   35.0480   28.9610   32.7360 C   0  0  0  0  0  0  0  0  0  0  0  0
   36.2990   28.7980   33.6090 C   0  0  2  0  0  0  0  0  0  0  0  0
   34.4680   28.2750   34.7910 H   0  0  0  0  0  0  0  0  0  0  0  0
   35.0790   29.8810   32.1100 H   0  0  0  0  0  0  0  0  0  0  0  0
   34.6490   28.0920   32.1860 H   0  0  0  0  0  0  0  0  0  0  0  0
   37.0410   29.5990   33.6120 H   0  0  0  0  0  0  0  0  0  0  0  0
   36.8190   27.4080   33.6190 C   0  0  0  0  0  3  0  0  0  0  0  0
   37.0760   26.8760   35.0070 C   0  0  0  0  0  3  0  0  0  0  0  0
   36.2370   27.1060   35.7070 H   0  0  0  0  0  0  0  0  0  0  0  0
   38.3010   27.4750   35.6170 C   0  0  0  0  0  3  0  0  0  0  0  0
   38.4150   27.0120   36.6190 H   0  0  0  0  0  0  0  0  0  0  0  0
   39.4570   27.2220   34.9110 O   0  0  0  0  0  0  0  0  0  0  0  0
   39.2260   26.6850   33.6540 C   0  0  0  0  0  3  0  0  0  0  0  0
   38.9910   25.6210   33.6660 H   0  0  0  0  0  0  0  0  0  0  0  0
   38.1530   27.4020   32.8960 C   0  0  0  0  0  3  0  0  0  0  0  0
   38.0510   26.8720   31.9130 H   0  0  0  0  0  0  0  0  0  0  0  0
   35.8830   32.1710   36.0630 C   0  0  0  0  0  0  0  0  0  0  0  0
   35.9740   30.9170   35.4370 C   0  0  0  0  0  0  0  0  0  0  0  0
   34.8160   30.4250   34.8140 C   0  0  0  0  0  0  0  0  0  0  0  0
   33.6730   31.1980   34.8570 N   0  0  0  0  0  0  0  0  0  0  0  0
   33.6400   32.3860   35.4670 C   0  0  0  0  0  0  0  0  0  0  0  0
   34.7400   32.8740   36.0690 N   0  0  0  0  0  0  0  0  0  0  0  0
   36.7510   32.5950   36.5580 H   0  0  0  0  0  0  0  0  0  0  0  0
   36.9030   30.3660   35.4430 H   0  0  0  0  0  0  0  0  0  0  0  0
   32.6930   32.8980   35.4360 H   0  0  0  0  0  0  0  0  0  0  0  0
  1  4  1  1  0  0  0
  1 20  1  0  0  0  0
  2  3  1  0  0  0  0
  2  1  1  0  0  0  0
  3  7  1  6  0  0  0
  3  8  1  0  0  0  0
  3  1  1  0  0  0  0
  5  2  1  0  0  0  0
  6  2  1  0  0  0  0
  8  9  1  0  0  0  0
  9 11  1  0  0  0  0
  9 10  1  0  0  0  0
 11 12  1  0  0  0  0
 13 11  1  0  0  0  0
 14 15  1  0  0  0  0
 14 13  1  0  0  0  0
 16  8  1  0  0  0  0
 16 14  1  0  0  0  0
 17 16  1  0  0  0  0
 18 23  1  0  0  0  0
 18 24  1  0  0  0  0
 19 25  1  0  0  0  0
 19 18  2  0  0  0  0
 20 21  2  0  0  0  0
 20 19  1  0  0  0  0
 21 22  1  0  0  0  0
 22 23  2  0  0  0  0
 26 22  1  0  0  0  0
M  END
>  <minimizedAffinity>
-4.01314735

$$$$

 OpenBabel03262521343D

 26 28  0  0  1  0  0  0  0  0999 V2000
   38.0320   24.5220   33.5500 C   0  0  1  0  0  0  0  0  0  0  0  0
   39.3910   24.3320   33.1060 C   0  0  0  0  0  0  0  0  0  0  0  0
   39.1230   24.3620   34.6160 C   0  0  2  0  0  0  0  0  0  0  0  0
   37.2860   23.6820   33.5260 H   0  0  0  0  0  0  0  0  0  0  0  0
   39.9660   25.2180   32.7550 H   0  0  0  0  0  0  0  0  0  0  0  0
   39.7290   23.3960   32.6300 H   0  0  0  0  0  0  0  0  0  0  0  0
   39.4250   25.2450   35.1830 H   0  0  0  0  0  0  0  0  0  0  0  0
   39.3400   23.0460   35.2680 C   0  0  0  0  0  3  0  0  0  0  0  0
   38.1450   22.5620   36.0500 C   0  0  0  0  0  3  0  0  0  0  0  0
   37.1910   22.6940   35.4840 H   0  0  0  0  0  0  0  0  0  0  0  0
   37.9740   23.3120   37.3310 C   0  0  0  0  0  3  0  0  0  0  0  0
   37.0890   22.8750   37.8380 H   0  0  0  0  0  0  0  0  0  0  0  0
   39.0430   23.1960   38.1930 O   0  0  0  0  0  0  0  0  0  0  0  0
   40.1610   22.6240   37.6060 C   0  0  0  0  0  3  0  0  0  0  0  0
   40.1060   21.5400   37.5160 H   0  0  0  0  0  0  0  0  0  0  0  0
   40.4790   23.1970   36.2600 C   0  0  0  0  0  3  0  0  0  0  0  0
   41.3830   22.6500   35.8870 H   0  0  0  0  0  0  0  0  0  0  0  0
   36.2550   27.6050   32.3950 C   0  0  0  0  0  0  0  0  0  0  0  0
   36.8480   26.3320   32.3710 C   0  0  0  0  0  0  0  0  0  0  0  0
   37.3970   25.8560   33.5720 C   0  0  0  0  0  0  0  0  0  0  0  0
   37.3220   26.6640   34.6890 N   0  0  0  0  0  0  0  0  0  0  0  0
   36.7470   27.8700   34.6590 C   0  0  0  0  0  0  0  0  0  0  0  0
   36.2140   28.3420   33.5170 N   0  0  0  0  0  0  0  0  0  0  0  0
   35.8160   28.0170   31.4920 H   0  0  0  0  0  0  0  0  0  0  0  0
   36.8710   25.7540   31.4590 H   0  0  0  0  0  0  0  0  0  0  0  0
   36.7470   28.4080   35.5900 H   0  0  0  0  0  0  0  0  0  0  0  0
  1  4  1  6  0  0  0
  1 20  1  0  0  0  0
  1  3  1  0  0  0  0
  2  1  1  0  0  0  0
  2  3  1  0  0  0  0
  3  7  1  1  0  0  0
  3  8  1  0  0  0  0
  5  2  1  0  0  0  0
  6  2  1  0  0  0  0
  8  9  1  0  0  0  0
  8 16  1  0  0  0  0
  9 11  1  0  0  0  0
 10  9  1  0  0  0  0
 11 12  1  0  0  0  0
 11 13  1  0  0  0  0
 14 13  1  0  0  0  0
 15 14  1  0  0  0  0
 16 14  1  0  0  0  0
 17 16  1  0  0  0  0
 18 23  1  0  0  0  0
 19 18  2  0  0  0  0
 19 20  1  0  0  0  0
 20 21  2  0  0  0  0
 22 21  1  0  0  0  0
 22 26  1  0  0  0  0
 23 22  2  0  0  0  0
 24 18  1  0  0  0  0
 25 19  1  0  0  0  0
M  END
>  <minimizedAffinity>
-3.96715832

$$$$

 OpenBabel03262521343D

 26 28  0  0  1  0  0  0  0  0999 V2000
   38.1560   23.2120   34.2010 C   0  0  1  0  0  0  0  0  0  0  0  0
   39.1830   23.0140   33.2080 C   0  0  0  0  0  0  0  0  0  0  0  0
   38.2830   21.8230   33.5620 C   0  0  2  0  0  0  0  0  0  0  0  0
   37.1980   23.7450   33.9530 H   0  0  0  0  0  0  0  0  0  0  0  0
   40.2340   22.8740   33.5470 H   0  0  0  0  0  0  0  0  0  0  0  0
   39.1230   23.4640   32.2020 H   0  0  0  0  0  0  0  0  0  0  0  0
   38.7010   21.0140   34.1640 H   0  0  0  0  0  0  0  0  0  0  0  0
   37.3820   21.4300   32.4510 C   0  0  0  0  0  3  0  0  0  0  0  0
   35.9190   21.5210   32.8060 C   0  0  0  0  0  3  0  0  0  0  0  0
   35.6760   22.4710   33.3410 H   0  0  0  0  0  0  0  0  0  0  0  0
   35.4940   20.4140   33.7140 C   0  0  0  0  0  3  0  0  0  0  0  0
   34.4090   20.5560   33.9020 H   0  0  0  0  0  0  0  0  0  0  0  0
   35.6580   19.1560   33.1750 O   0  0  0  0  0  0  0  0  0  0  0  0
   36.4130   19.1520   32.0130 C   0  0  0  0  0  3  0  0  0  0  0  0
   35.8620   19.4680   31.1280 H   0  0  0  0  0  0  0  0  0  0  0  0
   37.6590   19.9750   32.1160 C   0  0  0  0  0  3  0  0  0  0  0  0
   38.1700   19.9040   31.1210 H   0  0  0  0  0  0  0  0  0  0  0  0
   39.9820   22.6930   37.4250 C   0  0  0  0  0  0  0  0  0  0  0  0
   39.7040   22.7030   36.0480 C   0  0  0  0  0  0  0  0  0  0  0  0
   38.4580   23.2100   35.6470 C   0  0  0  0  0  0  0  0  0  0  0  0
   37.5920   23.6610   36.6230 N   0  0  0  0  0  0  0  0  0  0  0  0
   37.9050   23.6290   37.9220 C   0  0  0  0  0  0  0  0  0  0  0  0
   39.0950   23.1470   38.3250 N   0  0  0  0  0  0  0  0  0  0  0  0
   40.9320   22.3110   37.7850 H   0  0  0  0  0  0  0  0  0  0  0  0
   40.4300   22.3320   35.3380 H   0  0  0  0  0  0  0  0  0  0  0  0
   37.1520   24.0070   38.5910 H   0  0  0  0  0  0  0  0  0  0  0  0
  1  4  1  6  0  0  0
  1 20  1  0  0  0  0
  2  5  1  0  0  0  0
  2  3  1  0  0  0  0
  2  1  1  0  0  0  0
  3  7  1  1  0  0  0
  3  1  1  0  0  0  0
  6  2  1  0  0  0  0
  8  9  1  0  0  0  0
  8  3  1  0  0  0  0
  9 10  1  0  0  0  0
  9 11  1  0  0  0  0
 11 12  1  0  0  0  0
 13 11  1  0  0  0  0
 14 16  1  0  0  0  0
 14 13  1  0  0  0  0
 15 14  1  0  0  0  0
 16  8  1  0  0  0  0
 17 16  1  0  0  0  0
 18 24  1  0  0  0  0
 18 23  1  0  0  0  0
 19 18  2  0  0  0  0
 20 19  1  0  0  0  0
 20 21  2  0  0  0  0
 21 22  1  0  0  0  0
 22 23  2  0  0  0  0
 22 26  1  0  0  0  0
 25 19  1  0  0  0  0
M  END
>  <minimizedAffinity>
-3.95394921

$$$$
