
     RDKit          3D

 37 39  0  0  0  0  0  0  0  0999 V2000
   37.4098   29.9427   50.5669 C   0  0  0  0  0  0  0  0  0  0  0  0
   37.8639   30.4105   49.3234 C   0  0  0  0  0  0  0  0  0  0  0  0
   36.9974   30.6686   48.2925 C   0  0  0  0  0  0  0  0  0  0  0  0
   35.6658   30.4537   48.5139 N   0  0  0  0  0  0  0  0  0  0  0  0
   35.2041   30.0007   49.7097 C   0  0  0  0  0  0  0  0  0  0  0  0
   36.0669   29.7455   50.7330 N   0  0  0  0  0  0  0  0  0  0  0  0
   37.4461   31.1400   47.0544 N   0  0  0  0  0  0  0  0  0  0  0  0
   36.8069   30.8035   45.9019 C   0  0  0  0  0  0  0  0  0  0  0  0
   37.2336   31.2613   44.6624 C   0  0  0  0  0  0  0  0  0  0  0  0
   38.3647   32.0957   44.6396 C   0  0  0  0  0  0  0  0  0  0  0  0
   38.7837   32.5310   43.5435 O   0  0  0  0  0  0  0  0  0  0  0  0
   39.0006   32.4278   45.8078 N   0  0  0  0  0  0  0  0  0  0  0  0
   38.4939   31.9260   46.9263 C   0  0  0  0  0  0  0  0  0  0  0  0
   39.1038   32.2559   47.9709 O   0  0  0  0  0  0  0  0  0  0  0  0
   40.1715   33.2845   45.7782 C   0  0  0  0  0  0  0  0  0  0  0  0
   40.0488   34.2256   44.8088 F   0  0  0  0  0  0  0  0  0  0  0  0
   41.3333   32.5850   45.4953 F   0  0  0  0  0  0  0  0  0  0  0  0
   40.2843   33.9350   47.0005 F   0  0  0  0  0  0  0  0  0  0  0  0
   38.0281   29.7208   51.4160 H   0  0  0  0  0  0  0  0  0  0  0  0
   38.9282   30.5039   49.3417 H   0  0  0  0  0  0  0  0  0  0  0  0
   34.1359   29.8576   49.8000 H   0  0  0  0  0  0  0  0  0  0  0  0
   35.9367   30.1582   45.9440 H   0  0  0  0  0  0  0  0  0  0  0  0
   36.5144   30.8723   43.4590 C   0  0  2  0  0  0  0  0  0  0  0  0
   35.1429   30.2814   43.7431 C   0  0  1  0  0  0  0  0  0  0  0  0
   35.2622   29.2991   44.2733 H   0  0  0  0  0  0  0  0  0  0  0  0
   34.5207   29.9624   42.4005 C   0  0  1  0  0  0  0  0  0  0  0  0
   34.4787   28.8619   42.2026 H   0  0  0  0  0  0  0  0  0  0  0  0
   35.2098   30.5150   41.3318 O   0  0  0  0  0  0  0  0  0  0  0  0
   36.4950   30.0162   41.2005 C   0  0  1  0  0  0  0  0  0  0  0  0
   36.5237   29.0712   40.6470 H   0  0  0  0  0  0  0  0  0  0  0  0
   37.2186   29.9160   42.5498 C   0  0  1  0  0  0  0  0  0  0  0  0
   38.3016   30.1212   42.4383 H   0  0  0  0  0  0  0  0  0  0  0  0
   36.3220   31.7971   42.8401 H   0  0  0  0  0  0  0  0  0  0  0  0
   34.5182   30.9049   44.3920 H   0  0  0  0  0  0  0  0  0  0  0  0
   33.5171   30.4307   42.4137 H   0  0  0  0  0  0  0  0  0  0  0  0
   37.0666   30.8286   40.6635 H   0  0  0  0  0  0  0  0  0  0  0  0
   37.0541   28.8706   42.8934 H   0  0  0  0  0  0  0  0  0  0  0  0
  1  6  2  0
  2  1  1  0
  3  4  1  0
  3  2  2  0
  4  5  2  0
  5  6  1  0
  7  3  1  0
  8  7  1  0
  9  8  2  0
 10  9  1  0
 10 12  1  0
 11 10  2  0
 12 13  1  0
 13  7  1  0
 13 14  2  0
 15 12  1  0
 15 18  1  0
 16 15  1  0
 17 15  1  0
  1 19  1  0
  2 20  1  0
  5 21  1  0
  8 22  1  0
 23 24  1  0
 24 25  1  1
 24 26  1  0
 26 27  1  6
 26 28  1  0
 28 29  1  0
 29 30  1  6
 29 31  1  0
 31 32  1  6
 31 23  1  0
 23 33  1  6
 24 34  1  0
 26 35  1  0
 29 36  1  0
 31 37  1  0
  9 23  1  0
M  ISO  8  19  14  20  14  21  14  22  14  25  15  27  15  30  15  32  15
M  END
>  <DihAtoms>  (1) 
7,8,22,23

>  <DihDeg>  (1) 
-89.99854594831938

$$$$
