
 OpenBabel03272507143D

 41 45  0  0  0  0  0  0  0  0999 V2000
   35.8190   29.0860   49.8850 C   0  0  0  0  0  0  0  0  0  0  0  0
   34.7840   29.6250   50.5650 C   0  0  0  0  0  0  0  0  0  0  0  0
   33.6190   29.0630   50.0380 C   0  0  0  0  0  0  0  0  0  0  0  0
   34.0460   28.1850   49.0320 C   0  0  0  0  0  0  0  0  0  0  0  0
   35.3410   28.2500   48.9990 O   0  0  0  0  0  0  0  0  0  0  0  0
   34.7850   30.3650   51.3820 H   0  0  0  0  0  0  0  0  0  0  0  0
   32.6200   29.3250   50.4100 H   0  0  0  0  0  0  0  0  0  0  0  0
   33.5220   26.4380   47.3340 C   0  0  0  0  0  0  0  0  0  0  0  0
   33.1000   27.4010   48.2430 C   0  0  0  0  0  0  0  0  0  0  0  0
   31.7560   27.6610   48.4450 C   0  0  0  0  0  0  0  0  0  0  0  0
   30.8440   26.9370   47.7200 C   0  0  0  0  0  0  0  0  0  0  0  0
   29.4980   26.9660   47.7070 N   0  0  0  0  0  0  0  0  0  0  0  0
   29.0880   26.0580   46.8260 N   0  0  0  0  0  0  0  0  0  0  0  0
   30.1450   25.4520   46.2780 C   0  0  0  0  0  0  0  0  0  0  0  0
   31.3140   25.9840   46.8220 C   0  0  0  0  0  0  0  0  0  0  0  0
   32.6440   25.7110   46.6070 C   0  0  0  0  0  0  0  0  0  0  0  0
   34.5950   26.3060   47.2450 H   0  0  0  0  0  0  0  0  0  0  0  0
   31.3600   28.3990   49.1390 H   0  0  0  0  0  0  0  0  0  0  0  0
   28.8500   27.5700   48.2640 H   0  0  0  0  0  0  0  0  0  0  0  0
   30.1680   24.6550   45.5180 H   0  0  0  0  0  0  0  0  0  0  0  0
   32.9430   24.9680   45.9060 H   0  0  0  0  0  0  0  0  0  0  0  0
   37.2050   29.4450   50.1680 C   0  0  0  0  0  0  0  0  0  0  0  0
   37.8340   28.7990   51.0420 O   0  0  0  0  0  0  0  0  0  0  0  0
   37.7770   30.5360   49.4180 C   0  0  0  0  0  0  0  0  0  0  0  0
   38.0510   31.7060   50.0950 C   0  0  0  0  0  0  0  0  0  0  0  0
   38.6020   32.7790   49.4100 C   0  0  0  0  0  0  0  0  0  0  0  0
   38.8430   32.6090   48.0880 N   0  0  0  0  0  0  0  0  0  0  0  0
   38.5760   31.4780   47.4400 C   0  0  0  0  0  0  0  0  0  0  0  0
   38.0470   30.4550   48.1120 N   0  0  0  0  0  0  0  0  0  0  0  0
   37.8660   31.8730   51.1670 H   0  0  0  0  0  0  0  0  0  0  0  0
   38.8240   33.6950   49.9070 H   0  0  0  0  0  0  0  0  0  0  0  0
   38.8370   31.2790   45.9860 C   0  0  0  0  0  3  0  0  0  0  0  0
   38.2250   32.3650   45.1340 C   0  0  0  0  0  3  0  0  0  0  0  0
   38.7770   33.3350   45.2520 H   0  0  0  0  0  0  0  0  0  0  0  0
   38.2820   31.8550   43.7080 C   0  0  0  0  0  3  0  0  0  0  0  0
   37.9710   32.6280   42.9780 H   0  0  0  0  0  0  0  0  0  0  0  0
   39.4780   31.2570   43.4100 O   0  0  0  0  0  0  0  0  0  0  0  0
   40.5350   31.6290   44.2320 C   0  0  0  0  0  3  0  0  0  0  0  0
   41.4330   31.0870   43.8690 H   0  0  0  0  0  0  0  0  0  0  0  0
   40.3130   31.2370   45.6680 C   0  0  0  0  0  3  0  0  0  0  0  0
   40.8910   31.9580   46.3000 H   0  0  0  0  0  0  0  0  0  0  0  0
  1 22  1  0  0  0  0
  1  2  2  0  0  0  0
  2  6  1  0  0  0  0
  3  7  1  0  0  0  0
  3  2  1  0  0  0  0
  4  3  2  0  0  0  0
  5  4  1  0  0  0  0
  5  1  1  0  0  0  0
  8  9  1  0  0  0  0
  9 10  2  0  0  0  0
  9  4  1  0  0  0  0
 10 18  1  0  0  0  0
 11 10  1  0  0  0  0
 12 11  1  0  0  0  0
 12 19  1  0  0  0  0
 13 12  1  0  0  0  0
 14 15  1  0  0  0  0
 14 13  2  0  0  0  0
 15 11  2  0  0  0  0
 16 15  1  0  0  0  0
 16  8  2  0  0  0  0
 17  8  1  0  0  0  0
 20 14  1  0  0  0  0
 21 16  1  0  0  0  0
 22 23  2  0  0  0  0
 24 25  1  0  0  0  0
 24 22  1  0  0  0  0
 25 30  1  0  0  0  0
 26 31  1  0  0  0  0
 26 25  2  0  0  0  0
 27 26  1  0  0  0  0
 28 27  2  0  0  0  0
 28 29  1  0  0  0  0
 29 24  2  0  0  0  0
 32 28  1  0  0  0  0
 33 34  1  0  0  0  0
 33 32  1  0  0  0  0
 35 33  1  0  0  0  0
 36 35  1  0  0  0  0
 37 35  1  0  0  0  0
 37 38  1  0  0  0  0
 38 40  1  0  0  0  0
 39 38  1  0  0  0  0
 40 32  1  0  0  0  0
 40 41  1  0  0  0  0
M  END
>  <minimizedAffinity>
-7.21660852

>  <minimizedRMSD>
0.424818158

$$$$
