
 OpenBabel03272509093D

 41 44  0  0  0  0  0  0  0  0999 V2000
   32.9820   27.8960   48.0250 C   0  0  0  0  0  0  0  0  0  0  0  0
   32.1530   28.5440   47.7320 H   0  0  0  0  0  0  0  0  0  0  0  0
   32.5770   27.3030   48.9000 H   0  0  0  0  0  0  0  0  0  0  0  0
   33.3490   26.8610   47.0270 C   0  0  0  0  0  0  0  0  0  0  0  0
   34.0470   25.6940   47.3310 C   0  0  0  0  0  0  0  0  0  0  0  0
   34.3570   24.7680   46.3650 C   0  0  0  0  0  0  0  0  0  0  0  0
   33.9740   24.9820   45.0420 C   0  0  0  0  0  0  0  0  0  0  0  0
   33.2910   26.1220   44.7410 C   0  0  0  0  0  0  0  0  0  0  0  0
   32.9760   27.0580   45.7100 C   0  0  0  0  0  0  0  0  0  0  0  0
   34.2920   25.6400   48.3930 H   0  0  0  0  0  0  0  0  0  0  0  0
   34.8980   23.9430   46.8090 H   0  0  0  0  0  0  0  0  0  0  0  0
   34.2740   24.1850   44.3780 H   0  0  0  0  0  0  0  0  0  0  0  0
   33.0470   26.1850   43.6910 H   0  0  0  0  0  0  0  0  0  0  0  0
   32.2430   28.2320   45.1840 C   0  0  0  0  0  3  0  0  0  0  0  0
   31.1100   28.5440   46.1550 C   0  0  0  0  0  3  0  0  0  0  0  0
   31.5720   28.4370   47.1810 H   0  0  0  0  0  0  0  0  0  0  0  0
   30.5490   29.9210   45.9820 C   0  0  0  0  0  3  0  0  0  0  0  0
   29.5730   29.8860   45.4530 H   0  0  0  0  0  0  0  0  0  0  0  0
   31.4210   30.8400   45.4440 O   0  0  0  0  0  0  0  0  0  0  0  0
   32.7080   30.5550   45.9510 C   0  0  0  0  0  3  0  0  0  0  0  0
   32.6310   30.2700   47.0200 H   0  0  0  0  0  0  0  0  0  0  0  0
   33.2030   29.3930   45.0800 C   0  0  0  0  0  3  0  0  0  0  0  0
   34.2470   29.1560   45.2700 H   0  0  0  0  0  0  0  0  0  0  0  0
   34.8410   28.3370   49.6390 C   0  0  0  0  0  3  0  0  0  0  0  0
   34.1350   28.6290   48.5740 C   0  0  0  0  0  3  0  0  0  0  0  0
   37.3730   30.1770   51.5100 C   0  0  0  0  0  0  0  0  0  0  0  0
   38.0360   30.8810   50.4770 C   0  0  0  0  0  0  0  0  0  0  0  0
   37.5830   30.6950   49.1610 C   0  0  0  0  0  0  0  0  0  0  0  0
   36.5280   29.8480   48.9410 N   0  0  0  0  0  0  0  0  0  0  0  0
   35.9420   29.2070   49.9910 C   0  0  0  0  0  0  0  0  0  0  0  0
   36.3560   29.3700   51.2450 N   0  0  0  0  0  0  0  0  0  0  0  0
   37.7390   30.3340   52.5320 H   0  0  0  0  0  0  0  0  0  0  0  0
   38.8630   31.5470   50.6360 H   0  0  0  0  0  0  0  0  0  0  0  0
   38.1940   31.3760   48.0130 C   0  0  0  0  0  0  0  0  0  0  0  0
   38.3460   30.7700   46.7890 C   0  0  0  0  0  0  0  0  0  0  0  0
   38.9540   31.6940   45.9390 C   0  0  0  0  0  0  0  0  0  0  0  0
   39.1460   32.8170   46.6780 N   0  0  0  0  0  0  0  0  0  0  0  0
   38.6900   32.6100   47.9010 N   0  0  0  0  0  0  0  0  0  0  0  0
   38.0490   29.7600   46.5300 H   0  0  0  0  0  0  0  0  0  0  0  0
   39.2150   31.5310   44.8990 H   0  0  0  0  0  0  0  0  0  0  0  0
   39.5840   33.7000   46.3290 H   0  0  0  0  0  0  0  0  0  0  0  0
  1 25  1  0  0  0  0
  1  3  1  0  0  0  0
  2  1  1  0  0  0  0
  4  5  1  0  0  0  0
  4  1  1  0  0  0  0
  5 10  1  0  0  0  0
  6 11  1  0  0  0  0
  6  5  2  0  0  0  0
  7  6  1  0  0  0  0
  8  7  2  0  0  0  0
  8  9  1  0  0  0  0
  9  4  2  0  0  0  0
 12  7  1  0  0  0  0
 13  8  1  0  0  0  0
 14  9  1  0  0  0  0
 14 15  1  0  0  0  0
 15 16  1  0  0  0  0
 17 15  1  0  0  0  0
 18 17  1  0  0  0  0
 19 20  1  0  0  0  0
 19 17  1  0  0  0  0
 20 21  1  0  0  0  0
 22 14  1  0  0  0  0
 22 23  1  0  0  0  0
 22 20  1  0  0  0  0
 24 30  1  0  0  0  0
 25 24  2  0  0  0  0
 26 32  1  0  0  0  0
 27 33  1  0  0  0  0
 27 26  2  0  0  0  0
 28 27  1  0  0  0  0
 29 28  2  0  0  0  0
 29 30  1  0  0  0  0
 30 31  2  0  0  0  0
 31 26  1  0  0  0  0
 34 28  1  0  0  0  0
 35 34  1  0  0  0  0
 36 37  1  0  0  0  0
 36 35  2  0  0  0  0
 37 38  1  0  0  0  0
 38 34  2  0  0  0  0
 39 35  1  0  0  0  0
 40 36  1  0  0  0  0
 41 37  1  0  0  0  0
M  END
>  <minimizedAffinity>
-6.22759962

>  <minimizedRMSD>
0.848885357

$$$$
