
     RDKit          3D

 38 40  0  0  0  0  0  0  0  0999 V2000
   35.6438   29.3305   49.8396 C   0  0  0  0  0  0  0  0  0  0  0  0
   35.7450   30.2845   48.8037 C   0  0  0  0  0  0  0  0  0  0  0  0
   34.9116   30.1623   47.6891 C   0  0  0  0  0  0  0  0  0  0  0  0
   34.0375   29.1192   47.6610 N   0  0  0  0  0  0  0  0  0  0  0  0
   33.9476   28.2281   48.6346 C   0  0  0  0  0  0  0  0  0  0  0  0
   34.7447   28.3314   49.7171 N   0  0  0  0  0  0  0  0  0  0  0  0
   37.6581   30.0355   51.3314 C   0  0  0  0  0  0  0  0  0  0  0  0
   38.2007   30.8419   50.5566 O   0  0  0  0  0  0  0  0  0  0  0  0
   36.4263   29.3722   51.0145 N   0  0  0  0  0  0  0  0  0  0  0  0
   36.7110   31.3324   48.9639 N   0  0  0  0  0  0  0  0  0  0  0  0
   36.5506   32.3353   49.8197 C   0  0  0  0  0  0  0  0  0  0  0  0
   37.5385   33.3180   49.9211 C   0  0  0  0  0  0  0  0  0  0  0  0
   38.6115   33.1464   49.1015 C   0  0  0  0  0  0  0  0  0  0  0  0
   39.4900   34.0583   49.2204 O   0  0  0  0  0  0  0  0  0  0  0  0
   38.8077   32.1598   48.2348 N   0  0  0  0  0  0  0  0  0  0  0  0
   37.8232   31.2380   48.1769 C   0  0  0  0  0  0  0  0  0  0  0  0
   37.9923   30.2791   47.3481 O   0  0  0  0  0  0  0  0  0  0  0  0
   35.0026   30.8991   46.9088 H   0  0  0  0  0  0  0  0  0  0  0  0
   33.2437   27.4078   48.5872 H   0  0  0  0  0  0  0  0  0  0  0  0
   38.1990   29.8936   52.2404 H   0  0  0  0  0  0  0  0  0  0  0  0
   36.0898   28.8315   51.8605 H   0  0  0  0  0  0  0  0  0  0  0  0
   35.6442   32.3429   50.4087 H   0  0  0  0  0  0  0  0  0  0  0  0
   37.3691   34.1007   50.6175 H   0  0  0  0  0  0  0  0  0  0  0  0
   39.9902   32.1308   47.4518 C   0  0  2  0  0  0  0  0  0  0  0  0
   41.1558   31.4048   48.0678 C   0  0  1  0  0  0  0  0  0  0  0  0
   41.3450   31.9014   49.0514 H   0  0  0  0  0  0  0  0  0  0  0  0
   42.3760   31.6378   47.2049 C   0  0  1  0  0  0  0  0  0  0  0  0
   43.1354   32.2924   47.6879 H   0  0  0  0  0  0  0  0  0  0  0  0
   42.0717   32.0696   45.9197 O   0  0  0  0  0  0  0  0  0  0  0  0
   41.4181   33.2826   45.8628 C   0  0  2  0  0  0  0  0  0  0  0  0
   40.7924   33.2609   44.9222 H   0  0  0  0  0  0  0  0  0  0  0  0
   40.5153   33.4975   47.0788 C   0  0  2  0  0  0  0  0  0  0  0  0
   41.2268   33.8250   47.8831 H   0  0  0  0  0  0  0  0  0  0  0  0
   39.7824   31.6070   46.4745 H   0  0  0  0  0  0  0  0  0  0  0  0
   40.9747   30.3514   48.2883 H   0  0  0  0  0  0  0  0  0  0  0  0
   42.8651   30.6451   47.0761 H   0  0  0  0  0  0  0  0  0  0  0  0
   42.0630   34.1645   45.7784 H   0  0  0  0  0  0  0  0  0  0  0  0
   39.7379   34.2342   46.8822 H   0  0  0  0  0  0  0  0  0  0  0  0
  1  9  1  0
  2 10  1  0
  2  1  2  0
  3  2  1  0
  4  3  2  0
  4  5  1  0
  5  6  2  0
  6  1  1  0
  8  7  2  0
  9  7  1  0
 10 11  1  0
 11 12  2  0
 13 14  2  0
 13 12  1  0
 15 13  1  0
 16 15  1  0
 16 10  1  0
 17 16  2  0
  3 18  1  0
  5 19  1  0
  7 20  1  0
  9 21  1  0
 11 22  1  0
 12 23  1  0
 24 25  1  0
 25 26  1  1
 25 27  1  0
 27 28  1  1
 27 29  1  0
 29 30  1  0
 30 31  1  6
 30 32  1  0
 32 33  1  1
 32 24  1  0
 24 34  1  6
 25 35  1  0
 27 36  1  0
 30 37  1  0
 32 38  1  0
 15 24  1  0
M  ISO  8  18  14  19  14  20   6  22  14  23  14  26  15  28  15  31  15
M  ISO  1  33  15
M  END
>  <DihAtoms>  (1) 
12,14,23,24

>  <DihDeg>  (1) 
-90.6236015205111

$$$$
