
 OpenBabel03272509513D

 34 36  0  0  0  0  0  0  0  0999 V2000
   37.1850   30.2170   51.3440 C   0  0  0  0  0  0  0  0  0  0  0  0
   37.9100   30.6000   50.1940 C   0  0  0  0  0  0  0  0  0  0  0  0
   37.4300   30.1700   48.9690 C   0  0  0  0  0  0  0  0  0  0  0  0
   36.2890   29.4020   48.9380 N   0  0  0  0  0  0  0  0  0  0  0  0
   35.6340   29.0630   50.0530 C   0  0  0  0  0  0  0  0  0  0  0  0
   36.0850   29.4710   51.2490 N   0  0  0  0  0  0  0  0  0  0  0  0
   37.5010   30.5170   52.3350 H   0  0  0  0  0  0  0  0  0  0  0  0
   38.8010   31.2070   50.2950 H   0  0  0  0  0  0  0  0  0  0  0  0
   38.1740   30.5600   47.7460 C   0  0  0  0  0  3  0  0  0  0  0  0
   38.8030   31.8980   47.8800 C   0  0  0  0  0  3  0  0  0  0  0  0
   38.1490   32.6740   48.3090 H   0  0  0  0  0  0  0  0  0  0  0  0
   39.1910   32.4200   46.5100 C   0  0  0  0  0  3  0  0  0  0  0  0
   39.8960   31.7620   45.9690 H   0  0  0  0  0  0  0  0  0  0  0  0
   37.9820   32.5900   45.8080 O   0  0  0  0  0  0  0  0  0  0  0  0
   37.5870   31.3120   45.4230 C   0  0  0  0  0  3  0  0  0  0  0  0
   36.6910   31.4150   44.7780 H   0  0  0  0  0  0  0  0  0  0  0  0
   37.2100   30.4490   46.5950 C   0  0  0  0  0  3  0  0  0  0  0  0
   36.1930   30.7060   46.9570 H   0  0  0  0  0  0  0  0  0  0  0  0
   34.5290   28.2970   49.7770 O   0  0  0  0  0  0  0  0  0  0  0  0
   33.8220   28.5260   48.5670 C   0  0  0  0  0  0  0  0  0  0  0  0
   34.5600   28.6850   47.7560 H   0  0  0  0  0  0  0  0  0  0  0  0
   33.2670   29.4820   48.6520 H   0  0  0  0  0  0  0  0  0  0  0  0
   32.8710   27.4050   48.2960 C   0  0  0  0  0  0  0  0  0  0  0  0
   33.1590   26.9650   47.3020 H   0  0  0  0  0  0  0  0  0  0  0  0
   32.9760   26.6210   49.0730 H   0  0  0  0  0  0  0  0  0  0  0  0
   31.4470   27.8510   48.2310 C   0  0  0  0  0  0  0  0  0  0  0  0
   30.7050   27.6910   49.3790 C   0  0  0  0  0  0  0  0  0  0  0  0
   29.3830   28.0630   49.4430 C   0  0  0  0  0  0  0  0  0  0  0  0
   28.8010   28.5940   48.3600 N   0  0  0  0  0  0  0  0  0  0  0  0
   29.5400   28.7430   47.2450 C   0  0  0  0  0  0  0  0  0  0  0  0
   30.8320   28.3880   47.1560 N   0  0  0  0  0  0  0  0  0  0  0  0
   31.1170   27.2650   50.2980 H   0  0  0  0  0  0  0  0  0  0  0  0
   28.7620   27.9550   50.3310 H   0  0  0  0  0  0  0  0  0  0  0  0
   29.1200   29.1720   46.3240 H   0  0  0  0  0  0  0  0  0  0  0  0
  1  7  1  0  0  0  0
  2  8  1  0  0  0  0
  2  1  2  0  0  0  0
  3  2  1  0  0  0  0
  4  3  2  0  0  0  0
  4  5  1  0  0  0  0
  5  6  2  0  0  0  0
  6  1  1  0  0  0  0
  9 10  1  0  0  0  0
  9  3  1  0  0  0  0
 10 11  1  0  0  0  0
 12 10  1  0  0  0  0
 13 12  1  0  0  0  0
 14 12  1  0  0  0  0
 15 14  1  0  0  0  0
 15 17  1  0  0  0  0
 16 15  1  0  0  0  0
 17 18  1  0  0  0  0
 17  9  1  0  0  0  0
 19  5  1  0  0  0  0
 20 22  1  0  0  0  0
 20 19  1  0  0  0  0
 21 20  1  0  0  0  0
 23 20  1  0  0  0  0
 23 25  1  0  0  0  0
 24 23  1  0  0  0  0
 26 23  1  0  0  0  0
 26 27  1  0  0  0  0
 27 28  2  0  0  0  0
 27 32  1  0  0  0  0
 28 33  1  0  0  0  0
 29 28  1  0  0  0  0
 30 29  2  0  0  0  0
 31 30  1  0  0  0  0
 31 26  2  0  0  0  0
 34 30  1  0  0  0  0
M  END
>  <minimizedAffinity>
-5.77101898

>  <minimizedRMSD>
0.377898693

$$$$
