
     RDKit          3D

 31 33  0  0  0  0  0  0  0  0999 V2000
   37.4846   30.4853   50.8942 C   0  0  0  0  0  0  0  0  0  0  0  0
   37.1105   31.0911   49.6778 C   0  0  0  0  0  0  0  0  0  0  0  0
   35.8624   30.7478   49.1628 C   0  0  0  0  0  0  0  0  0  0  0  0
   35.0842   29.8578   49.8546 N   0  0  0  0  0  0  0  0  0  0  0  0
   35.4842   29.3037   51.0149 C   0  0  0  0  0  0  0  0  0  0  0  0
   36.6953   29.6213   51.5379 N   0  0  0  0  0  0  0  0  0  0  0  0
   37.9464   32.0235   48.9699 C   0  0  0  0  0  0  0  0  0  0  0  0
   38.5430   31.7408   47.7515 C   0  0  0  0  0  0  0  0  0  0  0  0
   39.2761   32.8453   47.3460 C   0  0  0  0  0  0  0  0  0  0  0  0
   39.1135   33.7734   48.3180 N   0  0  0  0  0  0  0  0  0  0  0  0
   38.3307   33.2491   49.2434 N   0  0  0  0  0  0  0  0  0  0  0  0
   38.4725   30.8022   51.2341 H   0  0  0  0  0  0  0  0  0  0  0  0
   35.5021   31.1781   48.2208 H   0  0  0  0  0  0  0  0  0  0  0  0
   34.8733   28.6085   51.5528 H   0  0  0  0  0  0  0  0  0  0  0  0
   38.4862   30.8199   47.1548 H   0  0  0  0  0  0  0  0  0  0  0  0
   39.8604   32.9724   46.4566 H   0  0  0  0  0  0  0  0  0  0  0  0
   39.6544   35.1114   48.4123 C   0  0  1  0  0  0  0  0  0  0  0  0
   39.9808   35.6701   47.0525 C   0  0  1  0  0  0  0  0  0  0  0  0
   40.8804   35.1454   46.6675 H   0  0  0  0  0  0  0  0  0  0  0  0
   40.3462   37.1308   47.1885 C   0  0  1  0  0  0  0  0  0  0  0  0
   41.3443   37.2747   47.6445 H   0  0  0  0  0  0  0  0  0  0  0  0
   39.4263   37.8477   47.9172 O   0  0  0  0  0  0  0  0  0  0  0  0
   39.2339   37.3535   49.2071 C   0  0  1  0  0  0  0  0  0  0  0  0
   40.2137   37.1202   49.7046 H   0  0  0  0  0  0  0  0  0  0  0  0
   38.5641   35.9873   49.0361 C   0  0  2  0  0  0  0  0  0  0  0  0
   38.2663   35.5729   50.0008 H   0  0  0  0  0  0  0  0  0  0  0  0
   40.5286   35.1925   49.0586 H   0  0  0  0  0  0  0  0  0  0  0  0
   39.1786   35.5374   46.3268 H   0  0  0  0  0  0  0  0  0  0  0  0
   40.3559   37.5721   46.1709 H   0  0  0  0  0  0  0  0  0  0  0  0
   38.6216   38.0611   49.7764 H   0  0  0  0  0  0  0  0  0  0  0  0
   37.6811   36.0839   48.3575 H   0  0  0  0  0  0  0  0  0  0  0  0
  1  6  2  0
  2  1  1  0
  3  2  2  0
  3  4  1  0
  4  5  2  0
  5  6  1  0
  7 11  2  0
  7  2  1  0
  8  7  1  0
  9  8  2  0
  9 10  1  0
 10 11  1  0
  1 12  1  0
  3 13  1  0
  5 14  1  0
  8 15  1  0
  9 16  1  0
 17 18  1  0
 18 19  1  6
 18 20  1  0
 20 21  1  1
 20 22  1  0
 22 23  1  0
 23 24  1  1
 23 25  1  0
 25 26  1  1
 25 17  1  0
 17 27  1  1
 18 28  1  0
 20 29  1  0
 23 30  1  0
 25 31  1  0
 10 17  1  0
M  ISO  8  12  14  13  14  14  14  15  14  16  14  19  15  21  15  24  15
M  ISO  1  26  15
M  END
>  <DihAtoms>  (1) 
8,9,16,17

>  <DihDeg>  (1) 
24.70038532644404

$$$$
