
 OpenBabel03262522123D

 31 33  0  0  0  0  0  0  0  0999 V2000
   36.0940   28.5990   33.6300 C   0  0  0  0  0  0  0  0  0  0  0  0
   36.6190   28.4970   32.3360 C   0  0  0  0  0  0  0  0  0  0  0  0
   37.7450   27.7350   32.1090 C   0  0  0  0  0  0  0  0  0  0  0  0
   38.2950   27.1040   33.2280 C   0  0  0  0  0  0  0  0  0  0  0  0
   37.7720   27.2110   34.4850 C   0  0  0  0  0  0  0  0  0  0  0  0
   36.6620   27.9640   34.6930 N   0  0  0  0  0  0  0  0  0  0  0  0
   36.1510   29.0090   31.5050 H   0  0  0  0  0  0  0  0  0  0  0  0
   38.1910   27.6270   31.1190 H   0  0  0  0  0  0  0  0  0  0  0  0
   39.1800   26.5060   33.0490 H   0  0  0  0  0  0  0  0  0  0  0  0
   34.9100   29.4170   33.7800 C   0  0  0  0  0  0  0  0  0  0  0  0
   33.9870   29.3450   32.9430 O   0  0  0  0  0  0  0  0  0  0  0  0
   33.4520   30.4780   35.4480 C   0  0  0  0  0  0  0  0  0  0  0  0
   34.7270   30.3460   34.8770 C   0  0  0  0  0  0  0  0  0  0  0  0
   35.7470   31.1240   35.4060 C   0  0  0  0  0  0  0  0  0  0  0  0
   35.5040   31.9770   36.4380 N   0  0  0  0  0  0  0  0  0  0  0  0
   34.2450   32.0730   36.9620 C   0  0  0  0  0  0  0  0  0  0  0  0
   33.2510   31.3410   36.4780 N   0  0  0  0  0  0  0  0  0  0  0  0
   32.6430   29.8810   35.0510 H   0  0  0  0  0  0  0  0  0  0  0  0
   36.7450   31.0340   34.9730 H   0  0  0  0  0  0  0  0  0  0  0  0
   34.2030   32.7890   37.7750 H   0  0  0  0  0  0  0  0  0  0  0  0
   38.4910   26.3930   35.9020 S   0  0  0  0  0  0  0  0  0  0  0  0
   37.7180   24.7830   36.2230 C   0  0  0  0  0  3  0  0  0  0  0  0
   38.3780   23.7640   35.2990 C   0  0  0  0  0  3  0  0  0  0  0  0
   38.1390   23.9240   34.2480 H   0  0  0  0  0  0  0  0  0  0  0  0
   39.8620   23.8380   35.6180 C   0  0  0  0  0  3  0  0  0  0  0  0
   40.1780   24.8990   35.7320 H   0  0  0  0  0  0  0  0  0  0  0  0
   40.0990   23.2330   36.8440 O   0  0  0  0  0  0  0  0  0  0  0  0
   39.0060   23.1600   37.6620 C   0  0  0  0  0  3  0  0  0  0  0  0
   39.4170   23.1550   38.7160 H   0  0  0  0  0  0  0  0  0  0  0  0
   38.0960   24.3640   37.6230 C   0  0  0  0  0  3  0  0  0  0  0  0
   37.1470   24.0590   38.1320 H   0  0  0  0  0  0  0  0  0  0  0  0
  1 10  1  0  0  0  0
  1  6  1  0  0  0  0
  2  1  2  0  0  0  0
  3  2  1  0  0  0  0
  3  4  2  0  0  0  0
  4  5  1  0  0  0  0
  5  6  2  0  0  0  0
  5 21  1  0  0  0  0
  7  2  1  0  0  0  0
  8  3  1  0  0  0  0
  9  4  1  0  0  0  0
 10 13  1  0  0  0  0
 11 10  2  0  0  0  0
 12 17  1  0  0  0  0
 13 14  1  0  0  0  0
 13 12  2  0  0  0  0
 14 15  2  0  0  0  0
 15 16  1  0  0  0  0
 16 20  1  0  0  0  0
 17 16  2  0  0  0  0
 18 12  1  0  0  0  0
 19 14  1  0  0  0  0
 21 22  1  0  0  0  0
 22 30  1  0  0  0  0
 23 25  1  0  0  0  0
 23 22  1  0  0  0  0
 24 23  1  0  0  0  0
 25 26  1  0  0  0  0
 25 27  1  0  0  0  0
 27 28  1  0  0  0  0
 28 29  1  0  0  0  0
 30 28  1  0  0  0  0
 30 31  1  0  0  0  0
M  END
>  <minimizedAffinity>
-5.27133894

$$$$

 OpenBabel03262522123D

 31 33  0  0  0  0  0  0  0  0999 V2000
   38.3740   24.9890   35.2090 C   0  0  0  0  0  0  0  0  0  0  0  0
   38.3160   24.6780   36.5730 C   0  0  0  0  0  0  0  0  0  0  0  0
   38.0120   23.3930   36.9720 C   0  0  0  0  0  0  0  0  0  0  0  0
   37.7760   22.4710   35.9490 C   0  0  0  0  0  0  0  0  0  0  0  0
   37.8360   22.7890   34.6220 C   0  0  0  0  0  0  0  0  0  0  0  0
   38.1380   24.0570   34.2440 N   0  0  0  0  0  0  0  0  0  0  0  0
   38.5080   25.4330   37.3240 H   0  0  0  0  0  0  0  0  0  0  0  0
   37.9550   23.1030   38.0230 H   0  0  0  0  0  0  0  0  0  0  0  0
   37.5370   21.4640   36.2640 H   0  0  0  0  0  0  0  0  0  0  0  0
   38.7000   26.3580   34.8770 C   0  0  0  0  0  0  0  0  0  0  0  0
   39.7220   26.8940   35.3520 O   0  0  0  0  0  0  0  0  0  0  0  0
   36.7490   27.8080   34.5240 C   0  0  0  0  0  0  0  0  0  0  0  0
   37.8840   27.1730   33.9990 C   0  0  0  0  0  0  0  0  0  0  0  0
   38.1590   27.3680   32.6520 C   0  0  0  0  0  0  0  0  0  0  0  0
   37.3500   28.1460   31.8850 N   0  0  0  0  0  0  0  0  0  0  0  0
   36.2530   28.7450   32.4400 C   0  0  0  0  0  0  0  0  0  0  0  0
   35.9650   28.5770   33.7230 N   0  0  0  0  0  0  0  0  0  0  0  0
   36.5160   27.6690   35.5690 H   0  0  0  0  0  0  0  0  0  0  0  0
   39.0400   26.8800   32.2280 H   0  0  0  0  0  0  0  0  0  0  0  0
   35.7050   29.3310   31.7110 H   0  0  0  0  0  0  0  0  0  0  0  0
   37.5320   21.5930   33.3290 S   0  0  0  0  0  0  0  0  0  0  0  0
   35.7610   21.2730   33.1000 C   0  0  0  0  0  3  0  0  0  0  0  0
   35.4330   21.5360   31.6330 C   0  0  0  0  0  3  0  0  0  0  0  0
   35.5100   22.5880   31.3610 H   0  0  0  0  0  0  0  0  0  0  0  0
   36.3560   20.6210   30.8470 C   0  0  0  0  0  3  0  0  0  0  0  0
   37.3790   20.6350   31.2880 H   0  0  0  0  0  0  0  0  0  0  0  0
   35.9100   19.3120   30.9580 O   0  0  0  0  0  0  0  0  0  0  0  0
   35.1200   19.0710   32.0490 C   0  0  0  0  0  3  0  0  0  0  0  0
   35.2700   17.9770   32.2950 H   0  0  0  0  0  0  0  0  0  0  0  0
   35.5310   19.7960   33.3080 C   0  0  0  0  0  3  0  0  0  0  0  0
   34.6720   19.7040   34.0200 H   0  0  0  0  0  0  0  0  0  0  0  0
  1  2  1  0  0  0  0
  2  3  2  0  0  0  0
  2  7  1  0  0  0  0
  3  8  1  0  0  0  0
  4  9  1  0  0  0  0
  4  3  1  0  0  0  0
  5  4  2  0  0  0  0
  6  5  1  0  0  0  0
  6  1  2  0  0  0  0
 10  1  1  0  0  0  0
 10 11  2  0  0  0  0
 12 18  1  0  0  0  0
 13 12  1  0  0  0  0
 13 10  1  0  0  0  0
 14 13  2  0  0  0  0
 15 16  2  0  0  0  0
 15 14  1  0  0  0  0
 16 17  1  0  0  0  0
 17 12  2  0  0  0  0
 19 14  1  0  0  0  0
 20 16  1  0  0  0  0
 21  5  1  0  0  0  0
 22 30  1  0  0  0  0
 22 21  1  0  0  0  0
 23 22  1  0  0  0  0
 24 23  1  0  0  0  0
 25 27  1  0  0  0  0
 25 26  1  0  0  0  0
 25 23  1  0  0  0  0
 27 28  1  0  0  0  0
 28 29  1  0  0  0  0
 28 30  1  0  0  0  0
 30 31  1  0  0  0  0
M  END
>  <minimizedAffinity>
-5.26314449

$$$$

 OpenBabel03262522123D

 31 33  0  0  0  0  0  0  0  0999 V2000
   36.6140   25.5550   32.2980 C   0  0  0  0  0  0  0  0  0  0  0  0
   36.4870   26.9070   31.9590 C   0  0  0  0  0  0  0  0  0  0  0  0
   37.0360   27.8740   32.7750 C   0  0  0  0  0  0  0  0  0  0  0  0
   37.6980   27.4120   33.9160 C   0  0  0  0  0  0  0  0  0  0  0  0
   37.8150   26.0890   34.2330 C   0  0  0  0  0  0  0  0  0  0  0  0
   37.2700   25.1480   33.4200 N   0  0  0  0  0  0  0  0  0  0  0  0
   35.9620   27.2080   31.0620 H   0  0  0  0  0  0  0  0  0  0  0  0
   36.9620   28.9400   32.5530 H   0  0  0  0  0  0  0  0  0  0  0  0
   38.1280   28.1720   34.5550 H   0  0  0  0  0  0  0  0  0  0  0  0
   36.0100   24.6060   31.3880 C   0  0  0  0  0  0  0  0  0  0  0  0
   35.0850   24.9640   30.6310 O   0  0  0  0  0  0  0  0  0  0  0  0
   35.5740   22.2240   31.8010 C   0  0  0  0  0  0  0  0  0  0  0  0
   36.4260   23.2200   31.3010 C   0  0  0  0  0  0  0  0  0  0  0  0
   37.6310   22.8110   30.7470 C   0  0  0  0  0  0  0  0  0  0  0  0
   37.9590   21.4920   30.6980 N   0  0  0  0  0  0  0  0  0  0  0  0
   37.0970   20.5560   31.1980 C   0  0  0  0  0  0  0  0  0  0  0  0
   35.9390   20.9170   31.7330 N   0  0  0  0  0  0  0  0  0  0  0  0
   34.6310   22.5210   32.2370 H   0  0  0  0  0  0  0  0  0  0  0  0
   38.3060   23.5750   30.3540 H   0  0  0  0  0  0  0  0  0  0  0  0
   37.4910   19.5520   31.0900 H   0  0  0  0  0  0  0  0  0  0  0  0
   38.6680   25.5200   35.6970 S   0  0  0  0  0  0  0  0  0  0  0  0
   37.6810   24.3250   36.6390 C   0  0  0  0  0  3  0  0  0  0  0  0
   38.1670   22.9280   36.2620 C   0  0  0  0  0  3  0  0  0  0  0  0
   37.9300   22.6570   35.2340 H   0  0  0  0  0  0  0  0  0  0  0  0
   39.6540   22.9230   36.5790 C   0  0  0  0  0  3  0  0  0  0  0  0
   40.1210   23.8770   36.2450 H   0  0  0  0  0  0  0  0  0  0  0  0
   39.8300   22.8720   37.9550 O   0  0  0  0  0  0  0  0  0  0  0  0
   38.7560   23.3070   38.6820 C   0  0  0  0  0  3  0  0  0  0  0  0
   39.1870   23.6940   39.6540 H   0  0  0  0  0  0  0  0  0  0  0  0
   38.0270   24.4940   38.0990 C   0  0  0  0  0  3  0  0  0  0  0  0
   37.0560   24.5690   38.6500 H   0  0  0  0  0  0  0  0  0  0  0  0
  1  6  1  0  0  0  0
  2  1  2  0  0  0  0
  2  3  1  0  0  0  0
  3  4  2  0  0  0  0
  4  5  1  0  0  0  0
  4  9  1  0  0  0  0
  5 21  1  0  0  0  0
  6  5  2  0  0  0  0
  7  2  1  0  0  0  0
  8  3  1  0  0  0  0
 10  1  1  0  0  0  0
 11 10  2  0  0  0  0
 12 18  1  0  0  0  0
 13 10  1  0  0  0  0
 13 12  2  0  0  0  0
 14 13  1  0  0  0  0
 15 14  2  0  0  0  0
 15 16  1  0  0  0  0
 16 17  2  0  0  0  0
 17 12  1  0  0  0  0
 19 14  1  0  0  0  0
 20 16  1  0  0  0  0
 21 22  1  0  0  0  0
 22 30  1  0  0  0  0
 23 25  1  0  0  0  0
 23 22  1  0  0  0  0
 24 23  1  0  0  0  0
 25 27  1  0  0  0  0
 26 25  1  0  0  0  0
 27 28  1  0  0  0  0
 28 29  1  0  0  0  0
 30 31  1  0  0  0  0
 30 28  1  0  0  0  0
M  END
>  <minimizedAffinity>
-5.25862122

$$$$

 OpenBabel03262522123D

 31 33  0  0  0  0  0  0  0  0999 V2000
   37.9140   27.2360   34.0450 C   0  0  0  0  0  0  0  0  0  0  0  0
   38.2730   27.2850   32.6930 C   0  0  0  0  0  0  0  0  0  0  0  0
   37.5150   28.0200   31.8060 C   0  0  0  0  0  0  0  0  0  0  0  0
   36.4070   28.6800   32.3450 C   0  0  0  0  0  0  0  0  0  0  0  0
   36.0690   28.6240   33.6670 C   0  0  0  0  0  0  0  0  0  0  0  0
   36.8250   27.8970   34.5280 N   0  0  0  0  0  0  0  0  0  0  0  0
   39.1430   26.7530   32.3290 H   0  0  0  0  0  0  0  0  0  0  0  0
   37.7550   28.0880   30.7440 H   0  0  0  0  0  0  0  0  0  0  0  0
   35.8130   29.2560   31.6490 H   0  0  0  0  0  0  0  0  0  0  0  0
   38.7630   26.4430   34.9060 C   0  0  0  0  0  0  0  0  0  0  0  0
   39.8690   26.8850   35.2770 O   0  0  0  0  0  0  0  0  0  0  0  0
   38.4410   24.0450   34.4820 C   0  0  0  0  0  0  0  0  0  0  0  0
   38.3960   25.1230   35.3790 C   0  0  0  0  0  0  0  0  0  0  0  0
   37.9960   24.8540   36.6800 C   0  0  0  0  0  0  0  0  0  0  0  0
   37.6640   23.5900   37.0570 N   0  0  0  0  0  0  0  0  0  0  0  0
   37.7230   22.5700   36.1480 C   0  0  0  0  0  0  0  0  0  0  0  0
   38.1020   22.7960   34.8980 N   0  0  0  0  0  0  0  0  0  0  0  0
   38.7500   24.2320   33.4640 H   0  0  0  0  0  0  0  0  0  0  0  0
   37.9540   25.6830   37.3910 H   0  0  0  0  0  0  0  0  0  0  0  0
   37.4320   21.6230   36.5890 H   0  0  0  0  0  0  0  0  0  0  0  0
   34.6480   29.4780   34.3360 S   0  0  0  0  0  0  0  0  0  0  0  0
   34.9600   31.2510   34.5540 C   0  0  0  0  0  3  0  0  0  0  0  0
   33.6150   31.9280   34.8000 C   0  0  0  0  0  3  0  0  0  0  0  0
   32.9670   31.9180   33.9240 H   0  0  0  0  0  0  0  0  0  0  0  0
   33.0300   31.2260   36.0140 C   0  0  0  0  0  3  0  0  0  0  0  0
   33.1900   30.1270   35.9370 H   0  0  0  0  0  0  0  0  0  0  0  0
   33.7110   31.6330   37.1520 O   0  0  0  0  0  0  0  0  0  0  0  0
   34.9620   32.1330   36.9180 C   0  0  0  0  0  3  0  0  0  0  0  0
   35.5500   31.9290   37.8630 H   0  0  0  0  0  0  0  0  0  0  0  0
   35.7410   31.4250   35.8350 C   0  0  0  0  0  3  0  0  0  0  0  0
   36.6120   32.0850   35.5910 H   0  0  0  0  0  0  0  0  0  0  0  0
  1  6  1  0  0  0  0
  1 10  1  0  0  0  0
  2  1  2  0  0  0  0
  3  4  2  0  0  0  0
  3  2  1  0  0  0  0
  4  5  1  0  0  0  0
  5 21  1  0  0  0  0
  5  6  2  0  0  0  0
  7  2  1  0  0  0  0
  8  3  1  0  0  0  0
  9  4  1  0  0  0  0
 10 11  2  0  0  0  0
 10 13  1  0  0  0  0
 12 17  2  0  0  0  0
 12 13  1  0  0  0  0
 13 14  2  0  0  0  0
 14 15  1  0  0  0  0
 14 19  1  0  0  0  0
 16 20  1  0  0  0  0
 16 15  2  0  0  0  0
 17 16  1  0  0  0  0
 18 12  1  0  0  0  0
 21 22  1  0  0  0  0
 22 23  1  0  0  0  0
 22 30  1  0  0  0  0
 23 25  1  0  0  0  0
 24 23  1  0  0  0  0
 25 27  1  0  0  0  0
 26 25  1  0  0  0  0
 28 27  1  0  0  0  0
 28 29  1  0  0  0  0
 30 28  1  0  0  0  0
 31 30  1  0  0  0  0
M  END
>  <minimizedAffinity>
-5.19951248

$$$$

 OpenBabel03262522123D

 31 33  0  0  0  0  0  0  0  0999 V2000
   36.7050   25.9870   32.3970 C   0  0  0  0  0  0  0  0  0  0  0  0
   35.7110   26.4160   31.5090 C   0  0  0  0  0  0  0  0  0  0  0  0
   35.0160   25.4930   30.7580 C   0  0  0  0  0  0  0  0  0  0  0  0
   35.3710   24.1540   30.9460 C   0  0  0  0  0  0  0  0  0  0  0  0
   36.3420   23.7500   31.8170 C   0  0  0  0  0  0  0  0  0  0  0  0
   37.0180   24.6700   32.5500 N   0  0  0  0  0  0  0  0  0  0  0  0
   35.4780   27.4680   31.4030 H   0  0  0  0  0  0  0  0  0  0  0  0
   34.2330   25.7800   30.0530 H   0  0  0  0  0  0  0  0  0  0  0  0
   34.8240   23.4310   30.3560 H   0  0  0  0  0  0  0  0  0  0  0  0
   37.3860   27.0200   33.1470 C   0  0  0  0  0  0  0  0  0  0  0  0
   36.7460   27.9890   33.6030 O   0  0  0  0  0  0  0  0  0  0  0  0
   39.6990   27.1770   32.3370 C   0  0  0  0  0  0  0  0  0  0  0  0
   38.8110   26.9970   33.4080 C   0  0  0  0  0  0  0  0  0  0  0  0
   39.3610   26.8040   34.6680 C   0  0  0  0  0  0  0  0  0  0  0  0
   40.7090   26.7930   34.8420 N   0  0  0  0  0  0  0  0  0  0  0  0
   41.5370   26.9730   33.7680 C   0  0  0  0  0  0  0  0  0  0  0  0
   41.0410   27.1600   32.5530 N   0  0  0  0  0  0  0  0  0  0  0  0
   39.2920   27.3280   31.3480 H   0  0  0  0  0  0  0  0  0  0  0  0
   38.6820   26.6610   35.5120 H   0  0  0  0  0  0  0  0  0  0  0  0
   42.5810   26.9400   34.0570 H   0  0  0  0  0  0  0  0  0  0  0  0
   36.7790   22.0310   32.0430 S   0  0  0  0  0  0  0  0  0  0  0  0
   35.6480   20.9190   31.1640 C   0  0  0  0  0  3  0  0  0  0  0  0
   36.4920   19.8350   30.5010 C   0  0  0  0  0  3  0  0  0  0  0  0
   37.1120   20.2140   29.6900 H   0  0  0  0  0  0  0  0  0  0  0  0
   37.2740   19.1890   31.6340 C   0  0  0  0  0  3  0  0  0  0  0  0
   37.6620   19.9700   32.3270 H   0  0  0  0  0  0  0  0  0  0  0  0
   36.4200   18.3970   32.3880 O   0  0  0  0  0  0  0  0  0  0  0  0
   35.0970   18.7260   32.2820 C   0  0  0  0  0  3  0  0  0  0  0  0
   34.6270   18.4050   33.2600 H   0  0  0  0  0  0  0  0  0  0  0  0
   34.8110   20.2060   32.1980 C   0  0  0  0  0  3  0  0  0  0  0  0
   33.7460   20.3020   31.8690 H   0  0  0  0  0  0  0  0  0  0  0  0
  1  6  1  0  0  0  0
  1 10  1  0  0  0  0
  2  1  2  0  0  0  0
  3  4  2  0  0  0  0
  3  2  1  0  0  0  0
  4  5  1  0  0  0  0
  5 21  1  0  0  0  0
  5  6  2  0  0  0  0
  7  2  1  0  0  0  0
  8  3  1  0  0  0  0
  9  4  1  0  0  0  0
 10 13  1  0  0  0  0
 10 11  2  0  0  0  0
 12 17  2  0  0  0  0
 12 13  1  0  0  0  0
 13 14  2  0  0  0  0
 14 15  1  0  0  0  0
 14 19  1  0  0  0  0
 16 20  1  0  0  0  0
 16 15  2  0  0  0  0
 17 16  1  0  0  0  0
 18 12  1  0  0  0  0
 22 21  1  0  0  0  0
 22 30  1  0  0  0  0
 23 22  1  0  0  0  0
 23 25  1  0  0  0  0
 24 23  1  0  0  0  0
 25 26  1  0  0  0  0
 25 27  1  0  0  0  0
 28 27  1  0  0  0  0
 28 29  1  0  0  0  0
 30 28  1  0  0  0  0
 31 30  1  0  0  0  0
M  END
>  <minimizedAffinity>
-5.05185795

$$$$

 OpenBabel03262522123D

 31 33  0  0  0  0  0  0  0  0999 V2000
   36.9310   27.1620   32.6200 C   0  0  0  0  0  0  0  0  0  0  0  0
   36.4520   28.2030   33.4240 C   0  0  0  0  0  0  0  0  0  0  0  0
   36.7440   28.2220   34.7710 C   0  0  0  0  0  0  0  0  0  0  0  0
   37.5220   27.1620   35.2460 C   0  0  0  0  0  0  0  0  0  0  0  0
   37.9840   26.1530   34.4500 C   0  0  0  0  0  0  0  0  0  0  0  0
   37.6890   26.1480   33.1260 N   0  0  0  0  0  0  0  0  0  0  0  0
   35.8520   28.9990   33.0020 H   0  0  0  0  0  0  0  0  0  0  0  0
   36.3930   29.0120   35.4370 H   0  0  0  0  0  0  0  0  0  0  0  0
   37.7510   27.1790   36.3030 H   0  0  0  0  0  0  0  0  0  0  0  0
   36.5790   27.2180   31.2180 C   0  0  0  0  0  0  0  0  0  0  0  0
   35.7140   26.4460   30.7570 O   0  0  0  0  0  0  0  0  0  0  0  0
   38.3830   27.7760   29.6470 C   0  0  0  0  0  0  0  0  0  0  0  0
   37.1910   28.1450   30.2870 C   0  0  0  0  0  0  0  0  0  0  0  0
   36.6640   29.3940   29.9860 C   0  0  0  0  0  0  0  0  0  0  0  0
   37.2900   30.2150   29.1010 N   0  0  0  0  0  0  0  0  0  0  0  0
   38.4520   29.8130   28.5010 C   0  0  0  0  0  0  0  0  0  0  0  0
   38.9780   28.6260   28.7690 N   0  0  0  0  0  0  0  0  0  0  0  0
   38.8100   26.8090   29.8680 H   0  0  0  0  0  0  0  0  0  0  0  0
   35.7360   29.6970   30.4760 H   0  0  0  0  0  0  0  0  0  0  0  0
   38.8350   30.5680   27.8240 H   0  0  0  0  0  0  0  0  0  0  0  0
   38.9790   24.8080   35.0780 S   0  0  0  0  0  0  0  0  0  0  0  0
   38.0100   23.6610   36.0950 C   0  0  0  0  0  3  0  0  0  0  0  0
   38.7560   22.3300   36.1250 C   0  0  0  0  0  3  0  0  0  0  0  0
   38.7650   21.8250   35.1600 H   0  0  0  0  0  0  0  0  0  0  0  0
   40.1370   22.6590   36.6690 C   0  0  0  0  0  3  0  0  0  0  0  0
   40.5180   23.5980   36.2070 H   0  0  0  0  0  0  0  0  0  0  0  0
   40.0460   22.9100   38.0310 O   0  0  0  0  0  0  0  0  0  0  0  0
   38.8000   23.2760   38.4600 C   0  0  0  0  0  3  0  0  0  0  0  0
   38.9730   23.9170   39.3760 H   0  0  0  0  0  0  0  0  0  0  0  0
   38.0360   24.1720   37.5150 C   0  0  0  0  0  3  0  0  0  0  0  0
   36.9760   24.1760   37.8730 H   0  0  0  0  0  0  0  0  0  0  0  0
  1  6  2  0  0  0  0
  1  2  1  0  0  0  0
  2  3  2  0  0  0  0
  3  4  1  0  0  0  0
  3  8  1  0  0  0  0
  4  9  1  0  0  0  0
  5 21  1  0  0  0  0
  5  4  2  0  0  0  0
  6  5  1  0  0  0  0
  7  2  1  0  0  0  0
 10  1  1  0  0  0  0
 11 10  2  0  0  0  0
 12 18  1  0  0  0  0
 12 13  1  0  0  0  0
 13 10  1  0  0  0  0
 14 13  2  0  0  0  0
 14 19  1  0  0  0  0
 15 14  1  0  0  0  0
 16 17  1  0  0  0  0
 16 15  2  0  0  0  0
 17 12  2  0  0  0  0
 20 16  1  0  0  0  0
 21 22  1  0  0  0  0
 22 23  1  0  0  0  0
 22 30  1  0  0  0  0
 23 25  1  0  0  0  0
 24 23  1  0  0  0  0
 25 27  1  0  0  0  0
 26 25  1  0  0  0  0
 27 28  1  0  0  0  0
 28 29  1  0  0  0  0
 30 31  1  0  0  0  0
 30 28  1  0  0  0  0
M  END
>  <minimizedAffinity>
-5.00059175

$$$$

 OpenBabel03262522123D

 31 33  0  0  0  0  0  0  0  0999 V2000
   37.6160   26.2590   33.8080 C   0  0  0  0  0  0  0  0  0  0  0  0
   37.1440   27.4910   33.3400 C   0  0  0  0  0  0  0  0  0  0  0  0
   36.3340   27.5390   32.2260 C   0  0  0  0  0  0  0  0  0  0  0  0
   36.0380   26.3110   31.6280 C   0  0  0  0  0  0  0  0  0  0  0  0
   36.5050   25.1160   32.0960 C   0  0  0  0  0  0  0  0  0  0  0  0
   37.3010   25.0840   33.1940 N   0  0  0  0  0  0  0  0  0  0  0  0
   37.4060   28.4130   33.8430 H   0  0  0  0  0  0  0  0  0  0  0  0
   35.9420   28.4750   31.8240 H   0  0  0  0  0  0  0  0  0  0  0  0
   35.4020   26.3490   30.7540 H   0  0  0  0  0  0  0  0  0  0  0  0
   38.4590   26.2980   34.9820 C   0  0  0  0  0  0  0  0  0  0  0  0
   38.8790   27.3900   35.4180 O   0  0  0  0  0  0  0  0  0  0  0  0
   38.0510   24.6460   36.7530 C   0  0  0  0  0  0  0  0  0  0  0  0
   38.8610   25.1090   35.7060 C   0  0  0  0  0  0  0  0  0  0  0  0
   40.0140   24.3890   35.4250 C   0  0  0  0  0  0  0  0  0  0  0  0
   40.3320   23.2800   36.1450 N   0  0  0  0  0  0  0  0  0  0  0  0
   39.5110   22.8650   37.1570 C   0  0  0  0  0  0  0  0  0  0  0  0
   38.4030   23.5330   37.4480 N   0  0  0  0  0  0  0  0  0  0  0  0
   37.1490   25.1920   36.9890 H   0  0  0  0  0  0  0  0  0  0  0  0
   40.6570   24.7370   34.6120 H   0  0  0  0  0  0  0  0  0  0  0  0
   39.8910   21.9720   37.6400 H   0  0  0  0  0  0  0  0  0  0  0  0
   36.1120   23.5550   31.3170 S   0  0  0  0  0  0  0  0  0  0  0  0
   37.1070   22.1920   31.9830 C   0  0  0  0  0  3  0  0  0  0  0  0
   36.2520   21.4620   33.0150 C   0  0  0  0  0  3  0  0  0  0  0  0
   36.0580   22.0570   33.9060 H   0  0  0  0  0  0  0  0  0  0  0  0
   35.0000   21.0350   32.2670 C   0  0  0  0  0  3  0  0  0  0  0  0
   34.6450   21.8610   31.6090 H   0  0  0  0  0  0  0  0  0  0  0  0
   35.3070   19.9780   31.4220 O   0  0  0  0  0  0  0  0  0  0  0  0
   36.6300   19.8820   31.0900 C   0  0  0  0  0  3  0  0  0  0  0  0
   36.6510   19.3800   30.0760 H   0  0  0  0  0  0  0  0  0  0  0  0
   37.3310   21.2000   30.8680 C   0  0  0  0  0  3  0  0  0  0  0  0
   38.4280   20.9760   30.8560 H   0  0  0  0  0  0  0  0  0  0  0  0
  1 10  1  0  0  0  0
  2  1  1  0  0  0  0
  2  7  1  0  0  0  0
  3  2  2  0  0  0  0
  4  5  2  0  0  0  0
  4  3  1  0  0  0  0
  5  6  1  0  0  0  0
  6  1  2  0  0  0  0
  8  3  1  0  0  0  0
  9  4  1  0  0  0  0
 10 11  2  0  0  0  0
 10 13  1  0  0  0  0
 12 18  1  0  0  0  0
 12 17  1  0  0  0  0
 13 12  2  0  0  0  0
 14 13  1  0  0  0  0
 14 15  2  0  0  0  0
 15 16  1  0  0  0  0
 16 17  2  0  0  0  0
 16 20  1  0  0  0  0
 19 14  1  0  0  0  0
 21 22  1  0  0  0  0
 21  5  1  0  0  0  0
 22 23  1  0  0  0  0
 23 24  1  0  0  0  0
 25 23  1  0  0  0  0
 26 25  1  0  0  0  0
 27 25  1  0  0  0  0
 28 27  1  0  0  0  0
 29 28  1  0  0  0  0
 30 28  1  0  0  0  0
 30 22  1  0  0  0  0
 31 30  1  0  0  0  0
M  END
>  <minimizedAffinity>
-4.98137665

$$$$

 OpenBabel03262522123D

 31 33  0  0  0  0  0  0  0  0999 V2000
   37.8950   23.4360   33.2160 C   0  0  0  0  0  0  0  0  0  0  0  0
   37.2590   22.2190   32.9460 C   0  0  0  0  0  0  0  0  0  0  0  0
   36.1500   22.1900   32.1270 C   0  0  0  0  0  0  0  0  0  0  0  0
   35.7320   23.4220   31.6140 C   0  0  0  0  0  0  0  0  0  0  0  0
   36.3640   24.6020   31.8870 C   0  0  0  0  0  0  0  0  0  0  0  0
   37.4550   24.6150   32.6930 N   0  0  0  0  0  0  0  0  0  0  0  0
   37.6250   21.2940   33.3710 H   0  0  0  0  0  0  0  0  0  0  0  0
   35.6200   21.2670   31.8880 H   0  0  0  0  0  0  0  0  0  0  0  0
   34.8620   23.3990   30.9720 H   0  0  0  0  0  0  0  0  0  0  0  0
   39.0510   23.3770   34.0840 C   0  0  0  0  0  0  0  0  0  0  0  0
   40.2000   23.3330   33.5970 O   0  0  0  0  0  0  0  0  0  0  0  0
   37.9040   24.0620   36.1440 C   0  0  0  0  0  0  0  0  0  0  0  0
   38.9540   23.3640   35.5300 C   0  0  0  0  0  0  0  0  0  0  0  0
   39.8460   22.6950   36.3560 C   0  0  0  0  0  0  0  0  0  0  0  0
   39.6950   22.7250   37.7070 N   0  0  0  0  0  0  0  0  0  0  0  0
   38.6560   23.4190   38.2630 C   0  0  0  0  0  0  0  0  0  0  0  0
   37.7880   24.0670   37.4980 N   0  0  0  0  0  0  0  0  0  0  0  0
   37.1980   24.5900   35.5190 H   0  0  0  0  0  0  0  0  0  0  0  0
   40.6690   22.1470   35.8930 H   0  0  0  0  0  0  0  0  0  0  0  0
   38.6630   23.3540   39.3440 H   0  0  0  0  0  0  0  0  0  0  0  0
   35.8150   26.1670   31.2190 S   0  0  0  0  0  0  0  0  0  0  0  0
   36.4860   27.5750   32.1440 C   0  0  0  0  0  3  0  0  0  0  0  0
   37.6660   28.1260   31.3490 C   0  0  0  0  0  3  0  0  0  0  0  0
   38.5170   27.4460   31.3240 H   0  0  0  0  0  0  0  0  0  0  0  0
   37.1020   28.4690   29.9800 C   0  0  0  0  0  3  0  0  0  0  0  0
   36.4170   27.6620   29.6350 H   0  0  0  0  0  0  0  0  0  0  0  0
   36.3260   29.6150   30.0770 O   0  0  0  0  0  0  0  0  0  0  0  0
   35.8590   29.8810   31.3350 C   0  0  0  0  0  3  0  0  0  0  0  0
   34.8980   30.4590   31.1840 H   0  0  0  0  0  0  0  0  0  0  0  0
   35.4450   28.6690   32.1330 C   0  0  0  0  0  3  0  0  0  0  0  0
   35.3320   29.0120   33.1920 H   0  0  0  0  0  0  0  0  0  0  0  0
  1 10  1  0  0  0  0
  2  1  1  0  0  0  0
  2  7  1  0  0  0  0
  3  2  2  0  0  0  0
  4  5  2  0  0  0  0
  4  3  1  0  0  0  0
  5  6  1  0  0  0  0
  6  1  2  0  0  0  0
  8  3  1  0  0  0  0
  9  4  1  0  0  0  0
 10 13  1  0  0  0  0
 11 10  2  0  0  0  0
 12 17  1  0  0  0  0
 13 12  2  0  0  0  0
 13 14  1  0  0  0  0
 14 15  2  0  0  0  0
 15 16  1  0  0  0  0
 16 20  1  0  0  0  0
 17 16  2  0  0  0  0
 18 12  1  0  0  0  0
 19 14  1  0  0  0  0
 21  5  1  0  0  0  0
 21 22  1  0  0  0  0
 23 22  1  0  0  0  0
 24 23  1  0  0  0  0
 25 27  1  0  0  0  0
 25 23  1  0  0  0  0
 26 25  1  0  0  0  0
 27 28  1  0  0  0  0
 28 30  1  0  0  0  0
 29 28  1  0  0  0  0
 30 22  1  0  0  0  0
 30 31  1  0  0  0  0
M  END
>  <minimizedAffinity>
-4.9790349

$$$$

 OpenBabel03262522123D

 31 33  0  0  0  0  0  0  0  0999 V2000
   38.2870   24.9680   35.1280 C   0  0  0  0  0  0  0  0  0  0  0  0
   38.2730   24.6560   36.4930 C   0  0  0  0  0  0  0  0  0  0  0  0
   38.0220   23.3630   36.9000 C   0  0  0  0  0  0  0  0  0  0  0  0
   37.7910   22.4320   35.8830 C   0  0  0  0  0  0  0  0  0  0  0  0
   37.8080   22.7510   34.5550 C   0  0  0  0  0  0  0  0  0  0  0  0
   38.0580   24.0280   34.1690 N   0  0  0  0  0  0  0  0  0  0  0  0
   38.4580   25.4180   37.2390 H   0  0  0  0  0  0  0  0  0  0  0  0
   38.0000   23.0720   37.9510 H   0  0  0  0  0  0  0  0  0  0  0  0
   37.5940   21.4180   36.2030 H   0  0  0  0  0  0  0  0  0  0  0  0
   38.5590   26.3470   34.7870 C   0  0  0  0  0  0  0  0  0  0  0  0
   37.8160   27.2560   35.2100 O   0  0  0  0  0  0  0  0  0  0  0  0
   40.9530   26.8370   34.5350 C   0  0  0  0  0  0  0  0  0  0  0  0
   39.6770   26.7500   33.9580 C   0  0  0  0  0  0  0  0  0  0  0  0
   39.5640   27.0600   32.6100 C   0  0  0  0  0  0  0  0  0  0  0  0
   40.6560   27.4320   31.8900 N   0  0  0  0  0  0  0  0  0  0  0  0
   41.8800   27.5030   32.4950 C   0  0  0  0  0  0  0  0  0  0  0  0
   42.0190   27.2120   33.7800 N   0  0  0  0  0  0  0  0  0  0  0  0
   41.0630   26.6000   35.5830 H   0  0  0  0  0  0  0  0  0  0  0  0
   38.5770   26.9980   32.1450 H   0  0  0  0  0  0  0  0  0  0  0  0
   42.6530   27.8110   31.8000 H   0  0  0  0  0  0  0  0  0  0  0  0
   37.5120   21.5440   33.2700 S   0  0  0  0  0  0  0  0  0  0  0  0
   35.7450   21.1970   33.0560 C   0  0  0  0  0  3  0  0  0  0  0  0
   35.4160   21.3830   31.5770 C   0  0  0  0  0  3  0  0  0  0  0  0
   35.4830   22.4210   31.2530 H   0  0  0  0  0  0  0  0  0  0  0  0
   36.3480   20.4380   30.8380 C   0  0  0  0  0  3  0  0  0  0  0  0
   37.3700   20.4840   31.2790 H   0  0  0  0  0  0  0  0  0  0  0  0
   35.9140   19.1320   31.0150 O   0  0  0  0  0  0  0  0  0  0  0  0
   35.1250   18.9390   32.1160 C   0  0  0  0  0  3  0  0  0  0  0  0
   35.2840   17.8600   32.4160 H   0  0  0  0  0  0  0  0  0  0  0  0
   35.5280   19.7300   33.3380 C   0  0  0  0  0  3  0  0  0  0  0  0
   34.6690   19.6660   34.0520 H   0  0  0  0  0  0  0  0  0  0  0  0
  1  2  1  0  0  0  0
  2  3  2  0  0  0  0
  2  7  1  0  0  0  0
  3  8  1  0  0  0  0
  4  9  1  0  0  0  0
  4  3  1  0  0  0  0
  5  4  2  0  0  0  0
  6  5  1  0  0  0  0
  6  1  2  0  0  0  0
 10  1  1  0  0  0  0
 10 11  2  0  0  0  0
 12 18  1  0  0  0  0
 13 12  1  0  0  0  0
 13 10  1  0  0  0  0
 14 13  2  0  0  0  0
 15 16  2  0  0  0  0
 15 14  1  0  0  0  0
 16 17  1  0  0  0  0
 17 12  2  0  0  0  0
 19 14  1  0  0  0  0
 20 16  1  0  0  0  0
 21  5  1  0  0  0  0
 22 21  1  0  0  0  0
 22 30  1  0  0  0  0
 23 22  1  0  0  0  0
 24 23  1  0  0  0  0
 25 27  1  0  0  0  0
 25 26  1  0  0  0  0
 25 23  1  0  0  0  0
 27 28  1  0  0  0  0
 28 29  1  0  0  0  0
 28 30  1  0  0  0  0
 30 31  1  0  0  0  0
M  END
>  <minimizedAffinity>
-4.91171551

$$$$
