
 OpenBabel03262523343D

 41 45  0  0  1  0  0  0  0  0999 V2000
   36.7860   28.5860   31.2880 C   0  0  0  0  0  0  0  0  0  0  0  0
   35.9840   29.3650   32.0990 C   0  0  0  0  0  0  0  0  0  0  0  0
   35.9650   29.1120   33.4720 C   0  0  0  0  0  0  0  0  0  0  0  0
   36.7520   28.0910   33.9650 N   0  0  0  0  0  0  0  0  0  0  0  0
   37.5190   27.3620   33.1190 C   0  0  0  0  0  0  0  0  0  0  0  0
   37.5450   27.5910   31.8130 N   0  0  0  0  0  0  0  0  0  0  0  0
   36.7730   28.8120   30.2260 H   0  0  0  0  0  0  0  0  0  0  0  0
   35.3720   30.1610   31.7040 H   0  0  0  0  0  0  0  0  0  0  0  0
   33.7890   29.5990   34.4100 C   0  0  0  0  0  0  0  0  0  0  0  0
   35.1640   29.8650   34.4110 C   0  0  0  0  0  0  0  0  0  0  0  0
   35.6590   30.8000   35.2790 C   0  0  0  0  0  0  0  0  0  0  0  0
   34.8050   31.4570   36.1300 C   0  0  0  0  0  0  0  0  0  0  0  0
   35.0900   32.4060   37.0550 N   0  0  0  0  0  0  0  0  0  0  0  0
   33.9210   32.7410   37.6340 C   0  0  0  0  0  0  0  0  0  0  0  0
   32.9220   32.0380   37.1070 N   0  0  0  0  0  0  0  0  0  0  0  0
   33.4460   31.2260   36.1620 C   0  0  0  0  0  0  0  0  0  0  0  0
   32.9450   30.2840   35.2870 C   0  0  0  0  0  0  0  0  0  0  0  0
   33.2960   28.8830   33.7680 H   0  0  0  0  0  0  0  0  0  0  0  0
   36.6990   31.0110   35.2910 H   0  0  0  0  0  0  0  0  0  0  0  0
   36.0020   32.8530   37.3350 H   0  0  0  0  0  0  0  0  0  0  0  0
   33.7200   33.4580   38.4170 H   0  0  0  0  0  0  0  0  0  0  0  0
   31.8790   30.0940   35.3050 H   0  0  0  0  0  0  0  0  0  0  0  0
   38.3410   26.3050   33.6920 C   0  0  0  0  0  0  0  0  0  0  0  0
   39.4430   26.5310   34.2440 O   0  0  0  0  0  0  0  0  0  0  0  0
   37.8680   24.8810   33.6260 C   0  0  1  0  0  0  0  0  0  0  0  0
   38.9670   23.8270   33.3970 C   0  0  0  0  0  0  0  0  0  0  0  0
   38.1910   23.9150   34.6490 C   0  0  1  0  0  0  0  0  0  0  0  0
   37.0450   24.7240   32.9190 H   0  0  0  0  0  0  0  0  0  0  0  0
   38.7900   23.0300   32.6650 H   0  0  0  0  0  0  0  0  0  0  0  0
   40.0060   24.2270   33.3460 H   0  0  0  0  0  0  0  0  0  0  0  0
   37.4460   23.0600   34.7550 H   0  0  0  0  0  0  0  0  0  0  0  0
   38.9900   24.1340   35.8750 C   0  0  0  0  0  3  0  0  0  0  0  0
   39.5170   22.7860   36.3350 C   0  0  0  0  0  3  0  0  0  0  0  0
   40.4570   22.6040   35.7360 H   0  0  0  0  0  0  0  0  0  0  0  0
   39.9820   22.8130   37.7730 C   0  0  0  0  0  3  0  0  0  0  0  0
   40.2220   21.7760   38.0620 H   0  0  0  0  0  0  0  0  0  0  0  0
   39.0340   23.2790   38.6460 O   0  0  0  0  0  0  0  0  0  0  0  0
   37.8410   23.4530   37.9740 C   0  0  0  0  0  3  0  0  0  0  0  0
   37.0300   23.7470   38.6730 H   0  0  0  0  0  0  0  0  0  0  0  0
   38.0460   24.5950   36.9690 C   0  0  0  0  0  3  0  0  0  0  0  0
   37.0270   24.8080   36.5850 H   0  0  0  0  0  0  0  0  0  0  0  0
  1  6  2  0  0  0  0
  1  2  1  0  0  0  0
  2  3  2  0  0  0  0
  3  4  1  0  0  0  0
  3 10  1  0  0  0  0
  5 23  1  0  0  0  0
  5  4  2  0  0  0  0
  6  5  1  0  0  0  0
  7  1  1  0  0  0  0
  8  2  1  0  0  0  0
  9 10  2  0  0  0  0
  9 17  1  0  0  0  0
 10 11  1  0  0  0  0
 11 19  1  0  0  0  0
 11 12  2  0  0  0  0
 12 16  1  0  0  0  0
 12 13  1  0  0  0  0
 13 20  1  0  0  0  0
 13 14  1  0  0  0  0
 14 21  1  0  0  0  0
 15 14  2  0  0  0  0
 16 15  1  0  0  0  0
 17 22  1  0  0  0  0
 17 16  2  0  0  0  0
 18  9  1  0  0  0  0
 23 24  2  0  0  0  0
 25 28  1  6  0  0  0
 25 23  1  0  0  0  0
 25 27  1  0  0  0  0
 26 25  1  0  0  0  0
 26 27  1  0  0  0  0
 27 31  1  1  0  0  0
 27 32  1  0  0  0  0
 29 26  1  0  0  0  0
 30 26  1  0  0  0  0
 32 33  1  0  0  0  0
 32 40  1  0  0  0  0
 33 35  1  0  0  0  0
 34 33  1  0  0  0  0
 35 36  1  0  0  0  0
 35 37  1  0  0  0  0
 38 37  1  0  0  0  0
 38 39  1  0  0  0  0
 40 38  1  0  0  0  0
 41 40  1  0  0  0  0
M  END
>  <minimizedAffinity>
-6.36696196

$$$$

 OpenBabel03262523343D

 41 45  0  0  1  0  0  0  0  0999 V2000
   36.4770   28.7780   31.1060 C   0  0  0  0  0  0  0  0  0  0  0  0
   35.7530   29.5790   31.9660 C   0  0  0  0  0  0  0  0  0  0  0  0
   35.6810   29.2280   33.3160 C   0  0  0  0  0  0  0  0  0  0  0  0
   36.3390   28.0910   33.7360 N   0  0  0  0  0  0  0  0  0  0  0  0
   37.0340   27.3440   32.8440 C   0  0  0  0  0  0  0  0  0  0  0  0
   37.1100   27.6670   31.5600 N   0  0  0  0  0  0  0  0  0  0  0  0
   36.5090   29.0830   30.0640 H   0  0  0  0  0  0  0  0  0  0  0  0
   35.2420   30.4680   31.6270 H   0  0  0  0  0  0  0  0  0  0  0  0
   33.5610   29.8380   34.3080 C   0  0  0  0  0  0  0  0  0  0  0  0
   34.9530   29.9950   34.3010 C   0  0  0  0  0  0  0  0  0  0  0  0
   35.5300   30.8440   35.2070 C   0  0  0  0  0  0  0  0  0  0  0  0
   34.7400   31.5240   36.1010 C   0  0  0  0  0  0  0  0  0  0  0  0
   35.1100   32.4010   37.0660 N   0  0  0  0  0  0  0  0  0  0  0  0
   33.9780   32.7970   37.6780 C   0  0  0  0  0  0  0  0  0  0  0  0
   32.9210   32.2020   37.1330 N   0  0  0  0  0  0  0  0  0  0  0  0
   33.3680   31.3990   36.1420 C   0  0  0  0  0  0  0  0  0  0  0  0
   32.7840   30.5440   35.2300 C   0  0  0  0  0  0  0  0  0  0  0  0
   33.0050   29.1950   33.6410 H   0  0  0  0  0  0  0  0  0  0  0  0
   36.5830   30.9710   35.2120 H   0  0  0  0  0  0  0  0  0  0  0  0
   36.0580   32.7600   37.3540 H   0  0  0  0  0  0  0  0  0  0  0  0
   33.8430   33.4890   38.4980 H   0  0  0  0  0  0  0  0  0  0  0  0
   31.7060   30.4380   35.2550 H   0  0  0  0  0  0  0  0  0  0  0  0
   37.7220   26.1620   33.3430 C   0  0  0  0  0  0  0  0  0  0  0  0
   37.2690   25.0030   33.1940 O   0  0  0  0  0  0  0  0  0  0  0  0
   39.0260   26.3160   34.0710 C   0  0  1  0  0  0  0  0  0  0  0  0
   38.9420   27.0090   35.4440 C   0  0  0  0  0  0  0  0  0  0  0  0
   39.3200   25.5920   35.2850 C   0  0  1  0  0  0  0  0  0  0  0  0
   39.8160   26.7780   33.4660 H   0  0  0  0  0  0  0  0  0  0  0  0
   39.6830   27.7780   35.6940 H   0  0  0  0  0  0  0  0  0  0  0  0
   37.9150   27.2870   35.7740 H   0  0  0  0  0  0  0  0  0  0  0  0
   40.4280   25.4160   35.4840 H   0  0  0  0  0  0  0  0  0  0  0  0
   38.4510   24.6220   35.9880 C   0  0  0  0  0  3  0  0  0  0  0  0
   38.2820   25.1000   37.4200 C   0  0  0  0  0  3  0  0  0  0  0  0
   37.4440   25.8570   37.3940 H   0  0  0  0  0  0  0  0  0  0  0  0
   37.7790   24.0060   38.3340 C   0  0  0  0  0  3  0  0  0  0  0  0
   37.8110   24.3970   39.3650 H   0  0  0  0  0  0  0  0  0  0  0  0
   38.5410   22.8680   38.2960 O   0  0  0  0  0  0  0  0  0  0  0  0
   39.6690   23.0980   37.5340 C   0  0  0  0  0  3  0  0  0  0  0  0
   40.3490   22.2220   37.5550 H   0  0  0  0  0  0  0  0  0  0  0  0
   39.2030   23.3100   36.0860 C   0  0  0  0  0  3  0  0  0  0  0  0
   40.1430   23.3160   35.4950 H   0  0  0  0  0  0  0  0  0  0  0  0
  1  6  2  0  0  0  0
  1  2  1  0  0  0  0
  2  3  2  0  0  0  0
  3  4  1  0  0  0  0
  3 10  1  0  0  0  0
  5 23  1  0  0  0  0
  5  4  2  0  0  0  0
  6  5  1  0  0  0  0
  7  1  1  0  0  0  0
  8  2  1  0  0  0  0
  9 17  1  0  0  0  0
 10  9  2  0  0  0  0
 10 11  1  0  0  0  0
 11 19  1  0  0  0  0
 11 12  2  0  0  0  0
 12 16  1  0  0  0  0
 12 13  1  0  0  0  0
 13 20  1  0  0  0  0
 13 14  1  0  0  0  0
 14 21  1  0  0  0  0
 15 14  2  0  0  0  0
 16 15  1  0  0  0  0
 17 22  1  0  0  0  0
 17 16  2  0  0  0  0
 18  9  1  0  0  0  0
 23 25  1  0  0  0  0
 24 23  2  0  0  0  0
 25 28  1  6  0  0  0
 25 27  1  0  0  0  0
 25 26  1  0  0  0  0
 26 29  1  0  0  0  0
 26 30  1  0  0  0  0
 27 26  1  0  0  0  0
 27 31  1  1  0  0  0
 27 32  1  0  0  0  0
 32 40  1  0  0  0  0
 32 33  1  0  0  0  0
 33 35  1  0  0  0  0
 34 33  1  0  0  0  0
 35 36  1  0  0  0  0
 37 35  1  0  0  0  0
 38 39  1  0  0  0  0
 38 37  1  0  0  0  0
 40 38  1  0  0  0  0
 41 40  1  0  0  0  0
M  END
>  <minimizedAffinity>
-6.35546684

$$$$

 OpenBabel03262523343D

 41 45  0  0  1  0  0  0  0  0999 V2000
   35.2950   25.9650   30.8020 C   0  0  0  0  0  0  0  0  0  0  0  0
   35.3740   24.5870   30.8290 C   0  0  0  0  0  0  0  0  0  0  0  0
   36.1530   23.9750   31.8130 C   0  0  0  0  0  0  0  0  0  0  0  0
   36.8160   24.7760   32.7210 N   0  0  0  0  0  0  0  0  0  0  0  0
   36.7000   26.1240   32.6430 C   0  0  0  0  0  0  0  0  0  0  0  0
   35.9630   26.7170   31.7130 N   0  0  0  0  0  0  0  0  0  0  0  0
   34.6800   26.4050   30.0220 H   0  0  0  0  0  0  0  0  0  0  0  0
   34.8510   23.9690   30.1150 H   0  0  0  0  0  0  0  0  0  0  0  0
   37.6000   22.0720   32.1840 C   0  0  0  0  0  0  0  0  0  0  0  0
   36.3040   22.5430   31.9350 C   0  0  0  0  0  0  0  0  0  0  0  0
   35.2800   21.6410   31.8240 C   0  0  0  0  0  0  0  0  0  0  0  0
   35.5380   20.2990   31.9580 C   0  0  0  0  0  0  0  0  0  0  0  0
   34.6750   19.2570   31.8830 N   0  0  0  0  0  0  0  0  0  0  0  0
   35.4030   18.1420   32.0800 C   0  0  0  0  0  0  0  0  0  0  0  0
   36.6830   18.4490   32.2750 N   0  0  0  0  0  0  0  0  0  0  0  0
   36.7970   19.7940   32.2030 C   0  0  0  0  0  0  0  0  0  0  0  0
   37.8310   20.7000   32.3150 C   0  0  0  0  0  0  0  0  0  0  0  0
   38.4770   22.6950   32.2900 H   0  0  0  0  0  0  0  0  0  0  0  0
   34.2940   21.9850   31.6360 H   0  0  0  0  0  0  0  0  0  0  0  0
   33.6360   19.2240   31.7110 H   0  0  0  0  0  0  0  0  0  0  0  0
   35.0900   17.1070   32.0980 H   0  0  0  0  0  0  0  0  0  0  0  0
   38.8240   20.3130   32.5090 H   0  0  0  0  0  0  0  0  0  0  0  0
   37.4090   26.9220   33.6330 C   0  0  0  0  0  0  0  0  0  0  0  0
   36.8560   27.8370   34.2850 O   0  0  0  0  0  0  0  0  0  0  0  0
   38.8640   26.6540   33.8960 C   0  0  1  0  0  0  0  0  0  0  0  0
   39.3470   26.9590   35.3250 C   0  0  0  0  0  0  0  0  0  0  0  0
   39.3060   25.5930   34.7690 C   0  0  1  0  0  0  0  0  0  0  0  0
   39.5350   27.1220   33.1650 H   0  0  0  0  0  0  0  0  0  0  0  0
   40.2930   27.4970   35.4600 H   0  0  0  0  0  0  0  0  0  0  0  0
   38.5580   27.3070   36.0300 H   0  0  0  0  0  0  0  0  0  0  0  0
   40.3460   25.1880   34.5450 H   0  0  0  0  0  0  0  0  0  0  0  0
   38.4640   24.6310   35.5150 C   0  0  0  0  0  3  0  0  0  0  0  0
   38.3210   25.1420   36.9380 C   0  0  0  0  0  3  0  0  0  0  0  0
   37.4730   25.8880   36.9120 H   0  0  0  0  0  0  0  0  0  0  0  0
   37.8520   24.0650   37.8890 C   0  0  0  0  0  3  0  0  0  0  0  0
   37.9020   24.4810   38.9090 H   0  0  0  0  0  0  0  0  0  0  0  0
   38.6270   22.9350   37.8620 O   0  0  0  0  0  0  0  0  0  0  0  0
   39.7350   23.1600   37.0690 C   0  0  0  0  0  3  0  0  0  0  0  0
   40.4270   22.2930   37.0970 H   0  0  0  0  0  0  0  0  0  0  0  0
   39.2350   23.3300   35.6270 C   0  0  0  0  0  3  0  0  0  0  0  0
   40.1610   23.3330   35.0160 H   0  0  0  0  0  0  0  0  0  0  0  0
  1  2  2  0  0  0  0
  1  6  1  0  0  0  0
  2  3  1  0  0  0  0
  3 10  1  0  0  0  0
  3  4  2  0  0  0  0
  5  4  1  0  0  0  0
  5 23  1  0  0  0  0
  6  5  2  0  0  0  0
  7  1  1  0  0  0  0
  8  2  1  0  0  0  0
  9 18  1  0  0  0  0
  9 17  1  0  0  0  0
 10  9  2  0  0  0  0
 11 10  1  0  0  0  0
 11 12  2  0  0  0  0
 12 16  1  0  0  0  0
 13 12  1  0  0  0  0
 13 14  1  0  0  0  0
 14 21  1  0  0  0  0
 14 15  2  0  0  0  0
 16 15  1  0  0  0  0
 16 17  2  0  0  0  0
 17 22  1  0  0  0  0
 19 11  1  0  0  0  0
 20 13  1  0  0  0  0
 23 25  1  0  0  0  0
 23 24  2  0  0  0  0
 25 28  1  6  0  0  0
 25 27  1  0  0  0  0
 25 26  1  0  0  0  0
 26 29  1  0  0  0  0
 26 30  1  0  0  0  0
 27 31  1  6  0  0  0
 27 26  1  0  0  0  0
 27 32  1  0  0  0  0
 32 40  1  0  0  0  0
 32 33  1  0  0  0  0
 33 35  1  0  0  0  0
 34 33  1  0  0  0  0
 35 36  1  0  0  0  0
 37 35  1  0  0  0  0
 38 39  1  0  0  0  0
 38 37  1  0  0  0  0
 40 38  1  0  0  0  0
 41 40  1  0  0  0  0
M  END
>  <minimizedAffinity>
-6.35172129

$$$$

 OpenBabel03262523343D

 41 45  0  0  1  0  0  0  0  0999 V2000
   36.8610   29.1360   31.2250 C   0  0  0  0  0  0  0  0  0  0  0  0
   36.1100   29.8820   32.1110 C   0  0  0  0  0  0  0  0  0  0  0  0
   35.9100   29.3940   33.4050 C   0  0  0  0  0  0  0  0  0  0  0  0
   36.4730   28.1810   33.7440 N   0  0  0  0  0  0  0  0  0  0  0  0
   37.2010   27.4940   32.8310 C   0  0  0  0  0  0  0  0  0  0  0  0
   37.3980   27.9470   31.6000 N   0  0  0  0  0  0  0  0  0  0  0  0
   36.9950   29.5480   30.2290 H   0  0  0  0  0  0  0  0  0  0  0  0
   35.6740   30.8300   31.8360 H   0  0  0  0  0  0  0  0  0  0  0  0
   35.8660   30.9110   35.2880 C   0  0  0  0  0  0  0  0  0  0  0  0
   35.1430   30.0920   34.4110 C   0  0  0  0  0  0  0  0  0  0  0  0
   33.7850   30.0030   34.5540 C   0  0  0  0  0  0  0  0  0  0  0  0
   33.1570   30.7130   35.5470 C   0  0  0  0  0  0  0  0  0  0  0  0
   31.8380   30.7620   35.8530 N   0  0  0  0  0  0  0  0  0  0  0  0
   31.7190   31.5940   36.9050 C   0  0  0  0  0  0  0  0  0  0  0  0
   32.9100   32.0650   37.2640 N   0  0  0  0  0  0  0  0  0  0  0  0
   33.8300   31.5290   36.4320 C   0  0  0  0  0  0  0  0  0  0  0  0
   35.2000   31.6200   36.2900 C   0  0  0  0  0  0  0  0  0  0  0  0
   36.9370   31.0530   35.2640 H   0  0  0  0  0  0  0  0  0  0  0  0
   33.2250   29.3880   33.8950 H   0  0  0  0  0  0  0  0  0  0  0  0
   31.0040   30.2850   35.4190 H   0  0  0  0  0  0  0  0  0  0  0  0
   30.8340   31.9000   37.4470 H   0  0  0  0  0  0  0  0  0  0  0  0
   35.7380   32.2600   36.9790 H   0  0  0  0  0  0  0  0  0  0  0  0
   37.7840   26.2260   33.2460 C   0  0  0  0  0  0  0  0  0  0  0  0
   37.1860   25.1330   33.1180 O   0  0  0  0  0  0  0  0  0  0  0  0
   39.1560   26.2080   33.8570 C   0  0  1  0  0  0  0  0  0  0  0  0
   39.2610   26.8150   35.2690 C   0  0  0  0  0  0  0  0  0  0  0  0
   39.4790   25.3810   34.9960 C   0  0  1  0  0  0  0  0  0  0  0  0
   39.9320   26.6310   33.2080 H   0  0  0  0  0  0  0  0  0  0  0  0
   40.0950   27.4910   35.4920 H   0  0  0  0  0  0  0  0  0  0  0  0
   38.3000   27.1670   35.7080 H   0  0  0  0  0  0  0  0  0  0  0  0
   40.5770   25.0880   35.0810 H   0  0  0  0  0  0  0  0  0  0  0  0
   38.5820   24.4550   35.7210 C   0  0  0  0  0  3  0  0  0  0  0  0
   38.2850   25.0620   37.0810 C   0  0  0  0  0  3  0  0  0  0  0  0
   37.4320   25.7840   36.9150 H   0  0  0  0  0  0  0  0  0  0  0  0
   37.7370   24.0440   38.0550 C   0  0  0  0  0  3  0  0  0  0  0  0
   37.6760   24.5330   39.0420 H   0  0  0  0  0  0  0  0  0  0  0  0
   38.5290   22.9340   38.1900 O   0  0  0  0  0  0  0  0  0  0  0  0
   39.7090   23.1280   37.4990 C   0  0  0  0  0  3  0  0  0  0  0  0
   40.4080   22.2820   37.6600 H   0  0  0  0  0  0  0  0  0  0  0  0
   39.3580   23.1840   36.0050 C   0  0  0  0  0  3  0  0  0  0  0  0
   40.3410   23.1650   35.4920 H   0  0  0  0  0  0  0  0  0  0  0  0
  1  6  2  0  0  0  0
  1  2  1  0  0  0  0
  2  3  2  0  0  0  0
  3  4  1  0  0  0  0
  3 10  1  0  0  0  0
  5 23  1  0  0  0  0
  5  4  2  0  0  0  0
  6  5  1  0  0  0  0
  7  1  1  0  0  0  0
  8  2  1  0  0  0  0
  9 17  1  0  0  0  0
 10 11  1  0  0  0  0
 10  9  2  0  0  0  0
 11 12  2  0  0  0  0
 12 13  1  0  0  0  0
 12 16  1  0  0  0  0
 13 14  1  0  0  0  0
 14 15  2  0  0  0  0
 14 21  1  0  0  0  0
 16 15  1  0  0  0  0
 17 16  2  0  0  0  0
 17 22  1  0  0  0  0
 18  9  1  0  0  0  0
 19 11  1  0  0  0  0
 20 13  1  0  0  0  0
 23 25  1  0  0  0  0
 24 23  2  0  0  0  0
 25 28  1  6  0  0  0
 25 27  1  0  0  0  0
 25 26  1  0  0  0  0
 26 29  1  0  0  0  0
 26 30  1  0  0  0  0
 27 31  1  1  0  0  0
 27 26  1  0  0  0  0
 27 32  1  0  0  0  0
 32 40  1  0  0  0  0
 32 33  1  0  0  0  0
 33 35  1  0  0  0  0
 34 33  1  0  0  0  0
 35 37  1  0  0  0  0
 35 36  1  0  0  0  0
 38 39  1  0  0  0  0
 38 37  1  0  0  0  0
 40 38  1  0  0  0  0
 41 40  1  0  0  0  0
M  END
>  <minimizedAffinity>
-6.3427577

$$$$

 OpenBabel03262523343D

 41 45  0  0  1  0  0  0  0  0999 V2000
   43.6710   26.7960   33.7290 C   0  0  0  0  0  0  0  0  0  0  0  0
   42.3780   27.2440   33.5480 C   0  0  0  0  0  0  0  0  0  0  0  0
   41.3360   26.5730   34.1930 C   0  0  0  0  0  0  0  0  0  0  0  0
   41.6430   25.4870   34.9870 N   0  0  0  0  0  0  0  0  0  0  0  0
   42.9330   25.0950   35.1260 C   0  0  0  0  0  0  0  0  0  0  0  0
   43.9310   25.7230   34.5190 N   0  0  0  0  0  0  0  0  0  0  0  0
   44.4540   27.3420   33.2110 H   0  0  0  0  0  0  0  0  0  0  0  0
   42.1470   28.0940   32.9260 H   0  0  0  0  0  0  0  0  0  0  0  0
   39.2410   27.1140   35.2740 C   0  0  0  0  0  0  0  0  0  0  0  0
   39.9470   26.9560   34.0750 C   0  0  0  0  0  0  0  0  0  0  0  0
   39.2980   27.1700   32.8890 C   0  0  0  0  0  0  0  0  0  0  0  0
   37.9730   27.5320   32.8940 C   0  0  0  0  0  0  0  0  0  0  0  0
   37.1580   27.7870   31.8420 N   0  0  0  0  0  0  0  0  0  0  0  0
   35.9540   28.1010   32.3570 C   0  0  0  0  0  0  0  0  0  0  0  0
   35.9890   28.0520   33.6860 N   0  0  0  0  0  0  0  0  0  0  0  0
   37.2410   27.6980   34.0500 C   0  0  0  0  0  0  0  0  0  0  0  0
   37.8930   27.4830   35.2470 C   0  0  0  0  0  0  0  0  0  0  0  0
   39.6550   26.9710   36.2620 H   0  0  0  0  0  0  0  0  0  0  0  0
   39.8220   27.0550   31.9740 H   0  0  0  0  0  0  0  0  0  0  0  0
   37.3360   27.7700   30.8030 H   0  0  0  0  0  0  0  0  0  0  0  0
   35.0360   28.3680   31.8520 H   0  0  0  0  0  0  0  0  0  0  0  0
   37.3270   27.6110   36.1620 H   0  0  0  0  0  0  0  0  0  0  0  0
   43.2030   23.9520   35.9860 C   0  0  0  0  0  0  0  0  0  0  0  0
   43.9670   24.0180   36.9760 O   0  0  0  0  0  0  0  0  0  0  0  0
   42.5530   22.6320   35.6880 C   0  0  1  0  0  0  0  0  0  0  0  0
   42.1020   21.8210   36.9170 C   0  0  0  0  0  0  0  0  0  0  0  0
   41.1520   22.3890   35.9410 C   0  0  1  0  0  0  0  0  0  0  0  0
   43.1400   21.9950   35.0140 H   0  0  0  0  0  0  0  0  0  0  0  0
   42.3190   20.7470   36.9510 H   0  0  0  0  0  0  0  0  0  0  0  0
   42.2670   22.3180   37.9010 H   0  0  0  0  0  0  0  0  0  0  0  0
   40.6770   21.5870   35.2860 H   0  0  0  0  0  0  0  0  0  0  0  0
   40.1610   23.3350   36.4990 C   0  0  0  0  0  3  0  0  0  0  0  0
   39.6880   22.7830   37.8320 C   0  0  0  0  0  3  0  0  0  0  0  0
   40.4570   23.1160   38.5910 H   0  0  0  0  0  0  0  0  0  0  0  0
   38.3980   23.4220   38.2920 C   0  0  0  0  0  3  0  0  0  0  0  0
   38.0620   22.8770   39.1900 H   0  0  0  0  0  0  0  0  0  0  0  0
   37.3920   23.3540   37.3630 O   0  0  0  0  0  0  0  0  0  0  0  0
   37.8010   22.5680   36.3050 C   0  0  0  0  0  3  0  0  0  0  0  0
   36.9770   22.4220   35.5760 H   0  0  0  0  0  0  0  0  0  0  0  0
   38.9420   23.3150   35.5970 C   0  0  0  0  0  3  0  0  0  0  0  0
   39.1130   22.7350   34.6670 H   0  0  0  0  0  0  0  0  0  0  0  0
  1  6  1  0  0  0  0
  2  1  2  0  0  0  0
  2  3  1  0  0  0  0
  3  4  2  0  0  0  0
  4  5  1  0  0  0  0
  5 23  1  0  0  0  0
  6  5  2  0  0  0  0
  7  1  1  0  0  0  0
  8  2  1  0  0  0  0
  9 18  1  0  0  0  0
 10  3  1  0  0  0  0
 10  9  2  0  0  0  0
 11 12  2  0  0  0  0
 11 10  1  0  0  0  0
 12 16  1  0  0  0  0
 13 14  1  0  0  0  0
 13 12  1  0  0  0  0
 14 15  2  0  0  0  0
 15 16  1  0  0  0  0
 16 17  2  0  0  0  0
 17  9  1  0  0  0  0
 17 22  1  0  0  0  0
 19 11  1  0  0  0  0
 20 13  1  0  0  0  0
 21 14  1  0  0  0  0
 23 24  2  0  0  0  0
 25 28  1  6  0  0  0
 25 27  1  0  0  0  0
 25 23  1  0  0  0  0
 25 26  1  0  0  0  0
 26 29  1  0  0  0  0
 26 30  1  0  0  0  0
 27 31  1  6  0  0  0
 27 32  1  0  0  0  0
 27 26  1  0  0  0  0
 32 33  1  0  0  0  0
 33 35  1  0  0  0  0
 33 34  1  0  0  0  0
 35 36  1  0  0  0  0
 37 35  1  0  0  0  0
 38 37  1  0  0  0  0
 39 38  1  0  0  0  0
 40 38  1  0  0  0  0
 40 32  1  0  0  0  0
 41 40  1  0  0  0  0
M  END
>  <minimizedAffinity>
-6.282794

$$$$

 OpenBabel03262523343D

 41 45  0  0  1  0  0  0  0  0999 V2000
   38.2810   23.7120   38.3400 C   0  0  0  0  0  0  0  0  0  0  0  0
   39.4630   23.0070   38.2390 C   0  0  0  0  0  0  0  0  0  0  0  0
   40.1220   22.9680   37.0080 C   0  0  0  0  0  0  0  0  0  0  0  0
   39.5630   23.6390   35.9400 N   0  0  0  0  0  0  0  0  0  0  0  0
   38.3990   24.3140   36.1010 C   0  0  0  0  0  0  0  0  0  0  0  0
   37.7630   24.3590   37.2650 N   0  0  0  0  0  0  0  0  0  0  0  0
   37.7970   23.7190   39.3130 H   0  0  0  0  0  0  0  0  0  0  0  0
   39.8940   22.4860   39.0800 H   0  0  0  0  0  0  0  0  0  0  0  0
   42.2990   22.8890   35.9570 C   0  0  0  0  0  0  0  0  0  0  0  0
   41.3640   22.2620   36.7900 C   0  0  0  0  0  0  0  0  0  0  0  0
   41.6740   21.0460   37.3380 C   0  0  0  0  0  0  0  0  0  0  0  0
   42.8870   20.4650   37.0630 C   0  0  0  0  0  0  0  0  0  0  0  0
   43.3800   19.2800   37.5000 N   0  0  0  0  0  0  0  0  0  0  0  0
   44.6050   19.1510   36.9570 C   0  0  0  0  0  0  0  0  0  0  0  0
   44.8940   20.2080   36.2010 N   0  0  0  0  0  0  0  0  0  0  0  0
   43.8350   21.0460   36.2490 C   0  0  0  0  0  0  0  0  0  0  0  0
   43.5260   22.2720   35.6950 C   0  0  0  0  0  0  0  0  0  0  0  0
   42.1590   23.8460   35.4750 H   0  0  0  0  0  0  0  0  0  0  0  0
   40.9740   20.5610   37.9710 H   0  0  0  0  0  0  0  0  0  0  0  0
   42.9670   18.5450   38.1330 H   0  0  0  0  0  0  0  0  0  0  0  0
   45.3250   18.3510   37.0580 H   0  0  0  0  0  0  0  0  0  0  0  0
   44.2640   22.7380   35.0550 H   0  0  0  0  0  0  0  0  0  0  0  0
   37.8590   25.0160   34.9460 C   0  0  0  0  0  0  0  0  0  0  0  0
   37.8200   24.5060   33.8020 O   0  0  0  0  0  0  0  0  0  0  0  0
   37.3270   26.4110   35.1090 C   0  0  1  0  0  0  0  0  0  0  0  0
   38.2600   27.5380   34.6300 C   0  0  0  0  0  0  0  0  0  0  0  0
   36.9700   27.2360   33.9790 C   0  0  1  0  0  0  0  0  0  0  0  0
   36.9670   26.6280   36.1230 H   0  0  0  0  0  0  0  0  0  0  0  0
   38.3910   28.4220   35.2650 H   0  0  0  0  0  0  0  0  0  0  0  0
   39.2170   27.2000   34.1720 H   0  0  0  0  0  0  0  0  0  0  0  0
   36.1830   28.0310   34.1940 H   0  0  0  0  0  0  0  0  0  0  0  0
   37.0520   26.8830   32.5450 C   0  0  0  0  0  3  0  0  0  0  0  0
   38.2510   27.6050   31.9540 C   0  0  0  0  0  3  0  0  0  0  0  0
   39.1440   26.9520   32.1830 H   0  0  0  0  0  0  0  0  0  0  0  0
   38.1980   27.6630   30.4450 C   0  0  0  0  0  3  0  0  0  0  0  0
   39.0260   28.3100   30.1110 H   0  0  0  0  0  0  0  0  0  0  0  0
   37.0320   28.1950   29.9580 O   0  0  0  0  0  0  0  0  0  0  0  0
   36.2790   28.6820   31.0090 C   0  0  0  0  0  3  0  0  0  0  0  0
   35.3680   29.1970   30.6400 H   0  0  0  0  0  0  0  0  0  0  0  0
   35.8410   27.4750   31.8510 C   0  0  0  0  0  3  0  0  0  0  0  0
   35.1060   27.8950   32.5690 H   0  0  0  0  0  0  0  0  0  0  0  0
  1  7  1  0  0  0  0
  2  1  1  0  0  0  0
  2  8  1  0  0  0  0
  3  2  2  0  0  0  0
  4  5  2  0  0  0  0
  4  3  1  0  0  0  0
  5  6  1  0  0  0  0
  6  1  2  0  0  0  0
  9 10  1  0  0  0  0
 10  3  1  0  0  0  0
 10 11  2  0  0  0  0
 11 19  1  0  0  0  0
 12 11  1  0  0  0  0
 12 13  1  0  0  0  0
 13 20  1  0  0  0  0
 14 21  1  0  0  0  0
 14 13  1  0  0  0  0
 15 16  1  0  0  0  0
 15 14  2  0  0  0  0
 16 12  2  0  0  0  0
 17  9  2  0  0  0  0
 17 16  1  0  0  0  0
 18  9  1  0  0  0  0
 22 17  1  0  0  0  0
 23 25  1  0  0  0  0
 23  5  1  0  0  0  0
 24 23  2  0  0  0  0
 25 28  1  1  0  0  0
 26 25  1  0  0  0  0
 26 29  1  0  0  0  0
 27 31  1  1  0  0  0
 27 26  1  0  0  0  0
 27 25  1  0  0  0  0
 30 26  1  0  0  0  0
 32 27  1  0  0  0  0
 33 34  1  0  0  0  0
 33 32  1  0  0  0  0
 35 33  1  0  0  0  0
 36 35  1  0  0  0  0
 37 35  1  0  0  0  0
 37 38  1  0  0  0  0
 38 40  1  0  0  0  0
 39 38  1  0  0  0  0
 40 32  1  0  0  0  0
 40 41  1  0  0  0  0
M  END
>  <minimizedAffinity>
-6.131145

$$$$

 OpenBabel03262523343D

 41 45  0  0  1  0  0  0  0  0999 V2000
   36.3510   28.6220   30.8660 C   0  0  0  0  0  0  0  0  0  0  0  0
   35.6150   29.3640   31.7680 C   0  0  0  0  0  0  0  0  0  0  0  0
   35.8140   29.1550   33.1350 C   0  0  0  0  0  0  0  0  0  0  0  0
   36.7410   28.2120   33.5290 N   0  0  0  0  0  0  0  0  0  0  0  0
   37.4330   27.5140   32.5960 C   0  0  0  0  0  0  0  0  0  0  0  0
   37.2540   27.7030   31.2950 N   0  0  0  0  0  0  0  0  0  0  0  0
   36.1690   28.8120   29.8130 H   0  0  0  0  0  0  0  0  0  0  0  0
   34.8930   30.1000   31.4500 H   0  0  0  0  0  0  0  0  0  0  0  0
   33.7400   29.5720   34.3080 C   0  0  0  0  0  0  0  0  0  0  0  0
   35.0990   29.8760   34.1640 C   0  0  0  0  0  0  0  0  0  0  0  0
   35.6600   30.8160   34.9860 C   0  0  0  0  0  0  0  0  0  0  0  0
   34.8860   31.4410   35.9320 C   0  0  0  0  0  0  0  0  0  0  0  0
   35.2440   32.3880   36.8330 N   0  0  0  0  0  0  0  0  0  0  0  0
   34.1360   32.6850   37.5390 C   0  0  0  0  0  0  0  0  0  0  0  0
   33.1050   31.9600   37.1140 N   0  0  0  0  0  0  0  0  0  0  0  0
   33.5450   31.1720   36.1070 C   0  0  0  0  0  0  0  0  0  0  0  0
   32.9770   30.2250   35.2790 C   0  0  0  0  0  0  0  0  0  0  0  0
   33.1990   28.8490   33.7140 H   0  0  0  0  0  0  0  0  0  0  0  0
   36.6890   31.0550   34.8880 H   0  0  0  0  0  0  0  0  0  0  0  0
   36.1690   32.8580   37.0190 H   0  0  0  0  0  0  0  0  0  0  0  0
   34.0020   33.3890   38.3480 H   0  0  0  0  0  0  0  0  0  0  0  0
   31.9250   30.0060   35.4100 H   0  0  0  0  0  0  0  0  0  0  0  0
   38.4090   26.5410   33.0660 C   0  0  0  0  0  0  0  0  0  0  0  0
   38.5810   25.4330   32.5080 O   0  0  0  0  0  0  0  0  0  0  0  0
   39.2500   26.8580   34.2690 C   0  0  1  0  0  0  0  0  0  0  0  0
   38.6460   26.4530   35.6270 C   0  0  0  0  0  0  0  0  0  0  0  0
   39.8620   25.8270   35.0730 C   0  0  1  0  0  0  0  0  0  0  0  0
   39.5890   27.9010   34.3060 H   0  0  0  0  0  0  0  0  0  0  0  0
   38.6930   27.1650   36.4590 H   0  0  0  0  0  0  0  0  0  0  0  0
   37.6640   25.9280   35.5730 H   0  0  0  0  0  0  0  0  0  0  0  0
   40.8030   26.1470   35.6310 H   0  0  0  0  0  0  0  0  0  0  0  0
   39.7850   24.3630   34.8720 C   0  0  0  0  0  3  0  0  0  0  0  0
   38.6310   23.8380   35.7080 C   0  0  0  0  0  3  0  0  0  0  0  0
   37.7040   23.9890   35.0790 H   0  0  0  0  0  0  0  0  0  0  0  0
   38.7090   22.3430   35.9160 C   0  0  0  0  0  3  0  0  0  0  0  0
   37.9170   22.0680   36.6340 H   0  0  0  0  0  0  0  0  0  0  0  0
   39.9060   21.9250   36.4380 O   0  0  0  0  0  0  0  0  0  0  0  0
   40.6650   23.0260   36.7780 C   0  0  0  0  0  3  0  0  0  0  0  0
   41.6050   22.7210   37.2830 H   0  0  0  0  0  0  0  0  0  0  0  0
   41.0330   23.7460   35.4720 C   0  0  0  0  0  3  0  0  0  0  0  0
   41.7760   24.5100   35.7810 H   0  0  0  0  0  0  0  0  0  0  0  0
  1  6  2  0  0  0  0
  1  2  1  0  0  0  0
  2  3  2  0  0  0  0
  3  4  1  0  0  0  0
  3 10  1  0  0  0  0
  5 23  1  0  0  0  0
  5  4  2  0  0  0  0
  6  5  1  0  0  0  0
  7  1  1  0  0  0  0
  8  2  1  0  0  0  0
  9 17  1  0  0  0  0
 10  9  2  0  0  0  0
 10 11  1  0  0  0  0
 11 12  2  0  0  0  0
 12 16  1  0  0  0  0
 12 13  1  0  0  0  0
 13 20  1  0  0  0  0
 13 14  1  0  0  0  0
 14 21  1  0  0  0  0
 15 14  2  0  0  0  0
 16 15  1  0  0  0  0
 17 22  1  0  0  0  0
 17 16  2  0  0  0  0
 18  9  1  0  0  0  0
 19 11  1  0  0  0  0
 23 25  1  0  0  0  0
 24 23  2  0  0  0  0
 25 28  1  6  0  0  0
 25 27  1  0  0  0  0
 25 26  1  0  0  0  0
 26 29  1  0  0  0  0
 27 26  1  0  0  0  0
 27 31  1  1  0  0  0
 30 26  1  0  0  0  0
 32 27  1  0  0  0  0
 32 40  1  0  0  0  0
 32 33  1  0  0  0  0
 33 35  1  0  0  0  0
 34 33  1  0  0  0  0
 35 37  1  0  0  0  0
 35 36  1  0  0  0  0
 37 38  1  0  0  0  0
 38 39  1  0  0  0  0
 40 41  1  0  0  0  0
 40 38  1  0  0  0  0
M  END
>  <minimizedAffinity>
-6.07626772

$$$$

 OpenBabel03262523343D

 41 45  0  0  1  0  0  0  0  0999 V2000
   38.4300   26.4640   35.8610 C   0  0  0  0  0  0  0  0  0  0  0  0
   37.7570   27.6050   35.4740 C   0  0  0  0  0  0  0  0  0  0  0  0
   37.0500   27.5960   34.2690 C   0  0  0  0  0  0  0  0  0  0  0  0
   37.0540   26.4420   33.5130 N   0  0  0  0  0  0  0  0  0  0  0  0
   37.7330   25.3530   33.9450 C   0  0  0  0  0  0  0  0  0  0  0  0
   38.4090   25.3490   35.0870 N   0  0  0  0  0  0  0  0  0  0  0  0
   38.9680   26.5090   36.8030 H   0  0  0  0  0  0  0  0  0  0  0  0
   37.7600   28.5030   36.0730 H   0  0  0  0  0  0  0  0  0  0  0  0
   35.7880   29.6070   34.7320 C   0  0  0  0  0  0  0  0  0  0  0  0
   36.3110   28.7330   33.7700 C   0  0  0  0  0  0  0  0  0  0  0  0
   36.0980   29.0000   32.4440 C   0  0  0  0  0  0  0  0  0  0  0  0
   35.3800   30.1130   32.0810 C   0  0  0  0  0  0  0  0  0  0  0  0
   35.0610   30.5510   30.8390 N   0  0  0  0  0  0  0  0  0  0  0  0
   34.3470   31.6810   31.0020 C   0  0  0  0  0  0  0  0  0  0  0  0
   34.2110   31.9630   32.2950 N   0  0  0  0  0  0  0  0  0  0  0  0
   34.8470   30.9970   32.9940 C   0  0  0  0  0  0  0  0  0  0  0  0
   35.0600   30.7300   34.3320 C   0  0  0  0  0  0  0  0  0  0  0  0
   35.8970   29.4910   35.8000 H   0  0  0  0  0  0  0  0  0  0  0  0
   36.4900   28.3470   31.7060 H   0  0  0  0  0  0  0  0  0  0  0  0
   35.2790   30.1580   29.8850 H   0  0  0  0  0  0  0  0  0  0  0  0
   33.9090   32.3330   30.2600 H   0  0  0  0  0  0  0  0  0  0  0  0
   34.6460   31.4200   35.0570 H   0  0  0  0  0  0  0  0  0  0  0  0
   37.6930   24.1570   33.1160 C   0  0  0  0  0  0  0  0  0  0  0  0
   38.3750   23.1370   33.3670 O   0  0  0  0  0  0  0  0  0  0  0  0
   36.8080   24.1270   31.9030 C   0  0  1  0  0  0  0  0  0  0  0  0
   37.4260   23.4890   30.6450 C   0  0  0  0  0  0  0  0  0  0  0  0
   36.2820   22.8950   31.3640 C   0  0  1  0  0  0  0  0  0  0  0  0
   36.3720   25.1020   31.6530 H   0  0  0  0  0  0  0  0  0  0  0  0
   37.2990   23.9940   29.6800 H   0  0  0  0  0  0  0  0  0  0  0  0
   38.4530   23.0770   30.7770 H   0  0  0  0  0  0  0  0  0  0  0  0
   35.3070   23.0010   30.7850 H   0  0  0  0  0  0  0  0  0  0  0  0
   36.4990   21.5230   31.8760 C   0  0  0  0  0  3  0  0  0  0  0  0
   36.4140   20.5680   30.6980 C   0  0  0  0  0  3  0  0  0  0  0  0
   37.4410   20.5720   30.2260 H   0  0  0  0  0  0  0  0  0  0  0  0
   36.2020   19.1370   31.1350 C   0  0  0  0  0  3  0  0  0  0  0  0
   36.0220   18.5380   30.2260 H   0  0  0  0  0  0  0  0  0  0  0  0
   35.1220   18.9730   31.9620 O   0  0  0  0  0  0  0  0  0  0  0  0
   34.4230   20.1610   32.0430 C   0  0  0  0  0  3  0  0  0  0  0  0
   33.4940   20.0360   32.6370 H   0  0  0  0  0  0  0  0  0  0  0  0
   35.3250   21.1700   32.7680 C   0  0  0  0  0  3  0  0  0  0  0  0
   34.6630   22.0400   32.9610 H   0  0  0  0  0  0  0  0  0  0  0  0
  1  7  1  0  0  0  0
  2  1  1  0  0  0  0
  2  8  1  0  0  0  0
  3  2  2  0  0  0  0
  4  5  2  0  0  0  0
  4  3  1  0  0  0  0
  5  6  1  0  0  0  0
  6  1  2  0  0  0  0
  9 18  1  0  0  0  0
 10  3  1  0  0  0  0
 10  9  2  0  0  0  0
 11 10  1  0  0  0  0
 12 11  2  0  0  0  0
 12 16  1  0  0  0  0
 13 14  1  0  0  0  0
 13 12  1  0  0  0  0
 14 15  2  0  0  0  0
 15 16  1  0  0  0  0
 16 17  2  0  0  0  0
 17  9  1  0  0  0  0
 17 22  1  0  0  0  0
 19 11  1  0  0  0  0
 20 13  1  0  0  0  0
 21 14  1  0  0  0  0
 23 24  2  0  0  0  0
 23  5  1  0  0  0  0
 25 28  1  6  0  0  0
 25 23  1  0  0  0  0
 26 30  1  0  0  0  0
 26 27  1  0  0  0  0
 26 25  1  0  0  0  0
 27 31  1  6  0  0  0
 27 32  1  0  0  0  0
 27 25  1  0  0  0  0
 29 26  1  0  0  0  0
 32 40  1  0  0  0  0
 33 35  1  0  0  0  0
 33 32  1  0  0  0  0
 34 33  1  0  0  0  0
 35 37  1  0  0  0  0
 36 35  1  0  0  0  0
 37 38  1  0  0  0  0
 38 39  1  0  0  0  0
 38 40  1  0  0  0  0
 40 41  1  0  0  0  0
M  END
>  <minimizedAffinity>
-6.06036854

$$$$

 OpenBabel03262523343D

 41 45  0  0  1  0  0  0  0  0999 V2000
   37.4650   27.9440   30.1890 C   0  0  0  0  0  0  0  0  0  0  0  0
   37.8020   27.1650   31.2790 C   0  0  0  0  0  0  0  0  0  0  0  0
   37.3240   27.5270   32.5400 C   0  0  0  0  0  0  0  0  0  0  0  0
   36.5320   28.6530   32.6460 N   0  0  0  0  0  0  0  0  0  0  0  0
   36.2360   29.3770   31.5400 C   0  0  0  0  0  0  0  0  0  0  0  0
   36.6840   29.0440   30.3360 N   0  0  0  0  0  0  0  0  0  0  0  0
   37.8560   27.6310   29.2250 H   0  0  0  0  0  0  0  0  0  0  0  0
   38.4210   26.2870   31.1860 H   0  0  0  0  0  0  0  0  0  0  0  0
   37.8440   27.5410   34.9020 C   0  0  0  0  0  0  0  0  0  0  0  0
   37.6130   26.7850   33.7460 C   0  0  0  0  0  0  0  0  0  0  0  0
   37.6730   25.4190   33.8220 C   0  0  0  0  0  0  0  0  0  0  0  0
   37.9560   24.8170   35.0230 C   0  0  0  0  0  0  0  0  0  0  0  0
   38.0600   23.4960   35.3080 N   0  0  0  0  0  0  0  0  0  0  0  0
   38.3520   23.4080   36.6190 C   0  0  0  0  0  0  0  0  0  0  0  0
   38.4330   24.6200   37.1610 N   0  0  0  0  0  0  0  0  0  0  0  0
   38.1900   25.5220   36.1840 C   0  0  0  0  0  0  0  0  0  0  0  0
   38.1310   26.8990   36.1100 C   0  0  0  0  0  0  0  0  0  0  0  0
   37.8210   28.6200   34.9540 H   0  0  0  0  0  0  0  0  0  0  0  0
   37.4990   24.8350   32.9540 H   0  0  0  0  0  0  0  0  0  0  0  0
   37.9520   22.6420   34.6990 H   0  0  0  0  0  0  0  0  0  0  0  0
   38.5140   22.5330   37.2330 H   0  0  0  0  0  0  0  0  0  0  0  0
   38.3120   27.4630   37.0170 H   0  0  0  0  0  0  0  0  0  0  0  0
   35.3860   30.5470   31.7060 C   0  0  0  0  0  0  0  0  0  0  0  0
   34.1850   30.5650   31.3500 O   0  0  0  0  0  0  0  0  0  0  0  0
   35.9540   31.7930   32.3220 C   0  0  1  0  0  0  0  0  0  0  0  0
   34.9180   32.8060   32.8450 C   0  0  0  0  0  0  0  0  0  0  0  0
   35.8410   32.0740   33.7330 C   0  0  1  0  0  0  0  0  0  0  0  0
   36.6880   32.3030   31.6850 H   0  0  0  0  0  0  0  0  0  0  0  0
   35.0600   33.8700   32.6190 H   0  0  0  0  0  0  0  0  0  0  0  0
   33.8540   32.4900   32.7500 H   0  0  0  0  0  0  0  0  0  0  0  0
   36.6570   32.7470   34.1560 H   0  0  0  0  0  0  0  0  0  0  0  0
   35.1940   31.2380   34.7690 C   0  0  0  0  0  3  0  0  0  0  0  0
   33.7380   31.6600   34.8650 C   0  0  0  0  0  3  0  0  0  0  0  0
   33.2000   31.0930   34.0480 H   0  0  0  0  0  0  0  0  0  0  0  0
   33.0880   31.1890   36.1460 C   0  0  0  0  0  3  0  0  0  0  0  0
   32.0850   31.6450   36.1940 H   0  0  0  0  0  0  0  0  0  0  0  0
   33.7690   31.5640   37.2750 O   0  0  0  0  0  0  0  0  0  0  0  0
   34.7980   32.4160   36.9250 C   0  0  0  0  0  3  0  0  0  0  0  0
   35.3150   32.8060   37.8260 H   0  0  0  0  0  0  0  0  0  0  0  0
   35.8080   31.5990   36.1070 C   0  0  0  0  0  3  0  0  0  0  0  0
   36.6840   32.2730   36.0030 H   0  0  0  0  0  0  0  0  0  0  0  0
  1  6  2  0  0  0  0
  1  2  1  0  0  0  0
  2  3  2  0  0  0  0
  3  4  1  0  0  0  0
  3 10  1  0  0  0  0
  5 23  1  0  0  0  0
  5  4  2  0  0  0  0
  6  5  1  0  0  0  0
  7  1  1  0  0  0  0
  8  2  1  0  0  0  0
  9 18  1  0  0  0  0
  9 17  1  0  0  0  0
 10 11  1  0  0  0  0
 10  9  2  0  0  0  0
 11 12  2  0  0  0  0
 12 13  1  0  0  0  0
 12 16  1  0  0  0  0
 13 14  1  0  0  0  0
 14 15  2  0  0  0  0
 14 21  1  0  0  0  0
 16 15  1  0  0  0  0
 17 16  2  0  0  0  0
 17 22  1  0  0  0  0
 19 11  1  0  0  0  0
 20 13  1  0  0  0  0
 23 25  1  0  0  0  0
 24 23  2  0  0  0  0
 25 28  1  6  0  0  0
 25 26  1  0  0  0  0
 25 27  1  0  0  0  0
 26 27  1  0  0  0  0
 27 31  1  1  0  0  0
 27 32  1  0  0  0  0
 29 26  1  0  0  0  0
 30 26  1  0  0  0  0
 32 33  1  0  0  0  0
 32 40  1  0  0  0  0
 33 35  1  0  0  0  0
 34 33  1  0  0  0  0
 35 36  1  0  0  0  0
 35 37  1  0  0  0  0
 38 37  1  0  0  0  0
 38 39  1  0  0  0  0
 40 38  1  0  0  0  0
 41 40  1  0  0  0  0
M  END
>  <minimizedAffinity>
-6.05127048

$$$$
