REMARK  Name = 
REMARK  3 active torsions:
REMARK  status: ('A' for Active; 'I' for Inactive)
REMARK    1  A    between atoms: C_1  and  N_9
REMARK    2  A    between atoms: C_2  and  N_10
REMARK    3  A    between atoms: N_15  and  C_24
REMARK                            x       y       z     vdW  Elec       q    Type
REMARK                         _______ _______ _______ _____ _____    ______ ____
ROOT
ATOM      1  N   UNL     1      36.711  31.332  48.964  0.00  0.00    +0.000 N 
ATOM      2  C   UNL     1      36.551  32.335  49.820  0.00  0.00    +0.000 A 
ATOM      3  C   UNL     1      37.538  33.318  49.921  0.00  0.00    +0.000 A 
ATOM      4  C   UNL     1      38.611  33.146  49.102  0.00  0.00    +0.000 A 
ATOM      5  O   UNL     1      39.490  34.058  49.220  0.00  0.00    +0.000 OA
ATOM      6  N   UNL     1      38.808  32.160  48.235  0.00  0.00    +0.000 N 
ATOM      7  C   UNL     1      37.823  31.238  48.177  0.00  0.00    +0.000 A 
ATOM      8  O   UNL     1      37.992  30.279  47.348  0.00  0.00    +0.000 OA
ATOM      9  H   UNL     1      35.644  32.343  50.409  0.00  0.00    +0.000 HD
ATOM     10  H   UNL     1      37.369  34.101  50.617  0.00  0.00    +0.000 HD
ENDROOT
BRANCH   6  11
ATOM     11  C   UNL     1      39.990  32.131  47.452  0.00  0.00    +0.000 C 
ATOM     12  C   UNL     1      40.193  33.313  46.543  0.00  0.00    +0.000 C 
ATOM     13  H   UNL     1      39.287  33.361  45.890  0.00  0.00    +0.000 HD
ATOM     14  C   UNL     1      41.379  33.032  45.647  0.00  0.00    +0.000 C 
ATOM     15  H   UNL     1      41.095  32.862  44.585  0.00  0.00    +0.000 HD
ATOM     16  O   UNL     1      42.205  32.021  46.123  0.00  0.00    +0.000 OA
ATOM     17  C   UNL     1      41.599  30.787  46.228  0.00  0.00    +0.000 C 
ATOM     18  H   UNL     1      42.134  30.241  47.060  0.00  0.00    +0.000 HD
ATOM     19  C   UNL     1      40.112  30.913  46.566  0.00  0.00    +0.000 C 
ATOM     20  H   UNL     1      39.635  31.156  45.579  0.00  0.00    +0.000 HD
ENDBRANCH   6  11
BRANCH   1  22
ATOM     21  C   UNL     1      35.644  29.331  49.840  0.00  0.00    +0.000 A 
ATOM     22  C   UNL     1      35.745  30.285  48.804  0.00  0.00    +0.000 A 
ATOM     23  C   UNL     1      34.912  30.162  47.689  0.00  0.00    +0.000 A 
ATOM     24  N   UNL     1      34.038  29.119  47.661  0.00  0.00    +0.000 NA
ATOM     25  C   UNL     1      33.948  28.228  48.635  0.00  0.00    +0.000 A 
ATOM     26  N   UNL     1      34.745  28.331  49.717  0.00  0.00    +0.000 NA
ATOM     27  H   UNL     1      35.003  30.899  46.909  0.00  0.00    +0.000 HD
ATOM     28  H   UNL     1      33.244  27.408  48.587  0.00  0.00    +0.000 HD
BRANCH  21  31
ATOM     29  C   UNL     1      37.658  30.035  51.331  0.00  0.00    +0.000 C 
ATOM     30  O   UNL     1      38.201  30.842  50.557  0.00  0.00    +0.000 OA
ATOM     31  N   UNL     1      36.426  29.372  51.014  0.00  0.00    +0.000 N 
ATOM     32  H   UNL     1      38.199  29.894  52.240  0.00  0.00    +0.000 HD
ATOM     33  H   UNL     1      36.090  28.831  51.861  0.00  0.00    +0.000 HD
ENDBRANCH  21  31
ENDBRANCH   1  22
TORSDOF 3
