
 OpenBabel03272509513D

 34 36  0  0  0  0  0  0  0  0999 V2000
   37.1980   30.1760   51.3350 C   0  0  0  0  0  0  0  0  0  0  0  0
   37.6600   30.9030   50.2160 C   0  0  0  0  0  0  0  0  0  0  0  0
   37.0280   30.6740   49.0060 C   0  0  0  0  0  0  0  0  0  0  0  0
   35.9960   29.7640   48.9590 N   0  0  0  0  0  0  0  0  0  0  0  0
   35.5910   29.0980   50.0450 C   0  0  0  0  0  0  0  0  0  0  0  0
   36.1940   29.3070   51.2270 N   0  0  0  0  0  0  0  0  0  0  0  0
   37.6440   30.3030   52.3130 H   0  0  0  0  0  0  0  0  0  0  0  0
   38.4780   31.6040   50.3270 H   0  0  0  0  0  0  0  0  0  0  0  0
   37.4940   31.4260   47.8150 C   0  0  0  0  0  3  0  0  0  0  0  0
   37.9690   30.5210   46.7370 C   0  0  0  0  0  3  0  0  0  0  0  0
   38.6280   29.7060   47.0760 H   0  0  0  0  0  0  0  0  0  0  0  0
   38.7940   31.3070   45.7370 C   0  0  0  0  0  3  0  0  0  0  0  0
   38.2420   32.1410   45.2660 H   0  0  0  0  0  0  0  0  0  0  0  0
   39.9270   31.7550   46.4420 O   0  0  0  0  0  0  0  0  0  0  0  0
   39.4910   32.8260   47.2150 C   0  0  0  0  0  3  0  0  0  0  0  0
   40.3800   33.2720   47.7080 H   0  0  0  0  0  0  0  0  0  0  0  0
   38.5340   32.4030   48.2950 C   0  0  0  0  0  3  0  0  0  0  0  0
   39.0830   31.9490   49.1470 H   0  0  0  0  0  0  0  0  0  0  0  0
   34.5530   28.2480   49.7590 O   0  0  0  0  0  0  0  0  0  0  0  0
   33.6750   28.5750   48.6920 C   0  0  0  0  0  0  0  0  0  0  0  0
   34.2850   28.8670   47.8150 H   0  0  0  0  0  0  0  0  0  0  0  0
   33.1000   29.4820   48.9670 H   0  0  0  0  0  0  0  0  0  0  0  0
   32.7410   27.4410   48.4160 C   0  0  0  0  0  0  0  0  0  0  0  0
   33.0190   27.0250   47.4100 H   0  0  0  0  0  0  0  0  0  0  0  0
   32.8740   26.6450   49.1770 H   0  0  0  0  0  0  0  0  0  0  0  0
   31.3070   27.8610   48.3860 C   0  0  0  0  0  0  0  0  0  0  0  0
   30.6130   27.7500   49.5690 C   0  0  0  0  0  0  0  0  0  0  0  0
   29.2880   28.1030   49.6660 C   0  0  0  0  0  0  0  0  0  0  0  0
   28.6560   28.5680   48.5810 N   0  0  0  0  0  0  0  0  0  0  0  0
   29.3480   28.6700   47.4320 C   0  0  0  0  0  0  0  0  0  0  0  0
   30.6410   28.3320   47.3100 N   0  0  0  0  0  0  0  0  0  0  0  0
   31.0680   27.3790   50.4910 H   0  0  0  0  0  0  0  0  0  0  0  0
   28.7040   28.0320   50.5820 H   0  0  0  0  0  0  0  0  0  0  0  0
   28.8850   29.0440   46.5070 H   0  0  0  0  0  0  0  0  0  0  0  0
  1  7  1  0  0  0  0
  2  8  1  0  0  0  0
  2  1  2  0  0  0  0
  3  2  1  0  0  0  0
  4  3  2  0  0  0  0
  4  5  1  0  0  0  0
  5  6  2  0  0  0  0
  6  1  1  0  0  0  0
  9 17  1  0  0  0  0
  9  3  1  0  0  0  0
 10 11  1  0  0  0  0
 10  9  1  0  0  0  0
 12 14  1  0  0  0  0
 12 10  1  0  0  0  0
 13 12  1  0  0  0  0
 14 15  1  0  0  0  0
 15 16  1  0  0  0  0
 15 17  1  0  0  0  0
 17 18  1  0  0  0  0
 19  5  1  0  0  0  0
 20 22  1  0  0  0  0
 20 19  1  0  0  0  0
 21 20  1  0  0  0  0
 23 20  1  0  0  0  0
 23 25  1  0  0  0  0
 24 23  1  0  0  0  0
 26 23  1  0  0  0  0
 26 27  1  0  0  0  0
 27 28  2  0  0  0  0
 27 32  1  0  0  0  0
 28 33  1  0  0  0  0
 29 28  1  0  0  0  0
 30 29  2  0  0  0  0
 31 30  1  0  0  0  0
 31 26  2  0  0  0  0
 34 30  1  0  0  0  0
M  END
>  <minimizedAffinity>
-5.64640999

>  <minimizedRMSD>
0.655193031

$$$$
