
 OpenBabel03272507133D

 41 45  0  0  0  0  0  0  0  0999 V2000
   35.7410   29.1390   49.8710 C   0  0  0  0  0  0  0  0  0  0  0  0
   34.7010   29.6130   50.5930 C   0  0  0  0  0  0  0  0  0  0  0  0
   33.5460   29.0320   50.0640 C   0  0  0  0  0  0  0  0  0  0  0  0
   33.9830   28.2130   49.0140 C   0  0  0  0  0  0  0  0  0  0  0  0
   35.2740   28.3250   48.9600 O   0  0  0  0  0  0  0  0  0  0  0  0
   34.6930   30.3170   51.4410 H   0  0  0  0  0  0  0  0  0  0  0  0
   32.5460   29.2430   50.4660 H   0  0  0  0  0  0  0  0  0  0  0  0
   33.4850   26.5140   47.2610 C   0  0  0  0  0  0  0  0  0  0  0  0
   33.0490   27.4300   48.2100 C   0  0  0  0  0  0  0  0  0  0  0  0
   31.7010   27.6400   48.4410 C   0  0  0  0  0  0  0  0  0  0  0  0
   30.7990   26.9160   47.7020 C   0  0  0  0  0  0  0  0  0  0  0  0
   29.4540   26.9050   47.7100 N   0  0  0  0  0  0  0  0  0  0  0  0
   29.0580   26.0170   46.8020 N   0  0  0  0  0  0  0  0  0  0  0  0
   30.1230   25.4640   46.2170 C   0  0  0  0  0  0  0  0  0  0  0  0
   31.2840   26.0110   46.7640 C   0  0  0  0  0  0  0  0  0  0  0  0
   32.6180   25.7870   46.5190 C   0  0  0  0  0  0  0  0  0  0  0  0
   34.5600   26.4170   47.1510 H   0  0  0  0  0  0  0  0  0  0  0  0
   31.2930   28.3410   49.1670 H   0  0  0  0  0  0  0  0  0  0  0  0
   28.7960   27.4670   48.2980 H   0  0  0  0  0  0  0  0  0  0  0  0
   30.1590   24.6960   45.4270 H   0  0  0  0  0  0  0  0  0  0  0  0
   32.9280   25.0800   45.7880 H   0  0  0  0  0  0  0  0  0  0  0  0
   37.1180   29.5350   50.1440 C   0  0  0  0  0  0  0  0  0  0  0  0
   37.7950   28.8600   50.9580 O   0  0  0  0  0  0  0  0  0  0  0  0
   37.6280   30.6940   49.4530 C   0  0  0  0  0  0  0  0  0  0  0  0
   37.4030   31.9300   50.0220 C   0  0  0  0  0  0  0  0  0  0  0  0
   37.8760   33.0700   49.3890 C   0  0  0  0  0  0  0  0  0  0  0  0
   38.5460   32.8960   48.2240 N   0  0  0  0  0  0  0  0  0  0  0  0
   38.7590   31.7020   47.6790 C   0  0  0  0  0  0  0  0  0  0  0  0
   38.2980   30.6140   48.2990 N   0  0  0  0  0  0  0  0  0  0  0  0
   36.8630   32.1020   50.9650 H   0  0  0  0  0  0  0  0  0  0  0  0
   37.7180   34.0380   49.8050 H   0  0  0  0  0  0  0  0  0  0  0  0
   39.4940   31.4980   46.3990 C   0  0  0  0  0  0  0  0  0  0  0  0
   38.6670   30.7720   45.3660 C   0  0  0  0  0  0  0  0  0  0  0  0
   37.8480   31.4260   44.9640 H   0  0  0  0  0  0  0  0  0  0  0  0
   39.6360   30.3530   44.2780 C   0  0  0  0  0  0  0  0  0  0  0  0
   39.1150   29.9170   43.4030 H   0  0  0  0  0  0  0  0  0  0  0  0
   40.5290   31.3410   43.9580 O   0  0  0  0  0  0  0  0  0  0  0  0
   40.1210   32.6260   44.2960 C   0  0  0  0  0  0  0  0  0  0  0  0
   40.9250   33.3170   43.9700 H   0  0  0  0  0  0  0  0  0  0  0  0
   39.9420   32.8020   45.7810 C   0  0  0  0  0  0  0  0  0  0  0  0
   39.1810   33.6090   45.9270 H   0  0  0  0  0  0  0  0  0  0  0  0
  1 22  1  0  0  0  0
  1  2  2  0  0  0  0
  2  6  1  0  0  0  0
  3  7  1  0  0  0  0
  3  2  1  0  0  0  0
  4  3  2  0  0  0  0
  5  4  1  0  0  0  0
  5  1  1  0  0  0  0
  8  9  1  0  0  0  0
  9 10  2  0  0  0  0
  9  4  1  0  0  0  0
 10 18  1  0  0  0  0
 11 12  1  0  0  0  0
 11 10  1  0  0  0  0
 12 19  1  0  0  0  0
 13 12  1  0  0  0  0
 14 15  1  0  0  0  0
 14 13  2  0  0  0  0
 15 11  2  0  0  0  0
 16 15  1  0  0  0  0
 16  8  2  0  0  0  0
 17  8  1  0  0  0  0
 20 14  1  0  0  0  0
 21 16  1  0  0  0  0
 22 23  2  0  0  0  0
 24 25  1  0  0  0  0
 24 22  1  0  0  0  0
 25 30  1  0  0  0  0
 26 31  1  0  0  0  0
 26 25  2  0  0  0  0
 27 26  1  0  0  0  0
 28 27  2  0  0  0  0
 28 29  1  0  0  0  0
 29 24  2  0  0  0  0
 32 28  1  0  0  0  0
 33 32  1  0  0  0  0
 34 33  1  0  0  0  0
 35 33  1  0  0  0  0
 36 35  1  0  0  0  0
 37 35  1  0  0  0  0
 37 38  1  0  0  0  0
 38 40  1  0  0  0  0
 39 38  1  0  0  0  0
 40 41  1  0  0  0  0
 40 32  1  0  0  0  0
M  END
>  <minimizedAffinity>
-7.22834587

>  <minimizedRMSD>
0.935395062

$$$$
