
 OpenBabel03272504543D

 26 28  0  0  0  0  0  0  0  0999 V2000
   35.9500   23.7270   31.5400 C   0  0  0  0  0  0  0  0  0  0  0  0
   35.2220   24.7580   30.9210 C   0  0  0  0  0  0  0  0  0  0  0  0
   35.5430   26.0500   31.3010 C   0  0  0  0  0  0  0  0  0  0  0  0
   36.5200   26.2650   32.2340 N   0  0  0  0  0  0  0  0  0  0  0  0
   37.2070   25.2360   32.8140 C   0  0  0  0  0  0  0  0  0  0  0  0
   36.9100   23.9620   32.4570 N   0  0  0  0  0  0  0  0  0  0  0  0
   34.4660   24.5530   30.1970 H   0  0  0  0  0  0  0  0  0  0  0  0
   35.0240   26.8970   30.8670 H   0  0  0  0  0  0  0  0  0  0  0  0
   38.2560   25.5420   33.8190 C   0  0  0  0  0  3  0  0  0  0  0  0
   39.3130   26.3670   33.1380 C   0  0  0  0  0  3  0  0  0  0  0  0
   39.8950   25.6870   32.4880 H   0  0  0  0  0  0  0  0  0  0  0  0
   40.2100   27.1100   34.0970 C   0  0  0  0  0  3  0  0  0  0  0  0
   41.2250   26.6660   34.0240 H   0  0  0  0  0  0  0  0  0  0  0  0
   39.7840   26.9880   35.4180 O   0  0  0  0  0  0  0  0  0  0  0  0
   38.4540   27.3570   35.5590 C   0  0  0  0  0  3  0  0  0  0  0  0
   38.2390   27.3090   36.6630 H   0  0  0  0  0  0  0  0  0  0  0  0
   37.5480   26.3470   34.9120 C   0  0  0  0  0  3  0  0  0  0  0  0
   37.1770   25.5840   35.6380 H   0  0  0  0  0  0  0  0  0  0  0  0
   35.6340   22.3110   31.1220 C   0  0  0  0  0  0  0  0  0  0  0  0
   36.4180   21.1910   31.6270 C   0  0  0  0  0  0  0  0  0  0  0  0
   35.0930   21.4720   32.2740 C   0  0  0  0  0  0  0  0  0  0  0  0
   35.0710   22.1880   30.1530 H   0  0  0  0  0  0  0  0  0  0  0  0
   36.5870   20.2880   31.0430 H   0  0  0  0  0  0  0  0  0  0  0  0
   37.2920   21.4640   32.2890 H   0  0  0  0  0  0  0  0  0  0  0  0
   35.0060   21.9150   33.2750 H   0  0  0  0  0  0  0  0  0  0  0  0
   34.3070   20.7540   32.0150 H   0  0  0  0  0  0  0  0  0  0  0  0
  1  6  1  0  0  0  0
  2  3  1  0  0  0  0
  2  1  2  0  0  0  0
  3  4  2  0  0  0  0
  4  5  1  0  0  0  0
  5  9  1  0  0  0  0
  6  5  2  0  0  0  0
  7  2  1  0  0  0  0
  8  3  1  0  0  0  0
  9 17  1  0  0  0  0
 10  9  1  0  0  0  0
 10 12  1  0  0  0  0
 11 10  1  0  0  0  0
 12 14  1  0  0  0  0
 13 12  1  0  0  0  0
 14 15  1  0  0  0  0
 15 16  1  0  0  0  0
 17 15  1  0  0  0  0
 17 18  1  0  0  0  0
 19  1  1  0  0  0  0
 19 20  1  0  0  0  0
 19 21  1  0  0  0  0
 20 21  1  0  0  0  0
 20 24  1  0  0  0  0
 21 25  1  0  0  0  0
 22 19  1  0  0  0  0
 23 20  1  0  0  0  0
 26 21  1  0  0  0  0
M  END
>  <minimizedAffinity>
-4.48204136

$$$$

 OpenBabel03272504543D

 26 28  0  0  0  0  0  0  0  0999 V2000
   38.3490   24.3700   36.2160 C   0  0  0  0  0  0  0  0  0  0  0  0
   39.4900   23.6990   35.7450 C   0  0  0  0  0  0  0  0  0  0  0  0
   40.0760   24.2120   34.6010 C   0  0  0  0  0  0  0  0  0  0  0  0
   39.5390   25.3130   33.9930 N   0  0  0  0  0  0  0  0  0  0  0  0
   38.4270   25.9390   34.4800 C   0  0  0  0  0  0  0  0  0  0  0  0
   37.8360   25.4550   35.6000 N   0  0  0  0  0  0  0  0  0  0  0  0
   39.8810   22.8410   36.2460 H   0  0  0  0  0  0  0  0  0  0  0  0
   40.9590   23.7470   34.1780 H   0  0  0  0  0  0  0  0  0  0  0  0
   37.8980   27.1310   33.7700 C   0  0  0  0  0  3  0  0  0  0  0  0
   36.9930   26.6420   32.6720 C   0  0  0  0  0  3  0  0  0  0  0  0
   37.6370   26.2390   31.8680 H   0  0  0  0  0  0  0  0  0  0  0  0
   36.0560   27.7020   32.1460 C   0  0  0  0  0  3  0  0  0  0  0  0
   36.3600   27.9330   31.1030 H   0  0  0  0  0  0  0  0  0  0  0  0
   36.1270   28.8810   32.8840 O   0  0  0  0  0  0  0  0  0  0  0  0
   35.9350   28.6450   34.2380 C   0  0  0  0  0  3  0  0  0  0  0  0
   35.9220   29.6590   34.7260 H   0  0  0  0  0  0  0  0  0  0  0  0
   37.1110   27.9150   34.8240 C   0  0  0  0  0  3  0  0  0  0  0  0
   37.8560   28.6080   35.2830 H   0  0  0  0  0  0  0  0  0  0  0  0
   37.7070   23.8430   37.4770 C   0  0  0  0  0  0  0  0  0  0  0  0
   38.5220   23.3330   38.5720 C   0  0  0  0  0  0  0  0  0  0  0  0
   37.9860   24.7300   38.6850 C   0  0  0  0  0  0  0  0  0  0  0  0
   36.6370   23.4990   37.3890 H   0  0  0  0  0  0  0  0  0  0  0  0
   38.1810   22.5360   39.2310 H   0  0  0  0  0  0  0  0  0  0  0  0
   39.6360   23.3080   38.3840 H   0  0  0  0  0  0  0  0  0  0  0  0
   38.6210   25.6180   38.5730 H   0  0  0  0  0  0  0  0  0  0  0  0
   37.1620   24.8370   39.4000 H   0  0  0  0  0  0  0  0  0  0  0  0
  1 19  1  0  0  0  0
  2  1  1  0  0  0  0
  2  7  1  0  0  0  0
  3  2  2  0  0  0  0
  4  5  2  0  0  0  0
  4  3  1  0  0  0  0
  5  6  1  0  0  0  0
  6  1  2  0  0  0  0
  8  3  1  0  0  0  0
  9  5  1  0  0  0  0
  9 17  1  0  0  0  0
 10  9  1  0  0  0  0
 11 10  1  0  0  0  0
 12 10  1  0  0  0  0
 12 14  1  0  0  0  0
 13 12  1  0  0  0  0
 14 15  1  0  0  0  0
 15 16  1  0  0  0  0
 15 17  1  0  0  0  0
 17 18  1  0  0  0  0
 19 20  1  0  0  0  0
 19 21  1  0  0  0  0
 20 21  1  0  0  0  0
 20 23  1  0  0  0  0
 21 26  1  0  0  0  0
 22 19  1  0  0  0  0
 24 20  1  0  0  0  0
 25 21  1  0  0  0  0
M  END
>  <minimizedAffinity>
-4.37044525

$$$$

 OpenBabel03272504543D

 26 28  0  0  0  0  0  0  0  0999 V2000
   37.0050   26.0230   32.7280 C   0  0  0  0  0  0  0  0  0  0  0  0
   36.5730   27.3090   33.0930 C   0  0  0  0  0  0  0  0  0  0  0  0
   36.9050   27.7280   34.3700 C   0  0  0  0  0  0  0  0  0  0  0  0
   37.6140   26.9020   35.1980 N   0  0  0  0  0  0  0  0  0  0  0  0
   38.0170   25.6570   34.8070 C   0  0  0  0  0  0  0  0  0  0  0  0
   37.7040   25.2250   33.5600 N   0  0  0  0  0  0  0  0  0  0  0  0
   36.0210   27.9270   32.4200 H   0  0  0  0  0  0  0  0  0  0  0  0
   36.6050   28.7090   34.7240 H   0  0  0  0  0  0  0  0  0  0  0  0
   38.7850   24.8130   35.7560 C   0  0  0  0  0  3  0  0  0  0  0  0
   37.9460   24.6410   36.9930 C   0  0  0  0  0  3  0  0  0  0  0  0
   37.9810   25.5960   37.5510 H   0  0  0  0  0  0  0  0  0  0  0  0
   38.3790   23.4840   37.8600 C   0  0  0  0  0  3  0  0  0  0  0  0
   38.7850   23.9020   38.8050 H   0  0  0  0  0  0  0  0  0  0  0  0
   39.3840   22.7250   37.2620 O   0  0  0  0  0  0  0  0  0  0  0  0
   39.0180   22.3120   35.9890 C   0  0  0  0  0  3  0  0  0  0  0  0
   39.8490   21.6410   35.6350 H   0  0  0  0  0  0  0  0  0  0  0  0
   38.9870   23.4760   35.0390 C   0  0  0  0  0  3  0  0  0  0  0  0
   39.9460   23.5920   34.4780 H   0  0  0  0  0  0  0  0  0  0  0  0
   36.6760   25.5550   31.3300 C   0  0  0  0  0  0  0  0  0  0  0  0
   36.6980   24.1370   30.9940 C   0  0  0  0  0  0  0  0  0  0  0  0
   35.3680   24.7730   31.2720 C   0  0  0  0  0  0  0  0  0  0  0  0
   36.8020   26.3120   30.5050 H   0  0  0  0  0  0  0  0  0  0  0  0
   36.9620   23.7770   30.0000 H   0  0  0  0  0  0  0  0  0  0  0  0
   37.0300   23.4420   31.8210 H   0  0  0  0  0  0  0  0  0  0  0  0
   34.8050   24.5860   32.1960 H   0  0  0  0  0  0  0  0  0  0  0  0
   34.7530   24.9350   30.3800 H   0  0  0  0  0  0  0  0  0  0  0  0
  1  2  2  0  0  0  0
  1  6  1  0  0  0  0
  2  3  1  0  0  0  0
  3  8  1  0  0  0  0
  3  4  2  0  0  0  0
  5  4  1  0  0  0  0
  5  9  1  0  0  0  0
  6  5  2  0  0  0  0
  7  2  1  0  0  0  0
  9 10  1  0  0  0  0
 10 11  1  0  0  0  0
 10 12  1  0  0  0  0
 12 13  1  0  0  0  0
 14 12  1  0  0  0  0
 15 14  1  0  0  0  0
 16 15  1  0  0  0  0
 17  9  1  0  0  0  0
 17 15  1  0  0  0  0
 18 17  1  0  0  0  0
 19  1  1  0  0  0  0
 20 21  1  0  0  0  0
 20 19  1  0  0  0  0
 20 24  1  0  0  0  0
 21 19  1  0  0  0  0
 21 25  1  0  0  0  0
 22 19  1  0  0  0  0
 23 20  1  0  0  0  0
 26 21  1  0  0  0  0
M  END
>  <minimizedAffinity>
-4.36558676

$$$$

 OpenBabel03272504543D

 26 28  0  0  0  0  0  0  0  0999 V2000
   37.0730   27.0700   33.8540 C   0  0  0  0  0  0  0  0  0  0  0  0
   36.4330   28.1660   33.2540 C   0  0  0  0  0  0  0  0  0  0  0  0
   35.9410   27.9660   31.9750 C   0  0  0  0  0  0  0  0  0  0  0  0
   36.0950   26.7500   31.3670 N   0  0  0  0  0  0  0  0  0  0  0  0
   36.7230   25.7060   31.9840 C   0  0  0  0  0  0  0  0  0  0  0  0
   37.2130   25.8790   33.2370 N   0  0  0  0  0  0  0  0  0  0  0  0
   36.3310   29.1010   33.7580 H   0  0  0  0  0  0  0  0  0  0  0  0
   35.4350   28.7660   31.4470 H   0  0  0  0  0  0  0  0  0  0  0  0
   36.8540   24.4130   31.2660 C   0  0  0  0  0  3  0  0  0  0  0  0
   37.9740   23.6440   31.9130 C   0  0  0  0  0  3  0  0  0  0  0  0
   38.9240   24.1110   31.5920 H   0  0  0  0  0  0  0  0  0  0  0  0
   37.9540   22.1690   31.5960 C   0  0  0  0  0  3  0  0  0  0  0  0
   38.8410   21.9460   30.9660 H   0  0  0  0  0  0  0  0  0  0  0  0
   36.8170   21.8000   30.8800 O   0  0  0  0  0  0  0  0  0  0  0  0
   35.6570   22.2070   31.5220 C   0  0  0  0  0  3  0  0  0  0  0  0
   34.8080   21.7860   30.9160 H   0  0  0  0  0  0  0  0  0  0  0  0
   35.5130   23.7020   31.4630 C   0  0  0  0  0  3  0  0  0  0  0  0
   34.8820   24.0340   30.6030 H   0  0  0  0  0  0  0  0  0  0  0  0
   37.5950   27.2580   35.2590 C   0  0  0  0  0  0  0  0  0  0  0  0
   38.2210   26.1550   35.9770 C   0  0  0  0  0  0  0  0  0  0  0  0
   39.1150   27.1720   35.3300 C   0  0  0  0  0  0  0  0  0  0  0  0
   37.1490   28.1090   35.8490 H   0  0  0  0  0  0  0  0  0  0  0  0
   38.1610   26.0560   37.0600 H   0  0  0  0  0  0  0  0  0  0  0  0
   38.2300   25.1620   35.4390 H   0  0  0  0  0  0  0  0  0  0  0  0
   39.6910   26.9590   34.4200 H   0  0  0  0  0  0  0  0  0  0  0  0
   39.6000   27.8560   36.0360 H   0  0  0  0  0  0  0  0  0  0  0  0
  1 19  1  0  0  0  0
  2  7  1  0  0  0  0
  2  1  1  0  0  0  0
  3  2  2  0  0  0  0
  4  3  1  0  0  0  0
  4  5  2  0  0  0  0
  5  6  1  0  0  0  0
  6  1  2  0  0  0  0
  8  3  1  0  0  0  0
  9 17  1  0  0  0  0
  9 10  1  0  0  0  0
  9  5  1  0  0  0  0
 11 10  1  0  0  0  0
 12 10  1  0  0  0  0
 13 12  1  0  0  0  0
 14 15  1  0  0  0  0
 14 12  1  0  0  0  0
 16 15  1  0  0  0  0
 17 15  1  0  0  0  0
 18 17  1  0  0  0  0
 19 21  1  0  0  0  0
 19 22  1  0  0  0  0
 19 20  1  0  0  0  0
 20 23  1  0  0  0  0
 21 20  1  0  0  0  0
 21 26  1  0  0  0  0
 24 20  1  0  0  0  0
 25 21  1  0  0  0  0
M  END
>  <minimizedAffinity>
-4.36128855

$$$$

 OpenBabel03272504543D

 26 28  0  0  0  0  0  0  0  0999 V2000
   35.9690   23.7460   31.5080 C   0  0  0  0  0  0  0  0  0  0  0  0
   35.1480   24.6170   30.7740 C   0  0  0  0  0  0  0  0  0  0  0  0
   35.2990   25.9690   31.0340 C   0  0  0  0  0  0  0  0  0  0  0  0
   36.2110   26.3880   31.9640 N   0  0  0  0  0  0  0  0  0  0  0  0
   36.9930   25.5090   32.6580 C   0  0  0  0  0  0  0  0  0  0  0  0
   36.8620   24.1810   32.4210 N   0  0  0  0  0  0  0  0  0  0  0  0
   34.4470   24.2550   30.0550 H   0  0  0  0  0  0  0  0  0  0  0  0
   34.7000   26.7020   30.5070 H   0  0  0  0  0  0  0  0  0  0  0  0
   37.9620   26.0330   33.6530 C   0  0  0  0  0  3  0  0  0  0  0  0
   37.3510   27.2530   34.2860 C   0  0  0  0  0  3  0  0  0  0  0  0
   37.4100   28.0730   33.5460 H   0  0  0  0  0  0  0  0  0  0  0  0
   38.0000   27.6450   35.5910 C   0  0  0  0  0  3  0  0  0  0  0  0
   38.5240   28.6100   35.4320 H   0  0  0  0  0  0  0  0  0  0  0  0
   38.9430   26.7100   36.0120 O   0  0  0  0  0  0  0  0  0  0  0  0
   38.4050   25.4320   36.0630 C   0  0  0  0  0  3  0  0  0  0  0  0
   39.2110   24.7770   36.4950 H   0  0  0  0  0  0  0  0  0  0  0  0
   38.1380   24.9100   34.6790 C   0  0  0  0  0  3  0  0  0  0  0  0
   38.9820   24.2920   34.2880 H   0  0  0  0  0  0  0  0  0  0  0  0
   35.8390   22.2680   31.2230 C   0  0  0  0  0  0  0  0  0  0  0  0
   36.5650   21.2870   32.0190 C   0  0  0  0  0  0  0  0  0  0  0  0
   35.1180   21.5230   32.3410 C   0  0  0  0  0  0  0  0  0  0  0  0
   35.5040   21.9860   30.1840 H   0  0  0  0  0  0  0  0  0  0  0  0
   36.9110   20.3410   31.6060 H   0  0  0  0  0  0  0  0  0  0  0  0
   37.2590   21.7100   32.8040 H   0  0  0  0  0  0  0  0  0  0  0  0
   34.7920   22.0680   33.2360 H   0  0  0  0  0  0  0  0  0  0  0  0
   34.4510   20.7140   32.0220 H   0  0  0  0  0  0  0  0  0  0  0  0
  1  6  1  0  0  0  0
  2  3  1  0  0  0  0
  2  1  2  0  0  0  0
  3  4  2  0  0  0  0
  4  5  1  0  0  0  0
  5  9  1  0  0  0  0
  6  5  2  0  0  0  0
  7  2  1  0  0  0  0
  8  3  1  0  0  0  0
  9 10  1  0  0  0  0
  9 17  1  0  0  0  0
 10 12  1  0  0  0  0
 11 10  1  0  0  0  0
 12 14  1  0  0  0  0
 13 12  1  0  0  0  0
 14 15  1  0  0  0  0
 15 16  1  0  0  0  0
 17 15  1  0  0  0  0
 18 17  1  0  0  0  0
 19  1  1  0  0  0  0
 19 20  1  0  0  0  0
 19 21  1  0  0  0  0
 20 21  1  0  0  0  0
 20 24  1  0  0  0  0
 21 25  1  0  0  0  0
 22 19  1  0  0  0  0
 23 20  1  0  0  0  0
 26 21  1  0  0  0  0
M  END
>  <minimizedAffinity>
-4.34889841

$$$$

 OpenBabel03272504543D

 26 28  0  0  0  0  0  0  0  0999 V2000
   38.2250   24.8410   35.0400 C   0  0  0  0  0  0  0  0  0  0  0  0
   38.4990   24.3880   36.3410 C   0  0  0  0  0  0  0  0  0  0  0  0
   38.3620   23.0270   36.5590 C   0  0  0  0  0  0  0  0  0  0  0  0
   37.9770   22.2070   35.5340 N   0  0  0  0  0  0  0  0  0  0  0  0
   37.7190   22.6850   34.2810 C   0  0  0  0  0  0  0  0  0  0  0  0
   37.8470   24.0140   34.0440 N   0  0  0  0  0  0  0  0  0  0  0  0
   38.7980   25.0580   37.1160 H   0  0  0  0  0  0  0  0  0  0  0  0
   38.5570   22.6040   37.5380 H   0  0  0  0  0  0  0  0  0  0  0  0
   37.3060   21.7380   33.2160 C   0  0  0  0  0  3  0  0  0  0  0  0
   36.1550   20.9290   33.7470 C   0  0  0  0  0  3  0  0  0  0  0  0
   36.5680   20.2000   34.4690 H   0  0  0  0  0  0  0  0  0  0  0  0
   35.3530   20.2390   32.6700 C   0  0  0  0  0  3  0  0  0  0  0  0
   35.5140   19.1460   32.7770 H   0  0  0  0  0  0  0  0  0  0  0  0
   35.7640   20.6090   31.3910 O   0  0  0  0  0  0  0  0  0  0  0  0
   35.7630   21.9880   31.2350 C   0  0  0  0  0  3  0  0  0  0  0  0
   36.0190   22.1740   30.1560 H   0  0  0  0  0  0  0  0  0  0  0  0
   36.8660   22.6150   32.0410 C   0  0  0  0  0  3  0  0  0  0  0  0
   37.7930   22.7770   31.4390 H   0  0  0  0  0  0  0  0  0  0  0  0
   38.3920   26.3190   34.7730 C   0  0  0  0  0  0  0  0  0  0  0  0
   38.7930   27.2290   35.8390 C   0  0  0  0  0  0  0  0  0  0  0  0
   39.8460   26.7670   34.8740 C   0  0  0  0  0  0  0  0  0  0  0  0
   37.8390   26.7320   33.8830 H   0  0  0  0  0  0  0  0  0  0  0  0
   38.4660   28.2670   35.8720 H   0  0  0  0  0  0  0  0  0  0  0  0
   38.9070   26.7650   36.8630 H   0  0  0  0  0  0  0  0  0  0  0  0
   40.6210   26.0390   35.1490 H   0  0  0  0  0  0  0  0  0  0  0  0
   40.1610   27.5310   34.1550 H   0  0  0  0  0  0  0  0  0  0  0  0
  1  2  1  0  0  0  0
  2  3  2  0  0  0  0
  2  7  1  0  0  0  0
  3  8  1  0  0  0  0
  4  3  1  0  0  0  0
  5  4  2  0  0  0  0
  6  5  1  0  0  0  0
  6  1  2  0  0  0  0
  9 10  1  0  0  0  0
  9  5  1  0  0  0  0
 10 11  1  0  0  0  0
 12 13  1  0  0  0  0
 12 10  1  0  0  0  0
 14 12  1  0  0  0  0
 15 14  1  0  0  0  0
 15 17  1  0  0  0  0
 16 15  1  0  0  0  0
 17  9  1  0  0  0  0
 18 17  1  0  0  0  0
 19 21  1  0  0  0  0
 19  1  1  0  0  0  0
 19 20  1  0  0  0  0
 20 23  1  0  0  0  0
 20 24  1  0  0  0  0
 21 25  1  0  0  0  0
 21 20  1  0  0  0  0
 22 19  1  0  0  0  0
 26 21  1  0  0  0  0
M  END
>  <minimizedAffinity>
-4.34600163

$$$$

 OpenBabel03272504543D

 26 28  0  0  0  0  0  0  0  0999 V2000
   37.0590   27.6090   33.8690 C   0  0  0  0  0  0  0  0  0  0  0  0
   36.6760   27.0990   32.6180 C   0  0  0  0  0  0  0  0  0  0  0  0
   35.6380   27.7570   31.9790 C   0  0  0  0  0  0  0  0  0  0  0  0
   35.0470   28.8380   32.5720 N   0  0  0  0  0  0  0  0  0  0  0  0
   35.4480   29.3050   33.7910 C   0  0  0  0  0  0  0  0  0  0  0  0
   36.4620   28.6770   34.4360 N   0  0  0  0  0  0  0  0  0  0  0  0
   37.1600   26.2520   32.1850 H   0  0  0  0  0  0  0  0  0  0  0  0
   35.2870   27.4210   31.0100 H   0  0  0  0  0  0  0  0  0  0  0  0
   34.7620   30.4850   34.3760 C   0  0  0  0  0  3  0  0  0  0  0  0
   33.5330   29.9900   35.0890 C   0  0  0  0  0  3  0  0  0  0  0  0
   32.7860   29.7270   34.3170 H   0  0  0  0  0  0  0  0  0  0  0  0
   32.9710   30.9790   36.0810 C   0  0  0  0  0  3  0  0  0  0  0  0
   31.9910   31.3260   35.6930 H   0  0  0  0  0  0  0  0  0  0  0  0
   33.7910   32.0960   36.2320 O   0  0  0  0  0  0  0  0  0  0  0  0
   35.0930   31.7320   36.5440 C   0  0  0  0  0  3  0  0  0  0  0  0
   35.6440   32.6950   36.7320 H   0  0  0  0  0  0  0  0  0  0  0  0
   35.7650   31.0890   35.3630 C   0  0  0  0  0  3  0  0  0  0  0  0
   36.3550   31.8210   34.7600 H   0  0  0  0  0  0  0  0  0  0  0  0
   38.2060   26.9220   34.5730 C   0  0  0  0  0  0  0  0  0  0  0  0
   38.4950   27.2000   35.9750 C   0  0  0  0  0  0  0  0  0  0  0  0
   37.7300   25.9510   35.6480 C   0  0  0  0  0  0  0  0  0  0  0  0
   39.0290   26.5220   33.9160 H   0  0  0  0  0  0  0  0  0  0  0  0
   39.5050   27.1610   36.3800 H   0  0  0  0  0  0  0  0  0  0  0  0
   37.8510   27.9910   36.4610 H   0  0  0  0  0  0  0  0  0  0  0  0
   36.6550   25.8470   35.8490 H   0  0  0  0  0  0  0  0  0  0  0  0
   38.3130   25.0290   35.7510 H   0  0  0  0  0  0  0  0  0  0  0  0
  1  6  1  0  0  0  0
  1 19  1  0  0  0  0
  2  1  2  0  0  0  0
  3  4  2  0  0  0  0
  3  2  1  0  0  0  0
  4  5  1  0  0  0  0
  5  9  1  0  0  0  0
  5  6  2  0  0  0  0
  7  2  1  0  0  0  0
  8  3  1  0  0  0  0
  9 10  1  0  0  0  0
  9 17  1  0  0  0  0
 10 12  1  0  0  0  0
 11 10  1  0  0  0  0
 12 14  1  0  0  0  0
 13 12  1  0  0  0  0
 14 15  1  0  0  0  0
 15 16  1  0  0  0  0
 17 15  1  0  0  0  0
 18 17  1  0  0  0  0
 19 21  1  0  0  0  0
 19 20  1  0  0  0  0
 20 23  1  0  0  0  0
 20 24  1  0  0  0  0
 21 26  1  0  0  0  0
 21 25  1  0  0  0  0
 21 20  1  0  0  0  0
 22 19  1  0  0  0  0
M  END
>  <minimizedAffinity>
-4.32167149

$$$$

 OpenBabel03272504543D

 26 28  0  0  0  0  0  0  0  0999 V2000
   36.9100   21.7340   32.7070 C   0  0  0  0  0  0  0  0  0  0  0  0
   37.2350   22.9110   32.0120 C   0  0  0  0  0  0  0  0  0  0  0  0
   37.8790   23.8960   32.7410 C   0  0  0  0  0  0  0  0  0  0  0  0
   38.1610   23.6930   34.0640 N   0  0  0  0  0  0  0  0  0  0  0  0
   37.8290   22.5340   34.7060 C   0  0  0  0  0  0  0  0  0  0  0  0
   37.1980   21.5540   34.0120 N   0  0  0  0  0  0  0  0  0  0  0  0
   37.0000   23.0350   30.9790 H   0  0  0  0  0  0  0  0  0  0  0  0
   38.1620   24.8320   32.2730 H   0  0  0  0  0  0  0  0  0  0  0  0
   38.1660   22.3800   36.1440 C   0  0  0  0  0  3  0  0  0  0  0  0
   39.6610   22.4800   36.2740 C   0  0  0  0  0  3  0  0  0  0  0  0
   40.0900   21.5320   35.8980 H   0  0  0  0  0  0  0  0  0  0  0  0
   40.1260   22.7720   37.6800 C   0  0  0  0  0  3  0  0  0  0  0  0
   40.6590   21.8730   38.0530 H   0  0  0  0  0  0  0  0  0  0  0  0
   39.0620   23.0290   38.5430 O   0  0  0  0  0  0  0  0  0  0  0  0
   38.2380   24.0300   38.0500 C   0  0  0  0  0  3  0  0  0  0  0  0
   37.4740   24.2200   38.8540 H   0  0  0  0  0  0  0  0  0  0  0  0
   37.4720   23.5480   36.8500 C   0  0  0  0  0  3  0  0  0  0  0  0
   36.4600   23.1610   37.1200 H   0  0  0  0  0  0  0  0  0  0  0  0
   36.2290   20.6360   31.9250 C   0  0  0  0  0  0  0  0  0  0  0  0
   35.6670   19.4750   32.6030 C   0  0  0  0  0  0  0  0  0  0  0  0
   34.7300   20.5740   32.1950 C   0  0  0  0  0  0  0  0  0  0  0  0
   36.5100   20.5480   30.8370 H   0  0  0  0  0  0  0  0  0  0  0  0
   35.6280   18.4900   32.1390 H   0  0  0  0  0  0  0  0  0  0  0  0
   35.8290   19.4340   33.7210 H   0  0  0  0  0  0  0  0  0  0  0  0
   34.2780   21.2650   32.9190 H   0  0  0  0  0  0  0  0  0  0  0  0
   34.0990   20.3270   31.3330 H   0  0  0  0  0  0  0  0  0  0  0  0
  1  6  1  0  0  0  0
  2  1  2  0  0  0  0
  2  3  1  0  0  0  0
  3  4  2  0  0  0  0
  4  5  1  0  0  0  0
  5  9  1  0  0  0  0
  6  5  2  0  0  0  0
  7  2  1  0  0  0  0
  8  3  1  0  0  0  0
  9 10  1  0  0  0  0
  9 17  1  0  0  0  0
 10 12  1  0  0  0  0
 11 10  1  0  0  0  0
 12 13  1  0  0  0  0
 12 14  1  0  0  0  0
 15 14  1  0  0  0  0
 15 16  1  0  0  0  0
 17 18  1  0  0  0  0
 17 15  1  0  0  0  0
 19 21  1  0  0  0  0
 19 20  1  0  0  0  0
 19  1  1  0  0  0  0
 20 24  1  0  0  0  0
 21 20  1  0  0  0  0
 21 25  1  0  0  0  0
 22 19  1  0  0  0  0
 23 20  1  0  0  0  0
 26 21  1  0  0  0  0
M  END
>  <minimizedAffinity>
-4.31641865

$$$$

 OpenBabel03272504543D

 26 28  0  0  0  0  0  0  0  0999 V2000
   37.3820   26.5240   33.2850 C   0  0  0  0  0  0  0  0  0  0  0  0
   37.0650   25.5330   32.3420 C   0  0  0  0  0  0  0  0  0  0  0  0
   37.3620   24.2280   32.7000 C   0  0  0  0  0  0  0  0  0  0  0  0
   37.9320   23.9660   33.9150 N   0  0  0  0  0  0  0  0  0  0  0  0
   38.2250   24.9580   34.8070 C   0  0  0  0  0  0  0  0  0  0  0  0
   37.9440   26.2430   34.4790 N   0  0  0  0  0  0  0  0  0  0  0  0
   36.6200   25.7750   31.4030 H   0  0  0  0  0  0  0  0  0  0  0  0
   37.1460   23.4090   32.0230 H   0  0  0  0  0  0  0  0  0  0  0  0
   38.8440   24.6020   36.1080 C   0  0  0  0  0  3  0  0  0  0  0  0
   37.7370   24.2020   37.0450 C   0  0  0  0  0  3  0  0  0  0  0  0
   37.2150   25.1270   37.3540 H   0  0  0  0  0  0  0  0  0  0  0  0
   38.2130   23.4150   38.2410 C   0  0  0  0  0  3  0  0  0  0  0  0
   38.0640   24.0460   39.1420 H   0  0  0  0  0  0  0  0  0  0  0  0
   39.5680   23.1000   38.1590 O   0  0  0  0  0  0  0  0  0  0  0  0
   39.8700   22.4620   36.9650 C   0  0  0  0  0  3  0  0  0  0  0  0
   40.9550   22.1740   37.0370 H   0  0  0  0  0  0  0  0  0  0  0  0
   39.7660   23.4170   35.8090 C   0  0  0  0  0  3  0  0  0  0  0  0
   40.7500   23.8760   35.5480 H   0  0  0  0  0  0  0  0  0  0  0  0
   37.0440   27.9520   32.9270 C   0  0  0  0  0  0  0  0  0  0  0  0
   35.7280   28.3010   32.4070 C   0  0  0  0  0  0  0  0  0  0  0  0
   36.0010   28.5550   33.8610 C   0  0  0  0  0  0  0  0  0  0  0  0
   37.9160   28.6310   32.7020 H   0  0  0  0  0  0  0  0  0  0  0  0
   35.5770   29.1180   31.7040 H   0  0  0  0  0  0  0  0  0  0  0  0
   35.0210   27.4350   32.2420 H   0  0  0  0  0  0  0  0  0  0  0  0
   35.5670   27.9400   34.6600 H   0  0  0  0  0  0  0  0  0  0  0  0
   36.1390   29.6130   34.1120 H   0  0  0  0  0  0  0  0  0  0  0  0
  1  6  1  0  0  0  0
  2  3  1  0  0  0  0
  2  1  2  0  0  0  0
  3  4  2  0  0  0  0
  4  5  1  0  0  0  0
  5  9  1  0  0  0  0
  6  5  2  0  0  0  0
  7  2  1  0  0  0  0
  8  3  1  0  0  0  0
  9 10  1  0  0  0  0
 10 11  1  0  0  0  0
 10 12  1  0  0  0  0
 12 13  1  0  0  0  0
 14 12  1  0  0  0  0
 15 16  1  0  0  0  0
 15 14  1  0  0  0  0
 17  9  1  0  0  0  0
 17 15  1  0  0  0  0
 18 17  1  0  0  0  0
 19  1  1  0  0  0  0
 19 21  1  0  0  0  0
 20 19  1  0  0  0  0
 20 21  1  0  0  0  0
 21 26  1  0  0  0  0
 21 25  1  0  0  0  0
 22 19  1  0  0  0  0
 23 20  1  0  0  0  0
 24 20  1  0  0  0  0
M  END
>  <minimizedAffinity>
-4.24119377

$$$$
