
 OpenBabel03272501583D

 32 34  0  0  0  0  0  0  0  0999 V2000
   32.8930   28.2810   47.8890 C   0  0  0  0  0  0  0  0  0  0  0  0
   32.1180   27.5620   48.7550 C   0  0  0  0  0  0  0  0  0  0  0  0
   30.7810   27.5960   48.3890 C   0  0  0  0  0  0  0  0  0  0  0  0
   30.7950   28.3670   47.2640 N   0  0  0  0  0  0  0  0  0  0  0  0
   32.0270   28.7540   46.9900 N   0  0  0  0  0  0  0  0  0  0  0  0
   32.5180   27.0320   49.6260 H   0  0  0  0  0  0  0  0  0  0  0  0
   29.9310   27.1210   48.8820 H   0  0  0  0  0  0  0  0  0  0  0  0
   29.5780   28.6830   46.5130 C   0  0  0  0  0  3  0  0  0  0  0  0
   28.5450   29.2420   47.4240 C   0  0  0  0  0  3  0  0  0  0  0  0
   28.1540   30.2410   47.0870 H   0  0  0  0  0  0  0  0  0  0  0  0
   27.3650   28.3650   47.6930 C   0  0  0  0  0  3  0  0  0  0  0  0
   27.5300   27.6160   48.4900 H   0  0  0  0  0  0  0  0  0  0  0  0
   26.9220   27.8210   46.5100 O   0  0  0  0  0  0  0  0  0  0  0  0
   27.8690   26.8880   46.1190 C   0  0  0  0  0  3  0  0  0  0  0  0
   28.0290   26.1120   46.8960 H   0  0  0  0  0  0  0  0  0  0  0  0
   29.1620   27.5200   45.6850 C   0  0  0  0  0  3  0  0  0  0  0  0
   29.9410   26.7260   45.7110 H   0  0  0  0  0  0  0  0  0  0  0  0
   34.3820   28.4540   47.9880 C   0  0  0  0  0  0  0  0  0  0  0  0
   34.8130   27.6020   47.4270 H   0  0  0  0  0  0  0  0  0  0  0  0
   34.6560   29.4300   47.5720 H   0  0  0  0  0  0  0  0  0  0  0  0
   34.7310   28.2780   49.4470 C   0  0  0  0  0  0  0  0  0  0  0  0
   35.0490   27.2280   49.6560 H   0  0  0  0  0  0  0  0  0  0  0  0
   33.8710   28.5070   50.1120 H   0  0  0  0  0  0  0  0  0  0  0  0
   37.2480   30.1720   51.3820 C   0  0  0  0  0  0  0  0  0  0  0  0
   38.0530   30.7140   50.3760 C   0  0  0  0  0  0  0  0  0  0  0  0
   37.7320   30.4270   49.0270 C   0  0  0  0  0  0  0  0  0  0  0  0
   36.6520   29.6380   48.7900 N   0  0  0  0  0  0  0  0  0  0  0  0
   35.9010   29.1370   49.7920 C   0  0  0  0  0  0  0  0  0  0  0  0
   36.1970   29.4020   51.0690 N   0  0  0  0  0  0  0  0  0  0  0  0
   37.4230   30.3420   52.4410 H   0  0  0  0  0  0  0  0  0  0  0  0
   38.8960   31.3320   50.6550 H   0  0  0  0  0  0  0  0  0  0  0  0
   38.3490   30.8400   48.2490 H   0  0  0  0  0  0  0  0  0  0  0  0
  1 18  1  0  0  0  0
  1  2  1  0  0  0  0
  2  6  1  0  0  0  0
  3  2  2  0  0  0  0
  3  7  1  0  0  0  0
  4  3  1  0  0  0  0
  5  4  1  0  0  0  0
  5  1  2  0  0  0  0
  8  4  1  0  0  0  0
  8  9  1  0  0  0  0
  9 11  1  0  0  0  0
 10  9  1  0  0  0  0
 11 12  1  0  0  0  0
 13 11  1  0  0  0  0
 14 13  1  0  0  0  0
 14 15  1  0  0  0  0
 16 17  1  0  0  0  0
 16 14  1  0  0  0  0
 16  8  1  0  0  0  0
 18 21  1  0  0  0  0
 19 18  1  0  0  0  0
 20 18  1  0  0  0  0
 21 22  1  0  0  0  0
 21 28  1  0  0  0  0
 21 23  1  0  0  0  0
 24 30  1  0  0  0  0
 25 31  1  0  0  0  0
 25 24  2  0  0  0  0
 26 25  1  0  0  0  0
 27 26  2  0  0  0  0
 27 28  1  0  0  0  0
 28 29  2  0  0  0  0
 29 24  1  0  0  0  0
 32 26  1  0  0  0  0
M  END
>  <minimizedAffinity>
-5.03910589

>  <minimizedRMSD>
0.584841371

$$$$
