
 OpenBabel03272502243D

 30 32  0  0  0  0  0  0  0  0999 V2000
   37.1690   25.0390   32.0140 C   0  0  0  0  0  0  0  0  0  0  0  0
   37.9390   24.8810   33.1780 C   0  0  0  0  0  0  0  0  0  0  0  0
   37.9780   23.6250   33.7410 C   0  0  0  0  0  0  0  0  0  0  0  0
   37.2860   22.6150   33.1560 N   0  0  0  0  0  0  0  0  0  0  0  0
   36.5560   22.7970   32.0380 C   0  0  0  0  0  0  0  0  0  0  0  0
   36.5030   24.0180   31.4710 N   0  0  0  0  0  0  0  0  0  0  0  0
   37.1430   26.0230   31.5800 H   0  0  0  0  0  0  0  0  0  0  0  0
   38.4990   25.6720   33.6620 H   0  0  0  0  0  0  0  0  0  0  0  0
   35.8370   21.6220   31.4830 C   0  0  0  0  0  3  0  0  0  0  0  0
   35.1610   20.9210   32.6590 C   0  0  0  0  0  3  0  0  0  0  0  0
   34.4790   21.5980   33.1690 H   0  0  0  0  0  0  0  0  0  0  0  0
   34.4520   19.7500   31.9760 C   0  0  0  0  0  3  0  0  0  0  0  0
   33.7420   19.2610   32.6670 H   0  0  0  0  0  0  0  0  0  0  0  0
   35.4180   18.8400   31.6650 O   0  0  0  0  0  0  0  0  0  0  0  0
   36.4950   19.2440   30.9570 C   0  0  0  0  0  3  0  0  0  0  0  0
   37.4070   18.8720   31.5080 H   0  0  0  0  0  0  0  0  0  0  0  0
   36.6940   20.6900   30.7010 C   0  0  0  0  0  3  0  0  0  0  0  0
   36.4990   20.8860   29.6230 H   0  0  0  0  0  0  0  0  0  0  0  0
   38.7340   23.2830   34.9600 C   0  0  0  0  0  0  0  0  0  0  0  0
   39.9320   22.6140   34.9340 C   0  0  0  0  0  0  0  0  0  0  0  0
   40.6340   22.2980   36.0750 C   0  0  0  0  0  0  0  0  0  0  0  0
   40.1380   22.6530   37.2790 N   0  0  0  0  0  0  0  0  0  0  0  0
   38.9730   23.3020   37.2920 C   0  0  0  0  0  0  0  0  0  0  0  0
   38.2870   23.6130   36.1920 N   0  0  0  0  0  0  0  0  0  0  0  0
   40.3050   22.3420   33.9410 H   0  0  0  0  0  0  0  0  0  0  0  0
   41.5870   21.7590   35.9510 H   0  0  0  0  0  0  0  0  0  0  0  0
   38.4060   23.7040   38.6100 C   0  0  0  0  0  0  0  0  0  0  0  0
   37.8360   24.9650   38.4660 F   0  0  0  0  0  0  0  0  0  0  0  0
   37.4380   22.7800   39.0320 F   0  0  0  0  0  0  0  0  0  0  0  0
   39.3470   23.7940   39.5780 F   0  0  0  0  0  0  0  0  0  0  0  0
  1  2  1  0  0  0  0
  2  8  1  0  0  0  0
  2  3  2  0  0  0  0
  3 19  1  0  0  0  0
  4  3  1  0  0  0  0
  5  4  2  0  0  0  0
  6  1  2  0  0  0  0
  6  5  1  0  0  0  0
  7  1  1  0  0  0  0
  9  5  1  0  0  0  0
  9 10  1  0  0  0  0
 10 11  1  0  0  0  0
 12 10  1  0  0  0  0
 12 13  1  0  0  0  0
 14 12  1  0  0  0  0
 15 16  1  0  0  0  0
 15 14  1  0  0  0  0
 17 15  1  0  0  0  0
 17  9  1  0  0  0  0
 18 17  1  0  0  0  0
 19 24  1  0  0  0  0
 20 19  2  0  0  0  0
 20 21  1  0  0  0  0
 21 22  2  0  0  0  0
 22 23  1  0  0  0  0
 23 27  1  0  0  0  0
 24 23  2  0  0  0  0
 25 20  1  0  0  0  0
 26 21  1  0  0  0  0
 27 29  1  0  0  0  0
 27 30  1  0  0  0  0
 28 27  1  0  0  0  0
M  END
>  <minimizedAffinity>
-6.01610184

$$$$

 OpenBabel03272502243D

 30 32  0  0  0  0  0  0  0  0999 V2000
   36.4010   28.3380   34.0520 C   0  0  0  0  0  0  0  0  0  0  0  0
   36.8840   27.3160   34.8860 C   0  0  0  0  0  0  0  0  0  0  0  0
   37.6080   26.3070   34.2920 C   0  0  0  0  0  0  0  0  0  0  0  0
   37.8210   26.3440   32.9530 N   0  0  0  0  0  0  0  0  0  0  0  0
   37.3460   27.3390   32.1770 C   0  0  0  0  0  0  0  0  0  0  0  0
   36.6340   28.3360   32.7370 N   0  0  0  0  0  0  0  0  0  0  0  0
   35.8370   29.1220   34.5230 H   0  0  0  0  0  0  0  0  0  0  0  0
   36.7270   27.2660   35.9570 H   0  0  0  0  0  0  0  0  0  0  0  0
   37.6380   27.2800   30.7220 C   0  0  0  0  0  3  0  0  0  0  0  0
   39.1490   27.4390   30.5680 C   0  0  0  0  0  3  0  0  0  0  0  0
   39.6750   26.6570   31.1090 H   0  0  0  0  0  0  0  0  0  0  0  0
   39.3320   27.3520   29.0510 C   0  0  0  0  0  3  0  0  0  0  0  0
   40.3980   27.2420   28.7880 H   0  0  0  0  0  0  0  0  0  0  0  0
   38.9010   28.5400   28.5400 O   0  0  0  0  0  0  0  0  0  0  0  0
   37.6670   28.9830   28.8620 C   0  0  0  0  0  3  0  0  0  0  0  0
   37.7810   30.0530   29.2020 H   0  0  0  0  0  0  0  0  0  0  0  0
   36.8890   28.2710   29.9040 C   0  0  0  0  0  3  0  0  0  0  0  0
   36.0530   27.7290   29.4080 H   0  0  0  0  0  0  0  0  0  0  0  0
   38.1860   25.1600   35.0180 C   0  0  0  0  0  0  0  0  0  0  0  0
   38.9380   24.1900   34.4050 C   0  0  0  0  0  0  0  0  0  0  0  0
   39.4750   23.1220   35.0860 C   0  0  0  0  0  0  0  0  0  0  0  0
   39.2630   23.0070   36.4150 N   0  0  0  0  0  0  0  0  0  0  0  0
   38.5300   23.9570   37.0000 C   0  0  0  0  0  0  0  0  0  0  0  0
   38.0080   24.9940   36.3470 N   0  0  0  0  0  0  0  0  0  0  0  0
   39.0900   24.3140   33.3270 H   0  0  0  0  0  0  0  0  0  0  0  0
   40.0650   22.3940   34.5060 H   0  0  0  0  0  0  0  0  0  0  0  0
   38.2840   23.8510   38.4650 C   0  0  0  0  0  0  0  0  0  0  0  0
   37.2800   22.9090   38.6650 F   0  0  0  0  0  0  0  0  0  0  0  0
   39.4540   23.4600   39.1340 F   0  0  0  0  0  0  0  0  0  0  0  0
   37.8620   25.0150   39.0100 F   0  0  0  0  0  0  0  0  0  0  0  0
  1  7  1  0  0  0  0
  1  2  1  0  0  0  0
  2  8  1  0  0  0  0
  3  2  2  0  0  0  0
  3 19  1  0  0  0  0
  4  3  1  0  0  0  0
  5  6  1  0  0  0  0
  5  4  2  0  0  0  0
  6  1  2  0  0  0  0
  9  5  1  0  0  0  0
 10  9  1  0  0  0  0
 10 11  1  0  0  0  0
 12 10  1  0  0  0  0
 13 12  1  0  0  0  0
 14 15  1  0  0  0  0
 14 12  1  0  0  0  0
 15 16  1  0  0  0  0
 15 17  1  0  0  0  0
 17  9  1  0  0  0  0
 18 17  1  0  0  0  0
 19 24  1  0  0  0  0
 20 19  2  0  0  0  0
 20 21  1  0  0  0  0
 21 22  2  0  0  0  0
 22 23  1  0  0  0  0
 23 27  1  0  0  0  0
 24 23  2  0  0  0  0
 25 20  1  0  0  0  0
 26 21  1  0  0  0  0
 27 28  1  0  0  0  0
 27 30  1  0  0  0  0
 27 29  1  0  0  0  0
M  END
>  <minimizedAffinity>
-5.7790308

$$$$

 OpenBabel03272502243D

 30 32  0  0  0  0  0  0  0  0999 V2000
   35.2020   26.1280   31.1580 C   0  0  0  0  0  0  0  0  0  0  0  0
   35.3780   24.7440   30.9990 C   0  0  0  0  0  0  0  0  0  0  0  0
   36.4690   24.1730   31.6150 C   0  0  0  0  0  0  0  0  0  0  0  0
   37.3090   24.9580   32.3350 N   0  0  0  0  0  0  0  0  0  0  0  0
   37.1150   26.2850   32.4710 C   0  0  0  0  0  0  0  0  0  0  0  0
   36.0530   26.8640   31.8770 N   0  0  0  0  0  0  0  0  0  0  0  0
   34.3480   26.5670   30.6740 H   0  0  0  0  0  0  0  0  0  0  0  0
   34.7200   24.0980   30.4290 H   0  0  0  0  0  0  0  0  0  0  0  0
   38.0970   27.0480   33.2820 C   0  0  0  0  0  3  0  0  0  0  0  0
   39.3860   26.2290   33.3000 C   0  0  0  0  0  3  0  0  0  0  0  0
   39.7510   26.0640   32.2890 H   0  0  0  0  0  0  0  0  0  0  0  0
   40.3160   27.1050   34.1420 C   0  0  0  0  0  3  0  0  0  0  0  0
   41.3600   26.7500   34.0770 H   0  0  0  0  0  0  0  0  0  0  0  0
   39.9130   26.9660   35.4370 O   0  0  0  0  0  0  0  0  0  0  0  0
   38.6170   27.1850   35.7460 C   0  0  0  0  0  3  0  0  0  0  0  0
   38.2710   26.2980   36.3530 H   0  0  0  0  0  0  0  0  0  0  0  0
   37.6330   27.3820   34.6560 C   0  0  0  0  0  3  0  0  0  0  0  0
   37.3250   28.4510   34.6500 H   0  0  0  0  0  0  0  0  0  0  0  0
   36.8030   22.7370   31.5510 C   0  0  0  0  0  0  0  0  0  0  0  0
   37.8940   22.2540   30.8750 C   0  0  0  0  0  0  0  0  0  0  0  0
   38.2010   20.9130   30.8180 C   0  0  0  0  0  0  0  0  0  0  0  0
   37.4060   20.0230   31.4490 N   0  0  0  0  0  0  0  0  0  0  0  0
   36.3490   20.5050   32.1030 C   0  0  0  0  0  0  0  0  0  0  0  0
   36.0450   21.8010   32.1630 N   0  0  0  0  0  0  0  0  0  0  0  0
   38.5160   23.0030   30.3740 H   0  0  0  0  0  0  0  0  0  0  0  0
   39.0990   20.6220   30.2490 H   0  0  0  0  0  0  0  0  0  0  0  0
   35.4580   19.5410   32.8070 C   0  0  0  0  0  0  0  0  0  0  0  0
   35.2950   19.9840   34.1170 F   0  0  0  0  0  0  0  0  0  0  0  0
   34.2120   19.4620   32.1650 F   0  0  0  0  0  0  0  0  0  0  0  0
   35.9780   18.2940   32.8640 F   0  0  0  0  0  0  0  0  0  0  0  0
  1  6  1  0  0  0  0
  2  1  2  0  0  0  0
  2  3  1  0  0  0  0
  3  4  2  0  0  0  0
  4  5  1  0  0  0  0
  5  9  1  0  0  0  0
  6  5  2  0  0  0  0
  7  1  1  0  0  0  0
  8  2  1  0  0  0  0
  9 10  1  0  0  0  0
  9 17  1  0  0  0  0
 10 12  1  0  0  0  0
 11 10  1  0  0  0  0
 12 14  1  0  0  0  0
 13 12  1  0  0  0  0
 14 15  1  0  0  0  0
 15 16  1  0  0  0  0
 17 15  1  0  0  0  0
 18 17  1  0  0  0  0
 19  3  1  0  0  0  0
 19 24  1  0  0  0  0
 20 19  2  0  0  0  0
 21 20  1  0  0  0  0
 21 22  2  0  0  0  0
 22 23  1  0  0  0  0
 23 24  2  0  0  0  0
 23 27  1  0  0  0  0
 25 20  1  0  0  0  0
 26 21  1  0  0  0  0
 27 30  1  0  0  0  0
 27 28  1  0  0  0  0
 29 27  1  0  0  0  0
M  END
>  <minimizedAffinity>
-5.73884153

$$$$

 OpenBabel03272502243D

 30 32  0  0  0  0  0  0  0  0999 V2000
   36.8280   24.4200   31.5060 C   0  0  0  0  0  0  0  0  0  0  0  0
   37.4800   23.6890   32.5130 C   0  0  0  0  0  0  0  0  0  0  0  0
   37.8380   24.3710   33.6540 C   0  0  0  0  0  0  0  0  0  0  0  0
   37.5500   25.6930   33.7540 N   0  0  0  0  0  0  0  0  0  0  0  0
   36.9220   26.3680   32.7710 C   0  0  0  0  0  0  0  0  0  0  0  0
   36.5630   25.7210   31.6450 N   0  0  0  0  0  0  0  0  0  0  0  0
   36.5510   23.8800   30.6180 H   0  0  0  0  0  0  0  0  0  0  0  0
   37.7190   22.6340   32.4550 H   0  0  0  0  0  0  0  0  0  0  0  0
   36.6570   27.8130   32.9850 C   0  0  0  0  0  3  0  0  0  0  0  0
   36.2850   27.9810   34.4570 C   0  0  0  0  0  3  0  0  0  0  0  0
   37.0880   27.6260   35.0990 H   0  0  0  0  0  0  0  0  0  0  0  0
   36.0480   29.4880   34.5630 C   0  0  0  0  0  3  0  0  0  0  0  0
   35.9710   29.8030   35.6190 H   0  0  0  0  0  0  0  0  0  0  0  0
   34.8440   29.7350   33.9720 O   0  0  0  0  0  0  0  0  0  0  0  0
   34.6300   29.2900   32.7140 C   0  0  0  0  0  3  0  0  0  0  0  0
   33.6420   28.7440   32.7240 H   0  0  0  0  0  0  0  0  0  0  0  0
   35.6240   28.3900   32.0830 C   0  0  0  0  0  3  0  0  0  0  0  0
   36.1570   28.9570   31.2880 H   0  0  0  0  0  0  0  0  0  0  0  0
   38.5270   23.7590   34.8060 C   0  0  0  0  0  0  0  0  0  0  0  0
   39.5900   22.9020   34.6720 C   0  0  0  0  0  0  0  0  0  0  0  0
   40.2290   22.3340   35.7500 C   0  0  0  0  0  0  0  0  0  0  0  0
   39.8060   22.6210   37.0000 N   0  0  0  0  0  0  0  0  0  0  0  0
   38.7720   23.4550   37.1180 C   0  0  0  0  0  0  0  0  0  0  0  0
   38.1480   24.0100   36.0790 N   0  0  0  0  0  0  0  0  0  0  0  0
   39.9070   22.6910   33.6450 H   0  0  0  0  0  0  0  0  0  0  0  0
   41.0740   21.6570   35.5410 H   0  0  0  0  0  0  0  0  0  0  0  0
   38.2890   23.7870   38.4870 C   0  0  0  0  0  0  0  0  0  0  0  0
   37.7940   25.0870   38.4650 F   0  0  0  0  0  0  0  0  0  0  0  0
   37.2820   22.8930   38.8840 F   0  0  0  0  0  0  0  0  0  0  0  0
   39.2730   23.7440   39.4140 F   0  0  0  0  0  0  0  0  0  0  0  0
  1  6  2  0  0  0  0
  1  2  1  0  0  0  0
  2  3  2  0  0  0  0
  3  4  1  0  0  0  0
  3 19  1  0  0  0  0
  5  9  1  0  0  0  0
  5  4  2  0  0  0  0
  6  5  1  0  0  0  0
  7  1  1  0  0  0  0
  8  2  1  0  0  0  0
  9 10  1  0  0  0  0
 10 12  1  0  0  0  0
 10 11  1  0  0  0  0
 12 13  1  0  0  0  0
 14 12  1  0  0  0  0
 15 16  1  0  0  0  0
 15 14  1  0  0  0  0
 17 15  1  0  0  0  0
 17  9  1  0  0  0  0
 18 17  1  0  0  0  0
 19 24  1  0  0  0  0
 20 19  2  0  0  0  0
 20 21  1  0  0  0  0
 21 22  2  0  0  0  0
 22 23  1  0  0  0  0
 23 27  1  0  0  0  0
 24 23  2  0  0  0  0
 25 20  1  0  0  0  0
 26 21  1  0  0  0  0
 27 29  1  0  0  0  0
 27 30  1  0  0  0  0
 28 27  1  0  0  0  0
M  END
>  <minimizedAffinity>
-5.7297554

$$$$

 OpenBabel03272502243D

 30 32  0  0  0  0  0  0  0  0999 V2000
   38.0360   23.3620   38.0860 C   0  0  0  0  0  0  0  0  0  0  0  0
   37.4050   23.1700   36.8450 C   0  0  0  0  0  0  0  0  0  0  0  0
   38.1930   22.7560   35.7950 C   0  0  0  0  0  0  0  0  0  0  0  0
   39.5190   22.5550   36.0010 N   0  0  0  0  0  0  0  0  0  0  0  0
   40.0970   22.7460   37.2040 C   0  0  0  0  0  0  0  0  0  0  0  0
   39.3450   23.1520   38.2450 N   0  0  0  0  0  0  0  0  0  0  0  0
   37.4140   23.6850   38.9010 H   0  0  0  0  0  0  0  0  0  0  0  0
   36.3490   23.3250   36.6580 H   0  0  0  0  0  0  0  0  0  0  0  0
   41.5560   22.4960   37.3160 C   0  0  0  0  0  3  0  0  0  0  0  0
   42.2270   23.2770   36.1880 C   0  0  0  0  0  3  0  0  0  0  0  0
   42.0000   24.3380   36.2670 H   0  0  0  0  0  0  0  0  0  0  0  0
   43.7080   22.9580   36.4080 C   0  0  0  0  0  3  0  0  0  0  0  0
   44.3480   23.6170   35.7950 H   0  0  0  0  0  0  0  0  0  0  0  0
   43.8970   21.6800   35.9740 O   0  0  0  0  0  0  0  0  0  0  0  0
   43.1060   20.6990   36.4590 C   0  0  0  0  0  3  0  0  0  0  0  0
   42.7160   20.1230   35.5700 H   0  0  0  0  0  0  0  0  0  0  0  0
   41.9370   21.0580   37.2980 C   0  0  0  0  0  3  0  0  0  0  0  0
   42.1530   20.7580   38.3470 H   0  0  0  0  0  0  0  0  0  0  0  0
   37.6950   22.5080   34.4290 C   0  0  0  0  0  0  0  0  0  0  0  0
   37.9980   23.3190   33.3650 C   0  0  0  0  0  0  0  0  0  0  0  0
   37.5300   23.0830   32.0920 C   0  0  0  0  0  0  0  0  0  0  0  0
   36.7390   22.0130   31.8630 N   0  0  0  0  0  0  0  0  0  0  0  0
   36.4510   21.2330   32.9060 C   0  0  0  0  0  0  0  0  0  0  0  0
   36.9000   21.4540   34.1410 N   0  0  0  0  0  0  0  0  0  0  0  0
   38.6410   24.1770   33.5860 H   0  0  0  0  0  0  0  0  0  0  0  0
   37.8290   23.7920   31.3020 H   0  0  0  0  0  0  0  0  0  0  0  0
   35.5800   20.0470   32.6770 C   0  0  0  0  0  0  0  0  0  0  0  0
   34.3120   20.5060   32.3310 F   0  0  0  0  0  0  0  0  0  0  0  0
   36.1000   19.2450   31.6490 F   0  0  0  0  0  0  0  0  0  0  0  0
   35.4440   19.2760   33.7790 F   0  0  0  0  0  0  0  0  0  0  0  0
  1  6  1  0  0  0  0
  1  7  1  0  0  0  0
  2  1  2  0  0  0  0
  3  4  2  0  0  0  0
  3  2  1  0  0  0  0
  4  5  1  0  0  0  0
  5  9  1  0  0  0  0
  5  6  2  0  0  0  0
  8  2  1  0  0  0  0
 10 11  1  0  0  0  0
 10 12  1  0  0  0  0
 10  9  1  0  0  0  0
 13 12  1  0  0  0  0
 14 12  1  0  0  0  0
 14 15  1  0  0  0  0
 15 17  1  0  0  0  0
 16 15  1  0  0  0  0
 17  9  1  0  0  0  0
 17 18  1  0  0  0  0
 19  3  1  0  0  0  0
 20 25  1  0  0  0  0
 20 19  2  0  0  0  0
 21 20  1  0  0  0  0
 22 21  2  0  0  0  0
 22 23  1  0  0  0  0
 23 24  2  0  0  0  0
 24 19  1  0  0  0  0
 26 21  1  0  0  0  0
 27 23  1  0  0  0  0
 27 30  1  0  0  0  0
 28 27  1  0  0  0  0
 29 27  1  0  0  0  0
M  END
>  <minimizedAffinity>
-5.56654739

$$$$

 OpenBabel03272502243D

 30 32  0  0  0  0  0  0  0  0999 V2000
   36.1970   21.9800   32.0400 C   0  0  0  0  0  0  0  0  0  0  0  0
   36.9410   21.7590   33.2110 C   0  0  0  0  0  0  0  0  0  0  0  0
   37.7180   22.7990   33.6700 C   0  0  0  0  0  0  0  0  0  0  0  0
   37.7290   23.9700   32.9840 N   0  0  0  0  0  0  0  0  0  0  0  0
   37.0030   24.1540   31.8640 C   0  0  0  0  0  0  0  0  0  0  0  0
   36.2360   23.1490   31.3970 N   0  0  0  0  0  0  0  0  0  0  0  0
   35.5930   21.1640   31.6880 H   0  0  0  0  0  0  0  0  0  0  0  0
   36.9470   20.8330   33.7730 H   0  0  0  0  0  0  0  0  0  0  0  0
   37.0890   25.4760   31.1940 C   0  0  0  0  0  3  0  0  0  0  0  0
   38.5700   25.8500   31.1430 C   0  0  0  0  0  3  0  0  0  0  0  0
   39.1380   25.0950   30.6050 H   0  0  0  0  0  0  0  0  0  0  0  0
   38.5390   27.2050   30.4320 C   0  0  0  0  0  3  0  0  0  0  0  0
   39.5550   27.5150   30.1320 H   0  0  0  0  0  0  0  0  0  0  0  0
   38.0840   28.1110   31.3440 O   0  0  0  0  0  0  0  0  0  0  0  0
   36.9210   27.8650   31.9860 C   0  0  0  0  0  3  0  0  0  0  0  0
   37.1180   28.0140   33.0870 H   0  0  0  0  0  0  0  0  0  0  0  0
   36.2700   26.5430   31.8300 C   0  0  0  0  0  3  0  0  0  0  0  0
   35.3560   26.6730   31.2090 H   0  0  0  0  0  0  0  0  0  0  0  0
   38.5590   22.7370   34.8790 C   0  0  0  0  0  0  0  0  0  0  0  0
   39.8270   22.2130   34.8810 C   0  0  0  0  0  0  0  0  0  0  0  0
   40.6090   22.1570   36.0130 C   0  0  0  0  0  0  0  0  0  0  0  0
   40.1230   22.6340   37.1790 N   0  0  0  0  0  0  0  0  0  0  0  0
   38.8890   23.1410   37.1650 C   0  0  0  0  0  0  0  0  0  0  0  0
   38.1270   23.1990   36.0730 N   0  0  0  0  0  0  0  0  0  0  0  0
   40.1890   21.8350   33.9190 H   0  0  0  0  0  0  0  0  0  0  0  0
   41.6150   21.7170   35.9140 H   0  0  0  0  0  0  0  0  0  0  0  0
   38.3330   23.6730   38.4400 C   0  0  0  0  0  0  0  0  0  0  0  0
   37.2920   22.8390   38.8360 F   0  0  0  0  0  0  0  0  0  0  0  0
   39.3250   23.7120   39.4320 F   0  0  0  0  0  0  0  0  0  0  0  0
   37.8250   24.9200   38.3090 F   0  0  0  0  0  0  0  0  0  0  0  0
  1  2  1  0  0  0  0
  2  3  2  0  0  0  0
  2  8  1  0  0  0  0
  3 19  1  0  0  0  0
  4  3  1  0  0  0  0
  5  4  2  0  0  0  0
  6  5  1  0  0  0  0
  6  1  2  0  0  0  0
  7  1  1  0  0  0  0
  9 17  1  0  0  0  0
  9  5  1  0  0  0  0
 10  9  1  0  0  0  0
 11 10  1  0  0  0  0
 12 10  1  0  0  0  0
 12 14  1  0  0  0  0
 13 12  1  0  0  0  0
 14 15  1  0  0  0  0
 15 16  1  0  0  0  0
 17 15  1  0  0  0  0
 18 17  1  0  0  0  0
 19 20  2  0  0  0  0
 19 24  1  0  0  0  0
 20 21  1  0  0  0  0
 21 22  2  0  0  0  0
 23 22  1  0  0  0  0
 23 27  1  0  0  0  0
 24 23  2  0  0  0  0
 25 20  1  0  0  0  0
 26 21  1  0  0  0  0
 27 28  1  0  0  0  0
 27 29  1  0  0  0  0
 30 27  1  0  0  0  0
M  END
>  <minimizedAffinity>
-5.55094242

$$$$

 OpenBabel03272502243D

 30 32  0  0  0  0  0  0  0  0999 V2000
   38.5420   24.9260   30.4200 C   0  0  0  0  0  0  0  0  0  0  0  0
   38.6860   25.5400   31.6760 C   0  0  0  0  0  0  0  0  0  0  0  0
   38.0820   24.9260   32.7500 C   0  0  0  0  0  0  0  0  0  0  0  0
   37.3900   23.7760   32.5520 N   0  0  0  0  0  0  0  0  0  0  0  0
   37.2700   23.2080   31.3350 C   0  0  0  0  0  0  0  0  0  0  0  0
   37.8520   23.7930   30.2700 N   0  0  0  0  0  0  0  0  0  0  0  0
   39.0160   25.4110   29.5860 H   0  0  0  0  0  0  0  0  0  0  0  0
   39.2340   26.4570   31.8560 H   0  0  0  0  0  0  0  0  0  0  0  0
   36.4890   21.9500   31.2340 C   0  0  0  0  0  3  0  0  0  0  0  0
   35.5130   21.9390   32.4090 C   0  0  0  0  0  3  0  0  0  0  0  0
   34.8640   22.8110   32.3770 H   0  0  0  0  0  0  0  0  0  0  0  0
   34.7650   20.6210   32.1980 C   0  0  0  0  0  3  0  0  0  0  0  0
   33.8770   20.5620   32.8510 H   0  0  0  0  0  0  0  0  0  0  0  0
   35.6180   19.6260   32.5720 O   0  0  0  0  0  0  0  0  0  0  0  0
   36.8540   19.5830   32.0280 C   0  0  0  0  0  3  0  0  0  0  0  0
   37.5840   19.4780   32.8820 H   0  0  0  0  0  0  0  0  0  0  0  0
   37.3170   20.7140   31.1890 C   0  0  0  0  0  3  0  0  0  0  0  0
   37.3500   20.3750   30.1300 H   0  0  0  0  0  0  0  0  0  0  0  0
   38.1320   25.4340   34.1340 C   0  0  0  0  0  0  0  0  0  0  0  0
   38.2090   26.7690   34.4370 C   0  0  0  0  0  0  0  0  0  0  0  0
   38.2560   27.2390   35.7300 C   0  0  0  0  0  0  0  0  0  0  0  0
   38.2250   26.3610   36.7560 N   0  0  0  0  0  0  0  0  0  0  0  0
   38.1510   25.0650   36.4480 C   0  0  0  0  0  0  0  0  0  0  0  0
   38.1050   24.6030   35.1990 N   0  0  0  0  0  0  0  0  0  0  0  0
   38.2320   27.4530   33.5810 H   0  0  0  0  0  0  0  0  0  0  0  0
   38.3170   28.3300   35.8730 H   0  0  0  0  0  0  0  0  0  0  0  0
   38.1150   24.0790   37.5640 C   0  0  0  0  0  0  0  0  0  0  0  0
   37.8480   24.7720   38.7410 F   0  0  0  0  0  0  0  0  0  0  0  0
   37.1240   23.1130   37.3360 F   0  0  0  0  0  0  0  0  0  0  0  0
   39.2930   23.4360   37.7320 F   0  0  0  0  0  0  0  0  0  0  0  0
  1  2  1  0  0  0  0
  2  8  1  0  0  0  0
  2  3  2  0  0  0  0
  3 19  1  0  0  0  0
  4  3  1  0  0  0  0
  5  4  2  0  0  0  0
  6  1  2  0  0  0  0
  6  5  1  0  0  0  0
  7  1  1  0  0  0  0
  9  5  1  0  0  0  0
  9 10  1  0  0  0  0
 11 10  1  0  0  0  0
 12 10  1  0  0  0  0
 12 14  1  0  0  0  0
 12 13  1  0  0  0  0
 15 14  1  0  0  0  0
 15 16  1  0  0  0  0
 17  9  1  0  0  0  0
 17 15  1  0  0  0  0
 18 17  1  0  0  0  0
 19 20  2  0  0  0  0
 19 24  1  0  0  0  0
 20 21  1  0  0  0  0
 21 26  1  0  0  0  0
 21 22  2  0  0  0  0
 23 22  1  0  0  0  0
 23 27  1  0  0  0  0
 24 23  2  0  0  0  0
 25 20  1  0  0  0  0
 27 30  1  0  0  0  0
 27 28  1  0  0  0  0
 29 27  1  0  0  0  0
M  END
>  <minimizedAffinity>
-5.53947115

$$$$

 OpenBabel03272502243D

 30 32  0  0  0  0  0  0  0  0999 V2000
   37.9290   24.8500   31.7090 C   0  0  0  0  0  0  0  0  0  0  0  0
   38.3130   24.1770   32.8810 C   0  0  0  0  0  0  0  0  0  0  0  0
   38.1430   24.8420   34.0740 C   0  0  0  0  0  0  0  0  0  0  0  0
   37.6200   26.0950   34.0650 N   0  0  0  0  0  0  0  0  0  0  0  0
   37.2600   26.7160   32.9250 C   0  0  0  0  0  0  0  0  0  0  0  0
   37.4180   26.0830   31.7450 N   0  0  0  0  0  0  0  0  0  0  0  0
   38.0650   24.3240   30.7810 H   0  0  0  0  0  0  0  0  0  0  0  0
   38.7320   23.1780   32.9110 H   0  0  0  0  0  0  0  0  0  0  0  0
   36.6990   28.0860   33.0310 C   0  0  0  0  0  3  0  0  0  0  0  0
   36.3000   28.2880   34.4920 C   0  0  0  0  0  3  0  0  0  0  0  0
   37.1590   28.1600   35.1460 H   0  0  0  0  0  0  0  0  0  0  0  0
   35.7540   29.7170   34.4850 C   0  0  0  0  0  3  0  0  0  0  0  0
   35.6130   30.0910   35.5150 H   0  0  0  0  0  0  0  0  0  0  0  0
   34.5250   29.6600   33.8970 O   0  0  0  0  0  0  0  0  0  0  0  0
   34.4080   29.0820   32.6810 C   0  0  0  0  0  3  0  0  0  0  0  0
   33.5550   28.3460   32.7500 H   0  0  0  0  0  0  0  0  0  0  0  0
   35.5680   28.3620   32.1050 C   0  0  0  0  0  3  0  0  0  0  0  0
   35.9700   28.9640   31.2600 H   0  0  0  0  0  0  0  0  0  0  0  0
   38.4920   24.2850   35.3940 C   0  0  0  0  0  0  0  0  0  0  0  0
   37.7190   24.4720   36.5120 C   0  0  0  0  0  0  0  0  0  0  0  0
   38.0500   23.9500   37.7420 C   0  0  0  0  0  0  0  0  0  0  0  0
   39.1790   23.2200   37.8720 N   0  0  0  0  0  0  0  0  0  0  0  0
   39.9220   23.0460   36.7780 C   0  0  0  0  0  0  0  0  0  0  0  0
   39.6090   23.5480   35.5840 N   0  0  0  0  0  0  0  0  0  0  0  0
   36.8110   25.0680   36.3710 H   0  0  0  0  0  0  0  0  0  0  0  0
   37.3650   24.1540   38.5810 H   0  0  0  0  0  0  0  0  0  0  0  0
   41.1720   22.2450   36.8980 C   0  0  0  0  0  0  0  0  0  0  0  0
   42.2450   23.1290   36.9610 F   0  0  0  0  0  0  0  0  0  0  0  0
   41.1350   21.4450   38.0500 F   0  0  0  0  0  0  0  0  0  0  0  0
   41.3780   21.4350   35.8340 F   0  0  0  0  0  0  0  0  0  0  0  0
  1  6  2  0  0  0  0
  1  2  1  0  0  0  0
  2  8  1  0  0  0  0
  2  3  2  0  0  0  0
  3 19  1  0  0  0  0
  4  3  1  0  0  0  0
  5  9  1  0  0  0  0
  5  4  2  0  0  0  0
  6  5  1  0  0  0  0
  7  1  1  0  0  0  0
  9 10  1  0  0  0  0
 10 11  1  0  0  0  0
 12 10  1  0  0  0  0
 12 13  1  0  0  0  0
 14 12  1  0  0  0  0
 15 16  1  0  0  0  0
 15 14  1  0  0  0  0
 17 15  1  0  0  0  0
 17  9  1  0  0  0  0
 18 17  1  0  0  0  0
 19 24  2  0  0  0  0
 19 20  1  0  0  0  0
 20 21  2  0  0  0  0
 21 22  1  0  0  0  0
 21 26  1  0  0  0  0
 23 27  1  0  0  0  0
 23 22  2  0  0  0  0
 24 23  1  0  0  0  0
 25 20  1  0  0  0  0
 27 28  1  0  0  0  0
 27 29  1  0  0  0  0
 30 27  1  0  0  0  0
M  END
>  <minimizedAffinity>
-5.47997999

$$$$

 OpenBabel03272502243D

 30 32  0  0  0  0  0  0  0  0999 V2000
   37.2310   26.8210   33.7690 C   0  0  0  0  0  0  0  0  0  0  0  0
   37.7500   26.3040   34.9670 C   0  0  0  0  0  0  0  0  0  0  0  0
   37.9880   24.9490   35.0180 C   0  0  0  0  0  0  0  0  0  0  0  0
   37.7160   24.1880   33.9280 N   0  0  0  0  0  0  0  0  0  0  0  0
   37.2190   24.7120   32.7900 C   0  0  0  0  0  0  0  0  0  0  0  0
   36.9780   26.0360   32.7190 N   0  0  0  0  0  0  0  0  0  0  0  0
   37.0480   27.8800   33.7370 H   0  0  0  0  0  0  0  0  0  0  0  0
   37.9740   26.8920   35.8490 H   0  0  0  0  0  0  0  0  0  0  0  0
   36.9590   23.7870   31.6590 C   0  0  0  0  0  3  0  0  0  0  0  0
   36.3060   22.5380   32.2490 C   0  0  0  0  0  3  0  0  0  0  0  0
   35.3870   22.7950   32.7700 H   0  0  0  0  0  0  0  0  0  0  0  0
   36.0760   21.6740   31.0080 C   0  0  0  0  0  3  0  0  0  0  0  0
   35.4190   20.8170   31.2410 H   0  0  0  0  0  0  0  0  0  0  0  0
   37.2940   21.1750   30.6520 O   0  0  0  0  0  0  0  0  0  0  0  0
   38.3240   22.0290   30.4720 C   0  0  0  0  0  3  0  0  0  0  0  0
   39.1930   21.6230   31.0670 H   0  0  0  0  0  0  0  0  0  0  0  0
   38.1610   23.4530   30.8470 C   0  0  0  0  0  3  0  0  0  0  0  0
   38.1100   24.0580   29.9150 H   0  0  0  0  0  0  0  0  0  0  0  0
   38.5300   24.2430   36.1940 C   0  0  0  0  0  0  0  0  0  0  0  0
   37.9330   24.2810   37.4280 C   0  0  0  0  0  0  0  0  0  0  0  0
   38.4420   23.6210   38.5230 C   0  0  0  0  0  0  0  0  0  0  0  0
   39.5770   22.9000   38.3950 N   0  0  0  0  0  0  0  0  0  0  0  0
   40.1480   22.8710   37.1900 C   0  0  0  0  0  0  0  0  0  0  0  0
   39.6610   23.5070   36.1250 N   0  0  0  0  0  0  0  0  0  0  0  0
   37.0150   24.8740   37.4970 H   0  0  0  0  0  0  0  0  0  0  0  0
   37.8900   23.7110   39.4740 H   0  0  0  0  0  0  0  0  0  0  0  0
   41.4010   22.0820   37.0250 C   0  0  0  0  0  0  0  0  0  0  0  0
   41.2860   21.3330   35.8580 F   0  0  0  0  0  0  0  0  0  0  0  0
   42.5130   22.9340   36.9460 F   0  0  0  0  0  0  0  0  0  0  0  0
   41.6110   21.2160   38.0430 F   0  0  0  0  0  0  0  0  0  0  0  0
  1  2  1  0  0  0  0
  2  3  2  0  0  0  0
  2  8  1  0  0  0  0
  3 19  1  0  0  0  0
  4  3  1  0  0  0  0
  5  4  2  0  0  0  0
  6  5  1  0  0  0  0
  6  1  2  0  0  0  0
  7  1  1  0  0  0  0
  9 10  1  0  0  0  0
  9  5  1  0  0  0  0
 10 11  1  0  0  0  0
 12 13  1  0  0  0  0
 12 10  1  0  0  0  0
 14 12  1  0  0  0  0
 15 14  1  0  0  0  0
 15 17  1  0  0  0  0
 15 16  1  0  0  0  0
 17  9  1  0  0  0  0
 18 17  1  0  0  0  0
 19 20  1  0  0  0  0
 20 25  1  0  0  0  0
 20 21  2  0  0  0  0
 21 26  1  0  0  0  0
 22 21  1  0  0  0  0
 23 22  2  0  0  0  0
 24 19  2  0  0  0  0
 24 23  1  0  0  0  0
 27 23  1  0  0  0  0
 27 30  1  0  0  0  0
 28 27  1  0  0  0  0
 29 27  1  0  0  0  0
M  END
>  <minimizedAffinity>
-5.43271542

$$$$
