REMARK  Name = 
REMARK  2 active torsions:
REMARK  status: ('A' for Active; 'I' for Inactive)
REMARK    1  A    between atoms: C_2  and  C_7
REMARK    2  A    between atoms: N_10  and  C_17
REMARK                            x       y       z     vdW  Elec       q    Type
REMARK                         _______ _______ _______ _____ _____    ______ ____
ROOT
ATOM      1  C   UNL     1      37.946  32.023  48.970  0.00  0.00    +0.000 A 
ATOM      2  C   UNL     1      38.543  31.741  47.752  0.00  0.00    +0.000 A 
ATOM      3  C   UNL     1      39.276  32.845  47.346  0.00  0.00    +0.000 A 
ATOM      4  N   UNL     1      39.114  33.773  48.318  0.00  0.00    +0.000 N 
ATOM      5  N   UNL     1      38.331  33.249  49.243  0.00  0.00    +0.000 NA
ATOM      6  H   UNL     1      38.486  30.820  47.155  0.00  0.00    +0.000 HD
ATOM      7  H   UNL     1      39.860  32.972  46.457  0.00  0.00    +0.000 HD
ENDROOT
BRANCH   4   8
ATOM      8  C   UNL     1      39.654  35.111  48.412  0.00  0.00    +0.000 C 
ATOM      9  C   UNL     1      39.981  35.670  47.053  0.00  0.00    +0.000 C 
ATOM     10  H   UNL     1      40.880  35.145  46.667  0.00  0.00    +0.000 HD
ATOM     11  C   UNL     1      40.346  37.131  47.188  0.00  0.00    +0.000 C 
ATOM     12  H   UNL     1      41.344  37.275  47.645  0.00  0.00    +0.000 HD
ATOM     13  O   UNL     1      39.426  37.848  47.917  0.00  0.00    +0.000 OA
ATOM     14  C   UNL     1      39.234  37.353  49.207  0.00  0.00    +0.000 C 
ATOM     15  H   UNL     1      40.214  37.120  49.705  0.00  0.00    +0.000 HD
ATOM     16  C   UNL     1      38.564  35.987  49.036  0.00  0.00    +0.000 C 
ATOM     17  H   UNL     1      38.266  35.573  50.001  0.00  0.00    +0.000 HD
ENDBRANCH   4   8
BRANCH   1  19
ATOM     18  C   UNL     1      37.485  30.485  50.894  0.00  0.00    +0.000 A 
ATOM     19  C   UNL     1      37.111  31.091  49.678  0.00  0.00    +0.000 A 
ATOM     20  C   UNL     1      35.862  30.748  49.163  0.00  0.00    +0.000 A 
ATOM     21  N   UNL     1      35.084  29.858  49.855  0.00  0.00    +0.000 NA
ATOM     22  C   UNL     1      35.484  29.304  51.015  0.00  0.00    +0.000 A 
ATOM     23  N   UNL     1      36.695  29.621  51.538  0.00  0.00    +0.000 NA
ATOM     24  H   UNL     1      38.472  30.802  51.234  0.00  0.00    +0.000 HD
ATOM     25  H   UNL     1      35.502  31.178  48.221  0.00  0.00    +0.000 HD
ATOM     26  H   UNL     1      34.873  28.608  51.553  0.00  0.00    +0.000 HD
ENDBRANCH   1  19
TORSDOF 2
