
 OpenBabel03272507533D

 33 35  0  0  0  0  0  0  0  0999 V2000
   36.5330   31.2210   48.6880 N   0  0  0  0  0  0  0  0  0  0  0  0
   36.8270   32.0440   49.6890 C   0  0  0  0  0  0  0  0  0  0  0  0
   37.8970   32.9320   49.5580 C   0  0  0  0  0  0  0  0  0  0  0  0
   38.5610   32.8660   48.3720 C   0  0  0  0  0  0  0  0  0  0  0  0
   39.5280   33.6880   48.2870 O   0  0  0  0  0  0  0  0  0  0  0  0
   38.2990   32.0610   47.3500 N   0  0  0  0  0  0  0  0  0  0  0  0
   37.2540   31.2240   47.5290 C   0  0  0  0  0  0  0  0  0  0  0  0
   36.9840   30.4390   46.5560 O   0  0  0  0  0  0  0  0  0  0  0  0
   36.2100   31.9850   50.5750 H   0  0  0  0  0  0  0  0  0  0  0  0
   38.0960   33.5710   50.3820 H   0  0  0  0  0  0  0  0  0  0  0  0
   39.0950   32.1220   46.1780 C   0  0  0  0  0  3  0  0  0  0  0  0
   40.1810   31.0850   46.0790 C   0  0  0  0  0  3  0  0  0  0  0  0
   40.8120   31.2100   46.9930 H   0  0  0  0  0  0  0  0  0  0  0  0
   41.0490   31.4120   44.8850 C   0  0  0  0  0  3  0  0  0  0  0  0
   42.0650   31.7670   45.1670 H   0  0  0  0  0  0  0  0  0  0  0  0
   40.4420   32.2690   43.9760 O   0  0  0  0  0  0  0  0  0  0  0  0
   40.1310   33.5140   44.4810 C   0  0  0  0  0  3  0  0  0  0  0  0
   39.2370   33.8800   43.8950 H   0  0  0  0  0  0  0  0  0  0  0  0
   39.7830   33.4510   45.9700 C   0  0  0  0  0  3  0  0  0  0  0  0
   40.7840   33.4040   46.4750 H   0  0  0  0  0  0  0  0  0  0  0  0
   35.2830   29.5610   49.9500 C   0  0  0  0  0  0  0  0  0  0  0  0
   35.4530   30.2810   48.7470 C   0  0  0  0  0  0  0  0  0  0  0  0
   34.5730   30.0420   47.6880 C   0  0  0  0  0  0  0  0  0  0  0  0
   33.5890   29.1200   47.8740 N   0  0  0  0  0  0  0  0  0  0  0  0
   33.4360   28.4490   49.0040 C   0  0  0  0  0  0  0  0  0  0  0  0
   34.2760   28.6650   50.0350 N   0  0  0  0  0  0  0  0  0  0  0  0
   34.7170   30.6010   46.7780 H   0  0  0  0  0  0  0  0  0  0  0  0
   32.6450   27.7210   49.1250 H   0  0  0  0  0  0  0  0  0  0  0  0
   37.3840   29.1930   51.4430 C   0  0  0  0  0  0  0  0  0  0  0  0
   38.0610   28.5050   50.6600 O   0  0  0  0  0  0  0  0  0  0  0  0
   36.1050   29.7360   51.0830 N   0  0  0  0  0  0  0  0  0  0  0  0
   37.8500   29.3340   52.3920 H   0  0  0  0  0  0  0  0  0  0  0  0
   35.7700   30.3840   51.8520 H   0  0  0  0  0  0  0  0  0  0  0  0
  1 22  1  0  0  0  0
  1  2  1  0  0  0  0
  2  9  1  0  0  0  0
  3  2  2  0  0  0  0
  3 10  1  0  0  0  0
  4  3  1  0  0  0  0
  5  4  2  0  0  0  0
  6  7  1  0  0  0  0
  6  4  1  0  0  0  0
  7  1  1  0  0  0  0
  8  7  2  0  0  0  0
 11  6  1  0  0  0  0
 12 11  1  0  0  0  0
 12 13  1  0  0  0  0
 14 15  1  0  0  0  0
 14 12  1  0  0  0  0
 16 17  1  0  0  0  0
 16 14  1  0  0  0  0
 17 19  1  0  0  0  0
 18 17  1  0  0  0  0
 19 11  1  0  0  0  0
 19 20  1  0  0  0  0
 21 26  1  0  0  0  0
 21 31  1  0  0  0  0
 22 21  2  0  0  0  0
 23 24  2  0  0  0  0
 23 22  1  0  0  0  0
 24 25  1  0  0  0  0
 25 28  1  0  0  0  0
 25 26  2  0  0  0  0
 27 23  1  0  0  0  0
 29 32  1  0  0  0  0
 30 29  2  0  0  0  0
 31 29  1  0  0  0  0
 31 33  1  0  0  0  0
M  END
>  <minimizedAffinity>
-6.32479

>  <minimizedRMSD>
1.3245728

$$$$
