
 OpenBabel03272505273D

 32 34  0  0  0  0  0  0  0  0999 V2000
   37.3860   31.0760   47.1370 N   0  0  0  0  0  0  0  0  0  0  0  0
   36.8000   30.7450   45.9550 C   0  0  0  0  0  0  0  0  0  0  0  0
   37.2650   31.2310   44.7400 C   0  0  0  0  0  0  0  0  0  0  0  0
   38.3780   32.0900   44.7760 C   0  0  0  0  0  0  0  0  0  0  0  0
   38.8300   32.5510   43.7040 O   0  0  0  0  0  0  0  0  0  0  0  0
   38.9610   32.4150   45.9730 N   0  0  0  0  0  0  0  0  0  0  0  0
   38.4220   31.8850   47.0620 C   0  0  0  0  0  0  0  0  0  0  0  0
   38.9830   32.2100   48.1350 O   0  0  0  0  0  0  0  0  0  0  0  0
   35.9430   30.0810   45.9530 H   0  0  0  0  0  0  0  0  0  0  0  0
   36.6010   30.8480   43.5040 C   0  0  0  0  0  3  0  0  0  0  0  0
   37.4940   30.0550   42.5640 C   0  0  0  0  0  3  0  0  0  0  0  0
   38.3220   30.7140   42.1910 H   0  0  0  0  0  0  0  0  0  0  0  0
   36.6540   29.7090   41.3540 C   0  0  0  0  0  3  0  0  0  0  0  0
   36.9510   30.2960   40.4480 H   0  0  0  0  0  0  0  0  0  0  0  0
   35.3010   29.9550   41.5370 O   0  0  0  0  0  0  0  0  0  0  0  0
   35.0160   31.2970   41.7370 C   0  0  0  0  0  3  0  0  0  0  0  0
   34.9240   31.8490   40.7960 H   0  0  0  0  0  0  0  0  0  0  0  0
   36.0080   31.9620   42.7010 C   0  0  0  0  0  3  0  0  0  0  0  0
   35.5080   32.7370   43.3140 H   0  0  0  0  0  0  0  0  0  0  0  0
   37.2280   29.4460   50.4680 C   0  0  0  0  0  0  0  0  0  0  0  0
   37.7180   29.9420   49.2490 C   0  0  0  0  0  0  0  0  0  0  0  0
   36.8990   30.5750   48.3490 C   0  0  0  0  0  0  0  0  0  0  0  0
   35.5790   30.7070   48.6760 N   0  0  0  0  0  0  0  0  0  0  0  0
   35.0830   30.2330   49.8500 C   0  0  0  0  0  0  0  0  0  0  0  0
   35.8980   29.6060   50.7430 N   0  0  0  0  0  0  0  0  0  0  0  0
   37.8080   28.9430   51.2180 H   0  0  0  0  0  0  0  0  0  0  0  0
   38.7630   29.7350   49.1720 H   0  0  0  0  0  0  0  0  0  0  0  0
   34.0260   30.3800   50.0290 H   0  0  0  0  0  0  0  0  0  0  0  0
   40.1140   33.2960   46.0020 C   0  0  0  0  0  0  0  0  0  0  0  0
   39.9920   34.2720   45.0680 F   0  0  0  0  0  0  0  0  0  0  0  0
   41.2950   32.6320   45.7180 F   0  0  0  0  0  0  0  0  0  0  0  0
   40.1860   33.9000   47.2520 F   0  0  0  0  0  0  0  0  0  0  0  0
  1 22  1  0  0  0  0
  2  1  1  0  0  0  0
  3  4  1  0  0  0  0
  3  2  2  0  0  0  0
  4  6  1  0  0  0  0
  5  4  2  0  0  0  0
  6 29  1  0  0  0  0
  6  7  1  0  0  0  0
  7  1  1  0  0  0  0
  7  8  2  0  0  0  0
  9  2  1  0  0  0  0
 10  3  1  0  0  0  0
 11 10  1  0  0  0  0
 12 11  1  0  0  0  0
 13 15  1  0  0  0  0
 13 11  1  0  0  0  0
 14 13  1  0  0  0  0
 15 16  1  0  0  0  0
 16 18  1  0  0  0  0
 17 16  1  0  0  0  0
 18 19  1  0  0  0  0
 18 10  1  0  0  0  0
 20 25  1  0  0  0  0
 20 26  1  0  0  0  0
 21 20  2  0  0  0  0
 22 23  2  0  0  0  0
 22 21  1  0  0  0  0
 23 24  1  0  0  0  0
 24 28  1  0  0  0  0
 24 25  2  0  0  0  0
 27 21  1  0  0  0  0
 29 32  1  0  0  0  0
 30 29  1  0  0  0  0
 31 29  1  0  0  0  0
M  END
>  <minimizedAffinity>
-6.09045553

>  <minimizedRMSD>
0.260163337

$$$$
