
 OpenBabel03272509093D

 41 44  0  0  0  0  0  0  0  0999 V2000
   33.0940   28.0170   48.0200 C   0  0  0  0  0  0  0  0  0  0  0  0
   32.2680   28.6610   47.7100 H   0  0  0  0  0  0  0  0  0  0  0  0
   32.6650   27.4040   48.8690 H   0  0  0  0  0  0  0  0  0  0  0  0
   33.5100   27.0050   47.0170 C   0  0  0  0  0  0  0  0  0  0  0  0
   33.7110   25.6570   47.3050 C   0  0  0  0  0  0  0  0  0  0  0  0
   34.0940   24.7640   46.3330 C   0  0  0  0  0  0  0  0  0  0  0  0
   34.2890   25.1960   45.0230 C   0  0  0  0  0  0  0  0  0  0  0  0
   34.0930   26.5140   44.7390 C   0  0  0  0  0  0  0  0  0  0  0  0
   33.7090   27.4190   45.7130 C   0  0  0  0  0  0  0  0  0  0  0  0
   33.5280   25.4420   48.3580 H   0  0  0  0  0  0  0  0  0  0  0  0
   34.1950   23.7770   46.7630 H   0  0  0  0  0  0  0  0  0  0  0  0
   34.5880   24.4040   44.3530 H   0  0  0  0  0  0  0  0  0  0  0  0
   34.2740   26.7380   43.6980 H   0  0  0  0  0  0  0  0  0  0  0  0
   33.5580   28.8040   45.2100 C   0  0  0  0  0  3  0  0  0  0  0  0
   34.9510   29.3270   44.8750 C   0  0  0  0  0  3  0  0  0  0  0  0
   35.4620   28.4680   44.3500 H   0  0  0  0  0  0  0  0  0  0  0  0
   34.9260   30.5340   43.9890 C   0  0  0  0  0  3  0  0  0  0  0  0
   35.1400   31.4560   44.5730 H   0  0  0  0  0  0  0  0  0  0  0  0
   33.8120   30.6470   43.1900 O   0  0  0  0  0  0  0  0  0  0  0  0
   33.4460   29.3450   42.7840 C   0  0  0  0  0  3  0  0  0  0  0  0
   34.3570   28.7560   42.5590 H   0  0  0  0  0  0  0  0  0  0  0  0
   32.6770   28.7820   43.9860 C   0  0  0  0  0  3  0  0  0  0  0  0
   32.2130   27.8240   43.7610 H   0  0  0  0  0  0  0  0  0  0  0  0
   35.0950   28.3120   49.4910 C   0  0  0  0  0  3  0  0  0  0  0  0
   34.2170   28.7530   48.6240 C   0  0  0  0  0  3  0  0  0  0  0  0
   37.3980   30.2000   51.5960 C   0  0  0  0  0  0  0  0  0  0  0  0
   38.0900   30.9770   50.6360 C   0  0  0  0  0  0  0  0  0  0  0  0
   37.7360   30.8210   49.2870 C   0  0  0  0  0  0  0  0  0  0  0  0
   36.7440   29.9320   48.9650 N   0  0  0  0  0  0  0  0  0  0  0  0
   36.1240   29.2210   49.9480 C   0  0  0  0  0  0  0  0  0  0  0  0
   36.4450   29.3540   51.2330 N   0  0  0  0  0  0  0  0  0  0  0  0
   37.6880   30.3340   52.6450 H   0  0  0  0  0  0  0  0  0  0  0  0
   38.8690   31.6760   50.8750 H   0  0  0  0  0  0  0  0  0  0  0  0
   38.3850   31.5760   48.2090 C   0  0  0  0  0  0  0  0  0  0  0  0
   38.5880   31.0510   46.9560 C   0  0  0  0  0  0  0  0  0  0  0  0
   39.2200   32.0310   46.1900 C   0  0  0  0  0  0  0  0  0  0  0  0
   39.3750   33.1050   47.0050 N   0  0  0  0  0  0  0  0  0  0  0  0
   38.8750   32.8180   48.1940 N   0  0  0  0  0  0  0  0  0  0  0  0
   38.3080   30.0570   46.6210 H   0  0  0  0  0  0  0  0  0  0  0  0
   39.5220   31.9350   45.1520 H   0  0  0  0  0  0  0  0  0  0  0  0
   39.8190   34.0110   46.7300 H   0  0  0  0  0  0  0  0  0  0  0  0
  1 25  1  0  0  0  0
  1  3  1  0  0  0  0
  2  1  1  0  0  0  0
  4  5  1  0  0  0  0
  4  1  1  0  0  0  0
  5 10  1  0  0  0  0
  6 11  1  0  0  0  0
  6  5  2  0  0  0  0
  7  6  1  0  0  0  0
  8  7  2  0  0  0  0
  8  9  1  0  0  0  0
  9  4  2  0  0  0  0
 12  7  1  0  0  0  0
 13  8  1  0  0  0  0
 14  9  1  0  0  0  0
 15 14  1  0  0  0  0
 16 15  1  0  0  0  0
 17 18  1  0  0  0  0
 17 15  1  0  0  0  0
 19 17  1  0  0  0  0
 20 19  1  0  0  0  0
 20 22  1  0  0  0  0
 21 20  1  0  0  0  0
 22 14  1  0  0  0  0
 23 22  1  0  0  0  0
 24 30  1  0  0  0  0
 25 24  2  0  0  0  0
 26 32  1  0  0  0  0
 27 33  1  0  0  0  0
 27 26  2  0  0  0  0
 28 27  1  0  0  0  0
 29 28  2  0  0  0  0
 29 30  1  0  0  0  0
 30 31  2  0  0  0  0
 31 26  1  0  0  0  0
 34 28  1  0  0  0  0
 35 34  1  0  0  0  0
 36 35  2  0  0  0  0
 36 37  1  0  0  0  0
 37 38  1  0  0  0  0
 38 34  2  0  0  0  0
 39 35  1  0  0  0  0
 40 36  1  0  0  0  0
 41 37  1  0  0  0  0
M  END
>  <minimizedAffinity>
-6.22232962

>  <minimizedRMSD>
0.497234195

$$$$
