
 OpenBabel03272501403D

 46 50  0  0  1  0  0  0  0  0999 V2000
   37.5620   30.6690   50.7180 C   0  0  0  0  0  0  0  0  0  0  0  0
   38.2980   31.3480   49.7760 C   0  0  0  0  0  0  0  0  0  0  0  0
   37.9460   31.3820   48.4210 C   0  0  0  0  0  0  0  0  0  0  0  0
   36.8650   30.7350   48.0720 N   0  0  0  0  0  0  0  0  0  0  0  0
   36.1360   30.0610   49.0160 C   0  0  0  0  0  0  0  0  0  0  0  0
   36.4720   30.0250   50.3010 N   0  0  0  0  0  0  0  0  0  0  0  0
   37.8510   30.6530   51.7600 H   0  0  0  0  0  0  0  0  0  0  0  0
   39.1840   31.8640   50.1560 H   0  0  0  0  0  0  0  0  0  0  0  0
   34.9190   29.3470   48.6410 C   0  0  0  0  0  0  0  0  0  0  0  0
   34.1090   28.4930   49.3730 C   0  0  0  0  0  0  0  0  0  0  0  0
   33.0120   27.9660   48.8050 C   0  0  0  0  0  0  0  0  0  0  0  0
   32.7680   28.3350   47.4790 C   0  0  0  0  0  0  0  0  0  0  0  0
   34.1510   29.4570   47.0550 S   0  0  0  0  0  0  0  0  0  0  0  0
   34.4210   28.2950   50.3910 H   0  0  0  0  0  0  0  0  0  0  0  0
   32.3180   27.2940   49.2870 H   0  0  0  0  0  0  0  0  0  0  0  0
   31.7030   27.9910   46.5140 C   0  0  0  0  0  0  0  0  0  0  0  0
   30.7480   29.1330   46.4350 C   0  0  0  0  0  0  0  0  0  0  0  0
   30.4980   29.3370   45.3680 H   0  0  0  0  0  0  0  0  0  0  0  0
   29.4700   28.9460   47.1920 C   0  0  0  0  0  0  0  0  0  0  0  0
   28.7040   29.6180   46.7080 H   0  0  0  0  0  0  0  0  0  0  0  0
   28.9540   27.6720   47.1400 O   0  0  0  0  0  0  0  0  0  0  0  0
   29.8530   26.7750   47.7140 C   0  0  0  0  0  0  0  0  0  0  0  0
   30.0700   26.9790   48.7630 H   0  0  0  0  0  0  0  0  0  0  0  0
   31.0470   26.6670   46.8240 C   0  0  0  0  0  0  0  0  0  0  0  0
   31.7740   25.9660   47.2530 H   0  0  0  0  0  0  0  0  0  0  0  0
   38.8750   32.0570   47.5560 C   0  0  1  0  0  0  0  0  0  0  0  0
   39.8570   31.7400   48.0960 H   0  0  0  0  0  0  0  0  0  0  0  0
   38.9960   31.5190   46.1450 C   0  0  2  0  0  0  0  0  0  0  0  0
   40.4660   31.1460   45.9450 C   0  0  0  0  0  0  0  0  0  0  0  0
   39.7890   32.2170   45.1650 C   0  0  1  0  0  0  0  0  0  0  0  0
   38.2530   30.7210   45.9420 H   0  0  0  0  0  0  0  0  0  0  0  0
   41.2780   31.4940   46.5830 H   0  0  0  0  0  0  0  0  0  0  0  0
   40.6330   30.1590   45.4820 H   0  0  0  0  0  0  0  0  0  0  0  0
   39.9390   33.2950   45.3890 H   0  0  0  0  0  0  0  0  0  0  0  0
   39.7710   31.9700   43.7170 C   0  0  0  0  0  0  0  0  0  0  0  0
   39.0910   32.8620   42.9290 C   0  0  0  0  0  0  0  0  0  0  0  0
   39.1100   32.6250   41.5770 C   0  0  0  0  0  0  0  0  0  0  0  0
   39.7680   31.5540   41.0010 C   0  0  0  0  0  0  0  0  0  0  0  0
   40.4410   30.6780   41.8310 C   0  0  0  0  0  0  0  0  0  0  0  0
   40.4300   30.8980   43.1590 N   0  0  0  0  0  0  0  0  0  0  0  0
   38.5690   33.7060   43.3520 H   0  0  0  0  0  0  0  0  0  0  0  0
   38.5990   33.2790   40.8750 H   0  0  0  0  0  0  0  0  0  0  0  0
   39.8270   31.3050   39.9640 H   0  0  0  0  0  0  0  0  0  0  0  0
   41.0100   29.7880   41.5710 H   0  0  0  0  0  0  0  0  0  0  0  0
   39.1060   33.3360   47.6560 O   0  0  0  0  0  0  0  0  0  0  0  0
   38.3970   33.9350   47.3590 H   0  0  0  0  0  0  0  0  0  0  0  0
  1  7  1  0  0  0  0
  2  8  1  0  0  0  0
  2  1  2  0  0  0  0
  3  2  1  0  0  0  0
  4  3  2  0  0  0  0
  4  5  1  0  0  0  0
  5  6  2  0  0  0  0
  6  1  1  0  0  0  0
  9  5  1  0  0  0  0
  9 10  2  0  0  0  0
 10 14  1  0  0  0  0
 11 15  1  0  0  0  0
 11 10  1  0  0  0  0
 12 11  2  0  0  0  0
 13 12  1  0  0  0  0
 13  9  1  0  0  0  0
 16 24  1  0  0  0  0
 16 12  1  0  0  0  0
 17 16  1  0  0  0  0
 17 19  1  0  0  0  0
 18 17  1  0  0  0  0
 20 19  1  0  0  0  0
 21 19  1  0  0  0  0
 21 22  1  0  0  0  0
 22 23  1  0  0  0  0
 24 25  1  0  0  0  0
 24 22  1  0  0  0  0
 26 45  1  0  0  0  0
 26 27  1  1  0  0  0
 26  3  1  0  0  0  0
 28 31  1  6  0  0  0
 28 26  1  0  0  0  0
 29 28  1  0  0  0  0
 29 32  1  0  0  0  0
 30 34  1  1  0  0  0
 30 29  1  0  0  0  0
 30 28  1  0  0  0  0
 33 29  1  0  0  0  0
 35 30  1  0  0  0  0
 36 41  1  0  0  0  0
 36 35  2  0  0  0  0
 37 36  1  0  0  0  0
 38 37  2  0  0  0  0
 38 39  1  0  0  0  0
 39 40  2  0  0  0  0
 40 35  1  0  0  0  0
 42 37  1  0  0  0  0
 43 38  1  0  0  0  0
 44 39  1  0  0  0  0
 46 45  1  0  0  0  0
M  END
>  <minimizedAffinity>
-6.86904478

>  <minimizedRMSD>
1.48014545

$$$$
