
 OpenBabel03272509093D

 41 44  0  0  0  0  0  0  0  0999 V2000
   33.1490   28.0110   47.9360 C   0  0  0  0  0  0  0  0  0  0  0  0
   32.3040   28.6500   47.6650 H   0  0  0  0  0  0  0  0  0  0  0  0
   32.7450   27.3530   48.7640 H   0  0  0  0  0  0  0  0  0  0  0  0
   33.5710   27.0520   46.8860 C   0  0  0  0  0  0  0  0  0  0  0  0
   33.7350   25.6850   47.0960 C   0  0  0  0  0  0  0  0  0  0  0  0
   34.1260   24.8430   46.0830 C   0  0  0  0  0  0  0  0  0  0  0  0
   34.3680   25.3490   44.8080 C   0  0  0  0  0  0  0  0  0  0  0  0
   34.2090   26.6850   44.5980 C   0  0  0  0  0  0  0  0  0  0  0  0
   33.8160   27.5380   45.6140 C   0  0  0  0  0  0  0  0  0  0  0  0
   33.5170   25.4110   48.1300 H   0  0  0  0  0  0  0  0  0  0  0  0
   34.1930   23.8300   46.4550 H   0  0  0  0  0  0  0  0  0  0  0  0
   34.6690   24.5910   44.0990 H   0  0  0  0  0  0  0  0  0  0  0  0
   34.4250   26.9670   43.5780 H   0  0  0  0  0  0  0  0  0  0  0  0
   33.7100   28.9540   45.1930 C   0  0  0  0  0  3  0  0  0  0  0  0
   35.0710   29.3810   44.6560 C   0  0  0  0  0  3  0  0  0  0  0  0
   35.4170   28.5110   44.0240 H   0  0  0  0  0  0  0  0  0  0  0  0
   35.0120   30.6290   43.8320 C   0  0  0  0  0  3  0  0  0  0  0  0
   35.3950   31.5000   44.4060 H   0  0  0  0  0  0  0  0  0  0  0  0
   33.7990   30.8710   43.2280 O   0  0  0  0  0  0  0  0  0  0  0  0
   33.2620   29.6240   42.8390 C   0  0  0  0  0  3  0  0  0  0  0  0
   34.0710   28.9760   42.4470 H   0  0  0  0  0  0  0  0  0  0  0  0
   32.6460   29.0650   44.1280 C   0  0  0  0  0  3  0  0  0  0  0  0
   32.0710   28.1610   43.9480 H   0  0  0  0  0  0  0  0  0  0  0  0
   35.0850   28.3250   49.4870 C   0  0  0  0  0  3  0  0  0  0  0  0
   34.2640   28.7450   48.5560 C   0  0  0  0  0  3  0  0  0  0  0  0
   37.4020   30.1910   51.5960 C   0  0  0  0  0  0  0  0  0  0  0  0
   38.0950   30.9690   50.6400 C   0  0  0  0  0  0  0  0  0  0  0  0
   37.7370   30.8220   49.2900 C   0  0  0  0  0  0  0  0  0  0  0  0
   36.7400   29.9400   48.9660 N   0  0  0  0  0  0  0  0  0  0  0  0
   36.1190   29.2270   49.9470 C   0  0  0  0  0  0  0  0  0  0  0  0
   36.4440   29.3510   51.2310 N   0  0  0  0  0  0  0  0  0  0  0  0
   37.6950   30.3180   52.6460 H   0  0  0  0  0  0  0  0  0  0  0  0
   38.8780   31.6640   50.8800 H   0  0  0  0  0  0  0  0  0  0  0  0
   38.3880   31.5810   48.2150 C   0  0  0  0  0  0  0  0  0  0  0  0
   38.5960   31.0570   46.9620 C   0  0  0  0  0  0  0  0  0  0  0  0
   39.2280   32.0380   46.1990 C   0  0  0  0  0  0  0  0  0  0  0  0
   39.3770   33.1130   47.0150 N   0  0  0  0  0  0  0  0  0  0  0  0
   38.8740   32.8240   48.2020 N   0  0  0  0  0  0  0  0  0  0  0  0
   38.3210   30.0620   46.6260 H   0  0  0  0  0  0  0  0  0  0  0  0
   39.5330   31.9440   45.1620 H   0  0  0  0  0  0  0  0  0  0  0  0
   39.8190   34.0200   46.7420 H   0  0  0  0  0  0  0  0  0  0  0  0
  1 25  1  0  0  0  0
  1  3  1  0  0  0  0
  2  1  1  0  0  0  0
  4  5  1  0  0  0  0
  4  1  1  0  0  0  0
  5 10  1  0  0  0  0
  6 11  1  0  0  0  0
  6  5  2  0  0  0  0
  7  6  1  0  0  0  0
  8  7  2  0  0  0  0
  8  9  1  0  0  0  0
  9  4  2  0  0  0  0
 12  7  1  0  0  0  0
 13  8  1  0  0  0  0
 14  9  1  0  0  0  0
 15 14  1  0  0  0  0
 16 15  1  0  0  0  0
 17 18  1  0  0  0  0
 17 15  1  0  0  0  0
 19 17  1  0  0  0  0
 20 19  1  0  0  0  0
 20 22  1  0  0  0  0
 21 20  1  0  0  0  0
 22 14  1  0  0  0  0
 23 22  1  0  0  0  0
 24 30  1  0  0  0  0
 25 24  2  0  0  0  0
 26 32  1  0  0  0  0
 27 33  1  0  0  0  0
 27 26  2  0  0  0  0
 28 27  1  0  0  0  0
 29 28  2  0  0  0  0
 29 30  1  0  0  0  0
 30 31  2  0  0  0  0
 31 26  1  0  0  0  0
 34 28  1  0  0  0  0
 35 34  1  0  0  0  0
 36 35  2  0  0  0  0
 36 37  1  0  0  0  0
 37 38  1  0  0  0  0
 38 34  2  0  0  0  0
 39 35  1  0  0  0  0
 40 36  1  0  0  0  0
 41 37  1  0  0  0  0
M  END
>  <minimizedAffinity>
-6.2171855

>  <minimizedRMSD>
0.619897306

$$$$
