
 OpenBabel03272507533D

 33 35  0  0  0  0  0  0  0  0999 V2000
   39.2040   25.0710   35.3730 N   0  0  0  0  0  0  0  0  0  0  0  0
   39.0760   26.0950   36.2090 C   0  0  0  0  0  0  0  0  0  0  0  0
   38.1680   27.1150   35.9140 C   0  0  0  0  0  0  0  0  0  0  0  0
   37.4780   26.9560   34.7530 C   0  0  0  0  0  0  0  0  0  0  0  0
   36.6610   27.9020   34.5150 O   0  0  0  0  0  0  0  0  0  0  0  0
   37.5770   25.9490   33.8920 N   0  0  0  0  0  0  0  0  0  0  0  0
   38.4670   24.9910   34.2270 C   0  0  0  0  0  0  0  0  0  0  0  0
   38.5780   24.0110   33.4120 O   0  0  0  0  0  0  0  0  0  0  0  0
   39.6920   26.0890   37.0980 H   0  0  0  0  0  0  0  0  0  0  0  0
   38.0980   27.9140   36.6090 H   0  0  0  0  0  0  0  0  0  0  0  0
   36.7770   25.9370   32.7210 C   0  0  0  0  0  3  0  0  0  0  0  0
   36.3460   24.5760   32.2460 C   0  0  0  0  0  3  0  0  0  0  0  0
   37.2850   23.9910   32.0890 H   0  0  0  0  0  0  0  0  0  0  0  0
   35.6800   24.7280   30.8970 C   0  0  0  0  0  3  0  0  0  0  0  0
   36.2830   24.3080   30.0610 H   0  0  0  0  0  0  0  0  0  0  0  0
   35.2640   26.0250   30.6260 O   0  0  0  0  0  0  0  0  0  0  0  0
   36.2830   26.9540   30.5730 C   0  0  0  0  0  3  0  0  0  0  0  0
   35.8270   27.9410   30.8770 H   0  0  0  0  0  0  0  0  0  0  0  0
   37.4240   26.5970   31.5260 C   0  0  0  0  0  3  0  0  0  0  0  0
   38.0000   25.8110   30.9680 H   0  0  0  0  0  0  0  0  0  0  0  0
   39.6580   22.9180   36.4070 C   0  0  0  0  0  0  0  0  0  0  0  0
   40.1130   23.9870   35.6050 C   0  0  0  0  0  0  0  0  0  0  0  0
   41.4100   23.9390   35.0870 C   0  0  0  0  0  0  0  0  0  0  0  0
   42.1730   22.8510   35.3850 N   0  0  0  0  0  0  0  0  0  0  0  0
   41.7410   21.8520   36.1370 C   0  0  0  0  0  0  0  0  0  0  0  0
   40.4930   21.8840   36.6460 N   0  0  0  0  0  0  0  0  0  0  0  0
   41.7400   24.7630   34.4780 H   0  0  0  0  0  0  0  0  0  0  0  0
   42.3690   20.9990   36.3580 H   0  0  0  0  0  0  0  0  0  0  0  0
   37.8300   23.3210   38.2150 C   0  0  0  0  0  0  0  0  0  0  0  0
   38.4920   24.0080   39.0120 O   0  0  0  0  0  0  0  0  0  0  0  0
   38.3640   22.8610   36.9660 N   0  0  0  0  0  0  0  0  0  0  0  0
   36.8400   23.1170   38.5560 H   0  0  0  0  0  0  0  0  0  0  0  0
   37.5920   22.4040   36.4010 H   0  0  0  0  0  0  0  0  0  0  0  0
  1 22  1  0  0  0  0
  1  2  1  0  0  0  0
  2  9  1  0  0  0  0
  3  2  2  0  0  0  0
  3 10  1  0  0  0  0
  4  3  1  0  0  0  0
  5  4  2  0  0  0  0
  6  7  1  0  0  0  0
  6  4  1  0  0  0  0
  7  1  1  0  0  0  0
  8  7  2  0  0  0  0
 11  6  1  0  0  0  0
 12 11  1  0  0  0  0
 13 12  1  0  0  0  0
 14 12  1  0  0  0  0
 15 14  1  0  0  0  0
 16 14  1  0  0  0  0
 17 16  1  0  0  0  0
 17 18  1  0  0  0  0
 17 19  1  0  0  0  0
 19 11  1  0  0  0  0
 20 19  1  0  0  0  0
 21 26  1  0  0  0  0
 21 31  1  0  0  0  0
 22 21  2  0  0  0  0
 23 24  2  0  0  0  0
 23 22  1  0  0  0  0
 24 25  1  0  0  0  0
 25 28  1  0  0  0  0
 25 26  2  0  0  0  0
 27 23  1  0  0  0  0
 29 32  1  0  0  0  0
 29 30  2  0  0  0  0
 31 29  1  0  0  0  0
 33 31  1  0  0  0  0
M  END
>  <minimizedAffinity>
-5.15875816

$$$$

 OpenBabel03272507533D

 33 35  0  0  0  0  0  0  0  0999 V2000
   38.1540   23.7040   34.6570 N   0  0  0  0  0  0  0  0  0  0  0  0
   38.4710   24.7660   33.9250 C   0  0  0  0  0  0  0  0  0  0  0  0
   38.2230   24.7520   32.5500 C   0  0  0  0  0  0  0  0  0  0  0  0
   37.6610   23.6080   32.0750 C   0  0  0  0  0  0  0  0  0  0  0  0
   37.4500   23.6300   30.8210 O   0  0  0  0  0  0  0  0  0  0  0  0
   37.3300   22.5280   32.7730 N   0  0  0  0  0  0  0  0  0  0  0  0
   37.5900   22.5940   34.0960 C   0  0  0  0  0  0  0  0  0  0  0  0
   37.2790   21.5640   34.7870 O   0  0  0  0  0  0  0  0  0  0  0  0
   38.9130   25.6080   34.4390 H   0  0  0  0  0  0  0  0  0  0  0  0
   38.4920   25.6220   32.0040 H   0  0  0  0  0  0  0  0  0  0  0  0
   36.7480   21.4130   32.1180 C   0  0  0  0  0  3  0  0  0  0  0  0
   35.3840   21.0120   32.6120 C   0  0  0  0  0  3  0  0  0  0  0  0
   35.4970   20.8130   33.7060 H   0  0  0  0  0  0  0  0  0  0  0  0
   35.0010   19.7050   31.9540 C   0  0  0  0  0  3  0  0  0  0  0  0
   34.9910   18.8450   32.6620 H   0  0  0  0  0  0  0  0  0  0  0  0
   35.7420   19.4190   30.8140 O   0  0  0  0  0  0  0  0  0  0  0  0
   37.0950   19.2690   31.0320 C   0  0  0  0  0  3  0  0  0  0  0  0
   37.6060   19.5700   30.0710 H   0  0  0  0  0  0  0  0  0  0  0  0
   37.5860   20.1560   32.1770 C   0  0  0  0  0  3  0  0  0  0  0  0
   37.2900   19.5880   33.0990 H   0  0  0  0  0  0  0  0  0  0  0  0
   39.5170   22.9360   36.5180 C   0  0  0  0  0  0  0  0  0  0  0  0
   38.3780   23.6400   36.0720 C   0  0  0  0  0  0  0  0  0  0  0  0
   37.5360   24.2310   37.0180 C   0  0  0  0  0  0  0  0  0  0  0  0
   37.8630   24.0950   38.3320 N   0  0  0  0  0  0  0  0  0  0  0  0
   38.9320   23.4330   38.7440 C   0  0  0  0  0  0  0  0  0  0  0  0
   39.7540   22.8560   37.8450 N   0  0  0  0  0  0  0  0  0  0  0  0
   36.6720   24.7650   36.6590 H   0  0  0  0  0  0  0  0  0  0  0  0
   39.1680   23.3400   39.7950 H   0  0  0  0  0  0  0  0  0  0  0  0
   41.5930   22.8100   34.9530 C   0  0  0  0  0  0  0  0  0  0  0  0
   42.0470   23.9530   35.1390 O   0  0  0  0  0  0  0  0  0  0  0  0
   40.4390   22.3170   35.6470 N   0  0  0  0  0  0  0  0  0  0  0  0
   42.1480   22.2490   34.2350 H   0  0  0  0  0  0  0  0  0  0  0  0
   40.3090   21.2880   35.4250 H   0  0  0  0  0  0  0  0  0  0  0  0
  1 22  1  0  0  0  0
  2  9  1  0  0  0  0
  2  1  1  0  0  0  0
  3  2  2  0  0  0  0
  4  3  1  0  0  0  0
  4  6  1  0  0  0  0
  5  4  2  0  0  0  0
  6  7  1  0  0  0  0
  7  1  1  0  0  0  0
  7  8  2  0  0  0  0
 10  3  1  0  0  0  0
 11 19  1  0  0  0  0
 11 12  1  0  0  0  0
 11  6  1  0  0  0  0
 12 13  1  0  0  0  0
 14 12  1  0  0  0  0
 14 15  1  0  0  0  0
 16 17  1  0  0  0  0
 16 14  1  0  0  0  0
 17 19  1  0  0  0  0
 18 17  1  0  0  0  0
 19 20  1  0  0  0  0
 21 26  1  0  0  0  0
 22 21  2  0  0  0  0
 22 23  1  0  0  0  0
 23 24  2  0  0  0  0
 24 25  1  0  0  0  0
 25 28  1  0  0  0  0
 26 25  2  0  0  0  0
 27 23  1  0  0  0  0
 29 30  2  0  0  0  0
 29 31  1  0  0  0  0
 31 21  1  0  0  0  0
 32 29  1  0  0  0  0
 33 31  1  0  0  0  0
M  END
>  <minimizedAffinity>
-5.15597391

$$$$

 OpenBabel03272507533D

 33 35  0  0  0  0  0  0  0  0999 V2000
   38.5940   22.5960   33.8770 N   0  0  0  0  0  0  0  0  0  0  0  0
   37.7400   21.7000   33.3950 C   0  0  0  0  0  0  0  0  0  0  0  0
   36.7050   22.1170   32.5540 C   0  0  0  0  0  0  0  0  0  0  0  0
   36.6700   23.4530   32.3010 C   0  0  0  0  0  0  0  0  0  0  0  0
   35.7160   23.7980   31.5320 O   0  0  0  0  0  0  0  0  0  0  0  0
   37.5020   24.3790   32.7610 N   0  0  0  0  0  0  0  0  0  0  0  0
   38.4840   23.9220   33.5680 C   0  0  0  0  0  0  0  0  0  0  0  0
   39.2980   24.7970   34.0240 O   0  0  0  0  0  0  0  0  0  0  0  0
   37.8910   20.6680   33.6830 H   0  0  0  0  0  0  0  0  0  0  0  0
   36.0470   21.3670   32.1920 H   0  0  0  0  0  0  0  0  0  0  0  0
   37.3230   25.7380   32.3960 C   0  0  0  0  0  3  0  0  0  0  0  0
   38.4390   26.3430   31.5880 C   0  0  0  0  0  3  0  0  0  0  0  0
   39.3670   26.2170   32.1980 H   0  0  0  0  0  0  0  0  0  0  0  0
   38.1850   27.8280   31.4570 C   0  0  0  0  0  3  0  0  0  0  0  0
   38.9040   28.4480   32.0380 H   0  0  0  0  0  0  0  0  0  0  0  0
   36.8700   28.1920   31.7180 O   0  0  0  0  0  0  0  0  0  0  0  0
   36.4430   27.9180   33.0010 C   0  0  0  0  0  3  0  0  0  0  0  0
   35.3290   27.7510   32.9350 H   0  0  0  0  0  0  0  0  0  0  0  0
   37.1210   26.6700   33.5680 C   0  0  0  0  0  3  0  0  0  0  0  0
   38.1290   27.0390   33.8930 H   0  0  0  0  0  0  0  0  0  0  0  0
   39.4130   22.2090   36.1330 C   0  0  0  0  0  0  0  0  0  0  0  0
   39.6790   22.2470   34.7460 C   0  0  0  0  0  0  0  0  0  0  0  0
   40.9680   21.9490   34.2970 C   0  0  0  0  0  0  0  0  0  0  0  0
   41.9080   21.6340   35.2290 N   0  0  0  0  0  0  0  0  0  0  0  0
   41.6540   21.6010   36.5270 C   0  0  0  0  0  0  0  0  0  0  0  0
   40.4160   21.8870   36.9770 N   0  0  0  0  0  0  0  0  0  0  0  0
   41.1510   21.9830   33.2360 H   0  0  0  0  0  0  0  0  0  0  0  0
   42.4210   21.3470   37.2460 H   0  0  0  0  0  0  0  0  0  0  0  0
   37.5600   23.6710   37.2310 C   0  0  0  0  0  0  0  0  0  0  0  0
   38.1230   24.7770   37.1700 O   0  0  0  0  0  0  0  0  0  0  0  0
   38.1450   22.4780   36.6890 N   0  0  0  0  0  0  0  0  0  0  0  0
   36.6120   23.7060   37.7190 H   0  0  0  0  0  0  0  0  0  0  0  0
   37.4420   21.6860   36.7430 H   0  0  0  0  0  0  0  0  0  0  0  0
  1 22  1  0  0  0  0
  2  9  1  0  0  0  0
  2  1  1  0  0  0  0
  3  2  2  0  0  0  0
  4  3  1  0  0  0  0
  4  6  1  0  0  0  0
  5  4  2  0  0  0  0
  6  7  1  0  0  0  0
  7  1  1  0  0  0  0
  7  8  2  0  0  0  0
 10  3  1  0  0  0  0
 11  6  1  0  0  0  0
 11 19  1  0  0  0  0
 12 13  1  0  0  0  0
 12 11  1  0  0  0  0
 14 12  1  0  0  0  0
 14 16  1  0  0  0  0
 14 15  1  0  0  0  0
 16 17  1  0  0  0  0
 17 19  1  0  0  0  0
 18 17  1  0  0  0  0
 19 20  1  0  0  0  0
 21 31  1  0  0  0  0
 21 26  1  0  0  0  0
 22 21  2  0  0  0  0
 23 22  1  0  0  0  0
 23 24  2  0  0  0  0
 24 25  1  0  0  0  0
 25 26  2  0  0  0  0
 25 28  1  0  0  0  0
 27 23  1  0  0  0  0
 29 32  1  0  0  0  0
 30 29  2  0  0  0  0
 31 33  1  0  0  0  0
 31 29  1  0  0  0  0
M  END
>  <minimizedAffinity>
-5.06170225

$$$$

 OpenBabel03272507533D

 33 35  0  0  0  0  0  0  0  0999 V2000
   36.0110   26.4760   31.6340 N   0  0  0  0  0  0  0  0  0  0  0  0
   35.2610   25.5930   30.9840 C   0  0  0  0  0  0  0  0  0  0  0  0
   35.4930   24.2280   31.1670 C   0  0  0  0  0  0  0  0  0  0  0  0
   36.5040   23.9220   32.0250 C   0  0  0  0  0  0  0  0  0  0  0  0
   36.6870   22.6720   32.1670 O   0  0  0  0  0  0  0  0  0  0  0  0
   37.2740   24.7740   32.6920 N   0  0  0  0  0  0  0  0  0  0  0  0
   37.0070   26.0800   32.4800 C   0  0  0  0  0  0  0  0  0  0  0  0
   37.7370   26.9180   33.1130 O   0  0  0  0  0  0  0  0  0  0  0  0
   34.4910   25.9820   30.3330 H   0  0  0  0  0  0  0  0  0  0  0  0
   34.8710   23.5570   30.6290 H   0  0  0  0  0  0  0  0  0  0  0  0
   38.2900   24.2850   33.5520 C   0  0  0  0  0  3  0  0  0  0  0  0
   38.1700   24.7000   34.9940 C   0  0  0  0  0  3  0  0  0  0  0  0
   38.1560   25.8170   34.9950 H   0  0  0  0  0  0  0  0  0  0  0  0
   39.4230   24.2660   35.7230 C   0  0  0  0  0  3  0  0  0  0  0  0
   40.0720   25.1190   36.0220 H   0  0  0  0  0  0  0  0  0  0  0  0
   40.1440   23.2850   35.0520 O   0  0  0  0  0  0  0  0  0  0  0  0
   40.6230   23.6700   33.8170 C   0  0  0  0  0  3  0  0  0  0  0  0
   40.6920   22.7290   33.1980 H   0  0  0  0  0  0  0  0  0  0  0  0
   39.6900   24.6710   33.1350 C   0  0  0  0  0  3  0  0  0  0  0  0
   39.9400   25.6470   33.6280 H   0  0  0  0  0  0  0  0  0  0  0  0
   36.5350   28.5360   30.4530 C   0  0  0  0  0  0  0  0  0  0  0  0
   35.8360   27.8930   31.4980 C   0  0  0  0  0  0  0  0  0  0  0  0
   35.0230   28.6580   32.3380 C   0  0  0  0  0  0  0  0  0  0  0  0
   34.9460   29.9960   32.1010 N   0  0  0  0  0  0  0  0  0  0  0  0
   35.6030   30.5930   31.1200 C   0  0  0  0  0  0  0  0  0  0  0  0
   36.3930   29.8700   30.3010 N   0  0  0  0  0  0  0  0  0  0  0  0
   34.4980   28.1500   33.1290 H   0  0  0  0  0  0  0  0  0  0  0  0
   35.5230   31.6590   30.9540 H   0  0  0  0  0  0  0  0  0  0  0  0
   38.7830   27.6140   29.5200 C   0  0  0  0  0  0  0  0  0  0  0  0
   39.5260   27.9130   30.4700 O   0  0  0  0  0  0  0  0  0  0  0  0
   37.3690   27.8550   29.5410 N   0  0  0  0  0  0  0  0  0  0  0  0
   39.3030   27.1650   28.7030 H   0  0  0  0  0  0  0  0  0  0  0  0
   36.9240   27.4120   28.6870 H   0  0  0  0  0  0  0  0  0  0  0  0
  1  7  1  0  0  0  0
  2  3  2  0  0  0  0
  2  1  1  0  0  0  0
  3  4  1  0  0  0  0
  4  5  2  0  0  0  0
  4  6  1  0  0  0  0
  6 11  1  0  0  0  0
  7  6  1  0  0  0  0
  7  8  2  0  0  0  0
  9  2  1  0  0  0  0
 10  3  1  0  0  0  0
 11 12  1  0  0  0  0
 12 13  1  0  0  0  0
 12 14  1  0  0  0  0
 14 15  1  0  0  0  0
 16 14  1  0  0  0  0
 17 16  1  0  0  0  0
 18 17  1  0  0  0  0
 19 11  1  0  0  0  0
 19 20  1  0  0  0  0
 19 17  1  0  0  0  0
 21 22  1  0  0  0  0
 22  1  1  0  0  0  0
 22 23  2  0  0  0  0
 23 27  1  0  0  0  0
 24 23  1  0  0  0  0
 25 24  2  0  0  0  0
 26 21  2  0  0  0  0
 26 25  1  0  0  0  0
 28 25  1  0  0  0  0
 29 31  1  0  0  0  0
 29 30  2  0  0  0  0
 31 21  1  0  0  0  0
 32 29  1  0  0  0  0
 33 31  1  0  0  0  0
M  END
>  <minimizedAffinity>
-4.96799755

$$$$

 OpenBabel03272507533D

 33 35  0  0  0  0  0  0  0  0999 V2000
   37.3030   23.2780   32.8020 N   0  0  0  0  0  0  0  0  0  0  0  0
   37.1460   24.5320   32.3930 C   0  0  0  0  0  0  0  0  0  0  0  0
   37.5050   25.5830   33.2410 C   0  0  0  0  0  0  0  0  0  0  0  0
   38.0000   25.2060   34.4510 C   0  0  0  0  0  0  0  0  0  0  0  0
   38.3170   26.1870   35.1970 O   0  0  0  0  0  0  0  0  0  0  0  0
   38.1730   23.9670   34.8960 N   0  0  0  0  0  0  0  0  0  0  0  0
   37.8100   22.9900   34.0370 C   0  0  0  0  0  0  0  0  0  0  0  0
   37.9680   21.7890   34.4450 O   0  0  0  0  0  0  0  0  0  0  0  0
   36.7390   24.6830   31.4020 H   0  0  0  0  0  0  0  0  0  0  0  0
   37.3630   26.5680   32.8730 H   0  0  0  0  0  0  0  0  0  0  0  0
   38.7060   23.7480   36.1920 C   0  0  0  0  0  3  0  0  0  0  0  0
   39.9480   22.9000   36.2450 C   0  0  0  0  0  3  0  0  0  0  0  0
   39.6830   21.9300   35.7580 H   0  0  0  0  0  0  0  0  0  0  0  0
   40.2630   22.6040   37.6950 C   0  0  0  0  0  3  0  0  0  0  0  0
   40.0950   21.5390   37.9700 H   0  0  0  0  0  0  0  0  0  0  0  0
   39.6400   23.4680   38.5870 O   0  0  0  0  0  0  0  0  0  0  0  0
   38.2610   23.4250   38.5560 C   0  0  0  0  0  3  0  0  0  0  0  0
   37.9060   24.4490   38.8730 H   0  0  0  0  0  0  0  0  0  0  0  0
   37.7360   23.1060   37.1560 C   0  0  0  0  0  3  0  0  0  0  0  0
   37.8550   21.9930   37.0750 H   0  0  0  0  0  0  0  0  0  0  0  0
   37.9220   21.6890   31.0700 C   0  0  0  0  0  0  0  0  0  0  0  0
   36.9570   22.1470   31.9920 C   0  0  0  0  0  0  0  0  0  0  0  0
   35.7280   21.4870   32.0680 C   0  0  0  0  0  0  0  0  0  0  0  0
   35.5250   20.4260   31.2400 N   0  0  0  0  0  0  0  0  0  0  0  0
   36.4340   20.0010   30.3780 C   0  0  0  0  0  0  0  0  0  0  0  0
   37.6240   20.6270   30.2910 N   0  0  0  0  0  0  0  0  0  0  0  0
   35.0040   21.8510   32.7780 H   0  0  0  0  0  0  0  0  0  0  0  0
   36.2460   19.1540   29.7310 H   0  0  0  0  0  0  0  0  0  0  0  0
   39.7080   23.2670   30.0240 C   0  0  0  0  0  0  0  0  0  0  0  0
   38.9780   23.8940   29.2370 O   0  0  0  0  0  0  0  0  0  0  0  0
   39.1980   22.2740   30.9240 N   0  0  0  0  0  0  0  0  0  0  0  0
   40.7360   23.5460   29.9570 H   0  0  0  0  0  0  0  0  0  0  0  0
   39.9710   21.9630   31.5790 H   0  0  0  0  0  0  0  0  0  0  0  0
  1  7  1  0  0  0  0
  2  1  1  0  0  0  0
  2  3  2  0  0  0  0
  3  4  1  0  0  0  0
  4  6  1  0  0  0  0
  4  5  2  0  0  0  0
  6 11  1  0  0  0  0
  7  8  2  0  0  0  0
  7  6  1  0  0  0  0
  9  2  1  0  0  0  0
 10  3  1  0  0  0  0
 11 12  1  0  0  0  0
 11 19  1  0  0  0  0
 12 14  1  0  0  0  0
 13 12  1  0  0  0  0
 14 15  1  0  0  0  0
 14 16  1  0  0  0  0
 17 16  1  0  0  0  0
 17 18  1  0  0  0  0
 19 17  1  0  0  0  0
 20 19  1  0  0  0  0
 21 22  1  0  0  0  0
 22 23  2  0  0  0  0
 22  1  1  0  0  0  0
 23 27  1  0  0  0  0
 24 23  1  0  0  0  0
 25 24  2  0  0  0  0
 26 25  1  0  0  0  0
 26 21  2  0  0  0  0
 28 25  1  0  0  0  0
 29 31  1  0  0  0  0
 30 29  2  0  0  0  0
 31 21  1  0  0  0  0
 31 33  1  0  0  0  0
 32 29  1  0  0  0  0
M  END
>  <minimizedAffinity>
-4.94153404

$$$$

 OpenBabel03272507533D

 33 35  0  0  0  0  0  0  0  0999 V2000
   35.4490   30.3240   33.3400 N   0  0  0  0  0  0  0  0  0  0  0  0
   35.4060   31.0180   32.2090 C   0  0  0  0  0  0  0  0  0  0  0  0
   35.8180   30.4180   31.0170 C   0  0  0  0  0  0  0  0  0  0  0  0
   36.2430   29.1310   31.1350 C   0  0  0  0  0  0  0  0  0  0  0  0
   36.6110   28.6150   30.0320 O   0  0  0  0  0  0  0  0  0  0  0  0
   36.3010   28.4040   32.2450 N   0  0  0  0  0  0  0  0  0  0  0  0
   35.8900   29.0320   33.3670 C   0  0  0  0  0  0  0  0  0  0  0  0
   35.9380   28.3510   34.4480 O   0  0  0  0  0  0  0  0  0  0  0  0
   35.0440   32.0360   32.2660 H   0  0  0  0  0  0  0  0  0  0  0  0
   35.7660   31.0080   30.1370 H   0  0  0  0  0  0  0  0  0  0  0  0
   36.7720   27.0670   32.1920 C   0  0  0  0  0  3  0  0  0  0  0  0
   38.1900   26.8990   31.7180 C   0  0  0  0  0  3  0  0  0  0  0  0
   38.2390   27.3750   30.7080 H   0  0  0  0  0  0  0  0  0  0  0  0
   38.4620   25.4230   31.5330 C   0  0  0  0  0  3  0  0  0  0  0  0
   38.5700   25.1280   30.4650 H   0  0  0  0  0  0  0  0  0  0  0  0
   37.5590   24.6040   32.2010 O   0  0  0  0  0  0  0  0  0  0  0  0
   36.2510   24.7320   31.7810 C   0  0  0  0  0  3  0  0  0  0  0  0
   35.6070   24.4720   32.6710 H   0  0  0  0  0  0  0  0  0  0  0  0
   35.9420   26.1560   31.3170 C   0  0  0  0  0  3  0  0  0  0  0  0
   36.3670   26.1950   30.2790 H   0  0  0  0  0  0  0  0  0  0  0  0
   33.7510   30.5460   35.0660 C   0  0  0  0  0  0  0  0  0  0  0  0
   35.0450   30.8700   34.6030 C   0  0  0  0  0  0  0  0  0  0  0  0
   35.8550   31.6960   35.3860 C   0  0  0  0  0  0  0  0  0  0  0  0
   35.3490   32.1490   36.5650 N   0  0  0  0  0  0  0  0  0  0  0  0
   34.1360   31.8420   36.9940 C   0  0  0  0  0  0  0  0  0  0  0  0
   33.3400   31.0480   36.2510 N   0  0  0  0  0  0  0  0  0  0  0  0
   36.8390   31.9320   35.0170 H   0  0  0  0  0  0  0  0  0  0  0  0
   33.7580   32.2160   37.9360 H   0  0  0  0  0  0  0  0  0  0  0  0
   31.9230   29.9670   33.3060 C   0  0  0  0  0  0  0  0  0  0  0  0
   31.8460   31.0680   32.7350 O   0  0  0  0  0  0  0  0  0  0  0  0
   32.8600   29.7090   34.3610 N   0  0  0  0  0  0  0  0  0  0  0  0
   31.2280   29.2490   32.9310 H   0  0  0  0  0  0  0  0  0  0  0  0
   32.8320   28.6800   34.6120 H   0  0  0  0  0  0  0  0  0  0  0  0
  1  7  1  0  0  0  0
  1 22  1  0  0  0  0
  2  9  1  0  0  0  0
  2  1  1  0  0  0  0
  3  4  1  0  0  0  0
  3  2  2  0  0  0  0
  4  6  1  0  0  0  0
  5  4  2  0  0  0  0
  6  7  1  0  0  0  0
  7  8  2  0  0  0  0
 10  3  1  0  0  0  0
 11  6  1  0  0  0  0
 12 11  1  0  0  0  0
 13 12  1  0  0  0  0
 14 12  1  0  0  0  0
 14 16  1  0  0  0  0
 15 14  1  0  0  0  0
 17 16  1  0  0  0  0
 17 18  1  0  0  0  0
 19 17  1  0  0  0  0
 19 11  1  0  0  0  0
 20 19  1  0  0  0  0
 21 26  1  0  0  0  0
 22 21  2  0  0  0  0
 22 23  1  0  0  0  0
 23 24  2  0  0  0  0
 24 25  1  0  0  0  0
 25 28  1  0  0  0  0
 26 25  2  0  0  0  0
 27 23  1  0  0  0  0
 29 31  1  0  0  0  0
 30 29  2  0  0  0  0
 31 33  1  0  0  0  0
 31 21  1  0  0  0  0
 32 29  1  0  0  0  0
M  END
>  <minimizedAffinity>
-4.93919086

$$$$

 OpenBabel03272507533D

 33 35  0  0  0  0  0  0  0  0999 V2000
   37.9760   23.0250   34.6930 N   0  0  0  0  0  0  0  0  0  0  0  0
   37.6580   21.8830   34.0950 C   0  0  0  0  0  0  0  0  0  0  0  0
   37.3550   21.8810   32.7320 C   0  0  0  0  0  0  0  0  0  0  0  0
   37.4170   23.0970   32.1240 C   0  0  0  0  0  0  0  0  0  0  0  0
   37.1350   23.0590   30.8840 O   0  0  0  0  0  0  0  0  0  0  0  0
   37.7300   24.2590   32.6850 N   0  0  0  0  0  0  0  0  0  0  0  0
   38.0140   24.2040   34.0040 C   0  0  0  0  0  0  0  0  0  0  0  0
   38.3190   25.3120   34.5650 O   0  0  0  0  0  0  0  0  0  0  0  0
   37.6500   20.9900   34.7060 H   0  0  0  0  0  0  0  0  0  0  0  0
   37.1070   20.9470   32.2940 H   0  0  0  0  0  0  0  0  0  0  0  0
   37.7480   25.4410   31.9030 C   0  0  0  0  0  3  0  0  0  0  0  0
   39.0340   26.2220   31.9400 C   0  0  0  0  0  3  0  0  0  0  0  0
   39.2220   26.4580   33.0160 H   0  0  0  0  0  0  0  0  0  0  0  0
   38.8170   27.5370   31.2240 C   0  0  0  0  0  3  0  0  0  0  0  0
   38.8150   28.4140   31.9090 H   0  0  0  0  0  0  0  0  0  0  0  0
   37.7060   27.5380   30.3890 O   0  0  0  0  0  0  0  0  0  0  0  0
   36.5040   27.3370   31.0360 C   0  0  0  0  0  3  0  0  0  0  0  0
   35.8190   26.8480   30.2840 H   0  0  0  0  0  0  0  0  0  0  0  0
   36.6630   26.4320   32.2580 C   0  0  0  0  0  3  0  0  0  0  0  0
   37.0680   27.1190   33.0470 H   0  0  0  0  0  0  0  0  0  0  0  0
   39.6250   22.8170   36.4670 C   0  0  0  0  0  0  0  0  0  0  0  0
   38.2970   23.1090   36.0880 C   0  0  0  0  0  0  0  0  0  0  0  0
   37.3740   23.4590   37.0770 C   0  0  0  0  0  0  0  0  0  0  0  0
   37.8080   23.5000   38.3660 N   0  0  0  0  0  0  0  0  0  0  0  0
   39.0550   23.2250   38.7150 C   0  0  0  0  0  0  0  0  0  0  0  0
   39.9580   22.8850   37.7740 N   0  0  0  0  0  0  0  0  0  0  0  0
   36.3650   23.6790   36.7690 H   0  0  0  0  0  0  0  0  0  0  0  0
   39.3730   23.2660   39.7480 H   0  0  0  0  0  0  0  0  0  0  0  0
   41.5530   23.2580   34.7750 C   0  0  0  0  0  0  0  0  0  0  0  0
   41.6580   24.4890   34.9160 O   0  0  0  0  0  0  0  0  0  0  0  0
   40.6380   22.4690   35.5480 N   0  0  0  0  0  0  0  0  0  0  0  0
   42.2080   22.8620   34.0310 H   0  0  0  0  0  0  0  0  0  0  0  0
   40.8060   21.4420   35.3500 H   0  0  0  0  0  0  0  0  0  0  0  0
  1 22  1  0  0  0  0
  2  1  1  0  0  0  0
  2  9  1  0  0  0  0
  3  2  2  0  0  0  0
  4  6  1  0  0  0  0
  4  3  1  0  0  0  0
  5  4  2  0  0  0  0
  6  7  1  0  0  0  0
  7  8  2  0  0  0  0
  7  1  1  0  0  0  0
 10  3  1  0  0  0  0
 11 12  1  0  0  0  0
 11 19  1  0  0  0  0
 11  6  1  0  0  0  0
 12 13  1  0  0  0  0
 14 15  1  0  0  0  0
 14 12  1  0  0  0  0
 16 17  1  0  0  0  0
 16 14  1  0  0  0  0
 17 19  1  0  0  0  0
 18 17  1  0  0  0  0
 19 20  1  0  0  0  0
 21 26  1  0  0  0  0
 22 21  2  0  0  0  0
 22 23  1  0  0  0  0
 23 24  2  0  0  0  0
 24 25  1  0  0  0  0
 25 28  1  0  0  0  0
 26 25  2  0  0  0  0
 27 23  1  0  0  0  0
 29 30  2  0  0  0  0
 29 31  1  0  0  0  0
 31 21  1  0  0  0  0
 32 29  1  0  0  0  0
 33 31  1  0  0  0  0
M  END
>  <minimizedAffinity>
-4.89684248

$$$$

 OpenBabel03272507533D

 33 35  0  0  0  0  0  0  0  0999 V2000
   35.8760   28.2270   33.1050 N   0  0  0  0  0  0  0  0  0  0  0  0
   36.3970   28.3610   34.3200 C   0  0  0  0  0  0  0  0  0  0  0  0
   37.1850   27.3370   34.8480 C   0  0  0  0  0  0  0  0  0  0  0  0
   37.3480   26.2560   34.0370 C   0  0  0  0  0  0  0  0  0  0  0  0
   38.0710   25.3430   34.5500 O   0  0  0  0  0  0  0  0  0  0  0  0
   36.8460   26.0840   32.8210 N   0  0  0  0  0  0  0  0  0  0  0  0
   36.0930   27.1050   32.3580 C   0  0  0  0  0  0  0  0  0  0  0  0
   35.5980   26.9590   31.1870 O   0  0  0  0  0  0  0  0  0  0  0  0
   36.1820   29.2780   34.8510 H   0  0  0  0  0  0  0  0  0  0  0  0
   37.5810   27.4870   35.8210 H   0  0  0  0  0  0  0  0  0  0  0  0
   37.1160   24.8890   32.1060 C   0  0  0  0  0  3  0  0  0  0  0  0
   38.0740   25.0280   30.9540 C   0  0  0  0  0  3  0  0  0  0  0  0
   37.6360   25.8020   30.2770 H   0  0  0  0  0  0  0  0  0  0  0  0
   38.0950   23.7230   30.1890 C   0  0  0  0  0  3  0  0  0  0  0  0
   37.6180   23.7960   29.1860 H   0  0  0  0  0  0  0  0  0  0  0  0
   37.6000   22.6460   30.9130 O   0  0  0  0  0  0  0  0  0  0  0  0
   36.2760   22.7650   31.2830 C   0  0  0  0  0  3  0  0  0  0  0  0
   36.1600   22.1710   32.2360 H   0  0  0  0  0  0  0  0  0  0  0  0
   35.8870   24.2230   31.5320 C   0  0  0  0  0  3  0  0  0  0  0  0
   35.7220   24.6340   30.5010 H   0  0  0  0  0  0  0  0  0  0  0  0
   35.6720   30.0960   31.5650 C   0  0  0  0  0  0  0  0  0  0  0  0
   35.0560   29.2320   32.4950 C   0  0  0  0  0  0  0  0  0  0  0  0
   33.6960   29.3980   32.7730 C   0  0  0  0  0  0  0  0  0  0  0  0
   33.0320   30.3930   32.1250 N   0  0  0  0  0  0  0  0  0  0  0  0
   33.6160   31.2010   31.2540 C   0  0  0  0  0  0  0  0  0  0  0  0
   34.9270   31.0550   30.9750 N   0  0  0  0  0  0  0  0  0  0  0  0
   33.2430   28.7290   33.4850 H   0  0  0  0  0  0  0  0  0  0  0  0
   33.0640   31.9840   30.7530 H   0  0  0  0  0  0  0  0  0  0  0  0
   37.6900   29.4700   30.0440 C   0  0  0  0  0  0  0  0  0  0  0  0
   37.0650   29.0720   29.0450 O   0  0  0  0  0  0  0  0  0  0  0  0
   37.0330   30.0050   31.2020 N   0  0  0  0  0  0  0  0  0  0  0  0
   38.7480   29.3730   29.9450 H   0  0  0  0  0  0  0  0  0  0  0  0
   37.7590   30.3910   31.8710 H   0  0  0  0  0  0  0  0  0  0  0  0
  1  2  1  0  0  0  0
  2  3  2  0  0  0  0
  2  9  1  0  0  0  0
  3 10  1  0  0  0  0
  4  5  2  0  0  0  0
  4  3  1  0  0  0  0
  6  4  1  0  0  0  0
  7  6  1  0  0  0  0
  7  1  1  0  0  0  0
  8  7  2  0  0  0  0
 11  6  1  0  0  0  0
 12 11  1  0  0  0  0
 13 12  1  0  0  0  0
 14 16  1  0  0  0  0
 14 12  1  0  0  0  0
 15 14  1  0  0  0  0
 16 17  1  0  0  0  0
 17 19  1  0  0  0  0
 17 18  1  0  0  0  0
 19 11  1  0  0  0  0
 20 19  1  0  0  0  0
 21 22  1  0  0  0  0
 22 23  2  0  0  0  0
 22  1  1  0  0  0  0
 23 27  1  0  0  0  0
 24 23  1  0  0  0  0
 25 24  2  0  0  0  0
 26 25  1  0  0  0  0
 26 21  2  0  0  0  0
 28 25  1  0  0  0  0
 29 31  1  0  0  0  0
 30 29  2  0  0  0  0
 31 21  1  0  0  0  0
 31 33  1  0  0  0  0
 32 29  1  0  0  0  0
M  END
>  <minimizedAffinity>
-4.86546803

$$$$

 OpenBabel03272507533D

 33 35  0  0  0  0  0  0  0  0999 V2000
   36.2180   23.3370   31.8770 N   0  0  0  0  0  0  0  0  0  0  0  0
   35.4730   24.0920   31.0770 C   0  0  0  0  0  0  0  0  0  0  0  0
   35.5910   25.4830   31.1360 C   0  0  0  0  0  0  0  0  0  0  0  0
   36.4910   25.9480   32.0440 C   0  0  0  0  0  0  0  0  0  0  0  0
   36.5730   27.2180   32.0710 O   0  0  0  0  0  0  0  0  0  0  0  0
   37.2530   25.2290   32.8600 N   0  0  0  0  0  0  0  0  0  0  0  0
   37.0990   23.8910   32.7610 C   0  0  0  0  0  0  0  0  0  0  0  0
   37.8230   23.1780   33.5380 O   0  0  0  0  0  0  0  0  0  0  0  0
   34.7980   23.5830   30.4030 H   0  0  0  0  0  0  0  0  0  0  0  0
   34.9780   26.0470   30.4790 H   0  0  0  0  0  0  0  0  0  0  0  0
   38.1450   25.8770   33.7510 C   0  0  0  0  0  3  0  0  0  0  0  0
   39.5690   25.3930   33.7060 C   0  0  0  0  0  3  0  0  0  0  0  0
   39.5300   24.2960   33.9150 H   0  0  0  0  0  0  0  0  0  0  0  0
   40.3310   26.0390   34.8410 C   0  0  0  0  0  3  0  0  0  0  0  0
   40.6100   25.3220   35.6450 H   0  0  0  0  0  0  0  0  0  0  0  0
   39.7080   27.1690   35.3570 O   0  0  0  0  0  0  0  0  0  0  0  0
   38.4670   26.9340   35.9130 C   0  0  0  0  0  3  0  0  0  0  0  0
   37.8820   27.8930   35.7970 H   0  0  0  0  0  0  0  0  0  0  0  0
   37.7350   25.7940   35.2030 C   0  0  0  0  0  3  0  0  0  0  0  0
   38.1980   24.8690   35.6390 H   0  0  0  0  0  0  0  0  0  0  0  0
   37.1370   21.2110   31.1410 C   0  0  0  0  0  0  0  0  0  0  0  0
   36.1530   21.9050   31.8770 C   0  0  0  0  0  0  0  0  0  0  0  0
   35.1770   21.1730   32.5580 C   0  0  0  0  0  0  0  0  0  0  0  0
   35.2280   19.8160   32.4750 N   0  0  0  0  0  0  0  0  0  0  0  0
   36.1530   19.1700   31.7840 C   0  0  0  0  0  0  0  0  0  0  0  0
   37.1010   19.8610   31.1200 N   0  0  0  0  0  0  0  0  0  0  0  0
   34.4340   21.7200   33.1150 H   0  0  0  0  0  0  0  0  0  0  0  0
   36.1700   18.0900   31.7340 H   0  0  0  0  0  0  0  0  0  0  0  0
   39.5700   22.0330   30.7150 C   0  0  0  0  0  0  0  0  0  0  0  0
   40.1320   21.4880   31.6800 O   0  0  0  0  0  0  0  0  0  0  0  0
   38.1750   21.8520   30.4320 N   0  0  0  0  0  0  0  0  0  0  0  0
   40.2270   22.6370   30.1300 H   0  0  0  0  0  0  0  0  0  0  0  0
   37.9430   22.3050   29.5020 H   0  0  0  0  0  0  0  0  0  0  0  0
  1 22  1  0  0  0  0
  1  7  1  0  0  0  0
  2  3  2  0  0  0  0
  2  1  1  0  0  0  0
  3  4  1  0  0  0  0
  4  5  2  0  0  0  0
  4  6  1  0  0  0  0
  6 11  1  0  0  0  0
  7  6  1  0  0  0  0
  7  8  2  0  0  0  0
  9  2  1  0  0  0  0
 10  3  1  0  0  0  0
 11 19  1  0  0  0  0
 12 11  1  0  0  0  0
 12 13  1  0  0  0  0
 12 14  1  0  0  0  0
 14 16  1  0  0  0  0
 14 15  1  0  0  0  0
 16 17  1  0  0  0  0
 18 17  1  0  0  0  0
 19 20  1  0  0  0  0
 19 17  1  0  0  0  0
 21 22  1  0  0  0  0
 22 23  2  0  0  0  0
 23 27  1  0  0  0  0
 24 23  1  0  0  0  0
 25 24  2  0  0  0  0
 26 21  2  0  0  0  0
 26 25  1  0  0  0  0
 28 25  1  0  0  0  0
 29 30  2  0  0  0  0
 31 29  1  0  0  0  0
 31 21  1  0  0  0  0
 32 29  1  0  0  0  0
 33 31  1  0  0  0  0
M  END
>  <minimizedAffinity>
-4.84623051

$$$$
