
 OpenBabel03272501333D

 28 30  0  0  1  0  0  0  0  0999 V2000
   33.9890   29.8990   47.5800 C   0  0  2  0  0  0  0  0  0  0  0  0
   35.1360   29.8780   46.5000 C   0  0  0  0  0  0  0  0  0  0  0  0
   35.2970   30.4470   47.8820 C   0  0  2  0  0  0  0  0  0  0  0  0
   33.1260   30.4420   47.0820 H   0  0  0  0  0  0  0  0  0  0  0  0
   35.5250   28.9160   46.1900 H   0  0  0  0  0  0  0  0  0  0  0  0
   35.0220   30.5820   45.6560 H   0  0  0  0  0  0  0  0  0  0  0  0
   35.2940   31.5860   47.8830 H   0  0  0  0  0  0  0  0  0  0  0  0
   36.3050   29.9170   48.8250 C   0  0  0  0  0  0  0  0  0  0  0  0
   35.8880   30.3430   50.2470 C   0  0  0  0  0  0  0  0  0  0  0  0
   34.9060   29.8310   50.4560 H   0  0  0  0  0  0  0  0  0  0  0  0
   36.8460   29.8790   51.2860 C   0  0  0  0  0  0  0  0  0  0  0  0
   36.6460   30.4700   52.2030 H   0  0  0  0  0  0  0  0  0  0  0  0
   38.1780   30.1480   50.9480 O   0  0  0  0  0  0  0  0  0  0  0  0
   38.2400   31.0800   49.9110 C   0  0  0  0  0  0  0  0  0  0  0  0
   37.7150   32.0060   50.1330 H   0  0  0  0  0  0  0  0  0  0  0  0
   37.7170   30.3560   48.6660 C   0  0  0  0  0  0  0  0  0  0  0  0
   38.3940   29.4540   48.6020 H   0  0  0  0  0  0  0  0  0  0  0  0
   33.5850   28.5090   47.9180 C   0  0  0  0  0  0  0  0  0  0  0  0
   33.6730   28.1640   49.1450 O   0  0  0  0  0  0  0  0  0  0  0  0
   33.3770   25.5660   45.6240 C   0  0  0  0  0  0  0  0  0  0  0  0
   33.7900   26.4110   46.6450 C   0  0  0  0  0  0  0  0  0  0  0  0
   33.1310   27.6220   46.8780 C   0  0  0  0  0  0  0  0  0  0  0  0
   32.1030   27.9190   46.0840 N   0  0  0  0  0  0  0  0  0  0  0  0
   31.7160   27.0710   45.0860 C   0  0  0  0  0  0  0  0  0  0  0  0
   32.3240   25.9180   44.8440 N   0  0  0  0  0  0  0  0  0  0  0  0
   33.9660   24.6610   45.5450 H   0  0  0  0  0  0  0  0  0  0  0  0
   34.6340   26.1630   47.2960 H   0  0  0  0  0  0  0  0  0  0  0  0
   30.8700   27.3440   44.4550 H   0  0  0  0  0  0  0  0  0  0  0  0
  1  4  1  6  0  0  0
  1  3  1  0  0  0  0
  1 18  1  0  0  0  0
  2  1  1  0  0  0  0
  2  3  1  0  0  0  0
  3  7  1  6  0  0  0
  3  8  1  0  0  0  0
  5  2  1  0  0  0  0
  6  2  1  0  0  0  0
  8  9  1  0  0  0  0
  9 10  1  0  0  0  0
  9 11  1  0  0  0  0
 11 12  1  0  0  0  0
 13 11  1  0  0  0  0
 14 15  1  0  0  0  0
 14 13  1  0  0  0  0
 16  8  1  0  0  0  0
 16 14  1  0  0  0  0
 17 16  1  0  0  0  0
 18 19  2  0  0  0  0
 20 21  1  0  0  0  0
 21 22  2  0  0  0  0
 21 27  1  0  0  0  0
 22 18  1  0  0  0  0
 23 22  1  0  0  0  0
 24 23  2  0  0  0  0
 25 24  1  0  0  0  0
 25 20  2  0  0  0  0
 26 20  1  0  0  0  0
 28 24  1  0  0  0  0
M  END
>  <minimizedAffinity>
-4.27088022

>  <minimizedRMSD>
6.63992548

$$$$
