REMARK  Name = 
REMARK  3 active torsions:
REMARK  status: ('A' for Active; 'I' for Inactive)
REMARK    1  A    between atoms: C_1  and  C_7
REMARK    2  A    between atoms: C_3  and  C_12
REMARK    3  A    between atoms: N_10  and  C_20
REMARK                            x       y       z     vdW  Elec       q    Type
REMARK                         _______ _______ _______ _____ _____    ______ ____
ROOT
ATOM      1  C   UNL     1      39.100  31.109  45.909  0.00  0.00    +0.000 A 
ATOM      2  C   UNL     1      39.920  32.206  45.899  0.00  0.00    +0.000 A 
ATOM      3  C   UNL     1      40.935  32.027  44.952  0.00  0.00    +0.000 A 
ATOM      4  N   UNL     1      40.677  30.797  44.417  0.00  0.00    +0.000 N 
ATOM      5  N   UNL     1      39.610  30.288  44.989  0.00  0.00    +0.000 NA
ATOM      6  H   UNL     1      39.830  33.108  46.521  0.00  0.00    +0.000 HD
ATOM      7  H   UNL     1      41.747  32.722  44.704  0.00  0.00    +0.000 HD
ENDROOT
BRANCH   4   8
ATOM      8  C   UNL     1      41.498  30.206  43.381  0.00  0.00    +0.000 C 
ATOM      9  C   UNL     1      42.618  31.170  42.966  0.00  0.00    +0.000 C 
ATOM     10  H   UNL     1      42.262  32.210  43.107  0.00  0.00    +0.000 HD
ATOM     11  C   UNL     1      42.821  30.958  41.480  0.00  0.00    +0.000 C 
ATOM     12  H   UNL     1      43.773  31.455  41.187  0.00  0.00    +0.000 HD
ATOM     13  O   UNL     1      41.782  31.488  40.722  0.00  0.00    +0.000 OA
ATOM     14  C   UNL     1      40.582  31.326  41.378  0.00  0.00    +0.000 C 
ATOM     15  H   UNL     1      39.717  31.305  40.665  0.00  0.00    +0.000 HD
ATOM     16  C   UNL     1      40.657  30.005  42.136  0.00  0.00    +0.000 C 
ATOM     17  H   UNL     1      41.002  29.189  41.494  0.00  0.00    +0.000 HD
ENDBRANCH   4   8
BRANCH   1  18
ATOM     18  C   UNL     1      37.924  30.876  46.738  0.00  0.00    +0.000 A 
ATOM     19  C   UNL     1      38.060  31.044  48.143  0.00  0.00    +0.000 A 
ATOM     20  C   UNL     1      36.926  30.818  48.923  0.00  0.00    +0.000 A 
ATOM     21  N   UNL     1      35.770  30.455  48.319  0.00  0.00    +0.000 NA
ATOM     22  C   UNL     1      35.669  30.303  46.983  0.00  0.00    +0.000 A 
ATOM     23  N   UNL     1      36.755  30.517  46.207  0.00  0.00    +0.000 NA
ATOM     24  H   UNL     1      39.010  31.335  48.566  0.00  0.00    +0.000 HD
ATOM     25  H   UNL     1      34.752  30.013  46.485  0.00  0.00    +0.000 HD
BRANCH  20  26
ATOM     26  C   UNL     1      37.045  30.988  50.397  0.00  0.00    +0.000 C 
ATOM     27  F   UNL     1      36.557  32.233  50.689  0.00  0.00    +0.000 F 
ATOM     28  F   UNL     1      36.306  30.049  51.105  0.00  0.00    +0.000 F 
ATOM     29  F   UNL     1      38.369  30.943  50.821  0.00  0.00    +0.000 F 
ENDBRANCH  20  26
ENDBRANCH   1  18
TORSDOF 3
