
 OpenBabel03272508023D

 29 31  0  0  0  0  0  0  0  0999 V2000
   38.8210   30.9800   45.5380 C   0  0  0  0  0  0  0  0  0  0  0  0
   39.7220   32.0070   45.4460 C   0  0  0  0  0  0  0  0  0  0  0  0
   40.5850   31.7820   44.3670 C   0  0  0  0  0  0  0  0  0  0  0  0
   40.1550   30.5970   43.8400 N   0  0  0  0  0  0  0  0  0  0  0  0
   39.1340   30.1550   44.5370 N   0  0  0  0  0  0  0  0  0  0  0  0
   39.7920   32.8900   46.0970 H   0  0  0  0  0  0  0  0  0  0  0  0
   41.4130   32.4170   44.0300 H   0  0  0  0  0  0  0  0  0  0  0  0
   40.7800   29.9800   42.6890 C   0  0  0  0  0  3  0  0  0  0  0  0
   40.5390   30.8240   41.4300 C   0  0  0  0  0  3  0  0  0  0  0  0
   39.5720   31.3540   41.5360 H   0  0  0  0  0  0  0  0  0  0  0  0
   40.3940   29.8390   40.2880 C   0  0  0  0  0  3  0  0  0  0  0  0
   40.4580   30.4050   39.3330 H   0  0  0  0  0  0  0  0  0  0  0  0
   39.1840   29.1540   40.3290 O   0  0  0  0  0  0  0  0  0  0  0  0
   38.8240   28.8990   41.6350 C   0  0  0  0  0  3  0  0  0  0  0  0
   38.1530   28.0050   41.7130 H   0  0  0  0  0  0  0  0  0  0  0  0
   40.1100   28.6480   42.4150 C   0  0  0  0  0  3  0  0  0  0  0  0
   40.7550   27.9220   41.9100 H   0  0  0  0  0  0  0  0  0  0  0  0
   37.7480   30.8130   46.5110 C   0  0  0  0  0  0  0  0  0  0  0  0
   38.0350   31.1120   47.8710 C   0  0  0  0  0  0  0  0  0  0  0  0
   36.9990   30.9470   48.7900 C   0  0  0  0  0  0  0  0  0  0  0  0
   35.7910   30.5170   48.3540 N   0  0  0  0  0  0  0  0  0  0  0  0
   35.5470   30.2410   47.0570 C   0  0  0  0  0  0  0  0  0  0  0  0
   36.5360   30.3940   46.1490 N   0  0  0  0  0  0  0  0  0  0  0  0
   39.0200   31.4510   48.1560 H   0  0  0  0  0  0  0  0  0  0  0  0
   34.5860   29.8970   46.6940 H   0  0  0  0  0  0  0  0  0  0  0  0
   37.2760   31.2540   50.2200 C   0  0  0  0  0  0  0  0  0  0  0  0
   36.7420   32.4900   50.4660 F   0  0  0  0  0  0  0  0  0  0  0  0
   36.6900   30.3410   51.0860 F   0  0  0  0  0  0  0  0  0  0  0  0
   38.6410   31.3240   50.4820 F   0  0  0  0  0  0  0  0  0  0  0  0
  1 18  1  0  0  0  0
  2  1  1  0  0  0  0
  2  6  1  0  0  0  0
  3  2  2  0  0  0  0
  4  3  1  0  0  0  0
  4  5  1  0  0  0  0
  5  1  2  0  0  0  0
  7  3  1  0  0  0  0
  8  4  1  0  0  0  0
  9 10  1  0  0  0  0
  9  8  1  0  0  0  0
 11 13  1  0  0  0  0
 11  9  1  0  0  0  0
 12 11  1  0  0  0  0
 13 14  1  0  0  0  0
 14 15  1  0  0  0  0
 14 16  1  0  0  0  0
 16  8  1  0  0  0  0
 17 16  1  0  0  0  0
 18 19  1  0  0  0  0
 19 24  1  0  0  0  0
 19 20  2  0  0  0  0
 20 26  1  0  0  0  0
 21 20  1  0  0  0  0
 22 21  2  0  0  0  0
 23 18  2  0  0  0  0
 23 22  1  0  0  0  0
 25 22  1  0  0  0  0
 26 27  1  0  0  0  0
 26 29  1  0  0  0  0
 26 28  1  0  0  0  0
M  END
>  <minimizedAffinity>
-5.76869345

>  <minimizedRMSD>
0.826693118

$$$$
