
     RDKit          3D

 48 51  0  0  0  0  0  0  0  0999 V2000
   35.0118   28.3762   49.4597 C   0  0  0  0  0  0  0  0  0  0  0  0
   34.2887   28.7632   48.4378 C   0  0  0  0  0  0  0  0  0  0  0  0
   37.3787   30.1720   51.5754 C   0  0  0  0  0  0  0  0  0  0  0  0
   38.0854   30.9429   50.6222 C   0  0  0  0  0  0  0  0  0  0  0  0
   37.7176   30.8163   49.2731 C   0  0  0  0  0  0  0  0  0  0  0  0
   36.7000   29.9591   48.9460 N   0  0  0  0  0  0  0  0  0  0  0  0
   36.0681   29.2512   49.9230 C   0  0  0  0  0  0  0  0  0  0  0  0
   36.4010   29.3566   51.2066 N   0  0  0  0  0  0  0  0  0  0  0  0
   38.3797   31.5689   48.2007 C   0  0  0  0  0  0  0  0  0  0  0  0
   38.5850   31.0460   46.9468 C   0  0  0  0  0  0  0  0  0  0  0  0
   39.2309   32.0215   46.1882 C   0  0  0  0  0  0  0  0  0  0  0  0
   39.3906   33.0918   47.0083 N   0  0  0  0  0  0  0  0  0  0  0  0
   38.8819   32.8060   48.1927 N   0  0  0  0  0  0  0  0  0  0  0  0
   33.1750   28.0457   47.7963 C   0  0  0  0  0  0  0  0  0  0  0  0
   33.6062   26.9423   46.9027 C   0  0  0  0  0  0  0  0  0  0  0  0
   33.7924   25.6260   47.3210 C   0  0  0  0  0  0  0  0  0  0  0  0
   34.1903   24.6429   46.4473 C   0  0  0  0  0  0  0  0  0  0  0  0
   34.4181   24.9491   45.1070 C   0  0  0  0  0  0  0  0  0  0  0  0
   34.2369   26.2349   44.6954 C   0  0  0  0  0  0  0  0  0  0  0  0
   33.8366   27.2290   45.5697 C   0  0  0  0  0  0  0  0  0  0  0  0
   34.7436   27.3951   49.8844 H   0  0  0  0  0  0  0  0  0  0  0  0
   34.5588   29.7272   48.0287 H   0  0  0  0  0  0  0  0  0  0  0  0
   37.6790   30.2833   52.6238 H   0  0  0  0  0  0  0  0  0  0  0  0
   38.8843   31.6177   50.8650 H   0  0  0  0  0  0  0  0  0  0  0  0
   38.2977   30.0556   46.6077 H   0  0  0  0  0  0  0  0  0  0  0  0
   39.5368   31.9267   45.1516 H   0  0  0  0  0  0  0  0  0  0  0  0
   39.8452   33.9950   46.7376 H   0  0  0  0  0  0  0  0  0  0  0  0
   32.4150   28.7094   47.3750 H   0  0  0  0  0  0  0  0  0  0  0  0
   32.6447   27.5207   48.6473 H   0  0  0  0  0  0  0  0  0  0  0  0
   33.5842   25.5115   48.3863 H   0  0  0  0  0  0  0  0  0  0  0  0
   34.2748   23.7007   46.9706 H   0  0  0  0  0  0  0  0  0  0  0  0
   34.7257   24.0953   44.5222 H   0  0  0  0  0  0  0  0  0  0  0  0
   34.4427   26.3578   43.6422 H   0  0  0  0  0  0  0  0  0  0  0  0
   33.7073   28.5613   44.9363 C   0  0  1  0  0  0  0  0  0  0  0  0
   32.3432   29.1245   45.3180 C   0  0  2  0  0  0  0  0  0  0  0  0
   32.2278   28.8824   46.4154 H   0  0  0  0  0  0  0  0  0  0  0  0
   32.2358   30.6020   45.0997 C   0  0  1  0  0  0  0  0  0  0  0  0
   31.6447   30.8246   44.1855 H   0  0  0  0  0  0  0  0  0  0  0  0
   33.4288   31.2855   45.1504 O   0  0  0  0  0  0  0  0  0  0  0  0
   34.2272   30.6753   46.1428 C   0  0  2  0  0  0  0  0  0  0  0  0
   33.5950   30.3955   47.0090 H   0  0  0  0  0  0  0  0  0  0  0  0
   34.8207   29.4465   45.4405 C   0  0  1  0  0  0  0  0  0  0  0  0
   35.5721   28.9513   46.0503 H   0  0  0  0  0  0  0  0  0  0  0  0
   33.7669   28.5113   43.8302 H   0  0  0  0  0  0  0  0  0  0  0  0
   31.5791   28.5513   44.7658 H   0  0  0  0  0  0  0  0  0  0  0  0
   31.6184   31.0102   45.9515 H   0  0  0  0  0  0  0  0  0  0  0  0
   35.0381   31.3803   46.3780 H   0  0  0  0  0  0  0  0  0  0  0  0
   35.3877   29.8862   44.5665 H   0  0  0  0  0  0  0  0  0  0  0  0
  1  7  1  0
  2  1  2  0
  4  3  2  0
  5  4  1  0
  6  5  2  0
  6  7  1  0
  7  8  2  0
  8  3  1  0
  9  5  1  0
 10  9  1  0
 11 10  2  0
 11 12  1  0
 12 13  1  0
 13  9  2  0
 14  2  1  0
 15 16  2  0
 15 14  1  0
 17 16  1  0
 18 17  2  0
 19 18  1  0
 19 20  2  0
 20 15  1  0
  1 21  1  0
  2 22  1  0
  3 23  1  0
  4 24  1  0
 10 25  1  0
 11 26  1  0
 12 27  1  0
 14 28  1  0
 14 29  1  0
 16 30  1  0
 17 31  1  0
 18 32  1  0
 19 33  1  0
 34 35  1  0
 35 36  1  1
 35 37  1  0
 37 38  1  6
 37 39  1  0
 39 40  1  0
 40 41  1  1
 40 42  1  0
 42 43  1  1
 42 34  1  0
 34 44  1  6
 35 45  1  0
 37 46  1  0
 40 47  1  0
 42 48  1  0
 20 34  1  0
M  ISO  8  23  14  24  14  25  14  26  14  27   9  28   8  29   8  30  14
M  ISO  7  31  14  32  14  33  14  36  15  38  15  41  15  43  15
M  END
>  <DihAtoms>  (1) 
18,19,33,34

>  <DihDeg>  (1) 
-79.99465213350791

$$$$
