
 OpenBabel03272502223D

 27 29  0  0  0  0  0  0  0  0999 V2000
   36.0690   23.7030   31.6990 C   0  0  0  0  0  0  0  0  0  0  0  0
   35.2260   24.5250   30.9660 C   0  0  0  0  0  0  0  0  0  0  0  0
   35.2970   25.9120   31.0280 C   0  0  0  0  0  0  0  0  0  0  0  0
   36.2200   26.4930   31.8320 N   0  0  0  0  0  0  0  0  0  0  0  0
   37.0210   25.6800   32.5280 C   0  0  0  0  0  0  0  0  0  0  0  0
   36.9730   24.3350   32.4870 N   0  0  0  0  0  0  0  0  0  0  0  0
   34.5140   23.9960   30.3450 H   0  0  0  0  0  0  0  0  0  0  0  0
   34.6050   26.4870   30.4270 H   0  0  0  0  0  0  0  0  0  0  0  0
   38.0380   26.2660   33.4160 C   0  0  0  0  0  3  0  0  0  0  0  0
   37.4950   27.3420   34.3220 C   0  0  0  0  0  3  0  0  0  0  0  0
   37.5440   28.3150   33.8150 H   0  0  0  0  0  0  0  0  0  0  0  0
   38.1720   27.3650   35.6640 C   0  0  0  0  0  3  0  0  0  0  0  0
   38.0860   28.4210   36.0220 H   0  0  0  0  0  0  0  0  0  0  0  0
   39.5220   27.0750   35.6300 O   0  0  0  0  0  0  0  0  0  0  0  0
   39.8620   25.9170   34.9760 C   0  0  0  0  0  3  0  0  0  0  0  0
   40.4670   25.2170   35.6110 H   0  0  0  0  0  0  0  0  0  0  0  0
   38.6740   25.2280   34.3340 C   0  0  0  0  0  3  0  0  0  0  0  0
   37.9440   24.8400   35.0710 H   0  0  0  0  0  0  0  0  0  0  0  0
   35.0970   20.0760   32.1170 C   0  0  0  0  0  0  0  0  0  0  0  0
   35.0340   21.4680   32.2890 C   0  0  0  0  0  0  0  0  0  0  0  0
   35.9900   22.2540   31.6290 C   0  0  0  0  0  0  0  0  0  0  0  0
   36.8980   21.6020   30.8790 N   0  0  0  0  0  0  0  0  0  0  0  0
   36.9570   20.2670   30.7140 C   0  0  0  0  0  0  0  0  0  0  0  0
   36.0410   19.4980   31.3440 N   0  0  0  0  0  0  0  0  0  0  0  0
   34.3470   19.4940   32.6370 H   0  0  0  0  0  0  0  0  0  0  0  0
   34.3220   21.9880   32.8810 H   0  0  0  0  0  0  0  0  0  0  0  0
   37.7520   19.9100   30.0750 H   0  0  0  0  0  0  0  0  0  0  0  0
  1  6  1  0  0  0  0
  2  3  1  0  0  0  0
  2  1  2  0  0  0  0
  3  4  2  0  0  0  0
  4  5  1  0  0  0  0
  5  9  1  0  0  0  0
  6  5  2  0  0  0  0
  7  2  1  0  0  0  0
  8  3  1  0  0  0  0
  9 10  1  0  0  0  0
  9 17  1  0  0  0  0
 10 12  1  0  0  0  0
 11 10  1  0  0  0  0
 12 13  1  0  0  0  0
 14 12  1  0  0  0  0
 15 16  1  0  0  0  0
 15 14  1  0  0  0  0
 17 15  1  0  0  0  0
 17 18  1  0  0  0  0
 19 20  1  0  0  0  0
 19 25  1  0  0  0  0
 20 26  1  0  0  0  0
 21  1  1  0  0  0  0
 21 20  2  0  0  0  0
 22 21  1  0  0  0  0
 23 22  2  0  0  0  0
 23 24  1  0  0  0  0
 24 19  2  0  0  0  0
 27 23  1  0  0  0  0
M  END
>  <minimizedAffinity>
-4.99168873

$$$$

 OpenBabel03272502223D

 27 29  0  0  0  0  0  0  0  0999 V2000
   38.3670   24.7230   36.0460 C   0  0  0  0  0  0  0  0  0  0  0  0
   37.8170   24.5670   37.3090 C   0  0  0  0  0  0  0  0  0  0  0  0
   38.3430   23.6890   38.2500 C   0  0  0  0  0  0  0  0  0  0  0  0
   39.4350   22.9540   37.9310 N   0  0  0  0  0  0  0  0  0  0  0  0
   39.9480   23.1220   36.7070 C   0  0  0  0  0  0  0  0  0  0  0  0
   39.4570   23.9630   35.7780 N   0  0  0  0  0  0  0  0  0  0  0  0
   36.9480   25.1850   37.4980 H   0  0  0  0  0  0  0  0  0  0  0  0
   37.8590   23.6230   39.2150 H   0  0  0  0  0  0  0  0  0  0  0  0
   41.1330   22.3420   36.3150 C   0  0  0  0  0  3  0  0  0  0  0  0
   42.3100   23.1990   35.9180 C   0  0  0  0  0  3  0  0  0  0  0  0
   42.2530   23.4360   34.8470 H   0  0  0  0  0  0  0  0  0  0  0  0
   43.6280   22.5830   36.2960 C   0  0  0  0  0  3  0  0  0  0  0  0
   44.3670   22.9890   35.5610 H   0  0  0  0  0  0  0  0  0  0  0  0
   43.6730   21.2080   36.1760 O   0  0  0  0  0  0  0  0  0  0  0  0
   42.6630   20.5250   36.8040 C   0  0  0  0  0  3  0  0  0  0  0  0
   43.0400   19.7490   37.5220 H   0  0  0  0  0  0  0  0  0  0  0  0
   41.6330   21.4400   37.4370 C   0  0  0  0  0  3  0  0  0  0  0  0
   42.0360   22.0330   38.2820 H   0  0  0  0  0  0  0  0  0  0  0  0
   36.9390   27.7330   34.2630 C   0  0  0  0  0  0  0  0  0  0  0  0
   37.4680   26.9780   35.3220 C   0  0  0  0  0  0  0  0  0  0  0  0
   37.8110   25.6420   35.0670 C   0  0  0  0  0  0  0  0  0  0  0  0
   37.6020   25.1900   33.8160 N   0  0  0  0  0  0  0  0  0  0  0  0
   37.0950   25.9150   32.8010 C   0  0  0  0  0  0  0  0  0  0  0  0
   36.7610   27.2040   33.0340 N   0  0  0  0  0  0  0  0  0  0  0  0
   36.6840   28.7610   34.4870 H   0  0  0  0  0  0  0  0  0  0  0  0
   37.6340   27.3270   36.3110 H   0  0  0  0  0  0  0  0  0  0  0  0
   36.9950   25.3940   31.8600 H   0  0  0  0  0  0  0  0  0  0  0  0
  1  2  1  0  0  0  0
  2  7  1  0  0  0  0
  2  3  2  0  0  0  0
  3  8  1  0  0  0  0
  4  3  1  0  0  0  0
  5  4  2  0  0  0  0
  6  1  2  0  0  0  0
  6  5  1  0  0  0  0
  9  5  1  0  0  0  0
  9 17  1  0  0  0  0
 10 12  1  0  0  0  0
 10  9  1  0  0  0  0
 11 10  1  0  0  0  0
 13 12  1  0  0  0  0
 14 12  1  0  0  0  0
 14 15  1  0  0  0  0
 15 17  1  0  0  0  0
 15 16  1  0  0  0  0
 17 18  1  0  0  0  0
 19 25  1  0  0  0  0
 19 20  1  0  0  0  0
 20 26  1  0  0  0  0
 21 20  2  0  0  0  0
 21  1  1  0  0  0  0
 22 21  1  0  0  0  0
 23 24  1  0  0  0  0
 23 22  2  0  0  0  0
 24 19  2  0  0  0  0
 27 23  1  0  0  0  0
M  END
>  <minimizedAffinity>
-4.96491146

$$$$

 OpenBabel03272502223D

 27 29  0  0  0  0  0  0  0  0999 V2000
   37.1330   22.5360   32.9760 C   0  0  0  0  0  0  0  0  0  0  0  0
   37.0740   23.7080   32.2360 C   0  0  0  0  0  0  0  0  0  0  0  0
   37.5790   24.9140   32.7080 C   0  0  0  0  0  0  0  0  0  0  0  0
   38.1530   24.9580   33.9340 N   0  0  0  0  0  0  0  0  0  0  0  0
   38.1990   23.8160   34.6270 C   0  0  0  0  0  0  0  0  0  0  0  0
   37.7160   22.6340   34.1950 N   0  0  0  0  0  0  0  0  0  0  0  0
   36.6040   23.6010   31.2670 H   0  0  0  0  0  0  0  0  0  0  0  0
   37.4960   25.7860   32.0730 H   0  0  0  0  0  0  0  0  0  0  0  0
   38.8110   23.8150   35.9660 C   0  0  0  0  0  3  0  0  0  0  0  0
   37.8560   24.2120   37.0630 C   0  0  0  0  0  3  0  0  0  0  0  0
   37.8640   25.3030   37.1860 H   0  0  0  0  0  0  0  0  0  0  0  0
   38.1240   23.4910   38.3540 C   0  0  0  0  0  3  0  0  0  0  0  0
   37.7540   24.1750   39.1580 H   0  0  0  0  0  0  0  0  0  0  0  0
   39.4620   23.2690   38.6180 O   0  0  0  0  0  0  0  0  0  0  0  0
   40.1720   22.6650   37.6110 C   0  0  0  0  0  3  0  0  0  0  0  0
   40.6960   21.7300   37.9460 H   0  0  0  0  0  0  0  0  0  0  0  0
   39.3490   22.4430   36.3570 C   0  0  0  0  0  3  0  0  0  0  0  0
   38.5280   21.7120   36.4970 H   0  0  0  0  0  0  0  0  0  0  0  0
   35.3830   19.2100   32.5870 C   0  0  0  0  0  0  0  0  0  0  0  0
   35.8160   20.3860   33.2190 C   0  0  0  0  0  0  0  0  0  0  0  0
   36.6030   21.2780   32.4770 C   0  0  0  0  0  0  0  0  0  0  0  0
   36.8810   20.9290   31.2060 N   0  0  0  0  0  0  0  0  0  0  0  0
   36.4650   19.8010   30.6010 C   0  0  0  0  0  0  0  0  0  0  0  0
   35.7050   18.9330   31.3060 N   0  0  0  0  0  0  0  0  0  0  0  0
   34.7760   18.5400   33.1820 H   0  0  0  0  0  0  0  0  0  0  0  0
   35.6010   20.6670   34.2200 H   0  0  0  0  0  0  0  0  0  0  0  0
   36.7800   19.6780   29.5740 H   0  0  0  0  0  0  0  0  0  0  0  0
  1  6  1  0  0  0  0
  2  3  1  0  0  0  0
  2  1  2  0  0  0  0
  3  4  2  0  0  0  0
  4  5  1  0  0  0  0
  5  9  1  0  0  0  0
  6  5  2  0  0  0  0
  7  2  1  0  0  0  0
  8  3  1  0  0  0  0
  9 17  1  0  0  0  0
  9 10  1  0  0  0  0
 10 11  1  0  0  0  0
 10 12  1  0  0  0  0
 12 14  1  0  0  0  0
 12 13  1  0  0  0  0
 15 16  1  0  0  0  0
 15 14  1  0  0  0  0
 17 18  1  0  0  0  0
 17 15  1  0  0  0  0
 19 25  1  0  0  0  0
 19 20  1  0  0  0  0
 20 26  1  0  0  0  0
 21  1  1  0  0  0  0
 21 20  2  0  0  0  0
 22 21  1  0  0  0  0
 23 22  2  0  0  0  0
 23 24  1  0  0  0  0
 24 19  2  0  0  0  0
 27 23  1  0  0  0  0
M  END
>  <minimizedAffinity>
-4.89811754

$$$$

 OpenBabel03272502223D

 27 29  0  0  0  0  0  0  0  0999 V2000
   37.2810   25.4060   32.9070 C   0  0  0  0  0  0  0  0  0  0  0  0
   37.1040   24.2510   32.1620 C   0  0  0  0  0  0  0  0  0  0  0  0
   37.4670   22.9950   32.6330 C   0  0  0  0  0  0  0  0  0  0  0  0
   38.0160   22.8840   33.8670 N   0  0  0  0  0  0  0  0  0  0  0  0
   38.1760   24.0110   34.5670 C   0  0  0  0  0  0  0  0  0  0  0  0
   37.8340   25.2400   34.1340 N   0  0  0  0  0  0  0  0  0  0  0  0
   36.6600   24.4110   31.1870 H   0  0  0  0  0  0  0  0  0  0  0  0
   37.2980   22.1390   31.9930 H   0  0  0  0  0  0  0  0  0  0  0  0
   38.7710   23.9410   35.9120 C   0  0  0  0  0  3  0  0  0  0  0  0
   37.8320   24.3840   37.0060 C   0  0  0  0  0  3  0  0  0  0  0  0
   37.9160   25.4690   37.1520 H   0  0  0  0  0  0  0  0  0  0  0  0
   38.0330   23.6200   38.2850 C   0  0  0  0  0  3  0  0  0  0  0  0
   37.7010   24.3120   39.0990 H   0  0  0  0  0  0  0  0  0  0  0  0
   39.3480   23.2990   38.5590 O   0  0  0  0  0  0  0  0  0  0  0  0
   40.0260   22.6650   37.5480 C   0  0  0  0  0  3  0  0  0  0  0  0
   40.4790   21.6900   37.8700 H   0  0  0  0  0  0  0  0  0  0  0  0
   39.2050   22.5270   36.2810 C   0  0  0  0  0  3  0  0  0  0  0  0
   38.3330   21.8540   36.3960 H   0  0  0  0  0  0  0  0  0  0  0  0
   36.1760   29.0030   32.5660 C   0  0  0  0  0  0  0  0  0  0  0  0
   36.5180   27.8030   33.2080 C   0  0  0  0  0  0  0  0  0  0  0  0
   36.8990   26.7160   32.4080 C   0  0  0  0  0  0  0  0  0  0  0  0
   36.9050   26.9160   31.0760 N   0  0  0  0  0  0  0  0  0  0  0  0
   36.5780   28.0690   30.4610 C   0  0  0  0  0  0  0  0  0  0  0  0
   36.2100   29.1230   31.2220 N   0  0  0  0  0  0  0  0  0  0  0  0
   35.8870   29.8260   33.2070 H   0  0  0  0  0  0  0  0  0  0  0  0
   36.5130   27.6380   34.2570 H   0  0  0  0  0  0  0  0  0  0  0  0
   36.6390   28.0550   29.3820 H   0  0  0  0  0  0  0  0  0  0  0  0
  1  6  1  0  0  0  0
  2  3  1  0  0  0  0
  2  1  2  0  0  0  0
  3  4  2  0  0  0  0
  4  5  1  0  0  0  0
  5  9  1  0  0  0  0
  6  5  2  0  0  0  0
  7  2  1  0  0  0  0
  8  3  1  0  0  0  0
  9 17  1  0  0  0  0
  9 10  1  0  0  0  0
 10 11  1  0  0  0  0
 10 12  1  0  0  0  0
 12 14  1  0  0  0  0
 12 13  1  0  0  0  0
 15 16  1  0  0  0  0
 15 14  1  0  0  0  0
 17 18  1  0  0  0  0
 17 15  1  0  0  0  0
 19 25  1  0  0  0  0
 19 20  1  0  0  0  0
 20 26  1  0  0  0  0
 21  1  1  0  0  0  0
 21 20  2  0  0  0  0
 22 21  1  0  0  0  0
 23 22  2  0  0  0  0
 23 24  1  0  0  0  0
 24 19  2  0  0  0  0
 27 23  1  0  0  0  0
M  END
>  <minimizedAffinity>
-4.8728652

$$$$

 OpenBabel03272502223D

 27 29  0  0  0  0  0  0  0  0999 V2000
   36.2230   28.5660   33.8120 C   0  0  0  0  0  0  0  0  0  0  0  0
   35.9140   28.7080   32.4670 C   0  0  0  0  0  0  0  0  0  0  0  0
   35.0980   29.7280   31.9930 C   0  0  0  0  0  0  0  0  0  0  0  0
   34.5790   30.6230   32.8680 N   0  0  0  0  0  0  0  0  0  0  0  0
   34.8910   30.4650   34.1580 C   0  0  0  0  0  0  0  0  0  0  0  0
   35.6780   29.4860   34.6440 N   0  0  0  0  0  0  0  0  0  0  0  0
   36.3630   27.9610   31.8240 H   0  0  0  0  0  0  0  0  0  0  0  0
   34.9030   29.7740   30.9300 H   0  0  0  0  0  0  0  0  0  0  0  0
   34.3480   31.4110   35.1460 C   0  0  0  0  0  3  0  0  0  0  0  0
   33.0970   30.9160   35.8270 C   0  0  0  0  0  3  0  0  0  0  0  0
   32.2150   31.2030   35.2390 H   0  0  0  0  0  0  0  0  0  0  0  0
   32.9990   31.3670   37.2580 C   0  0  0  0  0  3  0  0  0  0  0  0
   31.9040   31.3990   37.4840 H   0  0  0  0  0  0  0  0  0  0  0  0
   33.4830   32.6390   37.4920 O   0  0  0  0  0  0  0  0  0  0  0  0
   34.7520   32.8840   37.0300 C   0  0  0  0  0  3  0  0  0  0  0  0
   35.4440   33.2580   37.8310 H   0  0  0  0  0  0  0  0  0  0  0  0
   35.3400   31.7150   36.2640 C   0  0  0  0  0  3  0  0  0  0  0  0
   35.5200   30.8240   36.8970 H   0  0  0  0  0  0  0  0  0  0  0  0
   38.6240   26.4320   35.8010 C   0  0  0  0  0  0  0  0  0  0  0  0
   37.8510   27.5550   35.4680 C   0  0  0  0  0  0  0  0  0  0  0  0
   37.0770   27.4960   34.3010 C   0  0  0  0  0  0  0  0  0  0  0  0
   37.1400   26.3560   33.5880 N   0  0  0  0  0  0  0  0  0  0  0  0
   37.8820   25.2780   33.9080 C   0  0  0  0  0  0  0  0  0  0  0  0
   38.6320   25.3230   35.0320 N   0  0  0  0  0  0  0  0  0  0  0  0
   39.2120   26.5040   36.7070 H   0  0  0  0  0  0  0  0  0  0  0  0
   37.7980   28.4580   36.0250 H   0  0  0  0  0  0  0  0  0  0  0  0
   37.8140   24.4450   33.2240 H   0  0  0  0  0  0  0  0  0  0  0  0
  1 21  1  0  0  0  0
  1  6  1  0  0  0  0
  2  1  2  0  0  0  0
  3  2  1  0  0  0  0
  3  4  2  0  0  0  0
  4  5  1  0  0  0  0
  5  6  2  0  0  0  0
  5  9  1  0  0  0  0
  7  2  1  0  0  0  0
  8  3  1  0  0  0  0
  9 10  1  0  0  0  0
  9 17  1  0  0  0  0
 10 12  1  0  0  0  0
 11 10  1  0  0  0  0
 12 13  1  0  0  0  0
 12 14  1  0  0  0  0
 15 14  1  0  0  0  0
 15 16  1  0  0  0  0
 17 18  1  0  0  0  0
 17 15  1  0  0  0  0
 19 25  1  0  0  0  0
 20 19  1  0  0  0  0
 20 26  1  0  0  0  0
 21 20  2  0  0  0  0
 22 23  2  0  0  0  0
 22 21  1  0  0  0  0
 23 24  1  0  0  0  0
 24 19  2  0  0  0  0
 27 23  1  0  0  0  0
M  END
>  <minimizedAffinity>
-4.84711647

$$$$

 OpenBabel03272502223D

 27 29  0  0  0  0  0  0  0  0999 V2000
   36.1800   28.5710   33.8380 C   0  0  0  0  0  0  0  0  0  0  0  0
   35.8400   28.6920   32.4980 C   0  0  0  0  0  0  0  0  0  0  0  0
   35.0020   29.6960   32.0290 C   0  0  0  0  0  0  0  0  0  0  0  0
   34.4920   30.5960   32.9030 N   0  0  0  0  0  0  0  0  0  0  0  0
   34.8340   30.4590   34.1880 C   0  0  0  0  0  0  0  0  0  0  0  0
   35.6430   29.4960   34.6700 N   0  0  0  0  0  0  0  0  0  0  0  0
   36.2830   27.9410   31.8550 H   0  0  0  0  0  0  0  0  0  0  0  0
   34.7830   29.7260   30.9700 H   0  0  0  0  0  0  0  0  0  0  0  0
   34.3030   31.4130   35.1760 C   0  0  0  0  0  3  0  0  0  0  0  0
   33.0550   30.9250   35.8700 C   0  0  0  0  0  3  0  0  0  0  0  0
   32.1690   31.2120   35.2880 H   0  0  0  0  0  0  0  0  0  0  0  0
   32.9710   31.3840   37.2990 C   0  0  0  0  0  3  0  0  0  0  0  0
   31.8780   31.4210   37.5340 H   0  0  0  0  0  0  0  0  0  0  0  0
   33.4610   32.6560   37.5210 O   0  0  0  0  0  0  0  0  0  0  0  0
   34.7260   32.8950   37.0480 C   0  0  0  0  0  3  0  0  0  0  0  0
   35.4260   33.2710   37.8410 H   0  0  0  0  0  0  0  0  0  0  0  0
   35.3040   31.7200   36.2830 C   0  0  0  0  0  3  0  0  0  0  0  0
   35.4870   30.8320   36.9200 H   0  0  0  0  0  0  0  0  0  0  0  0
   38.0980   25.3520   34.3210 C   0  0  0  0  0  0  0  0  0  0  0  0
   37.2080   26.2590   33.7240 C   0  0  0  0  0  0  0  0  0  0  0  0
   37.0560   27.5180   34.3220 C   0  0  0  0  0  0  0  0  0  0  0  0
   37.7840   27.7550   35.4300 N   0  0  0  0  0  0  0  0  0  0  0  0
   38.6370   26.8840   36.0020 C   0  0  0  0  0  0  0  0  0  0  0  0
   38.7930   25.6670   35.4340 N   0  0  0  0  0  0  0  0  0  0  0  0
   38.1970   24.3880   33.8380 H   0  0  0  0  0  0  0  0  0  0  0  0
   36.6310   26.0780   32.8520 H   0  0  0  0  0  0  0  0  0  0  0  0
   39.1420   27.2390   36.8890 H   0  0  0  0  0  0  0  0  0  0  0  0
  1 21  1  0  0  0  0
  1  6  1  0  0  0  0
  2  1  2  0  0  0  0
  3  2  1  0  0  0  0
  3  4  2  0  0  0  0
  4  5  1  0  0  0  0
  5  6  2  0  0  0  0
  5  9  1  0  0  0  0
  7  2  1  0  0  0  0
  8  3  1  0  0  0  0
  9 10  1  0  0  0  0
  9 17  1  0  0  0  0
 10 12  1  0  0  0  0
 11 10  1  0  0  0  0
 12 14  1  0  0  0  0
 12 13  1  0  0  0  0
 15 14  1  0  0  0  0
 15 16  1  0  0  0  0
 17 18  1  0  0  0  0
 17 15  1  0  0  0  0
 19 24  1  0  0  0  0
 20 19  2  0  0  0  0
 20 21  1  0  0  0  0
 21 22  2  0  0  0  0
 22 23  1  0  0  0  0
 23 27  1  0  0  0  0
 24 23  2  0  0  0  0
 25 19  1  0  0  0  0
 26 20  1  0  0  0  0
M  END
>  <minimizedAffinity>
-4.82092953

$$$$

 OpenBabel03272502223D

 27 29  0  0  0  0  0  0  0  0999 V2000
   36.0440   28.1730   32.2850 C   0  0  0  0  0  0  0  0  0  0  0  0
   36.3170   29.1150   31.3040 C   0  0  0  0  0  0  0  0  0  0  0  0
   36.1850   30.4810   31.5240 C   0  0  0  0  0  0  0  0  0  0  0  0
   35.7760   30.9200   32.7380 N   0  0  0  0  0  0  0  0  0  0  0  0
   35.5200   29.9940   33.6670 C   0  0  0  0  0  0  0  0  0  0  0  0
   35.6380   28.6650   33.4810 N   0  0  0  0  0  0  0  0  0  0  0  0
   36.6390   28.6960   30.3590 H   0  0  0  0  0  0  0  0  0  0  0  0
   36.4170   31.1540   30.7100 H   0  0  0  0  0  0  0  0  0  0  0  0
   35.0710   30.4230   35.0020 C   0  0  0  0  0  3  0  0  0  0  0  0
   36.0130   31.3950   35.6680 C   0  0  0  0  0  3  0  0  0  0  0  0
   36.7790   30.8440   36.2300 H   0  0  0  0  0  0  0  0  0  0  0  0
   35.2960   32.4040   36.5210 C   0  0  0  0  0  3  0  0  0  0  0  0
   36.0320   32.7030   37.3090 H   0  0  0  0  0  0  0  0  0  0  0  0
   34.1920   31.9090   37.1870 O   0  0  0  0  0  0  0  0  0  0  0  0
   33.2750   31.2500   36.4070 C   0  0  0  0  0  3  0  0  0  0  0  0
   32.2390   31.6710   36.5000 H   0  0  0  0  0  0  0  0  0  0  0  0
   33.7140   31.1180   34.9620 C   0  0  0  0  0  3  0  0  0  0  0  0
   33.7730   32.0890   34.4330 H   0  0  0  0  0  0  0  0  0  0  0  0
   35.6990   24.6340   31.0090 C   0  0  0  0  0  0  0  0  0  0  0  0
   35.4420   26.0090   31.1130 C   0  0  0  0  0  0  0  0  0  0  0  0
   36.1830   26.7460   32.0480 C   0  0  0  0  0  0  0  0  0  0  0  0
   37.0890   26.0650   32.7770 N   0  0  0  0  0  0  0  0  0  0  0  0
   37.3340   24.7450   32.6760 C   0  0  0  0  0  0  0  0  0  0  0  0
   36.6270   24.0250   31.7770 N   0  0  0  0  0  0  0  0  0  0  0  0
   35.1140   24.0900   30.2790 H   0  0  0  0  0  0  0  0  0  0  0  0
   34.7290   26.5520   30.5430 H   0  0  0  0  0  0  0  0  0  0  0  0
   38.0970   24.3610   33.3380 H   0  0  0  0  0  0  0  0  0  0  0  0
  1  6  1  0  0  0  0
  2  3  1  0  0  0  0
  2  1  2  0  0  0  0
  3  4  2  0  0  0  0
  4  5  1  0  0  0  0
  5  9  1  0  0  0  0
  6  5  2  0  0  0  0
  7  2  1  0  0  0  0
  8  3  1  0  0  0  0
  9 10  1  0  0  0  0
 10 11  1  0  0  0  0
 10 12  1  0  0  0  0
 12 14  1  0  0  0  0
 12 13  1  0  0  0  0
 15 16  1  0  0  0  0
 15 14  1  0  0  0  0
 17  9  1  0  0  0  0
 17 15  1  0  0  0  0
 18 17  1  0  0  0  0
 19 20  2  0  0  0  0
 19 24  1  0  0  0  0
 20 21  1  0  0  0  0
 21  1  1  0  0  0  0
 21 22  2  0  0  0  0
 23 22  1  0  0  0  0
 23 27  1  0  0  0  0
 24 23  2  0  0  0  0
 25 19  1  0  0  0  0
 26 20  1  0  0  0  0
M  END
>  <minimizedAffinity>
-4.79801512

$$$$

 OpenBabel03272502223D

 27 29  0  0  0  0  0  0  0  0999 V2000
   37.2030   25.3290   32.5480 C   0  0  0  0  0  0  0  0  0  0  0  0
   36.3610   26.2340   31.9200 C   0  0  0  0  0  0  0  0  0  0  0  0
   35.3270   25.8340   31.0810 C   0  0  0  0  0  0  0  0  0  0  0  0
   35.1250   24.5130   30.8630 N   0  0  0  0  0  0  0  0  0  0  0  0
   35.9490   23.6590   31.4800 C   0  0  0  0  0  0  0  0  0  0  0  0
   36.9580   24.0200   32.2960 N   0  0  0  0  0  0  0  0  0  0  0  0
   36.5780   27.2720   32.1380 H   0  0  0  0  0  0  0  0  0  0  0  0
   34.7120   26.5990   30.6270 H   0  0  0  0  0  0  0  0  0  0  0  0
   35.7700   22.2130   31.2710 C   0  0  0  0  0  3  0  0  0  0  0  0
   37.0630   21.4780   31.0230 C   0  0  0  0  0  3  0  0  0  0  0  0
   37.2960   21.4870   29.9500 H   0  0  0  0  0  0  0  0  0  0  0  0
   37.0570   20.0870   31.5930 C   0  0  0  0  0  3  0  0  0  0  0  0
   37.7690   19.5030   30.9580 H   0  0  0  0  0  0  0  0  0  0  0  0
   35.8400   19.4390   31.5080 O   0  0  0  0  0  0  0  0  0  0  0  0
   34.7640   20.1320   32.0050 C   0  0  0  0  0  3  0  0  0  0  0  0
   34.1960   19.5580   32.7850 H   0  0  0  0  0  0  0  0  0  0  0  0
   35.1240   21.5300   32.4710 C   0  0  0  0  0  3  0  0  0  0  0  0
   35.7970   21.5370   33.3500 H   0  0  0  0  0  0  0  0  0  0  0  0
   39.3130   27.0260   35.1830 C   0  0  0  0  0  0  0  0  0  0  0  0
   38.1700   26.7300   34.4240 C   0  0  0  0  0  0  0  0  0  0  0  0
   38.2830   25.7540   33.4230 C   0  0  0  0  0  0  0  0  0  0  0  0
   39.4900   25.1770   33.2710 N   0  0  0  0  0  0  0  0  0  0  0  0
   40.5850   25.4610   34.0010 C   0  0  0  0  0  0  0  0  0  0  0  0
   40.4890   26.3990   34.9690 N   0  0  0  0  0  0  0  0  0  0  0  0
   39.1980   27.7820   35.9500 H   0  0  0  0  0  0  0  0  0  0  0  0
   37.2160   27.1820   34.5370 H   0  0  0  0  0  0  0  0  0  0  0  0
   41.4740   24.9020   33.7460 H   0  0  0  0  0  0  0  0  0  0  0  0
  1 21  1  0  0  0  0
  2  7  1  0  0  0  0
  2  1  2  0  0  0  0
  3  2  1  0  0  0  0
  4  3  2  0  0  0  0
  4  5  1  0  0  0  0
  5  6  2  0  0  0  0
  6  1  1  0  0  0  0
  8  3  1  0  0  0  0
  9  5  1  0  0  0  0
  9 17  1  0  0  0  0
 10  9  1  0  0  0  0
 10 12  1  0  0  0  0
 11 10  1  0  0  0  0
 13 12  1  0  0  0  0
 14 12  1  0  0  0  0
 14 15  1  0  0  0  0
 15 17  1  0  0  0  0
 15 16  1  0  0  0  0
 17 18  1  0  0  0  0
 19 25  1  0  0  0  0
 20 26  1  0  0  0  0
 20 19  2  0  0  0  0
 21 20  1  0  0  0  0
 22 21  2  0  0  0  0
 22 23  1  0  0  0  0
 23 24  2  0  0  0  0
 24 19  1  0  0  0  0
 27 23  1  0  0  0  0
M  END
>  <minimizedAffinity>
-4.76352739

$$$$

 OpenBabel03272502223D

 27 29  0  0  0  0  0  0  0  0999 V2000
   35.4990   29.8680   34.2740 C   0  0  0  0  0  0  0  0  0  0  0  0
   35.2970   30.0830   32.9180 C   0  0  0  0  0  0  0  0  0  0  0  0
   35.8700   29.2780   31.9410 C   0  0  0  0  0  0  0  0  0  0  0  0
   36.6570   28.2400   32.3150 N   0  0  0  0  0  0  0  0  0  0  0  0
   36.8360   28.0520   33.6270 C   0  0  0  0  0  0  0  0  0  0  0  0
   36.2940   28.8170   34.5940 N   0  0  0  0  0  0  0  0  0  0  0  0
   34.6590   30.9270   32.6900 H   0  0  0  0  0  0  0  0  0  0  0  0
   35.6660   29.5080   30.9040 H   0  0  0  0  0  0  0  0  0  0  0  0
   37.6840   26.9380   34.0810 C   0  0  0  0  0  3  0  0  0  0  0  0
   39.0790   26.9750   33.5100 C   0  0  0  0  0  3  0  0  0  0  0  0
   39.1010   26.4470   32.5470 H   0  0  0  0  0  0  0  0  0  0  0  0
   40.1120   26.4530   34.4690 C   0  0  0  0  0  3  0  0  0  0  0  0
   40.9410   26.0610   33.8290 H   0  0  0  0  0  0  0  0  0  0  0  0
   39.6860   25.3930   35.2470 O   0  0  0  0  0  0  0  0  0  0  0  0
   38.5070   25.5890   35.9200 C   0  0  0  0  0  3  0  0  0  0  0  0
   38.6010   25.4210   37.0260 H   0  0  0  0  0  0  0  0  0  0  0  0
   37.8530   26.9180   35.5960 C   0  0  0  0  0  3  0  0  0  0  0  0
   38.4380   27.7900   35.9480 H   0  0  0  0  0  0  0  0  0  0  0  0
   34.8540   32.4080   36.9940 C   0  0  0  0  0  0  0  0  0  0  0  0
   35.5840   31.6720   36.0490 C   0  0  0  0  0  0  0  0  0  0  0  0
   34.8980   30.7140   35.2900 C   0  0  0  0  0  0  0  0  0  0  0  0
   33.5800   30.5780   35.5330 N   0  0  0  0  0  0  0  0  0  0  0  0
   32.8790   31.2860   36.4400 C   0  0  0  0  0  0  0  0  0  0  0  0
   33.5310   32.2120   37.1770 N   0  0  0  0  0  0  0  0  0  0  0  0
   35.4080   33.1410   37.5660 H   0  0  0  0  0  0  0  0  0  0  0  0
   36.6230   31.7730   35.8540 H   0  0  0  0  0  0  0  0  0  0  0  0
   31.8270   31.0490   36.5050 H   0  0  0  0  0  0  0  0  0  0  0  0
  1  6  1  0  0  0  0
  1 21  1  0  0  0  0
  2  1  2  0  0  0  0
  3  4  2  0  0  0  0
  3  2  1  0  0  0  0
  4  5  1  0  0  0  0
  5  9  1  0  0  0  0
  5  6  2  0  0  0  0
  7  2  1  0  0  0  0
  8  3  1  0  0  0  0
  9 17  1  0  0  0  0
 10  9  1  0  0  0  0
 10 12  1  0  0  0  0
 11 10  1  0  0  0  0
 12 14  1  0  0  0  0
 13 12  1  0  0  0  0
 14 15  1  0  0  0  0
 15 16  1  0  0  0  0
 17 15  1  0  0  0  0
 17 18  1  0  0  0  0
 19 24  1  0  0  0  0
 19 25  1  0  0  0  0
 20 19  2  0  0  0  0
 21 22  2  0  0  0  0
 21 20  1  0  0  0  0
 22 23  1  0  0  0  0
 23 27  1  0  0  0  0
 23 24  2  0  0  0  0
 26 20  1  0  0  0  0
M  END
>  <minimizedAffinity>
-4.7310195

$$$$
