
 OpenBabel03272507143D

 41 45  0  0  0  0  0  0  0  0999 V2000
   35.9950   29.1750   49.8000 C   0  0  0  0  0  0  0  0  0  0  0  0
   34.9870   29.6960   50.5350 C   0  0  0  0  0  0  0  0  0  0  0  0
   33.8030   29.1380   50.0480 C   0  0  0  0  0  0  0  0  0  0  0  0
   34.1900   28.2810   49.0080 C   0  0  0  0  0  0  0  0  0  0  0  0
   35.4820   28.3540   48.9200 O   0  0  0  0  0  0  0  0  0  0  0  0
   35.0210   30.4200   51.3650 H   0  0  0  0  0  0  0  0  0  0  0  0
   32.8200   29.3870   50.4690 H   0  0  0  0  0  0  0  0  0  0  0  0
   33.6000   26.5540   47.3110 C   0  0  0  0  0  0  0  0  0  0  0  0
   33.2140   27.5070   48.2470 C   0  0  0  0  0  0  0  0  0  0  0  0
   31.8790   27.7650   48.5020 C   0  0  0  0  0  0  0  0  0  0  0  0
   30.9390   27.0500   47.8030 C   0  0  0  0  0  0  0  0  0  0  0  0
   29.5940   27.0800   47.8420 N   0  0  0  0  0  0  0  0  0  0  0  0
   29.1500   26.1830   46.9660 N   0  0  0  0  0  0  0  0  0  0  0  0
   30.1850   25.5820   46.3720 C   0  0  0  0  0  0  0  0  0  0  0  0
   31.3740   26.1070   46.8770 C   0  0  0  0  0  0  0  0  0  0  0  0
   32.6950   25.8360   46.6090 C   0  0  0  0  0  0  0  0  0  0  0  0
   34.6690   26.4220   47.1800 H   0  0  0  0  0  0  0  0  0  0  0  0
   31.5100   28.4960   49.2190 H   0  0  0  0  0  0  0  0  0  0  0  0
   28.9680   27.6780   48.4300 H   0  0  0  0  0  0  0  0  0  0  0  0
   30.1790   24.7940   45.6020 H   0  0  0  0  0  0  0  0  0  0  0  0
   32.9660   25.1020   45.8890 H   0  0  0  0  0  0  0  0  0  0  0  0
   37.3890   29.5370   50.0290 C   0  0  0  0  0  0  0  0  0  0  0  0
   38.0800   28.8340   50.8090 O   0  0  0  0  0  0  0  0  0  0  0  0
   37.9000   30.6950   49.3390 C   0  0  0  0  0  0  0  0  0  0  0  0
   38.2350   31.7980   50.0970 C   0  0  0  0  0  0  0  0  0  0  0  0
   38.7290   32.9330   49.4710 C   0  0  0  0  0  0  0  0  0  0  0  0
   38.8560   32.8890   48.1220 N   0  0  0  0  0  0  0  0  0  0  0  0
   38.5310   31.8230   47.3970 C   0  0  0  0  0  0  0  0  0  0  0  0
   38.0570   30.7390   48.0120 N   0  0  0  0  0  0  0  0  0  0  0  0
   38.1430   31.8630   51.1910 H   0  0  0  0  0  0  0  0  0  0  0  0
   38.9970   33.7990   50.0300 H   0  0  0  0  0  0  0  0  0  0  0  0
   38.6650   31.7620   45.9140 C   0  0  0  0  0  3  0  0  0  0  0  0
   39.5690   32.8430   45.3700 C   0  0  0  0  0  3  0  0  0  0  0  0
   40.6440   32.6430   45.6240 H   0  0  0  0  0  0  0  0  0  0  0  0
   39.3400   32.8600   43.8710 C   0  0  0  0  0  3  0  0  0  0  0  0
   40.0470   33.5340   43.3510 H   0  0  0  0  0  0  0  0  0  0  0  0
   39.2730   31.6010   43.3330 O   0  0  0  0  0  0  0  0  0  0  0  0
   39.8760   30.6090   44.0990 C   0  0  0  0  0  3  0  0  0  0  0  0
   39.7610   29.6580   43.5420 H   0  0  0  0  0  0  0  0  0  0  0  0
   39.2150   30.4370   45.4410 C   0  0  0  0  0  3  0  0  0  0  0  0
   39.9920   30.0400   46.1410 H   0  0  0  0  0  0  0  0  0  0  0  0
  1 22  1  0  0  0  0
  1  2  2  0  0  0  0
  2  6  1  0  0  0  0
  3  7  1  0  0  0  0
  3  2  1  0  0  0  0
  4  3  2  0  0  0  0
  5  4  1  0  0  0  0
  5  1  1  0  0  0  0
  8  9  1  0  0  0  0
  9 10  2  0  0  0  0
  9  4  1  0  0  0  0
 10 18  1  0  0  0  0
 11 12  1  0  0  0  0
 11 10  1  0  0  0  0
 12 19  1  0  0  0  0
 13 12  1  0  0  0  0
 14 15  1  0  0  0  0
 14 13  2  0  0  0  0
 15 11  2  0  0  0  0
 16 15  1  0  0  0  0
 16  8  2  0  0  0  0
 17  8  1  0  0  0  0
 20 14  1  0  0  0  0
 21 16  1  0  0  0  0
 22 23  2  0  0  0  0
 24 22  1  0  0  0  0
 24 25  1  0  0  0  0
 25 30  1  0  0  0  0
 26 31  1  0  0  0  0
 26 25  2  0  0  0  0
 27 26  1  0  0  0  0
 28 29  1  0  0  0  0
 28 27  2  0  0  0  0
 29 24  2  0  0  0  0
 32 28  1  0  0  0  0
 33 34  1  0  0  0  0
 33 32  1  0  0  0  0
 35 33  1  0  0  0  0
 36 35  1  0  0  0  0
 37 35  1  0  0  0  0
 37 38  1  0  0  0  0
 38 40  1  0  0  0  0
 39 38  1  0  0  0  0
 40 32  1  0  0  0  0
 40 41  1  0  0  0  0
M  END
>  <minimizedAffinity>
-7.02795982

>  <minimizedRMSD>
0.457548857

$$$$
