REMARK  Name = 
REMARK  3 active torsions:
REMARK  status: ('A' for Active; 'I' for Inactive)
REMARK    1  A    between atoms: C_1  and  O_12
REMARK    2  A    between atoms: C_3  and  C_7
REMARK    3  A    between atoms: O_12  and  C_18
REMARK                            x       y       z     vdW  Elec       q    Type
REMARK                         _______ _______ _______ _____ _____    ______ ____
ROOT
ATOM      1  C   UNL     1      37.349  29.831  50.963  0.00  0.00    +0.000 A 
ATOM      2  C   UNL     1      38.106  30.723  50.200  0.00  0.00    +0.000 A 
ATOM      3  C   UNL     1      37.799  30.851  48.850  0.00  0.00    +0.000 A 
ATOM      4  N   UNL     1      36.786  30.109  48.341  0.00  0.00    +0.000 NA
ATOM      5  C   UNL     1      36.066  29.249  49.107  0.00  0.00    +0.000 A 
ATOM      6  N   UNL     1      36.359  29.119  50.421  0.00  0.00    +0.000 NA
ATOM      7  H   UNL     1      38.911  31.330  50.547  0.00  0.00    +0.000 HD
ATOM      8  H   UNL     1      35.258  28.659  48.694  0.00  0.00    +0.000 HD
ENDROOT
BRANCH   3   9
ATOM      9  C   UNL     1      38.543  31.763  47.985  0.00  0.00    +0.000 A 
ATOM     10  C   UNL     1      39.020  31.447  46.740  0.00  0.00    +0.000 A 
ATOM     11  C   UNL     1      39.647  32.614  46.314  0.00  0.00    +0.000 A 
ATOM     12  N   UNL     1      39.543  33.569  47.264  0.00  0.00    +0.000 N 
ATOM     13  N   UNL     1      38.864  33.037  48.286  0.00  0.00    +0.000 NA
ATOM     14  H   UNL     1      38.897  30.485  46.259  0.00  0.00    +0.000 HD
ATOM     15  H   UNL     1      40.127  32.645  45.327  0.00  0.00    +0.000 HD
ATOM     16  H   UNL     1      39.951  34.529  47.143  0.00  0.00    +0.000 HD
ENDBRANCH   3   9
BRANCH   1  17
ATOM     17  O   UNL     1      37.764  29.806  52.283  0.00  0.00    +0.000 OA
BRANCH  17  18
ATOM     18  C   UNL     1      37.068  28.934  53.161  0.00  0.00    +0.000 C 
ATOM     19  C   UNL     1      36.064  29.754  53.929  0.00  0.00    +0.000 C 
ATOM     20  H   UNL     1      35.194  29.116  54.214  0.00  0.00    +0.000 HD
ATOM     21  C   UNL     1      36.627  30.296  55.202  0.00  0.00    +0.000 C 
ATOM     22  H   UNL     1      35.758  30.773  55.742  0.00  0.00    +0.000 HD
ATOM     23  O   UNL     1      37.100  29.231  55.962  0.00  0.00    +0.000 OA
ATOM     24  C   UNL     1      38.265  28.766  55.358  0.00  0.00    +0.000 C 
ATOM     25  H   UNL     1      39.035  29.552  55.279  0.00  0.00    +0.000 HD
ATOM     26  C   UNL     1      38.005  28.145  54.010  0.00  0.00    +0.000 C 
ATOM     27  H   UNL     1      39.003  28.153  53.486  0.00  0.00    +0.000 HD
ENDBRANCH  17  18
ENDBRANCH   1  17
TORSDOF 3
