
 OpenBabel03272508453D

 28 30  0  0  0  0  0  0  0  0999 V2000
   34.9640   28.7890   48.6760 C   0  0  0  0  0  0  0  0  0  0  0  0
   35.0520   28.8110   50.0470 C   0  0  0  0  0  0  0  0  0  0  0  0
   36.1830   29.6040   50.2880 C   0  0  0  0  0  0  0  0  0  0  0  0
   36.7030   30.0090   49.0790 C   0  0  0  0  0  0  0  0  0  0  0  0
   35.9440   29.5010   48.1500 O   0  0  0  0  0  0  0  0  0  0  0  0
   34.4090   28.3320   50.7750 H   0  0  0  0  0  0  0  0  0  0  0  0
   36.5810   29.8560   51.2720 H   0  0  0  0  0  0  0  0  0  0  0  0
   37.8780   30.8510   48.7970 C   0  0  0  0  0  0  0  0  0  0  0  0
   38.0700   31.9490   49.7890 C   0  0  0  0  0  0  0  0  0  0  0  0
   37.0750   32.0920   50.3010 H   0  0  0  0  0  0  0  0  0  0  0  0
   38.3890   33.2800   49.1460 C   0  0  0  0  0  0  0  0  0  0  0  0
   38.8180   33.9210   49.9440 H   0  0  0  0  0  0  0  0  0  0  0  0
   39.3420   33.1900   48.1380 O   0  0  0  0  0  0  0  0  0  0  0  0
   39.0990   32.1940   47.2110 C   0  0  0  0  0  0  0  0  0  0  0  0
   39.2520   32.4940   46.1660 H   0  0  0  0  0  0  0  0  0  0  0  0
   37.7390   31.5160   47.4210 C   0  0  0  0  0  0  0  0  0  0  0  0
   37.6710   30.7440   46.6170 H   0  0  0  0  0  0  0  0  0  0  0  0
   33.9200   28.0730   47.9290 C   0  0  0  0  0  0  0  0  0  0  0  0
   33.9210   26.8130   47.9870 O   0  0  0  0  0  0  0  0  0  0  0  0
   30.7610   28.9440   46.3720 C   0  0  0  0  0  0  0  0  0  0  0  0
   31.0280   30.1550   45.7450 C   0  0  0  0  0  0  0  0  0  0  0  0
   32.3010   30.6910   45.8500 C   0  0  0  0  0  0  0  0  0  0  0  0
   33.2260   29.9920   46.5680 N   0  0  0  0  0  0  0  0  0  0  0  0
   32.9390   28.8240   47.1620 C   0  0  0  0  0  0  0  0  0  0  0  0
   31.7010   28.2950   47.0650 N   0  0  0  0  0  0  0  0  0  0  0  0
   29.7430   28.5780   46.2510 H   0  0  0  0  0  0  0  0  0  0  0  0
   30.3520   30.7650   45.1620 H   0  0  0  0  0  0  0  0  0  0  0  0
   32.7090   31.6080   45.4440 H   0  0  0  0  0  0  0  0  0  0  0  0
  1  2  2  0  0  0  0
  2  3  1  0  0  0  0
  2  6  1  0  0  0  0
  3  7  1  0  0  0  0
  4  3  2  0  0  0  0
  5  1  1  0  0  0  0
  5  4  1  0  0  0  0
  8  4  1  0  0  0  0
  8  9  1  0  0  0  0
  9 10  1  0  0  0  0
 11  9  1  0  0  0  0
 11 12  1  0  0  0  0
 13 11  1  0  0  0  0
 14 16  1  0  0  0  0
 14 13  1  0  0  0  0
 15 14  1  0  0  0  0
 16  8  1  0  0  0  0
 17 16  1  0  0  0  0
 18 19  2  0  0  0  0
 18  1  1  0  0  0  0
 20 25  1  0  0  0  0
 21 22  1  0  0  0  0
 21 20  2  0  0  0  0
 22 23  2  0  0  0  0
 23 24  1  0  0  0  0
 24 18  1  0  0  0  0
 25 24  2  0  0  0  0
 26 20  1  0  0  0  0
 27 21  1  0  0  0  0
 28 22  1  0  0  0  0
M  END
>  <minimizedAffinity>
-5.58150578

>  <minimizedRMSD>
2.87239718

$$$$
