
 OpenBabel03272505273D

 32 34  0  0  0  0  0  0  0  0999 V2000
   37.3960   31.0660   47.1400 N   0  0  0  0  0  0  0  0  0  0  0  0
   36.8140   30.7180   45.9610 C   0  0  0  0  0  0  0  0  0  0  0  0
   37.2790   31.1940   44.7420 C   0  0  0  0  0  0  0  0  0  0  0  0
   38.3870   32.0590   44.7700 C   0  0  0  0  0  0  0  0  0  0  0  0
   38.8390   32.5100   43.6940 O   0  0  0  0  0  0  0  0  0  0  0  0
   38.9650   32.4010   45.9640 N   0  0  0  0  0  0  0  0  0  0  0  0
   38.4270   31.8800   47.0590 C   0  0  0  0  0  0  0  0  0  0  0  0
   38.9840   32.2210   48.1290 O   0  0  0  0  0  0  0  0  0  0  0  0
   35.9610   30.0500   45.9650 H   0  0  0  0  0  0  0  0  0  0  0  0
   36.6200   30.7920   43.5090 C   0  0  0  0  0  3  0  0  0  0  0  0
   35.1040   30.7710   43.6170 C   0  0  0  0  0  3  0  0  0  0  0  0
   34.7910   29.9590   44.3260 H   0  0  0  0  0  0  0  0  0  0  0  0
   34.5780   30.3680   42.2560 C   0  0  0  0  0  3  0  0  0  0  0  0
   34.1620   29.3290   42.2510 H   0  0  0  0  0  0  0  0  0  0  0  0
   35.5450   30.3930   41.2630 O   0  0  0  0  0  0  0  0  0  0  0  0
   36.5660   29.4830   41.4800 C   0  0  0  0  0  3  0  0  0  0  0  0
   36.3160   28.4790   41.1190 H   0  0  0  0  0  0  0  0  0  0  0  0
   37.0330   29.4710   42.9410 C   0  0  0  0  0  3  0  0  0  0  0  0
   38.1210   29.2760   43.0110 H   0  0  0  0  0  0  0  0  0  0  0  0
   37.2400   29.4760   50.4900 C   0  0  0  0  0  0  0  0  0  0  0  0
   37.7300   29.9610   49.2670 C   0  0  0  0  0  0  0  0  0  0  0  0
   36.9090   30.5760   48.3570 C   0  0  0  0  0  0  0  0  0  0  0  0
   35.5870   30.7020   48.6790 N   0  0  0  0  0  0  0  0  0  0  0  0
   35.0910   30.2390   49.8570 C   0  0  0  0  0  0  0  0  0  0  0  0
   35.9080   29.6280   50.7600 N   0  0  0  0  0  0  0  0  0  0  0  0
   37.8220   28.9870   51.2480 H   0  0  0  0  0  0  0  0  0  0  0  0
   38.7770   29.7610   49.1950 H   0  0  0  0  0  0  0  0  0  0  0  0
   34.0330   30.3790   50.0310 H   0  0  0  0  0  0  0  0  0  0  0  0
   40.1130   33.2890   45.9860 C   0  0  0  0  0  0  0  0  0  0  0  0
   39.9810   34.2610   45.0490 F   0  0  0  0  0  0  0  0  0  0  0  0
   41.2970   32.6310   45.6990 F   0  0  0  0  0  0  0  0  0  0  0  0
   40.1870   33.8970   47.2330 F   0  0  0  0  0  0  0  0  0  0  0  0
  1 22  1  0  0  0  0
  2  9  1  0  0  0  0
  2  1  1  0  0  0  0
  3  4  1  0  0  0  0
  3  2  2  0  0  0  0
  4  6  1  0  0  0  0
  5  4  2  0  0  0  0
  6 29  1  0  0  0  0
  6  7  1  0  0  0  0
  7  1  1  0  0  0  0
  7  8  2  0  0  0  0
 10 11  1  0  0  0  0
 10  3  1  0  0  0  0
 11 12  1  0  0  0  0
 13 11  1  0  0  0  0
 14 13  1  0  0  0  0
 15 16  1  0  0  0  0
 15 13  1  0  0  0  0
 16 18  1  0  0  0  0
 17 16  1  0  0  0  0
 18 19  1  0  0  0  0
 18 10  1  0  0  0  0
 20 25  1  0  0  0  0
 20 26  1  0  0  0  0
 21 20  2  0  0  0  0
 22 23  2  0  0  0  0
 22 21  1  0  0  0  0
 23 24  1  0  0  0  0
 24 28  1  0  0  0  0
 24 25  2  0  0  0  0
 27 21  1  0  0  0  0
 29 32  1  0  0  0  0
 30 29  1  0  0  0  0
 31 29  1  0  0  0  0
M  END
>  <minimizedAffinity>
-6.09604025

>  <minimizedRMSD>
0.423112929

$$$$
