
 OpenBabel03272507203D

 31 33  0  0  1  0  0  0  0  0999 V2000
   37.4060   23.9900   32.7740 C   0  0  0  0  0  0  0  0  0  0  0  0
   37.0450   25.3070   32.5050 C   0  0  0  0  0  0  0  0  0  0  0  0
   37.3110   26.1990   33.5440 C   0  0  0  0  0  0  0  0  0  0  0  0
   37.8830   25.7750   34.7190 N   0  0  0  0  0  0  0  0  0  0  0  0
   38.2170   24.4800   34.9290 C   0  0  0  0  0  0  0  0  0  0  0  0
   37.9690   23.5710   33.9290 N   0  0  0  0  0  0  0  0  0  0  0  0
   36.6040   25.5800   31.5780 H   0  0  0  0  0  0  0  0  0  0  0  0
   37.0500   27.2410   33.3920 H   0  0  0  0  0  0  0  0  0  0  0  0
   38.8260   24.0870   36.2030 C   0  0  0  0  0  3  0  0  0  0  0  0
   39.7580   22.9370   35.9020 C   0  0  0  0  0  3  0  0  0  0  0  0
   40.6130   23.3690   35.3190 H   0  0  0  0  0  0  0  0  0  0  0  0
   40.1910   22.3020   37.1850 C   0  0  0  0  0  3  0  0  0  0  0  0
   41.3110   22.1890   37.1110 H   0  0  0  0  0  0  0  0  0  0  0  0
   39.9890   23.1570   38.2690 O   0  0  0  0  0  0  0  0  0  0  0  0
   38.6380   23.3690   38.5230 C   0  0  0  0  0  3  0  0  0  0  0  0
   38.5750   24.1190   39.3340 H   0  0  0  0  0  0  0  0  0  0  0  0
   37.8540   23.7760   37.3000 C   0  0  0  0  0  3  0  0  0  0  0  0
   37.1090   23.0180   36.9950 H   0  0  0  0  0  0  0  0  0  0  0  0
   37.1580   22.9980   31.6700 C   0  0  1  0  0  0  0  0  0  0  0  0
   36.3150   21.8210   31.8680 C   0  0  2  0  0  0  0  0  0  0  0  0
   35.6880   23.0090   31.2030 C   0  0  0  0  0  0  0  0  0  0  0  0
   37.8570   23.1190   30.7980 H   0  0  0  0  0  0  0  0  0  0  0  0
   36.6710   20.9270   31.2920 H   0  0  0  0  0  0  0  0  0  0  0  0
   35.5020   22.8500   30.1220 H   0  0  0  0  0  0  0  0  0  0  0  0
   34.9570   23.6120   31.7740 H   0  0  0  0  0  0  0  0  0  0  0  0
   35.9550   21.5090   33.1710 O   0  0  0  0  0  0  0  0  0  0  0  0
   35.5930   20.3210   33.7130 C   0  0  0  0  0  0  0  0  0  0  0  0
   35.4080   19.2980   33.0200 O   0  0  0  0  0  0  0  0  0  0  0  0
   35.4820   20.4890   35.0950 N   0  0  0  0  0  0  0  0  0  0  0  0
   34.7270   21.0730   35.5540 H   0  0  0  0  0  0  0  0  0  0  0  0
   36.1770   20.0130   35.7100 H   0  0  0  0  0  0  0  0  0  0  0  0
  1  6  1  0  0  0  0
  2  1  2  0  0  0  0
  2  3  1  0  0  0  0
  3  4  2  0  0  0  0
  4  5  1  0  0  0  0
  5  9  1  0  0  0  0
  6  5  2  0  0  0  0
  7  2  1  0  0  0  0
  8  3  1  0  0  0  0
  9 17  1  0  0  0  0
 10  9  1  0  0  0  0
 10 12  1  0  0  0  0
 11 10  1  0  0  0  0
 12 14  1  0  0  0  0
 13 12  1  0  0  0  0
 14 15  1  0  0  0  0
 15 16  1  0  0  0  0
 17 15  1  0  0  0  0
 18 17  1  0  0  0  0
 19 22  1  6  0  0  0
 19 20  1  0  0  0  0
 19  1  1  0  0  0  0
 20 23  1  6  0  0  0
 20 26  1  0  0  0  0
 21 19  1  0  0  0  0
 21 25  1  0  0  0  0
 21 20  1  0  0  0  0
 24 21  1  0  0  0  0
 26 27  1  0  0  0  0
 27 29  1  0  0  0  0
 28 27  2  0  0  0  0
 29 30  1  0  0  0  0
 29 31  1  0  0  0  0
M  END
>  <minimizedAffinity>
-5.11242819

$$$$

 OpenBabel03272507203D

 31 33  0  0  1  0  0  0  0  0999 V2000
   39.2500   24.4770   34.6510 C   0  0  0  0  0  0  0  0  0  0  0  0
   40.4390   25.0990   35.0210 C   0  0  0  0  0  0  0  0  0  0  0  0
   40.4480   26.4810   34.8340 C   0  0  0  0  0  0  0  0  0  0  0  0
   39.3530   27.1380   34.3270 N   0  0  0  0  0  0  0  0  0  0  0  0
   38.2180   26.4850   33.9830 C   0  0  0  0  0  0  0  0  0  0  0  0
   38.1730   25.1220   34.1520 N   0  0  0  0  0  0  0  0  0  0  0  0
   41.2560   24.5410   35.4090 H   0  0  0  0  0  0  0  0  0  0  0  0
   41.3490   27.0210   35.1050 H   0  0  0  0  0  0  0  0  0  0  0  0
   37.0820   27.2400   33.4470 C   0  0  0  0  0  3  0  0  0  0  0  0
   37.5370   27.8380   32.1370 C   0  0  0  0  0  3  0  0  0  0  0  0
   37.6510   26.9820   31.4210 H   0  0  0  0  0  0  0  0  0  0  0  0
   36.5350   28.8500   31.6790 C   0  0  0  0  0  3  0  0  0  0  0  0
   36.3390   28.6190   30.5920 H   0  0  0  0  0  0  0  0  0  0  0  0
   35.3050   28.6670   32.3110 O   0  0  0  0  0  0  0  0  0  0  0  0
   35.3670   28.9560   33.6700 C   0  0  0  0  0  3  0  0  0  0  0  0
   34.3800   28.7030   34.1000 H   0  0  0  0  0  0  0  0  0  0  0  0
   36.5010   28.2580   34.3800 C   0  0  0  0  0  3  0  0  0  0  0  0
   37.2660   28.9600   34.7610 H   0  0  0  0  0  0  0  0  0  0  0  0
   39.1900   22.9890   34.8590 C   0  0  1  0  0  0  0  0  0  0  0  0
   38.3910   22.3930   35.9280 C   0  0  2  0  0  0  0  0  0  0  0  0
   37.7890   22.4190   34.5550 C   0  0  0  0  0  0  0  0  0  0  0  0
   39.9830   22.4280   34.2930 H   0  0  0  0  0  0  0  0  0  0  0  0
   38.8590   21.4710   36.3620 H   0  0  0  0  0  0  0  0  0  0  0  0
   37.7440   21.4160   34.0840 H   0  0  0  0  0  0  0  0  0  0  0  0
   36.9640   23.1280   34.3520 H   0  0  0  0  0  0  0  0  0  0  0  0
   37.8910   23.2470   36.9000 O   0  0  0  0  0  0  0  0  0  0  0  0
   38.4040   23.5860   38.1080 C   0  0  0  0  0  0  0  0  0  0  0  0
   38.0020   24.5800   38.7490 O   0  0  0  0  0  0  0  0  0  0  0  0
   39.3920   22.6570   38.4380 N   0  0  0  0  0  0  0  0  0  0  0  0
   40.3160   22.5790   37.9260 H   0  0  0  0  0  0  0  0  0  0  0  0
   39.2140   22.0040   39.2320 H   0  0  0  0  0  0  0  0  0  0  0  0
  1 19  1  0  0  0  0
  1  2  1  0  0  0  0
  2  7  1  0  0  0  0
  3  2  2  0  0  0  0
  3  8  1  0  0  0  0
  4  3  1  0  0  0  0
  5  6  1  0  0  0  0
  5  4  2  0  0  0  0
  6  1  2  0  0  0  0
  9  5  1  0  0  0  0
  9 17  1  0  0  0  0
 10  9  1  0  0  0  0
 11 10  1  0  0  0  0
 12 10  1  0  0  0  0
 12 14  1  0  0  0  0
 13 12  1  0  0  0  0
 14 15  1  0  0  0  0
 15 16  1  0  0  0  0
 15 17  1  0  0  0  0
 17 18  1  0  0  0  0
 19 22  1  6  0  0  0
 19 20  1  0  0  0  0
 20 23  1  1  0  0  0
 20 26  1  0  0  0  0
 21 19  1  0  0  0  0
 21 20  1  0  0  0  0
 24 21  1  0  0  0  0
 25 21  1  0  0  0  0
 26 27  1  0  0  0  0
 27 29  1  0  0  0  0
 27 28  2  0  0  0  0
 29 31  1  0  0  0  0
 30 29  1  0  0  0  0
M  END
>  <minimizedAffinity>
-5.07480478

$$$$

 OpenBabel03272507203D

 31 33  0  0  1  0  0  0  0  0999 V2000
   37.2610   27.0230   33.9540 C   0  0  0  0  0  0  0  0  0  0  0  0
   36.5520   27.9880   33.2440 C   0  0  0  0  0  0  0  0  0  0  0  0
   35.9890   27.5280   32.0530 C   0  0  0  0  0  0  0  0  0  0  0  0
   36.1430   26.2230   31.6500 N   0  0  0  0  0  0  0  0  0  0  0  0
   36.8430   25.3230   32.3790 C   0  0  0  0  0  0  0  0  0  0  0  0
   37.4130   25.7400   33.5580 N   0  0  0  0  0  0  0  0  0  0  0  0
   36.4640   28.9840   33.6030 H   0  0  0  0  0  0  0  0  0  0  0  0
   35.4240   28.2350   31.4560 H   0  0  0  0  0  0  0  0  0  0  0  0
   36.9730   23.9440   31.8980 C   0  0  0  0  0  3  0  0  0  0  0  0
   35.5990   23.5130   31.4410 C   0  0  0  0  0  3  0  0  0  0  0  0
   35.3760   24.1010   30.5120 H   0  0  0  0  0  0  0  0  0  0  0  0
   35.5960   22.0360   31.2090 C   0  0  0  0  0  3  0  0  0  0  0  0
   35.1070   21.8830   30.2030 H   0  0  0  0  0  0  0  0  0  0  0  0
   36.8920   21.5430   31.0550 O   0  0  0  0  0  0  0  0  0  0  0  0
   37.6250   21.6220   32.2350 C   0  0  0  0  0  3  0  0  0  0  0  0
   38.6550   21.2940   31.9980 H   0  0  0  0  0  0  0  0  0  0  0  0
   37.5880   22.9890   32.8730 C   0  0  0  0  0  3  0  0  0  0  0  0
   37.0670   22.9940   33.8480 H   0  0  0  0  0  0  0  0  0  0  0  0
   37.8630   27.4710   35.2570 C   0  0  1  0  0  0  0  0  0  0  0  0
   38.2120   26.5210   36.3110 C   0  0  2  0  0  0  0  0  0  0  0  0
   39.3200   26.9880   35.4160 C   0  0  0  0  0  0  0  0  0  0  0  0
   37.7880   28.5800   35.4240 H   0  0  0  0  0  0  0  0  0  0  0  0
   38.0550   26.9350   37.3420 H   0  0  0  0  0  0  0  0  0  0  0  0
   40.0260   27.6750   35.9260 H   0  0  0  0  0  0  0  0  0  0  0  0
   39.7280   26.2840   34.6660 H   0  0  0  0  0  0  0  0  0  0  0  0
   37.7390   25.2240   36.1780 O   0  0  0  0  0  0  0  0  0  0  0  0
   37.9880   24.1250   36.9310 C   0  0  0  0  0  0  0  0  0  0  0  0
   38.1790   22.9980   36.4260 O   0  0  0  0  0  0  0  0  0  0  0  0
   37.9810   24.5050   38.2740 N   0  0  0  0  0  0  0  0  0  0  0  0
   37.1090   24.8160   38.7890 H   0  0  0  0  0  0  0  0  0  0  0  0
   38.8810   24.4820   38.8020 H   0  0  0  0  0  0  0  0  0  0  0  0
  1 19  1  0  0  0  0
  2  7  1  0  0  0  0
  2  1  2  0  0  0  0
  3  2  1  0  0  0  0
  4  3  2  0  0  0  0
  4  5  1  0  0  0  0
  5  6  2  0  0  0  0
  6  1  1  0  0  0  0
  8  3  1  0  0  0  0
  9  5  1  0  0  0  0
  9 17  1  0  0  0  0
 10  9  1  0  0  0  0
 11 10  1  0  0  0  0
 12 10  1  0  0  0  0
 13 12  1  0  0  0  0
 14 12  1  0  0  0  0
 14 15  1  0  0  0  0
 15 17  1  0  0  0  0
 16 15  1  0  0  0  0
 17 18  1  0  0  0  0
 19 21  1  0  0  0  0
 19 22  1  1  0  0  0
 19 20  1  0  0  0  0
 20 23  1  1  0  0  0
 21 24  1  0  0  0  0
 21 20  1  0  0  0  0
 25 21  1  0  0  0  0
 26 20  1  0  0  0  0
 26 27  1  0  0  0  0
 27 29  1  0  0  0  0
 28 27  2  0  0  0  0
 29 30  1  0  0  0  0
 29 31  1  0  0  0  0
M  END
>  <minimizedAffinity>
-5.03697491

$$$$

 OpenBabel03272507203D

 31 33  0  0  1  0  0  0  0  0999 V2000
   36.5630   22.3410   32.5070 C   0  0  0  0  0  0  0  0  0  0  0  0
   35.7000   22.8710   31.5520 C   0  0  0  0  0  0  0  0  0  0  0  0
   35.7880   24.2550   31.4010 C   0  0  0  0  0  0  0  0  0  0  0  0
   36.6680   24.9980   32.1510 N   0  0  0  0  0  0  0  0  0  0  0  0
   37.4880   24.4330   33.0680 C   0  0  0  0  0  0  0  0  0  0  0  0
   37.4280   23.0720   33.2450 N   0  0  0  0  0  0  0  0  0  0  0  0
   35.0390   22.2480   31.0000 H   0  0  0  0  0  0  0  0  0  0  0  0
   35.1390   24.7250   30.6710 H   0  0  0  0  0  0  0  0  0  0  0  0
   38.4060   25.2780   33.8370 C   0  0  0  0  0  3  0  0  0  0  0  0
   37.5720   25.9930   34.8740 C   0  0  0  0  0  3  0  0  0  0  0  0
   37.2470   25.2110   35.6100 H   0  0  0  0  0  0  0  0  0  0  0  0
   38.3860   27.0790   35.5010 C   0  0  0  0  0  3  0  0  0  0  0  0
   38.2420   26.9690   36.6150 H   0  0  0  0  0  0  0  0  0  0  0  0
   39.7510   26.8740   35.2960 O   0  0  0  0  0  0  0  0  0  0  0  0
   40.1060   27.0180   33.9580 C   0  0  0  0  0  3  0  0  0  0  0  0
   41.1770   26.7550   33.8780 H   0  0  0  0  0  0  0  0  0  0  0  0
   39.2420   26.2120   33.0190 C   0  0  0  0  0  3  0  0  0  0  0  0
   38.6300   26.8440   32.3490 H   0  0  0  0  0  0  0  0  0  0  0  0
   36.5170   20.8490   32.6840 C   0  0  1  0  0  0  0  0  0  0  0  0
   35.8030   20.2270   33.7980 C   0  0  2  0  0  0  0  0  0  0  0  0
   35.0960   20.2860   32.4770 C   0  0  0  0  0  0  0  0  0  0  0  0
   37.2630   20.3010   32.0450 H   0  0  0  0  0  0  0  0  0  0  0  0
   36.3030   19.2960   34.1720 H   0  0  0  0  0  0  0  0  0  0  0  0
   35.0130   19.2940   31.9880 H   0  0  0  0  0  0  0  0  0  0  0  0
   34.2580   20.9980   32.3560 H   0  0  0  0  0  0  0  0  0  0  0  0
   35.3830   21.0580   34.8260 O   0  0  0  0  0  0  0  0  0  0  0  0
   35.8040   21.1340   36.1120 C   0  0  0  0  0  0  0  0  0  0  0  0
   35.0760   20.8100   37.0740 O   0  0  0  0  0  0  0  0  0  0  0  0
   37.1140   21.6150   36.1140 N   0  0  0  0  0  0  0  0  0  0  0  0
   37.3750   22.6040   35.8370 H   0  0  0  0  0  0  0  0  0  0  0  0
   37.8800   20.9690   36.4050 H   0  0  0  0  0  0  0  0  0  0  0  0
  1 19  1  0  0  0  0
  1  6  1  0  0  0  0
  2  1  2  0  0  0  0
  3  2  1  0  0  0  0
  3  4  2  0  0  0  0
  4  5  1  0  0  0  0
  5  6  2  0  0  0  0
  5  9  1  0  0  0  0
  7  2  1  0  0  0  0
  8  3  1  0  0  0  0
  9 10  1  0  0  0  0
 10 12  1  0  0  0  0
 10 11  1  0  0  0  0
 12 13  1  0  0  0  0
 14 12  1  0  0  0  0
 15 14  1  0  0  0  0
 16 15  1  0  0  0  0
 17  9  1  0  0  0  0
 17 15  1  0  0  0  0
 18 17  1  0  0  0  0
 19 22  1  6  0  0  0
 19 20  1  0  0  0  0
 20 23  1  1  0  0  0
 20 26  1  0  0  0  0
 21 19  1  0  0  0  0
 21 20  1  0  0  0  0
 24 21  1  0  0  0  0
 25 21  1  0  0  0  0
 26 27  1  0  0  0  0
 27 29  1  0  0  0  0
 27 28  2  0  0  0  0
 29 31  1  0  0  0  0
 30 29  1  0  0  0  0
M  END
>  <minimizedAffinity>
-4.89329767

$$$$

 OpenBabel03272507203D

 31 33  0  0  1  0  0  0  0  0999 V2000
   38.0070   24.3430   33.4000 C   0  0  0  0  0  0  0  0  0  0  0  0
   37.3060   25.3680   32.7710 C   0  0  0  0  0  0  0  0  0  0  0  0
   36.2840   24.9320   31.9270 C   0  0  0  0  0  0  0  0  0  0  0  0
   36.0220   23.5940   31.7580 N   0  0  0  0  0  0  0  0  0  0  0  0
   36.7350   22.6360   32.3960 C   0  0  0  0  0  0  0  0  0  0  0  0
   37.7500   23.0270   33.2350 N   0  0  0  0  0  0  0  0  0  0  0  0
   37.5510   26.3880   32.9390 H   0  0  0  0  0  0  0  0  0  0  0  0
   35.7020   25.6860   31.4090 H   0  0  0  0  0  0  0  0  0  0  0  0
   36.4080   21.2240   32.1760 C   0  0  0  0  0  3  0  0  0  0  0  0
   36.9740   20.8520   30.8250 C   0  0  0  0  0  3  0  0  0  0  0  0
   38.0890   20.8540   30.9390 H   0  0  0  0  0  0  0  0  0  0  0  0
   36.4330   19.5200   30.4120 C   0  0  0  0  0  3  0  0  0  0  0  0
   37.3240   18.9220   30.0630 H   0  0  0  0  0  0  0  0  0  0  0  0
   35.9340   18.8130   31.5050 O   0  0  0  0  0  0  0  0  0  0  0  0
   34.7920   19.4070   32.0340 C   0  0  0  0  0  3  0  0  0  0  0  0
   34.5190   18.8340   32.9400 H   0  0  0  0  0  0  0  0  0  0  0  0
   34.9570   20.8810   32.3130 C   0  0  0  0  0  3  0  0  0  0  0  0
   34.3150   21.5140   31.6720 H   0  0  0  0  0  0  0  0  0  0  0  0
   39.1010   24.7710   34.3390 C   0  0  1  0  0  0  0  0  0  0  0  0
   39.0190   24.5300   35.7780 C   0  0  2  0  0  0  0  0  0  0  0  0
   39.8280   23.5640   34.9660 C   0  0  0  0  0  0  0  0  0  0  0  0
   39.8350   25.4830   33.8720 H   0  0  0  0  0  0  0  0  0  0  0  0
   39.4890   25.3470   36.3860 H   0  0  0  0  0  0  0  0  0  0  0  0
   40.9190   23.6650   35.1370 H   0  0  0  0  0  0  0  0  0  0  0  0
   39.4210   22.5500   34.7870 H   0  0  0  0  0  0  0  0  0  0  0  0
   37.7930   24.1230   36.2850 O   0  0  0  0  0  0  0  0  0  0  0  0
   37.4900   23.0860   37.1020 C   0  0  0  0  0  0  0  0  0  0  0  0
   37.5780   23.1660   38.3460 O   0  0  0  0  0  0  0  0  0  0  0  0
   37.0960   22.0070   36.3090 N   0  0  0  0  0  0  0  0  0  0  0  0
   37.7570   21.4780   35.6720 H   0  0  0  0  0  0  0  0  0  0  0  0
   36.0990   21.7020   36.3440 H   0  0  0  0  0  0  0  0  0  0  0  0
  1 19  1  0  0  0  0
  2  7  1  0  0  0  0
  2  1  2  0  0  0  0
  3  2  1  0  0  0  0
  4  3  2  0  0  0  0
  4  5  1  0  0  0  0
  5  6  2  0  0  0  0
  6  1  1  0  0  0  0
  8  3  1  0  0  0  0
  9 17  1  0  0  0  0
  9  5  1  0  0  0  0
 10 11  1  0  0  0  0
 10  9  1  0  0  0  0
 12 10  1  0  0  0  0
 12 14  1  0  0  0  0
 13 12  1  0  0  0  0
 14 15  1  0  0  0  0
 15 17  1  0  0  0  0
 15 16  1  0  0  0  0
 18 17  1  0  0  0  0
 19 22  1  6  0  0  0
 19 21  1  0  0  0  0
 19 20  1  0  0  0  0
 20 26  1  0  0  0  0
 20 23  1  1  0  0  0
 21 24  1  0  0  0  0
 21 20  1  0  0  0  0
 25 21  1  0  0  0  0
 26 27  1  0  0  0  0
 27 28  2  0  0  0  0
 29 31  1  0  0  0  0
 29 27  1  0  0  0  0
 30 29  1  0  0  0  0
M  END
>  <minimizedAffinity>
-4.71139336

$$$$

 OpenBabel03272507203D

 31 33  0  0  1  0  0  0  0  0999 V2000
   38.2030   24.7190   34.0760 C   0  0  0  0  0  0  0  0  0  0  0  0
   38.5080   24.6050   35.4300 C   0  0  0  0  0  0  0  0  0  0  0  0
   38.2630   23.3420   35.9700 C   0  0  0  0  0  0  0  0  0  0  0  0
   37.7630   22.3210   35.1980 N   0  0  0  0  0  0  0  0  0  0  0  0
   37.4830   22.4850   33.8840 C   0  0  0  0  0  0  0  0  0  0  0  0
   37.7100   23.7160   33.3170 N   0  0  0  0  0  0  0  0  0  0  0  0
   38.8930   25.4280   35.9800 H   0  0  0  0  0  0  0  0  0  0  0  0
   38.4820   23.1930   37.0220 H   0  0  0  0  0  0  0  0  0  0  0  0
   36.9510   21.3590   33.1110 C   0  0  0  0  0  3  0  0  0  0  0  0
   36.5740   21.9030   31.7530 C   0  0  0  0  0  3  0  0  0  0  0  0
   37.5360   22.1530   31.2350 H   0  0  0  0  0  0  0  0  0  0  0  0
   35.7640   20.8830   31.0180 C   0  0  0  0  0  3  0  0  0  0  0  0
   36.2150   20.8190   29.9850 H   0  0  0  0  0  0  0  0  0  0  0  0
   35.9360   19.6100   31.5630 O   0  0  0  0  0  0  0  0  0  0  0  0
   35.3890   19.5090   32.8380 C   0  0  0  0  0  3  0  0  0  0  0  0
   35.6460   18.5040   33.2220 H   0  0  0  0  0  0  0  0  0  0  0  0
   35.8330   20.6110   33.7690 C   0  0  0  0  0  3  0  0  0  0  0  0
   35.0040   21.2790   34.0700 H   0  0  0  0  0  0  0  0  0  0  0  0
   38.4750   26.0570   33.4480 C   0  0  1  0  0  0  0  0  0  0  0  0
   37.4670   26.7520   32.6490 C   0  0  2  0  0  0  0  0  0  0  0  0
   37.6200   27.1760   34.0780 C   0  0  0  0  0  0  0  0  0  0  0  0
   39.5640   26.3360   33.4480 H   0  0  0  0  0  0  0  0  0  0  0  0
   37.9090   27.3330   31.7980 H   0  0  0  0  0  0  0  0  0  0  0  0
   38.0930   28.1730   34.1840 H   0  0  0  0  0  0  0  0  0  0  0  0
   36.8320   26.8940   34.8020 H   0  0  0  0  0  0  0  0  0  0  0  0
   36.3430   26.0290   32.2760 O   0  0  0  0  0  0  0  0  0  0  0  0
   35.7320   25.9290   31.0710 C   0  0  0  0  0  0  0  0  0  0  0  0
   34.9690   24.9820   30.7850 O   0  0  0  0  0  0  0  0  0  0  0  0
   36.1180   27.0220   30.2940 N   0  0  0  0  0  0  0  0  0  0  0  0
   37.1030   27.1600   29.9260 H   0  0  0  0  0  0  0  0  0  0  0  0
   35.4010   27.7440   30.0600 H   0  0  0  0  0  0  0  0  0  0  0  0
  1  2  1  0  0  0  0
  2  3  2  0  0  0  0
  2  7  1  0  0  0  0
  3  8  1  0  0  0  0
  4  3  1  0  0  0  0
  5  4  2  0  0  0  0
  6  5  1  0  0  0  0
  6  1  2  0  0  0  0
  9 17  1  0  0  0  0
  9  5  1  0  0  0  0
 10  9  1  0  0  0  0
 11 10  1  0  0  0  0
 12 14  1  0  0  0  0
 12 10  1  0  0  0  0
 13 12  1  0  0  0  0
 14 15  1  0  0  0  0
 15 16  1  0  0  0  0
 15 17  1  0  0  0  0
 17 18  1  0  0  0  0
 19 22  1  6  0  0  0
 19  1  1  0  0  0  0
 19 21  1  0  0  0  0
 20 23  1  6  0  0  0
 20 19  1  0  0  0  0
 20 21  1  0  0  0  0
 21 24  1  0  0  0  0
 21 25  1  0  0  0  0
 26 20  1  0  0  0  0
 27 26  1  0  0  0  0
 28 27  2  0  0  0  0
 29 27  1  0  0  0  0
 30 29  1  0  0  0  0
 31 29  1  0  0  0  0
M  END
>  <minimizedAffinity>
-4.68130779

$$$$

 OpenBabel03272507203D

 31 33  0  0  1  0  0  0  0  0999 V2000
   38.1360   25.1460   36.0470 C   0  0  0  0  0  0  0  0  0  0  0  0
   38.2650   26.4570   36.4960 C   0  0  0  0  0  0  0  0  0  0  0  0
   38.7670   27.3440   35.5430 C   0  0  0  0  0  0  0  0  0  0  0  0
   39.0940   26.9200   34.2770 N   0  0  0  0  0  0  0  0  0  0  0  0
   38.9480   25.6300   33.8910 C   0  0  0  0  0  0  0  0  0  0  0  0
   38.4570   24.7280   34.8030 N   0  0  0  0  0  0  0  0  0  0  0  0
   37.9970   26.7310   37.4870 H   0  0  0  0  0  0  0  0  0  0  0  0
   38.8900   28.3810   35.8340 H   0  0  0  0  0  0  0  0  0  0  0  0
   39.3130   25.2370   32.5270 C   0  0  0  0  0  3  0  0  0  0  0  0
   40.8210   25.2890   32.4490 C   0  0  0  0  0  3  0  0  0  0  0  0
   41.1990   24.4430   33.0820 H   0  0  0  0  0  0  0  0  0  0  0  0
   41.2470   25.1810   31.0200 C   0  0  0  0  0  3  0  0  0  0  0  0
   42.0670   24.4060   31.0000 H   0  0  0  0  0  0  0  0  0  0  0  0
   40.2310   24.6480   30.2260 O   0  0  0  0  0  0  0  0  0  0  0  0
   39.1480   25.5130   30.1130 C   0  0  0  0  0  3  0  0  0  0  0  0
   38.3640   24.9770   29.5440 H   0  0  0  0  0  0  0  0  0  0  0  0
   38.6480   26.0250   31.4410 C   0  0  0  0  0  3  0  0  0  0  0  0
   38.7940   27.1140   31.5650 H   0  0  0  0  0  0  0  0  0  0  0  0
   37.5750   24.1620   37.0360 C   0  0  1  0  0  0  0  0  0  0  0  0
   38.4370   23.2620   37.8010 C   0  0  2  0  0  0  0  0  0  0  0  0
   37.9690   24.5110   38.4860 C   0  0  0  0  0  0  0  0  0  0  0  0
   36.4630   24.0240   36.9460 H   0  0  0  0  0  0  0  0  0  0  0  0
   37.9670   22.2610   37.9880 H   0  0  0  0  0  0  0  0  0  0  0  0
   37.2160   24.3140   39.2750 H   0  0  0  0  0  0  0  0  0  0  0  0
   38.6970   25.3280   38.6530 H   0  0  0  0  0  0  0  0  0  0  0  0
   39.7630   23.1650   37.4050 O   0  0  0  0  0  0  0  0  0  0  0  0
   40.4230   22.1380   36.8170 C   0  0  0  0  0  0  0  0  0  0  0  0
   40.4800   22.0030   35.5770 O   0  0  0  0  0  0  0  0  0  0  0  0
   40.9720   21.3400   37.8220 N   0  0  0  0  0  0  0  0  0  0  0  0
   40.3900   20.7530   38.4860 H   0  0  0  0  0  0  0  0  0  0  0  0
   42.0100   21.3170   37.9280 H   0  0  0  0  0  0  0  0  0  0  0  0
  1  2  1  0  0  0  0
  1 19  1  0  0  0  0
  2  7  1  0  0  0  0
  3  8  1  0  0  0  0
  3  2  2  0  0  0  0
  4  3  1  0  0  0  0
  5  4  2  0  0  0  0
  5  6  1  0  0  0  0
  6  1  2  0  0  0  0
  9  5  1  0  0  0  0
 10  9  1  0  0  0  0
 10 11  1  0  0  0  0
 12 10  1  0  0  0  0
 13 12  1  0  0  0  0
 14 12  1  0  0  0  0
 15 14  1  0  0  0  0
 15 17  1  0  0  0  0
 16 15  1  0  0  0  0
 17 18  1  0  0  0  0
 17  9  1  0  0  0  0
 19 22  1  6  0  0  0
 19 20  1  0  0  0  0
 19 21  1  0  0  0  0
 20 23  1  1  0  0  0
 20 21  1  0  0  0  0
 21 25  1  0  0  0  0
 21 24  1  0  0  0  0
 26 20  1  0  0  0  0
 27 26  1  0  0  0  0
 27 29  1  0  0  0  0
 28 27  2  0  0  0  0
 29 31  1  0  0  0  0
 29 30  1  0  0  0  0
M  END
>  <minimizedAffinity>
-4.65376043

$$$$

 OpenBabel03272507203D

 31 33  0  0  1  0  0  0  0  0999 V2000
   37.0680   25.8340   32.7820 C   0  0  0  0  0  0  0  0  0  0  0  0
   36.7470   27.0860   33.2990 C   0  0  0  0  0  0  0  0  0  0  0  0
   37.1080   27.2670   34.6340 C   0  0  0  0  0  0  0  0  0  0  0  0
   37.7280   26.2680   35.3460 N   0  0  0  0  0  0  0  0  0  0  0  0
   38.0180   25.0660   34.7950 C   0  0  0  0  0  0  0  0  0  0  0  0
   37.6770   24.8510   33.4810 N   0  0  0  0  0  0  0  0  0  0  0  0
   36.2670   27.8230   32.7020 H   0  0  0  0  0  0  0  0  0  0  0  0
   36.8830   28.2230   35.0930 H   0  0  0  0  0  0  0  0  0  0  0  0
   38.6810   24.0390   35.6040 C   0  0  0  0  0  3  0  0  0  0  0  0
   38.1100   24.1500   36.9980 C   0  0  0  0  0  3  0  0  0  0  0  0
   37.0480   23.7950   36.9330 H   0  0  0  0  0  0  0  0  0  0  0  0
   38.9400   23.3340   37.9390 C   0  0  0  0  0  3  0  0  0  0  0  0
   38.2080   22.7260   38.5460 H   0  0  0  0  0  0  0  0  0  0  0  0
   39.7060   22.3920   37.2530 O   0  0  0  0  0  0  0  0  0  0  0  0
   40.6960   22.9870   36.4780 C   0  0  0  0  0  3  0  0  0  0  0  0
   41.1920   22.1770   35.9100 H   0  0  0  0  0  0  0  0  0  0  0  0
   40.1780   24.0850   35.5830 C   0  0  0  0  0  3  0  0  0  0  0  0
   40.5690   25.0830   35.8570 H   0  0  0  0  0  0  0  0  0  0  0  0
   36.7180   25.6060   31.3370 C   0  0  1  0  0  0  0  0  0  0  0  0
   35.9150   24.4610   30.9110 C   0  0  2  0  0  0  0  0  0  0  0  0
   35.2070   25.7730   31.0750 C   0  0  0  0  0  0  0  0  0  0  0  0
   37.3200   26.2380   30.6290 H   0  0  0  0  0  0  0  0  0  0  0  0
   36.2200   24.0640   29.9080 H   0  0  0  0  0  0  0  0  0  0  0  0
   34.9100   26.2270   30.1090 H   0  0  0  0  0  0  0  0  0  0  0  0
   34.5330   25.9060   31.9430 H   0  0  0  0  0  0  0  0  0  0  0  0
   35.6980   23.4560   31.8420 O   0  0  0  0  0  0  0  0  0  0  0  0
   36.0210   22.1410   31.7940 C   0  0  0  0  0  0  0  0  0  0  0  0
   35.3640   21.3150   31.1260 O   0  0  0  0  0  0  0  0  0  0  0  0
   37.1500   21.9400   32.5900 N   0  0  0  0  0  0  0  0  0  0  0  0
   37.1450   22.0310   33.6460 H   0  0  0  0  0  0  0  0  0  0  0  0
   38.0480   21.6860   32.1240 H   0  0  0  0  0  0  0  0  0  0  0  0
  1  2  2  0  0  0  0
  1  6  1  0  0  0  0
  2  3  1  0  0  0  0
  3  8  1  0  0  0  0
  3  4  2  0  0  0  0
  5  4  1  0  0  0  0
  5  9  1  0  0  0  0
  6  5  2  0  0  0  0
  7  2  1  0  0  0  0
  9 10  1  0  0  0  0
 10 12  1  0  0  0  0
 11 10  1  0  0  0  0
 12 13  1  0  0  0  0
 14 12  1  0  0  0  0
 15 14  1  0  0  0  0
 16 15  1  0  0  0  0
 17  9  1  0  0  0  0
 17 18  1  0  0  0  0
 17 15  1  0  0  0  0
 19 22  1  6  0  0  0
 19  1  1  0  0  0  0
 20 23  1  6  0  0  0
 20 21  1  0  0  0  0
 20 19  1  0  0  0  0
 20 26  1  0  0  0  0
 21 19  1  0  0  0  0
 21 25  1  0  0  0  0
 24 21  1  0  0  0  0
 27 26  1  0  0  0  0
 27 29  1  0  0  0  0
 28 27  2  0  0  0  0
 29 30  1  0  0  0  0
 31 29  1  0  0  0  0
M  END
>  <minimizedAffinity>
-4.62524796

$$$$

 OpenBabel03272507203D

 31 33  0  0  1  0  0  0  0  0999 V2000
   36.1570   23.8550   31.6070 C   0  0  0  0  0  0  0  0  0  0  0  0
   35.2430   24.6050   30.8740 C   0  0  0  0  0  0  0  0  0  0  0  0
   35.2960   25.9770   31.1190 C   0  0  0  0  0  0  0  0  0  0  0  0
   36.1920   26.5060   32.0170 N   0  0  0  0  0  0  0  0  0  0  0  0
   37.0630   25.7310   32.7050 C   0  0  0  0  0  0  0  0  0  0  0  0
   37.0380   24.3740   32.4910 N   0  0  0  0  0  0  0  0  0  0  0  0
   34.5720   24.1430   30.1920 H   0  0  0  0  0  0  0  0  0  0  0  0
   34.6070   26.6140   30.5760 H   0  0  0  0  0  0  0  0  0  0  0  0
   37.9960   26.3520   33.6500 C   0  0  0  0  0  3  0  0  0  0  0  0
   39.1100   25.3570   33.8780 C   0  0  0  0  0  3  0  0  0  0  0  0
   39.6910   25.3100   32.9200 H   0  0  0  0  0  0  0  0  0  0  0  0
   39.9390   25.8010   35.0410 C   0  0  0  0  0  3  0  0  0  0  0  0
   41.0120   25.7220   34.7010 H   0  0  0  0  0  0  0  0  0  0  0  0
   39.7500   27.1570   35.3120 O   0  0  0  0  0  0  0  0  0  0  0  0
   38.4690   27.4200   35.7870 C   0  0  0  0  0  3  0  0  0  0  0  0
   38.3820   28.5180   35.8910 H   0  0  0  0  0  0  0  0  0  0  0  0
   37.3770   26.8350   34.9250 C   0  0  0  0  0  3  0  0  0  0  0  0
   36.8040   26.0410   35.4390 H   0  0  0  0  0  0  0  0  0  0  0  0
   36.1500   22.3720   31.3550 C   0  0  1  0  0  0  0  0  0  0  0  0
   36.5290   21.4130   32.3910 C   0  0  2  0  0  0  0  0  0  0  0  0
   35.0640   21.6510   32.1800 C   0  0  0  0  0  0  0  0  0  0  0  0
   36.0690   22.1070   30.2660 H   0  0  0  0  0  0  0  0  0  0  0  0
   37.0570   20.5130   31.9810 H   0  0  0  0  0  0  0  0  0  0  0  0
   34.5520   20.7930   31.6990 H   0  0  0  0  0  0  0  0  0  0  0  0
   34.5060   22.2310   32.9400 H   0  0  0  0  0  0  0  0  0  0  0  0
   37.1370   21.9170   33.5310 O   0  0  0  0  0  0  0  0  0  0  0  0
   38.3950   21.7330   34.0010 C   0  0  0  0  0  0  0  0  0  0  0  0
   39.3380   21.3760   33.2640 O   0  0  0  0  0  0  0  0  0  0  0  0
   38.3930   22.0060   35.3700 N   0  0  0  0  0  0  0  0  0  0  0  0
   37.9000   21.4000   36.0860 H   0  0  0  0  0  0  0  0  0  0  0  0
   38.9050   22.8500   35.7080 H   0  0  0  0  0  0  0  0  0  0  0  0
  1  6  1  0  0  0  0
  2  3  1  0  0  0  0
  2  1  2  0  0  0  0
  3  4  2  0  0  0  0
  4  5  1  0  0  0  0
  5  9  1  0  0  0  0
  6  5  2  0  0  0  0
  7  2  1  0  0  0  0
  8  3  1  0  0  0  0
  9 10  1  0  0  0  0
  9 17  1  0  0  0  0
 10 12  1  0  0  0  0
 11 10  1  0  0  0  0
 12 14  1  0  0  0  0
 13 12  1  0  0  0  0
 14 15  1  0  0  0  0
 15 16  1  0  0  0  0
 17 18  1  0  0  0  0
 17 15  1  0  0  0  0
 19 22  1  6  0  0  0
 19  1  1  0  0  0  0
 19 21  1  0  0  0  0
 19 20  1  0  0  0  0
 20 23  1  6  0  0  0
 20 26  1  0  0  0  0
 21 20  1  0  0  0  0
 21 25  1  0  0  0  0
 24 21  1  0  0  0  0
 26 27  1  0  0  0  0
 27 29  1  0  0  0  0
 28 27  2  0  0  0  0
 29 31  1  0  0  0  0
 29 30  1  0  0  0  0
M  END
>  <minimizedAffinity>
-4.61156559

$$$$
