
 OpenBabel03272502223D

 27 29  0  0  0  0  0  0  0  0999 V2000
   35.9560   30.1110   47.2420 C   0  0  0  0  0  0  0  0  0  0  0  0
   34.9370   29.9190   46.3200 C   0  0  0  0  0  0  0  0  0  0  0  0
   35.1010   30.1710   44.9630 C   0  0  0  0  0  0  0  0  0  0  0  0
   36.2970   30.6200   44.5120 N   0  0  0  0  0  0  0  0  0  0  0  0
   37.2630   30.7960   45.4190 C   0  0  0  0  0  0  0  0  0  0  0  0
   37.1310   30.5610   46.7390 N   0  0  0  0  0  0  0  0  0  0  0  0
   34.0100   29.5590   46.7480 H   0  0  0  0  0  0  0  0  0  0  0  0
   34.2590   29.9970   44.3060 H   0  0  0  0  0  0  0  0  0  0  0  0
   38.5800   31.2840   44.9760 C   0  0  0  0  0  0  0  0  0  0  0  0
   38.5850   32.7490   44.6140 C   0  0  0  0  0  0  0  0  0  0  0  0
   38.3130   32.8720   43.5580 H   0  0  0  0  0  0  0  0  0  0  0  0
   39.8860   33.4230   44.9490 C   0  0  0  0  0  0  0  0  0  0  0  0
   39.9730   34.2740   44.2290 H   0  0  0  0  0  0  0  0  0  0  0  0
   41.0050   32.6350   44.7570 O   0  0  0  0  0  0  0  0  0  0  0  0
   40.9710   31.4020   45.3580 C   0  0  0  0  0  0  0  0  0  0  0  0
   41.8510   31.2200   46.0320 H   0  0  0  0  0  0  0  0  0  0  0  0
   39.6520   31.1140   46.0470 C   0  0  0  0  0  0  0  0  0  0  0  0
   39.4610   31.7720   46.9170 H   0  0  0  0  0  0  0  0  0  0  0  0
   36.4720   29.4930   50.9330 C   0  0  0  0  0  0  0  0  0  0  0  0
   36.8150   29.7560   49.5980 C   0  0  0  0  0  0  0  0  0  0  0  0
   35.7770   29.8460   48.6590 C   0  0  0  0  0  0  0  0  0  0  0  0
   34.5250   29.6710   49.1210 N   0  0  0  0  0  0  0  0  0  0  0  0
   34.1960   29.4190   50.4030 C   0  0  0  0  0  0  0  0  0  0  0  0
   35.1880   29.3310   51.3170 N   0  0  0  0  0  0  0  0  0  0  0  0
   37.2920   29.4300   51.6370 H   0  0  0  0  0  0  0  0  0  0  0  0
   37.8010   29.8940   49.2270 H   0  0  0  0  0  0  0  0  0  0  0  0
   33.1400   29.3070   50.6000 H   0  0  0  0  0  0  0  0  0  0  0  0
  1 21  1  0  0  0  0
  2  7  1  0  0  0  0
  2  1  2  0  0  0  0
  3  2  1  0  0  0  0
  4  3  2  0  0  0  0
  4  5  1  0  0  0  0
  5  6  2  0  0  0  0
  6  1  1  0  0  0  0
  8  3  1  0  0  0  0
  9  5  1  0  0  0  0
  9 17  1  0  0  0  0
 10 12  1  0  0  0  0
 10  9  1  0  0  0  0
 11 10  1  0  0  0  0
 13 12  1  0  0  0  0
 14 12  1  0  0  0  0
 14 15  1  0  0  0  0
 15 16  1  0  0  0  0
 15 17  1  0  0  0  0
 17 18  1  0  0  0  0
 19 24  1  0  0  0  0
 19 25  1  0  0  0  0
 20 19  2  0  0  0  0
 21 22  2  0  0  0  0
 21 20  1  0  0  0  0
 22 23  1  0  0  0  0
 23 27  1  0  0  0  0
 23 24  2  0  0  0  0
 26 20  1  0  0  0  0
M  END
>  <minimizedAffinity>
-5.19280481

>  <minimizedRMSD>
2.89279318

$$$$
