
     RDKit          3D

 34 36  0  0  0  0  0  0  0  0999 V2000
   37.9241   30.8761   46.7378 C   0  0  0  0  0  0  0  0  0  0  0  0
   38.0600   31.0443   48.1430 C   0  0  0  0  0  0  0  0  0  0  0  0
   36.9262   30.8178   48.9232 C   0  0  0  0  0  0  0  0  0  0  0  0
   35.7699   30.4551   48.3190 N   0  0  0  0  0  0  0  0  0  0  0  0
   35.6694   30.3028   46.9825 C   0  0  0  0  0  0  0  0  0  0  0  0
   36.7549   30.5170   46.2071 N   0  0  0  0  0  0  0  0  0  0  0  0
   39.1003   31.1093   45.9086 C   0  0  0  0  0  0  0  0  0  0  0  0
   39.9202   32.2063   45.8986 C   0  0  0  0  0  0  0  0  0  0  0  0
   40.9350   32.0274   44.9522 C   0  0  0  0  0  0  0  0  0  0  0  0
   40.6774   30.7974   44.4172 N   0  0  0  0  0  0  0  0  0  0  0  0
   39.6099   30.2878   44.9886 N   0  0  0  0  0  0  0  0  0  0  0  0
   37.0448   30.9878   50.3966 C   0  0  0  0  0  0  0  0  0  0  0  0
   36.5571   32.2333   50.6893 F   0  0  0  0  0  0  0  0  0  0  0  0
   36.3060   30.0487   51.1048 F   0  0  0  0  0  0  0  0  0  0  0  0
   38.3688   30.9430   50.8205 F   0  0  0  0  0  0  0  0  0  0  0  0
   39.0101   31.3354   48.5662 H   0  0  0  0  0  0  0  0  0  0  0  0
   34.7520   30.0133   46.4849 H   0  0  0  0  0  0  0  0  0  0  0  0
   39.8297   33.1080   46.5213 H   0  0  0  0  0  0  0  0  0  0  0  0
   41.7471   32.7218   44.7039 H   0  0  0  0  0  0  0  0  0  0  0  0
   41.4975   30.2061   43.3809 C   0  0  0  0  0  0  0  0  0  0  0  0
   42.3675   31.2760   42.7070 C   0  0  1  0  0  0  0  0  0  0  0  0
   41.8322   32.2454   42.7465 H   0  0  0  0  0  0  0  0  0  0  0  0
   42.4707   30.8742   41.2502 C   0  0  1  0  0  0  0  0  0  0  0  0
   43.2774   31.4796   40.7812 H   0  0  0  0  0  0  0  0  0  0  0  0
   41.2833   31.0858   40.5572 O   0  0  0  0  0  0  0  0  0  0  0  0
   40.2028   30.8181   41.3680 C   0  0  2  0  0  0  0  0  0  0  0  0
   39.2967   30.5330   40.7726 H   0  0  0  0  0  0  0  0  0  0  0  0
   40.6014   29.6666   42.2844 C   0  0  1  0  0  0  0  0  0  0  0  0
   41.0370   28.8349   41.7234 H   0  0  0  0  0  0  0  0  0  0  0  0
   42.1364   29.3938   43.7272 H   0  0  0  0  0  0  0  0  0  0  0  0
   43.3735   31.3016   43.1266 H   0  0  0  0  0  0  0  0  0  0  0  0
   42.7571   29.8052   41.2119 H   0  0  0  0  0  0  0  0  0  0  0  0
   39.9410   31.6929   42.0092 H   0  0  0  0  0  0  0  0  0  0  0  0
   39.6503   29.3537   42.8010 H   0  0  0  0  0  0  0  0  0  0  0  0
  1  2  2  0
  2  3  1  0
  3 12  1  0
  4  3  2  0
  5  4  1  0
  6  1  1  0
  6  5  2  0
  7  1  1  0
  8  7  1  0
  9  8  2  0
 10  9  1  0
 10 11  1  0
 11  7  2  0
 12 13  1  0
 12 15  1  0
 12 14  1  0
  2 16  1  0
  5 17  1  0
  8 18  1  0
  9 19  1  0
 20 21  1  0
 21 22  1  6
 21 23  1  0
 23 24  1  6
 23 25  1  0
 25 26  1  0
 26 27  1  6
 26 28  1  0
 28 29  1  6
 28 20  1  0
 20 30  1  0
 21 31  1  0
 23 32  1  0
 26 33  1  0
 28 34  1  0
 10 20  1  0
M  ISO  8  16  14  17  14  18  14  19  14  22  15  24  15  27  15  29  15
M  END
>  <DihAtoms>  (1) 
8,9,19,20

>  <DihDeg>  (1) 
-62.12616618578432

$$$$
