
 OpenBabel03272510123D

 36 39  0  0  0  0  0  0  0  0999 V2000
   34.0740   28.4190   48.6720 C   0  0  0  0  0  0  0  0  0  0  0  0
   34.9000   28.2970   49.7480 C   0  0  0  0  0  0  0  0  0  0  0  0
   35.7580   29.2770   50.1910 C   0  0  0  0  0  0  0  0  0  0  0  0
   35.8140   30.4690   49.5300 C   0  0  0  0  0  0  0  0  0  0  0  0
   34.9680   30.6000   48.4270 C   0  0  0  0  0  0  0  0  0  0  0  0
   34.1430   29.6130   48.0270 N   0  0  0  0  0  0  0  0  0  0  0  0
   34.9260   27.3840   50.3350 H   0  0  0  0  0  0  0  0  0  0  0  0
   36.4160   29.1840   51.0440 H   0  0  0  0  0  0  0  0  0  0  0  0
   34.9450   31.5110   47.8440 H   0  0  0  0  0  0  0  0  0  0  0  0
   31.8050   27.3370   48.4740 C   0  0  0  0  0  0  0  0  0  0  0  0
   33.1870   27.3760   48.2320 C   0  0  0  0  0  0  0  0  0  0  0  0
   33.7160   26.3170   47.5110 C   0  0  0  0  0  0  0  0  0  0  0  0
   32.8910   25.3140   47.0830 N   0  0  0  0  0  0  0  0  0  0  0  0
   31.5610   25.3370   47.3510 C   0  0  0  0  0  0  0  0  0  0  0  0
   31.0110   26.3490   48.0500 N   0  0  0  0  0  0  0  0  0  0  0  0
   31.3830   28.1460   49.0280 H   0  0  0  0  0  0  0  0  0  0  0  0
   34.7730   26.2970   47.2970 H   0  0  0  0  0  0  0  0  0  0  0  0
   31.0790   24.4650   46.9340 H   0  0  0  0  0  0  0  0  0  0  0  0
   36.6140   31.5710   49.8300 O   0  0  0  0  0  0  0  0  0  0  0  0
   37.5770   32.0510   48.9460 C   0  0  0  0  0  0  0  0  0  0  0  0
   38.2670   33.1560   49.4080 C   0  0  0  0  0  0  0  0  0  0  0  0
   39.1800   33.5090   48.4240 C   0  0  0  0  0  0  0  0  0  0  0  0
   39.0150   32.6310   47.4290 N   0  0  0  0  0  0  0  0  0  0  0  0
   38.0750   31.7750   47.7350 N   0  0  0  0  0  0  0  0  0  0  0  0
   38.2660   33.7810   50.3090 H   0  0  0  0  0  0  0  0  0  0  0  0
   39.9220   34.2950   48.3430 H   0  0  0  0  0  0  0  0  0  0  0  0
   39.7020   32.5300   46.1610 C   0  0  0  0  0  3  0  0  0  0  0  0
   40.2660   31.1620   45.9220 C   0  0  0  0  0  3  0  0  0  0  0  0
   39.4250   30.4320   45.7620 H   0  0  0  0  0  0  0  0  0  0  0  0
   41.0050   31.2260   44.5860 C   0  0  0  0  0  3  0  0  0  0  0  0
   41.4940   30.2800   44.3450 H   0  0  0  0  0  0  0  0  0  0  0  0
   40.1360   31.5710   43.5660 O   0  0  0  0  0  0  0  0  0  0  0  0
   39.7100   32.8880   43.7700 C   0  0  0  0  0  3  0  0  0  0  0  0
   39.1470   33.2060   42.8530 H   0  0  0  0  0  0  0  0  0  0  0  0
   38.7970   32.8630   44.9950 C   0  0  0  0  0  3  0  0  0  0  0  0
   38.0800   32.0140   44.8080 H   0  0  0  0  0  0  0  0  0  0  0  0
  1  2  1  0  0  0  0
  2  3  2  0  0  0  0
  2  7  1  0  0  0  0
  3  8  1  0  0  0  0
  4 19  1  0  0  0  0
  4  3  1  0  0  0  0
  5  4  2  0  0  0  0
  6  5  1  0  0  0  0
  6  1  2  0  0  0  0
  9  5  1  0  0  0  0
 10 16  1  0  0  0  0
 11 10  1  0  0  0  0
 11  1  1  0  0  0  0
 12 11  2  0  0  0  0
 13 14  2  0  0  0  0
 13 12  1  0  0  0  0
 14 15  1  0  0  0  0
 15 10  2  0  0  0  0
 17 12  1  0  0  0  0
 18 14  1  0  0  0  0
 20 21  1  0  0  0  0
 20 19  1  0  0  0  0
 21 25  1  0  0  0  0
 22 21  2  0  0  0  0
 23 24  1  0  0  0  0
 23 22  1  0  0  0  0
 24 20  2  0  0  0  0
 26 22  1  0  0  0  0
 27 23  1  0  0  0  0
 28 27  1  0  0  0  0
 29 28  1  0  0  0  0
 30 28  1  0  0  0  0
 31 30  1  0  0  0  0
 32 33  1  0  0  0  0
 32 30  1  0  0  0  0
 33 35  1  0  0  0  0
 34 33  1  0  0  0  0
 35 27  1  0  0  0  0
 36 35  1  0  0  0  0
M  END
>  <minimizedAffinity>
-6.52877808

>  <minimizedRMSD>
1.90554321

$$$$
