
 OpenBabel03272504503D

 43 46  0  0  1  0  0  0  0  0999 V2000
   36.9330   30.7900   48.6990 N   0  0  0  0  0  0  0  0  0  0  0  0
   37.5570   30.6370   50.0080 C   0  0  0  0  0  0  0  0  0  0  0  0
   38.7070   31.5560   50.2380 C   0  0  0  0  0  0  0  0  0  0  0  0
   38.4450   32.9090   49.5860 C   0  0  0  0  0  0  0  0  0  0  0  0
   38.4410   32.6460   48.1080 C   0  0  0  0  0  0  0  0  0  0  0  0
   37.3860   31.6660   47.6740 C   0  0  1  0  0  0  0  0  0  0  0  0
   37.9410   29.6010   50.1520 H   0  0  0  0  0  0  0  0  0  0  0  0
   36.7710   30.8660   50.7600 H   0  0  0  0  0  0  0  0  0  0  0  0
   38.8350   31.6580   51.3500 H   0  0  0  0  0  0  0  0  0  0  0  0
   39.6330   31.1590   49.7700 H   0  0  0  0  0  0  0  0  0  0  0  0
   37.4720   33.3040   49.9230 H   0  0  0  0  0  0  0  0  0  0  0  0
   39.2570   33.6030   49.8130 H   0  0  0  0  0  0  0  0  0  0  0  0
   39.4830   32.3170   47.8490 H   0  0  0  0  0  0  0  0  0  0  0  0
   38.3280   33.6330   47.5960 H   0  0  0  0  0  0  0  0  0  0  0  0
   36.5420   32.2870   47.3150 H   0  0  0  0  0  0  0  0  0  0  0  0
   37.9190   30.8970   46.4900 C   0  0  0  0  0  0  0  0  0  0  0  0
   39.3680   31.2300   46.1950 C   0  0  0  0  0  0  0  0  0  0  0  0
   39.9220   31.1540   47.1440 H   0  0  0  0  0  0  0  0  0  0  0  0
   39.8100   30.1730   45.1750 C   0  0  0  0  0  0  0  0  0  0  0  0
   40.8650   30.2910   44.9020 H   0  0  0  0  0  0  0  0  0  0  0  0
   39.0560   30.3670   44.0380 O   0  0  0  0  0  0  0  0  0  0  0  0
   37.7000   30.1990   44.1950 C   0  0  0  0  0  0  0  0  0  0  0  0
   37.2180   30.4170   43.2370 H   0  0  0  0  0  0  0  0  0  0  0  0
   37.1320   31.1810   45.2300 C   0  0  0  0  0  0  0  0  0  0  0  0
   37.3050   32.2160   44.8430 H   0  0  0  0  0  0  0  0  0  0  0  0
   35.6430   28.7530   49.1090 C   0  0  0  0  0  0  0  0  0  0  0  0
   35.7920   29.9900   48.4580 C   0  0  0  0  0  0  0  0  0  0  0  0
   34.7940   30.3760   47.5820 C   0  0  0  0  0  0  0  0  0  0  0  0
   33.7250   29.5470   47.3960 N   0  0  0  0  0  0  0  0  0  0  0  0
   33.6100   28.3640   48.0350 C   0  0  0  0  0  0  0  0  0  0  0  0
   34.5690   27.9840   48.8830 N   0  0  0  0  0  0  0  0  0  0  0  0
   36.3850   28.3880   49.8070 H   0  0  0  0  0  0  0  0  0  0  0  0
   34.8150   31.2940   47.0450 H   0  0  0  0  0  0  0  0  0  0  0  0
   32.4530   27.5280   47.7900 C   0  0  0  0  0  0  0  0  0  0  0  0
   32.6250   26.1840   47.5250 C   0  0  0  0  0  0  0  0  0  0  0  0
   31.5760   25.3300   47.2830 C   0  0  0  0  0  0  0  0  0  0  0  0
   30.3390   25.9070   47.3240 C   0  0  0  0  0  0  0  0  0  0  0  0
   30.1060   27.2720   47.5910 C   0  0  0  0  0  0  0  0  0  0  0  0
   31.2190   28.0420   47.8200 N   0  0  0  0  0  0  0  0  0  0  0  0
   33.6500   25.8060   47.5120 H   0  0  0  0  0  0  0  0  0  0  0  0
   31.7180   24.2890   47.0780 H   0  0  0  0  0  0  0  0  0  0  0  0
   29.4390   25.3300   47.1490 H   0  0  0  0  0  0  0  0  0  0  0  0
   29.1110   27.6910   47.6150 H   0  0  0  0  0  0  0  0  0  0  0  0
  1  2  1  0  0  0  0
  2  7  1  0  0  0  0
  2  3  1  0  0  0  0
  2  8  1  0  0  0  0
  3  9  1  0  0  0  0
  4 12  1  0  0  0  0
  4 11  1  0  0  0  0
  4  3  1  0  0  0  0
  5  4  1  0  0  0  0
  6 15  1  6  0  0  0
  6  5  1  0  0  0  0
  6  1  1  0  0  0  0
 10  3  1  0  0  0  0
 13  5  1  0  0  0  0
 14  5  1  0  0  0  0
 16  6  1  0  0  0  0
 17 16  1  0  0  0  0
 17 18  1  0  0  0  0
 19 17  1  0  0  0  0
 20 19  1  0  0  0  0
 21 22  1  0  0  0  0
 21 19  1  0  0  0  0
 22 24  1  0  0  0  0
 23 22  1  0  0  0  0
 24 16  1  0  0  0  0
 25 24  1  0  0  0  0
 26 32  1  0  0  0  0
 27  1  1  0  0  0  0
 27 26  2  0  0  0  0
 28 27  1  0  0  0  0
 29 28  2  0  0  0  0
 29 30  1  0  0  0  0
 30 31  2  0  0  0  0
 31 26  1  0  0  0  0
 33 28  1  0  0  0  0
 34 39  1  0  0  0  0
 34 30  1  0  0  0  0
 35 34  2  0  0  0  0
 36 37  2  0  0  0  0
 36 35  1  0  0  0  0
 37 38  1  0  0  0  0
 38 43  1  0  0  0  0
 38 39  2  0  0  0  0
 40 35  1  0  0  0  0
 41 36  1  0  0  0  0
 42 37  1  0  0  0  0
M  END
>  <minimizedAffinity>
-5.65253639

>  <minimizedRMSD>
1.14888597

$$$$
