
     RDKit          3D

 35 37  0  0  0  0  0  0  0  0999 V2000
   38.0323   30.3209   47.8882 F   0  0  0  0  0  0  0  0  0  0  0  0
   37.0402   30.2600   46.9448 C   0  0  0  0  0  0  0  0  0  0  0  0
   37.1974   30.7665   45.6630 C   0  0  0  0  0  0  0  0  0  0  0  0
   36.1528   30.6635   44.7813 C   0  0  0  0  0  0  0  0  0  0  0  0
   34.9362   30.0740   45.1073 C   0  0  0  0  0  0  0  0  0  0  0  0
   34.8073   29.5752   46.3990 C   0  0  0  0  0  0  0  0  0  0  0  0
   35.8423   29.6607   47.3200 C   0  0  0  0  0  0  0  0  0  0  0  0
   39.5864   33.3334   44.6573 C   0  0  0  0  0  0  0  0  0  0  0  0
   40.8187   32.6683   44.6037 C   0  0  0  0  0  0  0  0  0  0  0  0
   40.8022   31.3114   44.9238 C   0  0  0  0  0  0  0  0  0  0  0  0
   39.6394   30.6972   45.2647 N   0  0  0  0  0  0  0  0  0  0  0  0
   38.4617   31.3863   45.3035 C   0  0  0  0  0  0  0  0  0  0  0  0
   38.4443   32.7099   44.9969 N   0  0  0  0  0  0  0  0  0  0  0  0
   35.6839   29.1669   48.5637 O   0  0  0  0  0  0  0  0  0  0  0  0
   35.1200   28.9521   51.0827 O   0  0  0  0  0  0  0  0  0  0  0  0
   35.2834   29.9853   49.9781 P   0  0  2  0  0  0  0  0  0  0  0  0
   33.8511   30.8464   49.9260 O   0  0  0  0  0  0  0  0  0  0  0  0
   36.5488   31.0200   50.4819 O   0  0  0  0  0  0  0  0  0  0  0  0
   37.6096   30.3376   51.0146 C   0  0  0  0  0  0  0  0  0  0  0  0
   37.7943   29.0974   50.4420 F   0  0  0  0  0  0  0  0  0  0  0  0
   38.7353   31.0871   50.7724 F   0  0  0  0  0  0  0  0  0  0  0  0
   37.4464   30.1920   52.3881 F   0  0  0  0  0  0  0  0  0  0  0  0
   36.3343   31.0785   43.7905 H   0  0  0  0  0  0  0  0  0  0  0  0
   34.1351   30.0137   44.3773 H   0  0  0  0  0  0  0  0  0  0  0  0
   33.8906   29.1078   46.7115 H   0  0  0  0  0  0  0  0  0  0  0  0
   39.4806   34.3937   44.4273 H   0  0  0  0  0  0  0  0  0  0  0  0
   41.6436   33.2726   44.3224 H   0  0  0  0  0  0  0  0  0  0  0  0
   41.7430   30.8194   44.8792 H   0  0  0  0  0  0  0  0  0  0  0  0
   32.6904   30.2144   49.4980 C   0  0  0  0  0  0  0  0  0  0  0  0
   31.8939   29.5860   50.4008 N   0  0  0  0  0  0  0  0  0  0  0  0
   30.8214   29.0387   49.7797 C   0  0  0  0  0  0  0  0  0  0  0  0
   30.0528   28.4885   50.3062 H   0  0  0  0  0  0  0  0  0  0  0  0
   30.9701   29.3424   48.4654 N   0  0  0  0  0  0  0  0  0  0  0  0
   30.2939   29.0540   47.7253 H   0  0  0  0  0  0  0  0  0  0  0  0
   32.0819   30.0433   48.2881 N   0  0  0  0  0  0  0  0  0  0  0  0
  2  7  2  0
  2  1  1  0
  3  2  1  0
  4  5  1  0
  4  3  2  0
  5  6  2  0
  6  7  1  0
  7 14  1  0
  8 13  2  0
  9  8  1  0
  9 10  2  0
 10 11  1  0
 11 12  2  0
 12  3  1  0
 13 12  1  0
 16 14  1  6
 16 18  1  0
 16 15  2  0
 17 16  1  0
 18 19  1  0
 19 22  1  0
 20 19  1  0
 21 19  1  0
  4 23  1  0
  5 24  1  0
  6 25  1  0
  8 26  1  0
  9 27  1  0
 10 28  1  0
 29 30  1  0
 30 31  2  0
 31 32  1  0
 31 33  1  0
 33 34  1  0
 33 35  1  0
 35 29  2  0
 17 29  1  0
M  ISO  8  23  14  24  14  25  14  26  14  27  14  28  14  32  14  34   9
M  END
>  <DihAtoms>  (1) 
15,16,28,29

>  <DihDeg>  (1) 
179.99907404447774

$$$$
