REMARK  Name = 
REMARK  4 active torsions:
REMARK  status: ('A' for Active; 'I' for Inactive)
REMARK    1  A    between atoms: C_3  and  C_7
REMARK    2  A    between atoms: C_5  and  O_17
REMARK    3  A    between atoms: C_11  and  C_13
REMARK    4  A    between atoms: O_17  and  C_20
REMARK                            x       y       z     vdW  Elec       q    Type
REMARK                         _______ _______ _______ _____ _____    ______ ____
ROOT
ATOM      1  C   UNL     1      37.825  30.380  51.090  0.00  0.00    +0.000 A 
ATOM      2  C   UNL     1      38.226  30.970  49.885  0.00  0.00    +0.000 A 
ATOM      3  C   UNL     1      37.587  30.555  48.726  0.00  0.00    +0.000 A 
ATOM      4  N   UNL     1      36.632  29.618  48.853  0.00  0.00    +0.000 NA
ATOM      5  C   UNL     1      36.260  29.062  50.016  0.00  0.00    +0.000 A 
ATOM      6  N   UNL     1      36.867  29.452  51.144  0.00  0.00    +0.000 NA
ATOM      7  H   UNL     1      38.338  30.720  51.980  0.00  0.00    +0.000 HD
ATOM      8  H   UNL     1      38.986  31.715  49.792  0.00  0.00    +0.000 HD
ENDROOT
BRANCH   3   9
ATOM      9  C   UNL     1      37.895  31.083  47.421  0.00  0.00    +0.000 A 
ATOM     10  C   UNL     1      37.118  30.753  46.317  0.00  0.00    +0.000 A 
ATOM     11  C   UNL     1      37.364  31.232  45.057  0.00  0.00    +0.000 A 
ATOM     12  N   UNL     1      38.409  32.064  44.867  0.00  0.00    +0.000 NA
ATOM     13  C   UNL     1      39.156  32.377  45.941  0.00  0.00    +0.000 A 
ATOM     14  N   UNL     1      38.930  31.920  47.176  0.00  0.00    +0.000 NA
ATOM     15  H   UNL     1      36.263  30.084  46.424  0.00  0.00    +0.000 HD
ATOM     16  H   UNL     1      36.734  30.950  44.222  0.00  0.00    +0.000 HD
BRANCH  13  17
ATOM     17  C   UNL     1      40.318  33.294  45.763  0.00  0.00    +0.000 C 
ATOM     18  F   UNL     1      40.427  34.058  46.924  0.00  0.00    +0.000 F 
ATOM     19  F   UNL     1      41.467  32.577  45.508  0.00  0.00    +0.000 F 
ATOM     20  F   UNL     1      40.110  34.181  44.737  0.00  0.00    +0.000 F 
ENDBRANCH  13  17
ENDBRANCH   3   9
BRANCH   5  21
ATOM     21  O   UNL     1      35.255  28.109  49.959  0.00  0.00    +0.000 OA
BRANCH  21  24
ATOM     22  N   UNL     1      33.286  27.171  47.003  0.00  0.00    +0.000 N 
ATOM     23  C   UNL     1      34.167  27.012  48.001  0.00  0.00    +0.000 A 
ATOM     24  C   UNL     1      34.408  28.047  48.878  0.00  0.00    +0.000 A 
ATOM     25  C   UNL     1      33.713  29.250  48.695  0.00  0.00    +0.000 A 
ATOM     26  O   UNL     1      33.774  30.320  49.369  0.00  0.00    +0.000 OA
ATOM     27  N   UNL     1      32.834  29.344  47.662  0.00  0.00    +0.000 N 
ATOM     28  C   UNL     1      32.624  28.317  46.828  0.00  0.00    +0.000 A 
ATOM     29  O   UNL     1      31.811  28.379  45.858  0.00  0.00    +0.000 OA
ATOM     30  H   UNL     1      33.187  26.325  46.406  0.00  0.00    +0.000 HD
ATOM     31  H   UNL     1      34.738  26.132  48.213  0.00  0.00    +0.000 HD
ATOM     32  C   UNL     1      32.075  30.511  47.378  0.00  0.00    +0.000 A 
ATOM     33  N   UNL     1      32.251  31.848  47.350  0.00  0.00    +0.000 NA
ATOM     34  C   UNL     1      31.081  32.419  46.985  0.00  0.00    +0.000 A 
ATOM     35  H   UNL     1      31.048  33.482  46.913  0.00  0.00    +0.000 HD
ATOM     36  N   UNL     1      30.191  31.428  46.790  0.00  0.00    +0.000 N 
ATOM     37  H   UNL     1      29.224  31.679  46.501  0.00  0.00    +0.000 HD
ATOM     38  N   UNL     1      30.782  30.265  47.026  0.00  0.00    +0.000 NA
ENDBRANCH  21  24
ENDBRANCH   5  21
TORSDOF 4
