
 OpenBabel03272508593D

 38 41  0  0  1  0  0  0  0  0999 V2000
   37.3510   26.7610   32.5940 C   0  0  0  0  0  0  0  0  0  0  0  0
   36.4760   25.9440   32.2720 O   0  0  0  0  0  0  0  0  0  0  0  0
   37.2260   28.1710   32.2430 N   0  0  0  0  0  0  0  0  0  0  0  0
   37.9980   28.8410   32.3060 H   0  0  0  0  0  0  0  0  0  0  0  0
   38.5670   26.3600   33.3490 C   0  0  0  0  0  0  0  0  0  0  0  0
   39.6330   27.2150   33.3880 C   0  0  0  0  0  0  0  0  0  0  0  0
   40.7510   26.8050   34.1000 C   0  0  0  0  0  0  0  0  0  0  0  0
   40.7070   25.5680   34.7190 C   0  0  0  0  0  0  0  0  0  0  0  0
   39.6250   24.7100   34.6770 C   0  0  0  0  0  0  0  0  0  0  0  0
   38.5550   25.1490   33.9700 N   0  0  0  0  0  0  0  0  0  0  0  0
   39.6260   28.1750   32.8880 H   0  0  0  0  0  0  0  0  0  0  0  0
   41.6210   27.4330   34.1670 H   0  0  0  0  0  0  0  0  0  0  0  0
   41.6120   25.2880   35.2690 H   0  0  0  0  0  0  0  0  0  0  0  0
   39.6400   23.4250   35.3560 C   0  0  0  0  0  0  0  0  0  0  0  0
   40.1010   22.4210   34.7640 O   0  0  0  0  0  0  0  0  0  0  0  0
   39.1230   23.2990   36.7140 C   0  0  0  0  0  0  0  0  0  0  0  0
   37.9120   23.6940   37.1410 N   0  0  0  0  0  0  0  0  0  0  0  0
   37.7910   23.4100   38.4710 C   0  0  0  0  0  0  0  0  0  0  0  0
   36.9980   23.5550   39.2010 H   0  0  0  0  0  0  0  0  0  0  0  0
   38.9640   22.8300   38.8450 N   0  0  0  0  0  0  0  0  0  0  0  0
   39.3440   22.4470   39.7490 H   0  0  0  0  0  0  0  0  0  0  0  0
   39.7650   22.7680   37.7690 N   0  0  0  0  0  0  0  0  0  0  0  0
   35.5000   29.9510   32.0720 C   0  0  2  0  0  0  0  0  0  0  0  0
   36.0140   29.7180   30.6960 C   0  0  0  0  0  0  0  0  0  0  0  0
   35.9370   28.6250   31.7840 C   0  0  1  0  0  0  0  0  0  0  0  0
   36.1260   30.6560   32.6550 H   0  0  0  0  0  0  0  0  0  0  0  0
   36.9990   30.0730   30.4020 H   0  0  0  0  0  0  0  0  0  0  0  0
   35.2580   29.7060   29.8900 H   0  0  0  0  0  0  0  0  0  0  0  0
   35.1740   27.8320   31.5240 H   0  0  0  0  0  0  0  0  0  0  0  0
   32.0530   31.2730   31.6170 C   0  0  0  0  0  0  0  0  0  0  0  0
   31.3540   30.6330   32.6730 C   0  0  0  0  0  0  0  0  0  0  0  0
   32.0940   29.7500   33.5460 C   0  0  0  0  0  0  0  0  0  0  0  0
   33.4360   29.5590   33.3270 N   0  0  0  0  0  0  0  0  0  0  0  0
   34.0260   30.2130   32.2910 C   0  0  0  0  0  0  0  0  0  0  0  0
   33.3740   31.0750   31.4170 N   0  0  0  0  0  0  0  0  0  0  0  0
   31.4600   31.9250   30.9900 H   0  0  0  0  0  0  0  0  0  0  0  0
   30.3130   30.7930   32.8260 H   0  0  0  0  0  0  0  0  0  0  0  0
   31.5700   29.2580   34.3530 H   0  0  0  0  0  0  0  0  0  0  0  0
  1  5  1  0  0  0  0
  2  1  2  0  0  0  0
  3  4  1  0  0  0  0
  3  1  1  0  0  0  0
  5  6  2  0  0  0  0
  5 10  1  0  0  0  0
  6  7  1  0  0  0  0
  7 12  1  0  0  0  0
  7  8  2  0  0  0  0
  8 13  1  0  0  0  0
  9  8  1  0  0  0  0
  9 14  1  0  0  0  0
 10  9  2  0  0  0  0
 11  6  1  0  0  0  0
 14 16  1  0  0  0  0
 15 14  2  0  0  0  0
 16 17  1  0  0  0  0
 16 22  2  0  0  0  0
 17 18  2  0  0  0  0
 18 20  1  0  0  0  0
 18 19  1  0  0  0  0
 20 21  1  0  0  0  0
 22 20  1  0  0  0  0
 23 34  1  0  0  0  0
 23 26  1  1  0  0  0
 24 25  1  0  0  0  0
 24 23  1  0  0  0  0
 25 29  1  6  0  0  0
 25 23  1  0  0  0  0
 25  3  1  0  0  0  0
 27 24  1  0  0  0  0
 28 24  1  0  0  0  0
 30 31  1  0  0  0  0
 31 37  1  0  0  0  0
 31 32  2  0  0  0  0
 32 38  1  0  0  0  0
 33 32  1  0  0  0  0
 34 33  2  0  0  0  0
 35 30  2  0  0  0  0
 35 34  1  0  0  0  0
 36 30  1  0  0  0  0
M  END
>  <minimizedAffinity>
-5.65646315

$$$$

 OpenBabel03272508593D

 38 41  0  0  1  0  0  0  0  0999 V2000
   36.2630   24.9760   31.6590 C   0  0  0  0  0  0  0  0  0  0  0  0
   35.2340   24.8150   30.9840 O   0  0  0  0  0  0  0  0  0  0  0  0
   36.9000   26.2850   31.7520 N   0  0  0  0  0  0  0  0  0  0  0  0
   37.8440   26.4300   32.1220 H   0  0  0  0  0  0  0  0  0  0  0  0
   36.9020   23.8610   32.4030 C   0  0  0  0  0  0  0  0  0  0  0  0
   36.5580   22.5750   32.0910 C   0  0  0  0  0  0  0  0  0  0  0  0
   37.1740   21.5600   32.8090 C   0  0  0  0  0  0  0  0  0  0  0  0
   38.0880   21.9190   33.7840 C   0  0  0  0  0  0  0  0  0  0  0  0
   38.4310   23.2200   34.0930 C   0  0  0  0  0  0  0  0  0  0  0  0
   37.8060   24.1810   33.3690 N   0  0  0  0  0  0  0  0  0  0  0  0
   35.8360   22.3380   31.3200 H   0  0  0  0  0  0  0  0  0  0  0  0
   36.9440   20.5290   32.6100 H   0  0  0  0  0  0  0  0  0  0  0  0
   38.5480   21.0840   34.3230 H   0  0  0  0  0  0  0  0  0  0  0  0
   39.4060   23.5310   35.1250 C   0  0  0  0  0  0  0  0  0  0  0  0
   40.5560   23.9060   34.7940 O   0  0  0  0  0  0  0  0  0  0  0  0
   39.0560   23.4100   36.5360 C   0  0  0  0  0  0  0  0  0  0  0  0
   37.9520   23.9010   37.1230 N   0  0  0  0  0  0  0  0  0  0  0  0
   37.9730   23.5880   38.4520 C   0  0  0  0  0  0  0  0  0  0  0  0
   37.2970   23.7820   39.2810 H   0  0  0  0  0  0  0  0  0  0  0  0
   39.1240   22.8910   38.6600 N   0  0  0  0  0  0  0  0  0  0  0  0
   39.5780   22.4450   39.5000 H   0  0  0  0  0  0  0  0  0  0  0  0
   39.7730   22.7890   37.4890 N   0  0  0  0  0  0  0  0  0  0  0  0
   36.1340   28.6310   32.0490 C   0  0  2  0  0  0  0  0  0  0  0  0
   37.0170   28.6160   30.8530 C   0  0  0  0  0  0  0  0  0  0  0  0
   36.1430   27.4220   31.2920 C   0  0  1  0  0  0  0  0  0  0  0  0
   36.6940   28.7250   33.0010 H   0  0  0  0  0  0  0  0  0  0  0  0
   38.0960   28.5210   30.9590 H   0  0  0  0  0  0  0  0  0  0  0  0
   36.6810   29.2220   29.9920 H   0  0  0  0  0  0  0  0  0  0  0  0
   35.3100   27.2230   30.5530 H   0  0  0  0  0  0  0  0  0  0  0  0
   33.7510   31.3800   31.2770 C   0  0  0  0  0  0  0  0  0  0  0  0
   32.6150   31.0040   32.0400 C   0  0  0  0  0  0  0  0  0  0  0  0
   32.6920   29.7950   32.8290 C   0  0  0  0  0  0  0  0  0  0  0  0
   33.8490   29.0560   32.8150 N   0  0  0  0  0  0  0  0  0  0  0  0
   34.8890   29.4910   32.0550 C   0  0  0  0  0  0  0  0  0  0  0  0
   34.8820   30.6420   31.2760 N   0  0  0  0  0  0  0  0  0  0  0  0
   33.6490   32.2910   30.7030 H   0  0  0  0  0  0  0  0  0  0  0  0
   31.7260   31.5890   32.0370 H   0  0  0  0  0  0  0  0  0  0  0  0
   31.8310   29.5000   33.4130 H   0  0  0  0  0  0  0  0  0  0  0  0
  1  3  1  0  0  0  0
  1  5  1  0  0  0  0
  2  1  2  0  0  0  0
  3  4  1  0  0  0  0
  5 10  1  0  0  0  0
  6  5  2  0  0  0  0
  6  7  1  0  0  0  0
  7  8  2  0  0  0  0
  8  9  1  0  0  0  0
  8 13  1  0  0  0  0
  9 14  1  0  0  0  0
 10  9  2  0  0  0  0
 11  6  1  0  0  0  0
 12  7  1  0  0  0  0
 14 16  1  0  0  0  0
 15 14  2  0  0  0  0
 16 17  1  0  0  0  0
 16 22  2  0  0  0  0
 17 18  2  0  0  0  0
 18 20  1  0  0  0  0
 18 19  1  0  0  0  0
 20 21  1  0  0  0  0
 22 20  1  0  0  0  0
 23 34  1  0  0  0  0
 23 26  1  1  0  0  0
 24 27  1  0  0  0  0
 24 25  1  0  0  0  0
 24 23  1  0  0  0  0
 25 29  1  6  0  0  0
 25  3  1  0  0  0  0
 25 23  1  0  0  0  0
 28 24  1  0  0  0  0
 30 31  1  0  0  0  0
 31 32  2  0  0  0  0
 32 38  1  0  0  0  0
 33 32  1  0  0  0  0
 34 33  2  0  0  0  0
 35 30  2  0  0  0  0
 35 34  1  0  0  0  0
 36 30  1  0  0  0  0
 37 31  1  0  0  0  0
M  END
>  <minimizedAffinity>
-5.65176058

$$$$

 OpenBabel03272508593D

 38 41  0  0  1  0  0  0  0  0999 V2000
   36.7240   27.5800   33.1600 C   0  0  0  0  0  0  0  0  0  0  0  0
   35.9520   27.4660   32.1950 O   0  0  0  0  0  0  0  0  0  0  0  0
   36.5470   28.6470   34.1380 N   0  0  0  0  0  0  0  0  0  0  0  0
   37.2580   28.9060   34.8290 H   0  0  0  0  0  0  0  0  0  0  0  0
   37.8610   26.6480   33.3770 C   0  0  0  0  0  0  0  0  0  0  0  0
   39.1010   27.0010   32.9200 C   0  0  0  0  0  0  0  0  0  0  0  0
   40.1370   26.1050   33.1390 C   0  0  0  0  0  0  0  0  0  0  0  0
   39.8440   24.9250   33.8010 C   0  0  0  0  0  0  0  0  0  0  0  0
   38.5900   24.5760   34.2610 C   0  0  0  0  0  0  0  0  0  0  0  0
   37.6060   25.4790   34.0260 N   0  0  0  0  0  0  0  0  0  0  0  0
   39.2850   27.9350   32.4050 H   0  0  0  0  0  0  0  0  0  0  0  0
   41.1340   26.3250   32.8020 H   0  0  0  0  0  0  0  0  0  0  0  0
   40.6940   24.2510   33.9500 H   0  0  0  0  0  0  0  0  0  0  0  0
   38.3500   23.3230   34.9570 C   0  0  0  0  0  0  0  0  0  0  0  0
   37.9560   22.3250   34.3100 O   0  0  0  0  0  0  0  0  0  0  0  0
   38.5650   23.2220   36.3970 C   0  0  0  0  0  0  0  0  0  0  0  0
   37.7610   23.7150   37.3540 N   0  0  0  0  0  0  0  0  0  0  0  0
   38.2910   23.4240   38.5780 C   0  0  0  0  0  0  0  0  0  0  0  0
   37.9790   23.6260   39.5990 H   0  0  0  0  0  0  0  0  0  0  0  0
   39.4430   22.7380   38.3400 N   0  0  0  0  0  0  0  0  0  0  0  0
   40.1880   22.3090   38.9490 H   0  0  0  0  0  0  0  0  0  0  0  0
   39.5990   22.6220   37.0120 N   0  0  0  0  0  0  0  0  0  0  0  0
   35.0910   30.4770   34.9830 C   0  0  2  0  0  0  0  0  0  0  0  0
   35.4150   30.8030   33.5690 C   0  0  0  0  0  0  0  0  0  0  0  0
   35.2970   29.3640   34.1140 C   0  0  1  0  0  0  0  0  0  0  0  0
   35.8720   30.8100   35.6950 H   0  0  0  0  0  0  0  0  0  0  0  0
   36.4050   31.1620   33.2930 H   0  0  0  0  0  0  0  0  0  0  0  0
   34.5840   31.2020   32.9580 H   0  0  0  0  0  0  0  0  0  0  0  0
   34.4020   28.8270   33.6780 H   0  0  0  0  0  0  0  0  0  0  0  0
   31.4130   30.2730   35.4990 C   0  0  0  0  0  0  0  0  0  0  0  0
   31.2120   31.2190   36.5370 C   0  0  0  0  0  0  0  0  0  0  0  0
   32.3630   31.9320   37.0440 C   0  0  0  0  0  0  0  0  0  0  0  0
   33.6020   31.6730   36.5120 N   0  0  0  0  0  0  0  0  0  0  0  0
   33.7030   30.7490   35.5190 C   0  0  0  0  0  0  0  0  0  0  0  0
   32.6400   30.0310   34.9860 N   0  0  0  0  0  0  0  0  0  0  0  0
   30.5250   29.7640   35.1500 H   0  0  0  0  0  0  0  0  0  0  0  0
   30.2440   31.4060   36.9370 H   0  0  0  0  0  0  0  0  0  0  0  0
   32.2190   32.6550   37.8350 H   0  0  0  0  0  0  0  0  0  0  0  0
  1  5  1  0  0  0  0
  1  3  1  0  0  0  0
  2  1  2  0  0  0  0
  3  4  1  0  0  0  0
  5 10  1  0  0  0  0
  6  7  1  0  0  0  0
  6  5  2  0  0  0  0
  7  8  2  0  0  0  0
  8 13  1  0  0  0  0
  8  9  1  0  0  0  0
  9 14  1  0  0  0  0
 10  9  2  0  0  0  0
 11  6  1  0  0  0  0
 12  7  1  0  0  0  0
 14 16  1  0  0  0  0
 15 14  2  0  0  0  0
 16 22  2  0  0  0  0
 16 17  1  0  0  0  0
 17 18  2  0  0  0  0
 18 19  1  0  0  0  0
 20 18  1  0  0  0  0
 20 21  1  0  0  0  0
 22 20  1  0  0  0  0
 23 34  1  0  0  0  0
 23 26  1  1  0  0  0
 24 25  1  0  0  0  0
 24 23  1  0  0  0  0
 25 29  1  6  0  0  0
 25  3  1  0  0  0  0
 25 23  1  0  0  0  0
 27 24  1  0  0  0  0
 28 24  1  0  0  0  0
 30 31  1  0  0  0  0
 31 37  1  0  0  0  0
 31 32  2  0  0  0  0
 32 38  1  0  0  0  0
 33 32  1  0  0  0  0
 34 33  2  0  0  0  0
 35 30  2  0  0  0  0
 35 34  1  0  0  0  0
 36 30  1  0  0  0  0
M  END
>  <minimizedAffinity>
-5.5668354

$$$$

 OpenBabel03272508593D

 38 41  0  0  1  0  0  0  0  0999 V2000
   36.4360   27.0110   32.4310 C   0  0  0  0  0  0  0  0  0  0  0  0
   36.0020   27.2740   31.2990 O   0  0  0  0  0  0  0  0  0  0  0  0
   36.3970   28.0040   33.4980 N   0  0  0  0  0  0  0  0  0  0  0  0
   36.9140   27.9120   34.3780 H   0  0  0  0  0  0  0  0  0  0  0  0
   37.0160   25.6840   32.7670 C   0  0  0  0  0  0  0  0  0  0  0  0
   36.6420   24.5940   32.0300 C   0  0  0  0  0  0  0  0  0  0  0  0
   37.2020   23.3730   32.3740 C   0  0  0  0  0  0  0  0  0  0  0  0
   38.0960   23.3440   33.4310 C   0  0  0  0  0  0  0  0  0  0  0  0
   38.4690   24.4500   34.1700 C   0  0  0  0  0  0  0  0  0  0  0  0
   37.8980   25.6230   33.8010 N   0  0  0  0  0  0  0  0  0  0  0  0
   35.9380   24.6610   31.2100 H   0  0  0  0  0  0  0  0  0  0  0  0
   36.9470   22.4790   31.8330 H   0  0  0  0  0  0  0  0  0  0  0  0
   38.5110   22.3590   33.6650 H   0  0  0  0  0  0  0  0  0  0  0  0
   39.4200   24.3540   35.2650 C   0  0  0  0  0  0  0  0  0  0  0  0
   40.6080   24.7090   35.0820 O   0  0  0  0  0  0  0  0  0  0  0  0
   39.0000   23.8500   36.5680 C   0  0  0  0  0  0  0  0  0  0  0  0
   37.8670   24.1720   37.2140 N   0  0  0  0  0  0  0  0  0  0  0  0
   37.8230   23.5030   38.4040 C   0  0  0  0  0  0  0  0  0  0  0  0
   37.1060   23.4680   39.2200 H   0  0  0  0  0  0  0  0  0  0  0  0
   38.9640   22.7630   38.4650 N   0  0  0  0  0  0  0  0  0  0  0  0
   39.3760   22.0960   39.1700 H   0  0  0  0  0  0  0  0  0  0  0  0
   39.6700   22.9820   37.3450 N   0  0  0  0  0  0  0  0  0  0  0  0
   34.3850   29.3620   34.0380 C   0  0  2  0  0  0  0  0  0  0  0  0
   35.5670   30.1510   34.4760 C   0  0  0  0  0  0  0  0  0  0  0  0
   35.5800   29.1720   33.2830 C   0  0  1  0  0  0  0  0  0  0  0  0
   34.0540   28.6230   34.7950 H   0  0  0  0  0  0  0  0  0  0  0  0
   36.1240   29.8720   35.3680 H   0  0  0  0  0  0  0  0  0  0  0  0
   35.5340   31.2360   34.2630 H   0  0  0  0  0  0  0  0  0  0  0  0
   35.7080   29.7170   32.2990 H   0  0  0  0  0  0  0  0  0  0  0  0
   31.0140   30.8590   33.5600 C   0  0  0  0  0  0  0  0  0  0  0  0
   31.1080   31.3710   32.2400 C   0  0  0  0  0  0  0  0  0  0  0  0
   32.3470   31.1810   31.5200 C   0  0  0  0  0  0  0  0  0  0  0  0
   33.3840   30.5190   32.1290 N   0  0  0  0  0  0  0  0  0  0  0  0
   33.2070   30.0610   33.3970 C   0  0  0  0  0  0  0  0  0  0  0  0
   32.0450   30.2090   34.1450 N   0  0  0  0  0  0  0  0  0  0  0  0
   30.0700   31.0230   34.0600 H   0  0  0  0  0  0  0  0  0  0  0  0
   30.2930   31.8830   31.7850 H   0  0  0  0  0  0  0  0  0  0  0  0
   32.4280   31.5690   30.5130 H   0  0  0  0  0  0  0  0  0  0  0  0
  1  5  1  0  0  0  0
  1  3  1  0  0  0  0
  2  1  2  0  0  0  0
  3  4  1  0  0  0  0
  5 10  1  0  0  0  0
  6  7  1  0  0  0  0
  6  5  2  0  0  0  0
  7  8  2  0  0  0  0
  8 13  1  0  0  0  0
  8  9  1  0  0  0  0
  9 14  1  0  0  0  0
 10  9  2  0  0  0  0
 11  6  1  0  0  0  0
 12  7  1  0  0  0  0
 14 16  1  0  0  0  0
 15 14  2  0  0  0  0
 16 17  1  0  0  0  0
 16 22  2  0  0  0  0
 17 18  2  0  0  0  0
 18 20  1  0  0  0  0
 18 19  1  0  0  0  0
 20 21  1  0  0  0  0
 22 20  1  0  0  0  0
 23 24  1  0  0  0  0
 23 26  1  1  0  0  0
 24 27  1  0  0  0  0
 25 29  1  6  0  0  0
 25  3  1  0  0  0  0
 25 23  1  0  0  0  0
 25 24  1  0  0  0  0
 28 24  1  0  0  0  0
 30 36  1  0  0  0  0
 30 35  1  0  0  0  0
 31 30  2  0  0  0  0
 32 33  2  0  0  0  0
 32 31  1  0  0  0  0
 33 34  1  0  0  0  0
 34 23  1  0  0  0  0
 34 35  2  0  0  0  0
 37 31  1  0  0  0  0
 38 32  1  0  0  0  0
M  END
>  <minimizedAffinity>
-5.47196293

$$$$

 OpenBabel03272508593D

 38 41  0  0  1  0  0  0  0  0999 V2000
   38.1230   26.8600   33.2920 C   0  0  0  0  0  0  0  0  0  0  0  0
   38.9880   27.1130   34.1450 O   0  0  0  0  0  0  0  0  0  0  0  0
   38.0000   25.5230   32.7230 N   0  0  0  0  0  0  0  0  0  0  0  0
   37.4480   25.3120   31.8860 H   0  0  0  0  0  0  0  0  0  0  0  0
   37.1710   27.8910   32.8030 C   0  0  0  0  0  0  0  0  0  0  0  0
   37.3040   28.3610   31.5260 C   0  0  0  0  0  0  0  0  0  0  0  0
   36.3980   29.3240   31.1060 C   0  0  0  0  0  0  0  0  0  0  0  0
   35.4300   29.7380   32.0040 C   0  0  0  0  0  0  0  0  0  0  0  0
   35.3010   29.2590   33.2920 C   0  0  0  0  0  0  0  0  0  0  0  0
   36.2060   28.3190   33.6620 N   0  0  0  0  0  0  0  0  0  0  0  0
   38.0770   28.0090   30.8550 H   0  0  0  0  0  0  0  0  0  0  0  0
   36.4510   29.7330   30.1130 H   0  0  0  0  0  0  0  0  0  0  0  0
   34.7380   30.4990   31.6270 H   0  0  0  0  0  0  0  0  0  0  0  0
   34.2560   29.7300   34.1850 C   0  0  0  0  0  0  0  0  0  0  0  0
   33.0820   29.3190   34.0300 O   0  0  0  0  0  0  0  0  0  0  0  0
   34.5640   30.6740   35.2540 C   0  0  0  0  0  0  0  0  0  0  0  0
   33.6900   31.1790   36.1410 N   0  0  0  0  0  0  0  0  0  0  0  0
   34.3480   32.0260   36.9860 C   0  0  0  0  0  0  0  0  0  0  0  0
   34.0380   32.6350   37.8310 H   0  0  0  0  0  0  0  0  0  0  0  0
   35.6500   32.0240   36.5880 N   0  0  0  0  0  0  0  0  0  0  0  0
   36.5250   32.5090   36.9190 H   0  0  0  0  0  0  0  0  0  0  0  0
   35.7690   31.1990   35.5360 N   0  0  0  0  0  0  0  0  0  0  0  0
   38.1100   23.7960   34.5080 C   0  0  2  0  0  0  0  0  0  0  0  0
   38.0420   23.0710   33.2110 C   0  0  0  0  0  0  0  0  0  0  0  0
   38.7020   24.4550   33.3890 C   0  0  1  0  0  0  0  0  0  0  0  0
   37.1130   24.0890   34.8930 H   0  0  0  0  0  0  0  0  0  0  0  0
   37.1120   23.0200   32.6490 H   0  0  0  0  0  0  0  0  0  0  0  0
   38.6990   22.1870   33.1130 H   0  0  0  0  0  0  0  0  0  0  0  0
   39.8220   24.4040   33.2430 H   0  0  0  0  0  0  0  0  0  0  0  0
   39.4240   23.0390   37.9040 C   0  0  0  0  0  0  0  0  0  0  0  0
   40.5900   22.2880   37.6040 C   0  0  0  0  0  0  0  0  0  0  0  0
   40.9160   22.0580   36.2140 C   0  0  0  0  0  0  0  0  0  0  0  0
   40.0960   22.5680   35.2380 N   0  0  0  0  0  0  0  0  0  0  0  0
   38.9990   23.2770   35.6160 C   0  0  0  0  0  0  0  0  0  0  0  0
   38.6280   23.5340   36.9300 N   0  0  0  0  0  0  0  0  0  0  0  0
   39.2190   23.1860   38.9550 H   0  0  0  0  0  0  0  0  0  0  0  0
   41.2130   21.9000   38.3750 H   0  0  0  0  0  0  0  0  0  0  0  0
   41.8030   21.4860   35.9760 H   0  0  0  0  0  0  0  0  0  0  0  0
  1  2  2  0  0  0  0
  3  1  1  0  0  0  0
  3 25  1  0  0  0  0
  4  3  1  0  0  0  0
  5  1  1  0  0  0  0
  5 10  1  0  0  0  0
  6  5  2  0  0  0  0
  7  6  1  0  0  0  0
  7  8  2  0  0  0  0
  8  9  1  0  0  0  0
  9 10  2  0  0  0  0
  9 14  1  0  0  0  0
 11  6  1  0  0  0  0
 12  7  1  0  0  0  0
 13  8  1  0  0  0  0
 14 16  1  0  0  0  0
 15 14  2  0  0  0  0
 16 22  2  0  0  0  0
 16 17  1  0  0  0  0
 17 18  2  0  0  0  0
 18 19  1  0  0  0  0
 20 21  1  0  0  0  0
 20 18  1  0  0  0  0
 22 20  1  0  0  0  0
 23 26  1  1  0  0  0
 23 34  1  0  0  0  0
 24 25  1  0  0  0  0
 24 23  1  0  0  0  0
 25 29  1  6  0  0  0
 25 23  1  0  0  0  0
 27 24  1  0  0  0  0
 28 24  1  0  0  0  0
 30 36  1  0  0  0  0
 31 30  1  0  0  0  0
 31 37  1  0  0  0  0
 32 31  2  0  0  0  0
 33 34  2  0  0  0  0
 33 32  1  0  0  0  0
 34 35  1  0  0  0  0
 35 30  2  0  0  0  0
 38 32  1  0  0  0  0
M  END
>  <minimizedAffinity>
-5.44950247

$$$$

 OpenBabel03272508593D

 38 41  0  0  1  0  0  0  0  0999 V2000
   36.8150   27.0040   32.8480 C   0  0  0  0  0  0  0  0  0  0  0  0
   37.0740   26.5380   33.9680 O   0  0  0  0  0  0  0  0  0  0  0  0
   37.0400   26.2180   31.6400 N   0  0  0  0  0  0  0  0  0  0  0  0
   37.0340   26.6160   30.6960 H   0  0  0  0  0  0  0  0  0  0  0  0
   36.2670   28.3730   32.6690 C   0  0  0  0  0  0  0  0  0  0  0  0
   36.7710   29.1620   31.6720 C   0  0  0  0  0  0  0  0  0  0  0  0
   36.2350   30.4350   31.5380 C   0  0  0  0  0  0  0  0  0  0  0  0
   35.2350   30.8130   32.4160 C   0  0  0  0  0  0  0  0  0  0  0  0
   34.7300   30.0100   33.4200 C   0  0  0  0  0  0  0  0  0  0  0  0
   35.2810   28.7750   33.5170 N   0  0  0  0  0  0  0  0  0  0  0  0
   37.5560   28.8260   31.0070 H   0  0  0  0  0  0  0  0  0  0  0  0
   36.5910   31.1030   30.7740 H   0  0  0  0  0  0  0  0  0  0  0  0
   34.8440   31.8260   32.2700 H   0  0  0  0  0  0  0  0  0  0  0  0
   33.6710   30.4650   34.3050 C   0  0  0  0  0  0  0  0  0  0  0  0
   32.4780   30.2020   34.0250 O   0  0  0  0  0  0  0  0  0  0  0  0
   33.9880   31.2210   35.5120 C   0  0  0  0  0  0  0  0  0  0  0  0
   33.1160   31.9100   36.2680 N   0  0  0  0  0  0  0  0  0  0  0  0
   33.7830   32.4840   37.3120 C   0  0  0  0  0  0  0  0  0  0  0  0
   33.4770   33.1110   38.1450 H   0  0  0  0  0  0  0  0  0  0  0  0
   35.0890   32.1260   37.1710 N   0  0  0  0  0  0  0  0  0  0  0  0
   35.9710   32.3180   37.7150 H   0  0  0  0  0  0  0  0  0  0  0  0
   35.2010   31.3590   36.0750 N   0  0  0  0  0  0  0  0  0  0  0  0
   36.4280   23.8540   31.1760 C   0  0  2  0  0  0  0  0  0  0  0  0
   37.7360   24.0970   30.5120 C   0  0  0  0  0  0  0  0  0  0  0  0
   37.2820   24.8070   31.8060 C   0  0  1  0  0  0  0  0  0  0  0  0
   35.5630   24.1680   30.5580 H   0  0  0  0  0  0  0  0  0  0  0  0
   37.7970   24.6910   29.6020 H   0  0  0  0  0  0  0  0  0  0  0  0
   38.4830   23.2860   30.5950 H   0  0  0  0  0  0  0  0  0  0  0  0
   37.9070   24.4920   32.6940 H   0  0  0  0  0  0  0  0  0  0  0  0
   36.5350   21.0990   33.6730 C   0  0  0  0  0  0  0  0  0  0  0  0
   35.6390   20.1560   33.1050 C   0  0  0  0  0  0  0  0  0  0  0  0
   35.0090   20.4850   31.8460 C   0  0  0  0  0  0  0  0  0  0  0  0
   35.2940   21.6860   31.2450 N   0  0  0  0  0  0  0  0  0  0  0  0
   36.1650   22.5300   31.8600 C   0  0  0  0  0  0  0  0  0  0  0  0
   36.8050   22.2770   33.0680 N   0  0  0  0  0  0  0  0  0  0  0  0
   36.9830   20.8120   34.6140 H   0  0  0  0  0  0  0  0  0  0  0  0
   35.4300   19.2310   33.5870 H   0  0  0  0  0  0  0  0  0  0  0  0
   34.3240   19.7730   31.4060 H   0  0  0  0  0  0  0  0  0  0  0  0
  1  2  2  0  0  0  0
  3 25  1  0  0  0  0
  3  1  1  0  0  0  0
  4  3  1  0  0  0  0
  5  1  1  0  0  0  0
  5 10  1  0  0  0  0
  6  5  2  0  0  0  0
  7  6  1  0  0  0  0
  7  8  2  0  0  0  0
  8  9  1  0  0  0  0
  9 10  2  0  0  0  0
  9 14  1  0  0  0  0
 11  6  1  0  0  0  0
 12  7  1  0  0  0  0
 13  8  1  0  0  0  0
 14 16  1  0  0  0  0
 15 14  2  0  0  0  0
 16 22  2  0  0  0  0
 16 17  1  0  0  0  0
 17 18  2  0  0  0  0
 18 19  1  0  0  0  0
 20 18  1  0  0  0  0
 20 21  1  0  0  0  0
 22 20  1  0  0  0  0
 23 26  1  6  0  0  0
 23 25  1  0  0  0  0
 23 34  1  0  0  0  0
 24 28  1  0  0  0  0
 24 23  1  0  0  0  0
 24 25  1  0  0  0  0
 25 29  1  1  0  0  0
 27 24  1  0  0  0  0
 30 36  1  0  0  0  0
 31 37  1  0  0  0  0
 31 30  1  0  0  0  0
 32 31  2  0  0  0  0
 33 32  1  0  0  0  0
 33 34  2  0  0  0  0
 34 35  1  0  0  0  0
 35 30  2  0  0  0  0
 38 32  1  0  0  0  0
M  END
>  <minimizedAffinity>
-5.43514585

$$$$

 OpenBabel03272508593D

 38 41  0  0  1  0  0  0  0  0999 V2000
   38.2190   26.9580   34.7310 C   0  0  0  0  0  0  0  0  0  0  0  0
   37.7950   26.2610   35.6650 O   0  0  0  0  0  0  0  0  0  0  0  0
   39.6500   27.0970   34.4900 N   0  0  0  0  0  0  0  0  0  0  0  0
   40.0550   27.8060   33.8700 H   0  0  0  0  0  0  0  0  0  0  0  0
   37.3070   27.6860   33.8110 C   0  0  0  0  0  0  0  0  0  0  0  0
   37.5490   27.6390   32.4660 C   0  0  0  0  0  0  0  0  0  0  0  0
   36.6770   28.3330   31.6400 C   0  0  0  0  0  0  0  0  0  0  0  0
   35.6300   29.0180   32.2310 C   0  0  0  0  0  0  0  0  0  0  0  0
   35.3910   29.0600   33.5910 C   0  0  0  0  0  0  0  0  0  0  0  0
   36.2670   28.3690   34.3620 N   0  0  0  0  0  0  0  0  0  0  0  0
   38.3810   27.0900   32.0450 H   0  0  0  0  0  0  0  0  0  0  0  0
   36.8150   28.3350   30.5730 H   0  0  0  0  0  0  0  0  0  0  0  0
   34.9690   29.5490   31.5380 H   0  0  0  0  0  0  0  0  0  0  0  0
   34.2670   29.7920   34.1490 C   0  0  0  0  0  0  0  0  0  0  0  0
   33.1290   29.6530   33.6440 O   0  0  0  0  0  0  0  0  0  0  0  0
   34.4570   30.6840   35.2890 C   0  0  0  0  0  0  0  0  0  0  0  0
   33.5030   31.0890   36.1440 N   0  0  0  0  0  0  0  0  0  0  0  0
   34.0600   31.9160   37.0780 C   0  0  0  0  0  0  0  0  0  0  0  0
   33.6650   32.4550   37.9340 H   0  0  0  0  0  0  0  0  0  0  0  0
   35.3820   32.0040   36.7670 N   0  0  0  0  0  0  0  0  0  0  0  0
   36.2070   32.5110   37.1810 H   0  0  0  0  0  0  0  0  0  0  0  0
   35.6110   31.2510   35.6790 N   0  0  0  0  0  0  0  0  0  0  0  0
   40.7750   24.8830   34.6210 C   0  0  2  0  0  0  0  0  0  0  0  0
   41.8430   25.8970   34.4140 C   0  0  0  0  0  0  0  0  0  0  0  0
   40.5270   26.1760   35.1700 C   0  0  1  0  0  0  0  0  0  0  0  0
   40.3010   24.5540   33.6750 H   0  0  0  0  0  0  0  0  0  0  0  0
   41.9820   26.3700   33.4440 H   0  0  0  0  0  0  0  0  0  0  0  0
   42.7670   25.7580   35.0060 H   0  0  0  0  0  0  0  0  0  0  0  0
   40.7100   26.3570   36.2710 H   0  0  0  0  0  0  0  0  0  0  0  0
   42.4300   22.0250   36.3310 C   0  0  0  0  0  0  0  0  0  0  0  0
   41.4460   21.6450   37.2810 C   0  0  0  0  0  0  0  0  0  0  0  0
   40.2040   22.3840   37.3110 C   0  0  0  0  0  0  0  0  0  0  0  0
   40.0170   23.4210   36.4300 N   0  0  0  0  0  0  0  0  0  0  0  0
   41.0130   23.7170   35.5540 C   0  0  0  0  0  0  0  0  0  0  0  0
   42.2290   23.0470   35.4710 N   0  0  0  0  0  0  0  0  0  0  0  0
   43.3410   21.4450   36.3440 H   0  0  0  0  0  0  0  0  0  0  0  0
   41.6090   20.8390   37.9560 H   0  0  0  0  0  0  0  0  0  0  0  0
   39.4480   22.1020   38.0310 H   0  0  0  0  0  0  0  0  0  0  0  0
  1  2  2  0  0  0  0
  3  1  1  0  0  0  0
  3 25  1  0  0  0  0
  4  3  1  0  0  0  0
  5 10  1  0  0  0  0
  5  1  1  0  0  0  0
  6  5  2  0  0  0  0
  7  8  2  0  0  0  0
  7  6  1  0  0  0  0
  8  9  1  0  0  0  0
  9 14  1  0  0  0  0
  9 10  2  0  0  0  0
 11  6  1  0  0  0  0
 12  7  1  0  0  0  0
 13  8  1  0  0  0  0
 14 16  1  0  0  0  0
 15 14  2  0  0  0  0
 16 22  2  0  0  0  0
 16 17  1  0  0  0  0
 17 18  2  0  0  0  0
 18 19  1  0  0  0  0
 20 18  1  0  0  0  0
 20 21  1  0  0  0  0
 22 20  1  0  0  0  0
 23 26  1  6  0  0  0
 23 25  1  0  0  0  0
 23 34  1  0  0  0  0
 24 23  1  0  0  0  0
 24 28  1  0  0  0  0
 24 25  1  0  0  0  0
 25 29  1  1  0  0  0
 27 24  1  0  0  0  0
 30 36  1  0  0  0  0
 30 31  1  0  0  0  0
 31 32  2  0  0  0  0
 31 37  1  0  0  0  0
 32 38  1  0  0  0  0
 33 32  1  0  0  0  0
 34 33  2  0  0  0  0
 35 34  1  0  0  0  0
 35 30  2  0  0  0  0
M  END
>  <minimizedAffinity>
-5.42974854

$$$$

 OpenBabel03272508593D

 38 41  0  0  1  0  0  0  0  0999 V2000
   36.7870   27.7360   32.7950 C   0  0  0  0  0  0  0  0  0  0  0  0
   35.7350   28.3910   32.8480 O   0  0  0  0  0  0  0  0  0  0  0  0
   37.4910   27.5520   31.5320 N   0  0  0  0  0  0  0  0  0  0  0  0
   38.2400   26.8670   31.3950 H   0  0  0  0  0  0  0  0  0  0  0  0
   37.3870   27.1060   33.9990 C   0  0  0  0  0  0  0  0  0  0  0  0
   37.7180   27.8970   35.0640 C   0  0  0  0  0  0  0  0  0  0  0  0
   38.2780   27.2730   36.1690 C   0  0  0  0  0  0  0  0  0  0  0  0
   38.4600   25.9020   36.1170 C   0  0  0  0  0  0  0  0  0  0  0  0
   38.1220   25.1090   35.0380 C   0  0  0  0  0  0  0  0  0  0  0  0
   37.5790   25.7590   33.9790 N   0  0  0  0  0  0  0  0  0  0  0  0
   37.5590   28.9680   35.0630 H   0  0  0  0  0  0  0  0  0  0  0  0
   38.5600   27.8420   37.0370 H   0  0  0  0  0  0  0  0  0  0  0  0
   38.9050   25.4560   37.0120 H   0  0  0  0  0  0  0  0  0  0  0  0
   38.3320   23.6710   35.0490 C   0  0  0  0  0  0  0  0  0  0  0  0
   37.8060   22.9660   34.1560 O   0  0  0  0  0  0  0  0  0  0  0  0
   39.1470   23.0490   36.0870 C   0  0  0  0  0  0  0  0  0  0  0  0
   40.3300   22.4380   35.9050 N   0  0  0  0  0  0  0  0  0  0  0  0
   40.7880   21.9810   37.1070 C   0  0  0  0  0  0  0  0  0  0  0  0
   41.6810   21.4440   37.4160 H   0  0  0  0  0  0  0  0  0  0  0  0
   39.8490   22.3310   38.0290 N   0  0  0  0  0  0  0  0  0  0  0  0
   39.7520   22.2030   39.0700 H   0  0  0  0  0  0  0  0  0  0  0  0
   38.8580   22.9790   37.3980 N   0  0  0  0  0  0  0  0  0  0  0  0
   37.9130   29.4930   30.0360 C   0  0  2  0  0  0  0  0  0  0  0  0
   38.0170   28.2710   29.1950 C   0  0  0  0  0  0  0  0  0  0  0  0
   37.0970   28.3910   30.4280 C   0  0  1  0  0  0  0  0  0  0  0  0
   38.8560   29.7350   30.5670 H   0  0  0  0  0  0  0  0  0  0  0  0
   38.8830   27.6160   29.2690 H   0  0  0  0  0  0  0  0  0  0  0  0
   37.5580   28.3310   28.1910 H   0  0  0  0  0  0  0  0  0  0  0  0
   36.0040   28.3770   30.1340 H   0  0  0  0  0  0  0  0  0  0  0  0
   36.8690   32.1600   27.6630 C   0  0  0  0  0  0  0  0  0  0  0  0
   36.0280   32.9620   28.4770 C   0  0  0  0  0  0  0  0  0  0  0  0
   35.8390   32.5710   29.8560 C   0  0  0  0  0  0  0  0  0  0  0  0
   36.4710   31.4480   30.3300 N   0  0  0  0  0  0  0  0  0  0  0  0
   37.2590   30.7380   29.4790 C   0  0  0  0  0  0  0  0  0  0  0  0
   37.4850   31.0580   28.1450 N   0  0  0  0  0  0  0  0  0  0  0  0
   36.9830   32.4890   26.6390 H   0  0  0  0  0  0  0  0  0  0  0  0
   35.5460   33.8290   28.0920 H   0  0  0  0  0  0  0  0  0  0  0  0
   35.1990   33.1760   30.4850 H   0  0  0  0  0  0  0  0  0  0  0  0
  1  2  2  0  0  0  0
  1  5  1  0  0  0  0
  3  1  1  0  0  0  0
  4  3  1  0  0  0  0
  5  6  1  0  0  0  0
  6  7  2  0  0  0  0
  7 12  1  0  0  0  0
  8  7  1  0  0  0  0
  8 13  1  0  0  0  0
  9 14  1  0  0  0  0
  9  8  2  0  0  0  0
 10  5  2  0  0  0  0
 10  9  1  0  0  0  0
 11  6  1  0  0  0  0
 14 16  1  0  0  0  0
 15 14  2  0  0  0  0
 16 22  2  0  0  0  0
 17 16  1  0  0  0  0
 17 18  2  0  0  0  0
 18 19  1  0  0  0  0
 18 20  1  0  0  0  0
 20 21  1  0  0  0  0
 22 20  1  0  0  0  0
 23 25  1  0  0  0  0
 23 26  1  1  0  0  0
 24 27  1  0  0  0  0
 24 23  1  0  0  0  0
 24 25  1  0  0  0  0
 25 29  1  6  0  0  0
 25  3  1  0  0  0  0
 28 24  1  0  0  0  0
 30 35  2  0  0  0  0
 30 31  1  0  0  0  0
 31 32  2  0  0  0  0
 32 33  1  0  0  0  0
 32 38  1  0  0  0  0
 34 23  1  0  0  0  0
 34 33  2  0  0  0  0
 35 34  1  0  0  0  0
 36 30  1  0  0  0  0
 37 31  1  0  0  0  0
M  END
>  <minimizedAffinity>
-5.35456324

$$$$

 OpenBabel03272508593D

 38 41  0  0  1  0  0  0  0  0999 V2000
   36.1390   28.9140   34.5750 C   0  0  0  0  0  0  0  0  0  0  0  0
   36.6500   29.5790   35.4890 O   0  0  0  0  0  0  0  0  0  0  0  0
   36.6870   27.6180   34.1950 N   0  0  0  0  0  0  0  0  0  0  0  0
   36.4350   27.1260   33.3320 H   0  0  0  0  0  0  0  0  0  0  0  0
   34.9520   29.3920   33.8190 C   0  0  0  0  0  0  0  0  0  0  0  0
   35.1350   29.9470   32.5830 C   0  0  0  0  0  0  0  0  0  0  0  0
   34.0030   30.3830   31.9090 C   0  0  0  0  0  0  0  0  0  0  0  0
   32.7770   30.2240   32.5310 C   0  0  0  0  0  0  0  0  0  0  0  0
   32.6000   29.6610   33.7790 C   0  0  0  0  0  0  0  0  0  0  0  0
   33.7310   29.2500   34.4030 N   0  0  0  0  0  0  0  0  0  0  0  0
   36.1130   30.0530   32.1330 H   0  0  0  0  0  0  0  0  0  0  0  0
   34.0820   30.8300   30.9340 H   0  0  0  0  0  0  0  0  0  0  0  0
   31.9140   30.5830   31.9600 H   0  0  0  0  0  0  0  0  0  0  0  0
   31.2820   29.5160   34.3750 C   0  0  0  0  0  0  0  0  0  0  0  0
   30.2780   29.9470   33.7600 O   0  0  0  0  0  0  0  0  0  0  0  0
   31.1230   28.8750   35.6760 C   0  0  0  0  0  0  0  0  0  0  0  0
   30.9000   27.5680   35.8920 N   0  0  0  0  0  0  0  0  0  0  0  0
   30.8080   27.3450   37.2360 C   0  0  0  0  0  0  0  0  0  0  0  0
   30.6390   26.4580   37.8400 H   0  0  0  0  0  0  0  0  0  0  0  0
   30.9810   28.5550   37.8340 N   0  0  0  0  0  0  0  0  0  0  0  0
   30.9940   28.8920   38.8320 H   0  0  0  0  0  0  0  0  0  0  0  0
   31.1710   29.4770   36.8770 N   0  0  0  0  0  0  0  0  0  0  0  0
   38.2090   25.7430   34.7890 C   0  0  2  0  0  0  0  0  0  0  0  0
   39.0680   26.9300   34.5320 C   0  0  0  0  0  0  0  0  0  0  0  0
   37.6340   27.0120   35.0980 C   0  0  1  0  0  0  0  0  0  0  0  0
   37.9410   25.1940   33.8640 H   0  0  0  0  0  0  0  0  0  0  0  0
   39.2350   27.2870   33.5180 H   0  0  0  0  0  0  0  0  0  0  0  0
   39.9140   27.0780   35.2280 H   0  0  0  0  0  0  0  0  0  0  0  0
   37.6300   27.3740   36.1690 H   0  0  0  0  0  0  0  0  0  0  0  0
   39.8720   23.0420   36.7310 C   0  0  0  0  0  0  0  0  0  0  0  0
   39.1950   23.1200   37.9760 C   0  0  0  0  0  0  0  0  0  0  0  0
   38.1520   24.1100   38.1260 C   0  0  0  0  0  0  0  0  0  0  0  0
   37.8540   24.9370   37.0720 N   0  0  0  0  0  0  0  0  0  0  0  0
   38.5530   24.7930   35.9140 C   0  0  0  0  0  0  0  0  0  0  0  0
   39.5650   23.8630   35.7030 N   0  0  0  0  0  0  0  0  0  0  0  0
   40.6430   22.2880   36.6630 H   0  0  0  0  0  0  0  0  0  0  0  0
   39.4420   22.4700   38.7820 H   0  0  0  0  0  0  0  0  0  0  0  0
   37.6310   24.1770   39.0710 H   0  0  0  0  0  0  0  0  0  0  0  0
  1  2  2  0  0  0  0
  3  1  1  0  0  0  0
  3 25  1  0  0  0  0
  4  3  1  0  0  0  0
  5 10  1  0  0  0  0
  5  1  1  0  0  0  0
  6  5  2  0  0  0  0
  7  8  2  0  0  0  0
  7  6  1  0  0  0  0
  8  9  1  0  0  0  0
  9 14  1  0  0  0  0
  9 10  2  0  0  0  0
 11  6  1  0  0  0  0
 12  7  1  0  0  0  0
 13  8  1  0  0  0  0
 14 16  1  0  0  0  0
 15 14  2  0  0  0  0
 16 17  1  0  0  0  0
 16 22  2  0  0  0  0
 17 18  2  0  0  0  0
 18 20  1  0  0  0  0
 18 19  1  0  0  0  0
 20 21  1  0  0  0  0
 22 20  1  0  0  0  0
 23 26  1  6  0  0  0
 23 25  1  0  0  0  0
 23 34  1  0  0  0  0
 24 23  1  0  0  0  0
 24 25  1  0  0  0  0
 24 28  1  0  0  0  0
 25 29  1  1  0  0  0
 27 24  1  0  0  0  0
 30 31  1  0  0  0  0
 31 32  2  0  0  0  0
 31 37  1  0  0  0  0
 32 38  1  0  0  0  0
 33 32  1  0  0  0  0
 34 33  2  0  0  0  0
 35 34  1  0  0  0  0
 35 30  2  0  0  0  0
 36 30  1  0  0  0  0
M  END
>  <minimizedAffinity>
-5.30883598

$$$$
