
 OpenBabel03272507383D

 21 22  0  0  0  0  0  0  0  0999 V2000
   39.5570   23.9120   35.6940 C   0  0  0  0  0  0  0  0  0  0  0  0
   39.4700   23.0880   36.8140 C   0  0  0  0  0  0  0  0  0  0  0  0
   40.6160   22.5600   37.3610 C   0  0  0  0  0  0  0  0  0  0  0  0
   41.8090   22.8700   36.7720 N   0  0  0  0  0  0  0  0  0  0  0  0
   41.8830   23.6680   35.6890 C   0  0  0  0  0  0  0  0  0  0  0  0
   40.7700   24.1850   35.1530 N   0  0  0  0  0  0  0  0  0  0  0  0
   40.6020   21.9090   38.2390 H   0  0  0  0  0  0  0  0  0  0  0  0
   42.8160   23.9250   35.2100 H   0  0  0  0  0  0  0  0  0  0  0  0
   37.7370   23.5950   38.4500 C   0  0  0  0  0  0  0  0  0  0  0  0
   38.0590   24.7170   38.9650 O   0  0  0  0  0  0  0  0  0  0  0  0
   38.2730   22.7410   37.4540 N   0  0  0  0  0  0  0  0  0  0  0  0
   36.8140   23.3730   39.0110 H   0  0  0  0  0  0  0  0  0  0  0  0
   37.6770   21.8870   37.2940 H   0  0  0  0  0  0  0  0  0  0  0  0
   38.3320   24.3590   35.2690 O   0  0  0  0  0  0  0  0  0  0  0  0
   38.0670   25.7220   35.3280 C   0  0  0  0  0  0  0  0  0  0  0  0
   37.2120   26.3470   34.4680 N   0  0  0  0  0  0  0  0  0  0  0  0
   37.2000   27.6550   34.8170 C   0  0  0  0  0  0  0  0  0  0  0  0
   36.6710   28.5280   34.4190 H   0  0  0  0  0  0  0  0  0  0  0  0
   38.0370   27.7990   35.8690 N   0  0  0  0  0  0  0  0  0  0  0  0
   38.2760   28.6630   36.4000 H   0  0  0  0  0  0  0  0  0  0  0  0
   38.5670   26.6310   36.1860 N   0  0  0  0  0  0  0  0  0  0  0  0
  1  2  1  0  0  0  0
  2  3  2  0  0  0  0
  2 11  1  0  0  0  0
  3  7  1  0  0  0  0
  4  3  1  0  0  0  0
  5  4  2  0  0  0  0
  6  5  1  0  0  0  0
  6  1  2  0  0  0  0
  8  5  1  0  0  0  0
  9 10  2  0  0  0  0
  9 12  1  0  0  0  0
 11  9  1  0  0  0  0
 13 11  1  0  0  0  0
 14 15  1  0  0  0  0
 14  1  1  0  0  0  0
 15 21  2  0  0  0  0
 16 17  2  0  0  0  0
 16 15  1  0  0  0  0
 17 19  1  0  0  0  0
 18 17  1  0  0  0  0
 19 21  1  0  0  0  0
 19 20  1  0  0  0  0
M  END
>  <minimizedAffinity>
-4.46720076

$$$$

 OpenBabel03272507383D

 21 22  0  0  0  0  0  0  0  0999 V2000
   38.9950   23.9150   34.4290 C   0  0  0  0  0  0  0  0  0  0  0  0
   38.9700   25.2180   33.9390 C   0  0  0  0  0  0  0  0  0  0  0  0
   38.1540   25.5310   32.8780 C   0  0  0  0  0  0  0  0  0  0  0  0
   37.3910   24.5340   32.3400 N   0  0  0  0  0  0  0  0  0  0  0  0
   37.4210   23.2760   32.8210 C   0  0  0  0  0  0  0  0  0  0  0  0
   38.2140   22.9660   33.8540 N   0  0  0  0  0  0  0  0  0  0  0  0
   38.0980   26.5380   32.4560 H   0  0  0  0  0  0  0  0  0  0  0  0
   36.8260   22.4740   32.4100 H   0  0  0  0  0  0  0  0  0  0  0  0
   39.1650   27.1420   35.4220 C   0  0  0  0  0  0  0  0  0  0  0  0
   38.0490   27.2260   36.0350 O   0  0  0  0  0  0  0  0  0  0  0  0
   39.7320   26.2750   34.4540 N   0  0  0  0  0  0  0  0  0  0  0  0
   39.6970   28.0080   35.8510 H   0  0  0  0  0  0  0  0  0  0  0  0
   40.7240   26.5370   34.2140 H   0  0  0  0  0  0  0  0  0  0  0  0
   39.8550   23.7620   35.4860 O   0  0  0  0  0  0  0  0  0  0  0  0
   39.3220   23.4880   36.7390 C   0  0  0  0  0  0  0  0  0  0  0  0
   38.1140   23.9720   37.1510 N   0  0  0  0  0  0  0  0  0  0  0  0
   37.9190   23.5080   38.4080 C   0  0  0  0  0  0  0  0  0  0  0  0
   37.1050   23.6320   39.1310 H   0  0  0  0  0  0  0  0  0  0  0  0
   38.9970   22.7590   38.7330 N   0  0  0  0  0  0  0  0  0  0  0  0
   39.1930   22.2460   39.6170 H   0  0  0  0  0  0  0  0  0  0  0  0
   39.8530   22.7420   37.7260 N   0  0  0  0  0  0  0  0  0  0  0  0
  1 14  1  0  0  0  0
  2  1  1  0  0  0  0
  2 11  1  0  0  0  0
  3  2  2  0  0  0  0
  4  5  2  0  0  0  0
  4  3  1  0  0  0  0
  5  6  1  0  0  0  0
  6  1  2  0  0  0  0
  7  3  1  0  0  0  0
  8  5  1  0  0  0  0
  9 12  1  0  0  0  0
  9 10  2  0  0  0  0
 11  9  1  0  0  0  0
 13 11  1  0  0  0  0
 14 15  1  0  0  0  0
 15 16  1  0  0  0  0
 15 21  2  0  0  0  0
 16 17  2  0  0  0  0
 17 19  1  0  0  0  0
 17 18  1  0  0  0  0
 19 20  1  0  0  0  0
 21 19  1  0  0  0  0
M  END
>  <minimizedAffinity>
-4.1133728

$$$$

 OpenBabel03272507383D

 21 22  0  0  0  0  0  0  0  0999 V2000
   38.1630   24.9680   35.4010 C   0  0  0  0  0  0  0  0  0  0  0  0
   38.3340   25.1080   34.0260 C   0  0  0  0  0  0  0  0  0  0  0  0
   38.5420   26.3580   33.4900 C   0  0  0  0  0  0  0  0  0  0  0  0
   38.5700   27.4240   34.3420 N   0  0  0  0  0  0  0  0  0  0  0  0
   38.4040   27.2790   35.6710 C   0  0  0  0  0  0  0  0  0  0  0  0
   38.2020   26.0650   36.1980 N   0  0  0  0  0  0  0  0  0  0  0  0
   38.6820   26.5210   32.4180 H   0  0  0  0  0  0  0  0  0  0  0  0
   38.4230   28.1090   36.3610 H   0  0  0  0  0  0  0  0  0  0  0  0
   37.2110   23.9020   32.2320 C   0  0  0  0  0  0  0  0  0  0  0  0
   36.1310   24.5410   32.0010 O   0  0  0  0  0  0  0  0  0  0  0  0
   38.3140   24.0480   33.1100 N   0  0  0  0  0  0  0  0  0  0  0  0
   37.1170   23.0780   31.5040 H   0  0  0  0  0  0  0  0  0  0  0  0
   39.0410   23.2990   32.9700 H   0  0  0  0  0  0  0  0  0  0  0  0
   37.9680   23.6640   35.7800 O   0  0  0  0  0  0  0  0  0  0  0  0
   38.9530   23.0400   36.5340 C   0  0  0  0  0  0  0  0  0  0  0  0
   39.9270   22.2610   35.9790 N   0  0  0  0  0  0  0  0  0  0  0  0
   40.7010   21.8230   37.0000 C   0  0  0  0  0  0  0  0  0  0  0  0
   41.5880   21.1810   37.0410 H   0  0  0  0  0  0  0  0  0  0  0  0
   40.1920   22.3380   38.1420 N   0  0  0  0  0  0  0  0  0  0  0  0
   40.5270   22.2160   39.1200 H   0  0  0  0  0  0  0  0  0  0  0  0
   39.1310   23.0770   37.8680 N   0  0  0  0  0  0  0  0  0  0  0  0
  1 14  1  0  0  0  0
  1  6  1  0  0  0  0
  2  1  2  0  0  0  0
  3  2  1  0  0  0  0
  3  4  2  0  0  0  0
  4  5  1  0  0  0  0
  5  6  2  0  0  0  0
  5  8  1  0  0  0  0
  7  3  1  0  0  0  0
  9 11  1  0  0  0  0
 10  9  2  0  0  0  0
 11  2  1  0  0  0  0
 12  9  1  0  0  0  0
 13 11  1  0  0  0  0
 14 15  1  0  0  0  0
 15 21  2  0  0  0  0
 16 15  1  0  0  0  0
 16 17  2  0  0  0  0
 17 18  1  0  0  0  0
 17 19  1  0  0  0  0
 19 20  1  0  0  0  0
 21 19  1  0  0  0  0
M  END
>  <minimizedAffinity>
-4.05264711

$$$$

 OpenBabel03272507383D

 21 22  0  0  0  0  0  0  0  0999 V2000
   38.5820   25.5030   35.2200 C   0  0  0  0  0  0  0  0  0  0  0  0
   37.8360   25.3690   34.0530 C   0  0  0  0  0  0  0  0  0  0  0  0
   37.1210   26.4430   33.5750 C   0  0  0  0  0  0  0  0  0  0  0  0
   37.1740   27.6120   34.2790 N   0  0  0  0  0  0  0  0  0  0  0  0
   37.8980   27.7320   35.4090 C   0  0  0  0  0  0  0  0  0  0  0  0
   38.5960   26.6900   35.8770 N   0  0  0  0  0  0  0  0  0  0  0  0
   36.5200   26.3910   32.6640 H   0  0  0  0  0  0  0  0  0  0  0  0
   37.9530   28.6470   35.9790 H   0  0  0  0  0  0  0  0  0  0  0  0
   38.5630   24.0400   32.1440 C   0  0  0  0  0  0  0  0  0  0  0  0
   39.4610   24.7320   31.5570 O   0  0  0  0  0  0  0  0  0  0  0  0
   37.7490   24.1940   33.2940 N   0  0  0  0  0  0  0  0  0  0  0  0
   38.5300   23.1550   31.4880 H   0  0  0  0  0  0  0  0  0  0  0  0
   37.1300   23.3580   33.4640 H   0  0  0  0  0  0  0  0  0  0  0  0
   39.2370   24.3480   35.5660 O   0  0  0  0  0  0  0  0  0  0  0  0
   38.9380   23.7570   36.7870 C   0  0  0  0  0  0  0  0  0  0  0  0
   37.7200   23.8830   37.3900 N   0  0  0  0  0  0  0  0  0  0  0  0
   37.7880   23.1850   38.5490 C   0  0  0  0  0  0  0  0  0  0  0  0
   37.0670   23.0020   39.3520 H   0  0  0  0  0  0  0  0  0  0  0  0
   39.0290   22.6550   38.6270 N   0  0  0  0  0  0  0  0  0  0  0  0
   39.4390   22.0590   39.3770 H   0  0  0  0  0  0  0  0  0  0  0  0
   39.7330   22.9970   37.5620 N   0  0  0  0  0  0  0  0  0  0  0  0
  1 14  1  0  0  0  0
  1  6  1  0  0  0  0
  2  1  2  0  0  0  0
  3  2  1  0  0  0  0
  3  4  2  0  0  0  0
  4  5  1  0  0  0  0
  5  6  2  0  0  0  0
  5  8  1  0  0  0  0
  7  3  1  0  0  0  0
  9 11  1  0  0  0  0
 10  9  2  0  0  0  0
 11 13  1  0  0  0  0
 11  2  1  0  0  0  0
 12  9  1  0  0  0  0
 14 15  1  0  0  0  0
 15 16  1  0  0  0  0
 15 21  2  0  0  0  0
 16 17  2  0  0  0  0
 17 19  1  0  0  0  0
 17 18  1  0  0  0  0
 19 20  1  0  0  0  0
 21 19  1  0  0  0  0
M  END
>  <minimizedAffinity>
-4.02083778

$$$$

 OpenBabel03272507383D

 21 22  0  0  0  0  0  0  0  0999 V2000
   40.4730   24.6950   34.9410 C   0  0  0  0  0  0  0  0  0  0  0  0
   39.9780   25.8400   34.3210 C   0  0  0  0  0  0  0  0  0  0  0  0
   40.8430   26.8470   33.9610 C   0  0  0  0  0  0  0  0  0  0  0  0
   42.1710   26.6780   34.2310 N   0  0  0  0  0  0  0  0  0  0  0  0
   42.6400   25.5670   34.8320 C   0  0  0  0  0  0  0  0  0  0  0  0
   41.8020   24.5840   35.1840 N   0  0  0  0  0  0  0  0  0  0  0  0
   40.5060   27.7640   33.4720 H   0  0  0  0  0  0  0  0  0  0  0  0
   43.6860   25.4150   35.0530 H   0  0  0  0  0  0  0  0  0  0  0  0
   37.8490   26.8910   34.8670 C   0  0  0  0  0  0  0  0  0  0  0  0
   38.0580   27.5810   35.9190 O   0  0  0  0  0  0  0  0  0  0  0  0
   38.6270   26.0610   34.0220 N   0  0  0  0  0  0  0  0  0  0  0  0
   36.7750   27.0890   34.7060 H   0  0  0  0  0  0  0  0  0  0  0  0
   38.0720   25.6780   33.2120 H   0  0  0  0  0  0  0  0  0  0  0  0
   39.4890   23.7860   35.2370 O   0  0  0  0  0  0  0  0  0  0  0  0
   39.1960   23.5410   36.5730 C   0  0  0  0  0  0  0  0  0  0  0  0
   38.1420   24.1220   37.2180 N   0  0  0  0  0  0  0  0  0  0  0  0
   38.1630   23.6590   38.4890 C   0  0  0  0  0  0  0  0  0  0  0  0
   37.5250   23.8420   39.3600 H   0  0  0  0  0  0  0  0  0  0  0  0
   39.2140   22.8150   38.5940 N   0  0  0  0  0  0  0  0  0  0  0  0
   39.5380   22.2740   39.4220 H   0  0  0  0  0  0  0  0  0  0  0  0
   39.8460   22.7380   37.4350 N   0  0  0  0  0  0  0  0  0  0  0  0
  1  6  1  0  0  0  0
  1 14  1  0  0  0  0
  2  1  2  0  0  0  0
  3  4  2  0  0  0  0
  3  2  1  0  0  0  0
  4  5  1  0  0  0  0
  5  8  1  0  0  0  0
  5  6  2  0  0  0  0
  7  3  1  0  0  0  0
  9 10  2  0  0  0  0
 11  2  1  0  0  0  0
 11  9  1  0  0  0  0
 12  9  1  0  0  0  0
 13 11  1  0  0  0  0
 14 15  1  0  0  0  0
 15 16  1  0  0  0  0
 15 21  2  0  0  0  0
 16 17  2  0  0  0  0
 17 19  1  0  0  0  0
 17 18  1  0  0  0  0
 19 20  1  0  0  0  0
 21 19  1  0  0  0  0
M  END
>  <minimizedAffinity>
-3.99877119

$$$$

 OpenBabel03272507383D

 21 22  0  0  0  0  0  0  0  0999 V2000
   37.4910   22.1340   34.7760 C   0  0  0  0  0  0  0  0  0  0  0  0
   37.2940   22.0190   33.4030 C   0  0  0  0  0  0  0  0  0  0  0  0
   36.2880   21.2120   32.9250 C   0  0  0  0  0  0  0  0  0  0  0  0
   35.5140   20.5470   33.8320 N   0  0  0  0  0  0  0  0  0  0  0  0
   35.7130   20.6640   35.1600 C   0  0  0  0  0  0  0  0  0  0  0  0
   36.6900   21.4480   35.6300 N   0  0  0  0  0  0  0  0  0  0  0  0
   36.0910   21.0880   31.8570 H   0  0  0  0  0  0  0  0  0  0  0  0
   35.1110   20.1470   35.8930 H   0  0  0  0  0  0  0  0  0  0  0  0
   37.5900   23.8980   31.8800 C   0  0  0  0  0  0  0  0  0  0  0  0
   36.5750   24.6520   32.0530 O   0  0  0  0  0  0  0  0  0  0  0  0
   38.0580   22.6790   32.4320 N   0  0  0  0  0  0  0  0  0  0  0  0
   38.1270   24.4580   31.0960 H   0  0  0  0  0  0  0  0  0  0  0  0
   38.9860   22.3850   32.0270 H   0  0  0  0  0  0  0  0  0  0  0  0
   38.5290   22.9730   35.0940 O   0  0  0  0  0  0  0  0  0  0  0  0
   39.2970   22.6790   36.2140 C   0  0  0  0  0  0  0  0  0  0  0  0
   40.4480   21.9480   36.1500 N   0  0  0  0  0  0  0  0  0  0  0  0
   40.9230   21.8630   37.4150 C   0  0  0  0  0  0  0  0  0  0  0  0
   41.8060   21.3820   37.8490 H   0  0  0  0  0  0  0  0  0  0  0  0
   40.0640   22.5350   38.2140 N   0  0  0  0  0  0  0  0  0  0  0  0
   40.1080   22.6810   39.2440 H   0  0  0  0  0  0  0  0  0  0  0  0
   39.0750   23.0340   37.4930 N   0  0  0  0  0  0  0  0  0  0  0  0
  1 14  1  0  0  0  0
  1  6  1  0  0  0  0
  2  1  2  0  0  0  0
  3  2  1  0  0  0  0
  3  4  2  0  0  0  0
  4  5  1  0  0  0  0
  5  6  2  0  0  0  0
  5  8  1  0  0  0  0
  7  3  1  0  0  0  0
  9 10  2  0  0  0  0
  9 11  1  0  0  0  0
 11  2  1  0  0  0  0
 12  9  1  0  0  0  0
 13 11  1  0  0  0  0
 14 15  1  0  0  0  0
 15 21  2  0  0  0  0
 16 15  1  0  0  0  0
 16 17  2  0  0  0  0
 17 18  1  0  0  0  0
 17 19  1  0  0  0  0
 19 20  1  0  0  0  0
 21 19  1  0  0  0  0
M  END
>  <minimizedAffinity>
-3.96972108

$$$$

 OpenBabel03272507383D

 21 22  0  0  0  0  0  0  0  0999 V2000
   39.5720   24.3080   35.3450 C   0  0  0  0  0  0  0  0  0  0  0  0
   38.5400   24.9170   36.0550 C   0  0  0  0  0  0  0  0  0  0  0  0
   38.4770   26.2890   36.1210 C   0  0  0  0  0  0  0  0  0  0  0  0
   39.4440   27.0070   35.4770 N   0  0  0  0  0  0  0  0  0  0  0  0
   40.4390   26.4090   34.7930 C   0  0  0  0  0  0  0  0  0  0  0  0
   40.5050   25.0730   34.7260 N   0  0  0  0  0  0  0  0  0  0  0  0
   37.6880   26.8150   36.6640 H   0  0  0  0  0  0  0  0  0  0  0  0
   41.2120   26.9590   34.2780 H   0  0  0  0  0  0  0  0  0  0  0  0
   37.6820   23.9190   38.1050 C   0  0  0  0  0  0  0  0  0  0  0  0
   38.5680   24.1340   38.9980 O   0  0  0  0  0  0  0  0  0  0  0  0
   37.5250   24.2270   36.7310 N   0  0  0  0  0  0  0  0  0  0  0  0
   36.9360   23.3580   38.6930 H   0  0  0  0  0  0  0  0  0  0  0  0
   36.6070   23.8820   36.3440 H   0  0  0  0  0  0  0  0  0  0  0  0
   39.4980   22.9380   35.3720 O   0  0  0  0  0  0  0  0  0  0  0  0
   40.4850   22.2360   36.0520 C   0  0  0  0  0  0  0  0  0  0  0  0
   41.6160   21.7740   35.4430 N   0  0  0  0  0  0  0  0  0  0  0  0
   42.3410   21.1450   36.3980 C   0  0  0  0  0  0  0  0  0  0  0  0
   43.3050   20.6260   36.3820 H   0  0  0  0  0  0  0  0  0  0  0  0
   41.6480   21.2360   37.5550 N   0  0  0  0  0  0  0  0  0  0  0  0
   41.8980   20.8690   38.4970 H   0  0  0  0  0  0  0  0  0  0  0  0
   40.5210   21.8970   37.3540 N   0  0  0  0  0  0  0  0  0  0  0  0
  1 14  1  0  0  0  0
  1  2  1  0  0  0  0
  2  3  2  0  0  0  0
  2 11  1  0  0  0  0
  3  7  1  0  0  0  0
  4  3  1  0  0  0  0
  5  4  2  0  0  0  0
  6  5  1  0  0  0  0
  6  1  2  0  0  0  0
  8  5  1  0  0  0  0
  9 12  1  0  0  0  0
  9 10  2  0  0  0  0
 11  9  1  0  0  0  0
 13 11  1  0  0  0  0
 14 15  1  0  0  0  0
 15 21  2  0  0  0  0
 16 15  1  0  0  0  0
 16 17  2  0  0  0  0
 17 19  1  0  0  0  0
 18 17  1  0  0  0  0
 19 20  1  0  0  0  0
 21 19  1  0  0  0  0
M  END
>  <minimizedAffinity>
-3.95660853

$$$$

 OpenBabel03272507383D

 21 22  0  0  0  0  0  0  0  0999 V2000
   39.6620   23.5630   35.5710 C   0  0  0  0  0  0  0  0  0  0  0  0
   39.5530   22.9060   36.7940 C   0  0  0  0  0  0  0  0  0  0  0  0
   40.6910   22.5280   37.4670 C   0  0  0  0  0  0  0  0  0  0  0  0
   41.8980   22.8150   36.8970 N   0  0  0  0  0  0  0  0  0  0  0  0
   41.9940   23.4500   35.7130 C   0  0  0  0  0  0  0  0  0  0  0  0
   40.8890   23.8210   35.0540 N   0  0  0  0  0  0  0  0  0  0  0  0
   40.6600   22.0110   38.4300 H   0  0  0  0  0  0  0  0  0  0  0  0
   42.9390   23.6860   35.2460 H   0  0  0  0  0  0  0  0  0  0  0  0
   37.7730   23.4970   38.3490 C   0  0  0  0  0  0  0  0  0  0  0  0
   38.0740   24.6500   38.8050 O   0  0  0  0  0  0  0  0  0  0  0  0
   38.3410   22.5890   37.4210 N   0  0  0  0  0  0  0  0  0  0  0  0
   36.8350   23.3020   38.8970 H   0  0  0  0  0  0  0  0  0  0  0  0
   37.7540   21.7230   37.2960 H   0  0  0  0  0  0  0  0  0  0  0  0
   38.4420   23.8750   35.0260 O   0  0  0  0  0  0  0  0  0  0  0  0
   37.9330   23.0520   34.0300 C   0  0  0  0  0  0  0  0  0  0  0  0
   37.3810   21.8310   34.2890 N   0  0  0  0  0  0  0  0  0  0  0  0
   36.9970   21.3180   33.0960 C   0  0  0  0  0  0  0  0  0  0  0  0
   36.5150   20.3770   32.8090 H   0  0  0  0  0  0  0  0  0  0  0  0
   37.3180   22.2250   32.1460 N   0  0  0  0  0  0  0  0  0  0  0  0
   37.1710   22.1720   31.1160 H   0  0  0  0  0  0  0  0  0  0  0  0
   37.8860   23.2790   32.7040 N   0  0  0  0  0  0  0  0  0  0  0  0
  1  2  1  0  0  0  0
  2 11  1  0  0  0  0
  2  3  2  0  0  0  0
  3  7  1  0  0  0  0
  4  3  1  0  0  0  0
  5  4  2  0  0  0  0
  6  1  2  0  0  0  0
  6  5  1  0  0  0  0
  8  5  1  0  0  0  0
  9 10  2  0  0  0  0
  9 12  1  0  0  0  0
 11  9  1  0  0  0  0
 13 11  1  0  0  0  0
 14  1  1  0  0  0  0
 15 16  1  0  0  0  0
 15 14  1  0  0  0  0
 17 16  2  0  0  0  0
 18 17  1  0  0  0  0
 19 21  1  0  0  0  0
 19 17  1  0  0  0  0
 20 19  1  0  0  0  0
 21 15  2  0  0  0  0
M  END
>  <minimizedAffinity>
-3.82455921

$$$$

 OpenBabel03272507383D

 21 22  0  0  0  0  0  0  0  0999 V2000
   37.5740   23.8180   32.9750 C   0  0  0  0  0  0  0  0  0  0  0  0
   37.0040   22.8520   32.1500 C   0  0  0  0  0  0  0  0  0  0  0  0
   36.0810   23.2260   31.2020 C   0  0  0  0  0  0  0  0  0  0  0  0
   35.7570   24.5490   31.1100 N   0  0  0  0  0  0  0  0  0  0  0  0
   36.3140   25.4770   31.9130 C   0  0  0  0  0  0  0  0  0  0  0  0
   37.2130   25.1180   32.8370 N   0  0  0  0  0  0  0  0  0  0  0  0
   35.6040   22.5070   30.5310 H   0  0  0  0  0  0  0  0  0  0  0  0
   36.0710   26.5270   31.8550 H   0  0  0  0  0  0  0  0  0  0  0  0
   36.4550   20.6100   32.9310 C   0  0  0  0  0  0  0  0  0  0  0  0
   35.3750   20.7270   33.6000 O   0  0  0  0  0  0  0  0  0  0  0  0
   37.3020   21.4840   32.2040 N   0  0  0  0  0  0  0  0  0  0  0  0
   36.6420   19.5280   33.0370 H   0  0  0  0  0  0  0  0  0  0  0  0
   38.1120   20.9790   31.7580 H   0  0  0  0  0  0  0  0  0  0  0  0
   38.4750   23.2900   33.8660 O   0  0  0  0  0  0  0  0  0  0  0  0
   38.1260   23.2440   35.2100 C   0  0  0  0  0  0  0  0  0  0  0  0
   38.3080   24.2980   36.0580 N   0  0  0  0  0  0  0  0  0  0  0  0
   37.8610   23.9000   37.2720 C   0  0  0  0  0  0  0  0  0  0  0  0
   37.8060   24.3970   38.2460 H   0  0  0  0  0  0  0  0  0  0  0  0
   37.4210   22.6280   37.1420 N   0  0  0  0  0  0  0  0  0  0  0  0
   37.0090   22.0020   37.8650 H   0  0  0  0  0  0  0  0  0  0  0  0
   37.5780   22.2230   35.8940 N   0  0  0  0  0  0  0  0  0  0  0  0
  1 14  1  0  0  0  0
  2 11  1  0  0  0  0
  2  1  2  0  0  0  0
  3  2  1  0  0  0  0
  4  3  2  0  0  0  0
  4  5  1  0  0  0  0
  5  6  2  0  0  0  0
  6  1  1  0  0  0  0
  7  3  1  0  0  0  0
  8  5  1  0  0  0  0
  9 12  1  0  0  0  0
  9 10  2  0  0  0  0
 11  9  1  0  0  0  0
 13 11  1  0  0  0  0
 14 15  1  0  0  0  0
 15 21  2  0  0  0  0
 15 16  1  0  0  0  0
 16 17  2  0  0  0  0
 17 18  1  0  0  0  0
 19 17  1  0  0  0  0
 19 20  1  0  0  0  0
 21 19  1  0  0  0  0
M  END
>  <minimizedAffinity>
-3.81621051

$$$$
