
 OpenBabel03272502273D

 38 41  0  0  0  0  0  0  0  0999 V2000
   37.6580   30.2050   51.0000 C   0  0  0  0  0  0  0  0  0  0  0  0
   38.1180   30.7770   49.8070 C   0  0  0  0  0  0  0  0  0  0  0  0
   37.4080   30.4980   48.6490 C   0  0  0  0  0  0  0  0  0  0  0  0
   36.3320   29.7010   48.7650 N   0  0  0  0  0  0  0  0  0  0  0  0
   35.9050   29.1600   49.9160 C   0  0  0  0  0  0  0  0  0  0  0  0
   36.5800   29.4190   51.0430 N   0  0  0  0  0  0  0  0  0  0  0  0
   38.2290   30.4360   51.8890 H   0  0  0  0  0  0  0  0  0  0  0  0
   38.9740   31.4100   49.7230 H   0  0  0  0  0  0  0  0  0  0  0  0
   37.7650   31.0260   47.3560 C   0  0  0  0  0  0  0  0  0  0  0  0
   37.0220   30.7070   46.2260 C   0  0  0  0  0  0  0  0  0  0  0  0
   37.3150   31.1860   44.9760 C   0  0  0  0  0  0  0  0  0  0  0  0
   38.3760   32.0060   44.8230 N   0  0  0  0  0  0  0  0  0  0  0  0
   39.0900   32.3080   45.9220 C   0  0  0  0  0  0  0  0  0  0  0  0
   38.8180   31.8510   47.1480 N   0  0  0  0  0  0  0  0  0  0  0  0
   36.1560   30.0480   46.3030 H   0  0  0  0  0  0  0  0  0  0  0  0
   36.7100   30.9130   44.1200 H   0  0  0  0  0  0  0  0  0  0  0  0
   40.2690   33.2110   45.7860 C   0  0  0  0  0  0  0  0  0  0  0  0
   40.3640   33.9520   46.9630 F   0  0  0  0  0  0  0  0  0  0  0  0
   41.4130   32.4820   45.5410 F   0  0  0  0  0  0  0  0  0  0  0  0
   40.0940   34.1200   44.7720 F   0  0  0  0  0  0  0  0  0  0  0  0
   34.7750   28.3610   49.8480 O   0  0  0  0  0  0  0  0  0  0  0  0
   33.6560   26.6540   46.7940 N   0  0  0  0  0  0  0  0  0  0  0  0
   34.2450   26.7820   47.9910 C   0  0  0  0  0  0  0  0  0  0  0  0
   34.2420   28.0010   48.6330 C   0  0  0  0  0  0  0  0  0  0  0  0
   33.6130   29.0840   48.0030 C   0  0  0  0  0  0  0  0  0  0  0  0
   33.4900   30.2790   48.4000 O   0  0  0  0  0  0  0  0  0  0  0  0
   33.0360   28.8850   46.7880 N   0  0  0  0  0  0  0  0  0  0  0  0
   33.0570   27.6850   46.1930 C   0  0  0  0  0  0  0  0  0  0  0  0
   32.5270   27.4730   45.0610 O   0  0  0  0  0  0  0  0  0  0  0  0
   33.7210   25.6910   46.4060 H   0  0  0  0  0  0  0  0  0  0  0  0
   34.7440   26.0120   48.5410 H   0  0  0  0  0  0  0  0  0  0  0  0
   32.3720   29.9050   46.0550 C   0  0  0  0  0  0  0  0  0  0  0  0
   32.5430   31.2100   45.7600 N   0  0  0  0  0  0  0  0  0  0  0  0
   31.5070   31.6060   44.9870 C   0  0  0  0  0  0  0  0  0  0  0  0
   31.4880   32.6210   44.6620 H   0  0  0  0  0  0  0  0  0  0  0  0
   30.7040   30.5400   44.8100 N   0  0  0  0  0  0  0  0  0  0  0  0
   29.8460   30.6550   44.2340 H   0  0  0  0  0  0  0  0  0  0  0  0
   31.2180   29.5010   45.4540 N   0  0  0  0  0  0  0  0  0  0  0  0
  1  6  1  0  0  0  0
  1  7  1  0  0  0  0
  2  1  2  0  0  0  0
  3  4  2  0  0  0  0
  3  2  1  0  0  0  0
  4  5  1  0  0  0  0
  5  6  2  0  0  0  0
  8  2  1  0  0  0  0
  9  3  1  0  0  0  0
 10 15  1  0  0  0  0
 10  9  2  0  0  0  0
 11 10  1  0  0  0  0
 12 11  2  0  0  0  0
 12 13  1  0  0  0  0
 13 14  2  0  0  0  0
 14  9  1  0  0  0  0
 16 11  1  0  0  0  0
 17 13  1  0  0  0  0
 17 18  1  0  0  0  0
 19 17  1  0  0  0  0
 20 17  1  0  0  0  0
 21  5  1  0  0  0  0
 22 23  1  0  0  0  0
 23 31  1  0  0  0  0
 23 24  2  0  0  0  0
 24 21  1  0  0  0  0
 25 26  2  0  0  0  0
 25 24  1  0  0  0  0
 27 25  1  0  0  0  0
 28 27  1  0  0  0  0
 28 22  1  0  0  0  0
 29 28  2  0  0  0  0
 30 22  1  0  0  0  0
 32 27  1  0  0  0  0
 33 32  1  0  0  0  0
 34 33  2  0  0  0  0
 35 34  1  0  0  0  0
 36 34  1  0  0  0  0
 36 38  1  0  0  0  0
 37 36  1  0  0  0  0
 38 32  2  0  0  0  0
M  END
>  <minimizedAffinity>
-6.61343145

>  <minimizedRMSD>
0.918955684

$$$$
