REMARK  Name = 
REMARK  3 active torsions:
REMARK  status: ('A' for Active; 'I' for Inactive)
REMARK    1  A    between atoms: C_1  and  C_7
REMARK    2  A    between atoms: C_6  and  N_15
REMARK    3  A    between atoms: C_13  and  C_30
REMARK                            x       y       z     vdW  Elec       q    Type
REMARK                         _______ _______ _______ _____ _____    ______ ____
ROOT
ATOM      1  C   UNL     1      36.075  30.690  49.067  0.00  0.00    +0.000 C 
ATOM      2  C   UNL     1      37.018  31.642  49.744  0.00  0.00    +0.000 C 
ATOM      3  C   UNL     1      38.051  30.936  50.597  0.00  0.00    +0.000 C 
ATOM      4  C   UNL     1      37.357  30.073  51.648  0.00  0.00    +0.000 C 
ATOM      5  C   UNL     1      36.114  29.381  51.148  0.00  0.00    +0.000 C 
ATOM      6  C   UNL     1      36.192  29.305  49.611  0.00  0.00    +0.000 C 
ATOM      7  H   UNL     1      34.989  30.973  49.175  0.00  0.00    +0.000 HD
ATOM      8  H   UNL     1      36.365  32.172  50.516  0.00  0.00    +0.000 HD
ATOM      9  H   UNL     1      37.431  32.433  49.148  0.00  0.00    +0.000 HD
ATOM     10  H   UNL     1      38.633  31.701  51.116  0.00  0.00    +0.000 HD
ATOM     11  H   UNL     1      38.719  30.277  50.028  0.00  0.00    +0.000 HD
ATOM     12  H   UNL     1      38.097  29.310  51.984  0.00  0.00    +0.000 HD
ATOM     13  H   UNL     1      37.167  30.712  52.519  0.00  0.00    +0.000 HD
ATOM     14  H   UNL     1      36.099  28.348  51.539  0.00  0.00    +0.000 HD
ATOM     15  H   UNL     1      35.235  29.932  51.490  0.00  0.00    +0.000 HD
ATOM     16  H   UNL     1      37.178  28.923  49.502  0.00  0.00    +0.000 HD
ENDROOT
BRANCH   1  17
ATOM     17  C   UNL     1      36.320  30.651  47.601  0.00  0.00    +0.000 A 
ATOM     18  C   UNL     1      37.575  31.118  47.181  0.00  0.00    +0.000 A 
ATOM     19  C   UNL     1      37.830  31.084  45.803  0.00  0.00    +0.000 A 
ATOM     20  N   UNL     1      36.852  30.602  44.960  0.00  0.00    +0.000 NA
ATOM     21  C   UNL     1      35.643  30.157  45.425  0.00  0.00    +0.000 A 
ATOM     22  N   UNL     1      35.398  30.190  46.746  0.00  0.00    +0.000 NA
ATOM     23  H   UNL     1      38.411  31.503  47.727  0.00  0.00    +0.000 HD
ATOM     24  H   UNL     1      38.739  31.408  45.341  0.00  0.00    +0.000 HD
ATOM     25  H   UNL     1      34.919  29.790  44.711  0.00  0.00    +0.000 HD
ENDBRANCH   1  17
BRANCH   6  28
ATOM     26  C   UNL     1      33.936  28.194  49.229  0.00  0.00    +0.000 C 
ATOM     27  O   UNL     1      33.116  28.865  49.952  0.00  0.00    +0.000 OA
ATOM     28  N   UNL     1      35.331  28.349  49.016  0.00  0.00    +0.000 N 
ATOM     29  H   UNL     1      35.716  27.637  48.315  0.00  0.00    +0.000 HD
BRANCH  26  30
ATOM     30  C   UNL     1      33.168  27.103  48.560  0.00  0.00    +0.000 A 
ATOM     31  N   UNL     1      31.952  26.665  48.860  0.00  0.00    +0.000 NA
ATOM     32  C   UNL     1      31.652  25.660  47.988  0.00  0.00    +0.000 A 
ATOM     33  H   UNL     1      30.720  25.119  48.001  0.00  0.00    +0.000 HD
ATOM     34  N   UNL     1      32.702  25.524  47.188  0.00  0.00    +0.000 N 
ATOM     35  H   UNL     1      32.812  24.837  46.393  0.00  0.00    +0.000 HD
ATOM     36  N   UNL     1      33.625  26.388  47.520  0.00  0.00    +0.000 NA
ENDBRANCH  26  30
ENDBRANCH   6  28
TORSDOF 3
