
 OpenBabel03272510133D

 39 42  0  0  0  0  0  0  0  0999 V2000
   38.3790   31.6100   48.8880 C   0  0  0  0  0  0  0  0  0  0  0  0
   38.5280   32.8610   49.4400 C   0  0  0  0  0  0  0  0  0  0  0  0
   39.1680   33.6540   48.4820 C   0  0  0  0  0  0  0  0  0  0  0  0
   39.3760   32.8770   47.4140 N   0  0  0  0  0  0  0  0  0  0  0  0
   38.9130   31.6940   47.6640 N   0  0  0  0  0  0  0  0  0  0  0  0
   38.2800   33.3330   50.3810 H   0  0  0  0  0  0  0  0  0  0  0  0
   39.4650   34.7050   48.5320 H   0  0  0  0  0  0  0  0  0  0  0  0
   40.0120   33.2780   46.1920 C   0  0  0  0  0  0  0  0  0  0  0  0
   40.7790   34.0340   46.4470 H   0  0  0  0  0  0  0  0  0  0  0  0
   39.3010   33.8340   45.5160 H   0  0  0  0  0  0  0  0  0  0  0  0
   40.5970   32.0910   45.5200 C   0  0  0  0  0  0  0  0  0  0  0  0
   41.7040   32.1510   45.6650 H   0  0  0  0  0  0  0  0  0  0  0  0
   40.3110   31.1980   46.1550 H   0  0  0  0  0  0  0  0  0  0  0  0
   40.3020   31.8600   44.1270 C   0  0  0  0  0  0  0  0  0  0  0  0
   40.6340   30.6950   43.4950 N   0  0  0  0  0  0  0  0  0  0  0  0
   40.2510   30.7230   42.2120 C   0  0  0  0  0  0  0  0  0  0  0  0
   40.3690   29.9610   41.4520 H   0  0  0  0  0  0  0  0  0  0  0  0
   39.6670   31.9140   42.0110 N   0  0  0  0  0  0  0  0  0  0  0  0
   39.2360   32.3320   41.1640 H   0  0  0  0  0  0  0  0  0  0  0  0
   39.7050   32.5710   43.1530 N   0  0  0  0  0  0  0  0  0  0  0  0
   37.7600   30.6860   49.7050 O   0  0  0  0  0  0  0  0  0  0  0  0
   34.1630   28.9280   48.4140 C   0  0  0  0  0  0  0  0  0  0  0  0
   34.8790   28.3960   49.4420 C   0  0  0  0  0  0  0  0  0  0  0  0
   36.0560   28.9160   49.9130 C   0  0  0  0  0  0  0  0  0  0  0  0
   36.5890   30.0320   49.3560 C   0  0  0  0  0  0  0  0  0  0  0  0
   35.8670   30.5900   48.3010 C   0  0  0  0  0  0  0  0  0  0  0  0
   34.7090   30.0530   47.8610 N   0  0  0  0  0  0  0  0  0  0  0  0
   34.5270   27.5080   49.9410 H   0  0  0  0  0  0  0  0  0  0  0  0
   36.6200   28.4810   50.7360 H   0  0  0  0  0  0  0  0  0  0  0  0
   36.2120   31.4880   47.7870 H   0  0  0  0  0  0  0  0  0  0  0  0
   32.0590   27.6200   48.6750 C   0  0  0  0  0  0  0  0  0  0  0  0
   32.9340   28.3960   47.9100 C   0  0  0  0  0  0  0  0  0  0  0  0
   32.5670   28.6430   46.6050 C   0  0  0  0  0  0  0  0  0  0  0  0
   31.3940   28.1350   46.1180 N   0  0  0  0  0  0  0  0  0  0  0  0
   30.5840   27.3890   46.9060 C   0  0  0  0  0  0  0  0  0  0  0  0
   30.9000   27.1160   48.1990 N   0  0  0  0  0  0  0  0  0  0  0  0
   32.3030   27.4010   49.7030 H   0  0  0  0  0  0  0  0  0  0  0  0
   33.2200   29.2440   45.9740 H   0  0  0  0  0  0  0  0  0  0  0  0
   29.6800   27.0390   46.4130 H   0  0  0  0  0  0  0  0  0  0  0  0
  1  2  1  0  0  0  0
  1 21  1  0  0  0  0
  2  6  1  0  0  0  0
  3  7  1  0  0  0  0
  3  2  2  0  0  0  0
  4  5  1  0  0  0  0
  4  3  1  0  0  0  0
  5  1  2  0  0  0  0
  8  9  1  0  0  0  0
  8  4  1  0  0  0  0
 10  8  1  0  0  0  0
 11 12  1  0  0  0  0
 11 13  1  0  0  0  0
 11  8  1  0  0  0  0
 14 11  1  0  0  0  0
 15 14  1  0  0  0  0
 16 15  2  0  0  0  0
 17 16  1  0  0  0  0
 18 16  1  0  0  0  0
 18 20  1  0  0  0  0
 19 18  1  0  0  0  0
 20 14  2  0  0  0  0
 22 23  1  0  0  0  0
 23 24  2  0  0  0  0
 23 28  1  0  0  0  0
 24 29  1  0  0  0  0
 25 21  1  0  0  0  0
 25 24  1  0  0  0  0
 26 25  2  0  0  0  0
 27 26  1  0  0  0  0
 27 22  2  0  0  0  0
 30 26  1  0  0  0  0
 31 37  1  0  0  0  0
 32 22  1  0  0  0  0
 32 31  2  0  0  0  0
 33 32  1  0  0  0  0
 34 33  2  0  0  0  0
 34 35  1  0  0  0  0
 35 36  2  0  0  0  0
 36 31  1  0  0  0  0
 38 33  1  0  0  0  0
 39 35  1  0  0  0  0
M  END
>  <minimizedAffinity>
-6.18124676

>  <minimizedRMSD>
1.25762284

$$$$
