
 OpenBabel03272510243D

 30 33  0  0  0  0  0  0  0  0999 V2000
   36.2240   30.1990   46.8500 C   0  0  0  0  0  0  0  0  0  0  0  0
   37.0890   30.7620   47.7940 C   0  0  0  0  0  0  0  0  0  0  0  0
   38.0700   31.6470   47.4090 C   0  0  0  0  0  0  0  0  0  0  0  0
   38.1460   31.9430   46.0390 C   0  0  0  0  0  0  0  0  0  0  0  0
   39.0360   32.7880   45.4400 N   0  0  0  0  0  0  0  0  0  0  0  0
   38.7460   32.7670   44.1430 C   0  0  0  0  0  0  0  0  0  0  0  0
   37.7130   31.9450   43.8940 N   0  0  0  0  0  0  0  0  0  0  0  0
   37.3180   31.4130   45.0830 C   0  0  0  0  0  0  0  0  0  0  0  0
   36.3340   30.5210   45.5000 C   0  0  0  0  0  0  0  0  0  0  0  0
   35.4260   29.4910   47.0930 H   0  0  0  0  0  0  0  0  0  0  0  0
   38.7340   32.0790   48.1280 H   0  0  0  0  0  0  0  0  0  0  0  0
   39.7980   33.3410   45.9300 H   0  0  0  0  0  0  0  0  0  0  0  0
   35.6750   30.0980   44.7500 H   0  0  0  0  0  0  0  0  0  0  0  0
   37.5140   30.1750   51.4840 C   0  0  0  0  0  0  0  0  0  0  0  0
   37.7960   30.5990   50.1900 C   0  0  0  0  0  0  0  0  0  0  0  0
   36.8880   30.3600   49.1730 C   0  0  0  0  0  0  0  0  0  0  0  0
   35.7390   29.7050   49.5050 N   0  0  0  0  0  0  0  0  0  0  0  0
   35.4770   29.2960   50.7720 C   0  0  0  0  0  0  0  0  0  0  0  0
   36.3480   29.5270   51.7400 N   0  0  0  0  0  0  0  0  0  0  0  0
   38.2920   30.4140   52.2010 H   0  0  0  0  0  0  0  0  0  0  0  0
   38.7050   31.1190   49.9220 H   0  0  0  0  0  0  0  0  0  0  0  0
   34.5340   28.7730   50.9730 H   0  0  0  0  0  0  0  0  0  0  0  0
   39.4400   33.5090   43.1820 O   0  0  0  0  0  0  0  0  0  0  0  0
   39.0910   33.2890   41.8560 C   0  0  0  0  0  0  0  0  0  0  0  0
   38.3540   34.1040   41.0830 N   0  0  0  0  0  0  0  0  0  0  0  0
   38.2160   33.5710   39.8490 C   0  0  0  0  0  0  0  0  0  0  0  0
   37.7350   33.8320   38.9170 H   0  0  0  0  0  0  0  0  0  0  0  0
   38.9000   32.3900   39.8950 N   0  0  0  0  0  0  0  0  0  0  0  0
   39.1160   31.5900   39.2320 H   0  0  0  0  0  0  0  0  0  0  0  0
   39.4180   32.2280   41.0890 N   0  0  0  0  0  0  0  0  0  0  0  0
  1 10  1  0  0  0  0
  1  2  1  0  0  0  0
  2 16  1  0  0  0  0
  3  2  2  0  0  0  0
  3 11  1  0  0  0  0
  4  3  1  0  0  0  0
  5 12  1  0  0  0  0
  5  4  1  0  0  0  0
  6  5  1  0  0  0  0
  7  6  2  0  0  0  0
  7  8  1  0  0  0  0
  8  9  1  0  0  0  0
  8  4  2  0  0  0  0
  9  1  2  0  0  0  0
 13  9  1  0  0  0  0
 14 19  1  0  0  0  0
 14 20  1  0  0  0  0
 15 14  2  0  0  0  0
 16 17  2  0  0  0  0
 16 15  1  0  0  0  0
 17 18  1  0  0  0  0
 18 22  1  0  0  0  0
 18 19  2  0  0  0  0
 21 15  1  0  0  0  0
 23  6  1  0  0  0  0
 24 23  1  0  0  0  0
 25 24  1  0  0  0  0
 26 28  1  0  0  0  0
 26 25  2  0  0  0  0
 27 26  1  0  0  0  0
 28 30  1  0  0  0  0
 29 28  1  0  0  0  0
 30 24  2  0  0  0  0
M  END
>  <minimizedAffinity>
-5.57973289

>  <minimizedRMSD>
1.26999533

$$$$
