
 OpenBabel03272506273D

 40 43  0  0  0  0  0  0  0  0999 V2000
   35.0460   29.8040   44.9670 C   0  0  0  0  0  0  0  0  0  0  0  0
   36.0120   30.1400   45.8970 C   0  0  0  0  0  0  0  0  0  0  0  0
   35.7570   30.3880   47.2440 C   0  0  0  0  0  0  0  0  0  0  0  0
   34.4260   30.2920   47.6940 C   0  0  0  0  0  0  0  0  0  0  0  0
   33.4750   29.9560   46.7540 C   0  0  0  0  0  0  0  0  0  0  0  0
   33.7370   29.7140   45.4390 C   0  0  0  0  0  0  0  0  0  0  0  0
   37.0660   30.2250   45.5820 H   0  0  0  0  0  0  0  0  0  0  0  0
   36.6130   30.6480   47.8900 H   0  0  0  0  0  0  0  0  0  0  0  0
   34.3470   30.5020   48.7390 H   0  0  0  0  0  0  0  0  0  0  0  0
   32.5570   29.9440   47.2820 H   0  0  0  0  0  0  0  0  0  0  0  0
   35.8640   28.2750   43.2850 C   0  0  0  0  0  0  0  0  0  0  0  0
   35.4920   29.5860   43.6210 C   0  0  0  0  0  0  0  0  0  0  0  0
   35.5830   30.5730   42.6300 C   0  0  0  0  0  0  0  0  0  0  0  0
   36.0240   30.2260   41.3910 N   0  0  0  0  0  0  0  0  0  0  0  0
   36.3800   28.9420   41.0910 C   0  0  0  0  0  0  0  0  0  0  0  0
   36.2980   27.9720   42.0420 N   0  0  0  0  0  0  0  0  0  0  0  0
   35.8090   27.4970   44.0160 H   0  0  0  0  0  0  0  0  0  0  0  0
   36.7310   28.6540   40.1110 H   0  0  0  0  0  0  0  0  0  0  0  0
   35.2250   32.0050   42.8450 C   0  0  0  0  0  0  0  0  0  0  0  0
   35.3410   32.7010   41.6270 F   0  0  0  0  0  0  0  0  0  0  0  0
   34.0050   32.2390   43.3620 F   0  0  0  0  0  0  0  0  0  0  0  0
   36.1910   32.6100   43.6590 F   0  0  0  0  0  0  0  0  0  0  0  0
   32.5130   29.2860   44.2570 S   0  0  0  0  0  0  0  0  0  0  0  0
   30.3550   27.9250   46.0340 Cl  0  0  0  0  0  0  0  0  0  0  0  0
   30.0550   29.4800   45.3090 C   0  0  0  0  0  0  0  0  0  0  0  0
   30.9740   30.1300   44.4860 C   0  0  0  0  0  0  0  0  0  0  0  0
   30.6760   31.3360   43.9230 C   0  0  0  0  0  0  0  0  0  0  0  0
   29.4400   31.9060   44.1900 C   0  0  0  0  0  0  0  0  0  0  0  0
   28.5150   31.2600   45.0160 C   0  0  0  0  0  0  0  0  0  0  0  0
   28.8150   30.0400   45.5830 C   0  0  0  0  0  0  0  0  0  0  0  0
   31.2890   31.8880   43.2580 H   0  0  0  0  0  0  0  0  0  0  0  0
   29.1570   32.8660   43.7670 H   0  0  0  0  0  0  0  0  0  0  0  0
   27.5610   31.7660   45.1830 H   0  0  0  0  0  0  0  0  0  0  0  0
   27.8260   29.3950   46.4380 C   0  0  0  0  0  0  0  0  0  0  0  0
   27.7710   29.6240   47.7620 N   0  0  0  0  0  0  0  0  0  0  0  0
   26.7470   28.8780   48.2700 C   0  0  0  0  0  0  0  0  0  0  0  0
   26.3280   28.7340   49.2600 H   0  0  0  0  0  0  0  0  0  0  0  0
   26.2040   28.2050   47.2120 N   0  0  0  0  0  0  0  0  0  0  0  0
   25.4090   27.5320   47.1600 H   0  0  0  0  0  0  0  0  0  0  0  0
   26.8580   28.5200   46.1080 N   0  0  0  0  0  0  0  0  0  0  0  0
  1  6  2  0  0  0  0
  1  2  1  0  0  0  0
  2  3  2  0  0  0  0
  3  4  1  0  0  0  0
  3  8  1  0  0  0  0
  4  9  1  0  0  0  0
  5 10  1  0  0  0  0
  5  4  2  0  0  0  0
  6  5  1  0  0  0  0
  7  2  1  0  0  0  0
 11 12  1  0  0  0  0
 11 17  1  0  0  0  0
 12  1  1  0  0  0  0
 13 19  1  0  0  0  0
 13 12  2  0  0  0  0
 14 13  1  0  0  0  0
 15 14  2  0  0  0  0
 15 16  1  0  0  0  0
 16 11  2  0  0  0  0
 18 15  1  0  0  0  0
 19 21  1  0  0  0  0
 19 22  1  0  0  0  0
 20 19  1  0  0  0  0
 23 26  1  0  0  0  0
 23  6  1  0  0  0  0
 25 30  1  0  0  0  0
 25 24  1  0  0  0  0
 26 25  2  0  0  0  0
 27 28  2  0  0  0  0
 27 26  1  0  0  0  0
 28 29  1  0  0  0  0
 29 33  1  0  0  0  0
 29 30  2  0  0  0  0
 30 34  1  0  0  0  0
 31 27  1  0  0  0  0
 32 28  1  0  0  0  0
 34 35  1  0  0  0  0
 35 36  2  0  0  0  0
 36 37  1  0  0  0  0
 38 36  1  0  0  0  0
 39 38  1  0  0  0  0
 40 34  2  0  0  0  0
 40 38  1  0  0  0  0
M  END
>  <minimizedAffinity>
-4.19687414

>  <minimizedRMSD>
7.86269665

$$$$
