
 OpenBabel03272509393D

 33 35  0  0  0  0  0  0  0  0999 V2000
   37.0500   30.9560   49.0780 C   0  0  0  0  0  0  0  0  0  0  0  0
   36.7960   31.9130   50.0650 C   0  0  0  0  0  0  0  0  0  0  0  0
   37.4180   33.1530   50.0700 C   0  0  0  0  0  0  0  0  0  0  0  0
   38.3320   33.4650   49.0570 C   0  0  0  0  0  0  0  0  0  0  0  0
   38.5690   32.5200   48.1000 C   0  0  0  0  0  0  0  0  0  0  0  0
   37.9360   31.2900   48.1180 C   0  0  0  0  0  0  0  0  0  0  0  0
   36.0830   31.6540   50.8450 H   0  0  0  0  0  0  0  0  0  0  0  0
   37.1510   33.8190   50.8790 H   0  0  0  0  0  0  0  0  0  0  0  0
   38.7950   34.4340   49.0900 H   0  0  0  0  0  0  0  0  0  0  0  0
   39.2880   32.8460   47.3580 H   0  0  0  0  0  0  0  0  0  0  0  0
   36.3540   29.6830   49.1510 C   0  0  0  0  0  0  0  0  0  0  0  0
   36.8690   28.8430   49.9720 O   0  0  0  0  0  0  0  0  0  0  0  0
   33.6070   30.1330   46.8310 C   0  0  0  0  0  0  0  0  0  0  0  0
   32.9490   28.9170   46.8370 C   0  0  0  0  0  0  0  0  0  0  0  0
   33.4470   27.9060   47.6540 C   0  0  0  0  0  0  0  0  0  0  0  0
   34.5550   28.1560   48.4060 N   0  0  0  0  0  0  0  0  0  0  0  0
   35.1600   29.3360   48.3740 C   0  0  0  0  0  0  0  0  0  0  0  0
   34.6770   30.3190   47.5830 N   0  0  0  0  0  0  0  0  0  0  0  0
   33.1760   30.8940   46.1740 H   0  0  0  0  0  0  0  0  0  0  0  0
   32.0660   28.6560   46.2620 H   0  0  0  0  0  0  0  0  0  0  0  0
   33.0580   26.9040   47.7770 H   0  0  0  0  0  0  0  0  0  0  0  0
   38.3040   30.4080   47.0320 C   0  0  0  0  0  3  0  0  0  0  0  0
   38.8710   30.7610   45.8860 C   0  0  0  0  0  3  0  0  0  0  0  0
   39.2990   29.9880   44.7120 C   0  0  0  0  0  0  0  0  0  0  0  0
   38.6280   29.1100   44.5870 H   0  0  0  0  0  0  0  0  0  0  0  0
   40.3170   29.5580   44.7960 H   0  0  0  0  0  0  0  0  0  0  0  0
   39.2480   30.7970   43.4620 C   0  0  0  0  0  0  0  0  0  0  0  0
   38.2090   31.4830   42.9350 N   0  0  0  0  0  0  0  0  0  0  0  0
   38.6430   32.0600   41.7900 C   0  0  0  0  0  0  0  0  0  0  0  0
   38.2120   32.6910   41.0260 H   0  0  0  0  0  0  0  0  0  0  0  0
   39.9380   31.7140   41.6410 N   0  0  0  0  0  0  0  0  0  0  0  0
   40.6710   31.9300   40.9080 H   0  0  0  0  0  0  0  0  0  0  0  0
   40.3190   30.9480   42.6480 N   0  0  0  0  0  0  0  0  0  0  0  0
  1 11  1  0  0  0  0
  1  2  1  0  0  0  0
  2  3  2  0  0  0  0
  2  7  1  0  0  0  0
  3  8  1  0  0  0  0
  4  9  1  0  0  0  0
  4  3  1  0  0  0  0
  5  6  1  0  0  0  0
  5  4  2  0  0  0  0
  6  1  2  0  0  0  0
 10  5  1  0  0  0  0
 11 12  2  0  0  0  0
 13 14  2  0  0  0  0
 13 18  1  0  0  0  0
 14 15  1  0  0  0  0
 15 21  1  0  0  0  0
 15 16  2  0  0  0  0
 17 16  1  0  0  0  0
 17 11  1  0  0  0  0
 18 17  2  0  0  0  0
 19 13  1  0  0  0  0
 20 14  1  0  0  0  0
 22  6  1  0  0  0  0
 23 22  2  0  0  0  0
 24 26  1  0  0  0  0
 24 23  1  0  0  0  0
 25 24  1  0  0  0  0
 27 24  1  0  0  0  0
 28 27  1  0  0  0  0
 29 28  2  0  0  0  0
 30 29  1  0  0  0  0
 31 29  1  0  0  0  0
 31 33  1  0  0  0  0
 32 31  1  0  0  0  0
 33 27  2  0  0  0  0
M  END
>  <minimizedAffinity>
-5.78293228

>  <minimizedRMSD>
1.62922645

$$$$
