
 OpenBabel03272509183D

 31 33  0  0  0  0  0  0  0  0999 V2000
   38.0470   31.2410   47.8080 C   0  0  0  0  0  0  0  0  0  0  0  0
   37.0760   31.2920   48.7890 C   0  0  0  0  0  0  0  0  0  0  0  0
   37.1560   32.4320   49.6130 C   0  0  0  0  0  0  0  0  0  0  0  0
   38.1380   33.4030   49.4300 C   0  0  0  0  0  0  0  0  0  0  0  0
   39.0710   33.2600   48.4130 C   0  0  0  0  0  0  0  0  0  0  0  0
   39.0180   32.1490   47.5850 C   0  0  0  0  0  0  0  0  0  0  0  0
   36.4340   32.5340   50.3920 H   0  0  0  0  0  0  0  0  0  0  0  0
   38.1740   34.2680   50.0790 H   0  0  0  0  0  0  0  0  0  0  0  0
   39.8500   33.9950   48.2400 H   0  0  0  0  0  0  0  0  0  0  0  0
   34.9120   30.3240   48.1810 C   0  0  0  0  0  0  0  0  0  0  0  0
   36.0670   30.2990   48.9820 C   0  0  0  0  0  0  0  0  0  0  0  0
   36.1890   29.2960   49.9460 C   0  0  0  0  0  0  0  0  0  0  0  0
   35.1680   28.3970   50.0490 N   0  0  0  0  0  0  0  0  0  0  0  0
   34.0730   28.4450   49.2690 C   0  0  0  0  0  0  0  0  0  0  0  0
   33.9470   29.3990   48.3430 N   0  0  0  0  0  0  0  0  0  0  0  0
   34.8050   31.1000   47.4260 H   0  0  0  0  0  0  0  0  0  0  0  0
   33.3310   27.6830   49.4390 H   0  0  0  0  0  0  0  0  0  0  0  0
   37.3870   29.2330   50.8120 C   0  0  0  0  0  0  0  0  0  0  0  0
   37.6870   28.1990   51.0880 H   0  0  0  0  0  0  0  0  0  0  0  0
   38.2020   29.8030   50.3000 H   0  0  0  0  0  0  0  0  0  0  0  0
   37.1440   29.8440   51.7180 H   0  0  0  0  0  0  0  0  0  0  0  0
   38.0460   30.1400   46.9410 O   0  0  0  0  0  0  0  0  0  0  0  0
   37.2570   29.8670   46.3720 H   0  0  0  0  0  0  0  0  0  0  0  0
   39.9670   32.0230   46.5670 O   0  0  0  0  0  0  0  0  0  0  0  0
   39.5920   32.5200   45.3260 C   0  0  0  0  0  0  0  0  0  0  0  0
   40.1780   33.4400   44.5380 N   0  0  0  0  0  0  0  0  0  0  0  0
   39.4190   33.5700   43.4340 C   0  0  0  0  0  0  0  0  0  0  0  0
   39.6320   34.2380   42.6070 H   0  0  0  0  0  0  0  0  0  0  0  0
   38.3700   32.7360   43.5370 N   0  0  0  0  0  0  0  0  0  0  0  0
   37.6100   32.6170   42.8290 H   0  0  0  0  0  0  0  0  0  0  0  0
   38.4970   32.1140   44.6890 N   0  0  0  0  0  0  0  0  0  0  0  0
  1  2  1  0  0  0  0
  2 11  1  0  0  0  0
  2  3  2  0  0  0  0
  3  7  1  0  0  0  0
  4  3  1  0  0  0  0
  4  8  1  0  0  0  0
  5  4  2  0  0  0  0
  6  1  2  0  0  0  0
  6  5  1  0  0  0  0
  9  5  1  0  0  0  0
 10 15  2  0  0  0  0
 10 11  1  0  0  0  0
 11 12  2  0  0  0  0
 12 13  1  0  0  0  0
 12 18  1  0  0  0  0
 14 17  1  0  0  0  0
 14 13  2  0  0  0  0
 15 14  1  0  0  0  0
 16 10  1  0  0  0  0
 18 19  1  0  0  0  0
 18 21  1  0  0  0  0
 20 18  1  0  0  0  0
 22  1  1  0  0  0  0
 23 22  1  0  0  0  0
 24  6  1  0  0  0  0
 25 24  1  0  0  0  0
 26 25  1  0  0  0  0
 27 29  1  0  0  0  0
 27 26  2  0  0  0  0
 28 27  1  0  0  0  0
 29 31  1  0  0  0  0
 30 29  1  0  0  0  0
 31 25  2  0  0  0  0
M  END
>  <minimizedAffinity>
-6.10520172

>  <minimizedRMSD>
0.452055603

$$$$
