REMARK  Name = 
REMARK  7 active torsions:
REMARK  status: ('A' for Active; 'I' for Inactive)
REMARK    1  A    between atoms: C_3  and  C_12
REMARK    2  A    between atoms: C_7  and  O_14
REMARK    3  A    between atoms: O_14  and  P_16
REMARK    4  A    between atoms: P_16  and  O_17
REMARK    5  A    between atoms: P_16  and  O_18
REMARK    6  A    between atoms: O_17  and  C_29
REMARK    7  A    between atoms: O_18  and  C_19
REMARK                            x       y       z     vdW  Elec       q    Type
REMARK                         _______ _______ _______ _____ _____    ______ ____
ROOT
ATOM      1  F   UNL     1      38.032  30.321  47.888  0.00  0.00    +0.000 F 
ATOM      2  C   UNL     1      37.040  30.260  46.945  0.00  0.00    +0.000 A 
ATOM      3  C   UNL     1      37.197  30.767  45.663  0.00  0.00    +0.000 A 
ATOM      4  C   UNL     1      36.153  30.663  44.781  0.00  0.00    +0.000 A 
ATOM      5  C   UNL     1      34.936  30.074  45.107  0.00  0.00    +0.000 A 
ATOM      6  C   UNL     1      34.807  29.575  46.399  0.00  0.00    +0.000 A 
ATOM      7  C   UNL     1      35.842  29.661  47.320  0.00  0.00    +0.000 A 
ATOM      8  H   UNL     1      36.334  31.078  43.791  0.00  0.00    +0.000 HD
ATOM      9  H   UNL     1      34.135  30.014  44.377  0.00  0.00    +0.000 HD
ATOM     10  H   UNL     1      33.891  29.108  46.712  0.00  0.00    +0.000 HD
ENDROOT
BRANCH   3  15
ATOM     11  C   UNL     1      39.586  33.333  44.657  0.00  0.00    +0.000 A 
ATOM     12  C   UNL     1      40.819  32.668  44.604  0.00  0.00    +0.000 A 
ATOM     13  C   UNL     1      40.802  31.311  44.924  0.00  0.00    +0.000 A 
ATOM     14  N   UNL     1      39.639  30.697  45.265  0.00  0.00    +0.000 NA
ATOM     15  C   UNL     1      38.462  31.386  45.303  0.00  0.00    +0.000 A 
ATOM     16  N   UNL     1      38.444  32.710  44.997  0.00  0.00    +0.000 NA
ATOM     17  H   UNL     1      39.481  34.394  44.427  0.00  0.00    +0.000 HD
ATOM     18  H   UNL     1      41.644  33.273  44.322  0.00  0.00    +0.000 HD
ATOM     19  H   UNL     1      41.743  30.819  44.879  0.00  0.00    +0.000 HD
ENDBRANCH   3  15
BRANCH   7  20
ATOM     20  O   UNL     1      35.684  29.167  48.564  0.00  0.00    +0.000 OA
BRANCH  20  22
ATOM     21  O   UNL     1      35.120  28.952  51.083  0.00  0.00    +0.000 OA
ATOM     22  P   UNL     1      35.283  29.985  49.978  0.00  0.00    +0.000 P 
BRANCH  22  23
ATOM     23  O   UNL     1      33.851  30.846  49.926  0.00  0.00    +0.000 OA
BRANCH  23  24
ATOM     24  C   UNL     1      32.690  30.214  49.498  0.00  0.00    +0.000 A 
ATOM     25  N   UNL     1      31.894  29.586  50.401  0.00  0.00    +0.000 NA
ATOM     26  C   UNL     1      30.821  29.039  49.780  0.00  0.00    +0.000 A 
ATOM     27  H   UNL     1      30.053  28.488  50.306  0.00  0.00    +0.000 HD
ATOM     28  N   UNL     1      30.970  29.342  48.465  0.00  0.00    +0.000 N 
ATOM     29  H   UNL     1      30.294  29.054  47.725  0.00  0.00    +0.000 HD
ATOM     30  N   UNL     1      32.082  30.043  48.288  0.00  0.00    +0.000 NA
ENDBRANCH  23  24
ENDBRANCH  22  23
BRANCH  22  31
ATOM     31  O   UNL     1      36.549  31.020  50.482  0.00  0.00    +0.000 OA
BRANCH  31  32
ATOM     32  C   UNL     1      37.610  30.338  51.015  0.00  0.00    +0.000 C 
ATOM     33  F   UNL     1      37.794  29.097  50.442  0.00  0.00    +0.000 F 
ATOM     34  F   UNL     1      38.735  31.087  50.772  0.00  0.00    +0.000 F 
ATOM     35  F   UNL     1      37.446  30.192  52.388  0.00  0.00    +0.000 F 
ENDBRANCH  31  32
ENDBRANCH  22  31
ENDBRANCH  20  22
ENDBRANCH   7  20
TORSDOF 7
