
 OpenBabel03272501233D

 38 41  0  0  0  0  0  0  0  0999 V2000
   36.5530   27.9570   33.6530 C   0  0  0  0  0  0  0  0  0  0  0  0
   36.0040   29.2180   33.4290 C   0  0  0  0  0  0  0  0  0  0  0  0
   36.1750   29.7110   32.1470 C   0  0  0  0  0  0  0  0  0  0  0  0
   36.8520   28.9740   31.1770 C   0  0  0  0  0  0  0  0  0  0  0  0
   37.3710   27.7280   31.4730 C   0  0  0  0  0  0  0  0  0  0  0  0
   37.2180   27.2150   32.7260 C   0  0  0  0  0  0  0  0  0  0  0  0
   35.7860   30.6890   31.8600 H   0  0  0  0  0  0  0  0  0  0  0  0
   36.9960   29.3450   30.1650 H   0  0  0  0  0  0  0  0  0  0  0  0
   37.9050   27.1280   30.7330 H   0  0  0  0  0  0  0  0  0  0  0  0
   35.9890   30.8240   35.2830 C   0  0  0  0  0  0  0  0  0  0  0  0
   35.3130   29.9570   34.4430 C   0  0  0  0  0  0  0  0  0  0  0  0
   33.9210   29.8390   34.6310 C   0  0  0  0  0  0  0  0  0  0  0  0
   33.3390   30.5790   35.6220 N   0  0  0  0  0  0  0  0  0  0  0  0
   34.0470   31.4070   36.4090 C   0  0  0  0  0  0  0  0  0  0  0  0
   35.3820   31.5380   36.2480 N   0  0  0  0  0  0  0  0  0  0  0  0
   37.0760   30.9750   35.2030 H   0  0  0  0  0  0  0  0  0  0  0  0
   33.3490   29.1690   33.9950 H   0  0  0  0  0  0  0  0  0  0  0  0
   33.4600   31.9220   37.1400 H   0  0  0  0  0  0  0  0  0  0  0  0
   36.4270   27.3710   34.9370 O   0  0  0  0  0  0  0  0  0  0  0  0
   35.8490   27.7950   35.6490 H   0  0  0  0  0  0  0  0  0  0  0  0
   37.7420   25.9630   33.0160 O   0  0  0  0  0  0  0  0  0  0  0  0
   37.9120   23.3960   34.6210 Cl  0  0  0  0  0  0  0  0  0  0  0  0
   39.1590   24.6090   34.5540 C   0  0  0  0  0  0  0  0  0  0  0  0
   38.8770   25.7140   33.7550 C   0  0  0  0  0  0  0  0  0  0  0  0
   39.8480   26.6960   33.6800 C   0  0  0  0  0  0  0  0  0  0  0  0
   41.0460   26.6320   34.3410 C   0  0  0  0  0  0  0  0  0  0  0  0
   41.3140   25.5350   35.1300 C   0  0  0  0  0  0  0  0  0  0  0  0
   40.3570   24.5290   35.2260 C   0  0  0  0  0  0  0  0  0  0  0  0
   39.7250   27.6000   33.0830 H   0  0  0  0  0  0  0  0  0  0  0  0
   41.8220   27.3830   34.3030 H   0  0  0  0  0  0  0  0  0  0  0  0
   42.2430   25.4180   35.6830 H   0  0  0  0  0  0  0  0  0  0  0  0
   40.6090   23.3490   36.0540 C   0  0  0  0  0  0  0  0  0  0  0  0
   41.4900   22.3520   35.8590 N   0  0  0  0  0  0  0  0  0  0  0  0
   41.3930   21.4560   36.8760 C   0  0  0  0  0  0  0  0  0  0  0  0
   41.8620   20.5440   37.1490 H   0  0  0  0  0  0  0  0  0  0  0  0
   40.4300   21.9220   37.7050 N   0  0  0  0  0  0  0  0  0  0  0  0
   39.9520   21.6540   38.6120 H   0  0  0  0  0  0  0  0  0  0  0  0
   39.9700   23.0560   37.2010 N   0  0  0  0  0  0  0  0  0  0  0  0
  1 19  1  0  0  0  0
  2  1  1  0  0  0  0
  2 11  1  0  0  0  0
  3  2  2  0  0  0  0
  4  5  2  0  0  0  0
  4  3  1  0  0  0  0
  5  6  1  0  0  0  0
  6 21  1  0  0  0  0
  6  1  2  0  0  0  0
  7  3  1  0  0  0  0
  8  4  1  0  0  0  0
  9  5  1  0  0  0  0
 10 15  1  0  0  0  0
 11 12  1  0  0  0  0
 11 10  2  0  0  0  0
 12 13  2  0  0  0  0
 13 14  1  0  0  0  0
 14 18  1  0  0  0  0
 15 14  2  0  0  0  0
 16 10  1  0  0  0  0
 17 12  1  0  0  0  0
 19 20  1  0  0  0  0
 21 24  1  0  0  0  0
 23 22  1  0  0  0  0
 23 28  1  0  0  0  0
 24 23  2  0  0  0  0
 25 24  1  0  0  0  0
 25 26  2  0  0  0  0
 26 27  1  0  0  0  0
 27 28  2  0  0  0  0
 27 31  1  0  0  0  0
 28 32  1  0  0  0  0
 29 25  1  0  0  0  0
 30 26  1  0  0  0  0
 32 38  2  0  0  0  0
 33 32  1  0  0  0  0
 33 34  2  0  0  0  0
 34 35  1  0  0  0  0
 34 36  1  0  0  0  0
 36 37  1  0  0  0  0
 38 36  1  0  0  0  0
M  END
>  <minimizedAffinity>
-6.07178354

$$$$

 OpenBabel03272501233D

 38 41  0  0  0  0  0  0  0  0999 V2000
   36.4090   28.5590   32.9760 C   0  0  0  0  0  0  0  0  0  0  0  0
   35.4070   29.3060   32.3600 C   0  0  0  0  0  0  0  0  0  0  0  0
   35.5850   29.5160   31.0030 C   0  0  0  0  0  0  0  0  0  0  0  0
   36.6960   29.0030   30.3350 C   0  0  0  0  0  0  0  0  0  0  0  0
   37.6500   28.2700   31.0140 C   0  0  0  0  0  0  0  0  0  0  0  0
   37.5030   28.0460   32.3500 C   0  0  0  0  0  0  0  0  0  0  0  0
   34.8630   30.0890   30.4190 H   0  0  0  0  0  0  0  0  0  0  0  0
   36.8520   29.1580   29.2700 H   0  0  0  0  0  0  0  0  0  0  0  0
   38.5300   27.8550   30.5170 H   0  0  0  0  0  0  0  0  0  0  0  0
   33.0300   29.2290   32.9570 C   0  0  0  0  0  0  0  0  0  0  0  0
   34.2750   29.8240   33.0670 C   0  0  0  0  0  0  0  0  0  0  0  0
   34.3730   30.9530   33.9040 C   0  0  0  0  0  0  0  0  0  0  0  0
   33.2430   31.3820   34.5440 N   0  0  0  0  0  0  0  0  0  0  0  0
   32.0580   30.7640   34.3990 C   0  0  0  0  0  0  0  0  0  0  0  0
   31.9390   29.6790   33.6020 N   0  0  0  0  0  0  0  0  0  0  0  0
   32.8670   28.3430   32.3250 H   0  0  0  0  0  0  0  0  0  0  0  0
   35.3310   31.4520   34.0200 H   0  0  0  0  0  0  0  0  0  0  0  0
   31.2630   31.2100   34.9590 H   0  0  0  0  0  0  0  0  0  0  0  0
   36.3110   28.2930   34.3640 O   0  0  0  0  0  0  0  0  0  0  0  0
   35.4770   28.5310   34.8840 H   0  0  0  0  0  0  0  0  0  0  0  0
   38.4650   27.3090   33.0250 O   0  0  0  0  0  0  0  0  0  0  0  0
   38.8790   26.7450   35.9760 Cl  0  0  0  0  0  0  0  0  0  0  0  0
   38.4640   25.5460   34.7860 C   0  0  0  0  0  0  0  0  0  0  0  0
   38.3200   26.0180   33.4830 C   0  0  0  0  0  0  0  0  0  0  0  0
   37.9890   25.0900   32.5140 C   0  0  0  0  0  0  0  0  0  0  0  0
   37.8010   23.7570   32.7700 C   0  0  0  0  0  0  0  0  0  0  0  0
   37.9460   23.3000   34.0620 C   0  0  0  0  0  0  0  0  0  0  0  0
   38.2790   24.2100   35.0610 C   0  0  0  0  0  0  0  0  0  0  0  0
   37.8530   25.3570   31.4650 H   0  0  0  0  0  0  0  0  0  0  0  0
   37.5430   23.0090   32.0340 H   0  0  0  0  0  0  0  0  0  0  0  0
   37.8120   22.2570   34.3370 H   0  0  0  0  0  0  0  0  0  0  0  0
   38.4400   23.7590   36.4430 C   0  0  0  0  0  0  0  0  0  0  0  0
   37.6240   23.9460   37.4940 N   0  0  0  0  0  0  0  0  0  0  0  0
   38.1590   23.3560   38.5950 C   0  0  0  0  0  0  0  0  0  0  0  0
   37.8930   23.2410   39.6160 H   0  0  0  0  0  0  0  0  0  0  0  0
   39.3280   22.8000   38.2000 N   0  0  0  0  0  0  0  0  0  0  0  0
   40.1300   22.2410   38.6080 H   0  0  0  0  0  0  0  0  0  0  0  0
   39.4830   23.0480   36.9100 N   0  0  0  0  0  0  0  0  0  0  0  0
  1 19  1  0  0  0  0
  2  1  1  0  0  0  0
  2 11  1  0  0  0  0
  3  2  2  0  0  0  0
  4  3  1  0  0  0  0
  4  5  2  0  0  0  0
  5  6  1  0  0  0  0
  6  1  2  0  0  0  0
  6 21  1  0  0  0  0
  7  3  1  0  0  0  0
  8  4  1  0  0  0  0
  9  5  1  0  0  0  0
 10 11  2  0  0  0  0
 10 15  1  0  0  0  0
 11 12  1  0  0  0  0
 12 17  1  0  0  0  0
 12 13  2  0  0  0  0
 14 13  1  0  0  0  0
 14 18  1  0  0  0  0
 15 14  2  0  0  0  0
 16 10  1  0  0  0  0
 19 20  1  0  0  0  0
 21 24  1  0  0  0  0
 23 28  1  0  0  0  0
 23 22  1  0  0  0  0
 24 23  2  0  0  0  0
 25 26  2  0  0  0  0
 25 24  1  0  0  0  0
 26 27  1  0  0  0  0
 27 31  1  0  0  0  0
 27 28  2  0  0  0  0
 28 32  1  0  0  0  0
 29 25  1  0  0  0  0
 30 26  1  0  0  0  0
 32 38  2  0  0  0  0
 32 33  1  0  0  0  0
 33 34  2  0  0  0  0
 34 35  1  0  0  0  0
 36 34  1  0  0  0  0
 36 37  1  0  0  0  0
 38 36  1  0  0  0  0
M  END
>  <minimizedAffinity>
-5.99200249

$$$$

 OpenBabel03272501233D

 38 41  0  0  0  0  0  0  0  0999 V2000
   38.1360   27.2690   30.7790 C   0  0  0  0  0  0  0  0  0  0  0  0
   38.3280   28.2500   29.8100 C   0  0  0  0  0  0  0  0  0  0  0  0
   37.3320   29.2090   29.7430 C   0  0  0  0  0  0  0  0  0  0  0  0
   36.2320   29.1650   30.5980 C   0  0  0  0  0  0  0  0  0  0  0  0
   36.1090   28.1580   31.5360 C   0  0  0  0  0  0  0  0  0  0  0  0
   37.0730   27.2000   31.6270 C   0  0  0  0  0  0  0  0  0  0  0  0
   37.3790   30.0250   29.0200 H   0  0  0  0  0  0  0  0  0  0  0  0
   35.4390   29.9090   30.5590 H   0  0  0  0  0  0  0  0  0  0  0  0
   35.2580   28.0980   32.2190 H   0  0  0  0  0  0  0  0  0  0  0  0
   40.6110   28.9770   29.2830 C   0  0  0  0  0  0  0  0  0  0  0  0
   39.4670   28.2750   28.9420 C   0  0  0  0  0  0  0  0  0  0  0  0
   39.4800   27.5910   27.7100 C   0  0  0  0  0  0  0  0  0  0  0  0
   40.6070   27.6660   26.9410 N   0  0  0  0  0  0  0  0  0  0  0  0
   41.6910   28.3650   27.3230 C   0  0  0  0  0  0  0  0  0  0  0  0
   41.7040   29.0280   28.5000 N   0  0  0  0  0  0  0  0  0  0  0  0
   40.6840   29.5380   30.2260 H   0  0  0  0  0  0  0  0  0  0  0  0
   38.6030   27.0270   27.4020 H   0  0  0  0  0  0  0  0  0  0  0  0
   42.4980   28.3340   26.6220 H   0  0  0  0  0  0  0  0  0  0  0  0
   39.1050   26.2450   30.9220 O   0  0  0  0  0  0  0  0  0  0  0  0
   39.9820   26.2830   30.4200 H   0  0  0  0  0  0  0  0  0  0  0  0
   36.9430   26.1920   32.5720 O   0  0  0  0  0  0  0  0  0  0  0  0
   37.9090   23.5800   33.7720 Cl  0  0  0  0  0  0  0  0  0  0  0  0
   37.9770   25.1250   34.5720 C   0  0  0  0  0  0  0  0  0  0  0  0
   37.4790   26.2000   33.8400 C   0  0  0  0  0  0  0  0  0  0  0  0
   37.5190   27.4420   34.4480 C   0  0  0  0  0  0  0  0  0  0  0  0
   38.0140   27.6570   35.7070 C   0  0  0  0  0  0  0  0  0  0  0  0
   38.5040   26.5860   36.4220 C   0  0  0  0  0  0  0  0  0  0  0  0
   38.4770   25.3220   35.8380 C   0  0  0  0  0  0  0  0  0  0  0  0
   37.1540   28.3470   33.9610 H   0  0  0  0  0  0  0  0  0  0  0  0
   38.0570   28.6140   36.2070 H   0  0  0  0  0  0  0  0  0  0  0  0
   38.9110   26.6820   37.4250 H   0  0  0  0  0  0  0  0  0  0  0  0
   38.9900   24.1630   36.5690 C   0  0  0  0  0  0  0  0  0  0  0  0
   40.0960   23.4360   36.3320 N   0  0  0  0  0  0  0  0  0  0  0  0
   40.1940   22.4460   37.2580 C   0  0  0  0  0  0  0  0  0  0  0  0
   40.8660   21.6540   37.4730 H   0  0  0  0  0  0  0  0  0  0  0  0
   39.1220   22.5780   38.0730 N   0  0  0  0  0  0  0  0  0  0  0  0
   38.6980   22.1110   38.9250 H   0  0  0  0  0  0  0  0  0  0  0  0
   38.4100   23.6090   37.6490 N   0  0  0  0  0  0  0  0  0  0  0  0
  1 19  1  0  0  0  0
  1  6  1  0  0  0  0
  2  1  2  0  0  0  0
  3  2  1  0  0  0  0
  3  4  2  0  0  0  0
  4  5  1  0  0  0  0
  5  6  2  0  0  0  0
  5  9  1  0  0  0  0
  6 21  1  0  0  0  0
  7  3  1  0  0  0  0
  8  4  1  0  0  0  0
 10 16  1  0  0  0  0
 11 10  1  0  0  0  0
 11  2  1  0  0  0  0
 12 11  2  0  0  0  0
 13 14  2  0  0  0  0
 13 12  1  0  0  0  0
 14 15  1  0  0  0  0
 15 10  2  0  0  0  0
 17 12  1  0  0  0  0
 18 14  1  0  0  0  0
 20 19  1  0  0  0  0
 21 24  1  0  0  0  0
 22 23  1  0  0  0  0
 23 28  1  0  0  0  0
 24 25  1  0  0  0  0
 24 23  2  0  0  0  0
 25 26  2  0  0  0  0
 26 30  1  0  0  0  0
 26 27  1  0  0  0  0
 27 31  1  0  0  0  0
 28 27  2  0  0  0  0
 28 32  1  0  0  0  0
 29 25  1  0  0  0  0
 32 38  2  0  0  0  0
 33 32  1  0  0  0  0
 33 34  2  0  0  0  0
 34 35  1  0  0  0  0
 34 36  1  0  0  0  0
 36 37  1  0  0  0  0
 38 36  1  0  0  0  0
M  END
>  <minimizedAffinity>
-5.83977795

$$$$

 OpenBabel03272501233D

 38 41  0  0  0  0  0  0  0  0999 V2000
   36.1420   29.0540   33.4230 C   0  0  0  0  0  0  0  0  0  0  0  0
   35.5230   30.2980   33.5200 C   0  0  0  0  0  0  0  0  0  0  0  0
   35.5390   31.0510   32.3590 C   0  0  0  0  0  0  0  0  0  0  0  0
   36.1390   30.5690   31.1960 C   0  0  0  0  0  0  0  0  0  0  0  0
   36.7350   29.3220   31.1760 C   0  0  0  0  0  0  0  0  0  0  0  0
   36.7350   28.5580   32.3030 C   0  0  0  0  0  0  0  0  0  0  0  0
   35.0840   32.0420   32.3190 H   0  0  0  0  0  0  0  0  0  0  0  0
   36.1620   31.1470   30.2750 H   0  0  0  0  0  0  0  0  0  0  0  0
   37.2120   28.9190   30.2800 H   0  0  0  0  0  0  0  0  0  0  0  0
   35.6250   31.5350   35.6360 C   0  0  0  0  0  0  0  0  0  0  0  0
   34.9130   30.7720   34.7260 C   0  0  0  0  0  0  0  0  0  0  0  0
   33.5690   30.4890   35.0410 C   0  0  0  0  0  0  0  0  0  0  0  0
   33.0640   30.9800   36.2130 N   0  0  0  0  0  0  0  0  0  0  0  0
   33.8030   31.7160   37.0600 C   0  0  0  0  0  0  0  0  0  0  0  0
   35.0940   32.0010   36.7800 N   0  0  0  0  0  0  0  0  0  0  0  0
   36.6790   31.8010   35.4660 H   0  0  0  0  0  0  0  0  0  0  0  0
   32.9730   29.8930   34.3560 H   0  0  0  0  0  0  0  0  0  0  0  0
   33.2770   32.0310   37.9360 H   0  0  0  0  0  0  0  0  0  0  0  0
   36.1750   28.2120   34.5620 O   0  0  0  0  0  0  0  0  0  0  0  0
   35.6570   28.4460   35.3990 H   0  0  0  0  0  0  0  0  0  0  0  0
   37.3360   27.3070   32.2750 O   0  0  0  0  0  0  0  0  0  0  0  0
   38.7580   24.6850   32.8200 Cl  0  0  0  0  0  0  0  0  0  0  0  0
   37.2080   24.8300   32.0420 C   0  0  0  0  0  0  0  0  0  0  0  0
   36.7340   26.1300   31.8890 C   0  0  0  0  0  0  0  0  0  0  0  0
   35.5040   26.2790   31.2750 C   0  0  0  0  0  0  0  0  0  0  0  0
   34.7490   25.2310   30.8200 C   0  0  0  0  0  0  0  0  0  0  0  0
   35.2280   23.9480   30.9760 C   0  0  0  0  0  0  0  0  0  0  0  0
   36.4630   23.7640   31.5910 C   0  0  0  0  0  0  0  0  0  0  0  0
   35.0450   27.2540   31.1070 H   0  0  0  0  0  0  0  0  0  0  0  0
   33.7860   25.3160   30.3360 H   0  0  0  0  0  0  0  0  0  0  0  0
   34.6830   23.0690   30.6400 H   0  0  0  0  0  0  0  0  0  0  0  0
   37.0010   22.4160   31.7730 C   0  0  0  0  0  0  0  0  0  0  0  0
   37.7440   21.6810   30.9280 N   0  0  0  0  0  0  0  0  0  0  0  0
   38.0270   20.4810   31.5000 C   0  0  0  0  0  0  0  0  0  0  0  0
   38.5610   19.6040   31.2320 H   0  0  0  0  0  0  0  0  0  0  0  0
   37.4410   20.4910   32.7200 N   0  0  0  0  0  0  0  0  0  0  0  0
   37.3310   19.8600   33.5640 H   0  0  0  0  0  0  0  0  0  0  0  0
   36.8310   21.6550   32.8700 N   0  0  0  0  0  0  0  0  0  0  0  0
  1  2  1  0  0  0  0
  1 19  1  0  0  0  0
  2 11  1  0  0  0  0
  3  2  2  0  0  0  0
  4  3  1  0  0  0  0
  5  4  2  0  0  0  0
  5  6  1  0  0  0  0
  6  1  2  0  0  0  0
  7  3  1  0  0  0  0
  8  4  1  0  0  0  0
  9  5  1  0  0  0  0
 10 15  1  0  0  0  0
 11 12  1  0  0  0  0
 11 10  2  0  0  0  0
 12 13  2  0  0  0  0
 13 14  1  0  0  0  0
 14 18  1  0  0  0  0
 15 14  2  0  0  0  0
 16 10  1  0  0  0  0
 17 12  1  0  0  0  0
 19 20  1  0  0  0  0
 21  6  1  0  0  0  0
 23 22  1  0  0  0  0
 24 23  1  0  0  0  0
 24 21  1  0  0  0  0
 25 24  2  0  0  0  0
 26 27  2  0  0  0  0
 26 25  1  0  0  0  0
 27 28  1  0  0  0  0
 28 32  1  0  0  0  0
 28 23  2  0  0  0  0
 29 25  1  0  0  0  0
 30 26  1  0  0  0  0
 31 27  1  0  0  0  0
 32 38  2  0  0  0  0
 33 34  2  0  0  0  0
 33 32  1  0  0  0  0
 34 36  1  0  0  0  0
 35 34  1  0  0  0  0
 36 38  1  0  0  0  0
 36 37  1  0  0  0  0
M  END
>  <minimizedAffinity>
-5.75803852

$$$$

 OpenBabel03272501233D

 38 41  0  0  0  0  0  0  0  0999 V2000
   38.0830   28.2120   31.1320 C   0  0  0  0  0  0  0  0  0  0  0  0
   37.2020   29.2240   30.7570 C   0  0  0  0  0  0  0  0  0  0  0  0
   36.0100   29.2510   31.4590 C   0  0  0  0  0  0  0  0  0  0  0  0
   35.7440   28.3190   32.4610 C   0  0  0  0  0  0  0  0  0  0  0  0
   36.6680   27.3420   32.7790 C   0  0  0  0  0  0  0  0  0  0  0  0
   37.8510   27.2900   32.1050 C   0  0  0  0  0  0  0  0  0  0  0  0
   35.2450   30.0000   31.2490 H   0  0  0  0  0  0  0  0  0  0  0  0
   34.8120   28.3250   33.0240 H   0  0  0  0  0  0  0  0  0  0  0  0
   36.4870   26.5990   33.5590 H   0  0  0  0  0  0  0  0  0  0  0  0
   37.6720   29.7650   28.4110 C   0  0  0  0  0  0  0  0  0  0  0  0
   37.4980   30.1700   29.7230 C   0  0  0  0  0  0  0  0  0  0  0  0
   37.6230   31.5480   29.9900 C   0  0  0  0  0  0  0  0  0  0  0  0
   37.9070   32.3840   28.9460 N   0  0  0  0  0  0  0  0  0  0  0  0
   38.0670   31.9340   27.6890 C   0  0  0  0  0  0  0  0  0  0  0  0
   37.9510   30.6170   27.4080 N   0  0  0  0  0  0  0  0  0  0  0  0
   37.5910   28.7080   28.1180 H   0  0  0  0  0  0  0  0  0  0  0  0
   37.4950   31.9110   31.0060 H   0  0  0  0  0  0  0  0  0  0  0  0
   38.2850   32.7010   26.9760 H   0  0  0  0  0  0  0  0  0  0  0  0
   39.3300   28.1060   30.4670 O   0  0  0  0  0  0  0  0  0  0  0  0
   39.6370   28.8170   29.8170 H   0  0  0  0  0  0  0  0  0  0  0  0
   38.7740   26.3060   32.4290 O   0  0  0  0  0  0  0  0  0  0  0  0
   39.1970   26.2450   35.4310 Cl  0  0  0  0  0  0  0  0  0  0  0  0
   38.6320   24.9000   34.4810 C   0  0  0  0  0  0  0  0  0  0  0  0
   38.5080   25.1420   33.1150 C   0  0  0  0  0  0  0  0  0  0  0  0
   38.0610   24.0940   32.3330 C   0  0  0  0  0  0  0  0  0  0  0  0
   37.7430   22.8570   32.8280 C   0  0  0  0  0  0  0  0  0  0  0  0
   37.8700   22.6280   34.1810 C   0  0  0  0  0  0  0  0  0  0  0  0
   38.3180   23.6640   34.9960 C   0  0  0  0  0  0  0  0  0  0  0  0
   37.9290   24.1790   31.2540 H   0  0  0  0  0  0  0  0  0  0  0  0
   37.3920   22.0190   32.2420 H   0  0  0  0  0  0  0  0  0  0  0  0
   37.6360   21.6720   34.6430 H   0  0  0  0  0  0  0  0  0  0  0  0
   38.4640   23.4560   36.4370 C   0  0  0  0  0  0  0  0  0  0  0  0
   37.6560   23.8540   37.4350 N   0  0  0  0  0  0  0  0  0  0  0  0
   38.1710   23.4470   38.6250 C   0  0  0  0  0  0  0  0  0  0  0  0
   37.9010   23.5210   39.6490 H   0  0  0  0  0  0  0  0  0  0  0  0
   39.3180   22.7880   38.3400 N   0  0  0  0  0  0  0  0  0  0  0  0
   40.0990   22.2800   38.8440 H   0  0  0  0  0  0  0  0  0  0  0  0
   39.4810   22.8010   37.0270 N   0  0  0  0  0  0  0  0  0  0  0  0
  1  6  1  0  0  0  0
  2  1  2  0  0  0  0
  2  3  1  0  0  0  0
  3  4  2  0  0  0  0
  4  5  1  0  0  0  0
  4  8  1  0  0  0  0
  5  9  1  0  0  0  0
  6 21  1  0  0  0  0
  6  5  2  0  0  0  0
  7  3  1  0  0  0  0
 10 11  1  0  0  0  0
 11 12  2  0  0  0  0
 11  2  1  0  0  0  0
 12 17  1  0  0  0  0
 13 12  1  0  0  0  0
 14 13  2  0  0  0  0
 15 14  1  0  0  0  0
 15 10  2  0  0  0  0
 16 10  1  0  0  0  0
 18 14  1  0  0  0  0
 19  1  1  0  0  0  0
 20 19  1  0  0  0  0
 21 24  1  0  0  0  0
 23 28  1  0  0  0  0
 23 22  1  0  0  0  0
 24 23  2  0  0  0  0
 25 26  2  0  0  0  0
 25 24  1  0  0  0  0
 26 27  1  0  0  0  0
 27 31  1  0  0  0  0
 27 28  2  0  0  0  0
 28 32  1  0  0  0  0
 29 25  1  0  0  0  0
 30 26  1  0  0  0  0
 32 38  2  0  0  0  0
 32 33  1  0  0  0  0
 33 34  2  0  0  0  0
 34 35  1  0  0  0  0
 36 34  1  0  0  0  0
 36 37  1  0  0  0  0
 38 36  1  0  0  0  0
M  END
>  <minimizedAffinity>
-5.67667723

$$$$

 OpenBabel03272501233D

 38 41  0  0  0  0  0  0  0  0999 V2000
   37.4810   26.0240   31.7200 C   0  0  0  0  0  0  0  0  0  0  0  0
   37.6920   27.3980   31.6460 C   0  0  0  0  0  0  0  0  0  0  0  0
   38.9600   27.7740   31.2370 C   0  0  0  0  0  0  0  0  0  0  0  0
   39.9300   26.8200   30.9300 C   0  0  0  0  0  0  0  0  0  0  0  0
   39.6470   25.4710   31.0280 C   0  0  0  0  0  0  0  0  0  0  0  0
   38.4070   25.0700   31.4270 C   0  0  0  0  0  0  0  0  0  0  0  0
   39.2370   28.8250   31.1440 H   0  0  0  0  0  0  0  0  0  0  0  0
   40.9310   27.0970   30.6080 H   0  0  0  0  0  0  0  0  0  0  0  0
   40.3860   24.7020   30.7940 H   0  0  0  0  0  0  0  0  0  0  0  0
   36.1120   29.1550   30.9850 C   0  0  0  0  0  0  0  0  0  0  0  0
   36.6800   28.3600   31.9660 C   0  0  0  0  0  0  0  0  0  0  0  0
   36.2170   28.5410   33.2840 C   0  0  0  0  0  0  0  0  0  0  0  0
   35.2480   29.4810   33.5040 N   0  0  0  0  0  0  0  0  0  0  0  0
   34.7320   30.2260   32.5110 C   0  0  0  0  0  0  0  0  0  0  0  0
   35.1600   30.0700   31.2390 N   0  0  0  0  0  0  0  0  0  0  0  0
   36.4180   29.0770   29.9310 H   0  0  0  0  0  0  0  0  0  0  0  0
   36.6340   27.9390   34.0860 H   0  0  0  0  0  0  0  0  0  0  0  0
   33.9830   30.9190   32.8310 H   0  0  0  0  0  0  0  0  0  0  0  0
   36.2120   25.5450   32.1290 O   0  0  0  0  0  0  0  0  0  0  0  0
   35.4310   26.1750   32.2500 H   0  0  0  0  0  0  0  0  0  0  0  0
   38.1300   23.7140   31.5230 O   0  0  0  0  0  0  0  0  0  0  0  0
   39.5850   24.4160   34.0890 Cl  0  0  0  0  0  0  0  0  0  0  0  0
   38.3510   23.1970   33.9500 C   0  0  0  0  0  0  0  0  0  0  0  0
   37.8100   23.0340   32.6770 C   0  0  0  0  0  0  0  0  0  0  0  0
   36.8270   22.0730   32.5330 C   0  0  0  0  0  0  0  0  0  0  0  0
   36.3700   21.2920   33.5620 C   0  0  0  0  0  0  0  0  0  0  0  0
   36.9120   21.4610   34.8170 C   0  0  0  0  0  0  0  0  0  0  0  0
   37.9050   22.4210   34.9950 C   0  0  0  0  0  0  0  0  0  0  0  0
   36.3400   21.8680   31.5790 H   0  0  0  0  0  0  0  0  0  0  0  0
   35.6050   20.5340   33.4800 H   0  0  0  0  0  0  0  0  0  0  0  0
   36.5990   20.8770   35.6790 H   0  0  0  0  0  0  0  0  0  0  0  0
   38.5010   22.6270   36.3150 C   0  0  0  0  0  0  0  0  0  0  0  0
   38.0590   23.3840   37.3330 N   0  0  0  0  0  0  0  0  0  0  0  0
   38.9220   23.2880   38.3790 C   0  0  0  0  0  0  0  0  0  0  0  0
   38.9950   23.6860   39.3590 H   0  0  0  0  0  0  0  0  0  0  0  0
   39.9100   22.4530   37.9820 N   0  0  0  0  0  0  0  0  0  0  0  0
   40.8060   22.0320   38.3600 H   0  0  0  0  0  0  0  0  0  0  0  0
   39.6460   22.0650   36.7450 N   0  0  0  0  0  0  0  0  0  0  0  0
  1 19  1  0  0  0  0
  2  1  1  0  0  0  0
  2 11  1  0  0  0  0
  3  2  2  0  0  0  0
  4  5  2  0  0  0  0
  4  3  1  0  0  0  0
  5  6  1  0  0  0  0
  6 21  1  0  0  0  0
  6  1  2  0  0  0  0
  7  3  1  0  0  0  0
  8  4  1  0  0  0  0
  9  5  1  0  0  0  0
 10 15  2  0  0  0  0
 10 11  1  0  0  0  0
 11 12  2  0  0  0  0
 12 13  1  0  0  0  0
 12 17  1  0  0  0  0
 14 18  1  0  0  0  0
 14 13  2  0  0  0  0
 15 14  1  0  0  0  0
 16 10  1  0  0  0  0
 19 20  1  0  0  0  0
 21 24  1  0  0  0  0
 23 22  1  0  0  0  0
 23 28  1  0  0  0  0
 24 23  2  0  0  0  0
 25 24  1  0  0  0  0
 25 26  2  0  0  0  0
 26 27  1  0  0  0  0
 27 28  2  0  0  0  0
 27 31  1  0  0  0  0
 28 32  1  0  0  0  0
 29 25  1  0  0  0  0
 30 26  1  0  0  0  0
 32 38  2  0  0  0  0
 32 33  1  0  0  0  0
 33 34  2  0  0  0  0
 34 35  1  0  0  0  0
 36 37  1  0  0  0  0
 36 34  1  0  0  0  0
 38 36  1  0  0  0  0
M  END
>  <minimizedAffinity>
-5.65002537

$$$$

 OpenBabel03272501233D

 38 41  0  0  0  0  0  0  0  0999 V2000
   37.1310   28.0140   34.3660 C   0  0  0  0  0  0  0  0  0  0  0  0
   36.1210   28.5240   33.5540 C   0  0  0  0  0  0  0  0  0  0  0  0
   35.9710   27.8850   32.3350 C   0  0  0  0  0  0  0  0  0  0  0  0
   36.7890   26.8140   31.9790 C   0  0  0  0  0  0  0  0  0  0  0  0
   37.7730   26.3620   32.8380 C   0  0  0  0  0  0  0  0  0  0  0  0
   37.9440   26.9700   34.0450 C   0  0  0  0  0  0  0  0  0  0  0  0
   35.2110   28.2010   31.6190 H   0  0  0  0  0  0  0  0  0  0  0  0
   36.6860   26.3000   31.0260 H   0  0  0  0  0  0  0  0  0  0  0  0
   38.4270   25.5250   32.5860 H   0  0  0  0  0  0  0  0  0  0  0  0
   34.1000   29.4240   34.6150 C   0  0  0  0  0  0  0  0  0  0  0  0
   35.2930   29.6270   33.9410 C   0  0  0  0  0  0  0  0  0  0  0  0
   35.6490   30.9610   33.6590 C   0  0  0  0  0  0  0  0  0  0  0  0
   34.8030   31.9550   34.0630 N   0  0  0  0  0  0  0  0  0  0  0  0
   33.6550   31.6990   34.7150 C   0  0  0  0  0  0  0  0  0  0  0  0
   33.2910   30.4280   34.9980 N   0  0  0  0  0  0  0  0  0  0  0  0
   33.7480   28.4150   34.8740 H   0  0  0  0  0  0  0  0  0  0  0  0
   36.5770   31.1670   33.1310 H   0  0  0  0  0  0  0  0  0  0  0  0
   33.0940   32.5730   34.9690 H   0  0  0  0  0  0  0  0  0  0  0  0
   37.3580   28.6050   35.6340 O   0  0  0  0  0  0  0  0  0  0  0  0
   36.7270   29.3040   36.0040 H   0  0  0  0  0  0  0  0  0  0  0  0
   38.9330   26.5120   34.9030 O   0  0  0  0  0  0  0  0  0  0  0  0
   41.3440   24.6750   34.7940 Cl  0  0  0  0  0  0  0  0  0  0  0  0
   39.8930   24.3550   35.7000 C   0  0  0  0  0  0  0  0  0  0  0  0
   38.9040   25.3320   35.6130 C   0  0  0  0  0  0  0  0  0  0  0  0
   37.7390   25.1080   36.3220 C   0  0  0  0  0  0  0  0  0  0  0  0
   37.5170   23.9950   37.0880 C   0  0  0  0  0  0  0  0  0  0  0  0
   38.5010   23.0340   37.1680 C   0  0  0  0  0  0  0  0  0  0  0  0
   39.6870   23.2300   36.4650 C   0  0  0  0  0  0  0  0  0  0  0  0
   36.9050   25.8110   36.3200 H   0  0  0  0  0  0  0  0  0  0  0  0
   36.6180   23.7920   37.6520 H   0  0  0  0  0  0  0  0  0  0  0  0
   38.3940   22.1260   37.7560 H   0  0  0  0  0  0  0  0  0  0  0  0
   40.7540   22.2300   36.5270 C   0  0  0  0  0  0  0  0  0  0  0  0
   41.4870   21.7130   35.5270 N   0  0  0  0  0  0  0  0  0  0  0  0
   42.3700   20.8120   36.0320 C   0  0  0  0  0  0  0  0  0  0  0  0
   43.1260   20.1730   35.6480 H   0  0  0  0  0  0  0  0  0  0  0  0
   42.1640   20.7820   37.3690 N   0  0  0  0  0  0  0  0  0  0  0  0
   42.5410   20.2920   38.2290 H   0  0  0  0  0  0  0  0  0  0  0  0
   41.1940   21.6360   37.6520 N   0  0  0  0  0  0  0  0  0  0  0  0
  1 19  1  0  0  0  0
  2 11  1  0  0  0  0
  2  1  2  0  0  0  0
  3  2  1  0  0  0  0
  4  3  2  0  0  0  0
  4  5  1  0  0  0  0
  5  6  2  0  0  0  0
  6  1  1  0  0  0  0
  6 21  1  0  0  0  0
  7  3  1  0  0  0  0
  8  4  1  0  0  0  0
  9  5  1  0  0  0  0
 10 16  1  0  0  0  0
 10 15  1  0  0  0  0
 11 10  2  0  0  0  0
 12 11  1  0  0  0  0
 12 13  2  0  0  0  0
 13 14  1  0  0  0  0
 14 18  1  0  0  0  0
 14 15  2  0  0  0  0
 17 12  1  0  0  0  0
 19 20  1  0  0  0  0
 21 24  1  0  0  0  0
 22 23  1  0  0  0  0
 23 28  1  0  0  0  0
 24 23  2  0  0  0  0
 24 25  1  0  0  0  0
 25 26  2  0  0  0  0
 26 27  1  0  0  0  0
 26 30  1  0  0  0  0
 27 31  1  0  0  0  0
 28 32  1  0  0  0  0
 28 27  2  0  0  0  0
 29 25  1  0  0  0  0
 32 38  2  0  0  0  0
 33 34  2  0  0  0  0
 33 32  1  0  0  0  0
 34 36  1  0  0  0  0
 35 34  1  0  0  0  0
 36 38  1  0  0  0  0
 36 37  1  0  0  0  0
M  END
>  <minimizedAffinity>
-5.61662102

$$$$

 OpenBabel03272501233D

 38 41  0  0  0  0  0  0  0  0999 V2000
   38.7650   25.1640   34.0270 C   0  0  0  0  0  0  0  0  0  0  0  0
   38.4230   23.9600   34.6380 C   0  0  0  0  0  0  0  0  0  0  0  0
   37.9140   22.9960   33.7860 C   0  0  0  0  0  0  0  0  0  0  0  0
   37.7690   23.2450   32.4220 C   0  0  0  0  0  0  0  0  0  0  0  0
   38.1300   24.4670   31.8860 C   0  0  0  0  0  0  0  0  0  0  0  0
   38.6350   25.4360   32.7000 C   0  0  0  0  0  0  0  0  0  0  0  0
   37.6120   22.0140   34.1550 H   0  0  0  0  0  0  0  0  0  0  0  0
   37.3700   22.5000   31.7370 H   0  0  0  0  0  0  0  0  0  0  0  0
   38.0280   24.6900   30.8220 H   0  0  0  0  0  0  0  0  0  0  0  0
   37.6160   24.1290   36.9480 C   0  0  0  0  0  0  0  0  0  0  0  0
   38.5820   23.7260   36.0420 C   0  0  0  0  0  0  0  0  0  0  0  0
   39.7190   23.0790   36.5650 C   0  0  0  0  0  0  0  0  0  0  0  0
   39.7920   22.8950   37.9180 N   0  0  0  0  0  0  0  0  0  0  0  0
   38.8220   23.3090   38.7520 C   0  0  0  0  0  0  0  0  0  0  0  0
   37.7220   23.9320   38.2740 N   0  0  0  0  0  0  0  0  0  0  0  0
   36.6980   24.6420   36.6230 H   0  0  0  0  0  0  0  0  0  0  0  0
   40.5030   22.7450   35.8910 H   0  0  0  0  0  0  0  0  0  0  0  0
   39.0140   23.0980   39.7830 H   0  0  0  0  0  0  0  0  0  0  0  0
   39.2960   26.2110   34.8220 O   0  0  0  0  0  0  0  0  0  0  0  0
   39.5390   26.0580   35.7910 H   0  0  0  0  0  0  0  0  0  0  0  0
   38.9960   26.6600   32.1560 O   0  0  0  0  0  0  0  0  0  0  0  0
   39.7760   28.1230   29.6170 Cl  0  0  0  0  0  0  0  0  0  0  0  0
   38.2950   28.3780   30.4940 C   0  0  0  0  0  0  0  0  0  0  0  0
   38.1330   27.6000   31.6370 C   0  0  0  0  0  0  0  0  0  0  0  0
   36.9660   27.7780   32.3560 C   0  0  0  0  0  0  0  0  0  0  0  0
   35.9840   28.6650   32.0040 C   0  0  0  0  0  0  0  0  0  0  0  0
   36.1530   29.4310   30.8710 C   0  0  0  0  0  0  0  0  0  0  0  0
   37.3190   29.2750   30.1250 C   0  0  0  0  0  0  0  0  0  0  0  0
   36.7440   27.2180   33.2650 H   0  0  0  0  0  0  0  0  0  0  0  0
   35.0630   28.8270   32.5450 H   0  0  0  0  0  0  0  0  0  0  0  0
   35.4160   30.1550   30.5310 H   0  0  0  0  0  0  0  0  0  0  0  0
   37.5310   30.0720   28.9160 C   0  0  0  0  0  0  0  0  0  0  0  0
   37.2180   31.3580   28.6860 N   0  0  0  0  0  0  0  0  0  0  0  0
   37.5920   31.6970   27.4240 C   0  0  0  0  0  0  0  0  0  0  0  0
   37.5550   32.5650   26.8140 H   0  0  0  0  0  0  0  0  0  0  0  0
   38.1430   30.5880   26.8780 N   0  0  0  0  0  0  0  0  0  0  0  0
   38.5860   30.2760   25.9680 H   0  0  0  0  0  0  0  0  0  0  0  0
   38.1000   29.6230   27.7820 N   0  0  0  0  0  0  0  0  0  0  0  0
  1  2  1  0  0  0  0
  1 19  1  0  0  0  0
  2 11  1  0  0  0  0
  3  7  1  0  0  0  0
  3  2  2  0  0  0  0
  4  3  1  0  0  0  0
  5  4  2  0  0  0  0
  5  6  1  0  0  0  0
  6  1  2  0  0  0  0
  8  4  1  0  0  0  0
  9  5  1  0  0  0  0
 10 15  1  0  0  0  0
 11 12  1  0  0  0  0
 11 10  2  0  0  0  0
 12 13  2  0  0  0  0
 13 14  1  0  0  0  0
 14 18  1  0  0  0  0
 15 14  2  0  0  0  0
 16 10  1  0  0  0  0
 17 12  1  0  0  0  0
 19 20  1  0  0  0  0
 21  6  1  0  0  0  0
 22 23  1  0  0  0  0
 23 24  1  0  0  0  0
 24 21  1  0  0  0  0
 24 25  2  0  0  0  0
 25 29  1  0  0  0  0
 26 25  1  0  0  0  0
 26 30  1  0  0  0  0
 27 26  2  0  0  0  0
 28 23  2  0  0  0  0
 28 27  1  0  0  0  0
 31 27  1  0  0  0  0
 32 28  1  0  0  0  0
 33 32  1  0  0  0  0
 34 33  2  0  0  0  0
 35 34  1  0  0  0  0
 36 34  1  0  0  0  0
 36 38  1  0  0  0  0
 37 36  1  0  0  0  0
 38 32  2  0  0  0  0
M  END
>  <minimizedAffinity>
-5.60355854

$$$$

 OpenBabel03272501233D

 38 41  0  0  0  0  0  0  0  0999 V2000
   39.3850   25.1970   33.9250 C   0  0  0  0  0  0  0  0  0  0  0  0
   40.5200   24.9980   34.7090 C   0  0  0  0  0  0  0  0  0  0  0  0
   41.4850   25.9840   34.6020 C   0  0  0  0  0  0  0  0  0  0  0  0
   41.3030   27.0810   33.7610 C   0  0  0  0  0  0  0  0  0  0  0  0
   40.1490   27.2110   33.0120 C   0  0  0  0  0  0  0  0  0  0  0  0
   39.1800   26.2570   33.0970 C   0  0  0  0  0  0  0  0  0  0  0  0
   42.4150   25.9310   35.1700 H   0  0  0  0  0  0  0  0  0  0  0  0
   42.0510   27.8650   33.6630 H   0  0  0  0  0  0  0  0  0  0  0  0
   39.9790   28.0600   32.3450 H   0  0  0  0  0  0  0  0  0  0  0  0
   39.8200   23.6310   36.6230 C   0  0  0  0  0  0  0  0  0  0  0  0
   40.6840   23.8620   35.5660 C   0  0  0  0  0  0  0  0  0  0  0  0
   41.7250   22.9310   35.3760 C   0  0  0  0  0  0  0  0  0  0  0  0
   41.8110   21.8740   36.2380 N   0  0  0  0  0  0  0  0  0  0  0  0
   40.9420   21.7010   37.2500 C   0  0  0  0  0  0  0  0  0  0  0  0
   39.9360   22.5790   37.4520 N   0  0  0  0  0  0  0  0  0  0  0  0
   38.9810   24.3090   36.8410 H   0  0  0  0  0  0  0  0  0  0  0  0
   42.4270   23.0730   34.5590 H   0  0  0  0  0  0  0  0  0  0  0  0
   41.1320   20.8310   37.8430 H   0  0  0  0  0  0  0  0  0  0  0  0
   38.3420   24.2390   33.9710 O   0  0  0  0  0  0  0  0  0  0  0  0
   38.3550   23.4850   34.6440 H   0  0  0  0  0  0  0  0  0  0  0  0
   38.0240   26.3940   32.3410 O   0  0  0  0  0  0  0  0  0  0  0  0
   36.7220   27.5130   34.8410 Cl  0  0  0  0  0  0  0  0  0  0  0  0
   36.5760   28.2060   33.2510 C   0  0  0  0  0  0  0  0  0  0  0  0
   37.2560   27.5320   32.2390 C   0  0  0  0  0  0  0  0  0  0  0  0
   37.1610   28.0570   30.9640 C   0  0  0  0  0  0  0  0  0  0  0  0
   36.4440   29.1840   30.6570 C   0  0  0  0  0  0  0  0  0  0  0  0
   35.7740   29.8420   31.6650 C   0  0  0  0  0  0  0  0  0  0  0  0
   35.8500   29.3380   32.9610 C   0  0  0  0  0  0  0  0  0  0  0  0
   37.6550   27.6060   30.1030 H   0  0  0  0  0  0  0  0  0  0  0  0
   36.3500   29.6170   29.6710 H   0  0  0  0  0  0  0  0  0  0  0  0
   35.1870   30.7410   31.4950 H   0  0  0  0  0  0  0  0  0  0  0  0
   35.1520   30.0130   34.0550 C   0  0  0  0  0  0  0  0  0  0  0  0
   35.5970   30.9860   34.8690 N   0  0  0  0  0  0  0  0  0  0  0  0
   34.6180   31.3240   35.7480 C   0  0  0  0  0  0  0  0  0  0  0  0
   34.5020   32.0110   36.5490 H   0  0  0  0  0  0  0  0  0  0  0  0
   33.5560   30.5360   35.4600 N   0  0  0  0  0  0  0  0  0  0  0  0
   32.5670   30.3660   35.7980 H   0  0  0  0  0  0  0  0  0  0  0  0
   33.8900   29.7570   34.4440 N   0  0  0  0  0  0  0  0  0  0  0  0
  1 19  1  0  0  0  0
  1  2  1  0  0  0  0
  2 11  1  0  0  0  0
  3  2  2  0  0  0  0
  3  7  1  0  0  0  0
  4  3  1  0  0  0  0
  5  6  1  0  0  0  0
  5  4  2  0  0  0  0
  6  1  2  0  0  0  0
  8  4  1  0  0  0  0
  9  5  1  0  0  0  0
 10 16  1  0  0  0  0
 10 15  1  0  0  0  0
 11 10  2  0  0  0  0
 12 11  1  0  0  0  0
 12 13  2  0  0  0  0
 13 14  1  0  0  0  0
 14 15  2  0  0  0  0
 14 18  1  0  0  0  0
 17 12  1  0  0  0  0
 19 20  1  0  0  0  0
 21  6  1  0  0  0  0
 23 22  1  0  0  0  0
 24 21  1  0  0  0  0
 24 23  2  0  0  0  0
 25 24  1  0  0  0  0
 26 25  2  0  0  0  0
 26 27  1  0  0  0  0
 27 28  2  0  0  0  0
 28 23  1  0  0  0  0
 28 32  1  0  0  0  0
 29 25  1  0  0  0  0
 30 26  1  0  0  0  0
 31 27  1  0  0  0  0
 32 38  2  0  0  0  0
 32 33  1  0  0  0  0
 33 34  2  0  0  0  0
 34 35  1  0  0  0  0
 36 34  1  0  0  0  0
 36 37  1  0  0  0  0
 38 36  1  0  0  0  0
M  END
>  <minimizedAffinity>
-5.54314184

$$$$
