
 OpenBabel03272500393D

 23 25  0  0  1  0  0  0  0  0999 V2000
   37.0550   31.5030   47.5450 C   0  0  1  0  0  0  0  0  0  0  0  0
   36.2720   30.3350   47.1590 C   0  0  0  0  0  0  0  0  0  0  0  0
   37.4490   30.1320   48.0710 C   0  0  2  0  0  0  0  0  0  0  0  0
   36.6480   32.2250   48.2620 H   0  0  0  0  0  0  0  0  0  0  0  0
   35.2790   30.1700   47.5990 H   0  0  0  0  0  0  0  0  0  0  0  0
   36.3760   29.8540   46.1500 H   0  0  0  0  0  0  0  0  0  0  0  0
   38.3530   29.6580   47.6420 H   0  0  0  0  0  0  0  0  0  0  0  0
   38.0810   32.0920   46.6130 C   0  0  0  0  0  0  0  0  0  0  0  0
   39.2340   32.6370   47.2030 C   0  0  0  0  0  0  0  0  0  0  0  0
   40.1660   33.1950   46.3310 C   0  0  0  0  0  0  0  0  0  0  0  0
   39.9090   33.1800   44.9870 N   0  0  0  0  0  0  0  0  0  0  0  0
   38.7820   32.6440   44.4560 C   0  0  0  0  0  0  0  0  0  0  0  0
   37.8630   32.0960   45.2820 N   0  0  0  0  0  0  0  0  0  0  0  0
   39.3290   32.5920   48.2770 H   0  0  0  0  0  0  0  0  0  0  0  0
   41.0510   33.6170   46.7520 H   0  0  0  0  0  0  0  0  0  0  0  0
   38.6570   32.6740   43.3820 H   0  0  0  0  0  0  0  0  0  0  0  0
   37.2230   29.9790   49.5280 C   0  0  0  0  0  0  0  0  0  0  0  0
   37.9700   30.4510   50.5260 N   0  0  0  0  0  0  0  0  0  0  0  0
   37.4250   30.0940   51.6980 C   0  0  0  0  0  0  0  0  0  0  0  0
   37.7960   30.3250   52.7020 H   0  0  0  0  0  0  0  0  0  0  0  0
   36.3180   29.3870   51.4270 N   0  0  0  0  0  0  0  0  0  0  0  0
   35.6880   28.9800   52.1690 H   0  0  0  0  0  0  0  0  0  0  0  0
   36.2020   29.3210   50.0950 N   0  0  0  0  0  0  0  0  0  0  0  0
  1  3  1  0  0  0  0
  1  4  1  1  0  0  0
  2  1  1  0  0  0  0
  2  5  1  0  0  0  0
  2  3  1  0  0  0  0
  3  7  1  6  0  0  0
  3 17  1  0  0  0  0
  6  2  1  0  0  0  0
  8  9  1  0  0  0  0
  8  1  1  0  0  0  0
  9 14  1  0  0  0  0
 10 15  1  0  0  0  0
 10  9  2  0  0  0  0
 11 10  1  0  0  0  0
 12 11  2  0  0  0  0
 12 13  1  0  0  0  0
 13  8  2  0  0  0  0
 16 12  1  0  0  0  0
 17 23  2  0  0  0  0
 17 18  1  0  0  0  0
 18 19  2  0  0  0  0
 19 20  1  0  0  0  0
 21 19  1  0  0  0  0
 21 22  1  0  0  0  0
 23 21  1  0  0  0  0
M  END
>  <minimizedAffinity>
-4.57973576

>  <minimizedRMSD>
3.22620511

$$$$
