
 OpenBabel03272501133D

 26 28  0  0  1  0  0  0  0  0999 V2000
   36.7650   31.1270   50.1850 C   0  0  1  0  0  0  0  0  0  0  0  0
   36.5320   29.7030   50.1710 C   0  0  1  0  0  0  0  0  0  0  0  0
   37.4750   30.2520   51.2160 C   0  0  0  0  0  0  0  0  0  0  0  0
   36.0020   31.8310   50.5950 H   0  0  0  0  0  0  0  0  0  0  0  0
   37.1090   29.1150   49.3920 H   0  0  0  0  0  0  0  0  0  0  0  0
   37.0520   30.3340   52.2360 H   0  0  0  0  0  0  0  0  0  0  0  0
   38.5590   30.1140   51.1440 H   0  0  0  0  0  0  0  0  0  0  0  0
   37.7410   31.7660   49.2170 C   0  0  0  0  0  0  0  0  0  0  0  0
   38.1970   33.0400   49.5560 C   0  0  0  0  0  0  0  0  0  0  0  0
   39.0760   33.6150   48.6380 C   0  0  0  0  0  0  0  0  0  0  0  0
   39.4400   32.9450   47.4990 N   0  0  0  0  0  0  0  0  0  0  0  0
   38.9600   31.6970   47.2190 C   0  0  0  0  0  0  0  0  0  0  0  0
   38.0970   31.1090   48.1010 N   0  0  0  0  0  0  0  0  0  0  0  0
   37.8870   33.5350   50.4640 H   0  0  0  0  0  0  0  0  0  0  0  0
   39.4760   34.6030   48.8280 H   0  0  0  0  0  0  0  0  0  0  0  0
   39.2670   31.1960   46.3110 H   0  0  0  0  0  0  0  0  0  0  0  0
   35.1740   29.1940   50.5640 C   0  0  0  0  0  0  0  0  0  0  0  0
   35.3480   28.2090   51.0850 H   0  0  0  0  0  0  0  0  0  0  0  0
   34.7310   29.8830   51.3010 H   0  0  0  0  0  0  0  0  0  0  0  0
   34.2760   28.9590   49.3990 C   0  0  0  0  0  0  0  0  0  0  0  0
   34.7050   29.2920   48.1490 N   0  0  0  0  0  0  0  0  0  0  0  0
   33.6940   28.9680   47.3350 C   0  0  0  0  0  0  0  0  0  0  0  0
   33.7400   29.1190   46.2550 H   0  0  0  0  0  0  0  0  0  0  0  0
   32.6850   28.4510   48.0740 N   0  0  0  0  0  0  0  0  0  0  0  0
   31.8040   28.1420   47.5660 H   0  0  0  0  0  0  0  0  0  0  0  0
   33.0320   28.4400   49.3570 N   0  0  0  0  0  0  0  0  0  0  0  0
  1  4  1  1  0  0  0
  1  3  1  0  0  0  0
  2  5  1  6  0  0  0
  2  1  1  0  0  0  0
  2 17  1  0  0  0  0
  2  3  1  0  0  0  0
  3  6  1  0  0  0  0
  7  3  1  0  0  0  0
  8  9  1  0  0  0  0
  8  1  1  0  0  0  0
  9 14  1  0  0  0  0
 10 15  1  0  0  0  0
 10  9  2  0  0  0  0
 11 10  1  0  0  0  0
 12 11  2  0  0  0  0
 12 13  1  0  0  0  0
 13  8  2  0  0  0  0
 16 12  1  0  0  0  0
 17 18  1  0  0  0  0
 17 19  1  0  0  0  0
 20 17  1  0  0  0  0
 21 20  1  0  0  0  0
 22 24  1  0  0  0  0
 22 21  2  0  0  0  0
 23 22  1  0  0  0  0
 24 26  1  0  0  0  0
 25 24  1  0  0  0  0
 26 20  2  0  0  0  0
M  END
>  <minimizedAffinity>
-5.26346779

>  <minimizedRMSD>
1.15390384

$$$$
