
 OpenBabel03272507193D

 28 30  0  0  1  0  0  0  0  0999 V2000
   37.3290   31.2640   49.4200 C   0  0  0  0  0  0  0  0  0  0  0  0
   38.2970   32.2600   49.5020 C   0  0  0  0  0  0  0  0  0  0  0  0
   38.8050   32.6870   48.2770 C   0  0  0  0  0  0  0  0  0  0  0  0
   38.3610   32.1450   47.0950 N   0  0  0  0  0  0  0  0  0  0  0  0
   37.4130   31.1730   47.0680 C   0  0  0  0  0  0  0  0  0  0  0  0
   36.8910   30.7290   48.2470 N   0  0  0  0  0  0  0  0  0  0  0  0
   38.6290   32.6690   50.4290 H   0  0  0  0  0  0  0  0  0  0  0  0
   39.5650   33.4600   48.2270 H   0  0  0  0  0  0  0  0  0  0  0  0
   36.7520   30.7970   50.7190 C   0  0  1  0  0  0  0  0  0  0  0  0
   36.0420   29.5230   50.8320 C   0  0  2  0  0  0  0  0  0  0  0  0
   37.4790   29.5450   51.2530 C   0  0  0  0  0  0  0  0  0  0  0  0
   36.6700   31.6180   51.4790 H   0  0  0  0  0  0  0  0  0  0  0  0
   35.1960   29.5750   51.5750 H   0  0  0  0  0  0  0  0  0  0  0  0
   38.2260   29.0520   50.6220 H   0  0  0  0  0  0  0  0  0  0  0  0
   37.6720   29.5330   52.3400 H   0  0  0  0  0  0  0  0  0  0  0  0
   35.6930   28.8810   49.6510 O   0  0  0  0  0  0  0  0  0  0  0  0
   34.4810   28.4320   49.2440 C   0  0  0  0  0  0  0  0  0  0  0  0
   34.3550   27.4560   48.4740 O   0  0  0  0  0  0  0  0  0  0  0  0
   33.4920   29.2260   49.8210 N   0  0  0  0  0  0  0  0  0  0  0  0
   33.4250   30.2420   49.8680 H   0  0  0  0  0  0  0  0  0  0  0  0
   32.7340   28.6580   50.2520 H   0  0  0  0  0  0  0  0  0  0  0  0
   37.0070   30.6620   45.7860 C   0  0  0  0  0  0  0  0  0  0  0  0
   35.7570   30.1550   45.5780 N   0  0  0  0  0  0  0  0  0  0  0  0
   35.6270   29.7430   44.2970 C   0  0  0  0  0  0  0  0  0  0  0  0
   34.6780   29.3210   44.0070 H   0  0  0  0  0  0  0  0  0  0  0  0
   36.8060   29.9970   43.7030 N   0  0  0  0  0  0  0  0  0  0  0  0
   36.9470   29.7640   42.7050 H   0  0  0  0  0  0  0  0  0  0  0  0
   37.6420   30.5510   44.5920 N   0  0  0  0  0  0  0  0  0  0  0  0
  1  2  1  0  0  0  0
  1  9  1  0  0  0  0
  2  7  1  0  0  0  0
  3  2  2  0  0  0  0
  4  3  1  0  0  0  0
  5  4  2  0  0  0  0
  5  6  1  0  0  0  0
  6  1  2  0  0  0  0
  8  3  1  0  0  0  0
  9 10  1  0  0  0  0
  9 11  1  0  0  0  0
  9 12  1  1  0  0  0
 10 11  1  0  0  0  0
 10 13  1  1  0  0  0
 11 15  1  0  0  0  0
 14 11  1  0  0  0  0
 16 10  1  0  0  0  0
 17 16  1  0  0  0  0
 17 19  1  0  0  0  0
 18 17  2  0  0  0  0
 19 20  1  0  0  0  0
 19 21  1  0  0  0  0
 22  5  1  0  0  0  0
 23 22  1  0  0  0  0
 24 23  2  0  0  0  0
 25 24  1  0  0  0  0
 26 24  1  0  0  0  0
 26 28  1  0  0  0  0
 27 26  1  0  0  0  0
 28 22  2  0  0  0  0
M  END
>  <minimizedAffinity>
-5.20891285

>  <minimizedRMSD>
0.102121405

$$$$
