
 OpenBabel03272505143D

 37 40  0  0  0  0  0  0  0  0999 V2000
   37.0540   27.8890   34.2860 Cl  0  0  0  0  0  0  0  0  0  0  0  0
   37.0220   28.3060   32.5920 C   0  0  0  0  0  0  0  0  0  0  0  0
   35.9900   29.1110   32.1590 C   0  0  0  0  0  0  0  0  0  0  0  0
   35.9520   29.4490   30.8180 C   0  0  0  0  0  0  0  0  0  0  0  0
   36.9250   28.9820   29.9720 C   0  0  0  0  0  0  0  0  0  0  0  0
   37.9400   28.1720   30.4770 C   0  0  0  0  0  0  0  0  0  0  0  0
   38.0320   27.8030   31.7930 C   0  0  0  0  0  0  0  0  0  0  0  0
   35.1370   30.0830   30.4790 H   0  0  0  0  0  0  0  0  0  0  0  0
   36.9010   29.2440   28.9210 H   0  0  0  0  0  0  0  0  0  0  0  0
   38.6970   27.8190   29.7800 H   0  0  0  0  0  0  0  0  0  0  0  0
   32.7620   29.4490   33.8190 C   0  0  0  0  0  0  0  0  0  0  0  0
   32.9870   30.3970   34.8290 C   0  0  0  0  0  0  0  0  0  0  0  0
   34.2760   30.9170   34.9250 C   0  0  0  0  0  0  0  0  0  0  0  0
   35.2390   30.4930   34.0550 N   0  0  0  0  0  0  0  0  0  0  0  0
   34.9670   29.5860   33.1140 C   0  0  0  0  0  0  0  0  0  0  0  0
   33.7430   29.0800   33.0080 N   0  0  0  0  0  0  0  0  0  0  0  0
   31.7910   28.9920   33.6700 H   0  0  0  0  0  0  0  0  0  0  0  0
   32.1870   30.6930   35.4860 H   0  0  0  0  0  0  0  0  0  0  0  0
   34.5030   31.6540   35.6900 H   0  0  0  0  0  0  0  0  0  0  0  0
   39.3110   26.7760   32.4570 S   0  0  0  0  0  0  0  0  0  0  0  0
   39.8280   26.0010   35.4560 Cl  0  0  0  0  0  0  0  0  0  0  0  0
   38.9410   24.9390   34.3840 C   0  0  0  0  0  0  0  0  0  0  0  0
   38.6640   25.2030   33.0310 C   0  0  0  0  0  0  0  0  0  0  0  0
   37.9570   24.2890   32.2880 C   0  0  0  0  0  0  0  0  0  0  0  0
   37.5210   23.1240   32.8510 C   0  0  0  0  0  0  0  0  0  0  0  0
   37.7670   22.8160   34.1800 C   0  0  0  0  0  0  0  0  0  0  0  0
   38.4720   23.7400   34.8990 C   0  0  0  0  0  0  0  0  0  0  0  0
   37.7870   24.5700   31.2540 H   0  0  0  0  0  0  0  0  0  0  0  0
   36.9640   22.4100   32.2580 H   0  0  0  0  0  0  0  0  0  0  0  0
   37.4070   21.8880   34.5910 H   0  0  0  0  0  0  0  0  0  0  0  0
   38.7310   23.4140   36.2980 C   0  0  0  0  0  0  0  0  0  0  0  0
   37.9990   23.8260   37.3480 N   0  0  0  0  0  0  0  0  0  0  0  0
   38.4850   23.3640   38.5120 C   0  0  0  0  0  0  0  0  0  0  0  0
   37.9890   23.6220   39.4340 H   0  0  0  0  0  0  0  0  0  0  0  0
   39.5580   22.6380   38.1710 N   0  0  0  0  0  0  0  0  0  0  0  0
   40.1360   22.1540   38.9030 H   0  0  0  0  0  0  0  0  0  0  0  0
   39.7230   22.6560   36.8440 N   0  0  0  0  0  0  0  0  0  0  0  0
  2  1  1  0  0  0  0
  3  2  1  0  0  0  0
  3 15  1  0  0  0  0
  4  3  2  0  0  0  0
  5  6  2  0  0  0  0
  5  4  1  0  0  0  0
  6  7  1  0  0  0  0
  7 20  1  0  0  0  0
  7  2  2  0  0  0  0
  8  4  1  0  0  0  0
  9  5  1  0  0  0  0
 10  6  1  0  0  0  0
 11 12  1  0  0  0  0
 12 13  2  0  0  0  0
 12 18  1  0  0  0  0
 13 19  1  0  0  0  0
 14 13  1  0  0  0  0
 15 14  2  0  0  0  0
 16 15  1  0  0  0  0
 16 11  2  0  0  0  0
 17 11  1  0  0  0  0
 20 23  1  0  0  0  0
 22 27  1  0  0  0  0
 22 21  1  0  0  0  0
 23 22  2  0  0  0  0
 24 25  2  0  0  0  0
 24 23  1  0  0  0  0
 25 26  1  0  0  0  0
 26 30  1  0  0  0  0
 26 27  2  0  0  0  0
 27 31  1  0  0  0  0
 28 24  1  0  0  0  0
 29 25  1  0  0  0  0
 31 37  2  0  0  0  0
 31 32  1  0  0  0  0
 32 33  2  0  0  0  0
 33 34  1  0  0  0  0
 35 33  1  0  0  0  0
 35 36  1  0  0  0  0
 37 35  1  0  0  0  0
M  END
>  <minimizedAffinity>
-5.94175577

$$$$

 OpenBabel03272505143D

 37 40  0  0  0  0  0  0  0  0999 V2000
   36.3200   27.6970   34.6170 Cl  0  0  0  0  0  0  0  0  0  0  0  0
   36.3240   28.5140   33.0740 C   0  0  0  0  0  0  0  0  0  0  0  0
   35.8040   29.7900   33.0350 C   0  0  0  0  0  0  0  0  0  0  0  0
   35.8000   30.4500   31.8190 C   0  0  0  0  0  0  0  0  0  0  0  0
   36.3050   29.8270   30.7070 C   0  0  0  0  0  0  0  0  0  0  0  0
   36.8150   28.5350   30.8180 C   0  0  0  0  0  0  0  0  0  0  0  0
   36.8460   27.8310   31.9930 C   0  0  0  0  0  0  0  0  0  0  0  0
   35.3890   31.4560   31.7910 H   0  0  0  0  0  0  0  0  0  0  0  0
   36.3040   30.3390   29.7520 H   0  0  0  0  0  0  0  0  0  0  0  0
   37.2080   28.0690   29.9170 H   0  0  0  0  0  0  0  0  0  0  0  0
   33.4190   30.7730   35.6110 C   0  0  0  0  0  0  0  0  0  0  0  0
   34.1770   31.5320   36.5170 C   0  0  0  0  0  0  0  0  0  0  0  0
   35.5280   31.6970   36.2190 C   0  0  0  0  0  0  0  0  0  0  0  0
   36.0420   31.1280   35.0900 N   0  0  0  0  0  0  0  0  0  0  0  0
   35.2720   30.4150   34.2650 C   0  0  0  0  0  0  0  0  0  0  0  0
   33.9820   30.2480   34.5320 N   0  0  0  0  0  0  0  0  0  0  0  0
   32.3610   30.5930   35.7610 H   0  0  0  0  0  0  0  0  0  0  0  0
   33.7140   31.9560   37.3920 H   0  0  0  0  0  0  0  0  0  0  0  0
   36.1580   32.2750   36.8880 H   0  0  0  0  0  0  0  0  0  0  0  0
   37.4890   26.1900   32.1570 S   0  0  0  0  0  0  0  0  0  0  0  0
   37.8340   23.6980   34.0360 Cl  0  0  0  0  0  0  0  0  0  0  0  0
   39.0040   24.9990   34.0320 C   0  0  0  0  0  0  0  0  0  0  0  0
   38.9300   26.1500   33.2270 C   0  0  0  0  0  0  0  0  0  0  0  0
   39.9120   27.1060   33.3120 C   0  0  0  0  0  0  0  0  0  0  0  0
   40.9610   26.9520   34.1730 C   0  0  0  0  0  0  0  0  0  0  0  0
   41.0800   25.8370   34.9870 C   0  0  0  0  0  0  0  0  0  0  0  0
   40.0920   24.8990   34.8850 C   0  0  0  0  0  0  0  0  0  0  0  0
   39.7790   27.9620   32.6570 H   0  0  0  0  0  0  0  0  0  0  0  0
   41.7300   27.7110   34.2330 H   0  0  0  0  0  0  0  0  0  0  0  0
   41.9220   25.7470   35.6540 H   0  0  0  0  0  0  0  0  0  0  0  0
   40.2190   23.7250   35.7440 C   0  0  0  0  0  0  0  0  0  0  0  0
   41.0930   22.7170   35.5700 N   0  0  0  0  0  0  0  0  0  0  0  0
   40.9720   21.7780   36.5230 C   0  0  0  0  0  0  0  0  0  0  0  0
   41.6150   20.9130   36.5010 H   0  0  0  0  0  0  0  0  0  0  0  0
   39.9870   22.2190   37.3160 N   0  0  0  0  0  0  0  0  0  0  0  0
   39.6820   21.6660   38.1560 H   0  0  0  0  0  0  0  0  0  0  0  0
   39.5220   23.3890   36.8640 N   0  0  0  0  0  0  0  0  0  0  0  0
  2  1  1  0  0  0  0
  3  2  1  0  0  0  0
  3 15  1  0  0  0  0
  4  3  2  0  0  0  0
  5  6  2  0  0  0  0
  5  4  1  0  0  0  0
  6  7  1  0  0  0  0
  7 20  1  0  0  0  0
  7  2  2  0  0  0  0
  8  4  1  0  0  0  0
  9  5  1  0  0  0  0
 10  6  1  0  0  0  0
 11 17  1  0  0  0  0
 11 12  1  0  0  0  0
 12 18  1  0  0  0  0
 13 12  2  0  0  0  0
 13 19  1  0  0  0  0
 14 13  1  0  0  0  0
 15 16  1  0  0  0  0
 15 14  2  0  0  0  0
 16 11  2  0  0  0  0
 20 23  1  0  0  0  0
 22 21  1  0  0  0  0
 22 27  1  0  0  0  0
 23 24  1  0  0  0  0
 23 22  2  0  0  0  0
 24 25  2  0  0  0  0
 25 29  1  0  0  0  0
 25 26  1  0  0  0  0
 26 30  1  0  0  0  0
 27 26  2  0  0  0  0
 27 31  1  0  0  0  0
 28 24  1  0  0  0  0
 31 37  2  0  0  0  0
 32 31  1  0  0  0  0
 32 33  2  0  0  0  0
 33 35  1  0  0  0  0
 34 33  1  0  0  0  0
 35 36  1  0  0  0  0
 37 35  1  0  0  0  0
M  END
>  <minimizedAffinity>
-5.83501911

$$$$

 OpenBabel03272505143D

 37 40  0  0  0  0  0  0  0  0999 V2000
   37.1370   28.0250   34.7030 Cl  0  0  0  0  0  0  0  0  0  0  0  0
   36.8710   28.4170   33.0220 C   0  0  0  0  0  0  0  0  0  0  0  0
   35.7910   29.2200   32.7250 C   0  0  0  0  0  0  0  0  0  0  0  0
   35.5680   29.5390   31.3970 C   0  0  0  0  0  0  0  0  0  0  0  0
   36.4130   29.0550   30.4320 C   0  0  0  0  0  0  0  0  0  0  0  0
   37.4860   28.2470   30.8030 C   0  0  0  0  0  0  0  0  0  0  0  0
   37.7580   27.8970   32.0990 C   0  0  0  0  0  0  0  0  0  0  0  0
   34.7160   30.1720   31.1650 H   0  0  0  0  0  0  0  0  0  0  0  0
   36.2430   29.3020   29.3910 H   0  0  0  0  0  0  0  0  0  0  0  0
   38.1370   27.8810   30.0130 H   0  0  0  0  0  0  0  0  0  0  0  0
   34.6280   31.2420   35.5270 C   0  0  0  0  0  0  0  0  0  0  0  0
   33.3650   30.7140   35.8370 C   0  0  0  0  0  0  0  0  0  0  0  0
   32.9240   29.6460   35.0590 C   0  0  0  0  0  0  0  0  0  0  0  0
   33.7180   29.1720   34.0550 N   0  0  0  0  0  0  0  0  0  0  0  0
   34.9110   29.7150   33.8050 C   0  0  0  0  0  0  0  0  0  0  0  0
   35.3480   30.7340   34.5370 N   0  0  0  0  0  0  0  0  0  0  0  0
   35.0520   32.0730   36.0790 H   0  0  0  0  0  0  0  0  0  0  0  0
   32.7840   31.1320   36.6420 H   0  0  0  0  0  0  0  0  0  0  0  0
   31.9530   29.2020   35.2580 H   0  0  0  0  0  0  0  0  0  0  0  0
   39.1140   26.8740   32.5940 S   0  0  0  0  0  0  0  0  0  0  0  0
   40.2520   25.7270   35.2870 Cl  0  0  0  0  0  0  0  0  0  0  0  0
   39.1190   24.8100   34.3170 C   0  0  0  0  0  0  0  0  0  0  0  0
   38.5610   25.2440   33.1020 C   0  0  0  0  0  0  0  0  0  0  0  0
   37.6800   24.4330   32.4280 C   0  0  0  0  0  0  0  0  0  0  0  0
   37.3420   23.2070   32.9280 C   0  0  0  0  0  0  0  0  0  0  0  0
   37.8640   22.7350   34.1210 C   0  0  0  0  0  0  0  0  0  0  0  0
   38.7370   23.5580   34.7730 C   0  0  0  0  0  0  0  0  0  0  0  0
   37.2960   24.8420   31.5000 H   0  0  0  0  0  0  0  0  0  0  0  0
   36.6470   22.5750   32.3910 H   0  0  0  0  0  0  0  0  0  0  0  0
   37.5740   21.7630   34.4860 H   0  0  0  0  0  0  0  0  0  0  0  0
   39.2870   23.0580   36.0300 C   0  0  0  0  0  0  0  0  0  0  0  0
   40.4520   22.3990   36.1690 N   0  0  0  0  0  0  0  0  0  0  0  0
   40.6900   22.0660   37.4480 C   0  0  0  0  0  0  0  0  0  0  0  0
   41.5930   21.5330   37.6980 H   0  0  0  0  0  0  0  0  0  0  0  0
   39.6350   22.5340   38.1270 N   0  0  0  0  0  0  0  0  0  0  0  0
   39.5630   22.4070   39.1680 H   0  0  0  0  0  0  0  0  0  0  0  0
   38.7800   23.1340   37.2910 N   0  0  0  0  0  0  0  0  0  0  0  0
  2  1  1  0  0  0  0
  3  2  1  0  0  0  0
  3 15  1  0  0  0  0
  4  3  2  0  0  0  0
  5  6  2  0  0  0  0
  5  4  1  0  0  0  0
  6  7  1  0  0  0  0
  7 20  1  0  0  0  0
  7  2  2  0  0  0  0
  8  4  1  0  0  0  0
  9  5  1  0  0  0  0
 10  6  1  0  0  0  0
 11 12  1  0  0  0  0
 11 17  1  0  0  0  0
 12 18  1  0  0  0  0
 13 19  1  0  0  0  0
 13 12  2  0  0  0  0
 14 13  1  0  0  0  0
 15 14  2  0  0  0  0
 15 16  1  0  0  0  0
 16 11  2  0  0  0  0
 20 23  1  0  0  0  0
 22 27  1  0  0  0  0
 22 21  1  0  0  0  0
 23 22  2  0  0  0  0
 24 25  2  0  0  0  0
 24 23  1  0  0  0  0
 25 26  1  0  0  0  0
 26 30  1  0  0  0  0
 26 27  2  0  0  0  0
 27 31  1  0  0  0  0
 28 24  1  0  0  0  0
 29 25  1  0  0  0  0
 31 32  1  0  0  0  0
 31 37  2  0  0  0  0
 32 33  2  0  0  0  0
 33 34  1  0  0  0  0
 33 35  1  0  0  0  0
 35 36  1  0  0  0  0
 37 35  1  0  0  0  0
M  END
>  <minimizedAffinity>
-5.77109528

$$$$

 OpenBabel03272505143D

 37 40  0  0  0  0  0  0  0  0999 V2000
   35.0800   30.0880   33.8200 Cl  0  0  0  0  0  0  0  0  0  0  0  0
   36.0000   29.5340   32.4440 C   0  0  0  0  0  0  0  0  0  0  0  0
   35.8480   30.2280   31.2630 C   0  0  0  0  0  0  0  0  0  0  0  0
   36.5700   29.7990   30.1630 C   0  0  0  0  0  0  0  0  0  0  0  0
   37.4020   28.7150   30.2780 C   0  0  0  0  0  0  0  0  0  0  0  0
   37.5070   28.0590   31.5030 C   0  0  0  0  0  0  0  0  0  0  0  0
   36.8190   28.4360   32.6260 C   0  0  0  0  0  0  0  0  0  0  0  0
   36.4490   30.3480   29.2330 H   0  0  0  0  0  0  0  0  0  0  0  0
   37.9700   28.3750   29.4210 H   0  0  0  0  0  0  0  0  0  0  0  0
   38.1760   27.2040   31.5610 H   0  0  0  0  0  0  0  0  0  0  0  0
   34.7310   33.6980   31.2860 C   0  0  0  0  0  0  0  0  0  0  0  0
   33.3440   33.6190   31.0860 C   0  0  0  0  0  0  0  0  0  0  0  0
   32.8020   32.3430   30.9430 C   0  0  0  0  0  0  0  0  0  0  0  0
   33.6230   31.2540   31.0020 N   0  0  0  0  0  0  0  0  0  0  0  0
   34.9370   31.3900   31.1940 C   0  0  0  0  0  0  0  0  0  0  0  0
   35.4700   32.5990   31.3330 N   0  0  0  0  0  0  0  0  0  0  0  0
   35.2380   34.6480   31.4080 H   0  0  0  0  0  0  0  0  0  0  0  0
   32.7470   34.5150   31.0480 H   0  0  0  0  0  0  0  0  0  0  0  0
   31.7350   32.2270   30.7850 H   0  0  0  0  0  0  0  0  0  0  0  0
   36.9370   27.6190   34.1910 S   0  0  0  0  0  0  0  0  0  0  0  0
   38.3430   26.2290   36.6310 Cl  0  0  0  0  0  0  0  0  0  0  0  0
   38.0360   25.3580   35.1440 C   0  0  0  0  0  0  0  0  0  0  0  0
   37.4150   25.8990   34.0050 C   0  0  0  0  0  0  0  0  0  0  0  0
   37.2280   25.1150   32.8930 C   0  0  0  0  0  0  0  0  0  0  0  0
   37.6420   23.8130   32.8820 C   0  0  0  0  0  0  0  0  0  0  0  0
   38.2590   23.2330   33.9790 C   0  0  0  0  0  0  0  0  0  0  0  0
   38.4330   24.0320   35.0730 C   0  0  0  0  0  0  0  0  0  0  0  0
   36.7420   25.6090   32.0580 H   0  0  0  0  0  0  0  0  0  0  0  0
   37.4900   23.2030   32.0010 H   0  0  0  0  0  0  0  0  0  0  0  0
   38.5710   22.2030   33.9350 H   0  0  0  0  0  0  0  0  0  0  0  0
   39.0840   23.4190   36.2270 C   0  0  0  0  0  0  0  0  0  0  0  0
   40.3750   23.0470   36.2940 N   0  0  0  0  0  0  0  0  0  0  0  0
   40.6830   22.5120   37.4870 C   0  0  0  0  0  0  0  0  0  0  0  0
   41.6890   22.1720   37.6720 H   0  0  0  0  0  0  0  0  0  0  0  0
   39.5410   22.5530   38.1860 N   0  0  0  0  0  0  0  0  0  0  0  0
   39.4990   22.1900   39.1710 H   0  0  0  0  0  0  0  0  0  0  0  0
   38.5680   23.0950   37.4450 N   0  0  0  0  0  0  0  0  0  0  0  0
  2  7  1  0  0  0  0
  2  1  1  0  0  0  0
  3  2  2  0  0  0  0
  4  5  2  0  0  0  0
  4  3  1  0  0  0  0
  5  6  1  0  0  0  0
  6 10  1  0  0  0  0
  6  7  2  0  0  0  0
  7 20  1  0  0  0  0
  8  4  1  0  0  0  0
  9  5  1  0  0  0  0
 11 16  1  0  0  0  0
 11 17  1  0  0  0  0
 12 11  2  0  0  0  0
 13 14  2  0  0  0  0
 13 12  1  0  0  0  0
 14 15  1  0  0  0  0
 15  3  1  0  0  0  0
 15 16  2  0  0  0  0
 18 12  1  0  0  0  0
 19 13  1  0  0  0  0
 22 21  1  0  0  0  0
 23 20  1  0  0  0  0
 23 22  2  0  0  0  0
 24 23  1  0  0  0  0
 25 24  2  0  0  0  0
 25 26  1  0  0  0  0
 26 27  2  0  0  0  0
 27 22  1  0  0  0  0
 27 31  1  0  0  0  0
 28 24  1  0  0  0  0
 29 25  1  0  0  0  0
 30 26  1  0  0  0  0
 31 32  1  0  0  0  0
 31 37  2  0  0  0  0
 32 33  2  0  0  0  0
 33 34  1  0  0  0  0
 33 35  1  0  0  0  0
 35 36  1  0  0  0  0
 37 35  1  0  0  0  0
M  END
>  <minimizedAffinity>
-5.64558077

$$$$

 OpenBabel03272505143D

 37 40  0  0  0  0  0  0  0  0999 V2000
   38.3180   28.2040   30.1050 Cl  0  0  0  0  0  0  0  0  0  0  0  0
   36.8980   28.9570   30.7880 C   0  0  0  0  0  0  0  0  0  0  0  0
   36.5990   30.2350   30.3690 C   0  0  0  0  0  0  0  0  0  0  0  0
   35.4770   30.8450   30.9020 C   0  0  0  0  0  0  0  0  0  0  0  0
   34.7080   30.1700   31.8170 C   0  0  0  0  0  0  0  0  0  0  0  0
   35.0700   28.8790   32.1960 C   0  0  0  0  0  0  0  0  0  0  0  0
   36.1680   28.2240   31.7040 C   0  0  0  0  0  0  0  0  0  0  0  0
   35.2430   31.8520   30.5710 H   0  0  0  0  0  0  0  0  0  0  0  0
   33.8280   30.6420   32.2370 H   0  0  0  0  0  0  0  0  0  0  0  0
   34.4380   28.3720   32.9230 H   0  0  0  0  0  0  0  0  0  0  0  0
   38.2130   30.9890   27.1880 C   0  0  0  0  0  0  0  0  0  0  0  0
   39.0260   32.0990   27.4640 C   0  0  0  0  0  0  0  0  0  0  0  0
   39.0050   32.5820   28.7710 C   0  0  0  0  0  0  0  0  0  0  0  0
   38.2160   31.9700   29.7020 N   0  0  0  0  0  0  0  0  0  0  0  0
   37.4620   30.9160   29.3810 C   0  0  0  0  0  0  0  0  0  0  0  0
   37.4690   30.4430   28.1400 N   0  0  0  0  0  0  0  0  0  0  0  0
   38.1660   30.5460   26.2010 H   0  0  0  0  0  0  0  0  0  0  0  0
   39.6280   32.5390   26.6870 H   0  0  0  0  0  0  0  0  0  0  0  0
   39.6160   33.4390   29.0370 H   0  0  0  0  0  0  0  0  0  0  0  0
   36.6460   26.5850   32.1710 S   0  0  0  0  0  0  0  0  0  0  0  0
   37.7880   23.8460   33.1970 Cl  0  0  0  0  0  0  0  0  0  0  0  0
   37.8560   25.2870   34.1900 C   0  0  0  0  0  0  0  0  0  0  0  0
   37.3700   26.5510   33.8120 C   0  0  0  0  0  0  0  0  0  0  0  0
   37.4800   27.6100   34.6800 C   0  0  0  0  0  0  0  0  0  0  0  0
   38.0560   27.4470   35.9080 C   0  0  0  0  0  0  0  0  0  0  0  0
   38.5500   26.2220   36.3270 C   0  0  0  0  0  0  0  0  0  0  0  0
   38.4300   25.1840   35.4470 C   0  0  0  0  0  0  0  0  0  0  0  0
   37.0800   28.5500   34.3120 H   0  0  0  0  0  0  0  0  0  0  0  0
   38.1380   28.2870   36.5850 H   0  0  0  0  0  0  0  0  0  0  0  0
   38.9990   26.1300   37.3020 H   0  0  0  0  0  0  0  0  0  0  0  0
   38.9510   23.8940   35.8900 C   0  0  0  0  0  0  0  0  0  0  0  0
   40.2270   23.4830   35.7810 N   0  0  0  0  0  0  0  0  0  0  0  0
   40.4020   22.2480   36.2790 C   0  0  0  0  0  0  0  0  0  0  0  0
   41.3820   21.8000   36.2530 H   0  0  0  0  0  0  0  0  0  0  0  0
   39.1900   21.8780   36.7110 N   0  0  0  0  0  0  0  0  0  0  0  0
   39.0390   20.9370   37.1540 H   0  0  0  0  0  0  0  0  0  0  0  0
   38.3040   22.8540   36.4870 N   0  0  0  0  0  0  0  0  0  0  0  0
  1  2  1  0  0  0  0
  2  7  1  0  0  0  0
  3  2  2  0  0  0  0
  3  4  1  0  0  0  0
  4  5  2  0  0  0  0
  5  6  1  0  0  0  0
  5  9  1  0  0  0  0
  6 10  1  0  0  0  0
  7 20  1  0  0  0  0
  7  6  2  0  0  0  0
  8  4  1  0  0  0  0
 11 12  2  0  0  0  0
 11 16  1  0  0  0  0
 12 13  1  0  0  0  0
 13 19  1  0  0  0  0
 13 14  2  0  0  0  0
 15 14  1  0  0  0  0
 15  3  1  0  0  0  0
 16 15  2  0  0  0  0
 17 11  1  0  0  0  0
 18 12  1  0  0  0  0
 20 23  1  0  0  0  0
 21 22  1  0  0  0  0
 22 27  1  0  0  0  0
 23 22  2  0  0  0  0
 23 24  1  0  0  0  0
 24 25  2  0  0  0  0
 25 26  1  0  0  0  0
 25 29  1  0  0  0  0
 26 30  1  0  0  0  0
 27 31  1  0  0  0  0
 27 26  2  0  0  0  0
 28 24  1  0  0  0  0
 31 37  2  0  0  0  0
 32 31  1  0  0  0  0
 32 33  2  0  0  0  0
 33 35  1  0  0  0  0
 34 33  1  0  0  0  0
 35 36  1  0  0  0  0
 37 35  1  0  0  0  0
M  END
>  <minimizedAffinity>
-5.61774158

$$$$

 OpenBabel03272505143D

 37 40  0  0  0  0  0  0  0  0999 V2000
   38.2240   24.6590   32.2730 Cl  0  0  0  0  0  0  0  0  0  0  0  0
   38.2100   25.3740   33.8660 C   0  0  0  0  0  0  0  0  0  0  0  0
   37.8040   26.6870   33.9650 C   0  0  0  0  0  0  0  0  0  0  0  0
   37.7890   27.2660   35.2220 C   0  0  0  0  0  0  0  0  0  0  0  0
   38.1720   26.5300   36.3140 C   0  0  0  0  0  0  0  0  0  0  0  0
   38.5720   25.2060   36.1410 C   0  0  0  0  0  0  0  0  0  0  0  0
   38.6080   24.5780   34.9240 C   0  0  0  0  0  0  0  0  0  0  0  0
   37.4680   28.3010   35.2980 H   0  0  0  0  0  0  0  0  0  0  0  0
   38.1620   26.9780   37.2990 H   0  0  0  0  0  0  0  0  0  0  0  0
   38.8690   24.6500   37.0270 H   0  0  0  0  0  0  0  0  0  0  0  0
   35.6640   28.4110   31.5700 C   0  0  0  0  0  0  0  0  0  0  0  0
   36.5390   28.8190   30.5520 C   0  0  0  0  0  0  0  0  0  0  0  0
   37.8830   28.4870   30.7090 C   0  0  0  0  0  0  0  0  0  0  0  0
   38.2790   27.7970   31.8180 N   0  0  0  0  0  0  0  0  0  0  0  0
   37.4010   27.4350   32.7560 C   0  0  0  0  0  0  0  0  0  0  0  0
   36.1160   27.7430   32.6220 N   0  0  0  0  0  0  0  0  0  0  0  0
   34.6020   28.6250   31.5320 H   0  0  0  0  0  0  0  0  0  0  0  0
   36.1660   29.3620   29.6990 H   0  0  0  0  0  0  0  0  0  0  0  0
   38.6010   28.7800   29.9490 H   0  0  0  0  0  0  0  0  0  0  0  0
   39.1120   22.8990   34.6810 S   0  0  0  0  0  0  0  0  0  0  0  0
   39.0090   21.4030   31.9210 Cl  0  0  0  0  0  0  0  0  0  0  0  0
   37.7440   21.1980   33.1130 C   0  0  0  0  0  0  0  0  0  0  0  0
   37.7080   21.8260   34.3700 C   0  0  0  0  0  0  0  0  0  0  0  0
   36.6580   21.5860   35.2230 C   0  0  0  0  0  0  0  0  0  0  0  0
   35.6470   20.7420   34.8610 C   0  0  0  0  0  0  0  0  0  0  0  0
   35.6360   20.0980   33.6340 C   0  0  0  0  0  0  0  0  0  0  0  0
   36.6900   20.3520   32.8030 C   0  0  0  0  0  0  0  0  0  0  0  0
   36.7080   22.1100   36.1720 H   0  0  0  0  0  0  0  0  0  0  0  0
   34.8240   20.5590   35.5390 H   0  0  0  0  0  0  0  0  0  0  0  0
   34.8220   19.4390   33.3820 H   0  0  0  0  0  0  0  0  0  0  0  0
   36.6760   19.6740   31.5100 C   0  0  0  0  0  0  0  0  0  0  0  0
   37.2840   18.5070   31.2300 N   0  0  0  0  0  0  0  0  0  0  0  0
   37.0920   18.1350   29.9540 C   0  0  0  0  0  0  0  0  0  0  0  0
   37.5290   17.2150   29.5980 H   0  0  0  0  0  0  0  0  0  0  0  0
   36.3380   19.1050   29.4230 N   0  0  0  0  0  0  0  0  0  0  0  0
   36.0350   19.0650   28.4170 H   0  0  0  0  0  0  0  0  0  0  0  0
   36.0760   20.0400   30.3430 N   0  0  0  0  0  0  0  0  0  0  0  0
  1  2  1  0  0  0  0
  2  3  2  0  0  0  0
  2  7  1  0  0  0  0
  3  4  1  0  0  0  0
  4  8  1  0  0  0  0
  4  5  2  0  0  0  0
  5  9  1  0  0  0  0
  6  5  1  0  0  0  0
  6 10  1  0  0  0  0
  7  6  2  0  0  0  0
 11 16  1  0  0  0  0
 12 13  1  0  0  0  0
 12 11  2  0  0  0  0
 13 14  2  0  0  0  0
 14 15  1  0  0  0  0
 15  3  1  0  0  0  0
 16 15  2  0  0  0  0
 17 11  1  0  0  0  0
 18 12  1  0  0  0  0
 19 13  1  0  0  0  0
 20  7  1  0  0  0  0
 21 22  1  0  0  0  0
 22 23  1  0  0  0  0
 23 20  1  0  0  0  0
 23 24  2  0  0  0  0
 24 28  1  0  0  0  0
 25 24  1  0  0  0  0
 25 29  1  0  0  0  0
 26 25  2  0  0  0  0
 27 22  2  0  0  0  0
 27 26  1  0  0  0  0
 30 26  1  0  0  0  0
 31 27  1  0  0  0  0
 32 31  1  0  0  0  0
 33 32  2  0  0  0  0
 34 33  1  0  0  0  0
 35 33  1  0  0  0  0
 35 37  1  0  0  0  0
 36 35  1  0  0  0  0
 37 31  2  0  0  0  0
M  END
>  <minimizedAffinity>
-5.58294106

$$$$

 OpenBabel03272505143D

 37 40  0  0  0  0  0  0  0  0999 V2000
   39.8840   26.1300   35.0160 Cl  0  0  0  0  0  0  0  0  0  0  0  0
   39.0050   25.0270   33.9870 C   0  0  0  0  0  0  0  0  0  0  0  0
   38.4880   23.8920   34.5740 C   0  0  0  0  0  0  0  0  0  0  0  0
   37.7900   23.0080   33.7710 C   0  0  0  0  0  0  0  0  0  0  0  0
   37.6340   23.2820   32.4360 C   0  0  0  0  0  0  0  0  0  0  0  0
   38.1830   24.4490   31.9080 C   0  0  0  0  0  0  0  0  0  0  0  0
   38.8850   25.3610   32.6510 C   0  0  0  0  0  0  0  0  0  0  0  0
   37.3830   22.1150   34.2360 H   0  0  0  0  0  0  0  0  0  0  0  0
   37.0880   22.5940   31.8030 H   0  0  0  0  0  0  0  0  0  0  0  0
   38.0410   24.6360   30.8460 H   0  0  0  0  0  0  0  0  0  0  0  0
   37.8650   23.9500   38.1660 C   0  0  0  0  0  0  0  0  0  0  0  0
   38.9490   23.2500   38.7190 C   0  0  0  0  0  0  0  0  0  0  0  0
   39.8990   22.7580   37.8260 C   0  0  0  0  0  0  0  0  0  0  0  0
   39.7380   22.9720   36.4880 N   0  0  0  0  0  0  0  0  0  0  0  0
   38.6850   23.6450   36.0190 C   0  0  0  0  0  0  0  0  0  0  0  0
   37.7700   24.1220   36.8550 N   0  0  0  0  0  0  0  0  0  0  0  0
   37.0790   24.3690   38.7840 H   0  0  0  0  0  0  0  0  0  0  0  0
   39.0210   23.1130   39.7850 H   0  0  0  0  0  0  0  0  0  0  0  0
   40.7550   22.2090   38.2040 H   0  0  0  0  0  0  0  0  0  0  0  0
   39.5910   26.8480   32.0020 S   0  0  0  0  0  0  0  0  0  0  0  0
   37.2490   27.8900   33.8170 Cl  0  0  0  0  0  0  0  0  0  0  0  0
   37.3380   28.3110   32.1200 C   0  0  0  0  0  0  0  0  0  0  0  0
   38.3470   27.8900   31.2360 C   0  0  0  0  0  0  0  0  0  0  0  0
   38.3100   28.2860   29.9210 C   0  0  0  0  0  0  0  0  0  0  0  0
   37.3000   29.0840   29.4630 C   0  0  0  0  0  0  0  0  0  0  0  0
   36.2830   29.5260   30.2940 C   0  0  0  0  0  0  0  0  0  0  0  0
   36.3420   29.1200   31.5970 C   0  0  0  0  0  0  0  0  0  0  0  0
   39.1250   27.9180   29.3060 H   0  0  0  0  0  0  0  0  0  0  0  0
   37.2790   29.3910   28.4250 H   0  0  0  0  0  0  0  0  0  0  0  0
   35.5030   30.1550   29.8990 H   0  0  0  0  0  0  0  0  0  0  0  0
   35.2680   29.5850   32.4710 C   0  0  0  0  0  0  0  0  0  0  0  0
   34.0780   28.9820   32.6410 N   0  0  0  0  0  0  0  0  0  0  0  0
   33.2980   29.6460   33.5090 C   0  0  0  0  0  0  0  0  0  0  0  0
   32.3140   29.2680   33.7350 H   0  0  0  0  0  0  0  0  0  0  0  0
   34.0300   30.7000   33.8910 N   0  0  0  0  0  0  0  0  0  0  0  0
   33.6530   31.3990   34.5800 H   0  0  0  0  0  0  0  0  0  0  0  0
   35.2190   30.6810   33.2780 N   0  0  0  0  0  0  0  0  0  0  0  0
  2  3  1  0  0  0  0
  2  1  1  0  0  0  0
  3 15  1  0  0  0  0
  4  8  1  0  0  0  0
  4  3  2  0  0  0  0
  5  4  1  0  0  0  0
  6  5  2  0  0  0  0
  6  7  1  0  0  0  0
  7  2  2  0  0  0  0
  9  5  1  0  0  0  0
 10  6  1  0  0  0  0
 11 12  1  0  0  0  0
 11 17  1  0  0  0  0
 12 18  1  0  0  0  0
 13 19  1  0  0  0  0
 13 12  2  0  0  0  0
 14 13  1  0  0  0  0
 15 14  2  0  0  0  0
 15 16  1  0  0  0  0
 16 11  2  0  0  0  0
 20  7  1  0  0  0  0
 22 21  1  0  0  0  0
 23 20  1  0  0  0  0
 23 22  2  0  0  0  0
 24 23  1  0  0  0  0
 25 24  2  0  0  0  0
 25 26  1  0  0  0  0
 26 27  2  0  0  0  0
 27 22  1  0  0  0  0
 27 31  1  0  0  0  0
 28 24  1  0  0  0  0
 29 25  1  0  0  0  0
 30 26  1  0  0  0  0
 31 32  1  0  0  0  0
 31 37  2  0  0  0  0
 32 33  2  0  0  0  0
 33 34  1  0  0  0  0
 33 35  1  0  0  0  0
 35 36  1  0  0  0  0
 37 35  1  0  0  0  0
M  END
>  <minimizedAffinity>
-5.56314468

$$$$

 OpenBabel03272505143D

 37 40  0  0  0  0  0  0  0  0999 V2000
   39.0370   26.7400   30.1090 Cl  0  0  0  0  0  0  0  0  0  0  0  0
   37.9550   28.1020   30.2560 C   0  0  0  0  0  0  0  0  0  0  0  0
   38.2610   29.2320   29.5300 C   0  0  0  0  0  0  0  0  0  0  0  0
   37.4130   30.3200   29.6360 C   0  0  0  0  0  0  0  0  0  0  0  0
   36.3090   30.2430   30.4470 C   0  0  0  0  0  0  0  0  0  0  0  0
   36.0600   29.0680   31.1540 C   0  0  0  0  0  0  0  0  0  0  0  0
   36.8620   27.9590   31.0900 C   0  0  0  0  0  0  0  0  0  0  0  0
   37.6560   31.2100   29.0630 H   0  0  0  0  0  0  0  0  0  0  0  0
   35.6410   31.0910   30.5340 H   0  0  0  0  0  0  0  0  0  0  0  0
   35.1760   29.0400   31.7880 H   0  0  0  0  0  0  0  0  0  0  0  0
   41.7180   29.7820   28.5080 C   0  0  0  0  0  0  0  0  0  0  0  0
   41.7560   29.3650   27.1680 C   0  0  0  0  0  0  0  0  0  0  0  0
   40.5630   28.8900   26.6250 C   0  0  0  0  0  0  0  0  0  0  0  0
   39.4400   28.8520   27.4000 N   0  0  0  0  0  0  0  0  0  0  0  0
   39.4640   29.2620   28.6700 C   0  0  0  0  0  0  0  0  0  0  0  0
   40.5910   29.7180   29.2040 N   0  0  0  0  0  0  0  0  0  0  0  0
   42.5960   30.1660   29.0120 H   0  0  0  0  0  0  0  0  0  0  0  0
   42.6740   29.4180   26.6080 H   0  0  0  0  0  0  0  0  0  0  0  0
   40.5400   28.5540   25.5930 H   0  0  0  0  0  0  0  0  0  0  0  0
   36.5650   26.4580   31.9770 S   0  0  0  0  0  0  0  0  0  0  0  0
   37.7330   23.7860   33.1440 Cl  0  0  0  0  0  0  0  0  0  0  0  0
   37.7740   25.2740   34.0660 C   0  0  0  0  0  0  0  0  0  0  0  0
   37.2760   26.5120   33.6240 C   0  0  0  0  0  0  0  0  0  0  0  0
   37.3650   27.6130   34.4410 C   0  0  0  0  0  0  0  0  0  0  0  0
   37.9320   27.5170   35.6790 C   0  0  0  0  0  0  0  0  0  0  0  0
   38.4380   26.3210   36.1610 C   0  0  0  0  0  0  0  0  0  0  0  0
   38.3390   25.2400   35.3320 C   0  0  0  0  0  0  0  0  0  0  0  0
   36.9560   28.5290   34.0240 H   0  0  0  0  0  0  0  0  0  0  0  0
   37.9980   28.3900   36.3150 H   0  0  0  0  0  0  0  0  0  0  0  0
   38.8800   26.2810   37.1430 H   0  0  0  0  0  0  0  0  0  0  0  0
   38.8720   23.9790   35.8410 C   0  0  0  0  0  0  0  0  0  0  0  0
   40.1500   23.5710   35.7430 N   0  0  0  0  0  0  0  0  0  0  0  0
   40.3380   22.3670   36.3060 C   0  0  0  0  0  0  0  0  0  0  0  0
   41.3200   21.9230   36.2960 H   0  0  0  0  0  0  0  0  0  0  0  0
   39.1320   22.0140   36.7700 N   0  0  0  0  0  0  0  0  0  0  0  0
   38.9910   21.0980   37.2650 H   0  0  0  0  0  0  0  0  0  0  0  0
   38.2370   22.9700   36.5000 N   0  0  0  0  0  0  0  0  0  0  0  0
  1  2  1  0  0  0  0
  2  7  1  0  0  0  0
  3  4  1  0  0  0  0
  3  2  2  0  0  0  0
  4  5  2  0  0  0  0
  5  9  1  0  0  0  0
  5  6  1  0  0  0  0
  6 10  1  0  0  0  0
  7  6  2  0  0  0  0
  7 20  1  0  0  0  0
  8  4  1  0  0  0  0
 11 17  1  0  0  0  0
 11 16  1  0  0  0  0
 12 11  2  0  0  0  0
 13 12  1  0  0  0  0
 13 14  2  0  0  0  0
 14 15  1  0  0  0  0
 15 16  2  0  0  0  0
 15  3  1  0  0  0  0
 18 12  1  0  0  0  0
 19 13  1  0  0  0  0
 20 23  1  0  0  0  0
 21 22  1  0  0  0  0
 22 27  1  0  0  0  0
 23 22  2  0  0  0  0
 23 24  1  0  0  0  0
 24 25  2  0  0  0  0
 25 26  1  0  0  0  0
 25 29  1  0  0  0  0
 26 30  1  0  0  0  0
 27 31  1  0  0  0  0
 27 26  2  0  0  0  0
 28 24  1  0  0  0  0
 31 37  2  0  0  0  0
 32 31  1  0  0  0  0
 32 33  2  0  0  0  0
 33 35  1  0  0  0  0
 34 33  1  0  0  0  0
 35 36  1  0  0  0  0
 37 35  1  0  0  0  0
M  END
>  <minimizedAffinity>
-5.55391979

$$$$

 OpenBabel03272505143D

 37 40  0  0  0  0  0  0  0  0999 V2000
   36.6800   28.4070   30.6750 Cl  0  0  0  0  0  0  0  0  0  0  0  0
   36.6140   28.4220   32.4190 C   0  0  0  0  0  0  0  0  0  0  0  0
   35.8750   29.4220   33.0140 C   0  0  0  0  0  0  0  0  0  0  0  0
   35.8150   29.4470   34.3970 C   0  0  0  0  0  0  0  0  0  0  0  0
   36.4810   28.4930   35.1220 C   0  0  0  0  0  0  0  0  0  0  0  0
   37.2110   27.5100   34.4550 C   0  0  0  0  0  0  0  0  0  0  0  0
   37.3080   27.4330   33.0910 C   0  0  0  0  0  0  0  0  0  0  0  0
   35.2320   30.2350   34.8630 H   0  0  0  0  0  0  0  0  0  0  0  0
   36.4370   28.5070   36.2040 H   0  0  0  0  0  0  0  0  0  0  0  0
   37.7270   26.7680   35.0610 H   0  0  0  0  0  0  0  0  0  0  0  0
   35.3520   32.3790   30.9480 C   0  0  0  0  0  0  0  0  0  0  0  0
   33.9850   32.3470   30.6340 C   0  0  0  0  0  0  0  0  0  0  0  0
   33.2470   31.2840   31.1500 C   0  0  0  0  0  0  0  0  0  0  0  0
   33.8700   30.3440   31.9190 N   0  0  0  0  0  0  0  0  0  0  0  0
   35.1760   30.4250   32.1840 C   0  0  0  0  0  0  0  0  0  0  0  0
   35.8950   31.4320   31.7000 N   0  0  0  0  0  0  0  0  0  0  0  0
   36.0030   33.1680   30.5910 H   0  0  0  0  0  0  0  0  0  0  0  0
   33.5490   33.1190   30.0210 H   0  0  0  0  0  0  0  0  0  0  0  0
   32.1850   31.2130   30.9360 H   0  0  0  0  0  0  0  0  0  0  0  0
   38.2280   26.1960   32.2230 S   0  0  0  0  0  0  0  0  0  0  0  0
   39.7650   25.3830   34.8380 Cl  0  0  0  0  0  0  0  0  0  0  0  0
   38.6520   24.2790   34.0600 C   0  0  0  0  0  0  0  0  0  0  0  0
   37.9240   24.5570   32.8900 C   0  0  0  0  0  0  0  0  0  0  0  0
   37.0780   23.6070   32.3700 C   0  0  0  0  0  0  0  0  0  0  0  0
   36.9380   22.3930   32.9790 C   0  0  0  0  0  0  0  0  0  0  0  0
   37.6330   22.0700   34.1340 C   0  0  0  0  0  0  0  0  0  0  0  0
   38.4680   23.0300   34.6320 C   0  0  0  0  0  0  0  0  0  0  0  0
   36.5550   23.9030   31.4670 H   0  0  0  0  0  0  0  0  0  0  0  0
   36.2700   21.6510   32.5630 H   0  0  0  0  0  0  0  0  0  0  0  0
   37.4980   21.1020   34.5880 H   0  0  0  0  0  0  0  0  0  0  0  0
   39.2000   22.6870   35.8480 C   0  0  0  0  0  0  0  0  0  0  0  0
   40.3900   22.0620   35.8970 N   0  0  0  0  0  0  0  0  0  0  0  0
   40.8120   21.8840   37.1590 C   0  0  0  0  0  0  0  0  0  0  0  0
   41.7550   21.3940   37.3390 H   0  0  0  0  0  0  0  0  0  0  0  0
   39.8480   22.4170   37.9210 N   0  0  0  0  0  0  0  0  0  0  0  0
   39.9250   22.4120   38.9700 H   0  0  0  0  0  0  0  0  0  0  0  0
   38.8700   22.9050   37.1510 N   0  0  0  0  0  0  0  0  0  0  0  0
  1  2  1  0  0  0  0
  2  3  2  0  0  0  0
  2  7  1  0  0  0  0
  3  4  1  0  0  0  0
  4  8  1  0  0  0  0
  4  5  2  0  0  0  0
  5  9  1  0  0  0  0
  6 10  1  0  0  0  0
  6  5  1  0  0  0  0
  7  6  2  0  0  0  0
 11 16  1  0  0  0  0
 12 11  2  0  0  0  0
 12 13  1  0  0  0  0
 13 14  2  0  0  0  0
 14 15  1  0  0  0  0
 15  3  1  0  0  0  0
 16 15  2  0  0  0  0
 17 11  1  0  0  0  0
 18 12  1  0  0  0  0
 19 13  1  0  0  0  0
 20 23  1  0  0  0  0
 20  7  1  0  0  0  0
 22 27  1  0  0  0  0
 22 21  1  0  0  0  0
 23 22  2  0  0  0  0
 24 23  1  0  0  0  0
 24 25  2  0  0  0  0
 25 26  1  0  0  0  0
 26 30  1  0  0  0  0
 26 27  2  0  0  0  0
 27 31  1  0  0  0  0
 28 24  1  0  0  0  0
 29 25  1  0  0  0  0
 31 32  1  0  0  0  0
 31 37  2  0  0  0  0
 32 33  2  0  0  0  0
 33 34  1  0  0  0  0
 33 35  1  0  0  0  0
 35 36  1  0  0  0  0
 37 35  1  0  0  0  0
M  END
>  <minimizedAffinity>
-5.515203

$$$$
