
 OpenBabel03272510133D

 39 42  0  0  0  0  0  0  0  0999 V2000
   38.4160   31.3680   48.7350 C   0  0  0  0  0  0  0  0  0  0  0  0
   38.4680   32.5840   49.3780 C   0  0  0  0  0  0  0  0  0  0  0  0
   39.0570   33.4880   48.4880 C   0  0  0  0  0  0  0  0  0  0  0  0
   39.3310   32.8070   47.3700 N   0  0  0  0  0  0  0  0  0  0  0  0
   38.9540   31.5780   47.5290 N   0  0  0  0  0  0  0  0  0  0  0  0
   38.1770   32.9670   50.3470 H   0  0  0  0  0  0  0  0  0  0  0  0
   39.2750   34.5510   48.6170 H   0  0  0  0  0  0  0  0  0  0  0  0
   39.9470   33.3400   46.1900 C   0  0  0  0  0  0  0  0  0  0  0  0
   40.5550   34.2140   46.4950 H   0  0  0  0  0  0  0  0  0  0  0  0
   39.1840   33.7770   45.4830 H   0  0  0  0  0  0  0  0  0  0  0  0
   40.7660   32.2900   45.5350 C   0  0  0  0  0  0  0  0  0  0  0  0
   41.8250   32.6490   45.5520 H   0  0  0  0  0  0  0  0  0  0  0  0
   40.7880   31.4150   46.2540 H   0  0  0  0  0  0  0  0  0  0  0  0
   40.4210   31.8620   44.2010 C   0  0  0  0  0  0  0  0  0  0  0  0
   39.7070   32.6520   43.3450 N   0  0  0  0  0  0  0  0  0  0  0  0
   39.5190   32.0330   42.1710 C   0  0  0  0  0  0  0  0  0  0  0  0
   38.9970   32.3900   41.2920 H   0  0  0  0  0  0  0  0  0  0  0  0
   40.1150   30.8350   42.2680 N   0  0  0  0  0  0  0  0  0  0  0  0
   40.2020   30.0550   41.5890 H   0  0  0  0  0  0  0  0  0  0  0  0
   40.6410   30.7520   43.4750 N   0  0  0  0  0  0  0  0  0  0  0  0
   37.8580   30.3450   49.4760 O   0  0  0  0  0  0  0  0  0  0  0  0
   34.1040   28.8370   48.3240 C   0  0  0  0  0  0  0  0  0  0  0  0
   34.7300   28.3910   49.4470 C   0  0  0  0  0  0  0  0  0  0  0  0
   35.9500   28.8370   49.8800 C   0  0  0  0  0  0  0  0  0  0  0  0
   36.6250   29.7850   49.1830 C   0  0  0  0  0  0  0  0  0  0  0  0
   35.9980   30.2540   48.0290 C   0  0  0  0  0  0  0  0  0  0  0  0
   34.7930   29.7930   47.6300 N   0  0  0  0  0  0  0  0  0  0  0  0
   34.2630   27.6360   50.0590 H   0  0  0  0  0  0  0  0  0  0  0  0
   36.4410   28.4710   50.7810 H   0  0  0  0  0  0  0  0  0  0  0  0
   36.4580   31.0160   47.4000 H   0  0  0  0  0  0  0  0  0  0  0  0
   31.9880   27.5540   48.6060 C   0  0  0  0  0  0  0  0  0  0  0  0
   32.8310   28.3800   47.8580 C   0  0  0  0  0  0  0  0  0  0  0  0
   32.3860   28.7540   46.6080 C   0  0  0  0  0  0  0  0  0  0  0  0
   31.1710   28.3180   46.1580 N   0  0  0  0  0  0  0  0  0  0  0  0
   30.3940   27.5180   46.9270 C   0  0  0  0  0  0  0  0  0  0  0  0
   30.7870   27.1210   48.1660 N   0  0  0  0  0  0  0  0  0  0  0  0
   32.2930   27.2350   49.5910 H   0  0  0  0  0  0  0  0  0  0  0  0
   33.0120   29.3980   45.9920 H   0  0  0  0  0  0  0  0  0  0  0  0
   29.4510   27.2340   46.4670 H   0  0  0  0  0  0  0  0  0  0  0  0
  1  2  1  0  0  0  0
  1 21  1  0  0  0  0
  2  6  1  0  0  0  0
  3  7  1  0  0  0  0
  3  2  2  0  0  0  0
  4  5  1  0  0  0  0
  4  3  1  0  0  0  0
  5  1  2  0  0  0  0
  8  9  1  0  0  0  0
  8  4  1  0  0  0  0
 10  8  1  0  0  0  0
 11 12  1  0  0  0  0
 11  8  1  0  0  0  0
 11 13  1  0  0  0  0
 14 11  1  0  0  0  0
 15 14  1  0  0  0  0
 16 18  1  0  0  0  0
 16 15  2  0  0  0  0
 17 16  1  0  0  0  0
 18 20  1  0  0  0  0
 19 18  1  0  0  0  0
 20 14  2  0  0  0  0
 22 23  1  0  0  0  0
 23 24  2  0  0  0  0
 23 28  1  0  0  0  0
 24 29  1  0  0  0  0
 25 21  1  0  0  0  0
 25 24  1  0  0  0  0
 26 25  2  0  0  0  0
 27 26  1  0  0  0  0
 27 22  2  0  0  0  0
 30 26  1  0  0  0  0
 31 37  1  0  0  0  0
 32 22  1  0  0  0  0
 32 31  2  0  0  0  0
 33 32  1  0  0  0  0
 34 33  2  0  0  0  0
 34 35  1  0  0  0  0
 35 36  2  0  0  0  0
 36 31  1  0  0  0  0
 38 33  1  0  0  0  0
 39 35  1  0  0  0  0
M  END
>  <minimizedAffinity>
-6.17375183

>  <minimizedRMSD>
1.20087421

$$$$
