REMARK  Name = 
REMARK  6 active torsions:
REMARK  status: ('A' for Active; 'I' for Inactive)
REMARK    1  A    between atoms: C_1  and  C_8
REMARK    2  A    between atoms: C_4  and  O_13
REMARK    3  A    between atoms: O_13  and  C_14
REMARK    4  A    between atoms: N_17  and  C_19
REMARK    5  A    between atoms: C_19  and  C_20
REMARK    6  A    between atoms: C_20  and  C_33
REMARK                            x       y       z     vdW  Elec       q    Type
REMARK                         _______ _______ _______ _____ _____    ______ ____
ROOT
ATOM      1  C   UNL     1      38.358  31.279  48.648  0.00  0.00    +0.000 A 
ATOM      2  C   UNL     1      38.448  32.523  49.230  0.00  0.00    +0.000 A 
ATOM      3  C   UNL     1      39.069  33.362  48.299  0.00  0.00    +0.000 A 
ATOM      4  N   UNL     1      39.325  32.618  47.218  0.00  0.00    +0.000 N 
ATOM      5  N   UNL     1      38.907  31.412  47.435  0.00  0.00    +0.000 NA
ATOM      6  H   UNL     1      38.166  32.963  50.177  0.00  0.00    +0.000 HD
ATOM      7  H   UNL     1      39.322  34.423  48.377  0.00  0.00    +0.000 HD
ENDROOT
BRANCH   4   8
ATOM      8  C   UNL     1      39.962  33.072  46.016  0.00  0.00    +0.000 C 
ATOM      9  H   UNL     1      40.652  33.893  46.292  0.00  0.00    +0.000 HD
ATOM     10  H   UNL     1      39.227  33.563  45.315  0.00  0.00    +0.000 HD
BRANCH   8  11
ATOM     11  C   UNL     1      40.670  31.940  45.367  0.00  0.00    +0.000 C 
ATOM     12  H   UNL     1      41.222  32.364  44.492  0.00  0.00    +0.000 HD
ATOM     13  H   UNL     1      41.507  31.648  46.072  0.00  0.00    +0.000 HD
BRANCH  11  14
ATOM     14  C   UNL     1      39.911  30.787  44.949  0.00  0.00    +0.000 A 
ATOM     15  N   UNL     1      38.968  30.207  45.748  0.00  0.00    +0.000 NA
ATOM     16  C   UNL     1      38.402  29.159  45.135  0.00  0.00    +0.000 A 
ATOM     17  H   UNL     1      37.627  28.496  45.500  0.00  0.00    +0.000 HD
ATOM     18  N   UNL     1      38.983  29.060  43.930  0.00  0.00    +0.000 N 
ATOM     19  H   UNL     1      38.836  28.390  43.151  0.00  0.00    +0.000 HD
ATOM     20  N   UNL     1      39.871  30.029  43.838  0.00  0.00    +0.000 NA
ENDBRANCH  11  14
ENDBRANCH   8  11
ENDBRANCH   4   8
BRANCH   1  21
ATOM     21  O   UNL     1      37.765  30.313  49.435  0.00  0.00    +0.000 OA
BRANCH  21  25
ATOM     22  C   UNL     1      34.003  28.815  48.295  0.00  0.00    +0.000 A 
ATOM     23  C   UNL     1      34.627  28.373  49.420  0.00  0.00    +0.000 A 
ATOM     24  C   UNL     1      35.850  28.816  49.850  0.00  0.00    +0.000 A 
ATOM     25  C   UNL     1      36.529  29.757  49.147  0.00  0.00    +0.000 A 
ATOM     26  C   UNL     1      35.903  30.221  47.990  0.00  0.00    +0.000 A 
ATOM     27  N   UNL     1      34.696  29.763  47.594  0.00  0.00    +0.000 NA
ATOM     28  H   UNL     1      34.157  27.625  50.038  0.00  0.00    +0.000 HD
ATOM     29  H   UNL     1      36.339  28.454  50.753  0.00  0.00    +0.000 HD
ATOM     30  H   UNL     1      36.367  30.977  47.356  0.00  0.00    +0.000 HD
BRANCH  22  32
ATOM     31  C   UNL     1      31.931  27.455  48.537  0.00  0.00    +0.000 A 
ATOM     32  C   UNL     1      32.728  28.361  47.832  0.00  0.00    +0.000 A 
ATOM     33  C   UNL     1      32.233  28.821  46.631  0.00  0.00    +0.000 A 
ATOM     34  N   UNL     1      31.015  28.388  46.184  0.00  0.00    +0.000 NA
ATOM     35  C   UNL     1      30.285  27.508  46.910  0.00  0.00    +0.000 A 
ATOM     36  N   UNL     1      30.728  27.024  48.100  0.00  0.00    +0.000 NA
ATOM     37  H   UNL     1      32.276  27.067  49.483  0.00  0.00    +0.000 HD
ATOM     38  H   UNL     1      32.822  29.529  46.050  0.00  0.00    +0.000 HD
ATOM     39  H   UNL     1      29.335  27.235  46.457  0.00  0.00    +0.000 HD
ENDBRANCH  22  32
ENDBRANCH  21  25
ENDBRANCH   1  21
TORSDOF 6
