
 OpenBabel03262521553D

 37 39  0  0  1  0  0  0  0  0999 V2000
   31.4860   26.5750   48.2490 C   0  0  1  0  0  0  0  0  0  0  0  0
   32.1550   27.9310   48.2190 C   0  0  2  0  0  0  0  0  0  0  0  0
   31.8570   28.5580   46.9060 C   0  0  0  0  0  0  0  0  0  0  0  0
   31.0920   27.7500   46.0710 O   0  0  0  0  0  0  0  0  0  0  0  0
   29.8650   27.4190   46.6510 C   0  0  0  0  0  0  0  0  0  0  0  0
   30.0030   26.8210   48.0080 C   0  0  2  0  0  0  0  0  0  0  0  0
   31.6750   26.0930   49.2280 H   0  0  0  0  0  0  0  0  0  0  0  0
   31.7220   28.5330   49.0450 H   0  0  0  0  0  0  0  0  0  0  0  0
   31.3340   29.5460   47.0110 H   0  0  0  0  0  0  0  0  0  0  0  0
   32.7950   28.7830   46.3630 H   0  0  0  0  0  0  0  0  0  0  0  0
   29.4320   26.6300   45.9950 H   0  0  0  0  0  0  0  0  0  0  0  0
   29.1450   28.2740   46.5900 H   0  0  0  0  0  0  0  0  0  0  0  0
   29.4420   25.8750   48.1540 H   0  0  0  0  0  0  0  0  0  0  0  0
   31.9390   25.7670   47.2040 O   0  0  0  0  0  0  0  0  0  0  0  0
   31.4010   24.9360   47.2410 H   0  0  0  0  0  0  0  0  0  0  0  0
   33.9410   27.8040   48.5140 S   0  0  0  0  0  0  0  0  0  0  0  0
   34.5390   29.2850   49.3670 C   0  0  0  0  0  0  0  0  0  0  0  0
   34.4160   30.1360   48.6580 H   0  0  0  0  0  0  0  0  0  0  0  0
   33.9060   29.3900   50.2730 H   0  0  0  0  0  0  0  0  0  0  0  0
   36.2420   29.1760   49.9000 S   0  0  0  0  0  0  0  0  0  0  0  0
   37.1640   30.5330   49.1990 C   0  0  0  0  0  0  0  0  0  0  0  0
   37.0550   31.7070   49.9040 C   0  0  0  0  0  0  0  0  0  0  0  0
   37.7550   32.8350   49.4180 C   0  0  0  0  0  0  0  0  0  0  0  0
   38.4910   32.6860   48.2840 N   0  0  0  0  0  0  0  0  0  0  0  0
   38.5510   31.5000   47.6460 C   0  0  0  0  0  0  0  0  0  0  0  0
   37.9020   30.4470   48.0920 N   0  0  0  0  0  0  0  0  0  0  0  0
   36.4860   31.8790   50.8080 H   0  0  0  0  0  0  0  0  0  0  0  0
   37.7250   33.7870   49.9070 H   0  0  0  0  0  0  0  0  0  0  0  0
   39.1500   31.4010   46.7320 H   0  0  0  0  0  0  0  0  0  0  0  0
   29.6170   27.7160   49.0000 O   0  0  0  0  0  0  0  0  0  0  0  0
   28.5080   27.6150   49.8190 C   0  0  0  0  0  0  0  0  0  0  0  0
   28.7140   27.0150   51.0110 N   0  0  0  0  0  0  0  0  0  0  0  0
   27.5250   27.0080   51.6660 C   0  0  0  0  0  0  0  0  0  0  0  0
   27.1740   26.6480   52.6400 H   0  0  0  0  0  0  0  0  0  0  0  0
   26.6370   27.6140   50.8290 N   0  0  0  0  0  0  0  0  0  0  0  0
   25.6140   27.7890   51.0020 H   0  0  0  0  0  0  0  0  0  0  0  0
   27.2260   27.9920   49.6910 N   0  0  0  0  0  0  0  0  0  0  0  0
  1  7  1  1  0  0  0
  2  1  1  0  0  0  0
  2 16  1  0  0  0  0
  2  8  1  1  0  0  0
  3  9  1  0  0  0  0
  3  2  1  0  0  0  0
  4  5  1  0  0  0  0
  4  3  1  0  0  0  0
  5  6  1  0  0  0  0
  6 13  1  1  0  0  0
  6  1  1  0  0  0  0
  6 30  1  0  0  0  0
 10  3  1  0  0  0  0
 11  5  1  0  0  0  0
 12  5  1  0  0  0  0
 14 15  1  0  0  0  0
 14  1  1  0  0  0  0
 16 17  1  0  0  0  0
 17 20  1  0  0  0  0
 17 19  1  0  0  0  0
 18 17  1  0  0  0  0
 21 20  1  0  0  0  0
 21 22  1  0  0  0  0
 22 27  1  0  0  0  0
 23 22  2  0  0  0  0
 23 28  1  0  0  0  0
 24 23  1  0  0  0  0
 25 26  1  0  0  0  0
 25 24  2  0  0  0  0
 26 21  2  0  0  0  0
 29 25  1  0  0  0  0
 30 31  1  0  0  0  0
 31 32  1  0  0  0  0
 32 33  2  0  0  0  0
 33 34  1  0  0  0  0
 35 36  1  0  0  0  0
 35 33  1  0  0  0  0
 37 31  2  0  0  0  0
 37 35  1  0  0  0  0
M  END
>  <minimizedAffinity>
-5.50470638

>  <minimizedRMSD>
1.6839031

$$$$
