
 OpenBabel03272508573D

 38 41  0  0  1  0  0  0  0  0999 V2000
   38.3590   31.9020   44.5050 C   0  0  0  0  0  0  0  0  0  0  0  0
   37.2530   32.4550   44.4080 O   0  0  0  0  0  0  0  0  0  0  0  0
   38.9450   31.6230   45.8100 N   0  0  0  0  0  0  0  0  0  0  0  0
   39.9250   31.3560   45.9470 H   0  0  0  0  0  0  0  0  0  0  0  0
   39.1460   31.4960   43.3120 C   0  0  0  0  0  0  0  0  0  0  0  0
   40.1330   30.5600   43.4580 C   0  0  0  0  0  0  0  0  0  0  0  0
   40.8470   30.2080   42.3220 C   0  0  0  0  0  0  0  0  0  0  0  0
   40.5120   30.8240   41.1290 C   0  0  0  0  0  0  0  0  0  0  0  0
   39.5130   31.7670   40.9890 C   0  0  0  0  0  0  0  0  0  0  0  0
   38.8410   32.0830   42.1220 N   0  0  0  0  0  0  0  0  0  0  0  0
   40.3630   30.1030   44.4120 H   0  0  0  0  0  0  0  0  0  0  0  0
   41.6360   29.4790   42.3730 H   0  0  0  0  0  0  0  0  0  0  0  0
   41.1030   30.5130   40.2610 H   0  0  0  0  0  0  0  0  0  0  0  0
   39.2050   32.3720   39.7030 C   0  0  0  0  0  0  0  0  0  0  0  0
   38.7700   33.5470   39.6640 O   0  0  0  0  0  0  0  0  0  0  0  0
   39.3980   31.6220   38.4660 C   0  0  0  0  0  0  0  0  0  0  0  0
   40.3980   31.7930   37.5850 N   0  0  0  0  0  0  0  0  0  0  0  0
   40.2430   30.9100   36.5560 C   0  0  0  0  0  0  0  0  0  0  0  0
   40.8090   30.7070   35.6490 H   0  0  0  0  0  0  0  0  0  0  0  0
   39.1190   30.1960   36.8330 N   0  0  0  0  0  0  0  0  0  0  0  0
   38.5990   29.4170   36.3490 H   0  0  0  0  0  0  0  0  0  0  0  0
   38.6140   30.6370   37.9960 N   0  0  0  0  0  0  0  0  0  0  0  0
   38.4400   31.1050   48.1890 C   0  0  2  0  0  0  0  0  0  0  0  0
   38.6790   32.5700   48.1100 C   0  0  0  0  0  0  0  0  0  0  0  0
   38.0810   31.7330   46.9590 C   0  0  1  0  0  0  0  0  0  0  0  0
   39.3740   30.5180   48.2910 H   0  0  0  0  0  0  0  0  0  0  0  0
   39.6860   32.9640   47.9810 H   0  0  0  0  0  0  0  0  0  0  0  0
   37.9970   33.2080   48.7020 H   0  0  0  0  0  0  0  0  0  0  0  0
   37.0000   32.0020   46.7670 H   0  0  0  0  0  0  0  0  0  0  0  0
   35.0730   30.2260   49.5030 C   0  0  0  0  0  0  0  0  0  0  0  0
   35.3980   29.5460   50.7060 C   0  0  0  0  0  0  0  0  0  0  0  0
   36.7940   29.4070   51.0560 C   0  0  0  0  0  0  0  0  0  0  0  0
   37.7510   29.9310   50.2230 N   0  0  0  0  0  0  0  0  0  0  0  0
   37.3500   30.5670   49.0900 C   0  0  0  0  0  0  0  0  0  0  0  0
   36.0280   30.7370   48.6950 N   0  0  0  0  0  0  0  0  0  0  0  0
   34.0180   30.3070   49.2810 H   0  0  0  0  0  0  0  0  0  0  0  0
   34.6410   29.1460   51.3380 H   0  0  0  0  0  0  0  0  0  0  0  0
   37.0510   28.8900   51.9700 H   0  0  0  0  0  0  0  0  0  0  0  0
  1  3  1  0  0  0  0
  2  1  2  0  0  0  0
  3  4  1  0  0  0  0
  3 25  1  0  0  0  0
  5  6  1  0  0  0  0
  5  1  1  0  0  0  0
  6 11  1  0  0  0  0
  7 12  1  0  0  0  0
  7  6  2  0  0  0  0
  8  7  1  0  0  0  0
  9  8  2  0  0  0  0
  9 10  1  0  0  0  0
 10  5  2  0  0  0  0
 13  8  1  0  0  0  0
 14  9  1  0  0  0  0
 15 14  2  0  0  0  0
 16 14  1  0  0  0  0
 17 16  1  0  0  0  0
 18 20  1  0  0  0  0
 18 17  2  0  0  0  0
 19 18  1  0  0  0  0
 20 22  1  0  0  0  0
 21 20  1  0  0  0  0
 22 16  2  0  0  0  0
 23 26  1  6  0  0  0
 23 34  1  0  0  0  0
 24 23  1  0  0  0  0
 24 28  1  0  0  0  0
 25 29  1  6  0  0  0
 25 24  1  0  0  0  0
 25 23  1  0  0  0  0
 27 24  1  0  0  0  0
 30 31  1  0  0  0  0
 31 32  2  0  0  0  0
 31 37  1  0  0  0  0
 32 38  1  0  0  0  0
 33 32  1  0  0  0  0
 34 33  2  0  0  0  0
 35 34  1  0  0  0  0
 35 30  2  0  0  0  0
 36 30  1  0  0  0  0
M  END
>  <minimizedAffinity>
-4.90346193

>  <minimizedRMSD>
0.156064644

$$$$
