
 OpenBabel03272506293D

 32 34  0  0  1  0  0  0  0  0999 V2000
   33.8500   29.1480   48.5970 C   0  0  1  0  0  0  0  0  0  0  0  0
   33.7780   29.7250   47.2440 C   0  0  0  0  0  0  0  0  0  0  0  0
   34.2220   28.8530   46.1040 C   0  0  0  0  0  0  0  0  0  0  0  0
   33.8310   27.4250   46.2250 C   0  0  0  0  0  0  0  0  0  0  0  0
   33.9220   26.8170   47.5760 C   0  0  0  0  0  0  0  0  0  0  0  0
   33.3870   27.7290   48.6450 C   0  0  2  0  0  0  0  0  0  0  0  0
   33.0930   29.7010   49.2400 H   0  0  0  0  0  0  0  0  0  0  0  0
   34.1820   30.7130   47.1010 H   0  0  0  0  0  0  0  0  0  0  0  0
   32.6670   29.8590   47.0360 H   0  0  0  0  0  0  0  0  0  0  0  0
   35.3360   28.9010   46.0610 H   0  0  0  0  0  0  0  0  0  0  0  0
   33.8540   29.2640   45.1650 H   0  0  0  0  0  0  0  0  0  0  0  0
   32.8110   27.3050   45.8000 H   0  0  0  0  0  0  0  0  0  0  0  0
   34.5100   26.8350   45.5540 H   0  0  0  0  0  0  0  0  0  0  0  0
   34.9600   26.5590   47.8180 H   0  0  0  0  0  0  0  0  0  0  0  0
   33.2850   25.9070   47.6010 H   0  0  0  0  0  0  0  0  0  0  0  0
   33.5650   27.2100   49.5970 H   0  0  0  0  0  0  0  0  0  0  0  0
   36.3290   29.7520   48.6730 C   0  0  0  0  0  0  0  0  0  0  0  0
   35.1230   29.3780   49.3210 C   0  0  0  0  0  0  0  0  0  0  0  0
   35.1690   29.2270   50.6940 C   0  0  0  0  0  0  0  0  0  0  0  0
   36.3370   29.4340   51.3630 N   0  0  0  0  0  0  0  0  0  0  0  0
   37.4660   29.7910   50.6950 C   0  0  0  0  0  0  0  0  0  0  0  0
   37.4580   29.9500   49.3440 N   0  0  0  0  0  0  0  0  0  0  0  0
   36.3560   29.8850   47.6040 H   0  0  0  0  0  0  0  0  0  0  0  0
   34.3750   28.9590   51.3630 H   0  0  0  0  0  0  0  0  0  0  0  0
   38.4010   29.9600   51.2110 H   0  0  0  0  0  0  0  0  0  0  0  0
   31.8760   27.7090   48.5190 C   0  0  0  0  0  0  0  0  0  0  0  0
   30.9930   27.9210   49.5280 N   0  0  0  0  0  0  0  0  0  0  0  0
   29.7350   27.8420   49.1240 C   0  0  0  0  0  0  0  0  0  0  0  0
   28.8500   27.9710   49.7290 H   0  0  0  0  0  0  0  0  0  0  0  0
   29.8220   27.5730   47.8150 N   0  0  0  0  0  0  0  0  0  0  0  0
   29.0200   27.4380   47.1400 H   0  0  0  0  0  0  0  0  0  0  0  0
   31.0820   27.4930   47.4540 N   0  0  0  0  0  0  0  0  0  0  0  0
  1  6  1  0  0  0  0
  1  7  1  1  0  0  0
  1 18  1  0  0  0  0
  2  1  1  0  0  0  0
  3  4  1  0  0  0  0
  3  2  1  0  0  0  0
  4  5  1  0  0  0  0
  5 15  1  0  0  0  0
  5 14  1  0  0  0  0
  5  6  1  0  0  0  0
  6 16  1  1  0  0  0
  8  2  1  0  0  0  0
  9  2  1  0  0  0  0
 10  3  1  0  0  0  0
 11  3  1  0  0  0  0
 12  4  1  0  0  0  0
 13  4  1  0  0  0  0
 17 18  2  0  0  0  0
 17 22  1  0  0  0  0
 18 19  1  0  0  0  0
 19 20  2  0  0  0  0
 19 24  1  0  0  0  0
 21 25  1  0  0  0  0
 21 20  1  0  0  0  0
 22 21  2  0  0  0  0
 23 17  1  0  0  0  0
 26  6  1  0  0  0  0
 26 27  1  0  0  0  0
 28 27  2  0  0  0  0
 28 29  1  0  0  0  0
 30 28  1  0  0  0  0
 31 30  1  0  0  0  0
 32 30  1  0  0  0  0
 32 26  2  0  0  0  0
M  END
>  <minimizedAffinity>
-4.77216864

>  <minimizedRMSD>
1.6044122

$$$$
