
 OpenBabel03272509183D

 31 33  0  0  0  0  0  0  0  0999 V2000
   38.0150   31.2480   47.8270 C   0  0  0  0  0  0  0  0  0  0  0  0
   37.0520   31.2840   48.8170 C   0  0  0  0  0  0  0  0  0  0  0  0
   37.1340   32.4140   49.6540 C   0  0  0  0  0  0  0  0  0  0  0  0
   38.1120   33.3900   49.4750 C   0  0  0  0  0  0  0  0  0  0  0  0
   39.0370   33.2640   48.4490 C   0  0  0  0  0  0  0  0  0  0  0  0
   38.9810   32.1620   47.6070 C   0  0  0  0  0  0  0  0  0  0  0  0
   36.4190   32.5040   50.4400 H   0  0  0  0  0  0  0  0  0  0  0  0
   38.1500   34.2480   50.1350 H   0  0  0  0  0  0  0  0  0  0  0  0
   39.8130   34.0030   48.2780 H   0  0  0  0  0  0  0  0  0  0  0  0
   34.8900   30.3110   48.2070 C   0  0  0  0  0  0  0  0  0  0  0  0
   36.0470   30.2850   49.0050 C   0  0  0  0  0  0  0  0  0  0  0  0
   36.1760   29.2760   49.9620 C   0  0  0  0  0  0  0  0  0  0  0  0
   35.1600   28.3720   50.0610 N   0  0  0  0  0  0  0  0  0  0  0  0
   34.0630   28.4200   49.2840 C   0  0  0  0  0  0  0  0  0  0  0  0
   33.9300   29.3810   48.3660 N   0  0  0  0  0  0  0  0  0  0  0  0
   34.7780   31.0920   47.4580 H   0  0  0  0  0  0  0  0  0  0  0  0
   33.3240   27.6540   49.4510 H   0  0  0  0  0  0  0  0  0  0  0  0
   37.3770   29.2120   50.8240 C   0  0  0  0  0  0  0  0  0  0  0  0
   37.6820   28.1780   51.0920 H   0  0  0  0  0  0  0  0  0  0  0  0
   38.1880   29.7890   50.3140 H   0  0  0  0  0  0  0  0  0  0  0  0
   37.1350   29.8150   51.7350 H   0  0  0  0  0  0  0  0  0  0  0  0
   38.0100   30.1580   46.9460 O   0  0  0  0  0  0  0  0  0  0  0  0
   37.2180   29.8900   46.3810 H   0  0  0  0  0  0  0  0  0  0  0  0
   39.9220   32.0520   46.5800 O   0  0  0  0  0  0  0  0  0  0  0  0
   39.4920   32.4480   45.3200 C   0  0  0  0  0  0  0  0  0  0  0  0
   38.3640   32.1540   44.6470 N   0  0  0  0  0  0  0  0  0  0  0  0
   38.4230   32.7860   43.4610 C   0  0  0  0  0  0  0  0  0  0  0  0
   37.6580   32.7440   42.6940 H   0  0  0  0  0  0  0  0  0  0  0  0
   39.5810   33.4690   43.3990 N   0  0  0  0  0  0  0  0  0  0  0  0
   39.9030   34.0560   42.5970 H   0  0  0  0  0  0  0  0  0  0  0  0
   40.2070   33.2480   44.5350 N   0  0  0  0  0  0  0  0  0  0  0  0
  1  2  1  0  0  0  0
  2 11  1  0  0  0  0
  2  3  2  0  0  0  0
  3  7  1  0  0  0  0
  4  3  1  0  0  0  0
  4  8  1  0  0  0  0
  5  4  2  0  0  0  0
  6  1  2  0  0  0  0
  6  5  1  0  0  0  0
  9  5  1  0  0  0  0
 10 15  2  0  0  0  0
 10 11  1  0  0  0  0
 11 12  2  0  0  0  0
 12 13  1  0  0  0  0
 12 18  1  0  0  0  0
 14 17  1  0  0  0  0
 14 13  2  0  0  0  0
 15 14  1  0  0  0  0
 16 10  1  0  0  0  0
 18 19  1  0  0  0  0
 18 21  1  0  0  0  0
 20 18  1  0  0  0  0
 22  1  1  0  0  0  0
 23 22  1  0  0  0  0
 24  6  1  0  0  0  0
 25 24  1  0  0  0  0
 26 25  1  0  0  0  0
 27 26  2  0  0  0  0
 28 27  1  0  0  0  0
 29 27  1  0  0  0  0
 29 31  1  0  0  0  0
 30 29  1  0  0  0  0
 31 25  2  0  0  0  0
M  END
>  <minimizedAffinity>
-6.23349333

>  <minimizedRMSD>
0.353611618

$$$$
