
 OpenBabel03272502263D

 38 41  0  0  0  0  0  0  0  0999 V2000
   37.6720   30.2280   51.0280 C   0  0  0  0  0  0  0  0  0  0  0  0
   38.1390   30.7910   49.8340 C   0  0  0  0  0  0  0  0  0  0  0  0
   37.4140   30.5360   48.6800 C   0  0  0  0  0  0  0  0  0  0  0  0
   36.3190   29.7670   48.8000 N   0  0  0  0  0  0  0  0  0  0  0  0
   35.8850   29.2340   49.9520 C   0  0  0  0  0  0  0  0  0  0  0  0
   36.5730   29.4710   51.0750 N   0  0  0  0  0  0  0  0  0  0  0  0
   38.2540   30.4420   51.9150 H   0  0  0  0  0  0  0  0  0  0  0  0
   39.0110   31.4020   49.7470 H   0  0  0  0  0  0  0  0  0  0  0  0
   37.7780   31.0580   47.3860 C   0  0  0  0  0  0  0  0  0  0  0  0
   37.0410   30.7320   46.2540 C   0  0  0  0  0  0  0  0  0  0  0  0
   37.3410   31.2050   45.0030 C   0  0  0  0  0  0  0  0  0  0  0  0
   38.4000   32.0270   44.8520 N   0  0  0  0  0  0  0  0  0  0  0  0
   39.1080   32.3360   45.9540 C   0  0  0  0  0  0  0  0  0  0  0  0
   38.8290   31.8840   47.1800 N   0  0  0  0  0  0  0  0  0  0  0  0
   36.1770   30.0710   46.3290 H   0  0  0  0  0  0  0  0  0  0  0  0
   36.7410   30.9270   44.1450 H   0  0  0  0  0  0  0  0  0  0  0  0
   40.2840   33.2420   45.8190 C   0  0  0  0  0  0  0  0  0  0  0  0
   40.3840   33.9730   47.0020 F   0  0  0  0  0  0  0  0  0  0  0  0
   41.4280   32.5160   45.5630 F   0  0  0  0  0  0  0  0  0  0  0  0
   40.1040   34.1590   44.8140 F   0  0  0  0  0  0  0  0  0  0  0  0
   34.7330   28.4650   49.8890 O   0  0  0  0  0  0  0  0  0  0  0  0
   33.7070   26.5610   46.9190 N   0  0  0  0  0  0  0  0  0  0  0  0
   34.2430   26.7640   48.1310 C   0  0  0  0  0  0  0  0  0  0  0  0
   34.2470   28.0290   48.6790 C   0  0  0  0  0  0  0  0  0  0  0  0
   33.6810   29.0760   47.9400 C   0  0  0  0  0  0  0  0  0  0  0  0
   33.5750   30.3010   48.2410 O   0  0  0  0  0  0  0  0  0  0  0  0
   33.1550   28.8010   46.7170 N   0  0  0  0  0  0  0  0  0  0  0  0
   33.1680   27.5590   46.2150 C   0  0  0  0  0  0  0  0  0  0  0  0
   32.6850   27.2760   45.0780 O   0  0  0  0  0  0  0  0  0  0  0  0
   33.7610   25.5700   46.6090 H   0  0  0  0  0  0  0  0  0  0  0  0
   34.6930   26.0250   48.7610 H   0  0  0  0  0  0  0  0  0  0  0  0
   32.5570   29.7800   45.8790 C   0  0  0  0  0  0  0  0  0  0  0  0
   31.8140   29.8280   44.7550 N   0  0  0  0  0  0  0  0  0  0  0  0
   31.5650   31.1260   44.4700 C   0  0  0  0  0  0  0  0  0  0  0  0
   30.9840   31.3420   43.6040 H   0  0  0  0  0  0  0  0  0  0  0  0
   32.1560   31.8700   45.4240 N   0  0  0  0  0  0  0  0  0  0  0  0
   32.0720   32.9050   45.3690 H   0  0  0  0  0  0  0  0  0  0  0  0
   32.7620   31.0640   46.2850 N   0  0  0  0  0  0  0  0  0  0  0  0
  1  6  1  0  0  0  0
  1  7  1  0  0  0  0
  2  1  2  0  0  0  0
  3  4  2  0  0  0  0
  3  2  1  0  0  0  0
  4  5  1  0  0  0  0
  5  6  2  0  0  0  0
  8  2  1  0  0  0  0
  9  3  1  0  0  0  0
 10 15  1  0  0  0  0
 10  9  2  0  0  0  0
 11 10  1  0  0  0  0
 12 11  2  0  0  0  0
 12 13  1  0  0  0  0
 13 14  2  0  0  0  0
 14  9  1  0  0  0  0
 16 11  1  0  0  0  0
 17 13  1  0  0  0  0
 17 18  1  0  0  0  0
 19 17  1  0  0  0  0
 20 17  1  0  0  0  0
 21  5  1  0  0  0  0
 22 23  1  0  0  0  0
 23 24  2  0  0  0  0
 23 31  1  0  0  0  0
 24 21  1  0  0  0  0
 25 26  2  0  0  0  0
 25 24  1  0  0  0  0
 27 25  1  0  0  0  0
 28 27  1  0  0  0  0
 28 22  1  0  0  0  0
 29 28  2  0  0  0  0
 30 22  1  0  0  0  0
 32 38  2  0  0  0  0
 32 27  1  0  0  0  0
 33 32  1  0  0  0  0
 34 33  2  0  0  0  0
 34 36  1  0  0  0  0
 35 34  1  0  0  0  0
 36 38  1  0  0  0  0
 37 36  1  0  0  0  0
M  END
>  <minimizedAffinity>
-6.90652227

>  <minimizedRMSD>
1.059389

$$$$
