
 OpenBabel03272509183D

 31 33  0  0  0  0  0  0  0  0999 V2000
   38.0310   31.2490   47.8210 C   0  0  0  0  0  0  0  0  0  0  0  0
   37.0620   31.2890   48.8040 C   0  0  0  0  0  0  0  0  0  0  0  0
   37.1420   32.4210   49.6390 C   0  0  0  0  0  0  0  0  0  0  0  0
   38.1230   33.3950   49.4640 C   0  0  0  0  0  0  0  0  0  0  0  0
   39.0540   33.2640   48.4430 C   0  0  0  0  0  0  0  0  0  0  0  0
   39.0000   32.1610   47.6040 C   0  0  0  0  0  0  0  0  0  0  0  0
   36.4230   32.5130   50.4220 H   0  0  0  0  0  0  0  0  0  0  0  0
   38.1590   34.2540   50.1220 H   0  0  0  0  0  0  0  0  0  0  0  0
   39.8310   34.0020   48.2760 H   0  0  0  0  0  0  0  0  0  0  0  0
   34.9020   30.3200   48.1870 C   0  0  0  0  0  0  0  0  0  0  0  0
   36.0550   30.2920   48.9890 C   0  0  0  0  0  0  0  0  0  0  0  0
   36.1780   29.2840   49.9480 C   0  0  0  0  0  0  0  0  0  0  0  0
   35.1600   28.3820   50.0430 N   0  0  0  0  0  0  0  0  0  0  0  0
   34.0660   28.4320   49.2620 C   0  0  0  0  0  0  0  0  0  0  0  0
   33.9390   29.3910   48.3410 N   0  0  0  0  0  0  0  0  0  0  0  0
   34.7940   31.1000   47.4360 H   0  0  0  0  0  0  0  0  0  0  0  0
   33.3250   27.6670   49.4260 H   0  0  0  0  0  0  0  0  0  0  0  0
   37.3750   29.2180   50.8150 C   0  0  0  0  0  0  0  0  0  0  0  0
   37.6770   28.1840   51.0850 H   0  0  0  0  0  0  0  0  0  0  0  0
   38.1890   29.7930   50.3080 H   0  0  0  0  0  0  0  0  0  0  0  0
   37.1300   29.8230   51.7240 H   0  0  0  0  0  0  0  0  0  0  0  0
   38.0290   30.1580   46.9420 O   0  0  0  0  0  0  0  0  0  0  0  0
   37.2400   29.8900   46.3720 H   0  0  0  0  0  0  0  0  0  0  0  0
   39.9470   32.0470   46.5820 O   0  0  0  0  0  0  0  0  0  0  0  0
   39.5330   32.4640   45.3240 C   0  0  0  0  0  0  0  0  0  0  0  0
   38.4790   32.0840   44.5790 N   0  0  0  0  0  0  0  0  0  0  0  0
   38.5190   32.7880   43.4320 C   0  0  0  0  0  0  0  0  0  0  0  0
   37.8020   32.7040   42.6240 H   0  0  0  0  0  0  0  0  0  0  0  0
   39.5910   33.6000   43.4670 N   0  0  0  0  0  0  0  0  0  0  0  0
   39.8800   34.2660   42.7160 H   0  0  0  0  0  0  0  0  0  0  0  0
   40.1870   33.3850   44.6210 N   0  0  0  0  0  0  0  0  0  0  0  0
  1  2  1  0  0  0  0
  2 11  1  0  0  0  0
  2  3  2  0  0  0  0
  3  7  1  0  0  0  0
  4  3  1  0  0  0  0
  4  8  1  0  0  0  0
  5  4  2  0  0  0  0
  6  1  2  0  0  0  0
  6  5  1  0  0  0  0
  9  5  1  0  0  0  0
 10 15  2  0  0  0  0
 10 11  1  0  0  0  0
 11 12  2  0  0  0  0
 12 13  1  0  0  0  0
 12 18  1  0  0  0  0
 14 17  1  0  0  0  0
 14 13  2  0  0  0  0
 15 14  1  0  0  0  0
 16 10  1  0  0  0  0
 18 19  1  0  0  0  0
 18 21  1  0  0  0  0
 20 18  1  0  0  0  0
 22  1  1  0  0  0  0
 23 22  1  0  0  0  0
 24  6  1  0  0  0  0
 25 24  1  0  0  0  0
 26 25  1  0  0  0  0
 27 29  1  0  0  0  0
 27 26  2  0  0  0  0
 28 27  1  0  0  0  0
 29 31  1  0  0  0  0
 30 29  1  0  0  0  0
 31 25  2  0  0  0  0
M  END
>  <minimizedAffinity>
-6.18717051

>  <minimizedRMSD>
0.431595594

$$$$
