
 OpenBabel03272507203D

 28 30  0  0  1  0  0  0  0  0999 V2000
   37.5170   24.2500   33.0300 C   0  0  0  0  0  0  0  0  0  0  0  0
   37.2360   25.6110   32.9610 C   0  0  0  0  0  0  0  0  0  0  0  0
   37.4370   26.3130   34.1460 C   0  0  0  0  0  0  0  0  0  0  0  0
   37.8810   25.6790   35.2820 N   0  0  0  0  0  0  0  0  0  0  0  0
   38.1410   24.3460   35.2990 C   0  0  0  0  0  0  0  0  0  0  0  0
   37.9560   23.6250   34.1560 N   0  0  0  0  0  0  0  0  0  0  0  0
   36.8930   26.0860   32.0690 H   0  0  0  0  0  0  0  0  0  0  0  0
   37.2480   27.3800   34.2030 H   0  0  0  0  0  0  0  0  0  0  0  0
   37.3270   23.4730   31.7660 C   0  0  1  0  0  0  0  0  0  0  0  0
   36.5810   22.2140   31.7410 C   0  0  2  0  0  0  0  0  0  0  0  0
   35.8490   23.4510   31.3220 C   0  0  0  0  0  0  0  0  0  0  0  0
   38.0280   23.7890   30.9500 H   0  0  0  0  0  0  0  0  0  0  0  0
   37.0070   21.4840   30.9950 H   0  0  0  0  0  0  0  0  0  0  0  0
   35.0860   23.8690   31.9880 H   0  0  0  0  0  0  0  0  0  0  0  0
   35.6740   23.5740   30.2390 H   0  0  0  0  0  0  0  0  0  0  0  0
   36.2770   21.6300   32.9640 O   0  0  0  0  0  0  0  0  0  0  0  0
   35.4200   20.6180   33.2430 C   0  0  0  0  0  0  0  0  0  0  0  0
   34.7270   20.0670   32.3600 O   0  0  0  0  0  0  0  0  0  0  0  0
   35.4720   20.3490   34.6090 N   0  0  0  0  0  0  0  0  0  0  0  0
   35.4270   20.9950   35.3960 H   0  0  0  0  0  0  0  0  0  0  0  0
   35.5730   19.3330   34.8060 H   0  0  0  0  0  0  0  0  0  0  0  0
   38.6020   23.7640   36.5310 C   0  0  0  0  0  0  0  0  0  0  0  0
   38.0610   24.1130   37.7360 N   0  0  0  0  0  0  0  0  0  0  0  0
   38.6660   23.4290   38.7330 C   0  0  0  0  0  0  0  0  0  0  0  0
   38.3240   23.6170   39.7390 H   0  0  0  0  0  0  0  0  0  0  0  0
   39.5890   22.6490   38.1450 N   0  0  0  0  0  0  0  0  0  0  0  0
   40.1850   22.0260   38.7170 H   0  0  0  0  0  0  0  0  0  0  0  0
   39.5580   22.8450   36.8200 N   0  0  0  0  0  0  0  0  0  0  0  0
  1  6  1  0  0  0  0
  2  1  2  0  0  0  0
  2  3  1  0  0  0  0
  3  8  1  0  0  0  0
  3  4  2  0  0  0  0
  4  5  1  0  0  0  0
  5 22  1  0  0  0  0
  6  5  2  0  0  0  0
  7  2  1  0  0  0  0
  9 12  1  6  0  0  0
  9  1  1  0  0  0  0
 10 13  1  6  0  0  0
 10  9  1  0  0  0  0
 10 16  1  0  0  0  0
 11 10  1  0  0  0  0
 11  9  1  0  0  0  0
 11 14  1  0  0  0  0
 15 11  1  0  0  0  0
 16 17  1  0  0  0  0
 17 19  1  0  0  0  0
 18 17  2  0  0  0  0
 19 21  1  0  0  0  0
 19 20  1  0  0  0  0
 22 28  2  0  0  0  0
 22 23  1  0  0  0  0
 23 24  2  0  0  0  0
 24 25  1  0  0  0  0
 26 27  1  0  0  0  0
 26 24  1  0  0  0  0
 28 26  1  0  0  0  0
M  END
>  <minimizedAffinity>
-5.10594368

$$$$

 OpenBabel03272507203D

 28 30  0  0  1  0  0  0  0  0999 V2000
   37.4740   23.4780   32.8830 C   0  0  0  0  0  0  0  0  0  0  0  0
   37.2370   24.8420   32.7370 C   0  0  0  0  0  0  0  0  0  0  0  0
   37.6140   25.6230   33.8270 C   0  0  0  0  0  0  0  0  0  0  0  0
   38.1760   25.0580   34.9460 N   0  0  0  0  0  0  0  0  0  0  0  0
   38.3870   23.7200   35.0400 C   0  0  0  0  0  0  0  0  0  0  0  0
   38.0310   22.9220   33.9940 N   0  0  0  0  0  0  0  0  0  0  0  0
   36.8010   25.2630   31.8590 H   0  0  0  0  0  0  0  0  0  0  0  0
   37.4750   26.6990   33.8180 H   0  0  0  0  0  0  0  0  0  0  0  0
   37.0950   22.6160   31.7210 C   0  0  1  0  0  0  0  0  0  0  0  0
   35.9740   21.6770   31.7930 C   0  0  2  0  0  0  0  0  0  0  0  0
   35.7170   23.0020   31.1450 C   0  0  0  0  0  0  0  0  0  0  0  0
   37.8990   22.5570   30.9410 H   0  0  0  0  0  0  0  0  0  0  0  0
   36.1670   20.7420   31.1950 H   0  0  0  0  0  0  0  0  0  0  0  0
   35.1060   23.7430   31.6730 H   0  0  0  0  0  0  0  0  0  0  0  0
   35.6430   23.0040   30.0430 H   0  0  0  0  0  0  0  0  0  0  0  0
   35.4370   21.4220   33.0470 O   0  0  0  0  0  0  0  0  0  0  0  0
   35.5120   20.2980   33.8000 C   0  0  0  0  0  0  0  0  0  0  0  0
   35.4740   19.1540   33.2990 O   0  0  0  0  0  0  0  0  0  0  0  0
   35.6310   20.6630   35.1400 N   0  0  0  0  0  0  0  0  0  0  0  0
   35.0860   21.3370   35.6760 H   0  0  0  0  0  0  0  0  0  0  0  0
   36.3970   20.1500   35.6210 H   0  0  0  0  0  0  0  0  0  0  0  0
   38.9800   23.2140   36.2490 C   0  0  0  0  0  0  0  0  0  0  0  0
   40.1880   22.5780   36.2450 N   0  0  0  0  0  0  0  0  0  0  0  0
   40.5220   22.2010   37.5000 C   0  0  0  0  0  0  0  0  0  0  0  0
   41.4610   21.6870   37.6270 H   0  0  0  0  0  0  0  0  0  0  0  0
   39.5140   22.6060   38.2910 N   0  0  0  0  0  0  0  0  0  0  0  0
   39.5460   22.4250   39.3090 H   0  0  0  0  0  0  0  0  0  0  0  0
   38.5820   23.2150   37.5470 N   0  0  0  0  0  0  0  0  0  0  0  0
  1  6  1  0  0  0  0
  2  1  2  0  0  0  0
  2  3  1  0  0  0  0
  3  4  2  0  0  0  0
  4  5  1  0  0  0  0
  5 22  1  0  0  0  0
  6  5  2  0  0  0  0
  7  2  1  0  0  0  0
  8  3  1  0  0  0  0
  9 12  1  6  0  0  0
  9 10  1  0  0  0  0
  9  1  1  0  0  0  0
 10 13  1  6  0  0  0
 10 16  1  0  0  0  0
 11 14  1  0  0  0  0
 11  9  1  0  0  0  0
 11 10  1  0  0  0  0
 15 11  1  0  0  0  0
 16 17  1  0  0  0  0
 17 19  1  0  0  0  0
 18 17  2  0  0  0  0
 19 21  1  0  0  0  0
 19 20  1  0  0  0  0
 22 28  2  0  0  0  0
 23 22  1  0  0  0  0
 23 24  2  0  0  0  0
 24 25  1  0  0  0  0
 24 26  1  0  0  0  0
 26 27  1  0  0  0  0
 28 26  1  0  0  0  0
M  END
>  <minimizedAffinity>
-5.03079224

$$$$

 OpenBabel03272507203D

 28 30  0  0  1  0  0  0  0  0999 V2000
   39.2420   25.8260   34.7320 C   0  0  0  0  0  0  0  0  0  0  0  0
   38.9210   26.8480   35.6210 C   0  0  0  0  0  0  0  0  0  0  0  0
   37.7680   27.5620   35.3050 C   0  0  0  0  0  0  0  0  0  0  0  0
   37.0240   27.2530   34.1910 N   0  0  0  0  0  0  0  0  0  0  0  0
   37.3800   26.2440   33.3530 C   0  0  0  0  0  0  0  0  0  0  0  0
   38.5030   25.5230   33.6300 N   0  0  0  0  0  0  0  0  0  0  0  0
   39.5110   27.0720   36.4810 H   0  0  0  0  0  0  0  0  0  0  0  0
   37.4270   28.3790   35.9310 H   0  0  0  0  0  0  0  0  0  0  0  0
   40.4670   25.0310   35.0560 C   0  0  1  0  0  0  0  0  0  0  0  0
   40.3880   23.7320   35.7240 C   0  0  2  0  0  0  0  0  0  0  0  0
   40.5390   23.7280   34.2350 C   0  0  0  0  0  0  0  0  0  0  0  0
   41.4080   25.6400   35.0020 H   0  0  0  0  0  0  0  0  0  0  0  0
   41.2580   23.5590   36.4190 H   0  0  0  0  0  0  0  0  0  0  0  0
   39.6840   23.4400   33.6130 H   0  0  0  0  0  0  0  0  0  0  0  0
   41.5380   23.4640   33.8440 H   0  0  0  0  0  0  0  0  0  0  0  0
   39.1660   23.3760   36.2800 O   0  0  0  0  0  0  0  0  0  0  0  0
   38.7470   23.4760   37.5650 C   0  0  0  0  0  0  0  0  0  0  0  0
   37.8300   24.2520   37.9100 O   0  0  0  0  0  0  0  0  0  0  0  0
   39.4940   22.6010   38.3500 N   0  0  0  0  0  0  0  0  0  0  0  0
   40.5030   22.4650   38.3840 H   0  0  0  0  0  0  0  0  0  0  0  0
   38.8950   22.0240   38.9750 H   0  0  0  0  0  0  0  0  0  0  0  0
   36.5430   25.9910   32.2110 C   0  0  0  0  0  0  0  0  0  0  0  0
   36.0370   24.7480   31.9530 N   0  0  0  0  0  0  0  0  0  0  0  0
   35.2870   24.7750   30.8280 C   0  0  0  0  0  0  0  0  0  0  0  0
   34.8300   23.8480   30.5180 H   0  0  0  0  0  0  0  0  0  0  0  0
   35.3260   26.0420   30.3830 N   0  0  0  0  0  0  0  0  0  0  0  0
   34.8180   26.3080   29.5220 H   0  0  0  0  0  0  0  0  0  0  0  0
   36.0800   26.7800   31.2090 N   0  0  0  0  0  0  0  0  0  0  0  0
  1  9  1  0  0  0  0
  1  2  1  0  0  0  0
  2  7  1  0  0  0  0
  3  2  2  0  0  0  0
  3  8  1  0  0  0  0
  4  3  1  0  0  0  0
  5  6  1  0  0  0  0
  5  4  2  0  0  0  0
  6  1  2  0  0  0  0
  9 12  1  1  0  0  0
  9 10  1  0  0  0  0
 10 16  1  0  0  0  0
 10 13  1  1  0  0  0
 11  9  1  0  0  0  0
 11 10  1  0  0  0  0
 14 11  1  0  0  0  0
 15 11  1  0  0  0  0
 16 17  1  0  0  0  0
 17 18  2  0  0  0  0
 17 19  1  0  0  0  0
 19 20  1  0  0  0  0
 19 21  1  0  0  0  0
 22  5  1  0  0  0  0
 23 22  1  0  0  0  0
 24 23  2  0  0  0  0
 25 24  1  0  0  0  0
 26 24  1  0  0  0  0
 26 28  1  0  0  0  0
 27 26  1  0  0  0  0
 28 22  2  0  0  0  0
M  END
>  <minimizedAffinity>
-5.02849627

$$$$

 OpenBabel03272507203D

 28 30  0  0  1  0  0  0  0  0999 V2000
   38.6050   25.8480   33.6180 C   0  0  0  0  0  0  0  0  0  0  0  0
   39.0050   25.0480   32.5510 C   0  0  0  0  0  0  0  0  0  0  0  0
   39.4090   23.7620   32.9010 C   0  0  0  0  0  0  0  0  0  0  0  0
   39.4000   23.3450   34.2100 N   0  0  0  0  0  0  0  0  0  0  0  0
   39.0000   24.1640   35.2170 C   0  0  0  0  0  0  0  0  0  0  0  0
   38.5970   25.4310   34.9140 N   0  0  0  0  0  0  0  0  0  0  0  0
   39.0040   25.3900   31.5410 H   0  0  0  0  0  0  0  0  0  0  0  0
   39.7400   23.0570   32.1460 H   0  0  0  0  0  0  0  0  0  0  0  0
   38.1490   27.2300   33.2720 C   0  0  1  0  0  0  0  0  0  0  0  0
   36.8320   27.4820   32.6860 C   0  0  2  0  0  0  0  0  0  0  0  0
   36.9750   27.6880   34.1620 C   0  0  0  0  0  0  0  0  0  0  0  0
   38.9910   27.9700   33.2360 H   0  0  0  0  0  0  0  0  0  0  0  0
   36.8520   28.3380   31.9540 H   0  0  0  0  0  0  0  0  0  0  0  0
   36.5130   26.9680   34.8470 H   0  0  0  0  0  0  0  0  0  0  0  0
   37.0200   28.7350   34.5090 H   0  0  0  0  0  0  0  0  0  0  0  0
   36.1210   26.3830   32.2220 O   0  0  0  0  0  0  0  0  0  0  0  0
   35.6460   26.1310   30.9790 C   0  0  0  0  0  0  0  0  0  0  0  0
   34.8460   25.2000   30.7450 O   0  0  0  0  0  0  0  0  0  0  0  0
   36.1950   27.0550   30.0920 N   0  0  0  0  0  0  0  0  0  0  0  0
   37.1660   27.3440   29.9800 H   0  0  0  0  0  0  0  0  0  0  0  0
   35.4760   27.4880   29.4780 H   0  0  0  0  0  0  0  0  0  0  0  0
   39.0220   23.6450   36.5580 C   0  0  0  0  0  0  0  0  0  0  0  0
   38.0510   23.9590   37.4660 N   0  0  0  0  0  0  0  0  0  0  0  0
   38.3010   23.3470   38.6460 C   0  0  0  0  0  0  0  0  0  0  0  0
   37.6000   23.5170   39.4480 H   0  0  0  0  0  0  0  0  0  0  0  0
   39.4350   22.6470   38.4710 N   0  0  0  0  0  0  0  0  0  0  0  0
   39.8290   22.0900   39.2490 H   0  0  0  0  0  0  0  0  0  0  0  0
   39.8760   22.8210   37.2180 N   0  0  0  0  0  0  0  0  0  0  0  0
  1  6  1  0  0  0  0
  2  3  1  0  0  0  0
  2  1  2  0  0  0  0
  3  4  2  0  0  0  0
  4  5  1  0  0  0  0
  5 22  1  0  0  0  0
  6  5  2  0  0  0  0
  7  2  1  0  0  0  0
  8  3  1  0  0  0  0
  9 12  1  6  0  0  0
  9  1  1  0  0  0  0
  9 11  1  0  0  0  0
 10 13  1  6  0  0  0
 10  9  1  0  0  0  0
 10 11  1  0  0  0  0
 11 15  1  0  0  0  0
 11 14  1  0  0  0  0
 16 10  1  0  0  0  0
 17 16  1  0  0  0  0
 18 17  2  0  0  0  0
 19 17  1  0  0  0  0
 20 19  1  0  0  0  0
 21 19  1  0  0  0  0
 22 28  2  0  0  0  0
 22 23  1  0  0  0  0
 23 24  2  0  0  0  0
 24 25  1  0  0  0  0
 26 24  1  0  0  0  0
 26 27  1  0  0  0  0
 28 26  1  0  0  0  0
M  END
>  <minimizedAffinity>
-4.91369247

$$$$

 OpenBabel03272507203D

 28 30  0  0  1  0  0  0  0  0999 V2000
   39.1630   24.4310   34.3700 C   0  0  0  0  0  0  0  0  0  0  0  0
   39.9090   25.3160   35.1450 C   0  0  0  0  0  0  0  0  0  0  0  0
   39.7970   26.6550   34.7780 C   0  0  0  0  0  0  0  0  0  0  0  0
   39.0010   27.0410   33.7260 N   0  0  0  0  0  0  0  0  0  0  0  0
   38.2920   26.1370   33.0000 C   0  0  0  0  0  0  0  0  0  0  0  0
   38.3760   24.8170   33.3290 N   0  0  0  0  0  0  0  0  0  0  0  0
   40.5200   24.9980   35.9580 H   0  0  0  0  0  0  0  0  0  0  0  0
   40.3360   27.4280   35.3160 H   0  0  0  0  0  0  0  0  0  0  0  0
   39.2500   22.9880   34.7510 C   0  0  1  0  0  0  0  0  0  0  0  0
   38.5540   22.4580   35.9240 C   0  0  2  0  0  0  0  0  0  0  0  0
   37.8940   22.2700   34.5940 C   0  0  0  0  0  0  0  0  0  0  0  0
   40.0950   22.4530   34.2420 H   0  0  0  0  0  0  0  0  0  0  0  0
   39.1400   21.6370   36.4280 H   0  0  0  0  0  0  0  0  0  0  0  0
   37.0030   22.8600   34.3550 H   0  0  0  0  0  0  0  0  0  0  0  0
   37.9380   21.2540   34.1640 H   0  0  0  0  0  0  0  0  0  0  0  0
   38.0240   23.3780   36.8190 O   0  0  0  0  0  0  0  0  0  0  0  0
   38.3890   23.6400   38.0970 C   0  0  0  0  0  0  0  0  0  0  0  0
   37.9440   24.6210   38.7310 O   0  0  0  0  0  0  0  0  0  0  0  0
   39.2890   22.6630   38.5170 N   0  0  0  0  0  0  0  0  0  0  0  0
   40.1190   22.3050   38.0450 H   0  0  0  0  0  0  0  0  0  0  0  0
   39.0400   22.2720   39.4480 H   0  0  0  0  0  0  0  0  0  0  0  0
   37.4850   26.6290   31.9160 C   0  0  0  0  0  0  0  0  0  0  0  0
   37.6080   27.9080   31.4510 N   0  0  0  0  0  0  0  0  0  0  0  0
   36.7420   28.1200   30.4350 C   0  0  0  0  0  0  0  0  0  0  0  0
   36.7440   29.0980   29.9810 H   0  0  0  0  0  0  0  0  0  0  0  0
   36.0750   26.9650   30.2660 N   0  0  0  0  0  0  0  0  0  0  0  0
   35.3480   26.8860   29.5340 H   0  0  0  0  0  0  0  0  0  0  0  0
   36.5150   26.0630   31.1530 N   0  0  0  0  0  0  0  0  0  0  0  0
  1  9  1  0  0  0  0
  1  2  1  0  0  0  0
  2  7  1  0  0  0  0
  3  2  2  0  0  0  0
  3  8  1  0  0  0  0
  4  3  1  0  0  0  0
  5  6  1  0  0  0  0
  5  4  2  0  0  0  0
  6  1  2  0  0  0  0
  9 12  1  6  0  0  0
  9 10  1  0  0  0  0
 10 13  1  1  0  0  0
 10 16  1  0  0  0  0
 11  9  1  0  0  0  0
 11 10  1  0  0  0  0
 14 11  1  0  0  0  0
 15 11  1  0  0  0  0
 16 17  1  0  0  0  0
 17 19  1  0  0  0  0
 17 18  2  0  0  0  0
 19 21  1  0  0  0  0
 20 19  1  0  0  0  0
 22  5  1  0  0  0  0
 23 22  1  0  0  0  0
 24 23  2  0  0  0  0
 25 24  1  0  0  0  0
 26 24  1  0  0  0  0
 26 28  1  0  0  0  0
 27 26  1  0  0  0  0
 28 22  2  0  0  0  0
M  END
>  <minimizedAffinity>
-4.82077646

$$$$

 OpenBabel03272507203D

 28 30  0  0  1  0  0  0  0  0999 V2000
   38.3160   23.7120   32.9100 C   0  0  0  0  0  0  0  0  0  0  0  0
   39.4830   24.2910   32.4210 C   0  0  0  0  0  0  0  0  0  0  0  0
   40.4370   24.5970   33.3880 C   0  0  0  0  0  0  0  0  0  0  0  0
   40.2110   24.3330   34.7180 N   0  0  0  0  0  0  0  0  0  0  0  0
   39.0530   23.7670   35.1460 C   0  0  0  0  0  0  0  0  0  0  0  0
   38.0950   23.4520   34.2280 N   0  0  0  0  0  0  0  0  0  0  0  0
   39.6410   24.4860   31.3840 H   0  0  0  0  0  0  0  0  0  0  0  0
   41.3840   25.0510   33.1150 H   0  0  0  0  0  0  0  0  0  0  0  0
   37.2790   23.3560   31.8910 C   0  0  1  0  0  0  0  0  0  0  0  0
   36.3990   24.3660   31.3040 C   0  0  2  0  0  0  0  0  0  0  0  0
   37.6010   23.9620   30.5100 C   0  0  0  0  0  0  0  0  0  0  0  0
   37.0670   22.2550   31.8530 H   0  0  0  0  0  0  0  0  0  0  0  0
   35.3700   23.9580   31.0910 H   0  0  0  0  0  0  0  0  0  0  0  0
   38.4370   24.6630   30.4160 H   0  0  0  0  0  0  0  0  0  0  0  0
   37.4180   23.3010   29.6440 H   0  0  0  0  0  0  0  0  0  0  0  0
   36.3750   25.6170   31.9060 O   0  0  0  0  0  0  0  0  0  0  0  0
   36.8600   26.7980   31.4520 C   0  0  0  0  0  0  0  0  0  0  0  0
   37.7900   27.4030   32.0260 O   0  0  0  0  0  0  0  0  0  0  0  0
   36.1580   27.1590   30.3040 N   0  0  0  0  0  0  0  0  0  0  0  0
   35.1520   27.1760   30.1400 H   0  0  0  0  0  0  0  0  0  0  0  0
   36.7900   27.4450   29.5290 H   0  0  0  0  0  0  0  0  0  0  0  0
   38.9010   23.5260   36.5560 C   0  0  0  0  0  0  0  0  0  0  0  0
   37.8560   24.0470   37.2650 N   0  0  0  0  0  0  0  0  0  0  0  0
   37.9420   23.6770   38.5620 C   0  0  0  0  0  0  0  0  0  0  0  0
   37.1690   24.0260   39.2270 H   0  0  0  0  0  0  0  0  0  0  0  0
   39.0490   22.9200   38.6620 N   0  0  0  0  0  0  0  0  0  0  0  0
   39.3240   22.5180   39.5740 H   0  0  0  0  0  0  0  0  0  0  0  0
   39.6320   22.8250   37.4590 N   0  0  0  0  0  0  0  0  0  0  0  0
  1  6  1  0  0  0  0
  2  1  2  0  0  0  0
  2  3  1  0  0  0  0
  3  4  2  0  0  0  0
  4  5  1  0  0  0  0
  5 22  1  0  0  0  0
  6  5  2  0  0  0  0
  7  2  1  0  0  0  0
  8  3  1  0  0  0  0
  9 12  1  1  0  0  0
  9  1  1  0  0  0  0
 10 13  1  6  0  0  0
 10  9  1  0  0  0  0
 10 16  1  0  0  0  0
 11 10  1  0  0  0  0
 11  9  1  0  0  0  0
 14 11  1  0  0  0  0
 15 11  1  0  0  0  0
 17 16  1  0  0  0  0
 17 18  2  0  0  0  0
 19 17  1  0  0  0  0
 20 19  1  0  0  0  0
 21 19  1  0  0  0  0
 22 23  1  0  0  0  0
 22 28  2  0  0  0  0
 23 24  2  0  0  0  0
 24 26  1  0  0  0  0
 24 25  1  0  0  0  0
 26 27  1  0  0  0  0
 28 26  1  0  0  0  0
M  END
>  <minimizedAffinity>
-4.59930658

$$$$

 OpenBabel03272507203D

 28 30  0  0  1  0  0  0  0  0999 V2000
   37.2980   27.1130   33.8610 C   0  0  0  0  0  0  0  0  0  0  0  0
   36.6460   28.1050   33.1340 C   0  0  0  0  0  0  0  0  0  0  0  0
   35.9770   27.6570   31.9990 C   0  0  0  0  0  0  0  0  0  0  0  0
   35.9780   26.3270   31.6500 N   0  0  0  0  0  0  0  0  0  0  0  0
   36.6310   25.3960   32.3940 C   0  0  0  0  0  0  0  0  0  0  0  0
   37.2980   25.7970   33.5130 N   0  0  0  0  0  0  0  0  0  0  0  0
   36.6550   29.1320   33.4210 H   0  0  0  0  0  0  0  0  0  0  0  0
   35.4350   28.3470   31.3600 H   0  0  0  0  0  0  0  0  0  0  0  0
   38.0120   27.5620   35.0960 C   0  0  1  0  0  0  0  0  0  0  0  0
   38.3000   26.6420   36.1970 C   0  0  2  0  0  0  0  0  0  0  0  0
   39.4050   26.9110   35.2230 C   0  0  0  0  0  0  0  0  0  0  0  0
   38.0350   28.6790   35.2040 H   0  0  0  0  0  0  0  0  0  0  0  0
   38.2440   27.1520   37.2000 H   0  0  0  0  0  0  0  0  0  0  0  0
   39.6930   26.1260   34.5160 H   0  0  0  0  0  0  0  0  0  0  0  0
   40.2140   27.5770   35.5710 H   0  0  0  0  0  0  0  0  0  0  0  0
   37.6660   25.4070   36.1760 O   0  0  0  0  0  0  0  0  0  0  0  0
   38.1530   24.1870   36.5070 C   0  0  0  0  0  0  0  0  0  0  0  0
   38.4510   23.8830   37.6820 O   0  0  0  0  0  0  0  0  0  0  0  0
   38.2400   23.4110   35.3530 N   0  0  0  0  0  0  0  0  0  0  0  0
   38.6380   23.6460   34.4450 H   0  0  0  0  0  0  0  0  0  0  0  0
   37.8270   22.4650   35.4830 H   0  0  0  0  0  0  0  0  0  0  0  0
   36.5800   24.0270   31.9550 C   0  0  0  0  0  0  0  0  0  0  0  0
   37.4870   23.1010   32.3850 N   0  0  0  0  0  0  0  0  0  0  0  0
   37.2230   21.8970   31.8300 C   0  0  0  0  0  0  0  0  0  0  0  0
   37.8730   21.0780   32.0950 H   0  0  0  0  0  0  0  0  0  0  0  0
   36.1430   22.0750   31.0490 N   0  0  0  0  0  0  0  0  0  0  0  0
   35.7510   21.2810   30.5140 H   0  0  0  0  0  0  0  0  0  0  0  0
   35.7500   23.3530   31.1180 N   0  0  0  0  0  0  0  0  0  0  0  0
  1  9  1  0  0  0  0
  2  7  1  0  0  0  0
  2  1  2  0  0  0  0
  3  2  1  0  0  0  0
  4  3  2  0  0  0  0
  4  5  1  0  0  0  0
  5  6  2  0  0  0  0
  6  1  1  0  0  0  0
  8  3  1  0  0  0  0
  9 12  1  1  0  0  0
  9 11  1  0  0  0  0
  9 10  1  0  0  0  0
 10 13  1  1  0  0  0
 11 15  1  0  0  0  0
 11 10  1  0  0  0  0
 14 11  1  0  0  0  0
 16 10  1  0  0  0  0
 16 17  1  0  0  0  0
 17 18  2  0  0  0  0
 19 21  1  0  0  0  0
 19 17  1  0  0  0  0
 20 19  1  0  0  0  0
 22 23  1  0  0  0  0
 22  5  1  0  0  0  0
 24 25  1  0  0  0  0
 24 23  2  0  0  0  0
 26 28  1  0  0  0  0
 26 24  1  0  0  0  0
 27 26  1  0  0  0  0
 28 22  2  0  0  0  0
M  END
>  <minimizedAffinity>
-4.53904057

$$$$

 OpenBabel03272507203D

 28 30  0  0  1  0  0  0  0  0999 V2000
   37.3460   25.7640   33.7080 C   0  0  0  0  0  0  0  0  0  0  0  0
   37.4980   27.1190   33.9900 C   0  0  0  0  0  0  0  0  0  0  0  0
   38.1380   27.3990   35.1950 C   0  0  0  0  0  0  0  0  0  0  0  0
   38.5740   26.3910   36.0210 N   0  0  0  0  0  0  0  0  0  0  0  0
   38.4020   25.0820   35.7000 C   0  0  0  0  0  0  0  0  0  0  0  0
   37.7800   24.7680   34.5290 N   0  0  0  0  0  0  0  0  0  0  0  0
   37.1540   27.8870   33.3360 H   0  0  0  0  0  0  0  0  0  0  0  0
   38.3080   28.4230   35.5120 H   0  0  0  0  0  0  0  0  0  0  0  0
   36.6780   25.4310   32.4120 C   0  0  1  0  0  0  0  0  0  0  0  0
   37.4430   25.2300   31.1810 C   0  0  2  0  0  0  0  0  0  0  0  0
   37.0260   24.0060   31.9360 C   0  0  0  0  0  0  0  0  0  0  0  0
   35.5750   25.6350   32.4260 H   0  0  0  0  0  0  0  0  0  0  0  0
   36.8860   25.5960   30.2730 H   0  0  0  0  0  0  0  0  0  0  0  0
   37.7850   23.4320   32.4790 H   0  0  0  0  0  0  0  0  0  0  0  0
   36.1880   23.4270   31.5080 H   0  0  0  0  0  0  0  0  0  0  0  0
   38.7780   25.6100   31.1920 O   0  0  0  0  0  0  0  0  0  0  0  0
   39.3650   26.6990   30.6400 C   0  0  0  0  0  0  0  0  0  0  0  0
   40.0780   27.4820   31.3040 O   0  0  0  0  0  0  0  0  0  0  0  0
   39.0310   26.7530   29.2890 N   0  0  0  0  0  0  0  0  0  0  0  0
   38.1180   26.6580   28.8450 H   0  0  0  0  0  0  0  0  0  0  0  0
   39.8620   26.9130   28.6840 H   0  0  0  0  0  0  0  0  0  0  0  0
   38.8900   24.0920   36.6230 C   0  0  0  0  0  0  0  0  0  0  0  0
   40.0490   23.4070   36.3940 N   0  0  0  0  0  0  0  0  0  0  0  0
   40.2850   22.5400   37.4040 C   0  0  0  0  0  0  0  0  0  0  0  0
   41.1770   21.9380   37.3390 H   0  0  0  0  0  0  0  0  0  0  0  0
   39.2660   22.6870   38.2690 N   0  0  0  0  0  0  0  0  0  0  0  0
   39.2290   22.1190   39.1320 H   0  0  0  0  0  0  0  0  0  0  0  0
   38.4220   23.6190   37.8060 N   0  0  0  0  0  0  0  0  0  0  0  0
  1  2  2  0  0  0  0
  1  6  1  0  0  0  0
  2  3  1  0  0  0  0
  3  8  1  0  0  0  0
  3  4  2  0  0  0  0
  5  4  1  0  0  0  0
  5 22  1  0  0  0  0
  6  5  2  0  0  0  0
  7  2  1  0  0  0  0
  9 12  1  6  0  0  0
  9  1  1  0  0  0  0
 10 13  1  6  0  0  0
 10 16  1  0  0  0  0
 10 11  1  0  0  0  0
 10  9  1  0  0  0  0
 11  9  1  0  0  0  0
 11 14  1  0  0  0  0
 15 11  1  0  0  0  0
 17 16  1  0  0  0  0
 17 18  2  0  0  0  0
 19 17  1  0  0  0  0
 20 19  1  0  0  0  0
 21 19  1  0  0  0  0
 22 28  2  0  0  0  0
 23 22  1  0  0  0  0
 23 24  2  0  0  0  0
 24 26  1  0  0  0  0
 25 24  1  0  0  0  0
 26 27  1  0  0  0  0
 28 26  1  0  0  0  0
M  END
>  <minimizedAffinity>
-4.40739918

$$$$

 OpenBabel03272507203D

 28 30  0  0  1  0  0  0  0  0999 V2000
   37.7740   25.0810   33.4250 C   0  0  0  0  0  0  0  0  0  0  0  0
   37.2480   24.1320   32.5520 C   0  0  0  0  0  0  0  0  0  0  0  0
   37.3760   22.8110   32.9750 C   0  0  0  0  0  0  0  0  0  0  0  0
   37.9810   22.5020   34.1690 N   0  0  0  0  0  0  0  0  0  0  0  0
   38.4790   23.4660   34.9870 C   0  0  0  0  0  0  0  0  0  0  0  0
   38.3720   24.7710   34.6080 N   0  0  0  0  0  0  0  0  0  0  0  0
   36.7810   24.3920   31.6300 H   0  0  0  0  0  0  0  0  0  0  0  0
   37.0000   21.9930   32.3700 H   0  0  0  0  0  0  0  0  0  0  0  0
   37.6350   26.5100   33.0060 C   0  0  1  0  0  0  0  0  0  0  0  0
   38.7800   27.2870   32.5310 C   0  0  2  0  0  0  0  0  0  0  0  0
   37.8810   26.6910   31.4940 C   0  0  0  0  0  0  0  0  0  0  0  0
   36.6770   26.9760   33.3570 H   0  0  0  0  0  0  0  0  0  0  0  0
   38.7130   28.3700   32.8370 H   0  0  0  0  0  0  0  0  0  0  0  0
   38.2380   25.8390   30.9050 H   0  0  0  0  0  0  0  0  0  0  0  0
   37.1960   27.3880   30.9790 H   0  0  0  0  0  0  0  0  0  0  0  0
   40.0430   26.7440   32.7250 O   0  0  0  0  0  0  0  0  0  0  0  0
   41.0580   27.1870   33.5050 C   0  0  0  0  0  0  0  0  0  0  0  0
   42.0320   27.8160   33.0410 O   0  0  0  0  0  0  0  0  0  0  0  0
   40.8020   26.8200   34.8250 N   0  0  0  0  0  0  0  0  0  0  0  0
   40.5190   25.9160   35.2010 H   0  0  0  0  0  0  0  0  0  0  0  0
   40.9290   27.6130   35.4860 H   0  0  0  0  0  0  0  0  0  0  0  0
   39.0960   23.0520   36.2190 C   0  0  0  0  0  0  0  0  0  0  0  0
   40.3110   22.4290   36.2390 N   0  0  0  0  0  0  0  0  0  0  0  0
   40.6680   22.1450   37.5120 C   0  0  0  0  0  0  0  0  0  0  0  0
   41.6150   21.6510   37.6610 H   0  0  0  0  0  0  0  0  0  0  0  0
   39.6670   22.5940   38.2890 N   0  0  0  0  0  0  0  0  0  0  0  0
   39.7170   22.4850   39.3170 H   0  0  0  0  0  0  0  0  0  0  0  0
   38.7170   23.1400   37.5190 N   0  0  0  0  0  0  0  0  0  0  0  0
  1  6  1  0  0  0  0
  2  3  1  0  0  0  0
  2  1  2  0  0  0  0
  3  4  2  0  0  0  0
  4  5  1  0  0  0  0
  5 22  1  0  0  0  0
  6  5  2  0  0  0  0
  7  2  1  0  0  0  0
  8  3  1  0  0  0  0
  9 12  1  1  0  0  0
  9  1  1  0  0  0  0
 10 16  1  0  0  0  0
 10 13  1  1  0  0  0
 10  9  1  0  0  0  0
 11 10  1  0  0  0  0
 11  9  1  0  0  0  0
 14 11  1  0  0  0  0
 15 11  1  0  0  0  0
 16 17  1  0  0  0  0
 17 19  1  0  0  0  0
 18 17  2  0  0  0  0
 19 20  1  0  0  0  0
 19 21  1  0  0  0  0
 22 23  1  0  0  0  0
 22 28  2  0  0  0  0
 23 24  2  0  0  0  0
 24 25  1  0  0  0  0
 24 26  1  0  0  0  0
 26 27  1  0  0  0  0
 28 26  1  0  0  0  0
M  END
>  <minimizedAffinity>
-4.38862085

$$$$
