
 OpenBabel03272508573D

 38 41  0  0  1  0  0  0  0  0999 V2000
   38.3560   31.9010   44.5050 C   0  0  0  0  0  0  0  0  0  0  0  0
   37.2460   32.4480   44.4080 O   0  0  0  0  0  0  0  0  0  0  0  0
   38.9450   31.6280   45.8110 N   0  0  0  0  0  0  0  0  0  0  0  0
   39.9260   31.3680   45.9470 H   0  0  0  0  0  0  0  0  0  0  0  0
   39.1440   31.4960   43.3120 C   0  0  0  0  0  0  0  0  0  0  0  0
   40.1310   30.5610   43.4590 C   0  0  0  0  0  0  0  0  0  0  0  0
   40.8460   30.2090   42.3230 C   0  0  0  0  0  0  0  0  0  0  0  0
   40.5110   30.8250   41.1300 C   0  0  0  0  0  0  0  0  0  0  0  0
   39.5120   31.7680   40.9900 C   0  0  0  0  0  0  0  0  0  0  0  0
   38.8380   32.0830   42.1230 N   0  0  0  0  0  0  0  0  0  0  0  0
   40.3600   30.1030   44.4130 H   0  0  0  0  0  0  0  0  0  0  0  0
   41.6350   29.4810   42.3740 H   0  0  0  0  0  0  0  0  0  0  0  0
   41.1030   30.5150   40.2620 H   0  0  0  0  0  0  0  0  0  0  0  0
   39.2040   32.3730   39.7040 C   0  0  0  0  0  0  0  0  0  0  0  0
   38.7690   33.5480   39.6650 O   0  0  0  0  0  0  0  0  0  0  0  0
   39.3980   31.6240   38.4670 C   0  0  0  0  0  0  0  0  0  0  0  0
   40.3980   31.7940   37.5870 N   0  0  0  0  0  0  0  0  0  0  0  0
   40.2450   30.9120   36.5570 C   0  0  0  0  0  0  0  0  0  0  0  0
   40.8100   30.7100   35.6510 H   0  0  0  0  0  0  0  0  0  0  0  0
   39.1200   30.1970   36.8330 N   0  0  0  0  0  0  0  0  0  0  0  0
   38.6000   29.4180   36.3490 H   0  0  0  0  0  0  0  0  0  0  0  0
   38.6150   30.6380   37.9960 N   0  0  0  0  0  0  0  0  0  0  0  0
   38.4400   31.1080   48.1890 C   0  0  2  0  0  0  0  0  0  0  0  0
   38.6800   32.5730   48.1120 C   0  0  0  0  0  0  0  0  0  0  0  0
   38.0810   31.7370   46.9600 C   0  0  1  0  0  0  0  0  0  0  0  0
   39.3740   30.5200   48.2900 H   0  0  0  0  0  0  0  0  0  0  0  0
   39.6860   32.9670   47.9830 H   0  0  0  0  0  0  0  0  0  0  0  0
   37.9980   33.2100   48.7050 H   0  0  0  0  0  0  0  0  0  0  0  0
   36.9990   32.0070   46.7690 H   0  0  0  0  0  0  0  0  0  0  0  0
   35.0730   30.2290   49.5040 C   0  0  0  0  0  0  0  0  0  0  0  0
   35.3990   29.5470   50.7050 C   0  0  0  0  0  0  0  0  0  0  0  0
   36.7950   29.4060   51.0540 C   0  0  0  0  0  0  0  0  0  0  0  0
   37.7520   29.9310   50.2210 N   0  0  0  0  0  0  0  0  0  0  0  0
   37.3500   30.5700   49.0900 C   0  0  0  0  0  0  0  0  0  0  0  0
   36.0280   30.7410   48.6970 N   0  0  0  0  0  0  0  0  0  0  0  0
   34.0190   30.3120   49.2840 H   0  0  0  0  0  0  0  0  0  0  0  0
   34.6430   29.1460   51.3370 H   0  0  0  0  0  0  0  0  0  0  0  0
   37.0530   28.8870   51.9670 H   0  0  0  0  0  0  0  0  0  0  0  0
  1  3  1  0  0  0  0
  2  1  2  0  0  0  0
  3  4  1  0  0  0  0
  3 25  1  0  0  0  0
  5  6  1  0  0  0  0
  5  1  1  0  0  0  0
  6 11  1  0  0  0  0
  7 12  1  0  0  0  0
  7  6  2  0  0  0  0
  8  7  1  0  0  0  0
  9  8  2  0  0  0  0
  9 10  1  0  0  0  0
 10  5  2  0  0  0  0
 13  8  1  0  0  0  0
 14  9  1  0  0  0  0
 15 14  2  0  0  0  0
 16 14  1  0  0  0  0
 17 16  1  0  0  0  0
 18 20  1  0  0  0  0
 18 17  2  0  0  0  0
 19 18  1  0  0  0  0
 20 22  1  0  0  0  0
 21 20  1  0  0  0  0
 22 16  2  0  0  0  0
 23 26  1  6  0  0  0
 23 34  1  0  0  0  0
 24 23  1  0  0  0  0
 24 28  1  0  0  0  0
 25 29  1  6  0  0  0
 25 24  1  0  0  0  0
 25 23  1  0  0  0  0
 27 24  1  0  0  0  0
 30 31  1  0  0  0  0
 31 32  2  0  0  0  0
 31 37  1  0  0  0  0
 32 38  1  0  0  0  0
 33 32  1  0  0  0  0
 34 33  2  0  0  0  0
 35 34  1  0  0  0  0
 35 30  2  0  0  0  0
 36 30  1  0  0  0  0
M  END
>  <minimizedAffinity>
-4.90319681

>  <minimizedRMSD>
0.141493097

$$$$
