
 OpenBabel03262520143D

 40 42  0  0  0  0  0  0  0  0999 V2000
   38.7820   25.9700   32.5970 C   0  0  0  0  0  0  0  0  0  0  0  0
   39.5360   25.1910   32.9070 H   0  0  0  0  0  0  0  0  0  0  0  0
   39.1980   26.5150   31.7230 H   0  0  0  0  0  0  0  0  0  0  0  0
   38.8200   22.8380   33.0400 Br  0  0  0  0  0  0  0  0  0  0  0  0
   37.4020   23.8880   32.2580 C   0  0  0  0  0  0  0  0  0  0  0  0
   36.2470   23.2850   31.8180 C   0  0  0  0  0  0  0  0  0  0  0  0
   35.2850   24.0810   31.2730 C   0  0  0  0  0  0  0  0  0  0  0  0
   35.4360   25.4530   31.1510 C   0  0  0  0  0  0  0  0  0  0  0  0
   36.6220   26.0300   31.6070 C   0  0  0  0  0  0  0  0  0  0  0  0
   37.5930   25.2370   32.1590 C   0  0  0  0  0  0  0  0  0  0  0  0
   34.3810   23.5520   30.9370 H   0  0  0  0  0  0  0  0  0  0  0  0
   34.5930   25.9290   30.7030 H   0  0  0  0  0  0  0  0  0  0  0  0
   36.5560   27.0760   31.4150 H   0  0  0  0  0  0  0  0  0  0  0  0
   36.2570   19.7540   30.8970 C   0  0  0  0  0  0  0  0  0  0  0  0
   35.7460   19.0990   32.0500 C   0  0  0  0  0  0  0  0  0  0  0  0
   35.4100   19.8990   33.1180 C   0  0  0  0  0  0  0  0  0  0  0  0
   35.5730   21.2660   33.0430 N   0  0  0  0  0  0  0  0  0  0  0  0
   36.0620   21.8330   31.9260 C   0  0  0  0  0  0  0  0  0  0  0  0
   36.3960   21.0730   30.8720 N   0  0  0  0  0  0  0  0  0  0  0  0
   36.5470   19.2130   30.0140 H   0  0  0  0  0  0  0  0  0  0  0  0
   35.6430   18.0220   32.0420 H   0  0  0  0  0  0  0  0  0  0  0  0
   35.0200   19.4140   34.0000 H   0  0  0  0  0  0  0  0  0  0  0  0
   38.6030   26.9000   33.7450 C   0  0  0  0  0  0  0  0  0  0  0  0
   39.2330   27.8020   33.4720 H   0  0  0  0  0  0  0  0  0  0  0  0
   37.5960   27.2600   33.7380 H   0  0  0  0  0  0  0  0  0  0  0  0
   39.1890   26.3660   34.9100 N   0  0  0  0  0  0  0  0  0  0  0  0
   40.1230   26.7160   35.1710 H   0  0  0  0  0  0  0  0  0  0  0  0
   38.3750   26.2940   36.0740 C   0  0  0  0  0  0  0  0  0  0  0  0
   37.5670   27.0730   36.0770 H   0  0  0  0  0  0  0  0  0  0  0  0
   38.9470   26.4480   37.0060 H   0  0  0  0  0  0  0  0  0  0  0  0
   37.7600   24.9410   36.1240 C   0  0  0  0  0  0  0  0  0  0  0  0
   36.6980   24.8220   36.1590 H   0  0  0  0  0  0  0  0  0  0  0  0
   38.0170   24.5180   35.0860 H   0  0  0  0  0  0  0  0  0  0  0  0
   38.5050   23.9900   37.0000 C   0  0  0  0  0  0  0  0  0  0  0  0
   39.6800   23.5000   36.5640 N   0  0  0  0  0  0  0  0  0  0  0  0
   40.1520   22.6670   37.5340 C   0  0  0  0  0  0  0  0  0  0  0  0
   41.0730   22.1010   37.5210 H   0  0  0  0  0  0  0  0  0  0  0  0
   39.2380   22.6890   38.5180 N   0  0  0  0  0  0  0  0  0  0  0  0
   39.3090   22.1530   39.4000 H   0  0  0  0  0  0  0  0  0  0  0  0
   38.2250   23.4930   38.2030 N   0  0  0  0  0  0  0  0  0  0  0  0
  1  2  1  0  0  0  0
  1 23  1  0  0  0  0
  3  1  1  0  0  0  0
  5  4  1  0  0  0  0
  6 18  1  0  0  0  0
  6  5  2  0  0  0  0
  7  6  1  0  0  0  0
  8  7  2  0  0  0  0
  8  9  1  0  0  0  0
  9 10  2  0  0  0  0
 10  5  1  0  0  0  0
 10  1  1  0  0  0  0
 11  7  1  0  0  0  0
 12  8  1  0  0  0  0
 13  9  1  0  0  0  0
 14 15  1  0  0  0  0
 15 16  2  0  0  0  0
 16 22  1  0  0  0  0
 17 16  1  0  0  0  0
 18 17  2  0  0  0  0
 19 14  2  0  0  0  0
 19 18  1  0  0  0  0
 20 14  1  0  0  0  0
 21 15  1  0  0  0  0
 23 26  1  0  0  0  0
 24 23  1  0  0  0  0
 25 23  1  0  0  0  0
 26 27  1  0  0  0  0
 26 28  1  0  0  0  0
 28 29  1  0  0  0  0
 28 31  1  0  0  0  0
 28 30  1  0  0  0  0
 31 32  1  0  0  0  0
 31 34  1  0  0  0  0
 33 31  1  0  0  0  0
 34 40  2  0  0  0  0
 35 34  1  0  0  0  0
 35 36  2  0  0  0  0
 36 38  1  0  0  0  0
 37 36  1  0  0  0  0
 38 39  1  0  0  0  0
 40 38  1  0  0  0  0
M  END
>  <minimizedAffinity>
-5.32694006

$$$$

 OpenBabel03262520143D

 40 42  0  0  0  0  0  0  0  0999 V2000
   41.4160   27.1310   33.8220 C   0  0  0  0  0  0  0  0  0  0  0  0
   41.4790   27.5490   32.7770 H   0  0  0  0  0  0  0  0  0  0  0  0
   41.7740   27.9150   34.5230 H   0  0  0  0  0  0  0  0  0  0  0  0
   39.7110   26.0050   31.4070 Br  0  0  0  0  0  0  0  0  0  0  0  0
   39.0840   26.4120   33.1870 C   0  0  0  0  0  0  0  0  0  0  0  0
   37.7650   26.2210   33.5240 C   0  0  0  0  0  0  0  0  0  0  0  0
   37.3860   26.5310   34.7950 C   0  0  0  0  0  0  0  0  0  0  0  0
   38.2730   27.0230   35.7380 C   0  0  0  0  0  0  0  0  0  0  0  0
   39.6050   27.2060   35.3600 C   0  0  0  0  0  0  0  0  0  0  0  0
   39.9950   26.8950   34.0840 C   0  0  0  0  0  0  0  0  0  0  0  0
   36.3210   26.3600   35.0160 H   0  0  0  0  0  0  0  0  0  0  0  0
   37.8180   27.2150   36.6830 H   0  0  0  0  0  0  0  0  0  0  0  0
   40.1200   27.6010   36.2040 H   0  0  0  0  0  0  0  0  0  0  0  0
   35.8450   23.8450   31.5290 C   0  0  0  0  0  0  0  0  0  0  0  0
   35.0080   24.6690   30.7290 C   0  0  0  0  0  0  0  0  0  0  0  0
   35.1300   26.0280   30.9020 C   0  0  0  0  0  0  0  0  0  0  0  0
   36.0310   26.5360   31.8140 N   0  0  0  0  0  0  0  0  0  0  0  0
   36.8000   25.7090   32.5460 C   0  0  0  0  0  0  0  0  0  0  0  0
   36.6970   24.3800   32.3940 N   0  0  0  0  0  0  0  0  0  0  0  0
   35.8210   22.7710   31.4650 H   0  0  0  0  0  0  0  0  0  0  0  0
   34.3230   24.2040   30.0330 H   0  0  0  0  0  0  0  0  0  0  0  0
   34.5000   26.6650   30.3010 H   0  0  0  0  0  0  0  0  0  0  0  0
   42.3090   25.9420   33.8810 C   0  0  0  0  0  0  0  0  0  0  0  0
   41.8520   25.2150   33.1410 H   0  0  0  0  0  0  0  0  0  0  0  0
   43.2540   26.2050   33.4550 H   0  0  0  0  0  0  0  0  0  0  0  0
   42.2150   25.3150   35.1390 N   0  0  0  0  0  0  0  0  0  0  0  0
   41.5420   25.7090   35.8140 H   0  0  0  0  0  0  0  0  0  0  0  0
   42.1140   23.8960   35.1530 C   0  0  0  0  0  0  0  0  0  0  0  0
   42.5710   23.4460   36.0740 H   0  0  0  0  0  0  0  0  0  0  0  0
   42.6260   23.4220   34.2980 H   0  0  0  0  0  0  0  0  0  0  0  0
   40.6720   23.5360   35.0890 C   0  0  0  0  0  0  0  0  0  0  0  0
   40.0110   24.0390   34.4180 H   0  0  0  0  0  0  0  0  0  0  0  0
   40.7050   22.4750   34.6460 H   0  0  0  0  0  0  0  0  0  0  0  0
   40.0780   23.2550   36.4290 C   0  0  0  0  0  0  0  0  0  0  0  0
   38.8320   23.6940   36.6850 N   0  0  0  0  0  0  0  0  0  0  0  0
   38.5270   23.3150   37.9580 C   0  0  0  0  0  0  0  0  0  0  0  0
   37.6060   23.4990   38.4940 H   0  0  0  0  0  0  0  0  0  0  0  0
   39.6060   22.6610   38.4190 N   0  0  0  0  0  0  0  0  0  0  0  0
   39.6850   22.2470   39.3640 H   0  0  0  0  0  0  0  0  0  0  0  0
   40.5620   22.6190   37.4930 N   0  0  0  0  0  0  0  0  0  0  0  0
  1 23  1  0  0  0  0
  1 10  1  0  0  0  0
  1  3  1  0  0  0  0
  2  1  1  0  0  0  0
  4  5  1  0  0  0  0
  5  6  2  0  0  0  0
  5 10  1  0  0  0  0
  6  7  1  0  0  0  0
  7 11  1  0  0  0  0
  7  8  2  0  0  0  0
  8 12  1  0  0  0  0
  9  8  1  0  0  0  0
  9 13  1  0  0  0  0
 10  9  2  0  0  0  0
 14 19  1  0  0  0  0
 15 16  1  0  0  0  0
 15 14  2  0  0  0  0
 16 17  2  0  0  0  0
 17 18  1  0  0  0  0
 18  6  1  0  0  0  0
 19 18  2  0  0  0  0
 20 14  1  0  0  0  0
 21 15  1  0  0  0  0
 22 16  1  0  0  0  0
 23 26  1  0  0  0  0
 24 23  1  0  0  0  0
 25 23  1  0  0  0  0
 26 28  1  0  0  0  0
 26 27  1  0  0  0  0
 28 29  1  0  0  0  0
 30 28  1  0  0  0  0
 31 28  1  0  0  0  0
 31 34  1  0  0  0  0
 32 31  1  0  0  0  0
 33 31  1  0  0  0  0
 34 35  1  0  0  0  0
 34 40  2  0  0  0  0
 35 36  2  0  0  0  0
 36 38  1  0  0  0  0
 36 37  1  0  0  0  0
 38 39  1  0  0  0  0
 40 38  1  0  0  0  0
M  END
>  <minimizedAffinity>
-5.28197241

$$$$

 OpenBabel03262520143D

 40 42  0  0  0  0  0  0  0  0999 V2000
   37.1520   27.5400   31.5930 C   0  0  0  0  0  0  0  0  0  0  0  0
   37.1130   28.6490   31.3980 H   0  0  0  0  0  0  0  0  0  0  0  0
   37.7530   27.0740   30.7840 H   0  0  0  0  0  0  0  0  0  0  0  0
   40.1630   26.5920   31.3790 Br  0  0  0  0  0  0  0  0  0  0  0  0
   39.1740   26.9760   32.9910 C   0  0  0  0  0  0  0  0  0  0  0  0
   39.7690   26.8470   34.2230 C   0  0  0  0  0  0  0  0  0  0  0  0
   39.0160   27.1300   35.3230 C   0  0  0  0  0  0  0  0  0  0  0  0
   37.6940   27.5350   35.2360 C   0  0  0  0  0  0  0  0  0  0  0  0
   37.1230   27.6530   33.9680 C   0  0  0  0  0  0  0  0  0  0  0  0
   37.8730   27.3720   32.8570 C   0  0  0  0  0  0  0  0  0  0  0  0
   39.5380   27.0130   36.2850 H   0  0  0  0  0  0  0  0  0  0  0  0
   37.2470   27.7160   36.1870 H   0  0  0  0  0  0  0  0  0  0  0  0
   36.1100   27.9560   34.1070 H   0  0  0  0  0  0  0  0  0  0  0  0
   43.4100   26.9090   33.9830 C   0  0  0  0  0  0  0  0  0  0  0  0
   43.8110   25.6700   34.5510 C   0  0  0  0  0  0  0  0  0  0  0  0
   42.8080   24.8430   35.0020 C   0  0  0  0  0  0  0  0  0  0  0  0
   41.4880   25.2260   34.8950 N   0  0  0  0  0  0  0  0  0  0  0  0
   41.1650   26.4120   34.3490 C   0  0  0  0  0  0  0  0  0  0  0  0
   42.1260   27.2350   33.9020 N   0  0  0  0  0  0  0  0  0  0  0  0
   44.1210   27.6220   33.6030 H   0  0  0  0  0  0  0  0  0  0  0  0
   44.8640   25.4310   34.6030 H   0  0  0  0  0  0  0  0  0  0  0  0
   43.0980   23.8980   35.4350 H   0  0  0  0  0  0  0  0  0  0  0  0
   35.7550   27.0300   31.5540 C   0  0  0  0  0  0  0  0  0  0  0  0
   35.6050   26.5530   32.5720 H   0  0  0  0  0  0  0  0  0  0  0  0
   35.0870   27.8670   31.5460 H   0  0  0  0  0  0  0  0  0  0  0  0
   35.6360   25.9820   30.6210 N   0  0  0  0  0  0  0  0  0  0  0  0
   36.3990   25.8720   29.9350 H   0  0  0  0  0  0  0  0  0  0  0  0
   35.2690   24.7020   31.1210 C   0  0  0  0  0  0  0  0  0  0  0  0
   34.4820   24.2090   30.4910 H   0  0  0  0  0  0  0  0  0  0  0  0
   34.8550   24.7460   32.1440 H   0  0  0  0  0  0  0  0  0  0  0  0
   36.4880   23.8510   31.1490 C   0  0  0  0  0  0  0  0  0  0  0  0
   37.1820   23.8610   30.3360 H   0  0  0  0  0  0  0  0  0  0  0  0
   37.1010   24.3300   31.9950 H   0  0  0  0  0  0  0  0  0  0  0  0
   36.2430   22.4950   31.7210 C   0  0  0  0  0  0  0  0  0  0  0  0
   35.4920   21.6260   31.0200 N   0  0  0  0  0  0  0  0  0  0  0  0
   35.4200   20.4780   31.7490 C   0  0  0  0  0  0  0  0  0  0  0  0
   34.8970   19.5680   31.4890 H   0  0  0  0  0  0  0  0  0  0  0  0
   36.1340   20.7020   32.8650 N   0  0  0  0  0  0  0  0  0  0  0  0
   36.2700   20.0130   33.6250 H   0  0  0  0  0  0  0  0  0  0  0  0
   36.6410   21.9320   32.8600 N   0  0  0  0  0  0  0  0  0  0  0  0
  1 10  1  0  0  0  0
  2  1  1  0  0  0  0
  3  1  1  0  0  0  0
  4  5  1  0  0  0  0
  5  6  1  0  0  0  0
  6 18  1  0  0  0  0
  6  7  2  0  0  0  0
  7 11  1  0  0  0  0
  8  7  1  0  0  0  0
  8 12  1  0  0  0  0
  9 13  1  0  0  0  0
  9  8  2  0  0  0  0
 10  5  2  0  0  0  0
 10  9  1  0  0  0  0
 14 15  1  0  0  0  0
 15 21  1  0  0  0  0
 15 16  2  0  0  0  0
 16 22  1  0  0  0  0
 17 16  1  0  0  0  0
 18 17  2  0  0  0  0
 19 14  2  0  0  0  0
 19 18  1  0  0  0  0
 20 14  1  0  0  0  0
 23  1  1  0  0  0  0
 23 24  1  0  0  0  0
 25 23  1  0  0  0  0
 26 28  1  0  0  0  0
 26 23  1  0  0  0  0
 27 26  1  0  0  0  0
 28 31  1  0  0  0  0
 28 30  1  0  0  0  0
 29 28  1  0  0  0  0
 31 34  1  0  0  0  0
 31 33  1  0  0  0  0
 32 31  1  0  0  0  0
 34 40  2  0  0  0  0
 35 34  1  0  0  0  0
 35 36  2  0  0  0  0
 36 38  1  0  0  0  0
 37 36  1  0  0  0  0
 38 39  1  0  0  0  0
 40 38  1  0  0  0  0
M  END
>  <minimizedAffinity>
-5.09162617

$$$$

 OpenBabel03262520143D

 40 42  0  0  0  0  0  0  0  0999 V2000
   38.1540   23.0440   32.5860 C   0  0  0  0  0  0  0  0  0  0  0  0
   38.4530   22.3280   31.7680 H   0  0  0  0  0  0  0  0  0  0  0  0
   39.0340   23.6840   32.8140 H   0  0  0  0  0  0  0  0  0  0  0  0
   38.7130   26.1580   32.5730 Br  0  0  0  0  0  0  0  0  0  0  0  0
   37.1390   25.2540   31.9190 C   0  0  0  0  0  0  0  0  0  0  0  0
   36.0990   25.9680   31.3720 C   0  0  0  0  0  0  0  0  0  0  0  0
   35.0150   25.2710   30.9320 C   0  0  0  0  0  0  0  0  0  0  0  0
   34.9320   23.8910   31.0180 C   0  0  0  0  0  0  0  0  0  0  0  0
   36.0070   23.1990   31.5790 C   0  0  0  0  0  0  0  0  0  0  0  0
   37.1020   23.8920   32.0230 C   0  0  0  0  0  0  0  0  0  0  0  0
   34.2100   25.8880   30.5030 H   0  0  0  0  0  0  0  0  0  0  0  0
   34.0190   23.5000   30.6290 H   0  0  0  0  0  0  0  0  0  0  0  0
   35.7520   22.1650   31.5720 H   0  0  0  0  0  0  0  0  0  0  0  0
   36.8080   29.2870   30.0320 C   0  0  0  0  0  0  0  0  0  0  0  0
   36.2920   30.1710   31.0180 C   0  0  0  0  0  0  0  0  0  0  0  0
   35.7120   29.5940   32.1230 C   0  0  0  0  0  0  0  0  0  0  0  0
   35.6490   28.2210   32.2400 N   0  0  0  0  0  0  0  0  0  0  0  0
   36.1540   27.4310   31.2760 C   0  0  0  0  0  0  0  0  0  0  0  0
   36.7240   27.9720   30.1890 N   0  0  0  0  0  0  0  0  0  0  0  0
   37.2800   29.6440   29.1330 H   0  0  0  0  0  0  0  0  0  0  0  0
   36.3760   31.2380   30.8630 H   0  0  0  0  0  0  0  0  0  0  0  0
   35.3160   30.2540   32.8800 H   0  0  0  0  0  0  0  0  0  0  0  0
   37.7870   22.2330   33.7780 C   0  0  0  0  0  0  0  0  0  0  0  0
   36.9290   22.8050   34.2490 H   0  0  0  0  0  0  0  0  0  0  0  0
   37.3500   21.3150   33.4440 H   0  0  0  0  0  0  0  0  0  0  0  0
   38.8260   22.2520   34.7290 N   0  0  0  0  0  0  0  0  0  0  0  0
   39.1240   21.3460   35.1200 H   0  0  0  0  0  0  0  0  0  0  0  0
   39.9760   23.0320   34.4230 C   0  0  0  0  0  0  0  0  0  0  0  0
   39.8570   23.6070   33.4670 H   0  0  0  0  0  0  0  0  0  0  0  0
   40.8860   22.4190   34.2980 H   0  0  0  0  0  0  0  0  0  0  0  0
   40.2030   23.9790   35.5470 C   0  0  0  0  0  0  0  0  0  0  0  0
   41.1590   24.4330   35.6960 H   0  0  0  0  0  0  0  0  0  0  0  0
   39.5530   24.8780   35.2440 H   0  0  0  0  0  0  0  0  0  0  0  0
   39.5260   23.5640   36.8100 C   0  0  0  0  0  0  0  0  0  0  0  0
   38.3380   24.1170   37.1150 N   0  0  0  0  0  0  0  0  0  0  0  0
   37.9370   23.5780   38.3010 C   0  0  0  0  0  0  0  0  0  0  0  0
   37.0280   23.7930   38.8440 H   0  0  0  0  0  0  0  0  0  0  0  0
   38.9040   22.7190   38.6630 N   0  0  0  0  0  0  0  0  0  0  0  0
   38.8920   22.1490   39.5270 H   0  0  0  0  0  0  0  0  0  0  0  0
   39.8820   22.7020   37.7600 N   0  0  0  0  0  0  0  0  0  0  0  0
  1  3  1  0  0  0  0
  1 23  1  0  0  0  0
  2  1  1  0  0  0  0
  5 10  1  0  0  0  0
  5  4  1  0  0  0  0
  6  5  2  0  0  0  0
  7  8  2  0  0  0  0
  7  6  1  0  0  0  0
  8  9  1  0  0  0  0
  9 10  2  0  0  0  0
 10  1  1  0  0  0  0
 11  7  1  0  0  0  0
 12  8  1  0  0  0  0
 13  9  1  0  0  0  0
 14 19  2  0  0  0  0
 14 15  1  0  0  0  0
 15 16  2  0  0  0  0
 16 17  1  0  0  0  0
 16 22  1  0  0  0  0
 18  6  1  0  0  0  0
 18 17  2  0  0  0  0
 19 18  1  0  0  0  0
 20 14  1  0  0  0  0
 21 15  1  0  0  0  0
 23 24  1  0  0  0  0
 23 26  1  0  0  0  0
 25 23  1  0  0  0  0
 26 27  1  0  0  0  0
 28 26  1  0  0  0  0
 28 31  1  0  0  0  0
 29 28  1  0  0  0  0
 30 28  1  0  0  0  0
 31 32  1  0  0  0  0
 31 34  1  0  0  0  0
 33 31  1  0  0  0  0
 34 35  1  0  0  0  0
 34 40  2  0  0  0  0
 35 36  2  0  0  0  0
 36 38  1  0  0  0  0
 36 37  1  0  0  0  0
 38 39  1  0  0  0  0
 40 38  1  0  0  0  0
M  END
>  <minimizedAffinity>
-5.05542088

$$$$

 OpenBabel03262520143D

 40 42  0  0  0  0  0  0  0  0999 V2000
   36.5750   25.7810   31.9250 C   0  0  0  0  0  0  0  0  0  0  0  0
   37.4300   25.6170   31.2110 H   0  0  0  0  0  0  0  0  0  0  0  0
   35.9910   24.8380   31.9780 H   0  0  0  0  0  0  0  0  0  0  0  0
   38.0660   23.3310   33.2590 Br  0  0  0  0  0  0  0  0  0  0  0  0
   37.8670   25.1080   33.9830 C   0  0  0  0  0  0  0  0  0  0  0  0
   38.4020   25.4280   35.2090 C   0  0  0  0  0  0  0  0  0  0  0  0
   38.2240   26.6980   35.6660 C   0  0  0  0  0  0  0  0  0  0  0  0
   37.5320   27.6580   34.9450 C   0  0  0  0  0  0  0  0  0  0  0  0
   37.0020   27.2980   33.7050 C   0  0  0  0  0  0  0  0  0  0  0  0
   37.1780   26.0220   33.2370 C   0  0  0  0  0  0  0  0  0  0  0  0
   38.6700   26.9040   36.6500 H   0  0  0  0  0  0  0  0  0  0  0  0
   37.4820   28.6010   35.4420 H   0  0  0  0  0  0  0  0  0  0  0  0
   36.5000   28.1540   33.3180 H   0  0  0  0  0  0  0  0  0  0  0  0
   39.1360   23.0280   37.8580 C   0  0  0  0  0  0  0  0  0  0  0  0
   40.4370   22.5520   37.5370 C   0  0  0  0  0  0  0  0  0  0  0  0
   41.0260   23.0770   36.4100 C   0  0  0  0  0  0  0  0  0  0  0  0
   40.3630   24.0160   35.6490 N   0  0  0  0  0  0  0  0  0  0  0  0
   39.1320   24.4310   36.0000 C   0  0  0  0  0  0  0  0  0  0  0  0
   38.5380   23.9330   37.0950 N   0  0  0  0  0  0  0  0  0  0  0  0
   38.5950   22.6770   38.7190 H   0  0  0  0  0  0  0  0  0  0  0  0
   40.9000   21.8140   38.1770 H   0  0  0  0  0  0  0  0  0  0  0  0
   42.0140   22.7240   36.1550 H   0  0  0  0  0  0  0  0  0  0  0  0
   35.7330   26.8760   31.3700 C   0  0  0  0  0  0  0  0  0  0  0  0
   34.7860   26.3530   31.0320 H   0  0  0  0  0  0  0  0  0  0  0  0
   35.4220   27.5080   32.1750 H   0  0  0  0  0  0  0  0  0  0  0  0
   36.3150   27.4020   30.2000 N   0  0  0  0  0  0  0  0  0  0  0  0
   35.8310   27.2160   29.3080 H   0  0  0  0  0  0  0  0  0  0  0  0
   36.7290   28.7620   30.2330 C   0  0  0  0  0  0  0  0  0  0  0  0
   36.3460   29.3020   31.1400 H   0  0  0  0  0  0  0  0  0  0  0  0
   36.3690   29.3400   29.3630 H   0  0  0  0  0  0  0  0  0  0  0  0
   38.2160   28.7920   30.2290 C   0  0  0  0  0  0  0  0  0  0  0  0
   38.7460   29.7190   30.2780 H   0  0  0  0  0  0  0  0  0  0  0  0
   38.4720   28.3130   31.2420 H   0  0  0  0  0  0  0  0  0  0  0  0
   38.8190   27.7980   29.2940 C   0  0  0  0  0  0  0  0  0  0  0  0
   39.3900   26.6930   29.8100 N   0  0  0  0  0  0  0  0  0  0  0  0
   39.8590   25.9580   28.7640 C   0  0  0  0  0  0  0  0  0  0  0  0
   40.3740   25.0090   28.8090 H   0  0  0  0  0  0  0  0  0  0  0  0
   39.5520   26.6520   27.6550 N   0  0  0  0  0  0  0  0  0  0  0  0
   39.7790   26.3520   26.6910 H   0  0  0  0  0  0  0  0  0  0  0  0
   38.9170   27.7790   27.9670 N   0  0  0  0  0  0  0  0  0  0  0  0
  1  3  1  0  0  0  0
  1 10  1  0  0  0  0
  2  1  1  0  0  0  0
  4  5  1  0  0  0  0
  5  6  1  0  0  0  0
  6  7  2  0  0  0  0
  6 18  1  0  0  0  0
  7 11  1  0  0  0  0
  8 12  1  0  0  0  0
  8  7  1  0  0  0  0
  9  8  2  0  0  0  0
 10  9  1  0  0  0  0
 10  5  2  0  0  0  0
 13  9  1  0  0  0  0
 14 20  1  0  0  0  0
 15 14  1  0  0  0  0
 15 21  1  0  0  0  0
 16 15  2  0  0  0  0
 17 18  2  0  0  0  0
 17 16  1  0  0  0  0
 18 19  1  0  0  0  0
 19 14  2  0  0  0  0
 22 16  1  0  0  0  0
 23  1  1  0  0  0  0
 23 25  1  0  0  0  0
 24 23  1  0  0  0  0
 26 28  1  0  0  0  0
 26 23  1  0  0  0  0
 27 26  1  0  0  0  0
 28 29  1  0  0  0  0
 30 28  1  0  0  0  0
 31 28  1  0  0  0  0
 31 32  1  0  0  0  0
 31 33  1  0  0  0  0
 34 35  1  0  0  0  0
 34 31  1  0  0  0  0
 36 37  1  0  0  0  0
 36 35  2  0  0  0  0
 38 40  1  0  0  0  0
 38 36  1  0  0  0  0
 39 38  1  0  0  0  0
 40 34  2  0  0  0  0
M  END
>  <minimizedAffinity>
-4.99224329

$$$$

 OpenBabel03262520143D

 40 42  0  0  0  0  0  0  0  0999 V2000
   38.2440   23.0840   33.7710 C   0  0  0  0  0  0  0  0  0  0  0  0
   39.0890   22.6600   33.1580 H   0  0  0  0  0  0  0  0  0  0  0  0
   38.6670   23.8660   34.4370 H   0  0  0  0  0  0  0  0  0  0  0  0
   38.4460   26.2340   33.5540 Br  0  0  0  0  0  0  0  0  0  0  0  0
   37.2600   25.0720   32.5710 C   0  0  0  0  0  0  0  0  0  0  0  0
   36.3730   25.5900   31.6570 C   0  0  0  0  0  0  0  0  0  0  0  0
   35.5610   24.7180   30.9980 C   0  0  0  0  0  0  0  0  0  0  0  0
   35.6020   23.3510   31.2190 C   0  0  0  0  0  0  0  0  0  0  0  0
   36.5140   22.8610   32.1550 C   0  0  0  0  0  0  0  0  0  0  0  0
   37.3360   23.7310   32.8210 C   0  0  0  0  0  0  0  0  0  0  0  0
   34.8700   25.1810   30.2770 H   0  0  0  0  0  0  0  0  0  0  0  0
   34.9020   22.8080   30.6250 H   0  0  0  0  0  0  0  0  0  0  0  0
   36.3850   21.8040   32.1960 H   0  0  0  0  0  0  0  0  0  0  0  0
   37.0360   28.8400   30.1340 C   0  0  0  0  0  0  0  0  0  0  0  0
   36.2170   29.7360   30.8730 C   0  0  0  0  0  0  0  0  0  0  0  0
   35.4560   29.1910   31.8810 C   0  0  0  0  0  0  0  0  0  0  0  0
   35.5070   27.8380   32.1380 N   0  0  0  0  0  0  0  0  0  0  0  0
   36.3000   27.0340   31.4070 C   0  0  0  0  0  0  0  0  0  0  0  0
   37.0520   27.5440   30.4190 N   0  0  0  0  0  0  0  0  0  0  0  0
   37.6660   29.1720   29.3270 H   0  0  0  0  0  0  0  0  0  0  0  0
   36.2260   30.7870   30.6190 H   0  0  0  0  0  0  0  0  0  0  0  0
   34.8300   29.8610   32.4500 H   0  0  0  0  0  0  0  0  0  0  0  0
   37.6760   21.9720   34.5790 C   0  0  0  0  0  0  0  0  0  0  0  0
   36.5910   22.2640   34.7290 H   0  0  0  0  0  0  0  0  0  0  0  0
   37.6380   21.0930   33.9700 H   0  0  0  0  0  0  0  0  0  0  0  0
   38.2470   21.9540   35.8670 N   0  0  0  0  0  0  0  0  0  0  0  0
   39.2640   21.7920   35.9300 H   0  0  0  0  0  0  0  0  0  0  0  0
   37.8850   23.0050   36.7540 C   0  0  0  0  0  0  0  0  0  0  0  0
   36.9770   22.7550   37.3630 H   0  0  0  0  0  0  0  0  0  0  0  0
   37.6480   23.9470   36.2280 H   0  0  0  0  0  0  0  0  0  0  0  0
   39.0360   23.2580   37.6630 C   0  0  0  0  0  0  0  0  0  0  0  0
   39.0950   24.1580   38.2350 H   0  0  0  0  0  0  0  0  0  0  0  0
   38.8820   22.4630   38.4780 H   0  0  0  0  0  0  0  0  0  0  0  0
   40.3420   22.8160   37.0910 C   0  0  0  0  0  0  0  0  0  0  0  0
   40.9330   21.7230   37.6060 N   0  0  0  0  0  0  0  0  0  0  0  0
   42.0950   21.5350   36.9210 C   0  0  0  0  0  0  0  0  0  0  0  0
   42.8240   20.7500   37.0690 H   0  0  0  0  0  0  0  0  0  0  0  0
   42.1580   22.5270   36.0170 N   0  0  0  0  0  0  0  0  0  0  0  0
   42.9290   22.6590   35.3400 H   0  0  0  0  0  0  0  0  0  0  0  0
   41.0910   23.3180   36.1120 N   0  0  0  0  0  0  0  0  0  0  0  0
  1  3  1  0  0  0  0
  1 23  1  0  0  0  0
  2  1  1  0  0  0  0
  5 10  1  0  0  0  0
  5  4  1  0  0  0  0
  6  5  2  0  0  0  0
  7  8  2  0  0  0  0
  7  6  1  0  0  0  0
  8  9  1  0  0  0  0
  9 13  1  0  0  0  0
  9 10  2  0  0  0  0
 10  1  1  0  0  0  0
 11  7  1  0  0  0  0
 12  8  1  0  0  0  0
 14 19  2  0  0  0  0
 14 15  1  0  0  0  0
 15 16  2  0  0  0  0
 16 17  1  0  0  0  0
 16 22  1  0  0  0  0
 18  6  1  0  0  0  0
 18 17  2  0  0  0  0
 19 18  1  0  0  0  0
 20 14  1  0  0  0  0
 21 15  1  0  0  0  0
 23 24  1  0  0  0  0
 23 26  1  0  0  0  0
 25 23  1  0  0  0  0
 26 27  1  0  0  0  0
 26 28  1  0  0  0  0
 28 29  1  0  0  0  0
 28 31  1  0  0  0  0
 30 28  1  0  0  0  0
 31 32  1  0  0  0  0
 31 33  1  0  0  0  0
 34 35  1  0  0  0  0
 34 31  1  0  0  0  0
 36 37  1  0  0  0  0
 36 35  2  0  0  0  0
 38 40  1  0  0  0  0
 38 36  1  0  0  0  0
 39 38  1  0  0  0  0
 40 34  2  0  0  0  0
M  END
>  <minimizedAffinity>
-4.96257257

$$$$

 OpenBabel03262520143D

 40 42  0  0  0  0  0  0  0  0999 V2000
   37.7910   27.7320   32.5150 C   0  0  0  0  0  0  0  0  0  0  0  0
   38.1960   28.3220   33.3860 H   0  0  0  0  0  0  0  0  0  0  0  0
   38.4980   27.8510   31.6670 H   0  0  0  0  0  0  0  0  0  0  0  0
   38.6380   27.1620   35.5090 Br  0  0  0  0  0  0  0  0  0  0  0  0
   38.1330   25.8640   34.1730 C   0  0  0  0  0  0  0  0  0  0  0  0
   38.1140   24.5220   34.4740 C   0  0  0  0  0  0  0  0  0  0  0  0
   37.7520   23.6570   33.4860 C   0  0  0  0  0  0  0  0  0  0  0  0
   37.4100   24.0820   32.2130 C   0  0  0  0  0  0  0  0  0  0  0  0
   37.4410   25.4510   31.9430 C   0  0  0  0  0  0  0  0  0  0  0  0
   37.8030   26.3290   32.9320 C   0  0  0  0  0  0  0  0  0  0  0  0
   37.7520   22.5950   33.7760 H   0  0  0  0  0  0  0  0  0  0  0  0
   37.1520   23.2810   31.5580 H   0  0  0  0  0  0  0  0  0  0  0  0
   37.1660   25.5760   30.9220 H   0  0  0  0  0  0  0  0  0  0  0  0
   37.8290   23.7270   38.0240 C   0  0  0  0  0  0  0  0  0  0  0  0
   39.0890   23.1560   38.3480 C   0  0  0  0  0  0  0  0  0  0  0  0
   40.0070   23.0610   37.3270 C   0  0  0  0  0  0  0  0  0  0  0  0
   39.6890   23.5080   36.0620 N   0  0  0  0  0  0  0  0  0  0  0  0
   38.4800   24.0410   35.8110 C   0  0  0  0  0  0  0  0  0  0  0  0
   37.5700   24.1430   36.7910 N   0  0  0  0  0  0  0  0  0  0  0  0
   37.0480   23.8430   38.7550 H   0  0  0  0  0  0  0  0  0  0  0  0
   39.2720   22.8270   39.3620 H   0  0  0  0  0  0  0  0  0  0  0  0
   40.9680   22.6300   37.5600 H   0  0  0  0  0  0  0  0  0  0  0  0
   36.4650   28.3090   32.1630 C   0  0  0  0  0  0  0  0  0  0  0  0
   36.7170   29.2880   31.6480 H   0  0  0  0  0  0  0  0  0  0  0  0
   36.0240   27.7060   31.3970 H   0  0  0  0  0  0  0  0  0  0  0  0
   35.7550   28.6630   33.3260 N   0  0  0  0  0  0  0  0  0  0  0  0
   36.3040   29.0050   34.1290 H   0  0  0  0  0  0  0  0  0  0  0  0
   34.6050   29.4840   33.1630 C   0  0  0  0  0  0  0  0  0  0  0  0
   33.8480   29.0250   32.4740 H   0  0  0  0  0  0  0  0  0  0  0  0
   34.8430   30.4740   32.7350 H   0  0  0  0  0  0  0  0  0  0  0  0
   33.9930   29.6920   34.5030 C   0  0  0  0  0  0  0  0  0  0  0  0
   32.9330   29.6650   34.6320 H   0  0  0  0  0  0  0  0  0  0  0  0
   34.3300   28.7530   35.0740 H   0  0  0  0  0  0  0  0  0  0  0  0
   34.6730   30.7560   35.2990 C   0  0  0  0  0  0  0  0  0  0  0  0
   35.8270   31.2690   34.8350 N   0  0  0  0  0  0  0  0  0  0  0  0
   36.2380   32.2070   35.7320 C   0  0  0  0  0  0  0  0  0  0  0  0
   37.1280   32.8200   35.6790 H   0  0  0  0  0  0  0  0  0  0  0  0
   35.3120   32.2220   36.7050 N   0  0  0  0  0  0  0  0  0  0  0  0
   35.3420   32.8360   37.5380 H   0  0  0  0  0  0  0  0  0  0  0  0
   34.3500   31.3380   36.4520 N   0  0  0  0  0  0  0  0  0  0  0  0
  1 10  1  0  0  0  0
  1  2  1  0  0  0  0
  3  1  1  0  0  0  0
  5  6  1  0  0  0  0
  5  4  1  0  0  0  0
  6 18  1  0  0  0  0
  7 11  1  0  0  0  0
  7  6  2  0  0  0  0
  8  7  1  0  0  0  0
  9  8  2  0  0  0  0
  9 10  1  0  0  0  0
 10  5  2  0  0  0  0
 12  8  1  0  0  0  0
 13  9  1  0  0  0  0
 14 15  1  0  0  0  0
 14 20  1  0  0  0  0
 15 21  1  0  0  0  0
 16 22  1  0  0  0  0
 16 15  2  0  0  0  0
 17 16  1  0  0  0  0
 18 17  2  0  0  0  0
 18 19  1  0  0  0  0
 19 14  2  0  0  0  0
 23  1  1  0  0  0  0
 23 26  1  0  0  0  0
 24 23  1  0  0  0  0
 25 23  1  0  0  0  0
 26 27  1  0  0  0  0
 28 26  1  0  0  0  0
 28 31  1  0  0  0  0
 29 28  1  0  0  0  0
 30 28  1  0  0  0  0
 31 32  1  0  0  0  0
 31 33  1  0  0  0  0
 31 34  1  0  0  0  0
 34 40  2  0  0  0  0
 35 34  1  0  0  0  0
 35 36  2  0  0  0  0
 36 38  1  0  0  0  0
 37 36  1  0  0  0  0
 38 39  1  0  0  0  0
 40 38  1  0  0  0  0
M  END
>  <minimizedAffinity>
-4.9325819

$$$$

 OpenBabel03262520143D

 40 42  0  0  0  0  0  0  0  0999 V2000
   36.8940   24.5790   31.0580 C   0  0  0  0  0  0  0  0  0  0  0  0
   37.8260   25.1990   31.1920 H   0  0  0  0  0  0  0  0  0  0  0  0
   36.9550   24.0860   30.0650 H   0  0  0  0  0  0  0  0  0  0  0  0
   38.8510   25.1020   33.4880 Br  0  0  0  0  0  0  0  0  0  0  0  0
   37.7110   23.5690   33.2190 C   0  0  0  0  0  0  0  0  0  0  0  0
   37.6880   22.5450   34.1370 C   0  0  0  0  0  0  0  0  0  0  0  0
   36.8650   21.4890   33.8870 C   0  0  0  0  0  0  0  0  0  0  0  0
   36.0670   21.4190   32.7560 C   0  0  0  0  0  0  0  0  0  0  0  0
   36.1170   22.4750   31.8460 C   0  0  0  0  0  0  0  0  0  0  0  0
   36.9410   23.5420   32.0910 C   0  0  0  0  0  0  0  0  0  0  0  0
   36.8810   20.6970   34.6510 H   0  0  0  0  0  0  0  0  0  0  0  0
   35.4820   20.5270   32.7100 H   0  0  0  0  0  0  0  0  0  0  0  0
   35.4550   22.2330   31.0470 H   0  0  0  0  0  0  0  0  0  0  0  0
   38.7320   23.2490   37.5610 C   0  0  0  0  0  0  0  0  0  0  0  0
   40.0420   22.7040   37.6380 C   0  0  0  0  0  0  0  0  0  0  0  0
   40.5310   22.1050   36.4990 C   0  0  0  0  0  0  0  0  0  0  0  0
   39.7630   22.0530   35.3560 N   0  0  0  0  0  0  0  0  0  0  0  0
   38.5280   22.5870   35.3390 C   0  0  0  0  0  0  0  0  0  0  0  0
   38.0310   23.1750   36.4370 N   0  0  0  0  0  0  0  0  0  0  0  0
   38.2650   23.7360   38.3990 H   0  0  0  0  0  0  0  0  0  0  0  0
   40.5900   22.7790   38.5670 H   0  0  0  0  0  0  0  0  0  0  0  0
   41.5240   21.6870   36.5440 H   0  0  0  0  0  0  0  0  0  0  0  0
   35.7320   25.5070   31.1010 C   0  0  0  0  0  0  0  0  0  0  0  0
   34.9650   25.0220   30.4210 H   0  0  0  0  0  0  0  0  0  0  0  0
   35.2960   25.4620   32.0770 H   0  0  0  0  0  0  0  0  0  0  0  0
   36.0560   26.7350   30.4920 N   0  0  0  0  0  0  0  0  0  0  0  0
   35.4150   27.5270   30.6570 H   0  0  0  0  0  0  0  0  0  0  0  0
   37.3990   27.1880   30.6120 C   0  0  0  0  0  0  0  0  0  0  0  0
   37.8140   27.5530   29.6360 H   0  0  0  0  0  0  0  0  0  0  0  0
   38.0880   26.3970   30.9580 H   0  0  0  0  0  0  0  0  0  0  0  0
   37.4260   28.2940   31.6070 C   0  0  0  0  0  0  0  0  0  0  0  0
   37.7230   28.1150   32.6170 H   0  0  0  0  0  0  0  0  0  0  0  0
   38.2820   28.9530   31.2160 H   0  0  0  0  0  0  0  0  0  0  0  0
   36.2730   29.2320   31.4710 C   0  0  0  0  0  0  0  0  0  0  0  0
   35.3340   29.2420   32.4330 N   0  0  0  0  0  0  0  0  0  0  0  0
   34.4040   30.1720   32.0770 C   0  0  0  0  0  0  0  0  0  0  0  0
   33.5090   30.4460   32.6190 H   0  0  0  0  0  0  0  0  0  0  0  0
   34.8230   30.6870   30.9090 N   0  0  0  0  0  0  0  0  0  0  0  0
   34.3260   31.4230   30.3780 H   0  0  0  0  0  0  0  0  0  0  0  0
   35.9650   30.1200   30.5270 N   0  0  0  0  0  0  0  0  0  0  0  0
  1 23  1  0  0  0  0
  1  2  1  0  0  0  0
  1 10  1  0  0  0  0
  3  1  1  0  0  0  0
  5  4  1  0  0  0  0
  5  6  1  0  0  0  0
  6 18  1  0  0  0  0
  7  6  2  0  0  0  0
  7 11  1  0  0  0  0
  8  7  1  0  0  0  0
  9 10  1  0  0  0  0
  9  8  2  0  0  0  0
 10  5  2  0  0  0  0
 12  8  1  0  0  0  0
 13  9  1  0  0  0  0
 14 15  1  0  0  0  0
 14 20  1  0  0  0  0
 15 21  1  0  0  0  0
 16 22  1  0  0  0  0
 16 15  2  0  0  0  0
 17 16  1  0  0  0  0
 18 17  2  0  0  0  0
 18 19  1  0  0  0  0
 19 14  2  0  0  0  0
 23 25  1  0  0  0  0
 24 23  1  0  0  0  0
 26 28  1  0  0  0  0
 26 27  1  0  0  0  0
 26 23  1  0  0  0  0
 28 30  1  0  0  0  0
 28 31  1  0  0  0  0
 29 28  1  0  0  0  0
 31 32  1  0  0  0  0
 33 31  1  0  0  0  0
 34 31  1  0  0  0  0
 34 35  1  0  0  0  0
 36 35  2  0  0  0  0
 36 37  1  0  0  0  0
 38 36  1  0  0  0  0
 39 38  1  0  0  0  0
 40 38  1  0  0  0  0
 40 34  2  0  0  0  0
M  END
>  <minimizedAffinity>
-4.91694546

$$$$

 OpenBabel03262520143D

 40 42  0  0  0  0  0  0  0  0999 V2000
   37.3990   27.8170   32.7110 C   0  0  0  0  0  0  0  0  0  0  0  0
   37.8030   28.3850   33.5970 H   0  0  0  0  0  0  0  0  0  0  0  0
   38.0540   28.0360   31.8410 H   0  0  0  0  0  0  0  0  0  0  0  0
   38.4070   27.1420   35.6330 Br  0  0  0  0  0  0  0  0  0  0  0  0
   37.9470   25.8880   34.2400 C   0  0  0  0  0  0  0  0  0  0  0  0
   38.0400   24.5340   34.4600 C   0  0  0  0  0  0  0  0  0  0  0  0
   37.7040   23.7020   33.4350 C   0  0  0  0  0  0  0  0  0  0  0  0
   37.2800   24.1720   32.2030 C   0  0  0  0  0  0  0  0  0  0  0  0
   37.1980   25.5530   32.0160 C   0  0  0  0  0  0  0  0  0  0  0  0
   37.5330   26.3970   33.0420 C   0  0  0  0  0  0  0  0  0  0  0  0
   37.7950   22.6280   33.6600 H   0  0  0  0  0  0  0  0  0  0  0  0
   37.0560   23.3920   31.5100 H   0  0  0  0  0  0  0  0  0  0  0  0
   36.8730   25.7150   31.0140 H   0  0  0  0  0  0  0  0  0  0  0  0
   40.2220   23.0260   36.9660 C   0  0  0  0  0  0  0  0  0  0  0  0
   39.4230   22.9970   38.1410 C   0  0  0  0  0  0  0  0  0  0  0  0
   38.1470   23.5020   38.0340 C   0  0  0  0  0  0  0  0  0  0  0  0
   37.6950   24.0040   36.8330 N   0  0  0  0  0  0  0  0  0  0  0  0
   38.4950   24.0060   35.7510 C   0  0  0  0  0  0  0  0  0  0  0  0
   39.7420   23.5190   35.8310 N   0  0  0  0  0  0  0  0  0  0  0  0
   41.2310   22.6540   36.9510 H   0  0  0  0  0  0  0  0  0  0  0  0
   39.8400   22.5890   39.0520 H   0  0  0  0  0  0  0  0  0  0  0  0
   37.5300   23.4870   38.9200 H   0  0  0  0  0  0  0  0  0  0  0  0
   36.0200   28.3120   32.4530 C   0  0  0  0  0  0  0  0  0  0  0  0
   36.1750   29.2900   31.9010 H   0  0  0  0  0  0  0  0  0  0  0  0
   35.5550   27.6680   31.7370 H   0  0  0  0  0  0  0  0  0  0  0  0
   35.3830   28.6550   33.6620 N   0  0  0  0  0  0  0  0  0  0  0  0
   35.4260   27.9670   34.4290 H   0  0  0  0  0  0  0  0  0  0  0  0
   35.6340   29.9540   34.1850 C   0  0  0  0  0  0  0  0  0  0  0  0
   36.0510   30.6510   33.4110 H   0  0  0  0  0  0  0  0  0  0  0  0
   36.3640   29.9480   35.0130 H   0  0  0  0  0  0  0  0  0  0  0  0
   34.3490   30.4980   34.7020 C   0  0  0  0  0  0  0  0  0  0  0  0
   34.2180   30.6960   35.7440 H   0  0  0  0  0  0  0  0  0  0  0  0
   34.3340   31.5560   34.2510 H   0  0  0  0  0  0  0  0  0  0  0  0
   33.1520   29.9010   34.0420 C   0  0  0  0  0  0  0  0  0  0  0  0
   32.3130   29.1560   34.7840 N   0  0  0  0  0  0  0  0  0  0  0  0
   31.3150   28.7320   33.9580 C   0  0  0  0  0  0  0  0  0  0  0  0
   30.4670   28.1130   34.2180 H   0  0  0  0  0  0  0  0  0  0  0  0
   31.5950   29.2420   32.7470 N   0  0  0  0  0  0  0  0  0  0  0  0
   31.0190   29.0970   31.9000 H   0  0  0  0  0  0  0  0  0  0  0  0
   32.7170   29.9570   32.7850 N   0  0  0  0  0  0  0  0  0  0  0  0
  1 10  1  0  0  0  0
  1  2  1  0  0  0  0
  3  1  1  0  0  0  0
  5  6  1  0  0  0  0
  5  4  1  0  0  0  0
  6 18  1  0  0  0  0
  7 11  1  0  0  0  0
  7  6  2  0  0  0  0
  8  7  1  0  0  0  0
  9  8  2  0  0  0  0
  9 10  1  0  0  0  0
 10  5  2  0  0  0  0
 12  8  1  0  0  0  0
 13  9  1  0  0  0  0
 14 15  1  0  0  0  0
 15 21  1  0  0  0  0
 16 15  2  0  0  0  0
 16 22  1  0  0  0  0
 17 16  1  0  0  0  0
 18 19  1  0  0  0  0
 18 17  2  0  0  0  0
 19 14  2  0  0  0  0
 20 14  1  0  0  0  0
 23  1  1  0  0  0  0
 23 26  1  0  0  0  0
 24 23  1  0  0  0  0
 25 23  1  0  0  0  0
 26 28  1  0  0  0  0
 26 27  1  0  0  0  0
 28 31  1  0  0  0  0
 28 30  1  0  0  0  0
 29 28  1  0  0  0  0
 31 32  1  0  0  0  0
 33 31  1  0  0  0  0
 34 31  1  0  0  0  0
 34 35  1  0  0  0  0
 36 37  1  0  0  0  0
 36 35  2  0  0  0  0
 38 40  1  0  0  0  0
 38 36  1  0  0  0  0
 39 38  1  0  0  0  0
 40 34  2  0  0  0  0
M  END
>  <minimizedAffinity>
-4.88537788

$$$$
