
 OpenBabel03272507193D

 28 30  0  0  1  0  0  0  0  0999 V2000
   37.3350   31.2650   49.4140 C   0  0  0  0  0  0  0  0  0  0  0  0
   38.2960   32.2690   49.4920 C   0  0  0  0  0  0  0  0  0  0  0  0
   38.8040   32.6920   48.2670 C   0  0  0  0  0  0  0  0  0  0  0  0
   38.3670   32.1410   47.0870 N   0  0  0  0  0  0  0  0  0  0  0  0
   37.4260   31.1620   47.0620 C   0  0  0  0  0  0  0  0  0  0  0  0
   36.9040   30.7210   48.2420 N   0  0  0  0  0  0  0  0  0  0  0  0
   38.6220   32.6850   50.4180 H   0  0  0  0  0  0  0  0  0  0  0  0
   39.5580   33.4710   48.2140 H   0  0  0  0  0  0  0  0  0  0  0  0
   36.7580   30.8010   50.7130 C   0  0  1  0  0  0  0  0  0  0  0  0
   36.0430   29.5290   50.8280 C   0  0  2  0  0  0  0  0  0  0  0  0
   37.4800   29.5460   51.2470 C   0  0  0  0  0  0  0  0  0  0  0  0
   36.6810   31.6220   51.4730 H   0  0  0  0  0  0  0  0  0  0  0  0
   35.1980   29.5850   51.5720 H   0  0  0  0  0  0  0  0  0  0  0  0
   38.2240   29.0500   50.6140 H   0  0  0  0  0  0  0  0  0  0  0  0
   37.6750   29.5330   52.3330 H   0  0  0  0  0  0  0  0  0  0  0  0
   35.6890   28.8890   49.6480 O   0  0  0  0  0  0  0  0  0  0  0  0
   34.4780   28.4290   49.2500 C   0  0  0  0  0  0  0  0  0  0  0  0
   34.3540   27.4430   48.4930 O   0  0  0  0  0  0  0  0  0  0  0  0
   33.4870   29.2250   49.8210 N   0  0  0  0  0  0  0  0  0  0  0  0
   33.4140   30.2410   49.8550 H   0  0  0  0  0  0  0  0  0  0  0  0
   32.7340   28.6590   50.2620 H   0  0  0  0  0  0  0  0  0  0  0  0
   37.0270   30.6420   45.7820 C   0  0  0  0  0  0  0  0  0  0  0  0
   37.9160   30.5050   44.7550 N   0  0  0  0  0  0  0  0  0  0  0  0
   37.2960   29.9970   43.6650 C   0  0  0  0  0  0  0  0  0  0  0  0
   37.8950   29.8420   42.7820 H   0  0  0  0  0  0  0  0  0  0  0  0
   36.0110   29.8170   44.0190 N   0  0  0  0  0  0  0  0  0  0  0  0
   35.3330   29.4330   43.3380 H   0  0  0  0  0  0  0  0  0  0  0  0
   35.8410   30.2020   45.2900 N   0  0  0  0  0  0  0  0  0  0  0  0
  1  2  1  0  0  0  0
  1  9  1  0  0  0  0
  2  7  1  0  0  0  0
  3  2  2  0  0  0  0
  4  3  1  0  0  0  0
  5  4  2  0  0  0  0
  5  6  1  0  0  0  0
  6  1  2  0  0  0  0
  8  3  1  0  0  0  0
  9 10  1  0  0  0  0
  9 11  1  0  0  0  0
  9 12  1  1  0  0  0
 10 11  1  0  0  0  0
 10 13  1  1  0  0  0
 11 15  1  0  0  0  0
 14 11  1  0  0  0  0
 16 10  1  0  0  0  0
 17 16  1  0  0  0  0
 17 19  1  0  0  0  0
 18 17  2  0  0  0  0
 19 20  1  0  0  0  0
 19 21  1  0  0  0  0
 22  5  1  0  0  0  0
 23 22  1  0  0  0  0
 24 26  1  0  0  0  0
 24 23  2  0  0  0  0
 25 24  1  0  0  0  0
 26 28  1  0  0  0  0
 27 26  1  0  0  0  0
 28 22  2  0  0  0  0
M  END
>  <minimizedAffinity>
-5.20277786

>  <minimizedRMSD>
0.133200809

$$$$
