
 OpenBabel03272506273D

 40 43  0  0  0  0  0  0  0  0999 V2000
   31.4930   26.7160   47.2410 C   0  0  0  0  0  0  0  0  0  0  0  0
   31.4010   25.3370   47.2130 C   0  0  0  0  0  0  0  0  0  0  0  0
   32.3210   24.4980   46.5870 C   0  0  0  0  0  0  0  0  0  0  0  0
   33.4210   25.0900   45.9370 C   0  0  0  0  0  0  0  0  0  0  0  0
   33.4980   26.4660   45.9750 C   0  0  0  0  0  0  0  0  0  0  0  0
   32.5920   27.2770   46.5920 C   0  0  0  0  0  0  0  0  0  0  0  0
   30.5530   24.8370   47.7100 H   0  0  0  0  0  0  0  0  0  0  0  0
   32.1400   23.4110   46.6330 H   0  0  0  0  0  0  0  0  0  0  0  0
   34.0590   24.3560   45.4940 H   0  0  0  0  0  0  0  0  0  0  0  0
   34.3750   26.7090   45.4330 H   0  0  0  0  0  0  0  0  0  0  0  0
   30.6280   27.6130   49.3110 C   0  0  0  0  0  0  0  0  0  0  0  0
   30.4510   27.4200   47.9320 C   0  0  0  0  0  0  0  0  0  0  0  0
   29.2850   27.9230   47.3390 C   0  0  0  0  0  0  0  0  0  0  0  0
   28.3770   28.5720   48.1160 N   0  0  0  0  0  0  0  0  0  0  0  0
   28.5740   28.7450   49.4560 C   0  0  0  0  0  0  0  0  0  0  0  0
   29.7010   28.2640   50.0470 N   0  0  0  0  0  0  0  0  0  0  0  0
   31.5050   27.2420   49.7980 H   0  0  0  0  0  0  0  0  0  0  0  0
   27.8600   29.2600   50.0830 H   0  0  0  0  0  0  0  0  0  0  0  0
   28.9630   27.7890   45.8890 C   0  0  0  0  0  0  0  0  0  0  0  0
   27.7170   28.3900   45.6310 F   0  0  0  0  0  0  0  0  0  0  0  0
   29.8710   28.2930   45.0320 F   0  0  0  0  0  0  0  0  0  0  0  0
   28.7440   26.4400   45.5820 F   0  0  0  0  0  0  0  0  0  0  0  0
   32.7080   29.0270   46.6310 S   0  0  0  0  0  0  0  0  0  0  0  0
   34.0070   29.0110   49.4550 Cl  0  0  0  0  0  0  0  0  0  0  0  0
   34.9010   29.5770   48.0720 C   0  0  0  0  0  0  0  0  0  0  0  0
   34.3660   29.6290   46.7850 C   0  0  0  0  0  0  0  0  0  0  0  0
   35.1030   30.1060   45.7410 C   0  0  0  0  0  0  0  0  0  0  0  0
   36.3990   30.5360   45.9850 C   0  0  0  0  0  0  0  0  0  0  0  0
   36.9410   30.4850   47.2730 C   0  0  0  0  0  0  0  0  0  0  0  0
   36.1960   30.0040   48.3280 C   0  0  0  0  0  0  0  0  0  0  0  0
   34.7750   30.2190   44.7410 H   0  0  0  0  0  0  0  0  0  0  0  0
   37.0260   30.9220   45.1870 H   0  0  0  0  0  0  0  0  0  0  0  0
   37.9680   30.8400   47.3930 H   0  0  0  0  0  0  0  0  0  0  0  0
   36.7940   29.9670   49.6580 C   0  0  0  0  0  0  0  0  0  0  0  0
   37.1560   28.8120   50.2430 N   0  0  0  0  0  0  0  0  0  0  0  0
   37.6780   29.1140   51.4690 C   0  0  0  0  0  0  0  0  0  0  0  0
   38.0930   28.5310   52.2850 H   0  0  0  0  0  0  0  0  0  0  0  0
   37.6110   30.4740   51.5870 N   0  0  0  0  0  0  0  0  0  0  0  0
   37.9000   31.1130   52.3600 H   0  0  0  0  0  0  0  0  0  0  0  0
   37.0760   30.9850   50.4920 N   0  0  0  0  0  0  0  0  0  0  0  0
  1 12  1  0  0  0  0
  2  1  1  0  0  0  0
  2  7  1  0  0  0  0
  3  8  1  0  0  0  0
  3  2  2  0  0  0  0
  4  5  2  0  0  0  0
  4  3  1  0  0  0  0
  5  6  1  0  0  0  0
  6 23  1  0  0  0  0
  6  1  2  0  0  0  0
  9  4  1  0  0  0  0
 10  5  1  0  0  0  0
 11 17  1  0  0  0  0
 11 16  1  0  0  0  0
 12 11  2  0  0  0  0
 13 12  1  0  0  0  0
 13 14  2  0  0  0  0
 14 15  1  0  0  0  0
 15 16  2  0  0  0  0
 15 18  1  0  0  0  0
 19 13  1  0  0  0  0
 20 19  1  0  0  0  0
 21 19  1  0  0  0  0
 22 19  1  0  0  0  0
 23 26  1  0  0  0  0
 25 30  1  0  0  0  0
 25 24  1  0  0  0  0
 26 25  2  0  0  0  0
 27 28  2  0  0  0  0
 27 26  1  0  0  0  0
 28 29  1  0  0  0  0
 29 33  1  0  0  0  0
 29 30  2  0  0  0  0
 30 34  1  0  0  0  0
 31 27  1  0  0  0  0
 32 28  1  0  0  0  0
 34 35  1  0  0  0  0
 34 40  2  0  0  0  0
 35 36  2  0  0  0  0
 36 38  1  0  0  0  0
 36 37  1  0  0  0  0
 38 39  1  0  0  0  0
 40 38  1  0  0  0  0
M  END
>  <minimizedAffinity>
-5.55281591

>  <minimizedRMSD>
3.51202393

$$$$
