
 OpenBabel03272510133D

 39 42  0  0  0  0  0  0  0  0999 V2000
   38.3110   31.5960   48.8420 C   0  0  0  0  0  0  0  0  0  0  0  0
   38.5130   32.8570   49.3570 C   0  0  0  0  0  0  0  0  0  0  0  0
   39.1810   33.5940   48.3740 C   0  0  0  0  0  0  0  0  0  0  0  0
   39.3550   32.7780   47.3290 N   0  0  0  0  0  0  0  0  0  0  0  0
   38.8450   31.6230   47.6150 N   0  0  0  0  0  0  0  0  0  0  0  0
   38.2860   33.3660   50.2840 H   0  0  0  0  0  0  0  0  0  0  0  0
   39.5200   34.6330   48.3930 H   0  0  0  0  0  0  0  0  0  0  0  0
   40.0020   33.1170   46.0950 C   0  0  0  0  0  0  0  0  0  0  0  0
   40.7460   33.9080   46.3140 H   0  0  0  0  0  0  0  0  0  0  0  0
   39.2900   33.6100   45.3730 H   0  0  0  0  0  0  0  0  0  0  0  0
   40.6290   31.9050   45.5100 C   0  0  0  0  0  0  0  0  0  0  0  0
   41.7190   32.1280   45.3990 H   0  0  0  0  0  0  0  0  0  0  0  0
   40.6180   31.1210   46.3270 H   0  0  0  0  0  0  0  0  0  0  0  0
   40.1130   31.3790   44.2710 C   0  0  0  0  0  0  0  0  0  0  0  0
   40.0010   32.1440   43.1450 N   0  0  0  0  0  0  0  0  0  0  0  0
   39.5000   31.4270   42.1290 C   0  0  0  0  0  0  0  0  0  0  0  0
   39.2920   31.7410   41.1140 H   0  0  0  0  0  0  0  0  0  0  0  0
   39.2880   30.1890   42.6020 N   0  0  0  0  0  0  0  0  0  0  0  0
   38.9120   29.3370   42.1450 H   0  0  0  0  0  0  0  0  0  0  0  0
   39.6550   30.1810   43.8660 N   0  0  0  0  0  0  0  0  0  0  0  0
   37.6570   30.7230   49.6870 O   0  0  0  0  0  0  0  0  0  0  0  0
   34.1010   28.8990   48.3750 C   0  0  0  0  0  0  0  0  0  0  0  0
   34.8420   28.3590   49.3800 C   0  0  0  0  0  0  0  0  0  0  0  0
   36.0080   28.8980   49.8560 C   0  0  0  0  0  0  0  0  0  0  0  0
   36.5030   30.0460   49.3290 C   0  0  0  0  0  0  0  0  0  0  0  0
   35.7550   30.6130   48.2970 C   0  0  0  0  0  0  0  0  0  0  0  0
   34.6080   30.0560   47.8510 N   0  0  0  0  0  0  0  0  0  0  0  0
   34.5200   27.4460   49.8560 H   0  0  0  0  0  0  0  0  0  0  0  0
   36.5920   28.4560   50.6610 H   0  0  0  0  0  0  0  0  0  0  0  0
   36.0680   31.5360   47.8070 H   0  0  0  0  0  0  0  0  0  0  0  0
   32.1160   27.4060   48.5580 C   0  0  0  0  0  0  0  0  0  0  0  0
   32.8830   28.3470   47.8660 C   0  0  0  0  0  0  0  0  0  0  0  0
   32.4170   28.7430   46.6310 C   0  0  0  0  0  0  0  0  0  0  0  0
   31.2540   28.2160   46.1400 N   0  0  0  0  0  0  0  0  0  0  0  0
   30.5510   27.3060   46.8550 C   0  0  0  0  0  0  0  0  0  0  0  0
   30.9680   26.8820   48.0770 N   0  0  0  0  0  0  0  0  0  0  0  0
   32.4400   27.0650   49.5290 H   0  0  0  0  0  0  0  0  0  0  0  0
   32.9840   29.4760   46.0590 H   0  0  0  0  0  0  0  0  0  0  0  0
   29.6450   26.9570   46.3660 H   0  0  0  0  0  0  0  0  0  0  0  0
  1  2  1  0  0  0  0
  1 21  1  0  0  0  0
  2  6  1  0  0  0  0
  3  7  1  0  0  0  0
  3  2  2  0  0  0  0
  4  5  1  0  0  0  0
  4  3  1  0  0  0  0
  5  1  2  0  0  0  0
  8  9  1  0  0  0  0
  8  4  1  0  0  0  0
 10  8  1  0  0  0  0
 11  8  1  0  0  0  0
 11 13  1  0  0  0  0
 12 11  1  0  0  0  0
 14 11  1  0  0  0  0
 15 14  1  0  0  0  0
 16 18  1  0  0  0  0
 16 15  2  0  0  0  0
 17 16  1  0  0  0  0
 18 20  1  0  0  0  0
 19 18  1  0  0  0  0
 20 14  2  0  0  0  0
 22 23  1  0  0  0  0
 23 28  1  0  0  0  0
 23 24  2  0  0  0  0
 24 29  1  0  0  0  0
 25 21  1  0  0  0  0
 25 24  1  0  0  0  0
 26 25  2  0  0  0  0
 27 26  1  0  0  0  0
 27 22  2  0  0  0  0
 30 26  1  0  0  0  0
 31 37  1  0  0  0  0
 32 22  1  0  0  0  0
 32 31  2  0  0  0  0
 33 32  1  0  0  0  0
 34 33  2  0  0  0  0
 34 35  1  0  0  0  0
 35 36  2  0  0  0  0
 36 31  1  0  0  0  0
 38 33  1  0  0  0  0
 39 35  1  0  0  0  0
M  END
>  <minimizedAffinity>
-5.9726634

>  <minimizedRMSD>
0.924581707

$$$$
