
 OpenBabel03272506193D

 32 34  0  0  0  0  0  0  0  0999 V2000
   37.2140   27.1850   33.6710 C   0  0  0  0  0  0  0  0  0  0  0  0
   37.4480   27.0060   35.1570 C   0  0  0  0  0  0  0  0  0  0  0  0
   38.8640   27.2820   35.5690 C   0  0  0  0  0  0  0  0  0  0  0  0
   39.8410   26.4320   34.7950 C   0  0  0  0  0  0  0  0  0  0  0  0
   39.5690   26.4060   33.3230 C   0  0  0  0  0  0  0  0  0  0  0  0
   38.4800   27.3770   32.9090 C   0  0  0  0  0  0  0  0  0  0  0  0
   36.6320   26.3270   33.2680 H   0  0  0  0  0  0  0  0  0  0  0  0
   37.2770   25.9180   35.3860 H   0  0  0  0  0  0  0  0  0  0  0  0
   36.7710   27.6070   35.7590 H   0  0  0  0  0  0  0  0  0  0  0  0
   39.1350   28.3670   35.4730 H   0  0  0  0  0  0  0  0  0  0  0  0
   38.9650   27.0470   36.6330 H   0  0  0  0  0  0  0  0  0  0  0  0
   40.8510   26.8080   34.9990 H   0  0  0  0  0  0  0  0  0  0  0  0
   39.7980   25.4120   35.2500 H   0  0  0  0  0  0  0  0  0  0  0  0
   40.4940   26.7220   32.7670 H   0  0  0  0  0  0  0  0  0  0  0  0
   39.3560   25.3850   32.9400 H   0  0  0  0  0  0  0  0  0  0  0  0
   38.8770   28.3880   33.1240 H   0  0  0  0  0  0  0  0  0  0  0  0
   38.3220   27.2720   31.8370 H   0  0  0  0  0  0  0  0  0  0  0  0
   36.3570   28.3870   33.4390 C   0  0  0  0  0  0  0  0  0  0  0  0
   35.8960   29.0670   34.5790 C   0  0  0  0  0  0  0  0  0  0  0  0
   35.0930   30.1810   34.3730 C   0  0  0  0  0  0  0  0  0  0  0  0
   34.7950   30.5550   33.0990 N   0  0  0  0  0  0  0  0  0  0  0  0
   35.2520   29.8800   32.0110 C   0  0  0  0  0  0  0  0  0  0  0  0
   36.0290   28.8020   32.1980 N   0  0  0  0  0  0  0  0  0  0  0  0
   36.0890   28.8260   35.5950 H   0  0  0  0  0  0  0  0  0  0  0  0
   34.9750   30.2330   31.0260 H   0  0  0  0  0  0  0  0  0  0  0  0
   34.5700   30.9500   35.4960 C   0  0  0  0  0  0  0  0  0  0  0  0
   33.3800   31.2950   36.0180 N   0  0  0  0  0  0  0  0  0  0  0  0
   33.6400   32.0560   37.1160 C   0  0  0  0  0  0  0  0  0  0  0  0
   32.9720   32.5290   37.8120 H   0  0  0  0  0  0  0  0  0  0  0  0
   34.9880   32.1810   37.2710 N   0  0  0  0  0  0  0  0  0  0  0  0
   35.4980   32.7080   38.0260 H   0  0  0  0  0  0  0  0  0  0  0  0
   35.5310   31.5000   36.2740 N   0  0  0  0  0  0  0  0  0  0  0  0
  1  2  1  0  0  0  0
  2  8  1  0  0  0  0
  2  3  1  0  0  0  0
  2  9  1  0  0  0  0
  3 11  1  0  0  0  0
  4 12  1  0  0  0  0
  4 13  1  0  0  0  0
  4  3  1  0  0  0  0
  5  4  1  0  0  0  0
  6 16  1  0  0  0  0
  6  5  1  0  0  0  0
  6  1  1  0  0  0  0
  7  1  1  0  0  0  0
 10  3  1  0  0  0  0
 14  5  1  0  0  0  0
 15  5  1  0  0  0  0
 17  6  1  0  0  0  0
 18  1  1  0  0  0  0
 18 19  1  0  0  0  0
 19 24  1  0  0  0  0
 20 19  2  0  0  0  0
 20 26  1  0  0  0  0
 21 20  1  0  0  0  0
 22 23  1  0  0  0  0
 22 21  2  0  0  0  0
 23 18  2  0  0  0  0
 25 22  1  0  0  0  0
 26 27  1  0  0  0  0
 26 32  2  0  0  0  0
 27 28  2  0  0  0  0
 28 30  1  0  0  0  0
 28 29  1  0  0  0  0
 30 31  1  0  0  0  0
 32 30  1  0  0  0  0
M  END
>  <minimizedAffinity>
-5.16205168

$$$$

 OpenBabel03272506193D

 32 34  0  0  0  0  0  0  0  0999 V2000
   37.7090   27.4720   33.4620 C   0  0  0  0  0  0  0  0  0  0  0  0
   36.9950   28.1990   34.5820 C   0  0  0  0  0  0  0  0  0  0  0  0
   35.6310   28.6890   34.1920 C   0  0  0  0  0  0  0  0  0  0  0  0
   35.6890   29.5720   32.9700 C   0  0  0  0  0  0  0  0  0  0  0  0
   36.5340   29.0070   31.8700 C   0  0  0  0  0  0  0  0  0  0  0  0
   37.0030   27.5940   32.1550 C   0  0  0  0  0  0  0  0  0  0  0  0
   38.7590   27.8280   33.3820 H   0  0  0  0  0  0  0  0  0  0  0  0
   37.5930   29.1250   34.8040 H   0  0  0  0  0  0  0  0  0  0  0  0
   36.9200   27.5980   35.4860 H   0  0  0  0  0  0  0  0  0  0  0  0
   34.9040   27.8510   34.0290 H   0  0  0  0  0  0  0  0  0  0  0  0
   35.2240   29.2730   35.0240 H   0  0  0  0  0  0  0  0  0  0  0  0
   34.6620   29.7410   32.6260 H   0  0  0  0  0  0  0  0  0  0  0  0
   36.0610   30.5670   33.3190 H   0  0  0  0  0  0  0  0  0  0  0  0
   35.9260   28.9470   30.9260 H   0  0  0  0  0  0  0  0  0  0  0  0
   37.3900   29.6620   31.6010 H   0  0  0  0  0  0  0  0  0  0  0  0
   36.0890   26.9700   32.1830 H   0  0  0  0  0  0  0  0  0  0  0  0
   37.6340   27.2720   31.3280 H   0  0  0  0  0  0  0  0  0  0  0  0
   37.8090   26.0170   33.7910 C   0  0  0  0  0  0  0  0  0  0  0  0
   38.0730   25.6870   35.1310 C   0  0  0  0  0  0  0  0  0  0  0  0
   38.1750   24.3380   35.4460 C   0  0  0  0  0  0  0  0  0  0  0  0
   38.0170   23.4160   34.4570 N   0  0  0  0  0  0  0  0  0  0  0  0
   37.7630   23.7600   33.1670 C   0  0  0  0  0  0  0  0  0  0  0  0
   37.6630   25.0600   32.8510 N   0  0  0  0  0  0  0  0  0  0  0  0
   38.2090   26.3560   35.9450 H   0  0  0  0  0  0  0  0  0  0  0  0
   37.6500   22.9730   32.4320 H   0  0  0  0  0  0  0  0  0  0  0  0
   38.4460   23.9020   36.8100 C   0  0  0  0  0  0  0  0  0  0  0  0
   38.0320   24.1760   38.0600 N   0  0  0  0  0  0  0  0  0  0  0  0
   38.7360   23.3610   38.8920 C   0  0  0  0  0  0  0  0  0  0  0  0
   38.7070   23.2630   39.9620 H   0  0  0  0  0  0  0  0  0  0  0  0
   39.5820   22.5850   38.1570 N   0  0  0  0  0  0  0  0  0  0  0  0
   40.2540   21.8580   38.5140 H   0  0  0  0  0  0  0  0  0  0  0  0
   39.3870   22.9330   36.8950 N   0  0  0  0  0  0  0  0  0  0  0  0
  1 18  1  0  0  0  0
  1  2  1  0  0  0  0
  2  8  1  0  0  0  0
  2  9  1  0  0  0  0
  3  2  1  0  0  0  0
  3 11  1  0  0  0  0
  4 13  1  0  0  0  0
  4  3  1  0  0  0  0
  5  6  1  0  0  0  0
  5  4  1  0  0  0  0
  6 16  1  0  0  0  0
  6  1  1  0  0  0  0
  7  1  1  0  0  0  0
 10  3  1  0  0  0  0
 12  4  1  0  0  0  0
 14  5  1  0  0  0  0
 15  5  1  0  0  0  0
 17  6  1  0  0  0  0
 18 19  1  0  0  0  0
 19 20  2  0  0  0  0
 19 24  1  0  0  0  0
 20 26  1  0  0  0  0
 21 20  1  0  0  0  0
 22 21  2  0  0  0  0
 23 22  1  0  0  0  0
 23 18  2  0  0  0  0
 25 22  1  0  0  0  0
 26 32  2  0  0  0  0
 26 27  1  0  0  0  0
 27 28  2  0  0  0  0
 28 29  1  0  0  0  0
 30 31  1  0  0  0  0
 30 28  1  0  0  0  0
 32 30  1  0  0  0  0
M  END
>  <minimizedAffinity>
-5.06037903

$$$$

 OpenBabel03272506193D

 32 34  0  0  0  0  0  0  0  0999 V2000
   38.8450   26.3930   34.7960 C   0  0  0  0  0  0  0  0  0  0  0  0
   37.9670   27.4970   35.3460 C   0  0  0  0  0  0  0  0  0  0  0  0
   36.7280   27.7270   34.5310 C   0  0  0  0  0  0  0  0  0  0  0  0
   37.0600   28.0130   33.0880 C   0  0  0  0  0  0  0  0  0  0  0  0
   38.0700   27.0690   32.5130 C   0  0  0  0  0  0  0  0  0  0  0  0
   38.4080   25.9260   33.4500 C   0  0  0  0  0  0  0  0  0  0  0  0
   39.9080   26.7200   34.7780 H   0  0  0  0  0  0  0  0  0  0  0  0
   38.5560   28.4520   35.2690 H   0  0  0  0  0  0  0  0  0  0  0  0
   37.6930   27.3310   36.3860 H   0  0  0  0  0  0  0  0  0  0  0  0
   36.0050   26.8710   34.6000 H   0  0  0  0  0  0  0  0  0  0  0  0
   36.1990   28.5910   34.9460 H   0  0  0  0  0  0  0  0  0  0  0  0
   36.1260   27.9830   32.5150 H   0  0  0  0  0  0  0  0  0  0  0  0
   37.4060   29.0760   33.0510 H   0  0  0  0  0  0  0  0  0  0  0  0
   37.6500   26.5950   31.5840 H   0  0  0  0  0  0  0  0  0  0  0  0
   38.9920   27.5810   32.1640 H   0  0  0  0  0  0  0  0  0  0  0  0
   37.4750   25.3390   33.5610 H   0  0  0  0  0  0  0  0  0  0  0  0
   39.1670   25.3100   32.9740 H   0  0  0  0  0  0  0  0  0  0  0  0
   38.8110   25.2170   35.7190 C   0  0  0  0  0  0  0  0  0  0  0  0
   39.8790   24.3090   35.6270 C   0  0  0  0  0  0  0  0  0  0  0  0
   39.8540   23.2090   36.4750 C   0  0  0  0  0  0  0  0  0  0  0  0
   38.8130   23.0670   37.3400 N   0  0  0  0  0  0  0  0  0  0  0  0
   37.7890   23.9590   37.4100 C   0  0  0  0  0  0  0  0  0  0  0  0
   37.8040   25.0250   36.5950 N   0  0  0  0  0  0  0  0  0  0  0  0
   40.7150   24.3610   34.9750 H   0  0  0  0  0  0  0  0  0  0  0  0
   36.9940   23.7820   38.1220 H   0  0  0  0  0  0  0  0  0  0  0  0
   40.9200   22.2150   36.4520 C   0  0  0  0  0  0  0  0  0  0  0  0
   41.8070   21.7050   35.5800 N   0  0  0  0  0  0  0  0  0  0  0  0
   42.5290   20.7720   36.2580 C   0  0  0  0  0  0  0  0  0  0  0  0
   43.3330   20.1380   35.9310 H   0  0  0  0  0  0  0  0  0  0  0  0
   42.0890   20.7060   37.5460 N   0  0  0  0  0  0  0  0  0  0  0  0
   42.4490   20.0820   38.3130 H   0  0  0  0  0  0  0  0  0  0  0  0
   41.1100   21.5930   37.6390 N   0  0  0  0  0  0  0  0  0  0  0  0
  1  2  1  0  0  0  0
  1 18  1  0  0  0  0
  2  9  1  0  0  0  0
  3 10  1  0  0  0  0
  3 11  1  0  0  0  0
  3  2  1  0  0  0  0
  4  3  1  0  0  0  0
  5  4  1  0  0  0  0
  5  6  1  0  0  0  0
  6 16  1  0  0  0  0
  6  1  1  0  0  0  0
  7  1  1  0  0  0  0
  8  2  1  0  0  0  0
 12  4  1  0  0  0  0
 13  4  1  0  0  0  0
 14  5  1  0  0  0  0
 15  5  1  0  0  0  0
 17  6  1  0  0  0  0
 18 23  1  0  0  0  0
 19 18  2  0  0  0  0
 19 20  1  0  0  0  0
 20 21  2  0  0  0  0
 21 22  1  0  0  0  0
 22 25  1  0  0  0  0
 23 22  2  0  0  0  0
 24 19  1  0  0  0  0
 26 20  1  0  0  0  0
 26 32  2  0  0  0  0
 27 28  2  0  0  0  0
 27 26  1  0  0  0  0
 28 30  1  0  0  0  0
 29 28  1  0  0  0  0
 30 32  1  0  0  0  0
 30 31  1  0  0  0  0
M  END
>  <minimizedAffinity>
-4.97714758

$$$$

 OpenBabel03272506193D

 32 34  0  0  0  0  0  0  0  0999 V2000
   37.2370   22.0190   31.9570 C   0  0  0  0  0  0  0  0  0  0  0  0
   35.7530   22.1630   31.6900 C   0  0  0  0  0  0  0  0  0  0  0  0
   34.9300   21.0920   32.3430 C   0  0  0  0  0  0  0  0  0  0  0  0
   35.3880   19.7150   31.9320 C   0  0  0  0  0  0  0  0  0  0  0  0
   36.8740   19.5420   31.9920 C   0  0  0  0  0  0  0  0  0  0  0  0
   37.5800   20.7280   32.6170 C   0  0  0  0  0  0  0  0  0  0  0  0
   37.8110   22.1480   31.0120 H   0  0  0  0  0  0  0  0  0  0  0  0
   35.6040   22.0220   30.5840 H   0  0  0  0  0  0  0  0  0  0  0  0
   35.3730   23.1410   31.9780 H   0  0  0  0  0  0  0  0  0  0  0  0
   34.9220   21.1800   33.4610 H   0  0  0  0  0  0  0  0  0  0  0  0
   33.8880   21.2200   32.0310 H   0  0  0  0  0  0  0  0  0  0  0  0
   34.8840   18.9850   32.5770 H   0  0  0  0  0  0  0  0  0  0  0  0
   34.9840   19.5430   30.9050 H   0  0  0  0  0  0  0  0  0  0  0  0
   37.1210   18.6570   32.6400 H   0  0  0  0  0  0  0  0  0  0  0  0
   37.3210   19.2900   31.0060 H   0  0  0  0  0  0  0  0  0  0  0  0
   37.2390   20.7640   33.6700 H   0  0  0  0  0  0  0  0  0  0  0  0
   38.6520   20.5380   32.5920 H   0  0  0  0  0  0  0  0  0  0  0  0
   37.6970   23.1250   32.8510 C   0  0  0  0  0  0  0  0  0  0  0  0
   37.8610   22.8130   34.2110 C   0  0  0  0  0  0  0  0  0  0  0  0
   38.2820   23.8350   35.0520 C   0  0  0  0  0  0  0  0  0  0  0  0
   38.5120   25.0700   34.5260 N   0  0  0  0  0  0  0  0  0  0  0  0
   38.3450   25.3470   33.2060 C   0  0  0  0  0  0  0  0  0  0  0  0
   37.9390   24.3680   32.3850 N   0  0  0  0  0  0  0  0  0  0  0  0
   37.6960   21.8760   34.6820 H   0  0  0  0  0  0  0  0  0  0  0  0
   38.5460   26.3520   32.8580 H   0  0  0  0  0  0  0  0  0  0  0  0
   38.4800   23.6040   36.4780 C   0  0  0  0  0  0  0  0  0  0  0  0
   37.9670   24.0190   37.6500 N   0  0  0  0  0  0  0  0  0  0  0  0
   38.6530   23.3680   38.6280 C   0  0  0  0  0  0  0  0  0  0  0  0
   38.5570   23.4140   39.6980 H   0  0  0  0  0  0  0  0  0  0  0  0
   39.5880   22.5540   38.0620 N   0  0  0  0  0  0  0  0  0  0  0  0
   40.2710   21.9240   38.5560 H   0  0  0  0  0  0  0  0  0  0  0  0
   39.4620   22.7150   36.7540 N   0  0  0  0  0  0  0  0  0  0  0  0
  1  6  1  0  0  0  0
  1 18  1  0  0  0  0
  2  1  1  0  0  0  0
  2  9  1  0  0  0  0
  2  3  1  0  0  0  0
  3 10  1  0  0  0  0
  4  5  1  0  0  0  0
  4  3  1  0  0  0  0
  4 12  1  0  0  0  0
  5  6  1  0  0  0  0
  5 14  1  0  0  0  0
  6 16  1  0  0  0  0
  7  1  1  0  0  0  0
  8  2  1  0  0  0  0
 11  3  1  0  0  0  0
 13  4  1  0  0  0  0
 15  5  1  0  0  0  0
 17  6  1  0  0  0  0
 18 19  1  0  0  0  0
 19 24  1  0  0  0  0
 19 20  2  0  0  0  0
 20 26  1  0  0  0  0
 21 20  1  0  0  0  0
 22 21  2  0  0  0  0
 23 18  2  0  0  0  0
 23 22  1  0  0  0  0
 25 22  1  0  0  0  0
 26 32  2  0  0  0  0
 26 27  1  0  0  0  0
 27 28  2  0  0  0  0
 28 29  1  0  0  0  0
 30 31  1  0  0  0  0
 30 28  1  0  0  0  0
 32 30  1  0  0  0  0
M  END
>  <minimizedAffinity>
-4.96595526

$$$$

 OpenBabel03272506193D

 32 34  0  0  0  0  0  0  0  0999 V2000
   37.8130   26.2790   32.8980 C   0  0  0  0  0  0  0  0  0  0  0  0
   37.9770   27.1380   34.1340 C   0  0  0  0  0  0  0  0  0  0  0  0
   36.7230   27.8680   34.5170 C   0  0  0  0  0  0  0  0  0  0  0  0
   36.2040   28.7110   33.3780 C   0  0  0  0  0  0  0  0  0  0  0  0
   36.1800   27.9870   32.0680 C   0  0  0  0  0  0  0  0  0  0  0  0
   36.5160   26.5150   32.2020 C   0  0  0  0  0  0  0  0  0  0  0  0
   38.6700   26.4340   32.2060 H   0  0  0  0  0  0  0  0  0  0  0  0
   38.7230   27.9410   33.8780 H   0  0  0  0  0  0  0  0  0  0  0  0
   38.3440   26.5730   34.9880 H   0  0  0  0  0  0  0  0  0  0  0  0
   35.9200   27.1760   34.8840 H   0  0  0  0  0  0  0  0  0  0  0  0
   36.9520   28.5260   35.3610 H   0  0  0  0  0  0  0  0  0  0  0  0
   35.2010   29.0620   33.6490 H   0  0  0  0  0  0  0  0  0  0  0  0
   36.8480   29.6240   33.3450 H   0  0  0  0  0  0  0  0  0  0  0  0
   35.1420   28.0300   31.6370 H   0  0  0  0  0  0  0  0  0  0  0  0
   36.8160   28.4700   31.2950 H   0  0  0  0  0  0  0  0  0  0  0  0
   35.7010   26.0710   32.8060 H   0  0  0  0  0  0  0  0  0  0  0  0
   36.5100   26.0730   31.2080 H   0  0  0  0  0  0  0  0  0  0  0  0
   37.8700   24.8350   33.2790 C   0  0  0  0  0  0  0  0  0  0  0  0
   38.6520   24.5050   34.3980 C   0  0  0  0  0  0  0  0  0  0  0  0
   38.7170   23.1640   34.7560 C   0  0  0  0  0  0  0  0  0  0  0  0
   38.0300   22.2500   34.0180 N   0  0  0  0  0  0  0  0  0  0  0  0
   37.2800   22.5940   32.9380 C   0  0  0  0  0  0  0  0  0  0  0  0
   37.2100   23.8860   32.5830 N   0  0  0  0  0  0  0  0  0  0  0  0
   39.2120   25.1670   35.0110 H   0  0  0  0  0  0  0  0  0  0  0  0
   36.7610   21.8140   32.3960 H   0  0  0  0  0  0  0  0  0  0  0  0
   39.5030   22.7280   35.9040 C   0  0  0  0  0  0  0  0  0  0  0  0
   40.6820   22.1320   36.1530 N   0  0  0  0  0  0  0  0  0  0  0  0
   40.7880   22.0260   37.5060 C   0  0  0  0  0  0  0  0  0  0  0  0
   41.5710   21.6130   38.1150 H   0  0  0  0  0  0  0  0  0  0  0  0
   39.6770   22.5570   38.0900 N   0  0  0  0  0  0  0  0  0  0  0  0
   39.4660   22.6220   39.1190 H   0  0  0  0  0  0  0  0  0  0  0  0
   38.9110   22.9770   37.0950 N   0  0  0  0  0  0  0  0  0  0  0  0
  1 18  1  0  0  0  0
  1  2  1  0  0  0  0
  2  3  1  0  0  0  0
  2  9  1  0  0  0  0
  3 10  1  0  0  0  0
  3 11  1  0  0  0  0
  4 12  1  0  0  0  0
  4  3  1  0  0  0  0
  5  6  1  0  0  0  0
  5  4  1  0  0  0  0
  6 16  1  0  0  0  0
  6  1  1  0  0  0  0
  7  1  1  0  0  0  0
  8  2  1  0  0  0  0
 13  4  1  0  0  0  0
 14  5  1  0  0  0  0
 15  5  1  0  0  0  0
 17  6  1  0  0  0  0
 18 19  1  0  0  0  0
 19 20  2  0  0  0  0
 19 24  1  0  0  0  0
 20 26  1  0  0  0  0
 21 20  1  0  0  0  0
 22 21  2  0  0  0  0
 23 22  1  0  0  0  0
 23 18  2  0  0  0  0
 25 22  1  0  0  0  0
 26 27  1  0  0  0  0
 26 32  2  0  0  0  0
 27 28  2  0  0  0  0
 28 30  1  0  0  0  0
 28 29  1  0  0  0  0
 30 31  1  0  0  0  0
 32 30  1  0  0  0  0
M  END
>  <minimizedAffinity>
-4.79882145

$$$$

 OpenBabel03272506193D

 32 34  0  0  0  0  0  0  0  0999 V2000
   38.6040   24.7360   33.6510 C   0  0  0  0  0  0  0  0  0  0  0  0
   38.2170   24.7600   35.1150 C   0  0  0  0  0  0  0  0  0  0  0  0
   38.0010   26.1470   35.6460 C   0  0  0  0  0  0  0  0  0  0  0  0
   39.2130   27.0180   35.4270 C   0  0  0  0  0  0  0  0  0  0  0  0
   39.7750   26.9150   34.0430 C   0  0  0  0  0  0  0  0  0  0  0  0
   38.9040   26.0940   33.1140 C   0  0  0  0  0  0  0  0  0  0  0  0
   39.4610   24.0460   33.4920 H   0  0  0  0  0  0  0  0  0  0  0  0
   39.0930   24.3530   35.6920 H   0  0  0  0  0  0  0  0  0  0  0  0
   37.3400   24.1510   35.3230 H   0  0  0  0  0  0  0  0  0  0  0  0
   37.0890   26.6350   35.2110 H   0  0  0  0  0  0  0  0  0  0  0  0
   37.8110   26.0780   36.7220 H   0  0  0  0  0  0  0  0  0  0  0  0
   38.9310   28.0520   35.6580 H   0  0  0  0  0  0  0  0  0  0  0  0
   39.9560   26.7230   36.2080 H   0  0  0  0  0  0  0  0  0  0  0  0
   39.8350   27.9410   33.5870 H   0  0  0  0  0  0  0  0  0  0  0  0
   40.8250   26.5490   34.0290 H   0  0  0  0  0  0  0  0  0  0  0  0
   37.9550   26.6550   33.0120 H   0  0  0  0  0  0  0  0  0  0  0  0
   39.3970   26.0400   32.1450 H   0  0  0  0  0  0  0  0  0  0  0  0
   37.4830   24.1650   32.8450 C   0  0  0  0  0  0  0  0  0  0  0  0
   37.2440   22.7860   32.9790 C   0  0  0  0  0  0  0  0  0  0  0  0
   36.2090   22.2440   32.2280 C   0  0  0  0  0  0  0  0  0  0  0  0
   35.4880   23.0600   31.4120 N   0  0  0  0  0  0  0  0  0  0  0  0
   35.7390   24.3910   31.2980 C   0  0  0  0  0  0  0  0  0  0  0  0
   36.7360   24.9260   32.0190 N   0  0  0  0  0  0  0  0  0  0  0  0
   37.7700   22.0980   33.5930 H   0  0  0  0  0  0  0  0  0  0  0  0
   35.1250   24.9800   30.6290 H   0  0  0  0  0  0  0  0  0  0  0  0
   35.8870   20.8240   32.3040 C   0  0  0  0  0  0  0  0  0  0  0  0
   35.5990   19.9020   33.2390 N   0  0  0  0  0  0  0  0  0  0  0  0
   35.3980   18.7280   32.5810 C   0  0  0  0  0  0  0  0  0  0  0  0
   35.1480   17.7520   32.9540 H   0  0  0  0  0  0  0  0  0  0  0  0
   35.5620   18.9250   31.2430 N   0  0  0  0  0  0  0  0  0  0  0  0
   35.4720   18.2100   30.4760 H   0  0  0  0  0  0  0  0  0  0  0  0
   35.8580   20.2080   31.1000 N   0  0  0  0  0  0  0  0  0  0  0  0
  1  2  1  0  0  0  0
  2  9  1  0  0  0  0
  2  3  1  0  0  0  0
  2  8  1  0  0  0  0
  3 11  1  0  0  0  0
  4  3  1  0  0  0  0
  4 12  1  0  0  0  0
  4 13  1  0  0  0  0
  5  4  1  0  0  0  0
  6  1  1  0  0  0  0
  6  5  1  0  0  0  0
  7  1  1  0  0  0  0
 10  3  1  0  0  0  0
 14  5  1  0  0  0  0
 15  5  1  0  0  0  0
 16  6  1  0  0  0  0
 17  6  1  0  0  0  0
 18 19  1  0  0  0  0
 18  1  1  0  0  0  0
 19 24  1  0  0  0  0
 20 26  1  0  0  0  0
 20 19  2  0  0  0  0
 21 20  1  0  0  0  0
 22 21  2  0  0  0  0
 22 23  1  0  0  0  0
 23 18  2  0  0  0  0
 25 22  1  0  0  0  0
 26 27  1  0  0  0  0
 28 29  1  0  0  0  0
 28 27  2  0  0  0  0
 30 28  1  0  0  0  0
 31 30  1  0  0  0  0
 32 30  1  0  0  0  0
 32 26  2  0  0  0  0
M  END
>  <minimizedAffinity>
-4.76658821

$$$$

 OpenBabel03272506193D

 32 34  0  0  0  0  0  0  0  0999 V2000
   37.0720   26.9480   34.7110 C   0  0  0  0  0  0  0  0  0  0  0  0
   38.1830   27.4420   35.6130 C   0  0  0  0  0  0  0  0  0  0  0  0
   39.5250   26.8660   35.2650 C   0  0  0  0  0  0  0  0  0  0  0  0
   39.4980   25.3580   35.2730 C   0  0  0  0  0  0  0  0  0  0  0  0
   38.3190   24.7830   34.5510 C   0  0  0  0  0  0  0  0  0  0  0  0
   37.5050   25.8330   33.8220 C   0  0  0  0  0  0  0  0  0  0  0  0
   36.1880   26.6530   35.3180 H   0  0  0  0  0  0  0  0  0  0  0  0
   37.9560   27.0670   36.6480 H   0  0  0  0  0  0  0  0  0  0  0  0
   38.2480   28.5280   35.6350 H   0  0  0  0  0  0  0  0  0  0  0  0
   39.9110   27.2420   34.2820 H   0  0  0  0  0  0  0  0  0  0  0  0
   40.2490   27.2060   36.0130 H   0  0  0  0  0  0  0  0  0  0  0  0
   40.4370   25.0020   34.8330 H   0  0  0  0  0  0  0  0  0  0  0  0
   39.5280   25.0490   36.3470 H   0  0  0  0  0  0  0  0  0  0  0  0
   38.6780   24.0660   33.7620 H   0  0  0  0  0  0  0  0  0  0  0  0
   37.6700   24.1630   35.2070 H   0  0  0  0  0  0  0  0  0  0  0  0
   38.1700   26.2400   33.0360 H   0  0  0  0  0  0  0  0  0  0  0  0
   36.6540   25.3400   33.3550 H   0  0  0  0  0  0  0  0  0  0  0  0
   36.5960   28.0660   33.8400 C   0  0  0  0  0  0  0  0  0  0  0  0
   37.0780   28.0890   32.5190 C   0  0  0  0  0  0  0  0  0  0  0  0
   36.6470   29.1280   31.7040 C   0  0  0  0  0  0  0  0  0  0  0  0
   35.7940   30.0570   32.2140 N   0  0  0  0  0  0  0  0  0  0  0  0
   35.3430   30.0140   33.4960 C   0  0  0  0  0  0  0  0  0  0  0  0
   35.7520   29.0150   34.2920 N   0  0  0  0  0  0  0  0  0  0  0  0
   37.7430   27.3990   32.0640 H   0  0  0  0  0  0  0  0  0  0  0  0
   34.6660   30.7880   33.8340 H   0  0  0  0  0  0  0  0  0  0  0  0
   37.0920   29.2320   30.3200 C   0  0  0  0  0  0  0  0  0  0  0  0
   37.1410   30.1520   29.3400 N   0  0  0  0  0  0  0  0  0  0  0  0
   37.7050   29.5450   28.2610 C   0  0  0  0  0  0  0  0  0  0  0  0
   37.9250   29.9270   27.2810 H   0  0  0  0  0  0  0  0  0  0  0  0
   38.0050   28.2530   28.5740 N   0  0  0  0  0  0  0  0  0  0  0  0
   38.4480   27.5310   27.9490 H   0  0  0  0  0  0  0  0  0  0  0  0
   37.6220   28.0870   29.8300 N   0  0  0  0  0  0  0  0  0  0  0  0
  1  7  1  0  0  0  0
  1  2  1  0  0  0  0
  2  9  1  0  0  0  0
  2  8  1  0  0  0  0
  3  4  1  0  0  0  0
  3  2  1  0  0  0  0
  3 11  1  0  0  0  0
  4 13  1  0  0  0  0
  5 15  1  0  0  0  0
  5  4  1  0  0  0  0
  6  5  1  0  0  0  0
  6  1  1  0  0  0  0
 10  3  1  0  0  0  0
 12  4  1  0  0  0  0
 14  5  1  0  0  0  0
 16  6  1  0  0  0  0
 17  6  1  0  0  0  0
 18 23  1  0  0  0  0
 18  1  1  0  0  0  0
 19 18  2  0  0  0  0
 20 21  2  0  0  0  0
 20 19  1  0  0  0  0
 21 22  1  0  0  0  0
 22 25  1  0  0  0  0
 22 23  2  0  0  0  0
 24 19  1  0  0  0  0
 26 20  1  0  0  0  0
 27 26  1  0  0  0  0
 28 30  1  0  0  0  0
 28 27  2  0  0  0  0
 29 28  1  0  0  0  0
 30 32  1  0  0  0  0
 31 30  1  0  0  0  0
 32 26  2  0  0  0  0
M  END
>  <minimizedAffinity>
-4.75772858

$$$$

 OpenBabel03272506193D

 32 34  0  0  0  0  0  0  0  0999 V2000
   38.0780   26.1340   34.4650 C   0  0  0  0  0  0  0  0  0  0  0  0
   37.7730   26.1550   32.9820 C   0  0  0  0  0  0  0  0  0  0  0  0
   37.5480   27.5380   32.4450 C   0  0  0  0  0  0  0  0  0  0  0  0
   36.4530   28.2520   33.1980 C   0  0  0  0  0  0  0  0  0  0  0  0
   36.5770   28.1260   34.6850 C   0  0  0  0  0  0  0  0  0  0  0  0
   37.8690   27.4590   35.1140 C   0  0  0  0  0  0  0  0  0  0  0  0
   37.4780   25.3450   34.9690 H   0  0  0  0  0  0  0  0  0  0  0  0
   36.7960   25.6170   32.8410 H   0  0  0  0  0  0  0  0  0  0  0  0
   38.5410   25.6570   32.3930 H   0  0  0  0  0  0  0  0  0  0  0  0
   38.4840   28.1560   32.4450 H   0  0  0  0  0  0  0  0  0  0  0  0
   37.2510   27.4550   31.3950 H   0  0  0  0  0  0  0  0  0  0  0  0
   36.4640   29.3050   32.8930 H   0  0  0  0  0  0  0  0  0  0  0  0
   35.4880   27.8350   32.8190 H   0  0  0  0  0  0  0  0  0  0  0  0
   36.5890   29.1520   35.1460 H   0  0  0  0  0  0  0  0  0  0  0  0
   35.7000   27.6280   35.1530 H   0  0  0  0  0  0  0  0  0  0  0  0
   38.6810   28.1430   34.8010 H   0  0  0  0  0  0  0  0  0  0  0  0
   37.8650   27.3780   36.1990 H   0  0  0  0  0  0  0  0  0  0  0  0
   39.5040   25.7430   34.6800 C   0  0  0  0  0  0  0  0  0  0  0  0
   39.7340   24.5380   35.3660 C   0  0  0  0  0  0  0  0  0  0  0  0
   41.0560   24.1680   35.5770 C   0  0  0  0  0  0  0  0  0  0  0  0
   42.0490   24.9770   35.1160 N   0  0  0  0  0  0  0  0  0  0  0  0
   41.8020   26.1390   34.4550 C   0  0  0  0  0  0  0  0  0  0  0  0
   40.5280   26.5060   34.2460 N   0  0  0  0  0  0  0  0  0  0  0  0
   39.0070   23.8670   35.7510 H   0  0  0  0  0  0  0  0  0  0  0  0
   42.6410   26.7330   34.1180 H   0  0  0  0  0  0  0  0  0  0  0  0
   41.3910   22.9340   36.2780 C   0  0  0  0  0  0  0  0  0  0  0  0
   42.3500   21.9920   36.2640 N   0  0  0  0  0  0  0  0  0  0  0  0
   42.0220   21.0870   37.2250 C   0  0  0  0  0  0  0  0  0  0  0  0
   42.5220   20.1880   37.5380 H   0  0  0  0  0  0  0  0  0  0  0  0
   40.8630   21.4690   37.8310 N   0  0  0  0  0  0  0  0  0  0  0  0
   40.3560   20.9750   38.6100 H   0  0  0  0  0  0  0  0  0  0  0  0
   40.4990   22.5950   37.2370 N   0  0  0  0  0  0  0  0  0  0  0  0
  1 18  1  0  0  0  0
  1  7  1  0  0  0  0
  1  6  1  0  0  0  0
  2  1  1  0  0  0  0
  3 10  1  0  0  0  0
  3  2  1  0  0  0  0
  3  4  1  0  0  0  0
  4  5  1  0  0  0  0
  5  6  1  0  0  0  0
  5 14  1  0  0  0  0
  5 15  1  0  0  0  0
  6 17  1  0  0  0  0
  8  2  1  0  0  0  0
  9  2  1  0  0  0  0
 11  3  1  0  0  0  0
 12  4  1  0  0  0  0
 13  4  1  0  0  0  0
 16  6  1  0  0  0  0
 18 19  1  0  0  0  0
 19 20  2  0  0  0  0
 19 24  1  0  0  0  0
 20 26  1  0  0  0  0
 21 20  1  0  0  0  0
 22 21  2  0  0  0  0
 23 22  1  0  0  0  0
 23 18  2  0  0  0  0
 25 22  1  0  0  0  0
 26 32  2  0  0  0  0
 27 26  1  0  0  0  0
 27 28  2  0  0  0  0
 28 29  1  0  0  0  0
 28 30  1  0  0  0  0
 30 31  1  0  0  0  0
 32 30  1  0  0  0  0
M  END
>  <minimizedAffinity>
-4.74091673

$$$$

 OpenBabel03272506193D

 32 34  0  0  0  0  0  0  0  0999 V2000
   39.1470   23.6970   35.5030 C   0  0  0  0  0  0  0  0  0  0  0  0
   38.5280   23.1400   36.7670 C   0  0  0  0  0  0  0  0  0  0  0  0
   39.5100   22.9980   37.8920 C   0  0  0  0  0  0  0  0  0  0  0  0
   40.6930   22.1520   37.4910 C   0  0  0  0  0  0  0  0  0  0  0  0
   41.2590   22.5210   36.1550 C   0  0  0  0  0  0  0  0  0  0  0  0
   40.6340   23.7740   35.5760 C   0  0  0  0  0  0  0  0  0  0  0  0
   38.8220   23.1010   34.6210 H   0  0  0  0  0  0  0  0  0  0  0  0
   38.1900   22.0930   36.5320 H   0  0  0  0  0  0  0  0  0  0  0  0
   37.6720   23.7220   37.1020 H   0  0  0  0  0  0  0  0  0  0  0  0
   39.8580   23.9900   38.2850 H   0  0  0  0  0  0  0  0  0  0  0  0
   39.0040   22.5120   38.7330 H   0  0  0  0  0  0  0  0  0  0  0  0
   41.4530   22.2410   38.2760 H   0  0  0  0  0  0  0  0  0  0  0  0
   40.3450   21.0900   37.5240 H   0  0  0  0  0  0  0  0  0  0  0  0
   42.3560   22.7430   36.2630 H   0  0  0  0  0  0  0  0  0  0  0  0
   41.2220   21.6850   35.4230 H   0  0  0  0  0  0  0  0  0  0  0  0
   40.9160   24.5980   36.2600 H   0  0  0  0  0  0  0  0  0  0  0  0
   41.0740   23.9520   34.5960 H   0  0  0  0  0  0  0  0  0  0  0  0
   38.6310   25.0780   35.2570 C   0  0  0  0  0  0  0  0  0  0  0  0
   38.1690   25.3600   33.9600 C   0  0  0  0  0  0  0  0  0  0  0  0
   37.6940   26.6430   33.7190 C   0  0  0  0  0  0  0  0  0  0  0  0
   37.6990   27.5500   34.7340 N   0  0  0  0  0  0  0  0  0  0  0  0
   38.1520   27.2530   35.9810 C   0  0  0  0  0  0  0  0  0  0  0  0
   38.6130   26.0170   36.2250 N   0  0  0  0  0  0  0  0  0  0  0  0
   38.1420   24.7020   33.1280 H   0  0  0  0  0  0  0  0  0  0  0  0
   38.1260   28.0250   36.7400 H   0  0  0  0  0  0  0  0  0  0  0  0
   37.1940   27.0270   32.4050 C   0  0  0  0  0  0  0  0  0  0  0  0
   37.2280   28.0880   31.5800 N   0  0  0  0  0  0  0  0  0  0  0  0
   36.5220   27.7440   30.4700 C   0  0  0  0  0  0  0  0  0  0  0  0
   36.3090   28.3020   29.5760 H   0  0  0  0  0  0  0  0  0  0  0  0
   36.0520   26.4720   30.6080 N   0  0  0  0  0  0  0  0  0  0  0  0
   35.4730   25.9270   29.9190 H   0  0  0  0  0  0  0  0  0  0  0  0
   36.4740   26.0580   31.7930 N   0  0  0  0  0  0  0  0  0  0  0  0
  1  6  1  0  0  0  0
  1  2  1  0  0  0  0
  2  9  1  0  0  0  0
  2  3  1  0  0  0  0
  3 10  1  0  0  0  0
  3 11  1  0  0  0  0
  4 13  1  0  0  0  0
  4  3  1  0  0  0  0
  4 12  1  0  0  0  0
  5 14  1  0  0  0  0
  5  4  1  0  0  0  0
  6  5  1  0  0  0  0
  6 16  1  0  0  0  0
  7  1  1  0  0  0  0
  8  2  1  0  0  0  0
 15  5  1  0  0  0  0
 17  6  1  0  0  0  0
 18  1  1  0  0  0  0
 18 23  1  0  0  0  0
 19 18  2  0  0  0  0
 20 19  1  0  0  0  0
 20 21  2  0  0  0  0
 21 22  1  0  0  0  0
 22 23  2  0  0  0  0
 22 25  1  0  0  0  0
 24 19  1  0  0  0  0
 26 20  1  0  0  0  0
 27 26  1  0  0  0  0
 28 30  1  0  0  0  0
 28 27  2  0  0  0  0
 29 28  1  0  0  0  0
 30 32  1  0  0  0  0
 31 30  1  0  0  0  0
 32 26  2  0  0  0  0
M  END
>  <minimizedAffinity>
-4.73761463

$$$$
