
 OpenBabel03272509403D

 33 35  0  0  0  0  0  0  0  0999 V2000
   37.0590   30.9580   49.0800 C   0  0  0  0  0  0  0  0  0  0  0  0
   36.8150   31.9240   50.0600 C   0  0  0  0  0  0  0  0  0  0  0  0
   37.4390   33.1630   50.0500 C   0  0  0  0  0  0  0  0  0  0  0  0
   38.3460   33.4640   49.0270 C   0  0  0  0  0  0  0  0  0  0  0  0
   38.5740   32.5110   48.0770 C   0  0  0  0  0  0  0  0  0  0  0  0
   37.9380   31.2830   48.1100 C   0  0  0  0  0  0  0  0  0  0  0  0
   36.1080   31.6730   50.8480 H   0  0  0  0  0  0  0  0  0  0  0  0
   37.1800   33.8370   50.8560 H   0  0  0  0  0  0  0  0  0  0  0  0
   38.8110   34.4330   49.0490 H   0  0  0  0  0  0  0  0  0  0  0  0
   39.2880   32.8290   47.3260 H   0  0  0  0  0  0  0  0  0  0  0  0
   36.3610   29.6880   49.1690 C   0  0  0  0  0  0  0  0  0  0  0  0
   36.8770   28.8560   49.9990 O   0  0  0  0  0  0  0  0  0  0  0  0
   33.5930   30.1250   46.8720 C   0  0  0  0  0  0  0  0  0  0  0  0
   32.9470   28.9020   46.8750 C   0  0  0  0  0  0  0  0  0  0  0  0
   33.4610   27.8910   47.6820 C   0  0  0  0  0  0  0  0  0  0  0  0
   34.5720   28.1480   48.4280 N   0  0  0  0  0  0  0  0  0  0  0  0
   35.1650   29.3340   48.3990 C   0  0  0  0  0  0  0  0  0  0  0  0
   34.6670   30.3170   47.6170 N   0  0  0  0  0  0  0  0  0  0  0  0
   33.1500   30.8860   46.2230 H   0  0  0  0  0  0  0  0  0  0  0  0
   32.0620   28.6360   46.3060 H   0  0  0  0  0  0  0  0  0  0  0  0
   33.0820   26.8840   47.8020 H   0  0  0  0  0  0  0  0  0  0  0  0
   38.2960   30.3900   47.0290 C   0  0  0  0  0  3  0  0  0  0  0  0
   38.8710   30.7300   45.8830 C   0  0  0  0  0  3  0  0  0  0  0  0
   39.2910   29.9460   44.7130 C   0  0  0  0  0  0  0  0  0  0  0  0
   38.5090   29.1890   44.4800 H   0  0  0  0  0  0  0  0  0  0  0  0
   40.2180   29.3590   44.8670 H   0  0  0  0  0  0  0  0  0  0  0  0
   39.4860   30.8010   43.5090 C   0  0  0  0  0  0  0  0  0  0  0  0
   39.9200   30.4500   42.2770 N   0  0  0  0  0  0  0  0  0  0  0  0
   39.9340   31.5700   41.5180 C   0  0  0  0  0  0  0  0  0  0  0  0
   40.1920   31.8130   40.4960 H   0  0  0  0  0  0  0  0  0  0  0  0
   39.5090   32.5820   42.3010 N   0  0  0  0  0  0  0  0  0  0  0  0
   39.3600   33.6170   42.1370 H   0  0  0  0  0  0  0  0  0  0  0  0
   39.2330   32.1320   43.5120 N   0  0  0  0  0  0  0  0  0  0  0  0
  1 11  1  0  0  0  0
  1  2  1  0  0  0  0
  2  7  1  0  0  0  0
  3  2  2  0  0  0  0
  3  8  1  0  0  0  0
  4  9  1  0  0  0  0
  4  3  1  0  0  0  0
  5  6  1  0  0  0  0
  5  4  2  0  0  0  0
  6  1  2  0  0  0  0
 10  5  1  0  0  0  0
 11 12  2  0  0  0  0
 13 14  2  0  0  0  0
 13 18  1  0  0  0  0
 14 15  1  0  0  0  0
 15 21  1  0  0  0  0
 15 16  2  0  0  0  0
 17 16  1  0  0  0  0
 17 11  1  0  0  0  0
 18 17  2  0  0  0  0
 19 13  1  0  0  0  0
 20 14  1  0  0  0  0
 22  6  1  0  0  0  0
 23 22  2  0  0  0  0
 24 26  1  0  0  0  0
 24 23  1  0  0  0  0
 25 24  1  0  0  0  0
 27 33  2  0  0  0  0
 27 24  1  0  0  0  0
 28 27  1  0  0  0  0
 29 28  2  0  0  0  0
 29 31  1  0  0  0  0
 30 29  1  0  0  0  0
 31 33  1  0  0  0  0
 32 31  1  0  0  0  0
M  END
>  <minimizedAffinity>
-5.80148029

>  <minimizedRMSD>
1.42672336

$$$$
