
 OpenBabel03272506273D

 40 43  0  0  0  0  0  0  0  0999 V2000
   31.6220   26.5660   47.4930 C   0  0  0  0  0  0  0  0  0  0  0  0
   31.5640   25.1880   47.5790 C   0  0  0  0  0  0  0  0  0  0  0  0
   32.5430   24.3260   47.0890 C   0  0  0  0  0  0  0  0  0  0  0  0
   33.6700   24.8920   46.4620 C   0  0  0  0  0  0  0  0  0  0  0  0
   33.7120   26.2680   46.3850 C   0  0  0  0  0  0  0  0  0  0  0  0
   32.7480   27.1010   46.8690 C   0  0  0  0  0  0  0  0  0  0  0  0
   30.6970   24.7080   48.0630 H   0  0  0  0  0  0  0  0  0  0  0  0
   32.3850   23.2410   47.2180 H   0  0  0  0  0  0  0  0  0  0  0  0
   34.3530   24.1420   46.1260 H   0  0  0  0  0  0  0  0  0  0  0  0
   34.6170   26.4890   45.8810 H   0  0  0  0  0  0  0  0  0  0  0  0
   30.6060   27.6220   49.4140 C   0  0  0  0  0  0  0  0  0  0  0  0
   30.5200   27.2960   48.0520 C   0  0  0  0  0  0  0  0  0  0  0  0
   29.3780   27.7020   47.3460 C   0  0  0  0  0  0  0  0  0  0  0  0
   28.4060   28.3890   48.0030 N   0  0  0  0  0  0  0  0  0  0  0  0
   28.5160   28.6930   49.3300 C   0  0  0  0  0  0  0  0  0  0  0  0
   29.6170   28.3070   50.0290 N   0  0  0  0  0  0  0  0  0  0  0  0
   31.4610   27.3280   49.9840 H   0  0  0  0  0  0  0  0  0  0  0  0
   27.7500   29.2400   49.8620 H   0  0  0  0  0  0  0  0  0  0  0  0
   29.1510   27.4230   45.8990 C   0  0  0  0  0  0  0  0  0  0  0  0
   27.9050   27.9520   45.5130 F   0  0  0  0  0  0  0  0  0  0  0  0
   30.0940   27.8790   45.0530 F   0  0  0  0  0  0  0  0  0  0  0  0
   28.9930   26.0440   45.7090 F   0  0  0  0  0  0  0  0  0  0  0  0
   32.8200   28.8510   46.7630 S   0  0  0  0  0  0  0  0  0  0  0  0
   34.1310   28.6170   49.5730 Cl  0  0  0  0  0  0  0  0  0  0  0  0
   34.9910   29.3590   48.2520 C   0  0  0  0  0  0  0  0  0  0  0  0
   34.4480   29.5130   46.9770 C   0  0  0  0  0  0  0  0  0  0  0  0
   35.1570   30.1250   45.9850 C   0  0  0  0  0  0  0  0  0  0  0  0
   36.4320   30.5900   46.2710 C   0  0  0  0  0  0  0  0  0  0  0  0
   36.9820   30.4370   47.5470 C   0  0  0  0  0  0  0  0  0  0  0  0
   36.2650   29.8200   48.5500 C   0  0  0  0  0  0  0  0  0  0  0  0
   34.8200   30.3210   45.0010 H   0  0  0  0  0  0  0  0  0  0  0  0
   37.0370   31.0820   45.5150 H   0  0  0  0  0  0  0  0  0  0  0  0
   37.9920   30.8270   47.7020 H   0  0  0  0  0  0  0  0  0  0  0  0
   36.8700   29.6800   49.8690 C   0  0  0  0  0  0  0  0  0  0  0  0
   36.7190   30.6150   50.8250 N   0  0  0  0  0  0  0  0  0  0  0  0
   37.4000   30.1900   51.9300 C   0  0  0  0  0  0  0  0  0  0  0  0
   37.5660   30.5940   52.9240 H   0  0  0  0  0  0  0  0  0  0  0  0
   37.9520   28.9850   51.6000 N   0  0  0  0  0  0  0  0  0  0  0  0
   38.5440   28.3250   52.1490 H   0  0  0  0  0  0  0  0  0  0  0  0
   37.6300   28.6810   50.3540 N   0  0  0  0  0  0  0  0  0  0  0  0
  1  2  1  0  0  0  0
  1 12  1  0  0  0  0
  2  7  1  0  0  0  0
  3  8  1  0  0  0  0
  3  2  2  0  0  0  0
  4  3  1  0  0  0  0
  5  4  2  0  0  0  0
  5  6  1  0  0  0  0
  6  1  2  0  0  0  0
  9  4  1  0  0  0  0
 10  5  1  0  0  0  0
 11 17  1  0  0  0  0
 11 16  1  0  0  0  0
 12 11  2  0  0  0  0
 13 14  2  0  0  0  0
 13 12  1  0  0  0  0
 14 15  1  0  0  0  0
 15 18  1  0  0  0  0
 15 16  2  0  0  0  0
 19 13  1  0  0  0  0
 20 19  1  0  0  0  0
 21 19  1  0  0  0  0
 22 19  1  0  0  0  0
 23  6  1  0  0  0  0
 23 26  1  0  0  0  0
 25 30  1  0  0  0  0
 25 24  1  0  0  0  0
 26 25  2  0  0  0  0
 27 28  2  0  0  0  0
 27 26  1  0  0  0  0
 28 29  1  0  0  0  0
 29 33  1  0  0  0  0
 29 30  2  0  0  0  0
 30 34  1  0  0  0  0
 31 27  1  0  0  0  0
 32 28  1  0  0  0  0
 34 40  2  0  0  0  0
 34 35  1  0  0  0  0
 35 36  2  0  0  0  0
 36 37  1  0  0  0  0
 38 36  1  0  0  0  0
 38 39  1  0  0  0  0
 40 38  1  0  0  0  0
M  END
>  <minimizedAffinity>
-5.77071762

>  <minimizedRMSD>
3.51323104

$$$$
