
 OpenBabel03272502273D

 38 41  0  0  0  0  0  0  0  0999 V2000
   37.6080   30.1600   50.9030 C   0  0  0  0  0  0  0  0  0  0  0  0
   38.1060   30.7300   49.7250 C   0  0  0  0  0  0  0  0  0  0  0  0
   37.3770   30.5340   48.5610 C   0  0  0  0  0  0  0  0  0  0  0  0
   36.2480   29.8110   48.6580 N   0  0  0  0  0  0  0  0  0  0  0  0
   35.7850   29.2700   49.7960 C   0  0  0  0  0  0  0  0  0  0  0  0
   36.4770   29.4510   50.9280 N   0  0  0  0  0  0  0  0  0  0  0  0
   38.1940   30.3260   51.7970 H   0  0  0  0  0  0  0  0  0  0  0  0
   39.0050   31.3040   49.6560 H   0  0  0  0  0  0  0  0  0  0  0  0
   37.7700   31.0690   47.2830 C   0  0  0  0  0  0  0  0  0  0  0  0
   37.0650   30.7490   46.1290 C   0  0  0  0  0  0  0  0  0  0  0  0
   37.3920   31.2360   44.8900 C   0  0  0  0  0  0  0  0  0  0  0  0
   38.4500   32.0650   44.7740 N   0  0  0  0  0  0  0  0  0  0  0  0
   39.1280   32.3680   45.8950 C   0  0  0  0  0  0  0  0  0  0  0  0
   38.8210   31.9040   47.1100 N   0  0  0  0  0  0  0  0  0  0  0  0
   36.2020   30.0830   46.1760 H   0  0  0  0  0  0  0  0  0  0  0  0
   36.8160   30.9610   44.0150 H   0  0  0  0  0  0  0  0  0  0  0  0
   40.3020   33.2820   45.7990 C   0  0  0  0  0  0  0  0  0  0  0  0
   40.3820   33.9850   47.0000 F   0  0  0  0  0  0  0  0  0  0  0  0
   41.4520   32.5680   45.5410 F   0  0  0  0  0  0  0  0  0  0  0  0
   40.1310   34.2220   44.8130 F   0  0  0  0  0  0  0  0  0  0  0  0
   34.6010   28.5540   49.7100 O   0  0  0  0  0  0  0  0  0  0  0  0
   33.6000   26.6150   46.7550 N   0  0  0  0  0  0  0  0  0  0  0  0
   34.1010   26.8280   47.9800 C   0  0  0  0  0  0  0  0  0  0  0  0
   34.1400   28.1060   48.4950 C   0  0  0  0  0  0  0  0  0  0  0  0
   33.6470   29.1560   47.7080 C   0  0  0  0  0  0  0  0  0  0  0  0
   33.5840   30.3920   47.9730 O   0  0  0  0  0  0  0  0  0  0  0  0
   33.1540   28.8690   46.4740 N   0  0  0  0  0  0  0  0  0  0  0  0
   33.1310   27.6150   46.0050 C   0  0  0  0  0  0  0  0  0  0  0  0
   32.6770   27.3220   44.8590 O   0  0  0  0  0  0  0  0  0  0  0  0
   33.6220   25.6140   46.4720 H   0  0  0  0  0  0  0  0  0  0  0  0
   34.4950   26.0890   48.6450 H   0  0  0  0  0  0  0  0  0  0  0  0
   32.6300   29.8500   45.5890 C   0  0  0  0  0  0  0  0  0  0  0  0
   32.1400   29.9180   44.3350 N   0  0  0  0  0  0  0  0  0  0  0  0
   31.7990   31.2020   44.0860 C   0  0  0  0  0  0  0  0  0  0  0  0
   31.3910   31.4310   43.1270 H   0  0  0  0  0  0  0  0  0  0  0  0
   32.0810   31.9170   45.1900 N   0  0  0  0  0  0  0  0  0  0  0  0
   31.8830   32.9380   45.1850 H   0  0  0  0  0  0  0  0  0  0  0  0
   32.5860   31.1080   46.1100 N   0  0  0  0  0  0  0  0  0  0  0  0
  1  6  1  0  0  0  0
  1  7  1  0  0  0  0
  2  1  2  0  0  0  0
  3  4  2  0  0  0  0
  3  2  1  0  0  0  0
  4  5  1  0  0  0  0
  5  6  2  0  0  0  0
  8  2  1  0  0  0  0
  9  3  1  0  0  0  0
 10 15  1  0  0  0  0
 10  9  2  0  0  0  0
 11 10  1  0  0  0  0
 12 11  2  0  0  0  0
 12 13  1  0  0  0  0
 13 14  2  0  0  0  0
 14  9  1  0  0  0  0
 16 11  1  0  0  0  0
 17 13  1  0  0  0  0
 17 18  1  0  0  0  0
 19 17  1  0  0  0  0
 20 17  1  0  0  0  0
 21  5  1  0  0  0  0
 22 23  1  0  0  0  0
 23 24  2  0  0  0  0
 23 31  1  0  0  0  0
 24 21  1  0  0  0  0
 25 26  2  0  0  0  0
 25 24  1  0  0  0  0
 27 25  1  0  0  0  0
 28 27  1  0  0  0  0
 28 22  1  0  0  0  0
 29 28  2  0  0  0  0
 30 22  1  0  0  0  0
 32 38  2  0  0  0  0
 32 27  1  0  0  0  0
 33 32  1  0  0  0  0
 34 33  2  0  0  0  0
 34 36  1  0  0  0  0
 35 34  1  0  0  0  0
 36 38  1  0  0  0  0
 37 36  1  0  0  0  0
M  END
>  <minimizedAffinity>
-6.97647715

>  <minimizedRMSD>
1.21396482

$$$$
