
 OpenBabel03272505093D

 27 29  0  0  0  0  0  0  0  0999 V2000
   36.3750   30.8270   45.7530 Cl  0  0  0  0  0  0  0  0  0  0  0  0
   36.6950   30.7520   47.4680 C   0  0  0  0  0  0  0  0  0  0  0  0
   37.9460   31.1110   47.8720 C   0  0  0  0  0  0  0  0  0  0  0  0
   38.2220   31.0580   49.2400 C   0  0  0  0  0  0  0  0  0  0  0  0
   37.2430   30.6530   50.1200 C   0  0  0  0  0  0  0  0  0  0  0  0
   36.0080   30.3080   49.6410 C   0  0  0  0  0  0  0  0  0  0  0  0
   35.6820   30.3390   48.3200 C   0  0  0  0  0  0  0  0  0  0  0  0
   39.2040   31.3360   49.5850 H   0  0  0  0  0  0  0  0  0  0  0  0
   37.4890   30.6240   51.1720 H   0  0  0  0  0  0  0  0  0  0  0  0
   35.2460   29.9910   50.3430 H   0  0  0  0  0  0  0  0  0  0  0  0
   40.1910   33.2950   45.9910 C   0  0  0  0  0  0  0  0  0  0  0  0
   40.8860   32.4110   45.1310 C   0  0  0  0  0  0  0  0  0  0  0  0
   40.5580   31.0540   45.2200 C   0  0  0  0  0  0  0  0  0  0  0  0
   39.6060   30.6600   46.1130 N   0  0  0  0  0  0  0  0  0  0  0  0
   38.9750   31.5400   46.9070 C   0  0  0  0  0  0  0  0  0  0  0  0
   39.2760   32.8310   46.8340 N   0  0  0  0  0  0  0  0  0  0  0  0
   40.4080   34.3430   45.9580 H   0  0  0  0  0  0  0  0  0  0  0  0
   41.6350   32.7870   44.4400 H   0  0  0  0  0  0  0  0  0  0  0  0
   41.0670   30.3450   44.5780 H   0  0  0  0  0  0  0  0  0  0  0  0
   34.0830   29.8970   47.6470 S   0  0  0  0  0  0  0  0  0  0  0  0
   33.9760   28.1320   47.3990 C   0  0  0  0  0  0  0  0  0  0  0  0
   33.8830   27.7300   46.1190 N   0  0  0  0  0  0  0  0  0  0  0  0
   33.8080   26.3940   46.0370 C   0  0  0  0  0  0  0  0  0  0  0  0
   33.7250   25.7480   45.1710 H   0  0  0  0  0  0  0  0  0  0  0  0
   33.8570   25.9560   47.3060 N   0  0  0  0  0  0  0  0  0  0  0  0
   33.8300   24.9910   47.7140 H   0  0  0  0  0  0  0  0  0  0  0  0
   33.9600   26.9940   48.1530 N   0  0  0  0  0  0  0  0  0  0  0  0
  1  2  1  0  0  0  0
  2  3  2  0  0  0  0
  2  7  1  0  0  0  0
  3  4  1  0  0  0  0
  4  8  1  0  0  0  0
  4  5  2  0  0  0  0
  5  9  1  0  0  0  0
  6  5  1  0  0  0  0
  6 10  1  0  0  0  0
  7  6  2  0  0  0  0
 11 16  1  0  0  0  0
 12 13  1  0  0  0  0
 12 11  2  0  0  0  0
 13 14  2  0  0  0  0
 14 15  1  0  0  0  0
 15  3  1  0  0  0  0
 16 15  2  0  0  0  0
 17 11  1  0  0  0  0
 18 12  1  0  0  0  0
 19 13  1  0  0  0  0
 20  7  1  0  0  0  0
 21 20  1  0  0  0  0
 21 27  2  0  0  0  0
 22 21  1  0  0  0  0
 23 22  2  0  0  0  0
 23 25  1  0  0  0  0
 24 23  1  0  0  0  0
 25 26  1  0  0  0  0
 25 27  1  0  0  0  0
M  END
>  <minimizedAffinity>
-5.29400873

>  <minimizedRMSD>
0.913030684

$$$$
