
 OpenBabel03272506273D

 40 43  0  0  0  0  0  0  0  0999 V2000
   31.6760   26.3980   47.6190 C   0  0  0  0  0  0  0  0  0  0  0  0
   31.6630   25.0260   47.7820 C   0  0  0  0  0  0  0  0  0  0  0  0
   32.6660   24.1690   47.3360 C   0  0  0  0  0  0  0  0  0  0  0  0
   33.7720   24.7340   46.6710 C   0  0  0  0  0  0  0  0  0  0  0  0
   33.7710   26.1040   46.5170 C   0  0  0  0  0  0  0  0  0  0  0  0
   32.7830   26.9330   46.9590 C   0  0  0  0  0  0  0  0  0  0  0  0
   30.8130   24.5470   48.2960 H   0  0  0  0  0  0  0  0  0  0  0  0
   32.5420   23.0890   47.5260 H   0  0  0  0  0  0  0  0  0  0  0  0
   34.4770   23.9880   46.3740 H   0  0  0  0  0  0  0  0  0  0  0  0
   34.6670   26.3250   45.9970 H   0  0  0  0  0  0  0  0  0  0  0  0
   30.6650   27.5910   49.4600 C   0  0  0  0  0  0  0  0  0  0  0  0
   30.5540   27.1240   48.1410 C   0  0  0  0  0  0  0  0  0  0  0  0
   29.3710   27.3960   47.4410 C   0  0  0  0  0  0  0  0  0  0  0  0
   28.3840   28.0970   48.0610 N   0  0  0  0  0  0  0  0  0  0  0  0
   28.5180   28.5400   49.3460 C   0  0  0  0  0  0  0  0  0  0  0  0
   29.6600   28.2840   50.0390 N   0  0  0  0  0  0  0  0  0  0  0  0
   31.5530   27.4010   50.0250 H   0  0  0  0  0  0  0  0  0  0  0  0
   27.7400   29.0970   49.8490 H   0  0  0  0  0  0  0  0  0  0  0  0
   29.1130   26.9600   46.0390 C   0  0  0  0  0  0  0  0  0  0  0  0
   27.8730   27.4700   45.6130 F   0  0  0  0  0  0  0  0  0  0  0  0
   30.0510   27.2950   45.1330 F   0  0  0  0  0  0  0  0  0  0  0  0
   28.9240   25.5730   46.0090 F   0  0  0  0  0  0  0  0  0  0  0  0
   32.7990   28.6750   46.7550 S   0  0  0  0  0  0  0  0  0  0  0  0
   34.1410   28.5050   49.5540 Cl  0  0  0  0  0  0  0  0  0  0  0  0
   34.9610   29.2750   48.2240 C   0  0  0  0  0  0  0  0  0  0  0  0
   34.4020   29.4020   46.9530 C   0  0  0  0  0  0  0  0  0  0  0  0
   35.0780   30.0380   45.9530 C   0  0  0  0  0  0  0  0  0  0  0  0
   36.3360   30.5540   46.2260 C   0  0  0  0  0  0  0  0  0  0  0  0
   36.9020   30.4280   47.4990 C   0  0  0  0  0  0  0  0  0  0  0  0
   36.2180   29.7870   48.5100 C   0  0  0  0  0  0  0  0  0  0  0  0
   34.7250   30.2160   44.9710 H   0  0  0  0  0  0  0  0  0  0  0  0
   36.9140   31.0670   45.4640 H   0  0  0  0  0  0  0  0  0  0  0  0
   37.8960   30.8580   47.6440 H   0  0  0  0  0  0  0  0  0  0  0  0
   36.8390   29.6760   49.8250 C   0  0  0  0  0  0  0  0  0  0  0  0
   36.6900   30.6270   50.7650 N   0  0  0  0  0  0  0  0  0  0  0  0
   37.3860   30.2290   51.8700 C   0  0  0  0  0  0  0  0  0  0  0  0
   37.5590   30.6520   52.8540 H   0  0  0  0  0  0  0  0  0  0  0  0
   37.9460   29.0230   51.5550 N   0  0  0  0  0  0  0  0  0  0  0  0
   38.5500   28.3790   52.1080 H   0  0  0  0  0  0  0  0  0  0  0  0
   37.6120   28.6940   50.3190 N   0  0  0  0  0  0  0  0  0  0  0  0
  1  2  1  0  0  0  0
  1 12  1  0  0  0  0
  2  7  1  0  0  0  0
  3  8  1  0  0  0  0
  3  2  2  0  0  0  0
  4  3  1  0  0  0  0
  5  4  2  0  0  0  0
  5  6  1  0  0  0  0
  6  1  2  0  0  0  0
  9  4  1  0  0  0  0
 10  5  1  0  0  0  0
 11 17  1  0  0  0  0
 11 16  1  0  0  0  0
 12 11  2  0  0  0  0
 13 14  2  0  0  0  0
 13 12  1  0  0  0  0
 14 15  1  0  0  0  0
 15 18  1  0  0  0  0
 15 16  2  0  0  0  0
 19 13  1  0  0  0  0
 20 19  1  0  0  0  0
 21 19  1  0  0  0  0
 22 19  1  0  0  0  0
 23 26  1  0  0  0  0
 23  6  1  0  0  0  0
 25 30  1  0  0  0  0
 25 24  1  0  0  0  0
 26 25  2  0  0  0  0
 27 28  2  0  0  0  0
 27 26  1  0  0  0  0
 28 29  1  0  0  0  0
 29 33  1  0  0  0  0
 29 30  2  0  0  0  0
 30 34  1  0  0  0  0
 31 27  1  0  0  0  0
 32 28  1  0  0  0  0
 34 40  2  0  0  0  0
 34 35  1  0  0  0  0
 35 36  2  0  0  0  0
 36 37  1  0  0  0  0
 38 36  1  0  0  0  0
 38 39  1  0  0  0  0
 40 38  1  0  0  0  0
M  END
>  <minimizedAffinity>
-5.81571913

>  <minimizedRMSD>
3.65492344

$$$$
