
 OpenBabel03272509183D

 31 33  0  0  0  0  0  0  0  0999 V2000
   38.0290   31.2800   47.7920 C   0  0  0  0  0  0  0  0  0  0  0  0
   37.0760   31.2980   48.7930 C   0  0  0  0  0  0  0  0  0  0  0  0
   37.1610   32.4180   49.6420 C   0  0  0  0  0  0  0  0  0  0  0  0
   38.1310   33.4030   49.4650 C   0  0  0  0  0  0  0  0  0  0  0  0
   39.0460   33.2940   48.4270 C   0  0  0  0  0  0  0  0  0  0  0  0
   38.9870   32.2020   47.5730 C   0  0  0  0  0  0  0  0  0  0  0  0
   36.4540   32.4940   50.4380 H   0  0  0  0  0  0  0  0  0  0  0  0
   38.1710   34.2520   50.1340 H   0  0  0  0  0  0  0  0  0  0  0  0
   39.8150   34.0400   48.2570 H   0  0  0  0  0  0  0  0  0  0  0  0
   34.9200   30.3110   48.1860 C   0  0  0  0  0  0  0  0  0  0  0  0
   36.0800   30.2910   48.9800 C   0  0  0  0  0  0  0  0  0  0  0  0
   36.2190   29.2790   49.9320 C   0  0  0  0  0  0  0  0  0  0  0  0
   35.2100   28.3670   50.0300 N   0  0  0  0  0  0  0  0  0  0  0  0
   34.1100   28.4100   49.2570 C   0  0  0  0  0  0  0  0  0  0  0  0
   33.9670   29.3730   48.3430 N   0  0  0  0  0  0  0  0  0  0  0  0
   34.8000   31.0940   47.4400 H   0  0  0  0  0  0  0  0  0  0  0  0
   33.3780   27.6370   49.4230 H   0  0  0  0  0  0  0  0  0  0  0  0
   37.4230   29.2200   50.7900 C   0  0  0  0  0  0  0  0  0  0  0  0
   37.7370   28.1870   51.0530 H   0  0  0  0  0  0  0  0  0  0  0  0
   38.2280   29.8050   50.2800 H   0  0  0  0  0  0  0  0  0  0  0  0
   37.1790   29.8180   51.7050 H   0  0  0  0  0  0  0  0  0  0  0  0
   38.0210   30.2010   46.8980 O   0  0  0  0  0  0  0  0  0  0  0  0
   37.2250   29.9340   46.3380 H   0  0  0  0  0  0  0  0  0  0  0  0
   39.9170   32.1100   46.5340 O   0  0  0  0  0  0  0  0  0  0  0  0
   39.4350   32.3910   45.2630 C   0  0  0  0  0  0  0  0  0  0  0  0
   38.1740   32.5030   44.8100 N   0  0  0  0  0  0  0  0  0  0  0  0
   38.2390   32.7870   43.4950 C   0  0  0  0  0  0  0  0  0  0  0  0
   37.3820   32.9360   42.8480 H   0  0  0  0  0  0  0  0  0  0  0  0
   39.5330   32.8500   43.1370 N   0  0  0  0  0  0  0  0  0  0  0  0
   39.8940   33.0540   42.1770 H   0  0  0  0  0  0  0  0  0  0  0  0
   40.2350   32.6080   44.2220 N   0  0  0  0  0  0  0  0  0  0  0  0
  1  2  1  0  0  0  0
  2 11  1  0  0  0  0
  2  3  2  0  0  0  0
  3  7  1  0  0  0  0
  4  3  1  0  0  0  0
  4  8  1  0  0  0  0
  5  4  2  0  0  0  0
  6  1  2  0  0  0  0
  6  5  1  0  0  0  0
  9  5  1  0  0  0  0
 10 15  2  0  0  0  0
 10 11  1  0  0  0  0
 11 12  2  0  0  0  0
 12 13  1  0  0  0  0
 12 18  1  0  0  0  0
 14 17  1  0  0  0  0
 14 13  2  0  0  0  0
 15 14  1  0  0  0  0
 16 10  1  0  0  0  0
 18 19  1  0  0  0  0
 18 21  1  0  0  0  0
 20 18  1  0  0  0  0
 22  1  1  0  0  0  0
 23 22  1  0  0  0  0
 24  6  1  0  0  0  0
 25 24  1  0  0  0  0
 26 25  1  0  0  0  0
 27 26  2  0  0  0  0
 28 27  1  0  0  0  0
 29 27  1  0  0  0  0
 29 31  1  0  0  0  0
 30 29  1  0  0  0  0
 31 25  2  0  0  0  0
M  END
>  <minimizedAffinity>
-6.35375452

>  <minimizedRMSD>
0.357479304

$$$$
