REMARK  Name = 
REMARK  5 active torsions:
REMARK  status: ('A' for Active; 'I' for Inactive)
REMARK    1  A    between atoms: C_1  and  C_8
REMARK    2  A    between atoms: C_3  and  N_12
REMARK    3  A    between atoms: C_10  and  C_13
REMARK    4  A    between atoms: C_17  and  C_19
REMARK    5  A    between atoms: C_19  and  C_32
REMARK                            x       y       z     vdW  Elec       q    Type
REMARK                         _______ _______ _______ _____ _____    ______ ____
ROOT
ATOM      1  C   UNL     1      38.352  31.897  44.482  0.00  0.00    +0.000 C 
ATOM      2  O   UNL     1      37.236  32.430  44.384  0.00  0.00    +0.000 OA
ATOM      3  N   UNL     1      38.948  31.642  45.788  0.00  0.00    +0.000 N 
ATOM      4  H   UNL     1      39.933  31.394  45.923  0.00  0.00    +0.000 HD
ENDROOT
BRANCH   1   5
ATOM      5  C   UNL     1      39.141  31.491  43.290  0.00  0.00    +0.000 A 
ATOM      6  C   UNL     1      40.136  30.565  43.440  0.00  0.00    +0.000 A 
ATOM      7  C   UNL     1      40.852  30.213  42.305  0.00  0.00    +0.000 A 
ATOM      8  C   UNL     1      40.510  30.819  41.109  0.00  0.00    +0.000 A 
ATOM      9  C   UNL     1      39.503  31.753  40.965  0.00  0.00    +0.000 A 
ATOM     10  N   UNL     1      38.829  32.069  42.098  0.00  0.00    +0.000 NA
ATOM     11  H   UNL     1      40.371  30.115  44.396  0.00  0.00    +0.000 HD
ATOM     12  H   UNL     1      41.647  29.491  42.359  0.00  0.00    +0.000 HD
ATOM     13  H   UNL     1      41.103  30.509  40.242  0.00  0.00    +0.000 HD
BRANCH   9  14
ATOM     14  C   UNL     1      39.188  32.348  39.677  0.00  0.00    +0.000 C 
ATOM     15  O   UNL     1      38.840  33.551  39.623  0.00  0.00    +0.000 OA
BRANCH  14  16
ATOM     16  C   UNL     1      39.275  31.557  38.454  0.00  0.00    +0.000 A 
ATOM     17  N   UNL     1      40.244  31.636  37.527  0.00  0.00    +0.000 NA
ATOM     18  C   UNL     1      39.984  30.741  36.529  0.00  0.00    +0.000 A 
ATOM     19  H   UNL     1      40.493  30.477  35.606  0.00  0.00    +0.000 HD
ATOM     20  N   UNL     1      38.827  30.113  36.873  0.00  0.00    +0.000 N 
ATOM     21  H   UNL     1      38.234  29.361  36.434  0.00  0.00    +0.000 HD
ATOM     22  N   UNL     1      38.405  30.617  38.045  0.00  0.00    +0.000 NA
ENDBRANCH  14  16
ENDBRANCH   9  14
ENDBRANCH   1   5
BRANCH   3  25
ATOM     23  C   UNL     1      38.450  31.123  48.168  0.00  0.00    +0.000 C 
ATOM     24  C   UNL     1      38.686  32.589  48.088  0.00  0.00    +0.000 C 
ATOM     25  C   UNL     1      38.087  31.750  46.939  0.00  0.00    +0.000 C 
ATOM     26  H   UNL     1      39.386  30.538  48.267  0.00  0.00    +0.000 HD
ATOM     27  H   UNL     1      39.691  32.985  47.957  0.00  0.00    +0.000 HD
ATOM     28  H   UNL     1      38.004  33.225  48.682  0.00  0.00    +0.000 HD
ATOM     29  H   UNL     1      37.004  32.017  46.750  0.00  0.00    +0.000 HD
BRANCH  23  34
ATOM     30  C   UNL     1      35.088  30.253  49.500  0.00  0.00    +0.000 A 
ATOM     31  C   UNL     1      35.418  29.557  50.692  0.00  0.00    +0.000 A 
ATOM     32  C   UNL     1      36.816  29.404  51.029  0.00  0.00    +0.000 A 
ATOM     33  N   UNL     1      37.770  29.931  50.194  0.00  0.00    +0.000 NA
ATOM     34  C   UNL     1      37.364  30.583  49.072  0.00  0.00    +0.000 A 
ATOM     35  N   UNL     1      36.040  30.766  48.690  0.00  0.00    +0.000 NA
ATOM     36  H   UNL     1      34.032  30.344  49.288  0.00  0.00    +0.000 HD
ATOM     37  H   UNL     1      34.664  29.155  51.326  0.00  0.00    +0.000 HD
ATOM     38  H   UNL     1      37.077  28.875  51.935  0.00  0.00    +0.000 HD
ENDBRANCH  23  34
ENDBRANCH   3  25
TORSDOF 5
