
 OpenBabel03272509233D

 44 48  0  0  0  0  0  0  0  0999 V2000
   36.3720   28.4880   33.7130 C   0  0  0  0  0  0  0  0  0  0  0  0
   35.3090   29.3330   33.4640 C   0  0  0  0  0  0  0  0  0  0  0  0
   35.1460   29.6700   32.1190 C   0  0  0  0  0  0  0  0  0  0  0  0
   36.0000   29.1820   31.1250 C   0  0  0  0  0  0  0  0  0  0  0  0
   37.0660   28.3170   31.4810 C   0  0  0  0  0  0  0  0  0  0  0  0
   37.2410   27.9730   32.8140 C   0  0  0  0  0  0  0  0  0  0  0  0
   34.3430   30.3280   31.8050 H   0  0  0  0  0  0  0  0  0  0  0  0
   35.8660   29.4480   30.0830 H   0  0  0  0  0  0  0  0  0  0  0  0
   37.7190   27.9430   30.7180 H   0  0  0  0  0  0  0  0  0  0  0  0
   33.2420   29.1900   34.7570 C   0  0  0  0  0  0  0  0  0  0  0  0
   34.4340   29.8350   34.4770 C   0  0  0  0  0  0  0  0  0  0  0  0
   34.7370   30.9870   35.2250 C   0  0  0  0  0  0  0  0  0  0  0  0
   33.8620   31.3970   36.1640 N   0  0  0  0  0  0  0  0  0  0  0  0
   32.6990   30.7280   36.4040 C   0  0  0  0  0  0  0  0  0  0  0  0
   32.3990   29.6370   35.7040 N   0  0  0  0  0  0  0  0  0  0  0  0
   32.9420   28.2940   34.2200 H   0  0  0  0  0  0  0  0  0  0  0  0
   32.1440   31.2320   37.2010 H   0  0  0  0  0  0  0  0  0  0  0  0
   36.0110   31.7260   34.9670 C   0  0  0  0  0  0  0  0  0  0  0  0
   35.8880   32.4710   34.1480 H   0  0  0  0  0  0  0  0  0  0  0  0
   36.3580   32.1670   35.9020 H   0  0  0  0  0  0  0  0  0  0  0  0
   36.7610   30.9510   34.6360 H   0  0  0  0  0  0  0  0  0  0  0  0
   36.6210   28.0890   35.0370 O   0  0  0  0  0  0  0  0  0  0  0  0
   36.1370   27.2420   35.3420 H   0  0  0  0  0  0  0  0  0  0  0  0
   38.2900   27.1320   33.0980 O   0  0  0  0  0  0  0  0  0  0  0  0
   38.5340   25.3620   34.8380 C   0  0  0  0  0  0  0  0  0  0  0  0
   38.2120   25.8600   33.5790 C   0  0  0  0  0  0  0  0  0  0  0  0
   37.7330   24.9840   32.6210 C   0  0  0  0  0  0  0  0  0  0  0  0
   37.5720   23.6120   32.9090 C   0  0  0  0  0  0  0  0  0  0  0  0
   37.1460   22.5430   32.2200 N   0  0  0  0  0  0  0  0  0  0  0  0
   37.1930   21.4400   32.9880 C   0  0  0  0  0  0  0  0  0  0  0  0
   37.6650   21.8300   34.1990 N   0  0  0  0  0  0  0  0  0  0  0  0
   37.9060   23.1650   34.1760 C   0  0  0  0  0  0  0  0  0  0  0  0
   38.3800   24.0300   35.1260 C   0  0  0  0  0  0  0  0  0  0  0  0
   38.8980   26.1220   35.5140 H   0  0  0  0  0  0  0  0  0  0  0  0
   37.4370   25.2180   31.5920 H   0  0  0  0  0  0  0  0  0  0  0  0
   36.8190   22.5690   31.2110 H   0  0  0  0  0  0  0  0  0  0  0  0
   36.8940   20.4680   32.6300 H   0  0  0  0  0  0  0  0  0  0  0  0
   38.7360   23.5710   36.4670 C   0  0  0  0  0  0  0  0  0  0  0  0
   38.0740   23.9610   37.5820 N   0  0  0  0  0  0  0  0  0  0  0  0
   38.6260   23.3770   38.6650 C   0  0  0  0  0  0  0  0  0  0  0  0
   38.3520   23.4650   39.7130 H   0  0  0  0  0  0  0  0  0  0  0  0
   39.6440   22.6240   38.1590 N   0  0  0  0  0  0  0  0  0  0  0  0
   40.2530   22.0500   38.8130 H   0  0  0  0  0  0  0  0  0  0  0  0
   39.7140   22.7360   36.8440 N   0  0  0  0  0  0  0  0  0  0  0  0
  1 22  1  0  0  0  0
  2  1  1  0  0  0  0
  2 11  1  0  0  0  0
  3  2  2  0  0  0  0
  4  5  2  0  0  0  0
  4  3  1  0  0  0  0
  5  6  1  0  0  0  0
  6 24  1  0  0  0  0
  6  1  2  0  0  0  0
  7  3  1  0  0  0  0
  8  4  1  0  0  0  0
  9  5  1  0  0  0  0
 10 15  1  0  0  0  0
 11 10  2  0  0  0  0
 11 12  1  0  0  0  0
 12 13  2  0  0  0  0
 13 14  1  0  0  0  0
 14 17  1  0  0  0  0
 15 14  2  0  0  0  0
 16 10  1  0  0  0  0
 18 12  1  0  0  0  0
 18 20  1  0  0  0  0
 19 18  1  0  0  0  0
 21 18  1  0  0  0  0
 22 23  1  0  0  0  0
 24 26  1  0  0  0  0
 25 33  1  0  0  0  0
 25 34  1  0  0  0  0
 26 25  2  0  0  0  0
 27 28  2  0  0  0  0
 27 26  1  0  0  0  0
 28 32  1  0  0  0  0
 29 28  1  0  0  0  0
 29 30  1  0  0  0  0
 30 31  2  0  0  0  0
 32 31  1  0  0  0  0
 32 33  2  0  0  0  0
 33 38  1  0  0  0  0
 35 27  1  0  0  0  0
 36 29  1  0  0  0  0
 37 30  1  0  0  0  0
 38 44  2  0  0  0  0
 38 39  1  0  0  0  0
 39 40  2  0  0  0  0
 40 41  1  0  0  0  0
 42 40  1  0  0  0  0
 42 43  1  0  0  0  0
 44 42  1  0  0  0  0
M  END
>  <minimizedAffinity>
-6.6099267

$$$$

 OpenBabel03272509233D

 44 48  0  0  0  0  0  0  0  0999 V2000
   37.9250   26.1820   32.0020 C   0  0  0  0  0  0  0  0  0  0  0  0
   36.8100   26.7740   31.4420 C   0  0  0  0  0  0  0  0  0  0  0  0
   35.7720   25.8870   31.1520 C   0  0  0  0  0  0  0  0  0  0  0  0
   35.8760   24.5170   31.4150 C   0  0  0  0  0  0  0  0  0  0  0  0
   37.0640   24.0020   31.9930 C   0  0  0  0  0  0  0  0  0  0  0  0
   38.1040   24.8730   32.2870 C   0  0  0  0  0  0  0  0  0  0  0  0
   34.8480   26.2400   30.7100 H   0  0  0  0  0  0  0  0  0  0  0  0
   35.0660   23.8340   31.1870 H   0  0  0  0  0  0  0  0  0  0  0  0
   37.1410   22.9530   32.1940 H   0  0  0  0  0  0  0  0  0  0  0  0
   36.9900   28.6710   29.9140 C   0  0  0  0  0  0  0  0  0  0  0  0
   36.7010   28.1740   31.1720 C   0  0  0  0  0  0  0  0  0  0  0  0
   36.3000   29.0970   32.1550 C   0  0  0  0  0  0  0  0  0  0  0  0
   36.2190   30.4000   31.8240 N   0  0  0  0  0  0  0  0  0  0  0  0
   36.5150   30.8430   30.5690 C   0  0  0  0  0  0  0  0  0  0  0  0
   36.8970   29.9820   29.6290 N   0  0  0  0  0  0  0  0  0  0  0  0
   37.3060   28.0180   29.1050 H   0  0  0  0  0  0  0  0  0  0  0  0
   36.3840   31.9280   30.5220 H   0  0  0  0  0  0  0  0  0  0  0  0
   35.9730   28.6190   33.5330 C   0  0  0  0  0  0  0  0  0  0  0  0
   36.8860   28.5640   34.1700 H   0  0  0  0  0  0  0  0  0  0  0  0
   35.1930   29.2570   33.9530 H   0  0  0  0  0  0  0  0  0  0  0  0
   35.5570   27.5770   33.4140 H   0  0  0  0  0  0  0  0  0  0  0  0
   39.0250   26.9920   32.3310 O   0  0  0  0  0  0  0  0  0  0  0  0
   39.0130   27.3920   33.2720 H   0  0  0  0  0  0  0  0  0  0  0  0
   39.2300   24.3170   32.8460 O   0  0  0  0  0  0  0  0  0  0  0  0
   40.2830   22.9800   34.6690 C   0  0  0  0  0  0  0  0  0  0  0  0
   39.3800   23.8910   34.1320 C   0  0  0  0  0  0  0  0  0  0  0  0
   38.4650   24.4970   34.9760 C   0  0  0  0  0  0  0  0  0  0  0  0
   38.4440   24.1980   36.3550 C   0  0  0  0  0  0  0  0  0  0  0  0
   37.7070   24.6010   37.4010 N   0  0  0  0  0  0  0  0  0  0  0  0
   38.1140   23.9880   38.5270 C   0  0  0  0  0  0  0  0  0  0  0  0
   39.1400   23.1740   38.1750 N   0  0  0  0  0  0  0  0  0  0  0  0
   39.3630   23.2840   36.8420 C   0  0  0  0  0  0  0  0  0  0  0  0
   40.2700   22.6840   36.0080 C   0  0  0  0  0  0  0  0  0  0  0  0
   40.9530   22.5630   33.9320 H   0  0  0  0  0  0  0  0  0  0  0  0
   37.6950   25.2300   34.7100 H   0  0  0  0  0  0  0  0  0  0  0  0
   36.9150   25.3060   37.3430 H   0  0  0  0  0  0  0  0  0  0  0  0
   37.6560   24.1680   39.4860 H   0  0  0  0  0  0  0  0  0  0  0  0
   41.2450   21.7180   36.5090 C   0  0  0  0  0  0  0  0  0  0  0  0
   42.1570   21.1080   35.7150 N   0  0  0  0  0  0  0  0  0  0  0  0
   42.9170   20.2740   36.4530 C   0  0  0  0  0  0  0  0  0  0  0  0
   43.7360   19.6310   36.1460 H   0  0  0  0  0  0  0  0  0  0  0  0
   42.4260   20.4060   37.7190 N   0  0  0  0  0  0  0  0  0  0  0  0
   42.8560   19.8460   38.5140 H   0  0  0  0  0  0  0  0  0  0  0  0
   41.4270   21.2680   37.7580 N   0  0  0  0  0  0  0  0  0  0  0  0
  1  6  1  0  0  0  0
  1 22  1  0  0  0  0
  2  1  2  0  0  0  0
  3  4  2  0  0  0  0
  3  2  1  0  0  0  0
  4  5  1  0  0  0  0
  5  9  1  0  0  0  0
  5  6  2  0  0  0  0
  6 24  1  0  0  0  0
  7  3  1  0  0  0  0
  8  4  1  0  0  0  0
 10 11  1  0  0  0  0
 11  2  1  0  0  0  0
 11 12  2  0  0  0  0
 12 18  1  0  0  0  0
 13 12  1  0  0  0  0
 14 13  2  0  0  0  0
 15 10  2  0  0  0  0
 15 14  1  0  0  0  0
 16 10  1  0  0  0  0
 17 14  1  0  0  0  0
 18 20  1  0  0  0  0
 18 19  1  0  0  0  0
 21 18  1  0  0  0  0
 22 23  1  0  0  0  0
 24 26  1  0  0  0  0
 25 33  1  0  0  0  0
 26 25  2  0  0  0  0
 26 27  1  0  0  0  0
 27 28  2  0  0  0  0
 28 32  1  0  0  0  0
 28 29  1  0  0  0  0
 29 30  1  0  0  0  0
 30 37  1  0  0  0  0
 31 30  2  0  0  0  0
 32 31  1  0  0  0  0
 33 38  1  0  0  0  0
 33 32  2  0  0  0  0
 34 25  1  0  0  0  0
 35 27  1  0  0  0  0
 36 29  1  0  0  0  0
 38 44  2  0  0  0  0
 39 40  2  0  0  0  0
 39 38  1  0  0  0  0
 40 42  1  0  0  0  0
 41 40  1  0  0  0  0
 42 44  1  0  0  0  0
 42 43  1  0  0  0  0
M  END
>  <minimizedAffinity>
-6.55412626

$$$$

 OpenBabel03272509233D

 44 48  0  0  0  0  0  0  0  0999 V2000
   36.0410   28.9530   33.5680 C   0  0  0  0  0  0  0  0  0  0  0  0
   35.5470   30.2400   33.6360 C   0  0  0  0  0  0  0  0  0  0  0  0
   35.6620   30.9640   32.4480 C   0  0  0  0  0  0  0  0  0  0  0  0
   36.2340   30.4110   31.2970 C   0  0  0  0  0  0  0  0  0  0  0  0
   36.7140   29.0770   31.3260 C   0  0  0  0  0  0  0  0  0  0  0  0
   36.6060   28.3450   32.5000 C   0  0  0  0  0  0  0  0  0  0  0  0
   35.3070   31.9860   32.3840 H   0  0  0  0  0  0  0  0  0  0  0  0
   36.3190   30.9780   30.3790 H   0  0  0  0  0  0  0  0  0  0  0  0
   37.1510   28.6540   30.4440 H   0  0  0  0  0  0  0  0  0  0  0  0
   35.7410   31.5110   35.7130 C   0  0  0  0  0  0  0  0  0  0  0  0
   34.9620   30.8090   34.8090 C   0  0  0  0  0  0  0  0  0  0  0  0
   33.5910   30.6860   35.0980 C   0  0  0  0  0  0  0  0  0  0  0  0
   33.1130   31.2510   36.2240 N   0  0  0  0  0  0  0  0  0  0  0  0
   33.9210   31.9340   37.0850 C   0  0  0  0  0  0  0  0  0  0  0  0
   35.2200   32.0580   36.8250 N   0  0  0  0  0  0  0  0  0  0  0  0
   36.8070   31.6470   35.5560 H   0  0  0  0  0  0  0  0  0  0  0  0
   33.3290   32.3050   37.9260 H   0  0  0  0  0  0  0  0  0  0  0  0
   32.6990   29.9390   34.1590 C   0  0  0  0  0  0  0  0  0  0  0  0
   32.6920   28.8490   34.3870 H   0  0  0  0  0  0  0  0  0  0  0  0
   31.7050   30.3900   34.1820 H   0  0  0  0  0  0  0  0  0  0  0  0
   33.1350   30.0860   33.1290 H   0  0  0  0  0  0  0  0  0  0  0  0
   35.9710   28.1420   34.7130 O   0  0  0  0  0  0  0  0  0  0  0  0
   35.1150   27.5930   34.8140 H   0  0  0  0  0  0  0  0  0  0  0  0
   37.0880   27.0580   32.4680 O   0  0  0  0  0  0  0  0  0  0  0  0
   38.1230   25.5690   34.1790 C   0  0  0  0  0  0  0  0  0  0  0  0
   38.1220   26.5540   33.1970 C   0  0  0  0  0  0  0  0  0  0  0  0
   39.3220   27.1560   32.8590 C   0  0  0  0  0  0  0  0  0  0  0  0
   40.5240   26.7820   33.4940 C   0  0  0  0  0  0  0  0  0  0  0  0
   41.8070   27.1630   33.3950 N   0  0  0  0  0  0  0  0  0  0  0  0
   42.5720   26.4680   34.2550 C   0  0  0  0  0  0  0  0  0  0  0  0
   41.7420   25.6220   34.9160 N   0  0  0  0  0  0  0  0  0  0  0  0
   40.4740   25.7970   34.4650 C   0  0  0  0  0  0  0  0  0  0  0  0
   39.2880   25.2000   34.8020 C   0  0  0  0  0  0  0  0  0  0  0  0
   37.1420   25.1610   34.3720 H   0  0  0  0  0  0  0  0  0  0  0  0
   39.4860   27.9410   32.1120 H   0  0  0  0  0  0  0  0  0  0  0  0
   42.1630   27.9090   32.7290 H   0  0  0  0  0  0  0  0  0  0  0  0
   43.6360   26.6170   34.3390 H   0  0  0  0  0  0  0  0  0  0  0  0
   39.2210   24.1590   35.8250 C   0  0  0  0  0  0  0  0  0  0  0  0
   38.5460   24.3090   36.9900 N   0  0  0  0  0  0  0  0  0  0  0  0
   38.6620   23.1880   37.7310 C   0  0  0  0  0  0  0  0  0  0  0  0
   38.2530   22.9620   38.7110 H   0  0  0  0  0  0  0  0  0  0  0  0
   39.4330   22.3610   36.9680 N   0  0  0  0  0  0  0  0  0  0  0  0
   39.6820   21.3920   37.3250 H   0  0  0  0  0  0  0  0  0  0  0  0
   39.7700   22.9360   35.8280 N   0  0  0  0  0  0  0  0  0  0  0  0
  1  2  1  0  0  0  0
  1 22  1  0  0  0  0
  2 11  1  0  0  0  0
  3  2  2  0  0  0  0
  4  5  2  0  0  0  0
  4  3  1  0  0  0  0
  5  6  1  0  0  0  0
  6  1  2  0  0  0  0
  7  3  1  0  0  0  0
  8  4  1  0  0  0  0
  9  5  1  0  0  0  0
 10 15  1  0  0  0  0
 11 12  1  0  0  0  0
 11 10  2  0  0  0  0
 12 13  2  0  0  0  0
 13 14  1  0  0  0  0
 14 17  1  0  0  0  0
 15 14  2  0  0  0  0
 16 10  1  0  0  0  0
 18 20  1  0  0  0  0
 18 19  1  0  0  0  0
 18 12  1  0  0  0  0
 21 18  1  0  0  0  0
 22 23  1  0  0  0  0
 24  6  1  0  0  0  0
 24 26  1  0  0  0  0
 25 34  1  0  0  0  0
 25 33  1  0  0  0  0
 26 25  2  0  0  0  0
 27 26  1  0  0  0  0
 27 28  2  0  0  0  0
 28 32  1  0  0  0  0
 29 28  1  0  0  0  0
 29 30  1  0  0  0  0
 30 37  1  0  0  0  0
 30 31  2  0  0  0  0
 32 33  2  0  0  0  0
 32 31  1  0  0  0  0
 33 38  1  0  0  0  0
 35 27  1  0  0  0  0
 36 29  1  0  0  0  0
 38 44  2  0  0  0  0
 38 39  1  0  0  0  0
 39 40  2  0  0  0  0
 40 41  1  0  0  0  0
 42 43  1  0  0  0  0
 42 40  1  0  0  0  0
 44 42  1  0  0  0  0
M  END
>  <minimizedAffinity>
-6.43356609

$$$$

 OpenBabel03272509233D

 44 48  0  0  0  0  0  0  0  0999 V2000
   36.1460   24.8340   31.7710 C   0  0  0  0  0  0  0  0  0  0  0  0
   36.8110   23.7230   32.2480 C   0  0  0  0  0  0  0  0  0  0  0  0
   37.7890   24.0030   33.2040 C   0  0  0  0  0  0  0  0  0  0  0  0
   38.0550   25.3100   33.6280 C   0  0  0  0  0  0  0  0  0  0  0  0
   37.3160   26.3880   33.0780 C   0  0  0  0  0  0  0  0  0  0  0  0
   36.3410   26.1240   32.1270 C   0  0  0  0  0  0  0  0  0  0  0  0
   38.3750   23.2080   33.6490 H   0  0  0  0  0  0  0  0  0  0  0  0
   38.8150   25.5200   34.3710 H   0  0  0  0  0  0  0  0  0  0  0  0
   37.5200   27.3880   33.4040 H   0  0  0  0  0  0  0  0  0  0  0  0
   35.4610   21.6880   32.3260 C   0  0  0  0  0  0  0  0  0  0  0  0
   36.5430   22.3860   31.8170 C   0  0  0  0  0  0  0  0  0  0  0  0
   37.3490   21.7270   30.8720 C   0  0  0  0  0  0  0  0  0  0  0  0
   37.0310   20.4680   30.5150 N   0  0  0  0  0  0  0  0  0  0  0  0
   35.9550   19.8200   31.0450 C   0  0  0  0  0  0  0  0  0  0  0  0
   35.1830   20.4300   31.9410 N   0  0  0  0  0  0  0  0  0  0  0  0
   34.7940   22.1330   33.0600 H   0  0  0  0  0  0  0  0  0  0  0  0
   35.8840   18.8160   30.6180 H   0  0  0  0  0  0  0  0  0  0  0  0
   38.5320   22.4300   30.2860 C   0  0  0  0  0  0  0  0  0  0  0  0
   39.4360   22.3040   30.9250 H   0  0  0  0  0  0  0  0  0  0  0  0
   38.6770   22.0840   29.2620 H   0  0  0  0  0  0  0  0  0  0  0  0
   38.2630   23.5260   30.2600 H   0  0  0  0  0  0  0  0  0  0  0  0
   35.1420   24.6560   30.8040 O   0  0  0  0  0  0  0  0  0  0  0  0
   34.2000   24.4980   31.1690 H   0  0  0  0  0  0  0  0  0  0  0  0
   35.6580   27.2080   31.6310 O   0  0  0  0  0  0  0  0  0  0  0  0
   35.4430   29.0750   33.2700 C   0  0  0  0  0  0  0  0  0  0  0  0
   35.7650   28.5020   32.0440 C   0  0  0  0  0  0  0  0  0  0  0  0
   36.2790   29.3120   31.0460 C   0  0  0  0  0  0  0  0  0  0  0  0
   36.4730   30.6930   31.2630 C   0  0  0  0  0  0  0  0  0  0  0  0
   36.9360   31.7120   30.5230 N   0  0  0  0  0  0  0  0  0  0  0  0
   36.9100   32.8550   31.2300 C   0  0  0  0  0  0  0  0  0  0  0  0
   36.4150   32.5430   32.4540 N   0  0  0  0  0  0  0  0  0  0  0  0
   36.1380   31.2160   32.4990 C   0  0  0  0  0  0  0  0  0  0  0  0
   35.6300   30.4170   33.4890 C   0  0  0  0  0  0  0  0  0  0  0  0
   35.0510   28.3630   33.9810 H   0  0  0  0  0  0  0  0  0  0  0  0
   36.5790   29.0150   30.0350 H   0  0  0  0  0  0  0  0  0  0  0  0
   37.2730   31.6230   29.5210 H   0  0  0  0  0  0  0  0  0  0  0  0
   37.2390   33.7980   30.8240 H   0  0  0  0  0  0  0  0  0  0  0  0
   35.2710   30.9560   34.7980 C   0  0  0  0  0  0  0  0  0  0  0  0
   33.9890   31.1270   35.2020 N   0  0  0  0  0  0  0  0  0  0  0  0
   33.9710   31.6400   36.4490 C   0  0  0  0  0  0  0  0  0  0  0  0
   33.1240   31.9010   37.0760 H   0  0  0  0  0  0  0  0  0  0  0  0
   35.2880   31.7720   36.7770 N   0  0  0  0  0  0  0  0  0  0  0  0
   35.5600   32.1620   37.7270 H   0  0  0  0  0  0  0  0  0  0  0  0
   36.0700   31.3640   35.7940 N   0  0  0  0  0  0  0  0  0  0  0  0
  1  6  2  0  0  0  0
  1  2  1  0  0  0  0
  2  3  2  0  0  0  0
  3  4  1  0  0  0  0
  3  7  1  0  0  0  0
  4  8  1  0  0  0  0
  5  9  1  0  0  0  0
  5  4  2  0  0  0  0
  6  5  1  0  0  0  0
 10 16  1  0  0  0  0
 11  2  1  0  0  0  0
 11 10  2  0  0  0  0
 12 11  1  0  0  0  0
 13 12  2  0  0  0  0
 13 14  1  0  0  0  0
 14 15  2  0  0  0  0
 15 10  1  0  0  0  0
 17 14  1  0  0  0  0
 18 12  1  0  0  0  0
 18 19  1  0  0  0  0
 20 18  1  0  0  0  0
 21 18  1  0  0  0  0
 22 23  1  0  0  0  0
 22  1  1  0  0  0  0
 24 26  1  0  0  0  0
 24  6  1  0  0  0  0
 25 33  1  0  0  0  0
 25 34  1  0  0  0  0
 26 25  2  0  0  0  0
 27 28  2  0  0  0  0
 27 26  1  0  0  0  0
 28 32  1  0  0  0  0
 29 30  1  0  0  0  0
 29 28  1  0  0  0  0
 30 31  2  0  0  0  0
 31 32  1  0  0  0  0
 32 33  2  0  0  0  0
 33 38  1  0  0  0  0
 35 27  1  0  0  0  0
 36 29  1  0  0  0  0
 37 30  1  0  0  0  0
 38 39  1  0  0  0  0
 38 44  2  0  0  0  0
 39 40  2  0  0  0  0
 40 42  1  0  0  0  0
 40 41  1  0  0  0  0
 42 43  1  0  0  0  0
 44 42  1  0  0  0  0
M  END
>  <minimizedAffinity>
-6.25651169

$$$$

 OpenBabel03272509233D

 44 48  0  0  0  0  0  0  0  0999 V2000
   38.7930   25.1100   33.9890 C   0  0  0  0  0  0  0  0  0  0  0  0
   38.4170   23.9450   34.6280 C   0  0  0  0  0  0  0  0  0  0  0  0
   37.8450   22.9880   33.7890 C   0  0  0  0  0  0  0  0  0  0  0  0
   37.6760   23.2120   32.4190 C   0  0  0  0  0  0  0  0  0  0  0  0
   38.0940   24.4430   31.8540 C   0  0  0  0  0  0  0  0  0  0  0  0
   38.6660   25.4040   32.6760 C   0  0  0  0  0  0  0  0  0  0  0  0
   37.5120   22.0340   34.1810 H   0  0  0  0  0  0  0  0  0  0  0  0
   37.2310   22.4640   31.7740 H   0  0  0  0  0  0  0  0  0  0  0  0
   37.9650   24.6130   30.8040 H   0  0  0  0  0  0  0  0  0  0  0  0
   37.6150   24.1060   36.9300 C   0  0  0  0  0  0  0  0  0  0  0  0
   38.5880   23.7130   36.0280 C   0  0  0  0  0  0  0  0  0  0  0  0
   39.7330   23.0830   36.5480 C   0  0  0  0  0  0  0  0  0  0  0  0
   39.8220   22.8980   37.8800 N   0  0  0  0  0  0  0  0  0  0  0  0
   38.8350   23.3030   38.7300 C   0  0  0  0  0  0  0  0  0  0  0  0
   37.7470   23.9010   38.2520 N   0  0  0  0  0  0  0  0  0  0  0  0
   36.7030   24.5980   36.6010 H   0  0  0  0  0  0  0  0  0  0  0  0
   39.1130   23.0560   39.7580 H   0  0  0  0  0  0  0  0  0  0  0  0
   40.8190   22.6360   35.6240 C   0  0  0  0  0  0  0  0  0  0  0  0
   41.5450   23.4570   35.4220 H   0  0  0  0  0  0  0  0  0  0  0  0
   41.2870   21.7400   36.0350 H   0  0  0  0  0  0  0  0  0  0  0  0
   40.3120   22.3620   34.6540 H   0  0  0  0  0  0  0  0  0  0  0  0
   39.3800   26.1370   34.7490 O   0  0  0  0  0  0  0  0  0  0  0  0
   40.3980   26.0940   34.8360 H   0  0  0  0  0  0  0  0  0  0  0  0
   39.0520   26.5770   32.0720 O   0  0  0  0  0  0  0  0  0  0  0  0
   38.3260   28.3170   30.4410 C   0  0  0  0  0  0  0  0  0  0  0  0
   38.2370   27.5650   31.6070 C   0  0  0  0  0  0  0  0  0  0  0  0
   37.1850   27.8050   32.4740 C   0  0  0  0  0  0  0  0  0  0  0  0
   36.2190   28.7910   32.1850 C   0  0  0  0  0  0  0  0  0  0  0  0
   35.1170   29.2480   32.8000 N   0  0  0  0  0  0  0  0  0  0  0  0
   34.5440   30.2240   32.0740 C   0  0  0  0  0  0  0  0  0  0  0  0
   35.3110   30.3840   30.9670 N   0  0  0  0  0  0  0  0  0  0  0  0
   36.3500   29.5130   31.0110 C   0  0  0  0  0  0  0  0  0  0  0  0
   37.3900   29.2780   30.1520 C   0  0  0  0  0  0  0  0  0  0  0  0
   39.1790   28.0570   29.8320 H   0  0  0  0  0  0  0  0  0  0  0  0
   36.9770   27.3010   33.4250 H   0  0  0  0  0  0  0  0  0  0  0  0
   34.7540   28.8860   33.7290 H   0  0  0  0  0  0  0  0  0  0  0  0
   33.6450   30.7300   32.3870 H   0  0  0  0  0  0  0  0  0  0  0  0
   37.5400   30.0330   28.9100 C   0  0  0  0  0  0  0  0  0  0  0  0
   37.0420   31.2820   28.7390 N   0  0  0  0  0  0  0  0  0  0  0  0
   37.3350   31.7210   27.4980 C   0  0  0  0  0  0  0  0  0  0  0  0
   37.0920   32.6680   27.0250 H   0  0  0  0  0  0  0  0  0  0  0  0
   38.0250   30.6900   26.9310 N   0  0  0  0  0  0  0  0  0  0  0  0
   38.3800   30.7770   25.9340 H   0  0  0  0  0  0  0  0  0  0  0  0
   38.1500   29.6780   27.7710 N   0  0  0  0  0  0  0  0  0  0  0  0
  1  2  1  0  0  0  0
  1 22  1  0  0  0  0
  2 11  1  0  0  0  0
  3  7  1  0  0  0  0
  3  2  2  0  0  0  0
  4  3  1  0  0  0  0
  5  4  2  0  0  0  0
  5  6  1  0  0  0  0
  6  1  2  0  0  0  0
  8  4  1  0  0  0  0
  9  5  1  0  0  0  0
 10 15  1  0  0  0  0
 11 12  1  0  0  0  0
 11 10  2  0  0  0  0
 12 13  2  0  0  0  0
 13 14  1  0  0  0  0
 14 17  1  0  0  0  0
 15 14  2  0  0  0  0
 16 10  1  0  0  0  0
 18 20  1  0  0  0  0
 18 12  1  0  0  0  0
 19 18  1  0  0  0  0
 21 18  1  0  0  0  0
 22 23  1  0  0  0  0
 24  6  1  0  0  0  0
 25 26  1  0  0  0  0
 26 24  1  0  0  0  0
 26 27  2  0  0  0  0
 27 35  1  0  0  0  0
 28 27  1  0  0  0  0
 28 29  1  0  0  0  0
 29 36  1  0  0  0  0
 30 37  1  0  0  0  0
 30 29  1  0  0  0  0
 31 32  1  0  0  0  0
 31 30  2  0  0  0  0
 32 28  2  0  0  0  0
 33 25  2  0  0  0  0
 33 32  1  0  0  0  0
 34 25  1  0  0  0  0
 38 33  1  0  0  0  0
 39 38  1  0  0  0  0
 40 39  2  0  0  0  0
 41 40  1  0  0  0  0
 42 40  1  0  0  0  0
 42 44  1  0  0  0  0
 43 42  1  0  0  0  0
 44 38  2  0  0  0  0
M  END
>  <minimizedAffinity>
-6.16489792

$$$$

 OpenBabel03272509233D

 44 48  0  0  0  0  0  0  0  0999 V2000
   38.0670   26.3640   31.2190 C   0  0  0  0  0  0  0  0  0  0  0  0
   39.3110   26.0620   30.7020 C   0  0  0  0  0  0  0  0  0  0  0  0
   40.3750   26.3420   31.5610 C   0  0  0  0  0  0  0  0  0  0  0  0
   40.1730   26.8850   32.8350 C   0  0  0  0  0  0  0  0  0  0  0  0
   38.8550   27.1620   33.2770 C   0  0  0  0  0  0  0  0  0  0  0  0
   37.7880   26.8880   32.4340 C   0  0  0  0  0  0  0  0  0  0  0  0
   41.3980   26.1450   31.2620 H   0  0  0  0  0  0  0  0  0  0  0  0
   41.0040   27.0990   33.4960 H   0  0  0  0  0  0  0  0  0  0  0  0
   38.7020   27.5770   34.2530 H   0  0  0  0  0  0  0  0  0  0  0  0
   39.4640   24.1380   29.2040 C   0  0  0  0  0  0  0  0  0  0  0  0
   39.5210   25.5070   29.4020 C   0  0  0  0  0  0  0  0  0  0  0  0
   39.7900   26.3100   28.2790 C   0  0  0  0  0  0  0  0  0  0  0  0
   39.9760   25.7140   27.0850 N   0  0  0  0  0  0  0  0  0  0  0  0
   39.9100   24.3600   26.9400 C   0  0  0  0  0  0  0  0  0  0  0  0
   39.6570   23.5870   27.9930 N   0  0  0  0  0  0  0  0  0  0  0  0
   39.2600   23.4550   30.0240 H   0  0  0  0  0  0  0  0  0  0  0  0
   40.0910   24.0940   25.8950 H   0  0  0  0  0  0  0  0  0  0  0  0
   39.8640   27.7960   28.4300 C   0  0  0  0  0  0  0  0  0  0  0  0
   40.8880   28.1230   28.7240 H   0  0  0  0  0  0  0  0  0  0  0  0
   39.5110   28.2630   27.5090 H   0  0  0  0  0  0  0  0  0  0  0  0
   39.1510   28.0620   29.2630 H   0  0  0  0  0  0  0  0  0  0  0  0
   36.9310   26.1180   30.4300 O   0  0  0  0  0  0  0  0  0  0  0  0
   36.5200   25.1860   30.5260 H   0  0  0  0  0  0  0  0  0  0  0  0
   36.5340   27.1770   32.9170 O   0  0  0  0  0  0  0  0  0  0  0  0
   35.7000   29.1210   34.2380 C   0  0  0  0  0  0  0  0  0  0  0  0
   35.9830   28.4130   33.0750 C   0  0  0  0  0  0  0  0  0  0  0  0
   35.6850   28.9950   31.8540 C   0  0  0  0  0  0  0  0  0  0  0  0
   35.1050   30.2790   31.7860 C   0  0  0  0  0  0  0  0  0  0  0  0
   34.7110   31.0890   30.7930 N   0  0  0  0  0  0  0  0  0  0  0  0
   34.2110   32.2350   31.2900 C   0  0  0  0  0  0  0  0  0  0  0  0
   34.2960   32.1400   32.6410 N   0  0  0  0  0  0  0  0  0  0  0  0
   34.8430   30.9430   32.9720 C   0  0  0  0  0  0  0  0  0  0  0  0
   35.1370   30.3710   34.1810 C   0  0  0  0  0  0  0  0  0  0  0  0
   35.9690   28.5850   35.1360 H   0  0  0  0  0  0  0  0  0  0  0  0
   35.8460   28.5700   30.8570 H   0  0  0  0  0  0  0  0  0  0  0  0
   34.7850   30.8550   29.7600 H   0  0  0  0  0  0  0  0  0  0  0  0
   33.8360   33.0270   30.6630 H   0  0  0  0  0  0  0  0  0  0  0  0
   34.8650   31.0610   35.4400 C   0  0  0  0  0  0  0  0  0  0  0  0
   33.6260   31.1530   35.9800 N   0  0  0  0  0  0  0  0  0  0  0  0
   33.6850   31.8440   37.1370 C   0  0  0  0  0  0  0  0  0  0  0  0
   32.8890   32.1050   37.8270 H   0  0  0  0  0  0  0  0  0  0  0  0
   35.0050   32.1640   37.2690 N   0  0  0  0  0  0  0  0  0  0  0  0
   35.3320   32.7200   38.1130 H   0  0  0  0  0  0  0  0  0  0  0  0
   35.7140   31.6980   36.2570 N   0  0  0  0  0  0  0  0  0  0  0  0
  1  6  1  0  0  0  0
  2  1  2  0  0  0  0
  2  3  1  0  0  0  0
  3  4  2  0  0  0  0
  4  5  1  0  0  0  0
  4  8  1  0  0  0  0
  5  9  1  0  0  0  0
  6 24  1  0  0  0  0
  6  5  2  0  0  0  0
  7  3  1  0  0  0  0
 10 11  1  0  0  0  0
 10 16  1  0  0  0  0
 11  2  1  0  0  0  0
 12 18  1  0  0  0  0
 12 11  2  0  0  0  0
 13 12  1  0  0  0  0
 14 13  2  0  0  0  0
 14 15  1  0  0  0  0
 15 10  2  0  0  0  0
 17 14  1  0  0  0  0
 18 19  1  0  0  0  0
 18 21  1  0  0  0  0
 20 18  1  0  0  0  0
 22 23  1  0  0  0  0
 22  1  1  0  0  0  0
 24 26  1  0  0  0  0
 25 34  1  0  0  0  0
 26 25  2  0  0  0  0
 27 26  1  0  0  0  0
 28 27  2  0  0  0  0
 28 32  1  0  0  0  0
 29 30  1  0  0  0  0
 29 28  1  0  0  0  0
 30 31  2  0  0  0  0
 31 32  1  0  0  0  0
 32 33  2  0  0  0  0
 33 25  1  0  0  0  0
 33 38  1  0  0  0  0
 35 27  1  0  0  0  0
 36 29  1  0  0  0  0
 37 30  1  0  0  0  0
 38 39  1  0  0  0  0
 38 44  2  0  0  0  0
 39 40  2  0  0  0  0
 40 42  1  0  0  0  0
 40 41  1  0  0  0  0
 42 43  1  0  0  0  0
 44 42  1  0  0  0  0
M  END
>  <minimizedAffinity>
-6.08390999

$$$$

 OpenBabel03272509233D

 44 48  0  0  0  0  0  0  0  0999 V2000
   39.0500   27.1210   32.9290 C   0  0  0  0  0  0  0  0  0  0  0  0
   40.3250   26.8500   33.3840 C   0  0  0  0  0  0  0  0  0  0  0  0
   40.4150   26.6560   34.7630 C   0  0  0  0  0  0  0  0  0  0  0  0
   39.2940   26.7360   35.5950 C   0  0  0  0  0  0  0  0  0  0  0  0
   38.0230   27.0200   35.0340 C   0  0  0  0  0  0  0  0  0  0  0  0
   37.9190   27.2150   33.6640 C   0  0  0  0  0  0  0  0  0  0  0  0
   41.3670   26.4370   35.2320 H   0  0  0  0  0  0  0  0  0  0  0  0
   39.3710   26.5840   36.6650 H   0  0  0  0  0  0  0  0  0  0  0  0
   37.1650   27.0800   35.6720 H   0  0  0  0  0  0  0  0  0  0  0  0
   42.2630   27.8820   32.3140 C   0  0  0  0  0  0  0  0  0  0  0  0
   41.4730   26.7680   32.5360 C   0  0  0  0  0  0  0  0  0  0  0  0
   41.8500   25.5720   31.8990 C   0  0  0  0  0  0  0  0  0  0  0  0
   42.9460   25.5730   31.1160 N   0  0  0  0  0  0  0  0  0  0  0  0
   43.6940   26.6980   30.9270 C   0  0  0  0  0  0  0  0  0  0  0  0
   43.3490   27.8370   31.5220 N   0  0  0  0  0  0  0  0  0  0  0  0
   42.0340   28.8400   32.7730 H   0  0  0  0  0  0  0  0  0  0  0  0
   44.5310   26.4740   30.2590 H   0  0  0  0  0  0  0  0  0  0  0  0
   41.0360   24.3350   32.1010 C   0  0  0  0  0  0  0  0  0  0  0  0
   40.1920   24.2810   31.3750 H   0  0  0  0  0  0  0  0  0  0  0  0
   41.6960   23.4670   32.0590 H   0  0  0  0  0  0  0  0  0  0  0  0
   40.6070   24.4080   33.1420 H   0  0  0  0  0  0  0  0  0  0  0  0
   38.8550   27.3320   31.5530 O   0  0  0  0  0  0  0  0  0  0  0  0
   38.6550   26.4940   31.0030 H   0  0  0  0  0  0  0  0  0  0  0  0
   36.6630   27.4870   33.1760 O   0  0  0  0  0  0  0  0  0  0  0  0
   35.6440   29.3610   34.4680 C   0  0  0  0  0  0  0  0  0  0  0  0
   35.9650   28.6480   33.3170 C   0  0  0  0  0  0  0  0  0  0  0  0
   35.5410   29.1370   32.0930 C   0  0  0  0  0  0  0  0  0  0  0  0
   34.7990   30.3340   32.0090 C   0  0  0  0  0  0  0  0  0  0  0  0
   34.2610   31.0460   31.0070 N   0  0  0  0  0  0  0  0  0  0  0  0
   33.6400   32.1380   31.4880 C   0  0  0  0  0  0  0  0  0  0  0  0
   33.7950   32.1100   32.8360 N   0  0  0  0  0  0  0  0  0  0  0  0
   34.5050   31.0070   33.1820 C   0  0  0  0  0  0  0  0  0  0  0  0
   34.9230   30.5260   34.3940 C   0  0  0  0  0  0  0  0  0  0  0  0
   36.0180   28.9000   35.3700 H   0  0  0  0  0  0  0  0  0  0  0  0
   35.7120   28.6960   31.1040 H   0  0  0  0  0  0  0  0  0  0  0  0
   34.3200   30.7810   29.9810 H   0  0  0  0  0  0  0  0  0  0  0  0
   33.1390   32.8500   30.8520 H   0  0  0  0  0  0  0  0  0  0  0  0
   34.6190   31.2270   35.6400 C   0  0  0  0  0  0  0  0  0  0  0  0
   33.3760   31.2740   36.1770 N   0  0  0  0  0  0  0  0  0  0  0  0
   33.4040   31.9880   37.3210 C   0  0  0  0  0  0  0  0  0  0  0  0
   32.5950   32.2280   38.0050 H   0  0  0  0  0  0  0  0  0  0  0  0
   34.7070   32.3680   37.4480 N   0  0  0  0  0  0  0  0  0  0  0  0
   35.0090   32.9530   38.2830 H   0  0  0  0  0  0  0  0  0  0  0  0
   35.4380   31.9150   36.4460 N   0  0  0  0  0  0  0  0  0  0  0  0
  1  2  2  0  0  0  0
  1  6  1  0  0  0  0
  2  3  1  0  0  0  0
  3  7  1  0  0  0  0
  3  4  2  0  0  0  0
  4  8  1  0  0  0  0
  5  4  1  0  0  0  0
  5  9  1  0  0  0  0
  6  5  2  0  0  0  0
 10 11  1  0  0  0  0
 10 16  1  0  0  0  0
 11  2  1  0  0  0  0
 12 18  1  0  0  0  0
 12 11  2  0  0  0  0
 13 12  1  0  0  0  0
 14 13  2  0  0  0  0
 14 15  1  0  0  0  0
 15 10  2  0  0  0  0
 17 14  1  0  0  0  0
 18 21  1  0  0  0  0
 19 18  1  0  0  0  0
 20 18  1  0  0  0  0
 22  1  1  0  0  0  0
 23 22  1  0  0  0  0
 24 26  1  0  0  0  0
 24  6  1  0  0  0  0
 25 34  1  0  0  0  0
 26 25  2  0  0  0  0
 27 26  1  0  0  0  0
 28 27  2  0  0  0  0
 28 32  1  0  0  0  0
 29 30  1  0  0  0  0
 29 28  1  0  0  0  0
 30 31  2  0  0  0  0
 31 32  1  0  0  0  0
 32 33  2  0  0  0  0
 33 25  1  0  0  0  0
 33 38  1  0  0  0  0
 35 27  1  0  0  0  0
 36 29  1  0  0  0  0
 37 30  1  0  0  0  0
 38 39  1  0  0  0  0
 38 44  2  0  0  0  0
 39 40  2  0  0  0  0
 40 42  1  0  0  0  0
 40 41  1  0  0  0  0
 42 43  1  0  0  0  0
 44 42  1  0  0  0  0
M  END
>  <minimizedAffinity>
-6.0736618

$$$$

 OpenBabel03272509233D

 44 48  0  0  0  0  0  0  0  0999 V2000
   39.0720   27.7510   30.6510 C   0  0  0  0  0  0  0  0  0  0  0  0
   38.5620   28.2750   29.4790 C   0  0  0  0  0  0  0  0  0  0  0  0
   37.2140   28.6330   29.5480 C   0  0  0  0  0  0  0  0  0  0  0  0
   36.4630   28.4640   30.7160 C   0  0  0  0  0  0  0  0  0  0  0  0
   37.0770   27.9160   31.8700 C   0  0  0  0  0  0  0  0  0  0  0  0
   38.4160   27.5560   31.8170 C   0  0  0  0  0  0  0  0  0  0  0  0
   36.7070   29.0550   28.6880 H   0  0  0  0  0  0  0  0  0  0  0  0
   35.4180   28.7450   30.7620 H   0  0  0  0  0  0  0  0  0  0  0  0
   36.5010   27.7890   32.7640 H   0  0  0  0  0  0  0  0  0  0  0  0
   39.5390   27.3830   27.4260 C   0  0  0  0  0  0  0  0  0  0  0  0
   39.3260   28.4480   28.2840 C   0  0  0  0  0  0  0  0  0  0  0  0
   39.8880   29.6870   27.9270 C   0  0  0  0  0  0  0  0  0  0  0  0
   40.5950   29.7720   26.7830 N   0  0  0  0  0  0  0  0  0  0  0  0
   40.7780   28.6930   25.9690 C   0  0  0  0  0  0  0  0  0  0  0  0
   40.2530   27.5150   26.2940 N   0  0  0  0  0  0  0  0  0  0  0  0
   39.1350   26.3970   27.6360 H   0  0  0  0  0  0  0  0  0  0  0  0
   41.3780   28.9860   25.1030 H   0  0  0  0  0  0  0  0  0  0  0  0
   39.6920   30.8740   28.8140 C   0  0  0  0  0  0  0  0  0  0  0  0
   40.4700   30.9190   29.6100 H   0  0  0  0  0  0  0  0  0  0  0  0
   39.6550   31.7740   28.1980 H   0  0  0  0  0  0  0  0  0  0  0  0
   38.6860   30.7350   29.3060 H   0  0  0  0  0  0  0  0  0  0  0  0
   40.4210   27.3600   30.6830 O   0  0  0  0  0  0  0  0  0  0  0  0
   41.0850   28.0870   30.9560 H   0  0  0  0  0  0  0  0  0  0  0  0
   38.9570   27.0310   32.9660 O   0  0  0  0  0  0  0  0  0  0  0  0
   38.8920   25.3470   34.8040 C   0  0  0  0  0  0  0  0  0  0  0  0
   38.7010   25.8060   33.5050 C   0  0  0  0  0  0  0  0  0  0  0  0
   38.1740   24.9380   32.5640 C   0  0  0  0  0  0  0  0  0  0  0  0
   37.8350   23.6140   32.9110 C   0  0  0  0  0  0  0  0  0  0  0  0
   37.3220   22.5630   32.2510 N   0  0  0  0  0  0  0  0  0  0  0  0
   37.1950   21.5080   33.0750 C   0  0  0  0  0  0  0  0  0  0  0  0
   37.6420   21.9090   34.2910 N   0  0  0  0  0  0  0  0  0  0  0  0
   38.0430   23.2040   34.2160 C   0  0  0  0  0  0  0  0  0  0  0  0
   38.5640   24.0600   35.1490 C   0  0  0  0  0  0  0  0  0  0  0  0
   39.3070   26.0960   35.4620 H   0  0  0  0  0  0  0  0  0  0  0  0
   37.9650   25.1470   31.5090 H   0  0  0  0  0  0  0  0  0  0  0  0
   37.0560   22.5700   31.2240 H   0  0  0  0  0  0  0  0  0  0  0  0
   36.8020   20.5590   32.7480 H   0  0  0  0  0  0  0  0  0  0  0  0
   38.7890   23.6400   36.5300 C   0  0  0  0  0  0  0  0  0  0  0  0
   38.0520   24.0960   37.5710 N   0  0  0  0  0  0  0  0  0  0  0  0
   38.4880   23.5350   38.7170 C   0  0  0  0  0  0  0  0  0  0  0  0
   38.1310   23.6720   39.7340 H   0  0  0  0  0  0  0  0  0  0  0  0
   39.5140   22.7260   38.3250 N   0  0  0  0  0  0  0  0  0  0  0  0
   40.0430   22.1550   39.0480 H   0  0  0  0  0  0  0  0  0  0  0  0
   39.6980   22.7840   37.0180 N   0  0  0  0  0  0  0  0  0  0  0  0
  1 22  1  0  0  0  0
  1  6  1  0  0  0  0
  2  3  1  0  0  0  0
  2  1  2  0  0  0  0
  3  4  2  0  0  0  0
  4  8  1  0  0  0  0
  4  5  1  0  0  0  0
  5  9  1  0  0  0  0
  6  5  2  0  0  0  0
  6 24  1  0  0  0  0
  7  3  1  0  0  0  0
 10 16  1  0  0  0  0
 10 11  1  0  0  0  0
 11  2  1  0  0  0  0
 12 11  2  0  0  0  0
 12 18  1  0  0  0  0
 13 12  1  0  0  0  0
 14 15  1  0  0  0  0
 14 13  2  0  0  0  0
 15 10  2  0  0  0  0
 17 14  1  0  0  0  0
 18 21  1  0  0  0  0
 18 19  1  0  0  0  0
 20 18  1  0  0  0  0
 22 23  1  0  0  0  0
 24 26  1  0  0  0  0
 25 33  1  0  0  0  0
 25 34  1  0  0  0  0
 26 25  2  0  0  0  0
 27 28  2  0  0  0  0
 27 26  1  0  0  0  0
 28 32  1  0  0  0  0
 29 28  1  0  0  0  0
 29 30  1  0  0  0  0
 30 31  2  0  0  0  0
 32 31  1  0  0  0  0
 32 33  2  0  0  0  0
 33 38  1  0  0  0  0
 35 27  1  0  0  0  0
 36 29  1  0  0  0  0
 37 30  1  0  0  0  0
 38 44  2  0  0  0  0
 38 39  1  0  0  0  0
 39 40  2  0  0  0  0
 40 41  1  0  0  0  0
 42 40  1  0  0  0  0
 42 43  1  0  0  0  0
 44 42  1  0  0  0  0
M  END
>  <minimizedAffinity>
-6.0045166

$$$$

 OpenBabel03272509233D

 44 48  0  0  0  0  0  0  0  0999 V2000
   38.1520   25.3860   34.2710 C   0  0  0  0  0  0  0  0  0  0  0  0
   38.9180   25.2520   35.4120 C   0  0  0  0  0  0  0  0  0  0  0  0
   38.8910   26.3630   36.2560 C   0  0  0  0  0  0  0  0  0  0  0  0
   38.1450   27.5060   35.9510 C   0  0  0  0  0  0  0  0  0  0  0  0
   37.3890   27.5490   34.7520 C   0  0  0  0  0  0  0  0  0  0  0  0
   37.4060   26.4510   33.9030 C   0  0  0  0  0  0  0  0  0  0  0  0
   39.4550   26.3710   37.1820 H   0  0  0  0  0  0  0  0  0  0  0  0
   38.1290   28.3650   36.6110 H   0  0  0  0  0  0  0  0  0  0  0  0
   36.8170   28.4240   34.5200 H   0  0  0  0  0  0  0  0  0  0  0  0
   40.9910   23.9650   35.2940 C   0  0  0  0  0  0  0  0  0  0  0  0
   39.6820   24.0860   35.7280 C   0  0  0  0  0  0  0  0  0  0  0  0
   39.1510   23.0250   36.4830 C   0  0  0  0  0  0  0  0  0  0  0  0
   39.9340   21.9590   36.7410 N   0  0  0  0  0  0  0  0  0  0  0  0
   41.2190   21.8840   36.2910 C   0  0  0  0  0  0  0  0  0  0  0  0
   41.7350   22.8810   35.5750 N   0  0  0  0  0  0  0  0  0  0  0  0
   41.4670   24.7440   34.7060 H   0  0  0  0  0  0  0  0  0  0  0  0
   41.6660   20.9400   36.6120 H   0  0  0  0  0  0  0  0  0  0  0  0
   37.7440   23.0980   36.9800 C   0  0  0  0  0  0  0  0  0  0  0  0
   37.0240   22.7200   36.2180 H   0  0  0  0  0  0  0  0  0  0  0  0
   37.6770   22.5720   37.9340 H   0  0  0  0  0  0  0  0  0  0  0  0
   37.5310   24.1920   37.1590 H   0  0  0  0  0  0  0  0  0  0  0  0
   38.1130   24.3200   33.3560 O   0  0  0  0  0  0  0  0  0  0  0  0
   37.3840   23.6230   33.5210 H   0  0  0  0  0  0  0  0  0  0  0  0
   36.6540   26.5500   32.7570 O   0  0  0  0  0  0  0  0  0  0  0  0
   35.9980   28.7640   31.8160 C   0  0  0  0  0  0  0  0  0  0  0  0
   36.6890   27.5570   31.8400 C   0  0  0  0  0  0  0  0  0  0  0  0
   37.5630   27.2700   30.8050 C   0  0  0  0  0  0  0  0  0  0  0  0
   37.7530   28.1810   29.7450 C   0  0  0  0  0  0  0  0  0  0  0  0
   38.5020   28.1960   28.6320 N   0  0  0  0  0  0  0  0  0  0  0  0
   38.3020   29.3360   27.9460 C   0  0  0  0  0  0  0  0  0  0  0  0
   37.3970   30.0590   28.6530 N   0  0  0  0  0  0  0  0  0  0  0  0
   37.0430   29.3690   29.7650 C   0  0  0  0  0  0  0  0  0  0  0  0
   36.1780   29.6550   30.7880 C   0  0  0  0  0  0  0  0  0  0  0  0
   35.3430   28.8950   32.6640 H   0  0  0  0  0  0  0  0  0  0  0  0
   38.1760   26.3700   30.6800 H   0  0  0  0  0  0  0  0  0  0  0  0
   39.1590   27.4160   28.3380 H   0  0  0  0  0  0  0  0  0  0  0  0
   38.8070   29.5540   27.0190 H   0  0  0  0  0  0  0  0  0  0  0  0
   35.4220   30.9050   30.8220 C   0  0  0  0  0  0  0  0  0  0  0  0
   34.1150   30.9700   31.1720 N   0  0  0  0  0  0  0  0  0  0  0  0
   33.6920   32.2490   31.1100 C   0  0  0  0  0  0  0  0  0  0  0  0
   32.7100   32.6630   31.3220 H   0  0  0  0  0  0  0  0  0  0  0  0
   34.7920   32.9480   30.7090 N   0  0  0  0  0  0  0  0  0  0  0  0
   34.7320   34.0010   30.5790 H   0  0  0  0  0  0  0  0  0  0  0  0
   35.8300   32.1490   30.5350 N   0  0  0  0  0  0  0  0  0  0  0  0
  1  2  1  0  0  0  0
  2 11  1  0  0  0  0
  2  3  2  0  0  0  0
  3  7  1  0  0  0  0
  4  3  1  0  0  0  0
  4  8  1  0  0  0  0
  5  4  2  0  0  0  0
  6  1  2  0  0  0  0
  6  5  1  0  0  0  0
  9  5  1  0  0  0  0
 10 15  2  0  0  0  0
 10 11  1  0  0  0  0
 11 12  2  0  0  0  0
 12 13  1  0  0  0  0
 12 18  1  0  0  0  0
 14 17  1  0  0  0  0
 14 13  2  0  0  0  0
 15 14  1  0  0  0  0
 16 10  1  0  0  0  0
 18 21  1  0  0  0  0
 18 20  1  0  0  0  0
 19 18  1  0  0  0  0
 22 23  1  0  0  0  0
 22  1  1  0  0  0  0
 24  6  1  0  0  0  0
 25 26  1  0  0  0  0
 25 34  1  0  0  0  0
 26 24  1  0  0  0  0
 27 26  2  0  0  0  0
 28 32  2  0  0  0  0
 28 27  1  0  0  0  0
 29 28  1  0  0  0  0
 30 29  1  0  0  0  0
 30 31  2  0  0  0  0
 31 32  1  0  0  0  0
 32 33  1  0  0  0  0
 33 38  1  0  0  0  0
 33 25  2  0  0  0  0
 35 27  1  0  0  0  0
 36 29  1  0  0  0  0
 37 30  1  0  0  0  0
 38 39  1  0  0  0  0
 40 39  2  0  0  0  0
 40 41  1  0  0  0  0
 42 40  1  0  0  0  0
 43 42  1  0  0  0  0
 44 42  1  0  0  0  0
 44 38  2  0  0  0  0
M  END
>  <minimizedAffinity>
-5.94473076

$$$$
