
 OpenBabel03272505493D

 38 42  0  0  0  0  0  0  0  0999 V2000
   35.8740   29.3510   33.2260 C   0  0  0  0  0  0  0  0  0  0  0  0
   36.1750   29.7930   31.9820 C   0  0  0  0  0  0  0  0  0  0  0  0
   36.9780   29.0260   31.1420 C   0  0  0  0  0  0  0  0  0  0  0  0
   37.4510   27.8150   31.6160 C   0  0  0  0  0  0  0  0  0  0  0  0
   37.1380   27.3650   32.8970 C   0  0  0  0  0  0  0  0  0  0  0  0
   36.3540   28.1620   33.6560 N   0  0  0  0  0  0  0  0  0  0  0  0
   35.8050   30.7440   31.6090 H   0  0  0  0  0  0  0  0  0  0  0  0
   37.2550   29.3100   30.1560 H   0  0  0  0  0  0  0  0  0  0  0  0
   38.0820   27.1400   31.0470 H   0  0  0  0  0  0  0  0  0  0  0  0
   37.6090   26.0990   33.4420 C   0  0  0  0  0  0  0  0  0  0  0  0
   38.1220   24.9910   32.8170 N   0  0  0  0  0  0  0  0  0  0  0  0
   38.4160   24.0610   33.7710 C   0  0  0  0  0  0  0  0  0  0  0  0
   38.0880   24.5930   34.9690 N   0  0  0  0  0  0  0  0  0  0  0  0
   37.5980   25.8230   34.7890 N   0  0  0  0  0  0  0  0  0  0  0  0
   38.8310   23.0780   33.6540 H   0  0  0  0  0  0  0  0  0  0  0  0
   38.1970   24.0350   36.2730 C   0  0  0  0  0  0  0  0  0  0  0  0
   37.9470   24.8320   37.3490 N   0  0  0  0  0  0  0  0  0  0  0  0
   38.1160   24.0780   38.4610 C   0  0  0  0  0  0  0  0  0  0  0  0
   37.9950   24.4070   39.4920 H   0  0  0  0  0  0  0  0  0  0  0  0
   38.4690   22.8210   38.0750 N   0  0  0  0  0  0  0  0  0  0  0  0
   38.6750   21.9900   38.6770 H   0  0  0  0  0  0  0  0  0  0  0  0
   38.5120   22.8180   36.7370 N   0  0  0  0  0  0  0  0  0  0  0  0
   35.0030   30.1750   34.1480 C   0  0  0  0  0  0  0  0  0  0  0  0
   35.6530   30.9050   35.2660 C   0  0  0  0  0  0  0  0  0  0  0  0
   35.1400   31.6670   34.0690 C   0  0  0  0  0  0  0  0  0  0  0  0
   35.0810   31.0770   36.1900 H   0  0  0  0  0  0  0  0  0  0  0  0
   36.7650   30.8610   35.3070 H   0  0  0  0  0  0  0  0  0  0  0  0
   34.1960   32.2490   34.1520 H   0  0  0  0  0  0  0  0  0  0  0  0
   35.8330   32.1030   33.3460 H   0  0  0  0  0  0  0  0  0  0  0  0
   31.8120   28.9640   35.5640 C   0  0  0  0  0  0  0  0  0  0  0  0
   31.0930   28.6060   34.4120 C   0  0  0  0  0  0  0  0  0  0  0  0
   31.7060   28.7800   33.1580 C   0  0  0  0  0  0  0  0  0  0  0  0
   32.9620   29.2860   33.1100 N   0  0  0  0  0  0  0  0  0  0  0  0
   33.6410   29.6290   34.2520 C   0  0  0  0  0  0  0  0  0  0  0  0
   33.0640   29.4660   35.4470 N   0  0  0  0  0  0  0  0  0  0  0  0
   31.3280   28.8260   36.5280 H   0  0  0  0  0  0  0  0  0  0  0  0
   30.1040   28.2050   34.4130 H   0  0  0  0  0  0  0  0  0  0  0  0
   31.2690   28.5480   32.2060 H   0  0  0  0  0  0  0  0  0  0  0  0
  1  6  1  0  0  0  0
  1 23  1  0  0  0  0
  2  1  2  0  0  0  0
  3  4  2  0  0  0  0
  3  2  1  0  0  0  0
  4  5  1  0  0  0  0
  5 10  1  0  0  0  0
  5  6  2  0  0  0  0
  7  2  1  0  0  0  0
  8  3  1  0  0  0  0
  9  4  1  0  0  0  0
 10 14  2  0  0  0  0
 11 10  1  0  0  0  0
 11 12  2  0  0  0  0
 12 13  1  0  0  0  0
 13 16  1  0  0  0  0
 14 13  1  0  0  0  0
 15 12  1  0  0  0  0
 16 22  2  0  0  0  0
 16 17  1  0  0  0  0
 17 18  2  0  0  0  0
 18 19  1  0  0  0  0
 20 18  1  0  0  0  0
 20 21  1  0  0  0  0
 22 20  1  0  0  0  0
 23 34  1  0  0  0  0
 23 24  1  0  0  0  0
 24 27  1  0  0  0  0
 24 26  1  0  0  0  0
 25 23  1  0  0  0  0
 25 28  1  0  0  0  0
 25 24  1  0  0  0  0
 29 25  1  0  0  0  0
 30 36  1  0  0  0  0
 31 37  1  0  0  0  0
 31 30  2  0  0  0  0
 32 31  1  0  0  0  0
 33 32  2  0  0  0  0
 33 34  1  0  0  0  0
 34 35  2  0  0  0  0
 35 30  1  0  0  0  0
 38 32  1  0  0  0  0
M  END
>  <minimizedAffinity>
-6.36368895

$$$$

 OpenBabel03272505493D

 38 42  0  0  0  0  0  0  0  0999 V2000
   35.0540   29.5250   32.8720 C   0  0  0  0  0  0  0  0  0  0  0  0
   35.4580   29.5080   31.5790 C   0  0  0  0  0  0  0  0  0  0  0  0
   36.5500   28.7340   31.1970 C   0  0  0  0  0  0  0  0  0  0  0  0
   37.1990   27.9940   32.1690 C   0  0  0  0  0  0  0  0  0  0  0  0
   36.7800   28.0150   33.4990 C   0  0  0  0  0  0  0  0  0  0  0  0
   35.7140   28.7880   33.7960 N   0  0  0  0  0  0  0  0  0  0  0  0
   34.9480   30.0890   30.8160 H   0  0  0  0  0  0  0  0  0  0  0  0
   36.9210   28.6730   30.2030 H   0  0  0  0  0  0  0  0  0  0  0  0
   38.0590   27.3580   31.9820 H   0  0  0  0  0  0  0  0  0  0  0  0
   37.4280   27.2550   34.5580 C   0  0  0  0  0  0  0  0  0  0  0  0
   38.0130   27.6690   35.7290 N   0  0  0  0  0  0  0  0  0  0  0  0
   38.4820   26.5680   36.3840 C   0  0  0  0  0  0  0  0  0  0  0  0
   38.1870   25.4890   35.6240 N   0  0  0  0  0  0  0  0  0  0  0  0
   37.5520   25.8860   34.5180 N   0  0  0  0  0  0  0  0  0  0  0  0
   38.9930   26.5070   37.3260 H   0  0  0  0  0  0  0  0  0  0  0  0
   38.4590   24.1120   35.8560 C   0  0  0  0  0  0  0  0  0  0  0  0
   37.9170   23.1880   35.0140 N   0  0  0  0  0  0  0  0  0  0  0  0
   38.3170   21.9660   35.4420 C   0  0  0  0  0  0  0  0  0  0  0  0
   38.0630   21.0080   34.9920 H   0  0  0  0  0  0  0  0  0  0  0  0
   39.1000   22.1340   36.5430 N   0  0  0  0  0  0  0  0  0  0  0  0
   39.5720   21.4010   37.1210 H   0  0  0  0  0  0  0  0  0  0  0  0
   39.1710   23.4500   36.7770 N   0  0  0  0  0  0  0  0  0  0  0  0
   33.8700   30.3610   33.3000 C   0  0  0  0  0  0  0  0  0  0  0  0
   32.9760   30.9090   32.2480 C   0  0  0  0  0  0  0  0  0  0  0  0
   32.5050   29.7650   33.1120 C   0  0  0  0  0  0  0  0  0  0  0  0
   32.4580   31.8600   32.4360 H   0  0  0  0  0  0  0  0  0  0  0  0
   33.1950   30.5990   31.2000 H   0  0  0  0  0  0  0  0  0  0  0  0
   31.7720   29.9580   33.9260 H   0  0  0  0  0  0  0  0  0  0  0  0
   32.4150   28.7570   32.7020 H   0  0  0  0  0  0  0  0  0  0  0  0
   35.3740   32.6200   35.8080 C   0  0  0  0  0  0  0  0  0  0  0  0
   34.5750   32.3830   36.9380 C   0  0  0  0  0  0  0  0  0  0  0  0
   33.5270   31.4500   36.8350 C   0  0  0  0  0  0  0  0  0  0  0  0
   33.3300   30.8200   35.6520 N   0  0  0  0  0  0  0  0  0  0  0  0
   34.1250   31.0720   34.5630 C   0  0  0  0  0  0  0  0  0  0  0  0
   35.1230   31.9570   34.6550 N   0  0  0  0  0  0  0  0  0  0  0  0
   36.1810   33.3430   35.8990 H   0  0  0  0  0  0  0  0  0  0  0  0
   34.7030   32.8610   37.8840 H   0  0  0  0  0  0  0  0  0  0  0  0
   32.8460   31.1780   37.6180 H   0  0  0  0  0  0  0  0  0  0  0  0
  1 23  1  0  0  0  0
  1  6  1  0  0  0  0
  2  1  2  0  0  0  0
  3  2  1  0  0  0  0
  3  4  2  0  0  0  0
  4  5  1  0  0  0  0
  5  6  2  0  0  0  0
  5 10  1  0  0  0  0
  7  2  1  0  0  0  0
  8  3  1  0  0  0  0
  9  4  1  0  0  0  0
 10 11  1  0  0  0  0
 11 12  2  0  0  0  0
 12 15  1  0  0  0  0
 13 16  1  0  0  0  0
 13 12  1  0  0  0  0
 14 10  2  0  0  0  0
 14 13  1  0  0  0  0
 16 22  2  0  0  0  0
 17 18  2  0  0  0  0
 17 16  1  0  0  0  0
 18 20  1  0  0  0  0
 19 18  1  0  0  0  0
 20 22  1  0  0  0  0
 20 21  1  0  0  0  0
 23 34  1  0  0  0  0
 24 26  1  0  0  0  0
 24 25  1  0  0  0  0
 24 23  1  0  0  0  0
 25 23  1  0  0  0  0
 25 28  1  0  0  0  0
 27 24  1  0  0  0  0
 29 25  1  0  0  0  0
 30 36  1  0  0  0  0
 30 31  1  0  0  0  0
 31 37  1  0  0  0  0
 32 31  2  0  0  0  0
 32 38  1  0  0  0  0
 33 32  1  0  0  0  0
 34 35  1  0  0  0  0
 34 33  2  0  0  0  0
 35 30  2  0  0  0  0
M  END
>  <minimizedAffinity>
-5.98623657

$$$$

 OpenBabel03272505493D

 38 42  0  0  0  0  0  0  0  0999 V2000
   38.8520   24.5560   35.7080 C   0  0  0  0  0  0  0  0  0  0  0  0
   40.1420   24.6330   35.3020 C   0  0  0  0  0  0  0  0  0  0  0  0
   40.5480   25.6600   34.4540 C   0  0  0  0  0  0  0  0  0  0  0  0
   39.6030   26.5840   34.0460 C   0  0  0  0  0  0  0  0  0  0  0  0
   38.2770   26.5000   34.4670 C   0  0  0  0  0  0  0  0  0  0  0  0
   37.9550   25.4780   35.2900 N   0  0  0  0  0  0  0  0  0  0  0  0
   40.8840   23.9070   35.6200 H   0  0  0  0  0  0  0  0  0  0  0  0
   41.5410   25.7810   34.0940 H   0  0  0  0  0  0  0  0  0  0  0  0
   39.8100   27.4220   33.3880 H   0  0  0  0  0  0  0  0  0  0  0  0
   37.2450   27.4470   34.0690 C   0  0  0  0  0  0  0  0  0  0  0  0
   36.3850   27.4370   32.9990 N   0  0  0  0  0  0  0  0  0  0  0  0
   35.6070   28.5550   33.0680 C   0  0  0  0  0  0  0  0  0  0  0  0
   35.9840   29.2440   34.1680 N   0  0  0  0  0  0  0  0  0  0  0  0
   36.9720   28.5900   34.7840 N   0  0  0  0  0  0  0  0  0  0  0  0
   34.8260   28.8790   32.4050 H   0  0  0  0  0  0  0  0  0  0  0  0
   35.4870   30.4730   34.6860 C   0  0  0  0  0  0  0  0  0  0  0  0
   35.9230   30.8900   35.9080 N   0  0  0  0  0  0  0  0  0  0  0  0
   35.3120   32.0690   36.1750 C   0  0  0  0  0  0  0  0  0  0  0  0
   35.4370   32.6760   37.0700 H   0  0  0  0  0  0  0  0  0  0  0  0
   34.5030   32.3790   35.1240 N   0  0  0  0  0  0  0  0  0  0  0  0
   33.8890   33.2170   35.0030 H   0  0  0  0  0  0  0  0  0  0  0  0
   34.6260   31.3910   34.2290 N   0  0  0  0  0  0  0  0  0  0  0  0
   38.3990   23.4460   36.6290 C   0  0  0  0  0  0  0  0  0  0  0  0
   39.3010   23.0340   37.7350 C   0  0  0  0  0  0  0  0  0  0  0  0
   38.0520   23.8240   38.0400 C   0  0  0  0  0  0  0  0  0  0  0  0
   39.2720   21.9910   38.0820 H   0  0  0  0  0  0  0  0  0  0  0  0
   40.2330   23.6310   37.8630 H   0  0  0  0  0  0  0  0  0  0  0  0
   37.1700   23.3080   38.4810 H   0  0  0  0  0  0  0  0  0  0  0  0
   38.1140   24.8710   38.3430 H   0  0  0  0  0  0  0  0  0  0  0  0
   35.6920   21.0080   36.0140 C   0  0  0  0  0  0  0  0  0  0  0  0
   35.8520   20.7250   34.6470 C   0  0  0  0  0  0  0  0  0  0  0  0
   36.8860   21.3700   33.9460 C   0  0  0  0  0  0  0  0  0  0  0  0
   37.6850   22.2380   34.6140 N   0  0  0  0  0  0  0  0  0  0  0  0
   37.5050   22.4960   35.9490 C   0  0  0  0  0  0  0  0  0  0  0  0
   36.5230   21.8860   36.6210 N   0  0  0  0  0  0  0  0  0  0  0  0
   34.8880   20.5040   36.5460 H   0  0  0  0  0  0  0  0  0  0  0  0
   35.2420   20.0490   34.0910 H   0  0  0  0  0  0  0  0  0  0  0  0
   37.1160   21.2450   32.9050 H   0  0  0  0  0  0  0  0  0  0  0  0
  1 23  1  0  0  0  0
  2  7  1  0  0  0  0
  2  1  1  0  0  0  0
  3  2  2  0  0  0  0
  4  3  1  0  0  0  0
  4  5  2  0  0  0  0
  5  6  1  0  0  0  0
  6  1  2  0  0  0  0
  8  3  1  0  0  0  0
  9  4  1  0  0  0  0
 10  5  1  0  0  0  0
 10 14  2  0  0  0  0
 11 12  2  0  0  0  0
 11 10  1  0  0  0  0
 12 13  1  0  0  0  0
 13 16  1  0  0  0  0
 13 14  1  0  0  0  0
 15 12  1  0  0  0  0
 16 17  1  0  0  0  0
 17 18  2  0  0  0  0
 18 19  1  0  0  0  0
 20 18  1  0  0  0  0
 21 20  1  0  0  0  0
 22 16  2  0  0  0  0
 22 20  1  0  0  0  0
 23 24  1  0  0  0  0
 23 25  1  0  0  0  0
 24 27  1  0  0  0  0
 24 25  1  0  0  0  0
 24 26  1  0  0  0  0
 25 29  1  0  0  0  0
 25 28  1  0  0  0  0
 30 36  1  0  0  0  0
 30 35  1  0  0  0  0
 31 30  2  0  0  0  0
 32 33  2  0  0  0  0
 32 31  1  0  0  0  0
 33 34  1  0  0  0  0
 34 35  2  0  0  0  0
 34 23  1  0  0  0  0
 37 31  1  0  0  0  0
 38 32  1  0  0  0  0
M  END
>  <minimizedAffinity>
-5.97915649

$$$$

 OpenBabel03272505493D

 38 42  0  0  0  0  0  0  0  0999 V2000
   38.6250   24.6160   35.5200 C   0  0  0  0  0  0  0  0  0  0  0  0
   38.3240   25.6260   36.3720 C   0  0  0  0  0  0  0  0  0  0  0  0
   38.1720   26.9240   35.8920 C   0  0  0  0  0  0  0  0  0  0  0  0
   38.3370   27.1440   34.5360 C   0  0  0  0  0  0  0  0  0  0  0  0
   38.6470   26.1010   33.6640 C   0  0  0  0  0  0  0  0  0  0  0  0
   38.7790   24.8680   34.2000 N   0  0  0  0  0  0  0  0  0  0  0  0
   38.1950   25.4540   37.4360 H   0  0  0  0  0  0  0  0  0  0  0  0
   37.9380   27.7620   36.5010 H   0  0  0  0  0  0  0  0  0  0  0  0
   38.2430   28.1130   34.0580 H   0  0  0  0  0  0  0  0  0  0  0  0
   38.8300   26.2800   32.2310 C   0  0  0  0  0  0  0  0  0  0  0  0
   39.3840   25.4500   31.2880 N   0  0  0  0  0  0  0  0  0  0  0  0
   39.3220   26.0770   30.0780 C   0  0  0  0  0  0  0  0  0  0  0  0
   38.7360   27.2790   30.2760 N   0  0  0  0  0  0  0  0  0  0  0  0
   38.4330   27.4180   31.5700 N   0  0  0  0  0  0  0  0  0  0  0  0
   39.6560   25.7320   29.1180 H   0  0  0  0  0  0  0  0  0  0  0  0
   38.4390   28.3100   29.3420 C   0  0  0  0  0  0  0  0  0  0  0  0
   37.6940   29.3740   29.7560 N   0  0  0  0  0  0  0  0  0  0  0  0
   37.5500   30.2060   28.6970 C   0  0  0  0  0  0  0  0  0  0  0  0
   37.0100   31.1510   28.6840 H   0  0  0  0  0  0  0  0  0  0  0  0
   38.2020   29.6600   27.6330 N   0  0  0  0  0  0  0  0  0  0  0  0
   38.2910   30.0390   26.6630 H   0  0  0  0  0  0  0  0  0  0  0  0
   38.7350   28.5050   28.0500 N   0  0  0  0  0  0  0  0  0  0  0  0
   38.7920   23.2020   36.0280 C   0  0  0  0  0  0  0  0  0  0  0  0
   40.1660   22.7070   36.2990 C   0  0  0  0  0  0  0  0  0  0  0  0
   39.2450   23.0320   37.4490 C   0  0  0  0  0  0  0  0  0  0  0  0
   40.3770   21.6350   36.1780 H   0  0  0  0  0  0  0  0  0  0  0  0
   40.9910   23.4470   36.1820 H   0  0  0  0  0  0  0  0  0  0  0  0
   38.7660   22.2060   38.0190 H   0  0  0  0  0  0  0  0  0  0  0  0
   39.4130   23.9180   38.0650 H   0  0  0  0  0  0  0  0  0  0  0  0
   36.6730   21.1360   33.8150 C   0  0  0  0  0  0  0  0  0  0  0  0
   35.6940   20.6590   34.7020 C   0  0  0  0  0  0  0  0  0  0  0  0
   35.7650   21.0490   36.0520 C   0  0  0  0  0  0  0  0  0  0  0  0
   36.7730   21.8660   36.4430 N   0  0  0  0  0  0  0  0  0  0  0  0
   37.7170   22.3160   35.5550 C   0  0  0  0  0  0  0  0  0  0  0  0
   37.6550   21.9490   34.2700 N   0  0  0  0  0  0  0  0  0  0  0  0
   36.6080   20.8280   32.7750 H   0  0  0  0  0  0  0  0  0  0  0  0
   34.8880   20.0160   34.4290 H   0  0  0  0  0  0  0  0  0  0  0  0
   35.0840   20.7580   36.8290 H   0  0  0  0  0  0  0  0  0  0  0  0
  1 23  1  0  0  0  0
  1  2  1  0  0  0  0
  2  7  1  0  0  0  0
  3  2  2  0  0  0  0
  3  8  1  0  0  0  0
  4  3  1  0  0  0  0
  5  6  1  0  0  0  0
  5  4  2  0  0  0  0
  6  1  2  0  0  0  0
  9  4  1  0  0  0  0
 10  5  1  0  0  0  0
 11 10  1  0  0  0  0
 12 13  1  0  0  0  0
 12 11  2  0  0  0  0
 13 14  1  0  0  0  0
 14 10  2  0  0  0  0
 15 12  1  0  0  0  0
 16 17  1  0  0  0  0
 16 13  1  0  0  0  0
 18 17  2  0  0  0  0
 19 18  1  0  0  0  0
 20 22  1  0  0  0  0
 20 18  1  0  0  0  0
 21 20  1  0  0  0  0
 22 16  2  0  0  0  0
 23 24  1  0  0  0  0
 23 25  1  0  0  0  0
 24 25  1  0  0  0  0
 25 28  1  0  0  0  0
 25 29  1  0  0  0  0
 26 24  1  0  0  0  0
 27 24  1  0  0  0  0
 30 35  2  0  0  0  0
 30 31  1  0  0  0  0
 31 32  2  0  0  0  0
 32 33  1  0  0  0  0
 32 38  1  0  0  0  0
 34 23  1  0  0  0  0
 34 33  2  0  0  0  0
 35 34  1  0  0  0  0
 36 30  1  0  0  0  0
 37 31  1  0  0  0  0
M  END
>  <minimizedAffinity>
-5.97285414

$$$$

 OpenBabel03272505493D

 38 42  0  0  0  0  0  0  0  0999 V2000
   38.9390   24.4590   35.7430 C   0  0  0  0  0  0  0  0  0  0  0  0
   40.2320   24.4340   35.3380 C   0  0  0  0  0  0  0  0  0  0  0  0
   40.7040   25.3920   34.4450 C   0  0  0  0  0  0  0  0  0  0  0  0
   39.8200   26.3550   33.9920 C   0  0  0  0  0  0  0  0  0  0  0  0
   38.4910   26.3760   34.4120 C   0  0  0  0  0  0  0  0  0  0  0  0
   38.1040   25.4160   35.2790 N   0  0  0  0  0  0  0  0  0  0  0  0
   40.9260   23.6780   35.6930 H   0  0  0  0  0  0  0  0  0  0  0  0
   41.7020   25.4330   34.0840 H   0  0  0  0  0  0  0  0  0  0  0  0
   40.0810   27.1460   33.2970 H   0  0  0  0  0  0  0  0  0  0  0  0
   37.5230   27.3680   33.9660 C   0  0  0  0  0  0  0  0  0  0  0  0
   36.4030   27.8670   34.5840 N   0  0  0  0  0  0  0  0  0  0  0  0
   35.8270   28.7800   33.7490 C   0  0  0  0  0  0  0  0  0  0  0  0
   36.5860   28.8420   32.6320 N   0  0  0  0  0  0  0  0  0  0  0  0
   37.6130   27.9950   32.7460 N   0  0  0  0  0  0  0  0  0  0  0  0
   34.9420   29.3700   33.8970 H   0  0  0  0  0  0  0  0  0  0  0  0
   36.4190   29.6350   31.4620 C   0  0  0  0  0  0  0  0  0  0  0  0
   37.4120   29.6390   30.5290 N   0  0  0  0  0  0  0  0  0  0  0  0
   37.0210   30.4600   29.5250 C   0  0  0  0  0  0  0  0  0  0  0  0
   37.5800   30.6880   28.6190 H   0  0  0  0  0  0  0  0  0  0  0  0
   35.7930   30.9610   29.8360 N   0  0  0  0  0  0  0  0  0  0  0  0
   35.2040   31.6240   29.2820 H   0  0  0  0  0  0  0  0  0  0  0  0
   35.4480   30.4450   31.0220 N   0  0  0  0  0  0  0  0  0  0  0  0
   38.4150   23.4240   36.7120 C   0  0  0  0  0  0  0  0  0  0  0  0
   39.2730   23.0330   37.8600 C   0  0  0  0  0  0  0  0  0  0  0  0
   38.0570   23.8950   38.0910 C   0  0  0  0  0  0  0  0  0  0  0  0
   39.1880   22.0130   38.2630 H   0  0  0  0  0  0  0  0  0  0  0  0
   40.2300   23.5930   37.9770 H   0  0  0  0  0  0  0  0  0  0  0  0
   37.1430   23.4460   38.5390 H   0  0  0  0  0  0  0  0  0  0  0  0
   38.1620   24.9540   38.3390 H   0  0  0  0  0  0  0  0  0  0  0  0
   35.6250   21.0610   36.1750 C   0  0  0  0  0  0  0  0  0  0  0  0
   35.7840   20.7170   34.8230 C   0  0  0  0  0  0  0  0  0  0  0  0
   36.8460   21.2950   34.1040 C   0  0  0  0  0  0  0  0  0  0  0  0
   37.6710   22.1600   34.7420 N   0  0  0  0  0  0  0  0  0  0  0  0
   37.4920   22.4800   36.0640 C   0  0  0  0  0  0  0  0  0  0  0  0
   36.4840   21.9330   36.7530 N   0  0  0  0  0  0  0  0  0  0  0  0
   34.8010   20.6080   36.7210 H   0  0  0  0  0  0  0  0  0  0  0  0
   35.1540   20.0400   34.2900 H   0  0  0  0  0  0  0  0  0  0  0  0
   37.0780   21.1180   33.0710 H   0  0  0  0  0  0  0  0  0  0  0  0
  1 23  1  0  0  0  0
  2  7  1  0  0  0  0
  2  1  1  0  0  0  0
  3  2  2  0  0  0  0
  4  5  2  0  0  0  0
  4  3  1  0  0  0  0
  5  6  1  0  0  0  0
  6  1  2  0  0  0  0
  8  3  1  0  0  0  0
  9  4  1  0  0  0  0
 10  5  1  0  0  0  0
 10 11  1  0  0  0  0
 12 15  1  0  0  0  0
 12 11  2  0  0  0  0
 13 14  1  0  0  0  0
 13 12  1  0  0  0  0
 14 10  2  0  0  0  0
 16 13  1  0  0  0  0
 17 16  1  0  0  0  0
 18 20  1  0  0  0  0
 18 17  2  0  0  0  0
 19 18  1  0  0  0  0
 20 22  1  0  0  0  0
 21 20  1  0  0  0  0
 22 16  2  0  0  0  0
 23 24  1  0  0  0  0
 23 25  1  0  0  0  0
 24 27  1  0  0  0  0
 24 25  1  0  0  0  0
 24 26  1  0  0  0  0
 25 29  1  0  0  0  0
 25 28  1  0  0  0  0
 30 36  1  0  0  0  0
 30 35  1  0  0  0  0
 31 30  2  0  0  0  0
 32 33  2  0  0  0  0
 32 31  1  0  0  0  0
 33 34  1  0  0  0  0
 34 23  1  0  0  0  0
 34 35  2  0  0  0  0
 37 31  1  0  0  0  0
 38 32  1  0  0  0  0
M  END
>  <minimizedAffinity>
-5.93251944

$$$$

 OpenBabel03272505493D

 38 42  0  0  0  0  0  0  0  0999 V2000
   37.0690   26.0440   33.0110 C   0  0  0  0  0  0  0  0  0  0  0  0
   36.8380   27.3420   33.3230 C   0  0  0  0  0  0  0  0  0  0  0  0
   37.1250   27.8150   34.6010 C   0  0  0  0  0  0  0  0  0  0  0  0
   37.6450   26.9280   35.5260 C   0  0  0  0  0  0  0  0  0  0  0  0
   37.8800   25.5930   35.2000 C   0  0  0  0  0  0  0  0  0  0  0  0
   37.5780   25.2050   33.9420 N   0  0  0  0  0  0  0  0  0  0  0  0
   36.4300   28.0380   32.5980 H   0  0  0  0  0  0  0  0  0  0  0  0
   36.9690   28.8180   34.9150 H   0  0  0  0  0  0  0  0  0  0  0  0
   37.9030   27.1900   36.5470 H   0  0  0  0  0  0  0  0  0  0  0  0
   38.4260   24.6210   36.1360 C   0  0  0  0  0  0  0  0  0  0  0  0
   38.0560   24.3090   37.4210 N   0  0  0  0  0  0  0  0  0  0  0  0
   38.8840   23.3240   37.8750 C   0  0  0  0  0  0  0  0  0  0  0  0
   39.7510   23.0340   36.8800 N   0  0  0  0  0  0  0  0  0  0  0  0
   39.4890   23.8080   35.8230 N   0  0  0  0  0  0  0  0  0  0  0  0
   38.8920   22.8340   38.8300 H   0  0  0  0  0  0  0  0  0  0  0  0
   40.8110   22.0850   36.8460 C   0  0  0  0  0  0  0  0  0  0  0  0
   41.4500   21.8620   35.6630 N   0  0  0  0  0  0  0  0  0  0  0  0
   42.4050   20.9270   35.8890 C   0  0  0  0  0  0  0  0  0  0  0  0
   43.0990   20.5200   35.1550 H   0  0  0  0  0  0  0  0  0  0  0  0
   42.3560   20.5750   37.2030 N   0  0  0  0  0  0  0  0  0  0  0  0
   42.9510   19.8810   37.7110 H   0  0  0  0  0  0  0  0  0  0  0  0
   41.3760   21.2920   37.7660 N   0  0  0  0  0  0  0  0  0  0  0  0
   36.7620   25.5170   31.6280 C   0  0  0  0  0  0  0  0  0  0  0  0
   35.6370   24.5590   31.4700 C   0  0  0  0  0  0  0  0  0  0  0  0
   35.4880   25.9800   30.9840 C   0  0  0  0  0  0  0  0  0  0  0  0
   35.6870   23.8100   30.6680 H   0  0  0  0  0  0  0  0  0  0  0  0
   35.0340   24.3490   32.3840 H   0  0  0  0  0  0  0  0  0  0  0  0
   35.5420   26.1950   29.8940 H   0  0  0  0  0  0  0  0  0  0  0  0
   34.8470   26.6870   31.5150 H   0  0  0  0  0  0  0  0  0  0  0  0
   39.6080   24.2190   29.6600 C   0  0  0  0  0  0  0  0  0  0  0  0
   40.2090   25.3990   29.1930 C   0  0  0  0  0  0  0  0  0  0  0  0
   39.6370   26.6320   29.5560 C   0  0  0  0  0  0  0  0  0  0  0  0
   38.5300   26.6320   30.3390 N   0  0  0  0  0  0  0  0  0  0  0  0
   37.9630   25.4640   30.7800 C   0  0  0  0  0  0  0  0  0  0  0  0
   38.5030   24.2890   30.4380 N   0  0  0  0  0  0  0  0  0  0  0  0
   40.0580   23.2720   29.3730 H   0  0  0  0  0  0  0  0  0  0  0  0
   41.0790   25.4350   28.5770 H   0  0  0  0  0  0  0  0  0  0  0  0
   39.9940   27.6020   29.2690 H   0  0  0  0  0  0  0  0  0  0  0  0
  1  2  2  0  0  0  0
  1  6  1  0  0  0  0
  2  3  1  0  0  0  0
  3  8  1  0  0  0  0
  3  4  2  0  0  0  0
  4  9  1  0  0  0  0
  5  4  1  0  0  0  0
  5 10  1  0  0  0  0
  6  5  2  0  0  0  0
  7  2  1  0  0  0  0
 10 11  1  0  0  0  0
 11 12  2  0  0  0  0
 12 15  1  0  0  0  0
 13 12  1  0  0  0  0
 14 10  2  0  0  0  0
 14 13  1  0  0  0  0
 16 13  1  0  0  0  0
 16 22  2  0  0  0  0
 17 18  2  0  0  0  0
 17 16  1  0  0  0  0
 18 20  1  0  0  0  0
 19 18  1  0  0  0  0
 20 21  1  0  0  0  0
 20 22  1  0  0  0  0
 23  1  1  0  0  0  0
 24 23  1  0  0  0  0
 24 27  1  0  0  0  0
 25 24  1  0  0  0  0
 25 29  1  0  0  0  0
 25 23  1  0  0  0  0
 26 24  1  0  0  0  0
 28 25  1  0  0  0  0
 30 35  1  0  0  0  0
 31 32  1  0  0  0  0
 31 30  2  0  0  0  0
 32 33  2  0  0  0  0
 33 34  1  0  0  0  0
 34 23  1  0  0  0  0
 35 34  2  0  0  0  0
 36 30  1  0  0  0  0
 37 31  1  0  0  0  0
 38 32  1  0  0  0  0
M  END
>  <minimizedAffinity>
-5.90340233

$$$$

 OpenBabel03272505493D

 38 42  0  0  0  0  0  0  0  0999 V2000
   37.2940   26.3880   33.1660 C   0  0  0  0  0  0  0  0  0  0  0  0
   37.0340   27.6410   33.6090 C   0  0  0  0  0  0  0  0  0  0  0  0
   37.2730   27.9770   34.9390 C   0  0  0  0  0  0  0  0  0  0  0  0
   37.7780   27.0020   35.7800 C   0  0  0  0  0  0  0  0  0  0  0  0
   38.0450   25.7130   35.3190 C   0  0  0  0  0  0  0  0  0  0  0  0
   37.7880   25.4590   34.0170 N   0  0  0  0  0  0  0  0  0  0  0  0
   36.6360   28.4070   32.9500 H   0  0  0  0  0  0  0  0  0  0  0  0
   37.0910   28.9380   35.3550 H   0  0  0  0  0  0  0  0  0  0  0  0
   38.0000   27.1540   36.8300 H   0  0  0  0  0  0  0  0  0  0  0  0
   38.5770   24.6520   36.1620 C   0  0  0  0  0  0  0  0  0  0  0  0
   38.1560   24.1800   37.3800 N   0  0  0  0  0  0  0  0  0  0  0  0
   38.9940   23.1710   37.7580 C   0  0  0  0  0  0  0  0  0  0  0  0
   39.9170   23.0250   36.7830 N   0  0  0  0  0  0  0  0  0  0  0  0
   39.6810   23.9110   35.8110 N   0  0  0  0  0  0  0  0  0  0  0  0
   38.9720   22.5710   38.6490 H   0  0  0  0  0  0  0  0  0  0  0  0
   41.0080   22.1160   36.6920 C   0  0  0  0  0  0  0  0  0  0  0  0
   41.7110   22.0520   35.5270 N   0  0  0  0  0  0  0  0  0  0  0  0
   42.6840   21.1250   35.6900 C   0  0  0  0  0  0  0  0  0  0  0  0
   43.4260   20.8260   34.9510 H   0  0  0  0  0  0  0  0  0  0  0  0
   42.5840   20.6170   36.9500 N   0  0  0  0  0  0  0  0  0  0  0  0
   43.1770   19.8850   37.4040 H   0  0  0  0  0  0  0  0  0  0  0  0
   41.5540   21.2360   37.5410 N   0  0  0  0  0  0  0  0  0  0  0  0
   37.0390   26.0100   31.7250 C   0  0  0  0  0  0  0  0  0  0  0  0
   36.3060   26.9720   30.8620 C   0  0  0  0  0  0  0  0  0  0  0  0
   37.7890   26.7730   30.6720 C   0  0  0  0  0  0  0  0  0  0  0  0
   35.6890   26.5830   30.0400 H   0  0  0  0  0  0  0  0  0  0  0  0
   36.0560   27.9570   31.3200 H   0  0  0  0  0  0  0  0  0  0  0  0
   38.1570   26.1790   29.8070 H   0  0  0  0  0  0  0  0  0  0  0  0
   38.5000   27.5450   30.9770 H   0  0  0  0  0  0  0  0  0  0  0  0
   35.6360   22.5950   31.5870 C   0  0  0  0  0  0  0  0  0  0  0  0
   36.7520   21.8300   31.2110 C   0  0  0  0  0  0  0  0  0  0  0  0
   37.9790   22.4890   31.0080 C   0  0  0  0  0  0  0  0  0  0  0  0
   38.0340   23.8310   31.1820 N   0  0  0  0  0  0  0  0  0  0  0  0
   36.9280   24.5540   31.5480 C   0  0  0  0  0  0  0  0  0  0  0  0
   35.7590   23.9340   31.7430 N   0  0  0  0  0  0  0  0  0  0  0  0
   34.6930   22.0750   31.7400 H   0  0  0  0  0  0  0  0  0  0  0  0
   36.7440   20.7730   31.0650 H   0  0  0  0  0  0  0  0  0  0  0  0
   38.9030   22.0250   30.7200 H   0  0  0  0  0  0  0  0  0  0  0  0
  1  2  2  0  0  0  0
  1  6  1  0  0  0  0
  2  3  1  0  0  0  0
  3  8  1  0  0  0  0
  3  4  2  0  0  0  0
  4  9  1  0  0  0  0
  5  4  1  0  0  0  0
  5 10  1  0  0  0  0
  6  5  2  0  0  0  0
  7  2  1  0  0  0  0
 10 11  1  0  0  0  0
 11 12  2  0  0  0  0
 12 15  1  0  0  0  0
 13 12  1  0  0  0  0
 14 10  2  0  0  0  0
 14 13  1  0  0  0  0
 16 13  1  0  0  0  0
 16 22  2  0  0  0  0
 17 18  2  0  0  0  0
 17 16  1  0  0  0  0
 18 20  1  0  0  0  0
 19 18  1  0  0  0  0
 20 21  1  0  0  0  0
 20 22  1  0  0  0  0
 23  1  1  0  0  0  0
 24 27  1  0  0  0  0
 24 23  1  0  0  0  0
 25 24  1  0  0  0  0
 25 29  1  0  0  0  0
 25 23  1  0  0  0  0
 26 24  1  0  0  0  0
 28 25  1  0  0  0  0
 30 36  1  0  0  0  0
 30 35  1  0  0  0  0
 31 30  2  0  0  0  0
 32 33  2  0  0  0  0
 32 31  1  0  0  0  0
 33 34  1  0  0  0  0
 34 23  1  0  0  0  0
 34 35  2  0  0  0  0
 37 31  1  0  0  0  0
 38 32  1  0  0  0  0
M  END
>  <minimizedAffinity>
-5.85310268

$$$$

 OpenBabel03272505493D

 38 42  0  0  0  0  0  0  0  0999 V2000
   35.8820   29.1910   32.2240 C   0  0  0  0  0  0  0  0  0  0  0  0
   36.4510   29.6400   31.0800 C   0  0  0  0  0  0  0  0  0  0  0  0
   37.4230   28.8790   30.4360 C   0  0  0  0  0  0  0  0  0  0  0  0
   37.7820   27.6670   30.9970 C   0  0  0  0  0  0  0  0  0  0  0  0
   37.1930   27.2090   32.1750 C   0  0  0  0  0  0  0  0  0  0  0  0
   36.2580   28.0000   32.7440 N   0  0  0  0  0  0  0  0  0  0  0  0
   36.1700   30.5920   30.6390 H   0  0  0  0  0  0  0  0  0  0  0  0
   37.9120   29.1690   29.5380 H   0  0  0  0  0  0  0  0  0  0  0  0
   38.5260   26.9960   30.5810 H   0  0  0  0  0  0  0  0  0  0  0  0
   37.5350   25.9410   32.8050 C   0  0  0  0  0  0  0  0  0  0  0  0
   37.8710   24.7290   32.2540 N   0  0  0  0  0  0  0  0  0  0  0  0
   38.1020   23.8490   33.2710 C   0  0  0  0  0  0  0  0  0  0  0  0
   37.9120   24.5130   34.4320 N   0  0  0  0  0  0  0  0  0  0  0  0
   37.5680   25.7780   34.1690 N   0  0  0  0  0  0  0  0  0  0  0  0
   38.3860   22.8150   33.2190 H   0  0  0  0  0  0  0  0  0  0  0  0
   38.0260   24.0520   35.7730 C   0  0  0  0  0  0  0  0  0  0  0  0
   37.9400   24.9580   36.7860 N   0  0  0  0  0  0  0  0  0  0  0  0
   38.0790   24.2800   37.9500 C   0  0  0  0  0  0  0  0  0  0  0  0
   38.0580   24.7030   38.9540 H   0  0  0  0  0  0  0  0  0  0  0  0
   38.2500   22.9610   37.6590 N   0  0  0  0  0  0  0  0  0  0  0  0
   38.3860   22.1620   38.3200 H   0  0  0  0  0  0  0  0  0  0  0  0
   38.2160   22.8460   36.3250 N   0  0  0  0  0  0  0  0  0  0  0  0
   34.8250   30.0070   32.9330 C   0  0  0  0  0  0  0  0  0  0  0  0
   33.5230   30.2210   32.2500 C   0  0  0  0  0  0  0  0  0  0  0  0
   33.6090   29.2780   33.4250 C   0  0  0  0  0  0  0  0  0  0  0  0
   32.9640   31.1450   32.4530 H   0  0  0  0  0  0  0  0  0  0  0  0
   33.3790   29.6920   31.2800 H   0  0  0  0  0  0  0  0  0  0  0  0
   33.2160   29.5970   34.4150 H   0  0  0  0  0  0  0  0  0  0  0  0
   33.5390   28.1970   33.2790 H   0  0  0  0  0  0  0  0  0  0  0  0
   36.1250   31.6560   35.9730 C   0  0  0  0  0  0  0  0  0  0  0  0
   36.5220   32.9110   35.4840 C   0  0  0  0  0  0  0  0  0  0  0  0
   36.3400   33.1850   34.1160 C   0  0  0  0  0  0  0  0  0  0  0  0
   35.7920   32.2300   33.3260 N   0  0  0  0  0  0  0  0  0  0  0  0
   35.4150   31.0120   33.8310 C   0  0  0  0  0  0  0  0  0  0  0  0
   35.5850   30.7450   35.1300 N   0  0  0  0  0  0  0  0  0  0  0  0
   36.2700   31.4550   37.0320 H   0  0  0  0  0  0  0  0  0  0  0  0
   36.9550   33.6850   36.0760 H   0  0  0  0  0  0  0  0  0  0  0  0
   36.5990   34.0990   33.6170 H   0  0  0  0  0  0  0  0  0  0  0  0
  1  6  1  0  0  0  0
  1 23  1  0  0  0  0
  2  1  2  0  0  0  0
  3  4  2  0  0  0  0
  3  2  1  0  0  0  0
  4  5  1  0  0  0  0
  5  6  2  0  0  0  0
  5 10  1  0  0  0  0
  7  2  1  0  0  0  0
  8  3  1  0  0  0  0
  9  4  1  0  0  0  0
 10 14  2  0  0  0  0
 11 10  1  0  0  0  0
 11 12  2  0  0  0  0
 12 13  1  0  0  0  0
 13 16  1  0  0  0  0
 14 13  1  0  0  0  0
 15 12  1  0  0  0  0
 16 22  2  0  0  0  0
 16 17  1  0  0  0  0
 17 18  2  0  0  0  0
 18 19  1  0  0  0  0
 20 18  1  0  0  0  0
 20 21  1  0  0  0  0
 22 20  1  0  0  0  0
 23 25  1  0  0  0  0
 23 34  1  0  0  0  0
 24 26  1  0  0  0  0
 24 23  1  0  0  0  0
 24 25  1  0  0  0  0
 25 28  1  0  0  0  0
 27 24  1  0  0  0  0
 29 25  1  0  0  0  0
 30 36  1  0  0  0  0
 31 30  1  0  0  0  0
 31 37  1  0  0  0  0
 32 31  2  0  0  0  0
 33 34  2  0  0  0  0
 33 32  1  0  0  0  0
 34 35  1  0  0  0  0
 35 30  2  0  0  0  0
 38 32  1  0  0  0  0
M  END
>  <minimizedAffinity>
-5.85221243

$$$$

 OpenBabel03272505493D

 38 42  0  0  0  0  0  0  0  0999 V2000
   40.4980   23.1120   36.5650 C   0  0  0  0  0  0  0  0  0  0  0  0
   39.8760   22.8840   37.7470 C   0  0  0  0  0  0  0  0  0  0  0  0
   38.5840   23.3560   37.9600 C   0  0  0  0  0  0  0  0  0  0  0  0
   37.9660   24.0560   36.9390 C   0  0  0  0  0  0  0  0  0  0  0  0
   38.6110   24.2890   35.7250 C   0  0  0  0  0  0  0  0  0  0  0  0
   39.8630   23.8010   35.5890 N   0  0  0  0  0  0  0  0  0  0  0  0
   40.3600   22.3340   38.5490 H   0  0  0  0  0  0  0  0  0  0  0  0
   38.0360   23.2150   38.8600 H   0  0  0  0  0  0  0  0  0  0  0  0
   36.9640   24.4680   36.9980 H   0  0  0  0  0  0  0  0  0  0  0  0
   38.0050   25.0180   34.6200 C   0  0  0  0  0  0  0  0  0  0  0  0
   37.8170   24.6620   33.3080 N   0  0  0  0  0  0  0  0  0  0  0  0
   37.2020   25.6990   32.6690 C   0  0  0  0  0  0  0  0  0  0  0  0
   37.0130   26.6810   33.5790 N   0  0  0  0  0  0  0  0  0  0  0  0
   37.4930   26.2870   34.7620 N   0  0  0  0  0  0  0  0  0  0  0  0
   36.8990   25.7780   31.6420 H   0  0  0  0  0  0  0  0  0  0  0  0
   36.4180   27.9630   33.4230 C   0  0  0  0  0  0  0  0  0  0  0  0
   36.1970   28.7210   34.5340 N   0  0  0  0  0  0  0  0  0  0  0  0
   35.6280   29.8810   34.1280 C   0  0  0  0  0  0  0  0  0  0  0  0
   35.3230   30.7110   34.7630 H   0  0  0  0  0  0  0  0  0  0  0  0
   35.4980   29.8410   32.7730 N   0  0  0  0  0  0  0  0  0  0  0  0
   35.0990   30.5700   32.1370 H   0  0  0  0  0  0  0  0  0  0  0  0
   35.9850   28.6620   32.3660 N   0  0  0  0  0  0  0  0  0  0  0  0
   41.9010   22.6040   36.3210 C   0  0  0  0  0  0  0  0  0  0  0  0
   42.3150   21.3350   36.9720 C   0  0  0  0  0  0  0  0  0  0  0  0
   42.0470   21.3650   35.4870 C   0  0  0  0  0  0  0  0  0  0  0  0
   43.3730   21.1960   37.2370 H   0  0  0  0  0  0  0  0  0  0  0  0
   41.5280   20.7910   37.5430 H   0  0  0  0  0  0  0  0  0  0  0  0
   42.9000   21.3530   34.7750 H   0  0  0  0  0  0  0  0  0  0  0  0
   41.1530   20.8920   35.0720 H   0  0  0  0  0  0  0  0  0  0  0  0
   43.7230   25.3360   34.6270 C   0  0  0  0  0  0  0  0  0  0  0  0
   44.6280   25.7480   35.6180 C   0  0  0  0  0  0  0  0  0  0  0  0
   44.6100   25.0870   36.8600 C   0  0  0  0  0  0  0  0  0  0  0  0
   43.7210   24.0820   37.0510 N   0  0  0  0  0  0  0  0  0  0  0  0
   42.8470   23.7010   36.0650 C   0  0  0  0  0  0  0  0  0  0  0  0
   42.8600   24.3250   34.8820 N   0  0  0  0  0  0  0  0  0  0  0  0
   43.7460   25.8540   33.6710 H   0  0  0  0  0  0  0  0  0  0  0  0
   45.3400   26.5340   35.5020 H   0  0  0  0  0  0  0  0  0  0  0  0
   45.2450   25.3020   37.6980 H   0  0  0  0  0  0  0  0  0  0  0  0
  1  2  1  0  0  0  0
  2  3  2  0  0  0  0
  2  7  1  0  0  0  0
  3  8  1  0  0  0  0
  4  9  1  0  0  0  0
  4  3  1  0  0  0  0
  5  4  2  0  0  0  0
  6  5  1  0  0  0  0
  6  1  2  0  0  0  0
 10 14  2  0  0  0  0
 10  5  1  0  0  0  0
 11 10  1  0  0  0  0
 12 11  2  0  0  0  0
 12 13  1  0  0  0  0
 13 14  1  0  0  0  0
 15 12  1  0  0  0  0
 16 13  1  0  0  0  0
 16 17  1  0  0  0  0
 18 17  2  0  0  0  0
 18 19  1  0  0  0  0
 20 18  1  0  0  0  0
 21 20  1  0  0  0  0
 22 20  1  0  0  0  0
 22 16  2  0  0  0  0
 23  1  1  0  0  0  0
 23 24  1  0  0  0  0
 24 26  1  0  0  0  0
 24 27  1  0  0  0  0
 25 23  1  0  0  0  0
 25 24  1  0  0  0  0
 28 25  1  0  0  0  0
 29 25  1  0  0  0  0
 30 35  2  0  0  0  0
 30 31  1  0  0  0  0
 31 32  2  0  0  0  0
 32 33  1  0  0  0  0
 32 38  1  0  0  0  0
 34 23  1  0  0  0  0
 34 33  2  0  0  0  0
 35 34  1  0  0  0  0
 36 30  1  0  0  0  0
 37 31  1  0  0  0  0
M  END
>  <minimizedAffinity>
-5.8277874

$$$$
