
     RDKit          3D

 38 41  0  0  0  0  0  0  0  0999 V2000
   38.9552   32.3674   47.7951 C   0  0  2  0  0  0  0  0  0  0  0  0
   38.0098   32.7437   48.9690 C   0  0  2  0  0  0  0  0  0  0  0  0
   38.8920   33.5474   49.8017 C   0  0  0  0  0  0  0  0  0  0  0  0
   39.7294   34.2700   48.9587 O   0  0  0  0  0  0  0  0  0  0  0  0
   39.6212   33.7707   47.7011 C   0  0  0  0  0  0  0  0  0  0  0  0
   37.3584   29.6964   51.0843 C   0  0  0  0  0  0  0  0  0  0  0  0
   38.0391   30.8305   50.5596 C   0  0  0  0  0  0  0  0  0  0  0  0
   37.3724   31.5845   49.5511 C   0  0  0  0  0  0  0  0  0  0  0  0
   36.1204   31.1875   49.1369 N   0  0  0  0  0  0  0  0  0  0  0  0
   35.5262   30.1160   49.6613 C   0  0  0  0  0  0  0  0  0  0  0  0
   36.1268   29.3649   50.6288 N   0  0  0  0  0  0  0  0  0  0  0  0
   38.2755   32.1332   46.6467 O   0  0  0  0  0  0  0  0  0  0  0  0
   40.9444   31.2628   45.3706 Cl  0  0  0  0  0  0  0  0  0  0  0  0
   39.3624   30.6930   44.8993 C   0  0  0  0  0  0  0  0  0  0  0  0
   38.3215   31.2422   45.6342 C   0  0  0  0  0  0  0  0  0  0  0  0
   37.0622   30.7954   45.2667 C   0  0  0  0  0  0  0  0  0  0  0  0
   36.8618   29.8819   44.2558 C   0  0  0  0  0  0  0  0  0  0  0  0
   37.9401   29.3816   43.5721 C   0  0  0  0  0  0  0  0  0  0  0  0
   39.2250   29.7798   43.8818 C   0  0  0  0  0  0  0  0  0  0  0  0
   39.6969   31.6440   48.1287 H   0  0  0  0  0  0  0  0  0  0  0  0
   37.2065   33.3363   48.4465 H   0  0  0  0  0  0  0  0  0  0  0  0
   38.2700   34.3239   50.3338 H   0  0  0  0  0  0  0  0  0  0  0  0
   39.4433   33.0021   50.5591 H   0  0  0  0  0  0  0  0  0  0  0  0
   40.6403   33.5596   47.3131 H   0  0  0  0  0  0  0  0  0  0  0  0
   39.0789   34.3793   46.9654 H   0  0  0  0  0  0  0  0  0  0  0  0
   37.8047   29.0808   51.8502 H   0  0  0  0  0  0  0  0  0  0  0  0
   39.0023   31.0672   50.9324 H   0  0  0  0  0  0  0  0  0  0  0  0
   34.5481   29.9146   49.2491 H   0  0  0  0  0  0  0  0  0  0  0  0
   36.1341   31.1107   45.7248 H   0  0  0  0  0  0  0  0  0  0  0  0
   35.8998   29.5139   43.9450 H   0  0  0  0  0  0  0  0  0  0  0  0
   37.8318   28.6629   42.7714 H   0  0  0  0  0  0  0  0  0  0  0  0
   40.4422   29.3151   43.2230 C   0  0  0  0  0  0  0  0  0  0  0  0
   41.6098   28.9229   43.7650 N   0  0  0  0  0  0  0  0  0  0  0  0
   42.4508   28.5761   42.7477 C   0  0  0  0  0  0  0  0  0  0  0  0
   43.4208   28.2476   43.1375 H   0  0  0  0  0  0  0  0  0  0  0  0
   41.7852   28.7603   41.5746 N   0  0  0  0  0  0  0  0  0  0  0  0
   42.3520   28.5200   40.7458 H   0  0  0  0  0  0  0  0  0  0  0  0
   40.5792   29.2051   41.8847 N   0  0  0  0  0  0  0  0  0  0  0  0
  1  2  1  0
  2  8  1  0
  2  3  1  0
  4  3  1  0
  5  1  1  0
  5  4  1  0
  7  6  2  0
  8  7  1  0
  9  8  2  0
  9 10  1  0
 10 11  2  0
 11  6  1  0
 12  1  1  0
 14 13  1  0
 14 15  2  0
 15 12  1  0
 16 15  1  0
 17 16  2  0
 18 19  2  0
 18 17  1  0
 19 14  1  0
  1 20  1  1
  2 21  1  6
  3 22  1  0
  3 23  1  0
  5 24  1  0
  5 25  1  0
  6 26  1  0
  7 27  1  0
 10 28  1  0
 16 29  1  0
 17 30  1  0
 18 31  1  0
 32 33  1  0
 33 34  2  0
 34 35  1  0
 34 36  1  0
 36 37  1  0
 36 38  1  0
 38 32  2  0
 19 32  1  0
M  ISO  8  20  13  21  13  22  13  23  13  24  13  25  13  26  14  27  14
M  ISO  6  28  14  29  14  30  14  31  14  35  14  37   9
M  END
>  <DihAtoms>  (1) 
17,18,31,32

>  <DihDeg>  (1) 
-179.9993019222614

$$$$
