
 OpenBabel03262521423D

 41 45  0  0  0  0  0  0  0  0999 V2000
   38.7540   24.5270   35.6410 C   0  0  0  0  0  0  0  0  0  0  0  0
   37.7350   24.6900   36.5280 N   0  0  0  0  0  0  0  0  0  0  0  0
   37.7460   24.0250   37.7140 C   0  0  0  0  0  0  0  0  0  0  0  0
   38.7330   23.1960   38.0680 N   0  0  0  0  0  0  0  0  0  0  0  0
   39.7730   22.9980   37.2210 C   0  0  0  0  0  0  0  0  0  0  0  0
   40.7640   22.1340   37.5850 C   0  0  0  0  0  0  0  0  0  0  0  0
   41.8180   21.8970   36.7410 C   0  0  0  0  0  0  0  0  0  0  0  0
   41.8620   22.5540   35.5100 C   0  0  0  0  0  0  0  0  0  0  0  0
   40.8360   23.4250   35.1810 C   0  0  0  0  0  0  0  0  0  0  0  0
   39.7850   23.6690   35.9990 C   0  0  0  0  0  0  0  0  0  0  0  0
   36.8720   24.2600   38.3040 H   0  0  0  0  0  0  0  0  0  0  0  0
   40.6740   21.6620   38.5450 H   0  0  0  0  0  0  0  0  0  0  0  0
   42.5450   21.1920   37.1290 H   0  0  0  0  0  0  0  0  0  0  0  0
   42.7530   22.2410   35.0030 H   0  0  0  0  0  0  0  0  0  0  0  0
   41.1080   24.0180   33.8630 C   0  0  0  0  0  0  0  0  0  0  0  0
   41.0300   23.2820   32.7750 N   0  0  0  0  0  0  0  0  0  0  0  0
   41.3310   23.8590   31.6310 C   0  0  0  0  0  0  0  0  0  0  0  0
   41.3300   23.4390   30.6390 H   0  0  0  0  0  0  0  0  0  0  0  0
   41.6380   25.0880   31.9770 N   0  0  0  0  0  0  0  0  0  0  0  0
   41.9400   25.9210   31.4330 H   0  0  0  0  0  0  0  0  0  0  0  0
   41.4890   25.0940   33.2310 N   0  0  0  0  0  0  0  0  0  0  0  0
   38.8470   25.2980   34.0760 S   0  0  0  0  0  0  0  0  0  0  0  0
   38.0750   22.5560   33.3660 F   0  0  0  0  0  0  0  0  0  0  0  0
   37.3050   23.4750   32.7080 C   0  0  0  0  0  0  0  0  0  0  0  0
   36.3090   23.0770   31.8310 C   0  0  0  0  0  0  0  0  0  0  0  0
   35.5430   24.0640   31.1820 C   0  0  0  0  0  0  0  0  0  0  0  0
   35.7780   25.4200   31.4130 C   0  0  0  0  0  0  0  0  0  0  0  0
   36.7890   25.7360   32.3020 C   0  0  0  0  0  0  0  0  0  0  0  0
   37.5580   24.8030   32.9550 C   0  0  0  0  0  0  0  0  0  0  0  0
   34.7740   23.7000   30.5030 H   0  0  0  0  0  0  0  0  0  0  0  0
   35.1740   26.1420   30.9000 H   0  0  0  0  0  0  0  0  0  0  0  0
   36.9100   26.8010   32.4300 H   0  0  0  0  0  0  0  0  0  0  0  0
   35.1100   21.1280   32.4160 C   0  0  0  0  0  0  0  0  0  0  0  0
   36.1180   21.6870   31.6360 C   0  0  0  0  0  0  0  0  0  0  0  0
   36.7980   20.8330   30.7820 C   0  0  0  0  0  0  0  0  0  0  0  0
   36.4400   19.5120   30.7600 N   0  0  0  0  0  0  0  0  0  0  0  0
   35.4760   19.0240   31.5190 C   0  0  0  0  0  0  0  0  0  0  0  0
   34.7940   19.8110   32.3570 N   0  0  0  0  0  0  0  0  0  0  0  0
   34.4890   21.6830   33.1350 H   0  0  0  0  0  0  0  0  0  0  0  0
   37.5620   21.2830   30.1990 H   0  0  0  0  0  0  0  0  0  0  0  0
   35.2710   17.9560   31.4240 H   0  0  0  0  0  0  0  0  0  0  0  0
  1 10  2  0  0  0  0
  1  2  1  0  0  0  0
  2  3  2  0  0  0  0
  3  4  1  0  0  0  0
  3 11  1  0  0  0  0
  5  6  1  0  0  0  0
  5  4  2  0  0  0  0
  6 12  1  0  0  0  0
  7 13  1  0  0  0  0
  7  6  2  0  0  0  0
  8  7  1  0  0  0  0
  9  8  2  0  0  0  0
  9 10  1  0  0  0  0
 10  5  1  0  0  0  0
 14  8  1  0  0  0  0
 15  9  1  0  0  0  0
 16 15  1  0  0  0  0
 17 19  1  0  0  0  0
 17 16  2  0  0  0  0
 18 17  1  0  0  0  0
 19 21  1  0  0  0  0
 20 19  1  0  0  0  0
 21 15  2  0  0  0  0
 22  1  1  0  0  0  0
 24 29  1  0  0  0  0
 24 23  1  0  0  0  0
 25 24  2  0  0  0  0
 26 27  2  0  0  0  0
 26 25  1  0  0  0  0
 27 28  1  0  0  0  0
 28 32  1  0  0  0  0
 28 29  2  0  0  0  0
 29 22  1  0  0  0  0
 30 26  1  0  0  0  0
 31 27  1  0  0  0  0
 33 39  1  0  0  0  0
 34 25  1  0  0  0  0
 34 33  2  0  0  0  0
 35 34  1  0  0  0  0
 36 35  2  0  0  0  0
 36 37  1  0  0  0  0
 37 38  2  0  0  0  0
 38 33  1  0  0  0  0
 40 35  1  0  0  0  0
 41 37  1  0  0  0  0
M  END
>  <minimizedAffinity>
-6.37962866

$$$$

 OpenBabel03262521423D

 41 45  0  0  0  0  0  0  0  0999 V2000
   40.4610   25.4210   34.8890 C   0  0  0  0  0  0  0  0  0  0  0  0
   41.0490   26.4240   34.1830 N   0  0  0  0  0  0  0  0  0  0  0  0
   42.3980   26.4470   34.0180 C   0  0  0  0  0  0  0  0  0  0  0  0
   43.2040   25.5100   34.5270 N   0  0  0  0  0  0  0  0  0  0  0  0
   42.6700   24.4870   35.2390 C   0  0  0  0  0  0  0  0  0  0  0  0
   43.5040   23.5470   35.7710 C   0  0  0  0  0  0  0  0  0  0  0  0
   42.9960   22.5130   36.5120 C   0  0  0  0  0  0  0  0  0  0  0  0
   41.6160   22.4350   36.7110 C   0  0  0  0  0  0  0  0  0  0  0  0
   40.8050   23.4090   36.1520 C   0  0  0  0  0  0  0  0  0  0  0  0
   41.2880   24.4400   35.4200 C   0  0  0  0  0  0  0  0  0  0  0  0
   42.7090   27.3030   33.4380 H   0  0  0  0  0  0  0  0  0  0  0  0
   44.5540   23.6610   35.5790 H   0  0  0  0  0  0  0  0  0  0  0  0
   43.7470   21.8270   36.8870 H   0  0  0  0  0  0  0  0  0  0  0  0
   41.4190   21.5660   37.3070 H   0  0  0  0  0  0  0  0  0  0  0  0
   39.4000   23.1080   36.4660 C   0  0  0  0  0  0  0  0  0  0  0  0
   38.9020   23.4160   37.6450 N   0  0  0  0  0  0  0  0  0  0  0  0
   37.6530   23.0780   37.8810 C   0  0  0  0  0  0  0  0  0  0  0  0
   37.0630   23.2370   38.7690 H   0  0  0  0  0  0  0  0  0  0  0  0
   37.2750   22.4920   36.7680 N   0  0  0  0  0  0  0  0  0  0  0  0
   36.3810   22.0580   36.4660 H   0  0  0  0  0  0  0  0  0  0  0  0
   38.3020   22.5500   36.0350 N   0  0  0  0  0  0  0  0  0  0  0  0
   38.7460   25.2880   35.1960 S   0  0  0  0  0  0  0  0  0  0  0  0
   37.5400   27.7440   34.1310 F   0  0  0  0  0  0  0  0  0  0  0  0
   37.2330   26.6610   33.3520 C   0  0  0  0  0  0  0  0  0  0  0  0
   36.4440   26.7950   32.2220 C   0  0  0  0  0  0  0  0  0  0  0  0
   36.1610   25.6500   31.4530 C   0  0  0  0  0  0  0  0  0  0  0  0
   36.6640   24.4000   31.8190 C   0  0  0  0  0  0  0  0  0  0  0  0
   37.4440   24.3500   32.9600 C   0  0  0  0  0  0  0  0  0  0  0  0
   37.7420   25.4440   33.7350 C   0  0  0  0  0  0  0  0  0  0  0  0
   35.5370   25.8070   30.5760 H   0  0  0  0  0  0  0  0  0  0  0  0
   36.4270   23.5510   31.2080 H   0  0  0  0  0  0  0  0  0  0  0  0
   37.7960   23.3530   33.1770 H   0  0  0  0  0  0  0  0  0  0  0  0
   36.6290   28.7090   30.8500 C   0  0  0  0  0  0  0  0  0  0  0  0
   35.9620   28.0880   31.9020 C   0  0  0  0  0  0  0  0  0  0  0  0
   34.9290   28.7960   32.4960 C   0  0  0  0  0  0  0  0  0  0  0  0
   34.6350   30.0450   32.0170 N   0  0  0  0  0  0  0  0  0  0  0  0
   35.2950   30.5950   31.0160 C   0  0  0  0  0  0  0  0  0  0  0  0
   36.2980   29.9490   30.4130 N   0  0  0  0  0  0  0  0  0  0  0  0
   37.4660   28.2680   30.2870 H   0  0  0  0  0  0  0  0  0  0  0  0
   34.4370   28.3010   33.2950 H   0  0  0  0  0  0  0  0  0  0  0  0
   34.9800   31.5960   30.7120 H   0  0  0  0  0  0  0  0  0  0  0  0
  1 22  1  0  0  0  0
  1 10  1  0  0  0  0
  2  1  2  0  0  0  0
  3  2  1  0  0  0  0
  3  4  2  0  0  0  0
  4  5  1  0  0  0  0
  5 10  2  0  0  0  0
  5  6  1  0  0  0  0
  6  7  2  0  0  0  0
  7  8  1  0  0  0  0
  7 13  1  0  0  0  0
  8 14  1  0  0  0  0
  9 15  1  0  0  0  0
  9  8  2  0  0  0  0
 10  9  1  0  0  0  0
 11  3  1  0  0  0  0
 12  6  1  0  0  0  0
 15 16  1  0  0  0  0
 16 17  2  0  0  0  0
 17 18  1  0  0  0  0
 19 17  1  0  0  0  0
 20 19  1  0  0  0  0
 21 15  2  0  0  0  0
 21 19  1  0  0  0  0
 24 29  1  0  0  0  0
 24 23  1  0  0  0  0
 25 24  2  0  0  0  0
 26 27  2  0  0  0  0
 26 25  1  0  0  0  0
 27 28  1  0  0  0  0
 28 32  1  0  0  0  0
 28 29  2  0  0  0  0
 29 22  1  0  0  0  0
 30 26  1  0  0  0  0
 31 27  1  0  0  0  0
 33 34  1  0  0  0  0
 34 25  1  0  0  0  0
 34 35  2  0  0  0  0
 35 40  1  0  0  0  0
 36 35  1  0  0  0  0
 37 36  2  0  0  0  0
 38 33  2  0  0  0  0
 38 37  1  0  0  0  0
 39 33  1  0  0  0  0
 41 37  1  0  0  0  0
M  END
>  <minimizedAffinity>
-6.3325305

$$$$

 OpenBabel03262521423D

 41 45  0  0  0  0  0  0  0  0999 V2000
   36.7480   25.6810   32.1100 C   0  0  0  0  0  0  0  0  0  0  0  0
   35.7710   25.6520   31.1640 N   0  0  0  0  0  0  0  0  0  0  0  0
   35.2200   24.4680   30.7850 C   0  0  0  0  0  0  0  0  0  0  0  0
   35.5960   23.2960   31.3060 N   0  0  0  0  0  0  0  0  0  0  0  0
   36.5660   23.2680   32.2530 C   0  0  0  0  0  0  0  0  0  0  0  0
   36.9560   22.0650   32.7630 C   0  0  0  0  0  0  0  0  0  0  0  0
   37.9480   22.0030   33.7060 C   0  0  0  0  0  0  0  0  0  0  0  0
   38.5480   23.1880   34.1380 C   0  0  0  0  0  0  0  0  0  0  0  0
   38.1210   24.3890   33.5960 C   0  0  0  0  0  0  0  0  0  0  0  0
   37.1460   24.4700   32.6600 C   0  0  0  0  0  0  0  0  0  0  0  0
   34.4620   24.6120   30.0290 H   0  0  0  0  0  0  0  0  0  0  0  0
   36.4540   21.1910   32.3930 H   0  0  0  0  0  0  0  0  0  0  0  0
   38.1790   20.9980   34.0400 H   0  0  0  0  0  0  0  0  0  0  0  0
   39.2900   22.9320   34.8690 H   0  0  0  0  0  0  0  0  0  0  0  0
   38.8680   25.4930   34.2150 C   0  0  0  0  0  0  0  0  0  0  0  0
   40.1300   25.6990   33.9030 N   0  0  0  0  0  0  0  0  0  0  0  0
   40.7570   26.6730   34.5280 C   0  0  0  0  0  0  0  0  0  0  0  0
   41.7770   27.0020   34.4200 H   0  0  0  0  0  0  0  0  0  0  0  0
   39.8400   27.1660   35.3290 N   0  0  0  0  0  0  0  0  0  0  0  0
   39.8490   27.9430   36.0190 H   0  0  0  0  0  0  0  0  0  0  0  0
   38.8220   26.4570   35.0940 N   0  0  0  0  0  0  0  0  0  0  0  0
   37.5560   27.1270   32.6660 S   0  0  0  0  0  0  0  0  0  0  0  0
   36.3560   28.5630   34.9280 F   0  0  0  0  0  0  0  0  0  0  0  0
   36.0370   29.1570   33.7370 C   0  0  0  0  0  0  0  0  0  0  0  0
   35.2410   30.2890   33.6940 C   0  0  0  0  0  0  0  0  0  0  0  0
   34.9460   30.8630   32.4430 C   0  0  0  0  0  0  0  0  0  0  0  0
   35.4440   30.3050   31.2640 C   0  0  0  0  0  0  0  0  0  0  0  0
   36.2310   29.1760   31.3910 C   0  0  0  0  0  0  0  0  0  0  0  0
   36.5420   28.5870   32.5930 C   0  0  0  0  0  0  0  0  0  0  0  0
   34.3160   31.7500   32.4620 H   0  0  0  0  0  0  0  0  0  0  0  0
   35.1970   30.7710   30.3300 H   0  0  0  0  0  0  0  0  0  0  0  0
   36.5800   28.8050   30.4390 H   0  0  0  0  0  0  0  0  0  0  0  0
   33.4550   30.4510   35.2310 C   0  0  0  0  0  0  0  0  0  0  0  0
   34.7640   30.8080   34.9230 C   0  0  0  0  0  0  0  0  0  0  0  0
   35.4270   31.6120   35.8370 C   0  0  0  0  0  0  0  0  0  0  0  0
   34.7610   31.9990   36.9690 N   0  0  0  0  0  0  0  0  0  0  0  0
   33.5180   31.6360   37.2200 C   0  0  0  0  0  0  0  0  0  0  0  0
   32.8400   30.8620   36.3680 N   0  0  0  0  0  0  0  0  0  0  0  0
   32.8090   29.8200   34.6020 H   0  0  0  0  0  0  0  0  0  0  0  0
   36.4240   31.8710   35.5780 H   0  0  0  0  0  0  0  0  0  0  0  0
   33.0800   32.0000   38.1520 H   0  0  0  0  0  0  0  0  0  0  0  0
  1 10  1  0  0  0  0
  1 22  1  0  0  0  0
  2  1  2  0  0  0  0
  3  2  1  0  0  0  0
  3  4  2  0  0  0  0
  4  5  1  0  0  0  0
  5 10  2  0  0  0  0
  5  6  1  0  0  0  0
  6  7  2  0  0  0  0
  7 13  1  0  0  0  0
  7  8  1  0  0  0  0
  8 14  1  0  0  0  0
  9  8  2  0  0  0  0
  9 15  1  0  0  0  0
 10  9  1  0  0  0  0
 11  3  1  0  0  0  0
 12  6  1  0  0  0  0
 15 21  2  0  0  0  0
 16 15  1  0  0  0  0
 16 17  2  0  0  0  0
 17 19  1  0  0  0  0
 18 17  1  0  0  0  0
 19 20  1  0  0  0  0
 21 19  1  0  0  0  0
 24 23  1  0  0  0  0
 25 24  1  0  0  0  0
 25 34  1  0  0  0  0
 26 30  1  0  0  0  0
 26 25  2  0  0  0  0
 27 28  2  0  0  0  0
 27 26  1  0  0  0  0
 28 29  1  0  0  0  0
 29 22  1  0  0  0  0
 29 24  2  0  0  0  0
 31 27  1  0  0  0  0
 32 28  1  0  0  0  0
 33 38  1  0  0  0  0
 34 33  2  0  0  0  0
 34 35  1  0  0  0  0
 35 36  2  0  0  0  0
 36 37  1  0  0  0  0
 37 41  1  0  0  0  0
 38 37  2  0  0  0  0
 39 33  1  0  0  0  0
 40 35  1  0  0  0  0
M  END
>  <minimizedAffinity>
-6.30148506

$$$$

 OpenBabel03262521423D

 41 45  0  0  0  0  0  0  0  0999 V2000
   37.4370   24.2600   33.1990 C   0  0  0  0  0  0  0  0  0  0  0  0
   36.9890   24.3410   31.9170 N   0  0  0  0  0  0  0  0  0  0  0  0
   36.6860   25.5510   31.3730 C   0  0  0  0  0  0  0  0  0  0  0  0
   36.8080   26.6970   32.0480 N   0  0  0  0  0  0  0  0  0  0  0  0
   37.2500   26.6730   33.3300 C   0  0  0  0  0  0  0  0  0  0  0  0
   37.3510   27.8470   34.0160 C   0  0  0  0  0  0  0  0  0  0  0  0
   37.7750   27.8520   35.3180 C   0  0  0  0  0  0  0  0  0  0  0  0
   38.1050   26.6400   35.9290 C   0  0  0  0  0  0  0  0  0  0  0  0
   37.9900   25.4710   35.1960 C   0  0  0  0  0  0  0  0  0  0  0  0
   37.5690   25.4450   33.9100 C   0  0  0  0  0  0  0  0  0  0  0  0
   36.3460   25.4480   30.3530 H   0  0  0  0  0  0  0  0  0  0  0  0
   37.0860   28.7450   33.4900 H   0  0  0  0  0  0  0  0  0  0  0  0
   37.8160   28.8390   35.7660 H   0  0  0  0  0  0  0  0  0  0  0  0
   38.4120   26.8530   36.9340 H   0  0  0  0  0  0  0  0  0  0  0  0
   38.4150   24.3350   36.0270 C   0  0  0  0  0  0  0  0  0  0  0  0
   37.7360   24.0110   37.1080 N   0  0  0  0  0  0  0  0  0  0  0  0
   38.1940   23.0150   37.8350 C   0  0  0  0  0  0  0  0  0  0  0  0
   37.7930   22.5980   38.7440 H   0  0  0  0  0  0  0  0  0  0  0  0
   39.2740   22.6330   37.1910 N   0  0  0  0  0  0  0  0  0  0  0  0
   39.9750   21.8880   37.3680 H   0  0  0  0  0  0  0  0  0  0  0  0
   39.3250   23.4150   36.2000 N   0  0  0  0  0  0  0  0  0  0  0  0
   37.8340   22.7720   34.0240 S   0  0  0  0  0  0  0  0  0  0  0  0
   38.6290   21.3460   31.5840 F   0  0  0  0  0  0  0  0  0  0  0  0
   37.5330   20.7660   32.1630 C   0  0  0  0  0  0  0  0  0  0  0  0
   36.9330   19.6510   31.6020 C   0  0  0  0  0  0  0  0  0  0  0  0
   35.8100   19.0920   32.2400 C   0  0  0  0  0  0  0  0  0  0  0  0
   35.3050   19.6470   33.4170 C   0  0  0  0  0  0  0  0  0  0  0  0
   35.9590   20.7590   33.9140 C   0  0  0  0  0  0  0  0  0  0  0  0
   37.0580   21.3330   33.3210 C   0  0  0  0  0  0  0  0  0  0  0  0
   35.3750   18.2180   31.7600 H   0  0  0  0  0  0  0  0  0  0  0  0
   34.4480   19.1930   33.8740 H   0  0  0  0  0  0  0  0  0  0  0  0
   35.5130   21.1300   34.8240 H   0  0  0  0  0  0  0  0  0  0  0  0
   36.6500   19.2070   29.3000 C   0  0  0  0  0  0  0  0  0  0  0  0
   37.4900   19.1330   30.4060 C   0  0  0  0  0  0  0  0  0  0  0  0
   38.7420   18.5740   30.2080 C   0  0  0  0  0  0  0  0  0  0  0  0
   39.0690   18.1350   28.9530 N   0  0  0  0  0  0  0  0  0  0  0  0
   38.2390   18.2240   27.9310 C   0  0  0  0  0  0  0  0  0  0  0  0
   37.0220   18.7560   28.0760 N   0  0  0  0  0  0  0  0  0  0  0  0
   35.6310   19.6240   29.3080 H   0  0  0  0  0  0  0  0  0  0  0  0
   39.3640   18.5300   31.0670 H   0  0  0  0  0  0  0  0  0  0  0  0
   38.5980   17.8430   26.9720 H   0  0  0  0  0  0  0  0  0  0  0  0
  1 10  1  0  0  0  0
  1 22  1  0  0  0  0
  2  1  2  0  0  0  0
  3  2  1  0  0  0  0
  3  4  2  0  0  0  0
  4  5  1  0  0  0  0
  5 10  2  0  0  0  0
  5  6  1  0  0  0  0
  6  7  2  0  0  0  0
  7 13  1  0  0  0  0
  7  8  1  0  0  0  0
  8 14  1  0  0  0  0
  9  8  2  0  0  0  0
  9 15  1  0  0  0  0
 10  9  1  0  0  0  0
 11  3  1  0  0  0  0
 12  6  1  0  0  0  0
 15 21  2  0  0  0  0
 15 16  1  0  0  0  0
 16 17  2  0  0  0  0
 17 18  1  0  0  0  0
 19 20  1  0  0  0  0
 19 17  1  0  0  0  0
 21 19  1  0  0  0  0
 23 24  1  0  0  0  0
 24 29  1  0  0  0  0
 25 24  2  0  0  0  0
 25 26  1  0  0  0  0
 26 27  2  0  0  0  0
 27 31  1  0  0  0  0
 27 28  1  0  0  0  0
 28 32  1  0  0  0  0
 29 28  2  0  0  0  0
 29 22  1  0  0  0  0
 30 26  1  0  0  0  0
 33 39  1  0  0  0  0
 33 34  1  0  0  0  0
 34 25  1  0  0  0  0
 35 34  2  0  0  0  0
 35 40  1  0  0  0  0
 36 35  1  0  0  0  0
 37 38  1  0  0  0  0
 37 36  2  0  0  0  0
 38 33  2  0  0  0  0
 41 37  1  0  0  0  0
M  END
>  <minimizedAffinity>
-6.10143328

$$$$

 OpenBabel03262521423D

 41 45  0  0  0  0  0  0  0  0999 V2000
   40.2470   23.2400   35.1050 C   0  0  0  0  0  0  0  0  0  0  0  0
   41.1780   22.2590   35.2570 N   0  0  0  0  0  0  0  0  0  0  0  0
   41.3460   21.6540   36.4630 C   0  0  0  0  0  0  0  0  0  0  0  0
   40.6250   21.9790   37.5400 N   0  0  0  0  0  0  0  0  0  0  0  0
   39.6830   22.9500   37.4440 C   0  0  0  0  0  0  0  0  0  0  0  0
   38.9670   23.2870   38.5560 C   0  0  0  0  0  0  0  0  0  0  0  0
   38.0230   24.2780   38.4950 C   0  0  0  0  0  0  0  0  0  0  0  0
   37.8030   24.9320   37.2810 C   0  0  0  0  0  0  0  0  0  0  0  0
   38.5500   24.5580   36.1760 C   0  0  0  0  0  0  0  0  0  0  0  0
   39.4910   23.5840   36.2170 C   0  0  0  0  0  0  0  0  0  0  0  0
   42.1190   20.9020   36.4210 H   0  0  0  0  0  0  0  0  0  0  0  0
   39.1810   22.7450   39.4570 H   0  0  0  0  0  0  0  0  0  0  0  0
   37.5170   24.4640   39.4350 H   0  0  0  0  0  0  0  0  0  0  0  0
   37.0350   25.6630   37.4360 H   0  0  0  0  0  0  0  0  0  0  0  0
   38.1300   25.3550   35.0140 C   0  0  0  0  0  0  0  0  0  0  0  0
   38.5330   26.6010   34.8830 N   0  0  0  0  0  0  0  0  0  0  0  0
   38.0840   27.2770   33.8470 C   0  0  0  0  0  0  0  0  0  0  0  0
   38.2890   28.2950   33.5600 H   0  0  0  0  0  0  0  0  0  0  0  0
   37.3140   26.4130   33.2260 N   0  0  0  0  0  0  0  0  0  0  0  0
   36.7410   26.4720   32.3610 H   0  0  0  0  0  0  0  0  0  0  0  0
   37.3940   25.3720   33.9370 N   0  0  0  0  0  0  0  0  0  0  0  0
   39.9500   24.1120   33.6210 S   0  0  0  0  0  0  0  0  0  0  0  0
   37.7660   22.1520   33.6770 F   0  0  0  0  0  0  0  0  0  0  0  0
   38.3620   22.1960   32.4460 C   0  0  0  0  0  0  0  0  0  0  0  0
   37.9300   21.3820   31.4130 C   0  0  0  0  0  0  0  0  0  0  0  0
   38.5760   21.4690   30.1650 C   0  0  0  0  0  0  0  0  0  0  0  0
   39.6340   22.3580   29.9670 C   0  0  0  0  0  0  0  0  0  0  0  0
   40.0060   23.1360   31.0480 C   0  0  0  0  0  0  0  0  0  0  0  0
   39.4000   23.0800   32.2800 C   0  0  0  0  0  0  0  0  0  0  0  0
   38.2010   20.8090   29.3860 H   0  0  0  0  0  0  0  0  0  0  0  0
   40.1020   22.3960   29.0030 H   0  0  0  0  0  0  0  0  0  0  0  0
   40.8280   23.7980   30.8190 H   0  0  0  0  0  0  0  0  0  0  0  0
   37.2330   19.1880   31.9400 C   0  0  0  0  0  0  0  0  0  0  0  0
   36.8530   20.4990   31.6730 C   0  0  0  0  0  0  0  0  0  0  0  0
   35.4950   20.7760   31.6950 C   0  0  0  0  0  0  0  0  0  0  0  0
   34.6260   19.7560   31.9720 N   0  0  0  0  0  0  0  0  0  0  0  0
   35.0310   18.5240   32.2190 C   0  0  0  0  0  0  0  0  0  0  0  0
   36.3300   18.2120   32.2090 N   0  0  0  0  0  0  0  0  0  0  0  0
   38.2710   18.8230   31.9570 H   0  0  0  0  0  0  0  0  0  0  0  0
   35.2310   21.7830   31.4880 H   0  0  0  0  0  0  0  0  0  0  0  0
   34.2550   17.7850   32.4290 H   0  0  0  0  0  0  0  0  0  0  0  0
  1  2  2  0  0  0  0
  1 10  1  0  0  0  0
  2  3  1  0  0  0  0
  3  4  2  0  0  0  0
  5  4  1  0  0  0  0
  5  6  1  0  0  0  0
  6 12  1  0  0  0  0
  7  6  2  0  0  0  0
  7 13  1  0  0  0  0
  8 14  1  0  0  0  0
  8  7  1  0  0  0  0
  9 10  1  0  0  0  0
  9  8  2  0  0  0  0
 10  5  2  0  0  0  0
 11  3  1  0  0  0  0
 15  9  1  0  0  0  0
 16 15  1  0  0  0  0
 17 16  2  0  0  0  0
 18 17  1  0  0  0  0
 19 17  1  0  0  0  0
 19 21  1  0  0  0  0
 20 19  1  0  0  0  0
 21 15  2  0  0  0  0
 22  1  1  0  0  0  0
 24 23  1  0  0  0  0
 25 34  1  0  0  0  0
 25 24  2  0  0  0  0
 26 25  1  0  0  0  0
 27 26  2  0  0  0  0
 27 28  1  0  0  0  0
 28 29  2  0  0  0  0
 29 24  1  0  0  0  0
 29 22  1  0  0  0  0
 30 26  1  0  0  0  0
 31 27  1  0  0  0  0
 32 28  1  0  0  0  0
 33 39  1  0  0  0  0
 33 38  1  0  0  0  0
 34 35  1  0  0  0  0
 34 33  2  0  0  0  0
 35 36  2  0  0  0  0
 36 37  1  0  0  0  0
 37 41  1  0  0  0  0
 38 37  2  0  0  0  0
 40 35  1  0  0  0  0
M  END
>  <minimizedAffinity>
-6.02116394

$$$$

 OpenBabel03262521423D

 41 45  0  0  0  0  0  0  0  0999 V2000
   40.4820   25.0720   34.5940 C   0  0  0  0  0  0  0  0  0  0  0  0
   41.0860   25.9650   33.7640 N   0  0  0  0  0  0  0  0  0  0  0  0
   42.4400   25.9740   33.6360 C   0  0  0  0  0  0  0  0  0  0  0  0
   43.2340   25.1290   34.3010 N   0  0  0  0  0  0  0  0  0  0  0  0
   42.6830   24.2180   35.1410 C   0  0  0  0  0  0  0  0  0  0  0  0
   43.5040   23.3740   35.8300 C   0  0  0  0  0  0  0  0  0  0  0  0
   42.9790   22.4570   36.7010 C   0  0  0  0  0  0  0  0  0  0  0  0
   41.5940   22.3990   36.8710 C   0  0  0  0  0  0  0  0  0  0  0  0
   40.7950   23.2730   36.1510 C   0  0  0  0  0  0  0  0  0  0  0  0
   41.2960   24.1880   35.2880 C   0  0  0  0  0  0  0  0  0  0  0  0
   42.7640   26.7370   32.9440 H   0  0  0  0  0  0  0  0  0  0  0  0
   44.5590   23.4670   35.6530 H   0  0  0  0  0  0  0  0  0  0  0  0
   43.7210   21.8410   37.1950 H   0  0  0  0  0  0  0  0  0  0  0  0
   41.3830   21.6260   37.5830 H   0  0  0  0  0  0  0  0  0  0  0  0
   39.3840   23.0110   36.4660 C   0  0  0  0  0  0  0  0  0  0  0  0
   38.8450   23.5000   37.5630 N   0  0  0  0  0  0  0  0  0  0  0  0
   37.5910   23.1910   37.8120 C   0  0  0  0  0  0  0  0  0  0  0  0
   36.9730   23.4840   38.6440 H   0  0  0  0  0  0  0  0  0  0  0  0
   37.2540   22.4270   36.7970 N   0  0  0  0  0  0  0  0  0  0  0  0
   36.3730   21.9400   36.5430 H   0  0  0  0  0  0  0  0  0  0  0  0
   38.3030   22.3780   36.0970 N   0  0  0  0  0  0  0  0  0  0  0  0
   38.7590   24.9730   34.8680 S   0  0  0  0  0  0  0  0  0  0  0  0
   38.6990   22.5310   33.2400 F   0  0  0  0  0  0  0  0  0  0  0  0
   37.8830   23.4970   32.7170 C   0  0  0  0  0  0  0  0  0  0  0  0
   37.1570   23.2700   31.5600 C   0  0  0  0  0  0  0  0  0  0  0  0
   36.3300   24.2960   31.0660 C   0  0  0  0  0  0  0  0  0  0  0  0
   36.2390   25.5230   31.7260 C   0  0  0  0  0  0  0  0  0  0  0  0
   36.9940   25.6710   32.8740 C   0  0  0  0  0  0  0  0  0  0  0  0
   37.8120   24.6940   33.3880 C   0  0  0  0  0  0  0  0  0  0  0  0
   35.7810   24.0690   30.1540 H   0  0  0  0  0  0  0  0  0  0  0  0
   35.5980   26.2800   31.3190 H   0  0  0  0  0  0  0  0  0  0  0  0
   36.8710   26.6430   33.3280 H   0  0  0  0  0  0  0  0  0  0  0  0
   36.2030   21.1570   31.1090 C   0  0  0  0  0  0  0  0  0  0  0  0
   37.2910   22.0060   30.9340 C   0  0  0  0  0  0  0  0  0  0  0  0
   38.3510   21.5210   30.1840 C   0  0  0  0  0  0  0  0  0  0  0  0
   38.2620   20.2550   29.6710 N   0  0  0  0  0  0  0  0  0  0  0  0
   37.2090   19.4840   29.8620 C   0  0  0  0  0  0  0  0  0  0  0  0
   36.1640   19.9090   30.5780 N   0  0  0  0  0  0  0  0  0  0  0  0
   35.2940   21.4060   31.6780 H   0  0  0  0  0  0  0  0  0  0  0  0
   39.1690   22.1870   30.0660 H   0  0  0  0  0  0  0  0  0  0  0  0
   37.2390   18.4900   29.4090 H   0  0  0  0  0  0  0  0  0  0  0  0
  1 22  1  0  0  0  0
  1 10  1  0  0  0  0
  2  1  2  0  0  0  0
  3  2  1  0  0  0  0
  3  4  2  0  0  0  0
  4  5  1  0  0  0  0
  5 10  2  0  0  0  0
  5  6  1  0  0  0  0
  6  7  2  0  0  0  0
  7  8  1  0  0  0  0
  7 13  1  0  0  0  0
  8 14  1  0  0  0  0
  9 15  1  0  0  0  0
  9  8  2  0  0  0  0
 10  9  1  0  0  0  0
 11  3  1  0  0  0  0
 12  6  1  0  0  0  0
 15 16  1  0  0  0  0
 16 17  2  0  0  0  0
 17 18  1  0  0  0  0
 19 17  1  0  0  0  0
 20 19  1  0  0  0  0
 21 15  2  0  0  0  0
 21 19  1  0  0  0  0
 24 23  1  0  0  0  0
 24 29  1  0  0  0  0
 25 24  2  0  0  0  0
 26 25  1  0  0  0  0
 26 27  2  0  0  0  0
 27 28  1  0  0  0  0
 28 32  1  0  0  0  0
 28 29  2  0  0  0  0
 29 22  1  0  0  0  0
 30 26  1  0  0  0  0
 31 27  1  0  0  0  0
 33 39  1  0  0  0  0
 34 33  1  0  0  0  0
 34 25  1  0  0  0  0
 35 34  2  0  0  0  0
 36 37  2  0  0  0  0
 36 35  1  0  0  0  0
 37 38  1  0  0  0  0
 38 33  2  0  0  0  0
 40 35  1  0  0  0  0
 41 37  1  0  0  0  0
M  END
>  <minimizedAffinity>
-6.01128054

$$$$

 OpenBabel03262521423D

 41 45  0  0  0  0  0  0  0  0999 V2000
   38.8540   23.9640   34.9810 C   0  0  0  0  0  0  0  0  0  0  0  0
   37.8590   24.5420   35.7070 N   0  0  0  0  0  0  0  0  0  0  0  0
   37.7860   24.3430   37.0500 C   0  0  0  0  0  0  0  0  0  0  0  0
   38.6640   23.5890   37.7170 N   0  0  0  0  0  0  0  0  0  0  0  0
   39.6770   22.9900   37.0430 C   0  0  0  0  0  0  0  0  0  0  0  0
   40.5560   22.2070   37.7320 C   0  0  0  0  0  0  0  0  0  0  0  0
   41.5770   21.5720   37.0750 C   0  0  0  0  0  0  0  0  0  0  0  0
   41.7040   21.7420   35.6940 C   0  0  0  0  0  0  0  0  0  0  0  0
   40.7920   22.5480   35.0340 C   0  0  0  0  0  0  0  0  0  0  0  0
   39.7740   23.1800   35.6650 C   0  0  0  0  0  0  0  0  0  0  0  0
   36.9440   24.8660   37.4790 H   0  0  0  0  0  0  0  0  0  0  0  0
   40.4060   22.1190   38.7910 H   0  0  0  0  0  0  0  0  0  0  0  0
   42.2120   20.9750   37.7180 H   0  0  0  0  0  0  0  0  0  0  0  0
   42.5540   21.1730   35.3710 H   0  0  0  0  0  0  0  0  0  0  0  0
   41.1380   22.6020   33.6060 C   0  0  0  0  0  0  0  0  0  0  0  0
   40.9070   21.5660   32.8270 N   0  0  0  0  0  0  0  0  0  0  0  0
   41.2830   21.6590   31.5690 C   0  0  0  0  0  0  0  0  0  0  0  0
   41.1870   20.9350   30.7770 H   0  0  0  0  0  0  0  0  0  0  0  0
   41.8120   22.8600   31.4930 N   0  0  0  0  0  0  0  0  0  0  0  0
   42.2460   23.3920   30.7140 H   0  0  0  0  0  0  0  0  0  0  0  0
   41.6920   23.3160   32.6640 N   0  0  0  0  0  0  0  0  0  0  0  0
   39.0460   24.1160   33.2520 S   0  0  0  0  0  0  0  0  0  0  0  0
   38.1840   26.8820   32.7790 F   0  0  0  0  0  0  0  0  0  0  0  0
   37.2860   25.9870   32.2640 C   0  0  0  0  0  0  0  0  0  0  0  0
   36.1380   26.4170   31.6190 C   0  0  0  0  0  0  0  0  0  0  0  0
   35.2490   25.4540   31.1050 C   0  0  0  0  0  0  0  0  0  0  0  0
   35.5140   24.0900   31.2400 C   0  0  0  0  0  0  0  0  0  0  0  0
   36.6790   23.7420   31.8960 C   0  0  0  0  0  0  0  0  0  0  0  0
   37.5720   24.6510   32.4110 C   0  0  0  0  0  0  0  0  0  0  0  0
   34.3620   25.8420   30.6080 H   0  0  0  0  0  0  0  0  0  0  0  0
   34.8120   23.3870   30.8350 H   0  0  0  0  0  0  0  0  0  0  0  0
   36.8160   22.6730   31.9600 H   0  0  0  0  0  0  0  0  0  0  0  0
   36.5510   28.4130   30.4280 C   0  0  0  0  0  0  0  0  0  0  0  0
   35.9230   27.8130   31.5140 C   0  0  0  0  0  0  0  0  0  0  0  0
   35.1790   28.6380   32.3440 C   0  0  0  0  0  0  0  0  0  0  0  0
   35.1110   29.9720   32.0460 N   0  0  0  0  0  0  0  0  0  0  0  0
   35.7240   30.4990   31.0030 C   0  0  0  0  0  0  0  0  0  0  0  0
   36.4520   29.7430   30.1760 N   0  0  0  0  0  0  0  0  0  0  0  0
   37.1720   27.8860   29.6880 H   0  0  0  0  0  0  0  0  0  0  0  0
   34.7100   28.1550   33.1650 H   0  0  0  0  0  0  0  0  0  0  0  0
   35.6050   31.5750   30.8560 H   0  0  0  0  0  0  0  0  0  0  0  0
  1 10  2  0  0  0  0
  1  2  1  0  0  0  0
  2  3  2  0  0  0  0
  3 11  1  0  0  0  0
  3  4  1  0  0  0  0
  5  4  2  0  0  0  0
  5  6  1  0  0  0  0
  6 12  1  0  0  0  0
  7 13  1  0  0  0  0
  7  6  2  0  0  0  0
  8  7  1  0  0  0  0
  9 10  1  0  0  0  0
  9  8  2  0  0  0  0
 10  5  1  0  0  0  0
 14  8  1  0  0  0  0
 15  9  1  0  0  0  0
 16 15  1  0  0  0  0
 17 16  2  0  0  0  0
 18 17  1  0  0  0  0
 19 17  1  0  0  0  0
 19 21  1  0  0  0  0
 20 19  1  0  0  0  0
 21 15  2  0  0  0  0
 22  1  1  0  0  0  0
 24 29  1  0  0  0  0
 24 23  1  0  0  0  0
 25 24  2  0  0  0  0
 26 27  2  0  0  0  0
 26 25  1  0  0  0  0
 27 28  1  0  0  0  0
 28 32  1  0  0  0  0
 28 29  2  0  0  0  0
 29 22  1  0  0  0  0
 30 26  1  0  0  0  0
 31 27  1  0  0  0  0
 33 34  1  0  0  0  0
 34 25  1  0  0  0  0
 34 35  2  0  0  0  0
 35 40  1  0  0  0  0
 36 35  1  0  0  0  0
 37 36  2  0  0  0  0
 38 33  2  0  0  0  0
 38 37  1  0  0  0  0
 39 33  1  0  0  0  0
 41 37  1  0  0  0  0
M  END
>  <minimizedAffinity>
-6.01070404

$$$$

 OpenBabel03262521423D

 41 45  0  0  0  0  0  0  0  0999 V2000
   39.2610   27.2140   31.8580 C   0  0  0  0  0  0  0  0  0  0  0  0
   39.1650   27.5990   30.5560 N   0  0  0  0  0  0  0  0  0  0  0  0
   40.2820   27.9340   29.8560 C   0  0  0  0  0  0  0  0  0  0  0  0
   41.5050   27.9060   30.3920 N   0  0  0  0  0  0  0  0  0  0  0  0
   41.6580   27.5300   31.6860 C   0  0  0  0  0  0  0  0  0  0  0  0
   42.9100   27.5250   32.2280 C   0  0  0  0  0  0  0  0  0  0  0  0
   43.0940   27.1690   33.5390 C   0  0  0  0  0  0  0  0  0  0  0  0
   41.9830   26.8100   34.3060 C   0  0  0  0  0  0  0  0  0  0  0  0
   40.7300   26.8270   33.7160 C   0  0  0  0  0  0  0  0  0  0  0  0
   40.5280   27.1790   32.4240 C   0  0  0  0  0  0  0  0  0  0  0  0
   40.0400   28.2160   28.8420 H   0  0  0  0  0  0  0  0  0  0  0  0
   43.7220   27.8070   31.5860 H   0  0  0  0  0  0  0  0  0  0  0  0
   44.1270   27.2020   33.8650 H   0  0  0  0  0  0  0  0  0  0  0  0
   42.3310   26.5670   35.2910 H   0  0  0  0  0  0  0  0  0  0  0  0
   39.7270   26.3890   34.6970 C   0  0  0  0  0  0  0  0  0  0  0  0
   39.2100   27.2490   35.5490 N   0  0  0  0  0  0  0  0  0  0  0  0
   38.3530   26.7860   36.4330 C   0  0  0  0  0  0  0  0  0  0  0  0
   37.8220   27.3160   37.2060 H   0  0  0  0  0  0  0  0  0  0  0  0
   38.2850   25.5030   36.1540 N   0  0  0  0  0  0  0  0  0  0  0  0
   37.7480   24.7180   36.5700 H   0  0  0  0  0  0  0  0  0  0  0  0
   39.0760   25.3650   35.1800 N   0  0  0  0  0  0  0  0  0  0  0  0
   37.9070   26.7850   32.8740 S   0  0  0  0  0  0  0  0  0  0  0  0
   37.9310   23.8490   32.8910 F   0  0  0  0  0  0  0  0  0  0  0  0
   36.8720   24.3330   32.1720 C   0  0  0  0  0  0  0  0  0  0  0  0
   35.9730   23.4760   31.5590 C   0  0  0  0  0  0  0  0  0  0  0  0
   34.8980   24.0260   30.8340 C   0  0  0  0  0  0  0  0  0  0  0  0
   34.7370   25.4090   30.7320 C   0  0  0  0  0  0  0  0  0  0  0  0
   35.6760   26.1970   31.3720 C   0  0  0  0  0  0  0  0  0  0  0  0
   36.7370   25.6980   32.0880 C   0  0  0  0  0  0  0  0  0  0  0  0
   34.2210   23.3120   30.3710 H   0  0  0  0  0  0  0  0  0  0  0  0
   33.9070   25.7900   30.1700 H   0  0  0  0  0  0  0  0  0  0  0  0
   35.4850   27.2520   31.2490 H   0  0  0  0  0  0  0  0  0  0  0  0
   35.3800   21.4650   32.6460 C   0  0  0  0  0  0  0  0  0  0  0  0
   36.1890   22.0830   31.6980 C   0  0  0  0  0  0  0  0  0  0  0  0
   37.0890   21.2770   31.0190 C   0  0  0  0  0  0  0  0  0  0  0  0
   37.1240   19.9420   31.3200 N   0  0  0  0  0  0  0  0  0  0  0  0
   36.3370   19.3980   32.2280 C   0  0  0  0  0  0  0  0  0  0  0  0
   35.4550   20.1360   32.9080 N   0  0  0  0  0  0  0  0  0  0  0  0
   34.6230   21.9770   33.2590 H   0  0  0  0  0  0  0  0  0  0  0  0
   37.6950   21.7720   30.3010 H   0  0  0  0  0  0  0  0  0  0  0  0
   36.4470   18.3230   32.3930 H   0  0  0  0  0  0  0  0  0  0  0  0
  1 10  1  0  0  0  0
  1 22  1  0  0  0  0
  2  1  2  0  0  0  0
  3  4  2  0  0  0  0
  3  2  1  0  0  0  0
  4  5  1  0  0  0  0
  5  6  2  0  0  0  0
  5 10  1  0  0  0  0
  6  7  1  0  0  0  0
  7 13  1  0  0  0  0
  7  8  2  0  0  0  0
  8 14  1  0  0  0  0
  9  8  1  0  0  0  0
  9 15  1  0  0  0  0
 10  9  2  0  0  0  0
 11  3  1  0  0  0  0
 12  6  1  0  0  0  0
 15 21  2  0  0  0  0
 15 16  1  0  0  0  0
 16 17  2  0  0  0  0
 17 18  1  0  0  0  0
 19 17  1  0  0  0  0
 19 20  1  0  0  0  0
 21 19  1  0  0  0  0
 24 23  1  0  0  0  0
 25 34  1  0  0  0  0
 25 24  2  0  0  0  0
 26 25  1  0  0  0  0
 27 26  2  0  0  0  0
 27 28  1  0  0  0  0
 28 29  2  0  0  0  0
 29 24  1  0  0  0  0
 29 22  1  0  0  0  0
 30 26  1  0  0  0  0
 31 27  1  0  0  0  0
 32 28  1  0  0  0  0
 33 38  1  0  0  0  0
 33 39  1  0  0  0  0
 34 33  2  0  0  0  0
 35 36  2  0  0  0  0
 35 34  1  0  0  0  0
 36 37  1  0  0  0  0
 37 41  1  0  0  0  0
 37 38  2  0  0  0  0
 40 35  1  0  0  0  0
M  END
>  <minimizedAffinity>
-5.9803319

$$$$

 OpenBabel03262521423D

 41 45  0  0  0  0  0  0  0  0999 V2000
   33.0560   29.8190   33.4920 C   0  0  0  0  0  0  0  0  0  0  0  0
   32.3210   28.8930   32.8190 N   0  0  0  0  0  0  0  0  0  0  0  0
   31.3060   28.2380   33.4440 C   0  0  0  0  0  0  0  0  0  0  0  0
   30.9810   28.4600   34.7210 N   0  0  0  0  0  0  0  0  0  0  0  0
   31.6820   29.3740   35.4380 C   0  0  0  0  0  0  0  0  0  0  0  0
   31.3550   29.5770   36.7460 C   0  0  0  0  0  0  0  0  0  0  0  0
   32.0580   30.4780   37.5020 C   0  0  0  0  0  0  0  0  0  0  0  0
   33.1090   31.1840   36.9120 C   0  0  0  0  0  0  0  0  0  0  0  0
   33.4070   30.9490   35.5800 C   0  0  0  0  0  0  0  0  0  0  0  0
   32.7260   30.0590   34.8190 C   0  0  0  0  0  0  0  0  0  0  0  0
   30.8210   27.5390   32.7790 H   0  0  0  0  0  0  0  0  0  0  0  0
   30.5350   29.0070   37.1400 H   0  0  0  0  0  0  0  0  0  0  0  0
   31.7150   30.5590   38.5270 H   0  0  0  0  0  0  0  0  0  0  0  0
   33.5270   31.8330   37.6570 H   0  0  0  0  0  0  0  0  0  0  0  0
   34.5200   31.8180   35.1720 C   0  0  0  0  0  0  0  0  0  0  0  0
   35.7030   31.6920   35.7360 N   0  0  0  0  0  0  0  0  0  0  0  0
   36.6450   32.5310   35.3610 C   0  0  0  0  0  0  0  0  0  0  0  0
   37.6670   32.5970   35.6950 H   0  0  0  0  0  0  0  0  0  0  0  0
   36.0470   33.2870   34.4680 N   0  0  0  0  0  0  0  0  0  0  0  0
   36.3700   34.0870   33.8890 H   0  0  0  0  0  0  0  0  0  0  0  0
   34.8720   32.8260   34.4210 N   0  0  0  0  0  0  0  0  0  0  0  0
   34.3990   30.7080   32.8160 S   0  0  0  0  0  0  0  0  0  0  0  0
   35.8370   28.6310   34.3120 F   0  0  0  0  0  0  0  0  0  0  0  0
   36.3090   28.7380   33.0320 C   0  0  0  0  0  0  0  0  0  0  0  0
   37.3400   27.9310   32.5810 C   0  0  0  0  0  0  0  0  0  0  0  0
   37.7860   28.0800   31.2540 C   0  0  0  0  0  0  0  0  0  0  0  0
   37.2040   29.0220   30.4040 C   0  0  0  0  0  0  0  0  0  0  0  0
   36.1800   29.7890   30.9290 C   0  0  0  0  0  0  0  0  0  0  0  0
   35.7170   29.6730   32.2170 C   0  0  0  0  0  0  0  0  0  0  0  0
   38.5980   27.4240   30.9480 H   0  0  0  0  0  0  0  0  0  0  0  0
   37.5710   29.1060   29.4000 H   0  0  0  0  0  0  0  0  0  0  0  0
   35.7800   30.4910   30.2140 H   0  0  0  0  0  0  0  0  0  0  0  0
   37.4650   25.6850   33.2980 C   0  0  0  0  0  0  0  0  0  0  0  0
   37.8920   26.9950   33.4890 C   0  0  0  0  0  0  0  0  0  0  0  0
   38.7870   27.2190   34.5240 C   0  0  0  0  0  0  0  0  0  0  0  0
   39.1880   26.1520   35.2820 N   0  0  0  0  0  0  0  0  0  0  0  0
   38.7560   24.9240   35.0650 C   0  0  0  0  0  0  0  0  0  0  0  0
   37.8930   24.6610   34.0790 N   0  0  0  0  0  0  0  0  0  0  0  0
   36.7600   25.3590   32.5190 H   0  0  0  0  0  0  0  0  0  0  0  0
   39.0970   28.2270   34.6490 H   0  0  0  0  0  0  0  0  0  0  0  0
   39.1380   24.1450   35.7280 H   0  0  0  0  0  0  0  0  0  0  0  0
  1 10  1  0  0  0  0
  2  3  1  0  0  0  0
  2  1  2  0  0  0  0
  3  4  2  0  0  0  0
  4  5  1  0  0  0  0
  5  6  1  0  0  0  0
  6 12  1  0  0  0  0
  6  7  2  0  0  0  0
  7 13  1  0  0  0  0
  8  7  1  0  0  0  0
  8 14  1  0  0  0  0
  9  8  2  0  0  0  0
 10  5  2  0  0  0  0
 10  9  1  0  0  0  0
 11  3  1  0  0  0  0
 15  9  1  0  0  0  0
 15 16  1  0  0  0  0
 17 18  1  0  0  0  0
 17 16  2  0  0  0  0
 19 17  1  0  0  0  0
 20 19  1  0  0  0  0
 21 19  1  0  0  0  0
 21 15  2  0  0  0  0
 22  1  1  0  0  0  0
 24 23  1  0  0  0  0
 25 24  1  0  0  0  0
 25 34  1  0  0  0  0
 26 25  2  0  0  0  0
 27 28  2  0  0  0  0
 27 26  1  0  0  0  0
 28 29  1  0  0  0  0
 29 22  1  0  0  0  0
 29 24  2  0  0  0  0
 30 26  1  0  0  0  0
 31 27  1  0  0  0  0
 32 28  1  0  0  0  0
 33 34  2  0  0  0  0
 33 38  1  0  0  0  0
 34 35  1  0  0  0  0
 35 40  1  0  0  0  0
 35 36  2  0  0  0  0
 37 36  1  0  0  0  0
 37 41  1  0  0  0  0
 38 37  2  0  0  0  0
 39 33  1  0  0  0  0
M  END
>  <minimizedAffinity>
-5.90627718

$$$$
