
 OpenBabel03272504533D

 23 25  0  0  0  0  0  0  0  0999 V2000
   37.3200   31.3500   49.2380 C   0  0  0  0  0  0  0  0  0  0  0  0
   37.6770   32.6200   49.7420 C   0  0  0  0  0  0  0  0  0  0  0  0
   38.5780   33.3320   48.9730 C   0  0  0  0  0  0  0  0  0  0  0  0
   39.0630   32.8170   47.8200 N   0  0  0  0  0  0  0  0  0  0  0  0
   38.7050   31.5970   47.3600 C   0  0  0  0  0  0  0  0  0  0  0  0
   37.8180   30.8560   48.0860 N   0  0  0  0  0  0  0  0  0  0  0  0
   37.2860   33.0150   50.6530 H   0  0  0  0  0  0  0  0  0  0  0  0
   38.9200   34.3250   49.2740 H   0  0  0  0  0  0  0  0  0  0  0  0
   36.3230   30.5490   50.0350 C   0  0  0  0  0  0  0  0  0  0  0  0
   36.2900   29.0930   49.9340 C   0  0  0  0  0  0  0  0  0  0  0  0
   36.9860   29.7100   51.1160 C   0  0  0  0  0  0  0  0  0  0  0  0
   35.4590   31.1650   50.3610 H   0  0  0  0  0  0  0  0  0  0  0  0
   37.0090   28.6070   49.2080 H   0  0  0  0  0  0  0  0  0  0  0  0
   35.3970   28.5040   50.1250 H   0  0  0  0  0  0  0  0  0  0  0  0
   36.4670   29.7500   52.0940 H   0  0  0  0  0  0  0  0  0  0  0  0
   38.0730   29.6900   51.2020 H   0  0  0  0  0  0  0  0  0  0  0  0
   39.2280   31.0390   46.1160 C   0  0  0  0  0  0  0  0  0  0  0  0
   38.6010   30.3540   45.1180 N   0  0  0  0  0  0  0  0  0  0  0  0
   39.5310   30.0490   44.1680 C   0  0  0  0  0  0  0  0  0  0  0  0
   39.3580   29.5030   43.2370 H   0  0  0  0  0  0  0  0  0  0  0  0
   40.7280   30.5540   44.5940 N   0  0  0  0  0  0  0  0  0  0  0  0
   41.6540   30.5040   44.1130 H   0  0  0  0  0  0  0  0  0  0  0  0
   40.5460   31.1550   45.7750 N   0  0  0  0  0  0  0  0  0  0  0  0
  1  2  1  0  0  0  0
  1  9  1  0  0  0  0
  2  7  1  0  0  0  0
  3  8  1  0  0  0  0
  3  2  2  0  0  0  0
  4  3  1  0  0  0  0
  5  4  2  0  0  0  0
  5  6  1  0  0  0  0
  6  1  2  0  0  0  0
  9 12  1  0  0  0  0
  9 11  1  0  0  0  0
 10  9  1  0  0  0  0
 10 14  1  0  0  0  0
 10 11  1  0  0  0  0
 11 16  1  0  0  0  0
 11 15  1  0  0  0  0
 13 10  1  0  0  0  0
 17  5  1  0  0  0  0
 18 17  1  0  0  0  0
 19 21  1  0  0  0  0
 19 18  2  0  0  0  0
 20 19  1  0  0  0  0
 21 23  1  0  0  0  0
 22 21  1  0  0  0  0
 23 17  2  0  0  0  0
M  END
>  <minimizedAffinity>
-5.43907452

>  <minimizedRMSD>
0.615503967

$$$$
