
 OpenBabel03272510133D

 39 42  0  0  0  0  0  0  0  0999 V2000
   38.3640   31.6200   48.8500 C   0  0  0  0  0  0  0  0  0  0  0  0
   38.5510   32.8750   49.3830 C   0  0  0  0  0  0  0  0  0  0  0  0
   39.1960   33.6390   48.4050 C   0  0  0  0  0  0  0  0  0  0  0  0
   39.3720   32.8420   47.3460 N   0  0  0  0  0  0  0  0  0  0  0  0
   38.8850   31.6740   47.6180 N   0  0  0  0  0  0  0  0  0  0  0  0
   38.3250   33.3650   50.3200 H   0  0  0  0  0  0  0  0  0  0  0  0
   39.5190   34.6830   48.4370 H   0  0  0  0  0  0  0  0  0  0  0  0
   40.0020   33.2120   46.1110 C   0  0  0  0  0  0  0  0  0  0  0  0
   40.7340   34.0120   46.3340 H   0  0  0  0  0  0  0  0  0  0  0  0
   39.2740   33.7040   45.4040 H   0  0  0  0  0  0  0  0  0  0  0  0
   40.6420   32.0200   45.5000 C   0  0  0  0  0  0  0  0  0  0  0  0
   41.7250   32.2680   45.3690 H   0  0  0  0  0  0  0  0  0  0  0  0
   40.6650   31.2270   46.3090 H   0  0  0  0  0  0  0  0  0  0  0  0
   40.1120   31.4950   44.2660 C   0  0  0  0  0  0  0  0  0  0  0  0
   39.5440   30.2550   44.1870 N   0  0  0  0  0  0  0  0  0  0  0  0
   39.1250   30.0020   42.9390 C   0  0  0  0  0  0  0  0  0  0  0  0
   38.6380   29.1150   42.5540 H   0  0  0  0  0  0  0  0  0  0  0  0
   39.4250   31.0860   42.2060 N   0  0  0  0  0  0  0  0  0  0  0  0
   39.2710   31.2970   41.2020 H   0  0  0  0  0  0  0  0  0  0  0  0
   40.0060   31.9560   43.0070 N   0  0  0  0  0  0  0  0  0  0  0  0
   37.7340   30.7230   49.6880 O   0  0  0  0  0  0  0  0  0  0  0  0
   34.1480   28.9280   48.4160 C   0  0  0  0  0  0  0  0  0  0  0  0
   34.8980   28.3790   49.4100 C   0  0  0  0  0  0  0  0  0  0  0  0
   36.0740   28.9090   49.8730 C   0  0  0  0  0  0  0  0  0  0  0  0
   36.5700   30.0550   49.3420 C   0  0  0  0  0  0  0  0  0  0  0  0
   35.8140   30.6300   48.3220 C   0  0  0  0  0  0  0  0  0  0  0  0
   34.6580   30.0820   47.8880 N   0  0  0  0  0  0  0  0  0  0  0  0
   34.5760   27.4680   49.8870 H   0  0  0  0  0  0  0  0  0  0  0  0
   36.6650   28.4600   50.6700 H   0  0  0  0  0  0  0  0  0  0  0  0
   36.1280   31.5510   47.8300 H   0  0  0  0  0  0  0  0  0  0  0  0
   32.0570   27.6050   48.6930 C   0  0  0  0  0  0  0  0  0  0  0  0
   32.9210   28.3860   47.9210 C   0  0  0  0  0  0  0  0  0  0  0  0
   32.5440   28.6260   46.6170 C   0  0  0  0  0  0  0  0  0  0  0  0
   31.3710   28.1090   46.1390 N   0  0  0  0  0  0  0  0  0  0  0  0
   30.5720   27.3580   46.9340 C   0  0  0  0  0  0  0  0  0  0  0  0
   30.8980   27.0910   48.2260 N   0  0  0  0  0  0  0  0  0  0  0  0
   32.3090   27.3900   49.7200 H   0  0  0  0  0  0  0  0  0  0  0  0
   33.1880   29.2310   45.9810 H   0  0  0  0  0  0  0  0  0  0  0  0
   29.6680   27.0000   46.4480 H   0  0  0  0  0  0  0  0  0  0  0  0
  1  2  1  0  0  0  0
  1 21  1  0  0  0  0
  2  6  1  0  0  0  0
  3  7  1  0  0  0  0
  3  2  2  0  0  0  0
  4  5  1  0  0  0  0
  4  3  1  0  0  0  0
  5  1  2  0  0  0  0
  8  9  1  0  0  0  0
  8  4  1  0  0  0  0
 10  8  1  0  0  0  0
 11  8  1  0  0  0  0
 11 13  1  0  0  0  0
 12 11  1  0  0  0  0
 14 11  1  0  0  0  0
 15 14  1  0  0  0  0
 16 15  2  0  0  0  0
 17 16  1  0  0  0  0
 18 16  1  0  0  0  0
 18 20  1  0  0  0  0
 19 18  1  0  0  0  0
 20 14  2  0  0  0  0
 22 23  1  0  0  0  0
 23 24  2  0  0  0  0
 23 28  1  0  0  0  0
 24 29  1  0  0  0  0
 25 21  1  0  0  0  0
 25 24  1  0  0  0  0
 26 25  2  0  0  0  0
 27 26  1  0  0  0  0
 27 22  2  0  0  0  0
 30 26  1  0  0  0  0
 31 37  1  0  0  0  0
 32 22  1  0  0  0  0
 32 31  2  0  0  0  0
 33 32  1  0  0  0  0
 34 33  2  0  0  0  0
 34 35  1  0  0  0  0
 35 36  2  0  0  0  0
 36 31  1  0  0  0  0
 38 33  1  0  0  0  0
 39 35  1  0  0  0  0
M  END
>  <minimizedAffinity>
-5.97973967

>  <minimizedRMSD>
0.958713114

$$$$
