
 OpenBabel03272501083D

 38 41  0  0  1  0  0  0  0  0999 V2000
   38.7140   32.2570   47.8690 C   0  0  2  0  0  0  0  0  0  0  0  0
   37.8860   32.6600   49.1200 C   0  0  2  0  0  0  0  0  0  0  0  0
   38.8740   33.3930   49.8960 C   0  0  0  0  0  0  0  0  0  0  0  0
   39.6840   34.0870   49.0030 O   0  0  0  0  0  0  0  0  0  0  0  0
   39.4510   33.6230   47.7490 C   0  0  0  0  0  0  0  0  0  0  0  0
   39.4370   31.4860   48.1310 H   0  0  0  0  0  0  0  0  0  0  0  0
   37.0800   33.3080   48.6730 H   0  0  0  0  0  0  0  0  0  0  0  0
   38.3410   34.1910   50.4890 H   0  0  0  0  0  0  0  0  0  0  0  0
   39.4490   32.8010   50.5970 H   0  0  0  0  0  0  0  0  0  0  0  0
   40.4230   33.3640   47.2780 H   0  0  0  0  0  0  0  0  0  0  0  0
   38.8900   34.2770   47.0680 H   0  0  0  0  0  0  0  0  0  0  0  0
   37.1890   29.6650   51.2950 C   0  0  0  0  0  0  0  0  0  0  0  0
   37.8890   30.7750   50.7440 C   0  0  0  0  0  0  0  0  0  0  0  0
   37.2290   31.5250   49.7290 C   0  0  0  0  0  0  0  0  0  0  0  0
   35.9640   31.1490   49.3340 N   0  0  0  0  0  0  0  0  0  0  0  0
   35.3520   30.1000   49.8830 C   0  0  0  0  0  0  0  0  0  0  0  0
   35.9460   29.3530   50.8580 N   0  0  0  0  0  0  0  0  0  0  0  0
   37.6300   29.0540   52.0680 H   0  0  0  0  0  0  0  0  0  0  0  0
   38.8610   30.9960   51.1030 H   0  0  0  0  0  0  0  0  0  0  0  0
   34.3660   29.9130   49.4840 H   0  0  0  0  0  0  0  0  0  0  0  0
   37.9370   32.0880   46.7730 O   0  0  0  0  0  0  0  0  0  0  0  0
   40.4600   31.2620   45.2070 Cl  0  0  0  0  0  0  0  0  0  0  0  0
   38.8350   30.7200   44.8680 C   0  0  0  0  0  0  0  0  0  0  0  0
   37.8760   31.2410   45.7240 C   0  0  0  0  0  0  0  0  0  0  0  0
   36.5830   30.8150   45.4630 C   0  0  0  0  0  0  0  0  0  0  0  0
   36.2770   29.9470   44.4390 C   0  0  0  0  0  0  0  0  0  0  0  0
   37.2790   29.4720   43.6320 C   0  0  0  0  0  0  0  0  0  0  0  0
   38.5920   29.8520   43.8320 C   0  0  0  0  0  0  0  0  0  0  0  0
   35.7060   31.1150   46.0230 H   0  0  0  0  0  0  0  0  0  0  0  0
   35.2870   29.5970   44.2080 H   0  0  0  0  0  0  0  0  0  0  0  0
   37.0880   28.7890   42.8160 H   0  0  0  0  0  0  0  0  0  0  0  0
   39.7350   29.4100   43.0370 C   0  0  0  0  0  0  0  0  0  0  0  0
   40.7030   30.1420   42.4540 N   0  0  0  0  0  0  0  0  0  0  0  0
   41.5540   29.2850   41.8200 C   0  0  0  0  0  0  0  0  0  0  0  0
   42.3650   29.8330   41.3260 H   0  0  0  0  0  0  0  0  0  0  0  0
   41.0980   28.0180   42.0210 N   0  0  0  0  0  0  0  0  0  0  0  0
   41.6870   27.2990   41.5710 H   0  0  0  0  0  0  0  0  0  0  0  0
   40.0020   28.1180   42.7550 N   0  0  0  0  0  0  0  0  0  0  0  0
  1  6  1  1  0  0  0
  1  2  1  0  0  0  0
  2  7  1  6  0  0  0
  2 14  1  0  0  0  0
  2  3  1  0  0  0  0
  3  8  1  0  0  0  0
  3  9  1  0  0  0  0
  4  3  1  0  0  0  0
  5  1  1  0  0  0  0
  5  4  1  0  0  0  0
 10  5  1  0  0  0  0
 11  5  1  0  0  0  0
 12 18  1  0  0  0  0
 13 19  1  0  0  0  0
 13 12  2  0  0  0  0
 14 13  1  0  0  0  0
 15 14  2  0  0  0  0
 15 16  1  0  0  0  0
 16 17  2  0  0  0  0
 17 12  1  0  0  0  0
 20 16  1  0  0  0  0
 21  1  1  0  0  0  0
 23 22  1  0  0  0  0
 23 24  1  0  0  0  0
 24 21  1  0  0  0  0
 25 24  2  0  0  0  0
 25 29  1  0  0  0  0
 26 25  1  0  0  0  0
 27 28  1  0  0  0  0
 27 26  2  0  0  0  0
 28 23  2  0  0  0  0
 30 26  1  0  0  0  0
 31 27  1  0  0  0  0
 32 28  1  0  0  0  0
 33 32  1  0  0  0  0
 34 36  1  0  0  0  0
 34 33  2  0  0  0  0
 35 34  1  0  0  0  0
 36 38  1  0  0  0  0
 37 36  1  0  0  0  0
 38 32  2  0  0  0  0
M  END
>  <minimizedAffinity>
-6.31841373

>  <minimizedRMSD>
0.643303812

$$$$
