
 OpenBabel03272509213D

 44 48  0  0  0  0  0  0  0  0999 V2000
   38.0140   31.2860   47.7830 C   0  0  0  0  0  0  0  0  0  0  0  0
   37.0760   31.3140   48.7960 C   0  0  0  0  0  0  0  0  0  0  0  0
   37.1740   32.4200   49.6410 C   0  0  0  0  0  0  0  0  0  0  0  0
   38.1490   33.4060   49.4590 C   0  0  0  0  0  0  0  0  0  0  0  0
   39.0710   33.2890   48.3880 C   0  0  0  0  0  0  0  0  0  0  0  0
   38.9850   32.1940   47.5390 C   0  0  0  0  0  0  0  0  0  0  0  0
   36.4890   32.5470   50.4720 H   0  0  0  0  0  0  0  0  0  0  0  0
   38.2190   34.2620   50.1190 H   0  0  0  0  0  0  0  0  0  0  0  0
   39.8170   34.0450   48.2490 H   0  0  0  0  0  0  0  0  0  0  0  0
   34.9230   30.3120   48.2220 C   0  0  0  0  0  0  0  0  0  0  0  0
   36.0770   30.3080   48.9860 C   0  0  0  0  0  0  0  0  0  0  0  0
   36.2170   29.2850   49.9400 C   0  0  0  0  0  0  0  0  0  0  0  0
   35.2330   28.3720   50.0600 N   0  0  0  0  0  0  0  0  0  0  0  0
   34.1120   28.4170   49.2840 C   0  0  0  0  0  0  0  0  0  0  0  0
   33.9660   29.3800   48.3770 N   0  0  0  0  0  0  0  0  0  0  0  0
   34.7460   31.0710   47.4660 H   0  0  0  0  0  0  0  0  0  0  0  0
   33.4500   27.5870   49.5470 H   0  0  0  0  0  0  0  0  0  0  0  0
   37.4420   29.2280   50.7950 C   0  0  0  0  0  0  0  0  0  0  0  0
   37.3300   29.8590   51.7060 H   0  0  0  0  0  0  0  0  0  0  0  0
   37.6690   28.1850   51.0190 H   0  0  0  0  0  0  0  0  0  0  0  0
   38.2800   29.6510   50.1690 H   0  0  0  0  0  0  0  0  0  0  0  0
   37.9980   30.2110   46.8780 O   0  0  0  0  0  0  0  0  0  0  0  0
   37.4070   30.3380   46.0530 H   0  0  0  0  0  0  0  0  0  0  0  0
   39.9040   32.1350   46.5190 O   0  0  0  0  0  0  0  0  0  0  0  0
   40.1800   30.8980   44.3710 C   0  0  0  0  0  0  0  0  0  0  0  0
   39.6520   31.8780   45.2040 C   0  0  0  0  0  0  0  0  0  0  0  0
   38.7230   32.7630   44.6840 C   0  0  0  0  0  0  0  0  0  0  0  0
   38.3160   32.6750   43.3360 C   0  0  0  0  0  0  0  0  0  0  0  0
   37.4640   33.3590   42.5570 N   0  0  0  0  0  0  0  0  0  0  0  0
   37.4500   32.8480   41.3130 C   0  0  0  0  0  0  0  0  0  0  0  0
   38.3230   31.8090   41.3120 N   0  0  0  0  0  0  0  0  0  0  0  0
   38.8700   31.6820   42.5470 C   0  0  0  0  0  0  0  0  0  0  0  0
   39.7890   30.8060   43.0590 C   0  0  0  0  0  0  0  0  0  0  0  0
   40.8950   30.2580   44.8690 H   0  0  0  0  0  0  0  0  0  0  0  0
   38.2180   33.5830   45.2060 H   0  0  0  0  0  0  0  0  0  0  0  0
   36.8840   34.1870   42.8820 H   0  0  0  0  0  0  0  0  0  0  0  0
   36.8330   33.2490   40.5260 H   0  0  0  0  0  0  0  0  0  0  0  0
   40.3820   29.7530   42.2370 C   0  0  0  0  0  0  0  0  0  0  0  0
   39.8500   28.5110   42.1300 N   0  0  0  0  0  0  0  0  0  0  0  0
   40.6110   27.7620   41.3050 C   0  0  0  0  0  0  0  0  0  0  0  0
   40.4830   26.7290   40.9960 H   0  0  0  0  0  0  0  0  0  0  0  0
   41.6170   28.5990   40.9240 N   0  0  0  0  0  0  0  0  0  0  0  0
   42.3710   28.2540   40.2600 H   0  0  0  0  0  0  0  0  0  0  0  0
   41.4840   29.7910   41.4780 N   0  0  0  0  0  0  0  0  0  0  0  0
  1  2  1  0  0  0  0
  2 11  1  0  0  0  0
  2  3  2  0  0  0  0
  3  7  1  0  0  0  0
  4  3  1  0  0  0  0
  4  8  1  0  0  0  0
  5  4  2  0  0  0  0
  6  1  2  0  0  0  0
  6  5  1  0  0  0  0
  9  5  1  0  0  0  0
 10 15  2  0  0  0  0
 10 11  1  0  0  0  0
 11 12  2  0  0  0  0
 12 13  1  0  0  0  0
 12 18  1  0  0  0  0
 14 17  1  0  0  0  0
 14 13  2  0  0  0  0
 15 14  1  0  0  0  0
 16 10  1  0  0  0  0
 18 20  1  0  0  0  0
 18 19  1  0  0  0  0
 21 18  1  0  0  0  0
 22  1  1  0  0  0  0
 23 22  1  0  0  0  0
 24  6  1  0  0  0  0
 25 34  1  0  0  0  0
 25 26  1  0  0  0  0
 26 24  1  0  0  0  0
 27 26  2  0  0  0  0
 27 35  1  0  0  0  0
 28 27  1  0  0  0  0
 29 36  1  0  0  0  0
 29 28  1  0  0  0  0
 30 29  1  0  0  0  0
 31 30  2  0  0  0  0
 31 32  1  0  0  0  0
 32 33  1  0  0  0  0
 32 28  2  0  0  0  0
 33 25  2  0  0  0  0
 37 30  1  0  0  0  0
 38 33  1  0  0  0  0
 39 38  1  0  0  0  0
 40 39  2  0  0  0  0
 41 40  1  0  0  0  0
 42 40  1  0  0  0  0
 42 44  1  0  0  0  0
 43 42  1  0  0  0  0
 44 38  2  0  0  0  0
M  END
>  <minimizedAffinity>
-7.36745405

>  <minimizedRMSD>
0.493038297

$$$$
