
 OpenBabel03272510143D

 39 42  0  0  0  0  0  0  0  0999 V2000
   37.2660   24.8790   32.3280 C   0  0  0  0  0  0  0  0  0  0  0  0
   36.5040   23.9680   31.6320 C   0  0  0  0  0  0  0  0  0  0  0  0
   36.6630   22.7350   32.2730 C   0  0  0  0  0  0  0  0  0  0  0  0
   37.4900   22.9380   33.3040 N   0  0  0  0  0  0  0  0  0  0  0  0
   37.8320   24.1870   33.3230 N   0  0  0  0  0  0  0  0  0  0  0  0
   35.8590   23.9910   30.7650 H   0  0  0  0  0  0  0  0  0  0  0  0
   36.2260   21.7620   32.0320 H   0  0  0  0  0  0  0  0  0  0  0  0
   37.9350   21.9420   34.2350 C   0  0  0  0  0  0  0  0  0  0  0  0
   38.1610   21.0230   33.6600 H   0  0  0  0  0  0  0  0  0  0  0  0
   37.1080   21.6250   34.9330 H   0  0  0  0  0  0  0  0  0  0  0  0
   39.1190   22.4440   34.9760 C   0  0  0  0  0  0  0  0  0  0  0  0
   39.9460   21.7130   34.7960 H   0  0  0  0  0  0  0  0  0  0  0  0
   39.4730   23.3630   34.4170 H   0  0  0  0  0  0  0  0  0  0  0  0
   39.0020   22.7030   36.3900 C   0  0  0  0  0  0  0  0  0  0  0  0
   37.8500   23.1770   36.9510 N   0  0  0  0  0  0  0  0  0  0  0  0
   37.9920   23.3300   38.2750 C   0  0  0  0  0  0  0  0  0  0  0  0
   37.2690   23.6830   38.9980 H   0  0  0  0  0  0  0  0  0  0  0  0
   39.2450   22.9530   38.5730 N   0  0  0  0  0  0  0  0  0  0  0  0
   39.7540   22.9190   39.4770 H   0  0  0  0  0  0  0  0  0  0  0  0
   39.8250   22.5860   37.4480 N   0  0  0  0  0  0  0  0  0  0  0  0
   37.2290   26.1650   31.8280 O   0  0  0  0  0  0  0  0  0  0  0  0
   35.5930   29.2840   34.1290 C   0  0  0  0  0  0  0  0  0  0  0  0
   35.2250   29.0950   32.8330 C   0  0  0  0  0  0  0  0  0  0  0  0
   35.7160   28.1020   32.0270 C   0  0  0  0  0  0  0  0  0  0  0  0
   36.6320   27.2200   32.4990 C   0  0  0  0  0  0  0  0  0  0  0  0
   37.0210   27.4000   33.8270 C   0  0  0  0  0  0  0  0  0  0  0  0
   36.5170   28.3900   34.5950 N   0  0  0  0  0  0  0  0  0  0  0  0
   34.5010   29.7520   32.3770 H   0  0  0  0  0  0  0  0  0  0  0  0
   35.4130   27.9620   30.9910 H   0  0  0  0  0  0  0  0  0  0  0  0
   37.7520   26.7440   34.3000 H   0  0  0  0  0  0  0  0  0  0  0  0
   35.9130   31.1950   35.6940 C   0  0  0  0  0  0  0  0  0  0  0  0
   35.0910   30.3170   34.9820 C   0  0  0  0  0  0  0  0  0  0  0  0
   33.7310   30.4790   35.1320 C   0  0  0  0  0  0  0  0  0  0  0  0
   33.2470   31.4640   35.9480 N   0  0  0  0  0  0  0  0  0  0  0  0
   34.0910   32.2870   36.6140 C   0  0  0  0  0  0  0  0  0  0  0  0
   35.4400   32.1690   36.5010 N   0  0  0  0  0  0  0  0  0  0  0  0
   36.9850   31.1070   35.6080 H   0  0  0  0  0  0  0  0  0  0  0  0
   33.0540   29.8160   34.5940 H   0  0  0  0  0  0  0  0  0  0  0  0
   33.5950   33.0310   37.2330 H   0  0  0  0  0  0  0  0  0  0  0  0
  1  5  2  0  0  0  0
  2  3  2  0  0  0  0
  2  1  1  0  0  0  0
  3  4  1  0  0  0  0
  4  5  1  0  0  0  0
  4  8  1  0  0  0  0
  6  2  1  0  0  0  0
  7  3  1  0  0  0  0
  8 10  1  0  0  0  0
  8 11  1  0  0  0  0
  9  8  1  0  0  0  0
 11 14  1  0  0  0  0
 12 11  1  0  0  0  0
 13 11  1  0  0  0  0
 14 15  1  0  0  0  0
 14 20  2  0  0  0  0
 15 16  2  0  0  0  0
 16 18  1  0  0  0  0
 16 17  1  0  0  0  0
 18 19  1  0  0  0  0
 20 18  1  0  0  0  0
 21  1  1  0  0  0  0
 21 25  1  0  0  0  0
 22 27  1  0  0  0  0
 22 32  1  0  0  0  0
 23 22  2  0  0  0  0
 24 25  2  0  0  0  0
 24 23  1  0  0  0  0
 25 26  1  0  0  0  0
 26 30  1  0  0  0  0
 26 27  2  0  0  0  0
 28 23  1  0  0  0  0
 29 24  1  0  0  0  0
 31 36  1  0  0  0  0
 32 33  1  0  0  0  0
 32 31  2  0  0  0  0
 33 34  2  0  0  0  0
 34 35  1  0  0  0  0
 35 39  1  0  0  0  0
 36 35  2  0  0  0  0
 37 31  1  0  0  0  0
 38 33  1  0  0  0  0
M  END
>  <minimizedAffinity>
-5.748806

$$$$

 OpenBabel03272510143D

 39 42  0  0  0  0  0  0  0  0999 V2000
   36.8790   26.0260   31.2770 C   0  0  0  0  0  0  0  0  0  0  0  0
   35.5320   25.8170   31.0870 C   0  0  0  0  0  0  0  0  0  0  0  0
   35.3390   24.4330   31.0360 C   0  0  0  0  0  0  0  0  0  0  0  0
   36.5410   23.8690   31.1930 N   0  0  0  0  0  0  0  0  0  0  0  0
   37.4240   24.8050   31.3320 N   0  0  0  0  0  0  0  0  0  0  0  0
   34.6540   26.4400   30.9760 H   0  0  0  0  0  0  0  0  0  0  0  0
   34.4160   23.8620   30.8990 H   0  0  0  0  0  0  0  0  0  0  0  0
   36.8150   22.4610   31.2020 C   0  0  0  0  0  0  0  0  0  0  0  0
   37.9150   22.3340   31.2260 H   0  0  0  0  0  0  0  0  0  0  0  0
   36.5090   21.9720   30.2320 H   0  0  0  0  0  0  0  0  0  0  0  0
   36.1520   21.8300   32.3700 C   0  0  0  0  0  0  0  0  0  0  0  0
   36.8740   21.8890   33.2220 H   0  0  0  0  0  0  0  0  0  0  0  0
   35.3310   22.5430   32.6880 H   0  0  0  0  0  0  0  0  0  0  0  0
   35.6550   20.4810   32.2490 C   0  0  0  0  0  0  0  0  0  0  0  0
   36.4420   19.3900   32.4890 N   0  0  0  0  0  0  0  0  0  0  0  0
   35.7500   18.2560   32.3140 C   0  0  0  0  0  0  0  0  0  0  0  0
   36.0850   17.2330   32.4270 H   0  0  0  0  0  0  0  0  0  0  0  0
   34.5070   18.6150   31.9580 N   0  0  0  0  0  0  0  0  0  0  0  0
   33.6680   18.0470   31.7320 H   0  0  0  0  0  0  0  0  0  0  0  0
   34.4700   19.9320   31.9260 N   0  0  0  0  0  0  0  0  0  0  0  0
   37.2550   27.3510   31.3520 O   0  0  0  0  0  0  0  0  0  0  0  0
   35.4820   29.9280   34.1640 C   0  0  0  0  0  0  0  0  0  0  0  0
   35.4710   30.2190   32.8360 C   0  0  0  0  0  0  0  0  0  0  0  0
   36.0280   29.4270   31.8670 C   0  0  0  0  0  0  0  0  0  0  0  0
   36.6440   28.2640   32.1960 C   0  0  0  0  0  0  0  0  0  0  0  0
   36.6650   27.9510   33.5550 C   0  0  0  0  0  0  0  0  0  0  0  0
   36.1060   28.7540   34.4860 N   0  0  0  0  0  0  0  0  0  0  0  0
   35.0020   31.1250   32.4870 H   0  0  0  0  0  0  0  0  0  0  0  0
   36.0120   29.6720   30.8060 H   0  0  0  0  0  0  0  0  0  0  0  0
   37.1360   27.0390   33.9220 H   0  0  0  0  0  0  0  0  0  0  0  0
   33.5450   30.7430   35.5010 C   0  0  0  0  0  0  0  0  0  0  0  0
   34.9070   30.7460   35.1880 C   0  0  0  0  0  0  0  0  0  0  0  0
   35.7120   31.5920   35.9200 C   0  0  0  0  0  0  0  0  0  0  0  0
   35.1650   32.3760   36.8980 N   0  0  0  0  0  0  0  0  0  0  0  0
   33.8370   32.3320   37.1590 C   0  0  0  0  0  0  0  0  0  0  0  0
   33.0010   31.5150   36.4660 N   0  0  0  0  0  0  0  0  0  0  0  0
   32.8750   30.0960   34.9560 H   0  0  0  0  0  0  0  0  0  0  0  0
   36.7790   31.6250   35.7080 H   0  0  0  0  0  0  0  0  0  0  0  0
   33.5160   32.9980   37.9560 H   0  0  0  0  0  0  0  0  0  0  0  0
  1  5  2  0  0  0  0
  1 21  1  0  0  0  0
  2  1  1  0  0  0  0
  3  2  2  0  0  0  0
  3  4  1  0  0  0  0
  4  8  1  0  0  0  0
  4  5  1  0  0  0  0
  6  2  1  0  0  0  0
  7  3  1  0  0  0  0
  8  9  1  0  0  0  0
  8 11  1  0  0  0  0
 10  8  1  0  0  0  0
 11 13  1  0  0  0  0
 11 12  1  0  0  0  0
 14 11  1  0  0  0  0
 14 15  1  0  0  0  0
 16 17  1  0  0  0  0
 16 15  2  0  0  0  0
 18 16  1  0  0  0  0
 19 18  1  0  0  0  0
 20 18  1  0  0  0  0
 20 14  2  0  0  0  0
 21 25  1  0  0  0  0
 22 27  1  0  0  0  0
 22 32  1  0  0  0  0
 23 22  2  0  0  0  0
 24 25  2  0  0  0  0
 24 23  1  0  0  0  0
 25 26  1  0  0  0  0
 26 30  1  0  0  0  0
 26 27  2  0  0  0  0
 28 23  1  0  0  0  0
 29 24  1  0  0  0  0
 31 36  1  0  0  0  0
 32 31  2  0  0  0  0
 32 33  1  0  0  0  0
 33 34  2  0  0  0  0
 34 35  1  0  0  0  0
 35 39  1  0  0  0  0
 36 35  2  0  0  0  0
 37 31  1  0  0  0  0
 38 33  1  0  0  0  0
M  END
>  <minimizedAffinity>
-5.70589161

$$$$

 OpenBabel03272510143D

 39 42  0  0  0  0  0  0  0  0999 V2000
   36.0170   26.1360   31.6220 C   0  0  0  0  0  0  0  0  0  0  0  0
   35.1140   25.3220   30.9770 C   0  0  0  0  0  0  0  0  0  0  0  0
   35.4990   24.0030   31.2390 C   0  0  0  0  0  0  0  0  0  0  0  0
   36.5890   24.0630   32.0100 N   0  0  0  0  0  0  0  0  0  0  0  0
   36.8780   25.3070   32.2240 N   0  0  0  0  0  0  0  0  0  0  0  0
   34.2380   25.4650   30.3590 H   0  0  0  0  0  0  0  0  0  0  0  0
   35.0420   23.0650   30.9100 H   0  0  0  0  0  0  0  0  0  0  0  0
   37.3250   22.9410   32.5160 C   0  0  0  0  0  0  0  0  0  0  0  0
   37.7990   22.4350   31.6530 H   0  0  0  0  0  0  0  0  0  0  0  0
   36.6410   22.1550   32.9470 H   0  0  0  0  0  0  0  0  0  0  0  0
   38.3250   23.4060   33.5110 C   0  0  0  0  0  0  0  0  0  0  0  0
   39.2980   22.9280   33.2380 H   0  0  0  0  0  0  0  0  0  0  0  0
   38.5110   24.5000   33.2800 H   0  0  0  0  0  0  0  0  0  0  0  0
   38.0620   23.2040   34.9140 C   0  0  0  0  0  0  0  0  0  0  0  0
   38.0510   24.2360   35.8100 N   0  0  0  0  0  0  0  0  0  0  0  0
   37.7790   23.7920   37.0450 C   0  0  0  0  0  0  0  0  0  0  0  0
   37.6980   24.3550   37.9650 H   0  0  0  0  0  0  0  0  0  0  0  0
   37.6130   22.4640   36.9480 N   0  0  0  0  0  0  0  0  0  0  0  0
   37.3920   21.7460   37.6650 H   0  0  0  0  0  0  0  0  0  0  0  0
   37.7840   22.1360   35.6830 N   0  0  0  0  0  0  0  0  0  0  0  0
   35.7890   27.4880   31.4690 O   0  0  0  0  0  0  0  0  0  0  0  0
   34.8650   30.2020   34.5480 C   0  0  0  0  0  0  0  0  0  0  0  0
   35.9220   29.3520   34.6500 C   0  0  0  0  0  0  0  0  0  0  0  0
   36.2800   28.4450   33.6890 C   0  0  0  0  0  0  0  0  0  0  0  0
   35.5690   28.3430   32.5370 C   0  0  0  0  0  0  0  0  0  0  0  0
   34.4820   29.2080   32.4160 C   0  0  0  0  0  0  0  0  0  0  0  0
   34.1560   30.0910   33.3840 N   0  0  0  0  0  0  0  0  0  0  0  0
   36.5410   29.3670   35.5330 H   0  0  0  0  0  0  0  0  0  0  0  0
   37.1290   27.7690   33.7830 H   0  0  0  0  0  0  0  0  0  0  0  0
   33.8470   29.2040   31.5290 H   0  0  0  0  0  0  0  0  0  0  0  0
   35.2940   32.2100   35.9570 C   0  0  0  0  0  0  0  0  0  0  0  0
   34.4780   31.1540   35.5430 C   0  0  0  0  0  0  0  0  0  0  0  0
   33.2430   31.0490   36.1460 C   0  0  0  0  0  0  0  0  0  0  0  0
   32.8700   31.9550   37.0990 N   0  0  0  0  0  0  0  0  0  0  0  0
   33.7020   32.9600   37.4620 C   0  0  0  0  0  0  0  0  0  0  0  0
   34.9300   33.1070   36.8990 N   0  0  0  0  0  0  0  0  0  0  0  0
   36.2700   32.3330   35.5140 H   0  0  0  0  0  0  0  0  0  0  0  0
   32.5760   30.2400   35.8520 H   0  0  0  0  0  0  0  0  0  0  0  0
   33.3010   33.6190   38.2280 H   0  0  0  0  0  0  0  0  0  0  0  0
  1  5  2  0  0  0  0
  2  3  2  0  0  0  0
  2  1  1  0  0  0  0
  3  4  1  0  0  0  0
  4  5  1  0  0  0  0
  4  8  1  0  0  0  0
  6  2  1  0  0  0  0
  7  3  1  0  0  0  0
  8 10  1  0  0  0  0
  8 11  1  0  0  0  0
  9  8  1  0  0  0  0
 11 14  1  0  0  0  0
 12 11  1  0  0  0  0
 13 11  1  0  0  0  0
 14 20  2  0  0  0  0
 14 15  1  0  0  0  0
 15 16  2  0  0  0  0
 16 17  1  0  0  0  0
 18 16  1  0  0  0  0
 18 19  1  0  0  0  0
 20 18  1  0  0  0  0
 21  1  1  0  0  0  0
 21 25  1  0  0  0  0
 22 23  1  0  0  0  0
 22 32  1  0  0  0  0
 23 28  1  0  0  0  0
 24 29  1  0  0  0  0
 24 23  2  0  0  0  0
 25 24  1  0  0  0  0
 26 25  2  0  0  0  0
 26 27  1  0  0  0  0
 27 22  2  0  0  0  0
 30 26  1  0  0  0  0
 31 36  1  0  0  0  0
 32 31  2  0  0  0  0
 32 33  1  0  0  0  0
 33 34  2  0  0  0  0
 34 35  1  0  0  0  0
 35 39  1  0  0  0  0
 36 35  2  0  0  0  0
 37 31  1  0  0  0  0
 38 33  1  0  0  0  0
M  END
>  <minimizedAffinity>
-5.57602453

$$$$

 OpenBabel03272510143D

 39 42  0  0  0  0  0  0  0  0999 V2000
   35.7160   28.1690   32.5440 C   0  0  0  0  0  0  0  0  0  0  0  0
   36.2930   28.5570   33.7320 C   0  0  0  0  0  0  0  0  0  0  0  0
   35.3920   29.4250   34.3570 C   0  0  0  0  0  0  0  0  0  0  0  0
   34.3320   29.5290   33.5490 N   0  0  0  0  0  0  0  0  0  0  0  0
   34.5340   28.7950   32.5020 N   0  0  0  0  0  0  0  0  0  0  0  0
   37.2200   28.3540   34.2510 H   0  0  0  0  0  0  0  0  0  0  0  0
   35.4760   29.9460   35.3140 H   0  0  0  0  0  0  0  0  0  0  0  0
   33.1630   30.3240   33.7930 C   0  0  0  0  0  0  0  0  0  0  0  0
   32.4250   30.0860   33.0020 H   0  0  0  0  0  0  0  0  0  0  0  0
   33.3700   31.4230   33.6470 H   0  0  0  0  0  0  0  0  0  0  0  0
   32.6380   30.0380   35.1520 C   0  0  0  0  0  0  0  0  0  0  0  0
   33.5180   30.0310   35.8420 H   0  0  0  0  0  0  0  0  0  0  0  0
   32.0770   30.9680   35.4730 H   0  0  0  0  0  0  0  0  0  0  0  0
   31.8480   28.8500   35.3610 C   0  0  0  0  0  0  0  0  0  0  0  0
   31.8130   28.2000   36.5630 N   0  0  0  0  0  0  0  0  0  0  0  0
   31.0050   27.1320   36.5030 C   0  0  0  0  0  0  0  0  0  0  0  0
   30.7670   26.4190   37.2800 H   0  0  0  0  0  0  0  0  0  0  0  0
   30.5150   27.0900   35.2550 N   0  0  0  0  0  0  0  0  0  0  0  0
   29.8600   26.4280   34.7970 H   0  0  0  0  0  0  0  0  0  0  0  0
   31.0230   28.1120   34.5960 N   0  0  0  0  0  0  0  0  0  0  0  0
   36.4750   27.3020   31.7860 O   0  0  0  0  0  0  0  0  0  0  0  0
   36.0400   23.1180   31.8600 C   0  0  0  0  0  0  0  0  0  0  0  0
   35.1950   23.9030   31.1390 C   0  0  0  0  0  0  0  0  0  0  0  0
   35.2780   25.2690   31.0700 C   0  0  0  0  0  0  0  0  0  0  0  0
   36.2480   25.9360   31.7450 C   0  0  0  0  0  0  0  0  0  0  0  0
   37.1230   25.1460   32.4900 C   0  0  0  0  0  0  0  0  0  0  0  0
   37.0140   23.8010   32.5360 N   0  0  0  0  0  0  0  0  0  0  0  0
   34.3950   23.4540   30.5720 H   0  0  0  0  0  0  0  0  0  0  0  0
   34.5940   25.8860   30.4890 H   0  0  0  0  0  0  0  0  0  0  0  0
   37.9360   25.5860   33.0670 H   0  0  0  0  0  0  0  0  0  0  0  0
   35.5900   21.0080   33.1020 C   0  0  0  0  0  0  0  0  0  0  0  0
   35.9650   21.6920   31.9430 C   0  0  0  0  0  0  0  0  0  0  0  0
   36.2750   20.9250   30.8410 C   0  0  0  0  0  0  0  0  0  0  0  0
   36.2060   19.5620   30.9170 N   0  0  0  0  0  0  0  0  0  0  0  0
   35.8360   18.9510   32.0680 C   0  0  0  0  0  0  0  0  0  0  0  0
   35.5210   19.6610   33.1830 N   0  0  0  0  0  0  0  0  0  0  0  0
   35.3380   21.5650   33.9910 H   0  0  0  0  0  0  0  0  0  0  0  0
   36.5710   21.4190   29.9170 H   0  0  0  0  0  0  0  0  0  0  0  0
   35.8170   17.8660   32.0120 H   0  0  0  0  0  0  0  0  0  0  0  0
  1  2  1  0  0  0  0
  2  6  1  0  0  0  0
  2  3  2  0  0  0  0
  3  7  1  0  0  0  0
  4  8  1  0  0  0  0
  4  3  1  0  0  0  0
  5  1  2  0  0  0  0
  5  4  1  0  0  0  0
  8 11  1  0  0  0  0
  9  8  1  0  0  0  0
 10  8  1  0  0  0  0
 11 14  1  0  0  0  0
 11 13  1  0  0  0  0
 11 12  1  0  0  0  0
 14 15  1  0  0  0  0
 16 15  2  0  0  0  0
 16 17  1  0  0  0  0
 18 16  1  0  0  0  0
 19 18  1  0  0  0  0
 20 18  1  0  0  0  0
 20 14  2  0  0  0  0
 21  1  1  0  0  0  0
 22 32  1  0  0  0  0
 22 27  1  0  0  0  0
 23 22  2  0  0  0  0
 24 23  1  0  0  0  0
 24 25  2  0  0  0  0
 25 21  1  0  0  0  0
 25 26  1  0  0  0  0
 26 27  2  0  0  0  0
 26 30  1  0  0  0  0
 28 23  1  0  0  0  0
 29 24  1  0  0  0  0
 31 36  1  0  0  0  0
 31 37  1  0  0  0  0
 32 31  2  0  0  0  0
 33 34  2  0  0  0  0
 33 32  1  0  0  0  0
 34 35  1  0  0  0  0
 35 36  2  0  0  0  0
 38 33  1  0  0  0  0
 39 35  1  0  0  0  0
M  END
>  <minimizedAffinity>
-5.56472969

$$$$

 OpenBabel03272510143D

 39 42  0  0  0  0  0  0  0  0999 V2000
   35.2950   29.1220   33.5480 C   0  0  0  0  0  0  0  0  0  0  0  0
   34.3020   29.0660   32.5960 C   0  0  0  0  0  0  0  0  0  0  0  0
   33.2010   29.7530   33.1180 C   0  0  0  0  0  0  0  0  0  0  0  0
   33.5560   30.1870   34.3320 N   0  0  0  0  0  0  0  0  0  0  0  0
   34.7730   29.8140   34.5680 N   0  0  0  0  0  0  0  0  0  0  0  0
   34.1930   28.6410   31.6070 H   0  0  0  0  0  0  0  0  0  0  0  0
   32.2190   29.9350   32.6740 H   0  0  0  0  0  0  0  0  0  0  0  0
   32.7290   30.9380   35.2320 C   0  0  0  0  0  0  0  0  0  0  0  0
   32.6180   31.9570   34.8140 H   0  0  0  0  0  0  0  0  0  0  0  0
   33.2400   31.1080   36.2230 H   0  0  0  0  0  0  0  0  0  0  0  0
   31.4220   30.2550   35.3970 C   0  0  0  0  0  0  0  0  0  0  0  0
   30.6920   31.0320   35.7330 H   0  0  0  0  0  0  0  0  0  0  0  0
   31.0610   30.0090   34.3520 H   0  0  0  0  0  0  0  0  0  0  0  0
   31.3370   29.1050   36.2630 C   0  0  0  0  0  0  0  0  0  0  0  0
   30.9770   27.8700   35.8030 N   0  0  0  0  0  0  0  0  0  0  0  0
   30.9780   26.9720   36.7980 C   0  0  0  0  0  0  0  0  0  0  0  0
   30.7410   25.9170   36.7590 H   0  0  0  0  0  0  0  0  0  0  0  0
   31.3410   27.6290   37.9090 N   0  0  0  0  0  0  0  0  0  0  0  0
   31.4640   27.3060   38.8880 H   0  0  0  0  0  0  0  0  0  0  0  0
   31.5500   28.8870   37.5740 N   0  0  0  0  0  0  0  0  0  0  0  0
   36.4690   28.4860   33.1980 O   0  0  0  0  0  0  0  0  0  0  0  0
   38.3800   25.5160   35.4830 C   0  0  0  0  0  0  0  0  0  0  0  0
   38.2640   26.7920   35.9400 C   0  0  0  0  0  0  0  0  0  0  0  0
   37.6560   27.8080   35.2500 C   0  0  0  0  0  0  0  0  0  0  0  0
   37.1150   27.5830   34.0260 C   0  0  0  0  0  0  0  0  0  0  0  0
   37.2260   26.2790   33.5420 C   0  0  0  0  0  0  0  0  0  0  0  0
   37.8320   25.3010   34.2480 N   0  0  0  0  0  0  0  0  0  0  0  0
   38.6660   27.0570   36.9040 H   0  0  0  0  0  0  0  0  0  0  0  0
   37.5690   28.8250   35.6270 H   0  0  0  0  0  0  0  0  0  0  0  0
   36.8240   25.9970   32.5690 H   0  0  0  0  0  0  0  0  0  0  0  0
   38.5590   23.9590   37.4180 C   0  0  0  0  0  0  0  0  0  0  0  0
   39.0140   24.4460   36.1890 C   0  0  0  0  0  0  0  0  0  0  0  0
   40.1350   23.8450   35.6590 C   0  0  0  0  0  0  0  0  0  0  0  0
   40.7450   22.8230   36.3320 N   0  0  0  0  0  0  0  0  0  0  0  0
   40.2590   22.3910   37.5210 C   0  0  0  0  0  0  0  0  0  0  0  0
   39.1580   22.9500   38.0870 N   0  0  0  0  0  0  0  0  0  0  0  0
   37.6840   24.3970   37.8730 H   0  0  0  0  0  0  0  0  0  0  0  0
   40.5220   24.1940   34.7030 H   0  0  0  0  0  0  0  0  0  0  0  0
   40.8240   21.5750   37.9640 H   0  0  0  0  0  0  0  0  0  0  0  0
  1  5  2  0  0  0  0
  2  3  2  0  0  0  0
  2  1  1  0  0  0  0
  3  4  1  0  0  0  0
  4  5  1  0  0  0  0
  4  8  1  0  0  0  0
  6  2  1  0  0  0  0
  7  3  1  0  0  0  0
  8 11  1  0  0  0  0
  8 10  1  0  0  0  0
  9  8  1  0  0  0  0
 11 12  1  0  0  0  0
 11 14  1  0  0  0  0
 13 11  1  0  0  0  0
 14 20  2  0  0  0  0
 15 14  1  0  0  0  0
 15 16  2  0  0  0  0
 16 18  1  0  0  0  0
 17 16  1  0  0  0  0
 18 19  1  0  0  0  0
 20 18  1  0  0  0  0
 21  1  1  0  0  0  0
 21 25  1  0  0  0  0
 22 23  1  0  0  0  0
 22 32  1  0  0  0  0
 23 28  1  0  0  0  0
 24 29  1  0  0  0  0
 24 23  2  0  0  0  0
 25 24  1  0  0  0  0
 26 25  2  0  0  0  0
 26 27  1  0  0  0  0
 27 22  2  0  0  0  0
 30 26  1  0  0  0  0
 31 37  1  0  0  0  0
 31 36  1  0  0  0  0
 32 31  2  0  0  0  0
 33 32  1  0  0  0  0
 33 34  2  0  0  0  0
 34 35  1  0  0  0  0
 35 39  1  0  0  0  0
 35 36  2  0  0  0  0
 38 33  1  0  0  0  0
M  END
>  <minimizedAffinity>
-5.53514719

$$$$

 OpenBabel03272510143D

 39 42  0  0  0  0  0  0  0  0999 V2000
   35.4610   28.7370   32.2850 C   0  0  0  0  0  0  0  0  0  0  0  0
   35.5850   29.8470   31.4800 C   0  0  0  0  0  0  0  0  0  0  0  0
   34.5430   30.7140   31.8230 C   0  0  0  0  0  0  0  0  0  0  0  0
   33.8450   30.1170   32.7940 N   0  0  0  0  0  0  0  0  0  0  0  0
   34.3900   28.9710   33.0520 N   0  0  0  0  0  0  0  0  0  0  0  0
   36.2600   30.1730   30.7000 H   0  0  0  0  0  0  0  0  0  0  0  0
   34.2930   31.6990   31.4160 H   0  0  0  0  0  0  0  0  0  0  0  0
   32.6820   30.6480   33.4440 C   0  0  0  0  0  0  0  0  0  0  0  0
   31.7960   30.3090   32.8730 H   0  0  0  0  0  0  0  0  0  0  0  0
   32.6390   31.7720   33.3660 H   0  0  0  0  0  0  0  0  0  0  0  0
   32.6470   30.1920   34.8560 C   0  0  0  0  0  0  0  0  0  0  0  0
   31.5690   30.0660   35.1270 H   0  0  0  0  0  0  0  0  0  0  0  0
   33.0300   29.1270   34.8520 H   0  0  0  0  0  0  0  0  0  0  0  0
   33.3100   30.9830   35.8640 C   0  0  0  0  0  0  0  0  0  0  0  0
   34.6390   31.2910   35.7910 N   0  0  0  0  0  0  0  0  0  0  0  0
   35.0130   32.0360   36.8400 C   0  0  0  0  0  0  0  0  0  0  0  0
   35.9910   32.4390   37.0710 H   0  0  0  0  0  0  0  0  0  0  0  0
   33.9190   32.2120   37.5970 N   0  0  0  0  0  0  0  0  0  0  0  0
   33.7780   32.7240   38.4890 H   0  0  0  0  0  0  0  0  0  0  0  0
   32.9240   31.5840   37.0040 N   0  0  0  0  0  0  0  0  0  0  0  0
   36.4180   27.7640   32.0810 O   0  0  0  0  0  0  0  0  0  0  0  0
   38.2020   25.3470   35.0250 C   0  0  0  0  0  0  0  0  0  0  0  0
   37.9380   26.6610   35.2560 C   0  0  0  0  0  0  0  0  0  0  0  0
   37.3600   27.5050   34.3450 C   0  0  0  0  0  0  0  0  0  0  0  0
   37.0070   27.0540   33.1150 C   0  0  0  0  0  0  0  0  0  0  0  0
   37.2720   25.7090   32.8610 C   0  0  0  0  0  0  0  0  0  0  0  0
   37.8430   24.9030   33.7830 N   0  0  0  0  0  0  0  0  0  0  0  0
   38.1870   27.1010   36.2090 H   0  0  0  0  0  0  0  0  0  0  0  0
   37.1540   28.5560   34.5430 H   0  0  0  0  0  0  0  0  0  0  0  0
   37.0260   25.2510   31.9030 H   0  0  0  0  0  0  0  0  0  0  0  0
   40.0180   23.7960   35.7330 C   0  0  0  0  0  0  0  0  0  0  0  0
   38.8070   24.4540   35.9650 C   0  0  0  0  0  0  0  0  0  0  0  0
   38.1870   24.2080   37.1710 C   0  0  0  0  0  0  0  0  0  0  0  0
   38.7610   23.3540   38.0720 N   0  0  0  0  0  0  0  0  0  0  0  0
   39.9370   22.7430   37.7930 C   0  0  0  0  0  0  0  0  0  0  0  0
   40.5880   22.9510   36.6190 N   0  0  0  0  0  0  0  0  0  0  0  0
   40.5410   23.9570   34.8030 H   0  0  0  0  0  0  0  0  0  0  0  0
   37.2420   24.7010   37.3930 H   0  0  0  0  0  0  0  0  0  0  0  0
   40.2970   22.0860   38.5810 H   0  0  0  0  0  0  0  0  0  0  0  0
  1  5  2  0  0  0  0
  2  3  2  0  0  0  0
  2  1  1  0  0  0  0
  3  4  1  0  0  0  0
  4  5  1  0  0  0  0
  4  8  1  0  0  0  0
  6  2  1  0  0  0  0
  7  3  1  0  0  0  0
  8 11  1  0  0  0  0
  9  8  1  0  0  0  0
 10  8  1  0  0  0  0
 11 12  1  0  0  0  0
 11 14  1  0  0  0  0
 13 11  1  0  0  0  0
 14 20  2  0  0  0  0
 15 14  1  0  0  0  0
 15 16  2  0  0  0  0
 16 17  1  0  0  0  0
 16 18  1  0  0  0  0
 18 19  1  0  0  0  0
 20 18  1  0  0  0  0
 21  1  1  0  0  0  0
 21 25  1  0  0  0  0
 22 23  1  0  0  0  0
 22 32  1  0  0  0  0
 23 28  1  0  0  0  0
 24 29  1  0  0  0  0
 24 23  2  0  0  0  0
 25 24  1  0  0  0  0
 26 25  2  0  0  0  0
 26 27  1  0  0  0  0
 27 22  2  0  0  0  0
 30 26  1  0  0  0  0
 31 32  2  0  0  0  0
 31 36  1  0  0  0  0
 32 33  1  0  0  0  0
 33 38  1  0  0  0  0
 33 34  2  0  0  0  0
 35 34  1  0  0  0  0
 35 39  1  0  0  0  0
 36 35  2  0  0  0  0
 37 31  1  0  0  0  0
M  END
>  <minimizedAffinity>
-5.51513529

$$$$

 OpenBabel03272510143D

 39 42  0  0  0  0  0  0  0  0999 V2000
   36.5610   25.5260   31.4370 C   0  0  0  0  0  0  0  0  0  0  0  0
   35.3480   24.9510   31.1340 C   0  0  0  0  0  0  0  0  0  0  0  0
   35.5010   23.5710   31.2980 C   0  0  0  0  0  0  0  0  0  0  0  0
   36.7640   23.3640   31.6830 N   0  0  0  0  0  0  0  0  0  0  0  0
   37.3670   24.5080   31.7600 N   0  0  0  0  0  0  0  0  0  0  0  0
   34.3740   25.3040   30.8210 H   0  0  0  0  0  0  0  0  0  0  0  0
   34.7730   22.7670   31.1560 H   0  0  0  0  0  0  0  0  0  0  0  0
   37.3620   22.0910   31.9610 C   0  0  0  0  0  0  0  0  0  0  0  0
   38.4600   22.2300   31.9650 H   0  0  0  0  0  0  0  0  0  0  0  0
   37.1860   21.3560   31.1230 H   0  0  0  0  0  0  0  0  0  0  0  0
   36.8590   21.5750   33.2590 C   0  0  0  0  0  0  0  0  0  0  0  0
   35.8190   21.9680   33.3810 H   0  0  0  0  0  0  0  0  0  0  0  0
   36.6900   20.4650   33.1120 H   0  0  0  0  0  0  0  0  0  0  0  0
   37.6180   21.8350   34.4580 C   0  0  0  0  0  0  0  0  0  0  0  0
   38.9520   22.1300   34.4260 N   0  0  0  0  0  0  0  0  0  0  0  0
   39.4240   22.3340   35.6630 C   0  0  0  0  0  0  0  0  0  0  0  0
   40.4310   22.5830   35.9720 H   0  0  0  0  0  0  0  0  0  0  0  0
   38.3900   22.1690   36.5020 N   0  0  0  0  0  0  0  0  0  0  0  0
   38.3280   22.2380   37.5360 H   0  0  0  0  0  0  0  0  0  0  0  0
   37.3330   21.8760   35.7720 N   0  0  0  0  0  0  0  0  0  0  0  0
   36.5940   26.9010   31.3270 O   0  0  0  0  0  0  0  0  0  0  0  0
   35.3330   29.6240   34.2750 C   0  0  0  0  0  0  0  0  0  0  0  0
   36.2870   28.6910   34.5390 C   0  0  0  0  0  0  0  0  0  0  0  0
   36.7450   27.7750   33.6280 C   0  0  0  0  0  0  0  0  0  0  0  0
   36.2490   27.7510   32.3650 C   0  0  0  0  0  0  0  0  0  0  0  0
   35.2690   28.7010   32.0790 C   0  0  0  0  0  0  0  0  0  0  0  0
   34.8400   29.5910   33.0000 N   0  0  0  0  0  0  0  0  0  0  0  0
   36.7350   28.6400   35.5180 H   0  0  0  0  0  0  0  0  0  0  0  0
   37.5100   27.0330   33.8510 H   0  0  0  0  0  0  0  0  0  0  0  0
   34.8070   28.7640   31.0930 H   0  0  0  0  0  0  0  0  0  0  0  0
   35.6720   31.4660   35.9170 C   0  0  0  0  0  0  0  0  0  0  0  0
   34.8440   30.5850   35.2150 C   0  0  0  0  0  0  0  0  0  0  0  0
   33.4920   30.6700   35.4660 C   0  0  0  0  0  0  0  0  0  0  0  0
   33.0200   31.5860   36.3650 N   0  0  0  0  0  0  0  0  0  0  0  0
   33.8700   32.4160   37.0170 C   0  0  0  0  0  0  0  0  0  0  0  0
   35.2110   32.3720   36.8060 N   0  0  0  0  0  0  0  0  0  0  0  0
   36.7380   31.4380   35.7540 H   0  0  0  0  0  0  0  0  0  0  0  0
   32.8110   30.0020   34.9400 H   0  0  0  0  0  0  0  0  0  0  0  0
   33.3830   33.1010   37.7070 H   0  0  0  0  0  0  0  0  0  0  0  0
  1  5  2  0  0  0  0
  2  3  2  0  0  0  0
  2  1  1  0  0  0  0
  3  4  1  0  0  0  0
  4  5  1  0  0  0  0
  4  8  1  0  0  0  0
  6  2  1  0  0  0  0
  7  3  1  0  0  0  0
  8  9  1  0  0  0  0
  8 11  1  0  0  0  0
 10  8  1  0  0  0  0
 11 12  1  0  0  0  0
 11 14  1  0  0  0  0
 13 11  1  0  0  0  0
 14 20  2  0  0  0  0
 15 14  1  0  0  0  0
 15 16  2  0  0  0  0
 16 17  1  0  0  0  0
 16 18  1  0  0  0  0
 18 19  1  0  0  0  0
 20 18  1  0  0  0  0
 21  1  1  0  0  0  0
 21 25  1  0  0  0  0
 22 23  1  0  0  0  0
 22 32  1  0  0  0  0
 23 28  1  0  0  0  0
 24 29  1  0  0  0  0
 24 23  2  0  0  0  0
 25 24  1  0  0  0  0
 26 25  2  0  0  0  0
 26 27  1  0  0  0  0
 27 22  2  0  0  0  0
 30 26  1  0  0  0  0
 31 36  1  0  0  0  0
 32 33  1  0  0  0  0
 32 31  2  0  0  0  0
 33 34  2  0  0  0  0
 34 35  1  0  0  0  0
 35 39  1  0  0  0  0
 36 35  2  0  0  0  0
 37 31  1  0  0  0  0
 38 33  1  0  0  0  0
M  END
>  <minimizedAffinity>
-5.45296001

$$$$

 OpenBabel03272510143D

 39 42  0  0  0  0  0  0  0  0999 V2000
   36.6360   28.0880   32.2780 C   0  0  0  0  0  0  0  0  0  0  0  0
   36.6140   27.8910   33.6400 C   0  0  0  0  0  0  0  0  0  0  0  0
   35.9120   28.9670   34.1940 C   0  0  0  0  0  0  0  0  0  0  0  0
   35.5450   29.7530   33.1770 N   0  0  0  0  0  0  0  0  0  0  0  0
   35.9710   29.2310   32.0720 N   0  0  0  0  0  0  0  0  0  0  0  0
   36.9910   27.1450   34.3270 H   0  0  0  0  0  0  0  0  0  0  0  0
   35.6760   29.1810   35.2400 H   0  0  0  0  0  0  0  0  0  0  0  0
   34.8050   30.9780   33.2850 C   0  0  0  0  0  0  0  0  0  0  0  0
   33.8450   30.7460   33.7870 H   0  0  0  0  0  0  0  0  0  0  0  0
   34.4930   31.3660   32.2730 H   0  0  0  0  0  0  0  0  0  0  0  0
   35.6030   31.9790   34.0370 C   0  0  0  0  0  0  0  0  0  0  0  0
   36.6640   31.6280   34.0150 H   0  0  0  0  0  0  0  0  0  0  0  0
   35.6330   32.9070   33.3890 H   0  0  0  0  0  0  0  0  0  0  0  0
   35.2260   32.2990   35.3920 C   0  0  0  0  0  0  0  0  0  0  0  0
   34.6080   33.4720   35.7190 N   0  0  0  0  0  0  0  0  0  0  0  0
   34.3590   33.5290   37.0350 C   0  0  0  0  0  0  0  0  0  0  0  0
   33.8840   34.3190   37.6020 H   0  0  0  0  0  0  0  0  0  0  0  0
   34.8190   32.3840   37.5630 N   0  0  0  0  0  0  0  0  0  0  0  0
   34.8230   32.0320   38.5400 H   0  0  0  0  0  0  0  0  0  0  0  0
   35.3270   31.6710   36.5780 N   0  0  0  0  0  0  0  0  0  0  0  0
   37.2960   27.1100   31.5630 O   0  0  0  0  0  0  0  0  0  0  0  0
   36.3120   23.0210   31.5200 C   0  0  0  0  0  0  0  0  0  0  0  0
   35.4020   23.9690   31.1700 C   0  0  0  0  0  0  0  0  0  0  0  0
   35.6530   25.3160   31.1610 C   0  0  0  0  0  0  0  0  0  0  0  0
   36.8740   25.7920   31.5150 C   0  0  0  0  0  0  0  0  0  0  0  0
   37.8190   24.8320   31.8770 C   0  0  0  0  0  0  0  0  0  0  0  0
   37.5380   23.5110   31.8750 N   0  0  0  0  0  0  0  0  0  0  0  0
   34.4060   23.6780   30.8750 H   0  0  0  0  0  0  0  0  0  0  0  0
   34.9160   26.0650   30.8790 H   0  0  0  0  0  0  0  0  0  0  0  0
   38.8290   25.1130   32.1780 H   0  0  0  0  0  0  0  0  0  0  0  0
   34.9750   21.0290   32.1910 C   0  0  0  0  0  0  0  0  0  0  0  0
   36.0640   21.6120   31.5360 C   0  0  0  0  0  0  0  0  0  0  0  0
   36.9250   20.7580   30.8820 C   0  0  0  0  0  0  0  0  0  0  0  0
   36.6920   19.4100   30.8960 N   0  0  0  0  0  0  0  0  0  0  0  0
   35.6200   18.9010   31.5490 C   0  0  0  0  0  0  0  0  0  0  0  0
   34.7410   19.7000   32.2090 N   0  0  0  0  0  0  0  0  0  0  0  0
   34.2730   21.6570   32.7170 H   0  0  0  0  0  0  0  0  0  0  0  0
   37.7860   21.1710   30.3580 H   0  0  0  0  0  0  0  0  0  0  0  0
   35.5370   17.8180   31.4930 H   0  0  0  0  0  0  0  0  0  0  0  0
  1  2  1  0  0  0  0
  2  3  2  0  0  0  0
  2  6  1  0  0  0  0
  3  7  1  0  0  0  0
  4  8  1  0  0  0  0
  4  3  1  0  0  0  0
  5  1  2  0  0  0  0
  5  4  1  0  0  0  0
  8  9  1  0  0  0  0
  8 11  1  0  0  0  0
 10  8  1  0  0  0  0
 11 14  1  0  0  0  0
 12 11  1  0  0  0  0
 13 11  1  0  0  0  0
 14 15  1  0  0  0  0
 14 20  2  0  0  0  0
 15 16  2  0  0  0  0
 16 18  1  0  0  0  0
 16 17  1  0  0  0  0
 18 19  1  0  0  0  0
 20 18  1  0  0  0  0
 21  1  1  0  0  0  0
 22 32  1  0  0  0  0
 22 27  1  0  0  0  0
 23 22  2  0  0  0  0
 24 23  1  0  0  0  0
 24 25  2  0  0  0  0
 25 21  1  0  0  0  0
 25 26  1  0  0  0  0
 26 30  1  0  0  0  0
 27 26  2  0  0  0  0
 28 23  1  0  0  0  0
 29 24  1  0  0  0  0
 31 36  1  0  0  0  0
 31 37  1  0  0  0  0
 32 31  2  0  0  0  0
 33 34  2  0  0  0  0
 33 32  1  0  0  0  0
 34 35  1  0  0  0  0
 35 36  2  0  0  0  0
 38 33  1  0  0  0  0
 39 35  1  0  0  0  0
M  END
>  <minimizedAffinity>
-5.35659027

$$$$

 OpenBabel03272510143D

 39 42  0  0  0  0  0  0  0  0999 V2000
   37.2300   27.3040   32.7400 C   0  0  0  0  0  0  0  0  0  0  0  0
   38.5560   27.2760   32.3720 C   0  0  0  0  0  0  0  0  0  0  0  0
   39.0890   26.0820   32.8680 C   0  0  0  0  0  0  0  0  0  0  0  0
   38.0960   25.4480   33.5000 N   0  0  0  0  0  0  0  0  0  0  0  0
   37.0240   26.1690   33.4170 N   0  0  0  0  0  0  0  0  0  0  0  0
   39.2270   27.9240   31.8250 H   0  0  0  0  0  0  0  0  0  0  0  0
   40.1060   25.6860   32.7890 H   0  0  0  0  0  0  0  0  0  0  0  0
   38.1950   24.1820   34.1660 C   0  0  0  0  0  0  0  0  0  0  0  0
   38.3780   23.4100   33.3930 H   0  0  0  0  0  0  0  0  0  0  0  0
   37.2120   23.8740   34.6260 H   0  0  0  0  0  0  0  0  0  0  0  0
   39.2830   24.2320   35.1750 C   0  0  0  0  0  0  0  0  0  0  0  0
   40.1540   23.6830   34.7390 H   0  0  0  0  0  0  0  0  0  0  0  0
   39.6460   25.3050   35.1920 H   0  0  0  0  0  0  0  0  0  0  0  0
   39.0230   23.7470   36.5090 C   0  0  0  0  0  0  0  0  0  0  0  0
   37.9530   24.1710   37.2440 N   0  0  0  0  0  0  0  0  0  0  0  0
   37.9300   23.5720   38.4420 C   0  0  0  0  0  0  0  0  0  0  0  0
   37.2160   23.6920   39.2460 H   0  0  0  0  0  0  0  0  0  0  0  0
   38.9930   22.7540   38.4830 N   0  0  0  0  0  0  0  0  0  0  0  0
   39.3370   22.1140   39.2240 H   0  0  0  0  0  0  0  0  0  0  0  0
   39.6260   22.8700   37.3330 N   0  0  0  0  0  0  0  0  0  0  0  0
   36.5390   28.4260   32.3300 O   0  0  0  0  0  0  0  0  0  0  0  0
   33.3830   30.2070   34.4660 C   0  0  0  0  0  0  0  0  0  0  0  0
   34.6650   30.2690   34.9180 C   0  0  0  0  0  0  0  0  0  0  0  0
   35.7390   29.7130   34.2750 C   0  0  0  0  0  0  0  0  0  0  0  0
   35.5720   29.0440   33.1060 C   0  0  0  0  0  0  0  0  0  0  0  0
   34.2640   28.9700   32.6290 C   0  0  0  0  0  0  0  0  0  0  0  0
   33.2270   29.5300   33.2880 N   0  0  0  0  0  0  0  0  0  0  0  0
   34.8860   30.7830   35.8400 H   0  0  0  0  0  0  0  0  0  0  0  0
   36.7600   29.7700   34.6470 H   0  0  0  0  0  0  0  0  0  0  0  0
   34.0250   28.4540   31.6980 H   0  0  0  0  0  0  0  0  0  0  0  0
   32.3500   31.7990   36.0780 C   0  0  0  0  0  0  0  0  0  0  0  0
   32.2510   30.7800   35.1270 C   0  0  0  0  0  0  0  0  0  0  0  0
   30.9850   30.3240   34.8340 C   0  0  0  0  0  0  0  0  0  0  0  0
   29.9000   30.8680   35.4650 N   0  0  0  0  0  0  0  0  0  0  0  0
   30.0560   31.8550   36.3790 C   0  0  0  0  0  0  0  0  0  0  0  0
   31.2830   32.3400   36.7040 N   0  0  0  0  0  0  0  0  0  0  0  0
   33.3210   32.1900   36.3410 H   0  0  0  0  0  0  0  0  0  0  0  0
   30.8630   29.5310   34.0980 H   0  0  0  0  0  0  0  0  0  0  0  0
   29.1250   32.2110   36.8160 H   0  0  0  0  0  0  0  0  0  0  0  0
  1  5  2  0  0  0  0
  2  1  1  0  0  0  0
  2  3  2  0  0  0  0
  3  4  1  0  0  0  0
  4  8  1  0  0  0  0
  5  4  1  0  0  0  0
  6  2  1  0  0  0  0
  7  3  1  0  0  0  0
  8 10  1  0  0  0  0
  8 11  1  0  0  0  0
  9  8  1  0  0  0  0
 11 13  1  0  0  0  0
 11 14  1  0  0  0  0
 12 11  1  0  0  0  0
 14 15  1  0  0  0  0
 14 20  2  0  0  0  0
 15 16  2  0  0  0  0
 16 18  1  0  0  0  0
 16 17  1  0  0  0  0
 18 19  1  0  0  0  0
 20 18  1  0  0  0  0
 21  1  1  0  0  0  0
 21 25  1  0  0  0  0
 22 23  1  0  0  0  0
 22 32  1  0  0  0  0
 23 28  1  0  0  0  0
 24 29  1  0  0  0  0
 24 23  2  0  0  0  0
 25 24  1  0  0  0  0
 26 25  2  0  0  0  0
 26 27  1  0  0  0  0
 27 22  2  0  0  0  0
 30 26  1  0  0  0  0
 31 37  1  0  0  0  0
 31 36  1  0  0  0  0
 32 31  2  0  0  0  0
 33 32  1  0  0  0  0
 33 34  2  0  0  0  0
 34 35  1  0  0  0  0
 35 36  2  0  0  0  0
 35 39  1  0  0  0  0
 38 33  1  0  0  0  0
M  END
>  <minimizedAffinity>
-5.18544579

$$$$
