
 OpenBabel03272502263D

 38 41  0  0  0  0  0  0  0  0999 V2000
   37.6730   30.2210   51.0130 C   0  0  0  0  0  0  0  0  0  0  0  0
   38.1290   30.7910   49.8180 C   0  0  0  0  0  0  0  0  0  0  0  0
   37.4170   30.5060   48.6620 C   0  0  0  0  0  0  0  0  0  0  0  0
   36.3450   29.7040   48.7820 N   0  0  0  0  0  0  0  0  0  0  0  0
   35.9230   29.1660   49.9360 C   0  0  0  0  0  0  0  0  0  0  0  0
   36.5980   29.4310   51.0610 N   0  0  0  0  0  0  0  0  0  0  0  0
   38.2450   30.4580   51.9010 H   0  0  0  0  0  0  0  0  0  0  0  0
   38.9820   31.4280   49.7300 H   0  0  0  0  0  0  0  0  0  0  0  0
   37.7700   31.0300   47.3670 C   0  0  0  0  0  0  0  0  0  0  0  0
   37.0220   30.7100   46.2400 C   0  0  0  0  0  0  0  0  0  0  0  0
   37.3110   31.1860   44.9880 C   0  0  0  0  0  0  0  0  0  0  0  0
   38.3710   32.0060   44.8300 N   0  0  0  0  0  0  0  0  0  0  0  0
   39.0900   32.3090   45.9260 C   0  0  0  0  0  0  0  0  0  0  0  0
   38.8220   31.8550   47.1530 N   0  0  0  0  0  0  0  0  0  0  0  0
   36.1560   30.0520   46.3210 H   0  0  0  0  0  0  0  0  0  0  0  0
   36.7030   30.9120   44.1350 H   0  0  0  0  0  0  0  0  0  0  0  0
   40.2680   33.2120   45.7830 C   0  0  0  0  0  0  0  0  0  0  0  0
   40.3670   33.9560   46.9580 F   0  0  0  0  0  0  0  0  0  0  0  0
   41.4110   32.4830   45.5360 F   0  0  0  0  0  0  0  0  0  0  0  0
   40.0900   34.1180   44.7680 F   0  0  0  0  0  0  0  0  0  0  0  0
   34.7960   28.3610   49.8730 O   0  0  0  0  0  0  0  0  0  0  0  0
   33.6610   26.6550   46.8240 N   0  0  0  0  0  0  0  0  0  0  0  0
   34.2550   26.7820   48.0190 C   0  0  0  0  0  0  0  0  0  0  0  0
   34.2570   28.0020   48.6600 C   0  0  0  0  0  0  0  0  0  0  0  0
   33.6280   29.0850   48.0320 C   0  0  0  0  0  0  0  0  0  0  0  0
   33.5080   30.2810   48.4290 O   0  0  0  0  0  0  0  0  0  0  0  0
   33.0460   28.8870   46.8200 N   0  0  0  0  0  0  0  0  0  0  0  0
   33.0630   27.6870   46.2250 C   0  0  0  0  0  0  0  0  0  0  0  0
   32.5280   27.4750   45.0960 O   0  0  0  0  0  0  0  0  0  0  0  0
   33.7230   25.6910   46.4370 H   0  0  0  0  0  0  0  0  0  0  0  0
   34.7550   26.0120   48.5680 H   0  0  0  0  0  0  0  0  0  0  0  0
   32.3810   29.9080   46.0890 C   0  0  0  0  0  0  0  0  0  0  0  0
   32.6500   31.1340   45.5960 N   0  0  0  0  0  0  0  0  0  0  0  0
   31.5380   31.5910   44.9760 C   0  0  0  0  0  0  0  0  0  0  0  0
   31.5810   32.5570   44.5260 H   0  0  0  0  0  0  0  0  0  0  0  0
   30.5900   30.6410   45.0930 N   0  0  0  0  0  0  0  0  0  0  0  0
   29.6570   30.8180   44.6720 H   0  0  0  0  0  0  0  0  0  0  0  0
   31.0900   29.6150   45.7670 N   0  0  0  0  0  0  0  0  0  0  0  0
  1  6  1  0  0  0  0
  1  7  1  0  0  0  0
  2  1  2  0  0  0  0
  3  4  2  0  0  0  0
  3  2  1  0  0  0  0
  4  5  1  0  0  0  0
  5  6  2  0  0  0  0
  8  2  1  0  0  0  0
  9  3  1  0  0  0  0
 10 15  1  0  0  0  0
 10  9  2  0  0  0  0
 11 10  1  0  0  0  0
 12 11  2  0  0  0  0
 12 13  1  0  0  0  0
 13 14  2  0  0  0  0
 14  9  1  0  0  0  0
 16 11  1  0  0  0  0
 17 13  1  0  0  0  0
 17 18  1  0  0  0  0
 19 17  1  0  0  0  0
 20 17  1  0  0  0  0
 21  5  1  0  0  0  0
 22 23  1  0  0  0  0
 23 31  1  0  0  0  0
 23 24  2  0  0  0  0
 24 21  1  0  0  0  0
 25 26  2  0  0  0  0
 25 24  1  0  0  0  0
 27 25  1  0  0  0  0
 28 27  1  0  0  0  0
 28 22  1  0  0  0  0
 29 28  2  0  0  0  0
 30 22  1  0  0  0  0
 32 27  1  0  0  0  0
 33 32  1  0  0  0  0
 34 36  1  0  0  0  0
 34 33  2  0  0  0  0
 35 34  1  0  0  0  0
 36 38  1  0  0  0  0
 37 36  1  0  0  0  0
 38 32  2  0  0  0  0
M  END
>  <minimizedAffinity>
-6.64196491

>  <minimizedRMSD>
0.900075436

$$$$
