
 OpenBabel03272509213D

 44 48  0  0  0  0  0  0  0  0999 V2000
   38.0200   31.2840   47.7950 C   0  0  0  0  0  0  0  0  0  0  0  0
   37.0720   31.3080   48.7980 C   0  0  0  0  0  0  0  0  0  0  0  0
   37.1560   32.4170   49.6420 C   0  0  0  0  0  0  0  0  0  0  0  0
   38.1270   33.4080   49.4680 C   0  0  0  0  0  0  0  0  0  0  0  0
   39.0600   33.2940   48.4060 C   0  0  0  0  0  0  0  0  0  0  0  0
   38.9890   32.1980   47.5580 C   0  0  0  0  0  0  0  0  0  0  0  0
   36.4620   32.5410   50.4660 H   0  0  0  0  0  0  0  0  0  0  0  0
   38.1860   34.2650   50.1270 H   0  0  0  0  0  0  0  0  0  0  0  0
   39.8030   34.0540   48.2730 H   0  0  0  0  0  0  0  0  0  0  0  0
   34.9280   30.2970   48.2090 C   0  0  0  0  0  0  0  0  0  0  0  0
   36.0780   30.2980   48.9800 C   0  0  0  0  0  0  0  0  0  0  0  0
   36.2160   29.2730   49.9340 C   0  0  0  0  0  0  0  0  0  0  0  0
   35.2360   28.3560   50.0460 N   0  0  0  0  0  0  0  0  0  0  0  0
   34.1200   28.3960   49.2630 C   0  0  0  0  0  0  0  0  0  0  0  0
   33.9750   29.3600   48.3570 N   0  0  0  0  0  0  0  0  0  0  0  0
   34.7520   31.0570   47.4530 H   0  0  0  0  0  0  0  0  0  0  0  0
   33.4610   27.5620   49.5200 H   0  0  0  0  0  0  0  0  0  0  0  0
   37.4360   29.2210   50.7960 C   0  0  0  0  0  0  0  0  0  0  0  0
   37.3160   29.8500   51.7080 H   0  0  0  0  0  0  0  0  0  0  0  0
   37.6680   28.1790   51.0190 H   0  0  0  0  0  0  0  0  0  0  0  0
   38.2770   29.6500   50.1760 H   0  0  0  0  0  0  0  0  0  0  0  0
   38.0200   30.2080   46.8920 O   0  0  0  0  0  0  0  0  0  0  0  0
   37.4360   30.3290   46.0610 H   0  0  0  0  0  0  0  0  0  0  0  0
   39.9180   32.1420   46.5470 O   0  0  0  0  0  0  0  0  0  0  0  0
   40.2470   30.9440   44.3850 C   0  0  0  0  0  0  0  0  0  0  0  0
   39.6790   31.8930   45.2290 C   0  0  0  0  0  0  0  0  0  0  0  0
   38.7170   32.7470   44.7180 C   0  0  0  0  0  0  0  0  0  0  0  0
   38.3170   32.6620   43.3680 C   0  0  0  0  0  0  0  0  0  0  0  0
   37.4410   33.3220   42.5960 N   0  0  0  0  0  0  0  0  0  0  0  0
   37.4500   32.8270   41.3450 C   0  0  0  0  0  0  0  0  0  0  0  0
   38.3620   31.8230   41.3330 N   0  0  0  0  0  0  0  0  0  0  0  0
   38.9110   31.7010   42.5680 C   0  0  0  0  0  0  0  0  0  0  0  0
   39.8630   30.8540   43.0710 C   0  0  0  0  0  0  0  0  0  0  0  0
   40.9840   30.3270   44.8760 H   0  0  0  0  0  0  0  0  0  0  0  0
   38.1800   33.5410   45.2500 H   0  0  0  0  0  0  0  0  0  0  0  0
   36.8290   34.1220   42.9300 H   0  0  0  0  0  0  0  0  0  0  0  0
   36.8190   33.2140   40.5620 H   0  0  0  0  0  0  0  0  0  0  0  0
   40.4970   29.8360   42.2370 C   0  0  0  0  0  0  0  0  0  0  0  0
   39.8990   28.6630   41.9180 N   0  0  0  0  0  0  0  0  0  0  0  0
   40.7220   27.9300   41.1410 C   0  0  0  0  0  0  0  0  0  0  0  0
   40.5680   26.9480   40.7050 H   0  0  0  0  0  0  0  0  0  0  0  0
   41.8340   28.7080   41.0030 N   0  0  0  0  0  0  0  0  0  0  0  0
   42.6550   28.3610   40.4250 H   0  0  0  0  0  0  0  0  0  0  0  0
   41.7040   29.8490   41.6570 N   0  0  0  0  0  0  0  0  0  0  0  0
  1  2  1  0  0  0  0
  2 11  1  0  0  0  0
  2  3  2  0  0  0  0
  3  7  1  0  0  0  0
  4  3  1  0  0  0  0
  4  8  1  0  0  0  0
  5  4  2  0  0  0  0
  6  1  2  0  0  0  0
  6  5  1  0  0  0  0
  9  5  1  0  0  0  0
 10 15  2  0  0  0  0
 10 11  1  0  0  0  0
 11 12  2  0  0  0  0
 12 13  1  0  0  0  0
 12 18  1  0  0  0  0
 14 17  1  0  0  0  0
 14 13  2  0  0  0  0
 15 14  1  0  0  0  0
 16 10  1  0  0  0  0
 18 20  1  0  0  0  0
 18 19  1  0  0  0  0
 21 18  1  0  0  0  0
 22  1  1  0  0  0  0
 23 22  1  0  0  0  0
 24  6  1  0  0  0  0
 25 34  1  0  0  0  0
 25 26  1  0  0  0  0
 26 24  1  0  0  0  0
 27 26  2  0  0  0  0
 27 35  1  0  0  0  0
 28 27  1  0  0  0  0
 29 36  1  0  0  0  0
 29 28  1  0  0  0  0
 30 29  1  0  0  0  0
 31 30  2  0  0  0  0
 31 32  1  0  0  0  0
 32 33  1  0  0  0  0
 32 28  2  0  0  0  0
 33 25  2  0  0  0  0
 37 30  1  0  0  0  0
 38 33  1  0  0  0  0
 39 38  1  0  0  0  0
 40 39  2  0  0  0  0
 41 40  1  0  0  0  0
 42 40  1  0  0  0  0
 42 44  1  0  0  0  0
 43 42  1  0  0  0  0
 44 38  2  0  0  0  0
M  END
>  <minimizedAffinity>
-7.45983553

>  <minimizedRMSD>
0.404874623

$$$$
