
 OpenBabel03272509213D

 44 48  0  0  0  0  0  0  0  0999 V2000
   37.9950   31.2330   47.7020 C   0  0  0  0  0  0  0  0  0  0  0  0
   37.1000   31.2860   48.7510 C   0  0  0  0  0  0  0  0  0  0  0  0
   37.2590   32.3920   49.5870 C   0  0  0  0  0  0  0  0  0  0  0  0
   38.2510   33.3530   49.3620 C   0  0  0  0  0  0  0  0  0  0  0  0
   39.1250   33.2110   48.2550 C   0  0  0  0  0  0  0  0  0  0  0  0
   38.9780   32.1160   47.4140 C   0  0  0  0  0  0  0  0  0  0  0  0
   36.6120   32.5380   50.4450 H   0  0  0  0  0  0  0  0  0  0  0  0
   38.3680   34.2090   50.0160 H   0  0  0  0  0  0  0  0  0  0  0  0
   39.8830   33.9470   48.0830 H   0  0  0  0  0  0  0  0  0  0  0  0
   34.9130   30.3200   48.2490 C   0  0  0  0  0  0  0  0  0  0  0  0
   36.0850   30.3070   48.9850 C   0  0  0  0  0  0  0  0  0  0  0  0
   36.2260   29.3000   49.9570 C   0  0  0  0  0  0  0  0  0  0  0  0
   35.2260   28.4110   50.1180 N   0  0  0  0  0  0  0  0  0  0  0  0
   34.0890   28.4650   49.3680 C   0  0  0  0  0  0  0  0  0  0  0  0
   33.9410   29.4120   48.4450 N   0  0  0  0  0  0  0  0  0  0  0  0
   34.7350   31.0670   47.4810 H   0  0  0  0  0  0  0  0  0  0  0  0
   33.4160   27.6540   49.6630 H   0  0  0  0  0  0  0  0  0  0  0  0
   37.4700   29.2340   50.7830 C   0  0  0  0  0  0  0  0  0  0  0  0
   37.3930   29.8860   51.6840 H   0  0  0  0  0  0  0  0  0  0  0  0
   37.6800   28.1910   51.0230 H   0  0  0  0  0  0  0  0  0  0  0  0
   38.3020   29.6260   50.1290 H   0  0  0  0  0  0  0  0  0  0  0  0
   37.9160   30.1560   46.8020 O   0  0  0  0  0  0  0  0  0  0  0  0
   37.2960   30.2950   46.0010 H   0  0  0  0  0  0  0  0  0  0  0  0
   39.8530   32.0310   46.3580 O   0  0  0  0  0  0  0  0  0  0  0  0
   40.1040   31.0130   44.0960 C   0  0  0  0  0  0  0  0  0  0  0  0
   39.5350   31.8560   45.0450 C   0  0  0  0  0  0  0  0  0  0  0  0
   38.4810   32.6680   44.6650 C   0  0  0  0  0  0  0  0  0  0  0  0
   37.9890   32.6450   43.3430 C   0  0  0  0  0  0  0  0  0  0  0  0
   37.0140   33.2890   42.6840 N   0  0  0  0  0  0  0  0  0  0  0  0
   36.9650   32.8830   41.4030 C   0  0  0  0  0  0  0  0  0  0  0  0
   37.9420   31.9540   41.2530 N   0  0  0  0  0  0  0  0  0  0  0  0
   38.5880   31.7890   42.4350 C   0  0  0  0  0  0  0  0  0  0  0  0
   39.6320   30.9850   42.8080 C   0  0  0  0  0  0  0  0  0  0  0  0
   40.9180   30.4210   44.4880 H   0  0  0  0  0  0  0  0  0  0  0  0
   37.9300   33.3800   45.2900 H   0  0  0  0  0  0  0  0  0  0  0  0
   36.3730   34.0150   43.1170 H   0  0  0  0  0  0  0  0  0  0  0  0
   36.2520   33.2740   40.6950 H   0  0  0  0  0  0  0  0  0  0  0  0
   40.2730   30.0770   41.8600 C   0  0  0  0  0  0  0  0  0  0  0  0
   41.4860   29.5170   42.0760 N   0  0  0  0  0  0  0  0  0  0  0  0
   41.8160   28.7300   41.0310 C   0  0  0  0  0  0  0  0  0  0  0  0
   42.7090   28.1340   40.8700 H   0  0  0  0  0  0  0  0  0  0  0  0
   40.7550   28.8390   40.1810 N   0  0  0  0  0  0  0  0  0  0  0  0
   40.7580   28.3080   39.2610 H   0  0  0  0  0  0  0  0  0  0  0  0
   39.8290   29.6430   40.6720 N   0  0  0  0  0  0  0  0  0  0  0  0
  1  2  1  0  0  0  0
  2 11  1  0  0  0  0
  2  3  2  0  0  0  0
  3  7  1  0  0  0  0
  4  3  1  0  0  0  0
  4  8  1  0  0  0  0
  5  4  2  0  0  0  0
  6  1  2  0  0  0  0
  6  5  1  0  0  0  0
  9  5  1  0  0  0  0
 10 15  2  0  0  0  0
 10 11  1  0  0  0  0
 11 12  2  0  0  0  0
 12 13  1  0  0  0  0
 12 18  1  0  0  0  0
 14 17  1  0  0  0  0
 14 13  2  0  0  0  0
 15 14  1  0  0  0  0
 16 10  1  0  0  0  0
 18 20  1  0  0  0  0
 18 19  1  0  0  0  0
 21 18  1  0  0  0  0
 22  1  1  0  0  0  0
 23 22  1  0  0  0  0
 24  6  1  0  0  0  0
 25 34  1  0  0  0  0
 25 26  1  0  0  0  0
 26 24  1  0  0  0  0
 27 26  2  0  0  0  0
 27 35  1  0  0  0  0
 28 27  1  0  0  0  0
 29 36  1  0  0  0  0
 29 28  1  0  0  0  0
 30 29  1  0  0  0  0
 31 30  2  0  0  0  0
 31 32  1  0  0  0  0
 32 33  1  0  0  0  0
 32 28  2  0  0  0  0
 33 25  2  0  0  0  0
 37 30  1  0  0  0  0
 38 39  1  0  0  0  0
 38 33  1  0  0  0  0
 40 39  2  0  0  0  0
 41 40  1  0  0  0  0
 42 44  1  0  0  0  0
 42 40  1  0  0  0  0
 43 42  1  0  0  0  0
 44 38  2  0  0  0  0
M  END
>  <minimizedAffinity>
-7.36112595

>  <minimizedRMSD>
0.536248446

$$$$
