REMARK  Name = 
REMARK  5 active torsions:
REMARK  status: ('A' for Active; 'I' for Inactive)
REMARK    1  A    between atoms: C_1  and  C_8
REMARK    2  A    between atoms: C_6  and  S_17
REMARK    3  A    between atoms: C_9  and  C_13
REMARK    4  A    between atoms: S_17  and  C_20
REMARK    5  A    between atoms: C_24  and  C_34
REMARK                            x       y       z     vdW  Elec       q    Type
REMARK                         _______ _______ _______ _____ _____    ______ ____
ROOT
ATOM      1  C   UNL     1      34.107  28.749  45.874  0.00  0.00    +0.000 A 
ATOM      2  C   UNL     1      34.324  28.294  44.587  0.00  0.00    +0.000 A 
ATOM      3  C   UNL     1      35.321  28.772  43.740  0.00  0.00    +0.000 A 
ATOM      4  C   UNL     1      36.169  29.788  44.222  0.00  0.00    +0.000 A 
ATOM      5  C   UNL     1      35.940  30.230  45.508  0.00  0.00    +0.000 A 
ATOM      6  C   UNL     1      34.961  29.754  46.328  0.00  0.00    +0.000 A 
ATOM      7  H   UNL     1      33.680  27.500  44.174  0.00  0.00    +0.000 HD
ATOM      8  H   UNL     1      35.396  28.329  42.732  0.00  0.00    +0.000 HD
ATOM      9  H   UNL     1      36.894  30.077  43.492  0.00  0.00    +0.000 HD
ATOM     10  H   UNL     1      36.664  30.985  45.674  0.00  0.00    +0.000 HD
ENDROOT
BRANCH   1  12
ATOM     11  C   UNL     1      33.336  26.980  47.327  0.00  0.00    +0.000 A 
ATOM     12  C   UNL     1      33.030  28.142  46.602  0.00  0.00    +0.000 A 
ATOM     13  C   UNL     1      31.712  28.618  46.642  0.00  0.00    +0.000 A 
ATOM     14  N   UNL     1      30.788  27.941  47.375  0.00  0.00    +0.000 NA
ATOM     15  C   UNL     1      31.113  26.812  48.071  0.00  0.00    +0.000 A 
ATOM     16  N   UNL     1      32.387  26.337  48.043  0.00  0.00    +0.000 NA
ATOM     17  H   UNL     1      34.330  26.587  47.319  0.00  0.00    +0.000 HD
ATOM     18  H   UNL     1      30.387  26.266  48.657  0.00  0.00    +0.000 HD
BRANCH  13  19
ATOM     19  C   UNL     1      31.244  29.836  45.920  0.00  0.00    +0.000 C 
ATOM     20  F   UNL     1      29.880  30.045  46.196  0.00  0.00    +0.000 F 
ATOM     21  F   UNL     1      31.916  30.973  46.180  0.00  0.00    +0.000 F 
ATOM     22  F   UNL     1      31.265  29.597  44.540  0.00  0.00    +0.000 F 
ENDBRANCH  13  19
ENDBRANCH   1  12
BRANCH   6  23
ATOM     23  S   UNL     1      34.685  30.328  47.963  0.00  0.00    +0.000 S 
BRANCH  23  26
ATOM     24 CL   UNL     1      35.005  29.154  50.824  0.00  0.00    +0.000 Cl
ATOM     25  C   UNL     1      36.267  30.125  50.118  0.00  0.00    +0.000 A 
ATOM     26  C   UNL     1      36.172  30.697  48.850  0.00  0.00    +0.000 A 
ATOM     27  C   UNL     1      37.181  31.471  48.356  0.00  0.00    +0.000 A 
ATOM     28  C   UNL     1      38.306  31.676  49.141  0.00  0.00    +0.000 A 
ATOM     29  C   UNL     1      38.407  31.104  50.413  0.00  0.00    +0.000 A 
ATOM     30  C   UNL     1      37.387  30.323  50.913  0.00  0.00    +0.000 A 
ATOM     31  H   UNL     1      37.187  31.976  47.425  0.00  0.00    +0.000 HD
ATOM     32  H   UNL     1      39.136  32.283  48.792  0.00  0.00    +0.000 HD
ATOM     33  H   UNL     1      39.321  31.307  50.977  0.00  0.00    +0.000 HD
BRANCH  30  34
ATOM     34  C   UNL     1      37.526  29.744  52.244  0.00  0.00    +0.000 A 
ATOM     35  N   UNL     1      38.329  28.692  52.482  0.00  0.00    +0.000 NA
ATOM     36  C   UNL     1      38.238  28.394  53.812  0.00  0.00    +0.000 A 
ATOM     37  H   UNL     1      38.688  27.646  54.458  0.00  0.00    +0.000 HD
ATOM     38  N   UNL     1      37.362  29.296  54.346  0.00  0.00    +0.000 N 
ATOM     39  H   UNL     1      37.012  29.422  55.321  0.00  0.00    +0.000 HD
ATOM     40  N   UNL     1      36.934  30.109  53.396  0.00  0.00    +0.000 NA
ENDBRANCH  30  34
ENDBRANCH  23  26
ENDBRANCH   6  23
TORSDOF 5
