
 OpenBabel03272501123D

 23 25  0  0  1  0  0  0  0  0999 V2000
   37.8180   26.1930   35.3470 C   0  0  1  0  0  0  0  0  0  0  0  0
   38.6810   25.0150   35.3790 C   0  0  1  0  0  0  0  0  0  0  0  0
   39.3240   26.3750   35.3210 C   0  0  0  0  0  0  0  0  0  0  0  0
   37.3880   26.7180   36.2230 H   0  0  0  0  0  0  0  0  0  0  0  0
   38.7520   24.4530   34.4240 H   0  0  0  0  0  0  0  0  0  0  0  0
   39.8470   26.6390   36.2580 H   0  0  0  0  0  0  0  0  0  0  0  0
   39.8340   26.7330   34.4260 H   0  0  0  0  0  0  0  0  0  0  0  0
   37.1510   26.6180   34.0610 C   0  0  0  0  0  0  0  0  0  0  0  0
   36.6650   27.9360   34.0020 C   0  0  0  0  0  0  0  0  0  0  0  0
   36.0350   28.3010   32.8210 C   0  0  0  0  0  0  0  0  0  0  0  0
   35.9140   27.3990   31.7980 N   0  0  0  0  0  0  0  0  0  0  0  0
   36.4020   26.1260   31.9000 C   0  0  0  0  0  0  0  0  0  0  0  0
   37.0250   25.7400   33.0450 N   0  0  0  0  0  0  0  0  0  0  0  0
   36.7620   28.6360   34.8010 H   0  0  0  0  0  0  0  0  0  0  0  0
   35.6190   29.2870   32.6540 H   0  0  0  0  0  0  0  0  0  0  0  0
   36.2790   25.4530   31.0620 H   0  0  0  0  0  0  0  0  0  0  0  0
   38.7550   24.2130   36.6330 C   0  0  0  0  0  0  0  0  0  0  0  0
   38.0210   24.3410   37.7660 N   0  0  0  0  0  0  0  0  0  0  0  0
   38.4190   23.4010   38.6620 C   0  0  0  0  0  0  0  0  0  0  0  0
   37.9350   23.3600   39.6260 H   0  0  0  0  0  0  0  0  0  0  0  0
   39.4060   22.6940   38.0610 N   0  0  0  0  0  0  0  0  0  0  0  0
   39.8530   21.9190   38.5810 H   0  0  0  0  0  0  0  0  0  0  0  0
   39.6040   23.1930   36.8330 N   0  0  0  0  0  0  0  0  0  0  0  0
  1  2  1  0  0  0  0
  1  4  1  1  0  0  0
  2  5  1  6  0  0  0
  2 17  1  0  0  0  0
  3  1  1  0  0  0  0
  3  2  1  0  0  0  0
  3  6  1  0  0  0  0
  7  3  1  0  0  0  0
  8  1  1  0  0  0  0
  9  8  1  0  0  0  0
  9 14  1  0  0  0  0
 10  9  2  0  0  0  0
 11 12  2  0  0  0  0
 11 10  1  0  0  0  0
 12 13  1  0  0  0  0
 13  8  2  0  0  0  0
 15 10  1  0  0  0  0
 16 12  1  0  0  0  0
 17 23  2  0  0  0  0
 17 18  1  0  0  0  0
 18 19  2  0  0  0  0
 19 20  1  0  0  0  0
 21 22  1  0  0  0  0
 21 19  1  0  0  0  0
 23 21  1  0  0  0  0
M  END
>  <minimizedAffinity>
-4.54246664

$$$$

 OpenBabel03272501123D

 23 25  0  0  1  0  0  0  0  0999 V2000
   37.7430   26.3500   35.4670 C   0  0  1  0  0  0  0  0  0  0  0  0
   38.6370   25.1940   35.4460 C   0  0  1  0  0  0  0  0  0  0  0  0
   39.2430   26.5720   35.4730 C   0  0  0  0  0  0  0  0  0  0  0  0
   37.2870   26.8130   36.3650 H   0  0  0  0  0  0  0  0  0  0  0  0
   38.7340   24.6890   34.4620 H   0  0  0  0  0  0  0  0  0  0  0  0
   39.7470   26.7960   36.4320 H   0  0  0  0  0  0  0  0  0  0  0  0
   39.7550   26.9920   34.6070 H   0  0  0  0  0  0  0  0  0  0  0  0
   37.0820   26.8290   34.1970 C   0  0  0  0  0  0  0  0  0  0  0  0
   37.0610   25.9320   33.1140 C   0  0  0  0  0  0  0  0  0  0  0  0
   36.4710   26.3970   31.9480 C   0  0  0  0  0  0  0  0  0  0  0  0
   35.9530   27.6630   31.8970 N   0  0  0  0  0  0  0  0  0  0  0  0
   35.9950   28.5020   32.9760 C   0  0  0  0  0  0  0  0  0  0  0  0
   36.5660   28.0740   34.1330 N   0  0  0  0  0  0  0  0  0  0  0  0
   37.4670   24.9460   33.1580 H   0  0  0  0  0  0  0  0  0  0  0  0
   36.3940   25.8020   31.0470 H   0  0  0  0  0  0  0  0  0  0  0  0
   35.5710   29.4920   32.8820 H   0  0  0  0  0  0  0  0  0  0  0  0
   38.7150   24.3260   36.6540 C   0  0  0  0  0  0  0  0  0  0  0  0
   37.9930   24.3970   37.7990 N   0  0  0  0  0  0  0  0  0  0  0  0
   38.3910   23.4070   38.6390 C   0  0  0  0  0  0  0  0  0  0  0  0
   37.9150   23.3180   39.6040 H   0  0  0  0  0  0  0  0  0  0  0  0
   39.3670   22.7260   37.9920 N   0  0  0  0  0  0  0  0  0  0  0  0
   39.8110   21.9210   38.4650 H   0  0  0  0  0  0  0  0  0  0  0  0
   39.5580   23.2890   36.7910 N   0  0  0  0  0  0  0  0  0  0  0  0
  1  3  1  0  0  0  0
  1  4  1  1  0  0  0
  2  5  1  6  0  0  0
  2  1  1  0  0  0  0
  2  3  1  0  0  0  0
  2 17  1  0  0  0  0
  3  6  1  0  0  0  0
  7  3  1  0  0  0  0
  8  1  1  0  0  0  0
  9 14  1  0  0  0  0
  9  8  2  0  0  0  0
 10  9  1  0  0  0  0
 11 10  2  0  0  0  0
 11 12  1  0  0  0  0
 12 13  2  0  0  0  0
 13  8  1  0  0  0  0
 15 10  1  0  0  0  0
 16 12  1  0  0  0  0
 17 23  2  0  0  0  0
 17 18  1  0  0  0  0
 18 19  2  0  0  0  0
 19 20  1  0  0  0  0
 21 22  1  0  0  0  0
 21 19  1  0  0  0  0
 23 21  1  0  0  0  0
M  END
>  <minimizedAffinity>
-4.42752218

$$$$

 OpenBabel03272501123D

 23 25  0  0  1  0  0  0  0  0999 V2000
   38.4550   25.8110   35.0870 C   0  0  1  0  0  0  0  0  0  0  0  0
   37.7730   27.0670   35.3920 C   0  0  1  0  0  0  0  0  0  0  0  0
   39.2740   27.0740   35.2750 C   0  0  0  0  0  0  0  0  0  0  0  0
   38.6370   25.3880   34.0800 H   0  0  0  0  0  0  0  0  0  0  0  0
   37.4120   27.1690   36.4360 H   0  0  0  0  0  0  0  0  0  0  0  0
   39.6290   27.6190   34.3810 H   0  0  0  0  0  0  0  0  0  0  0  0
   39.9180   27.2050   36.1450 H   0  0  0  0  0  0  0  0  0  0  0  0
   38.6930   24.7880   36.1720 C   0  0  0  0  0  0  0  0  0  0  0  0
   37.8850   24.8790   37.3190 C   0  0  0  0  0  0  0  0  0  0  0  0
   38.1340   23.9460   38.3150 C   0  0  0  0  0  0  0  0  0  0  0  0
   39.1190   23.0090   38.1500 N   0  0  0  0  0  0  0  0  0  0  0  0
   39.8810   22.9580   37.0160 C   0  0  0  0  0  0  0  0  0  0  0  0
   39.6600   23.8590   36.0230 N   0  0  0  0  0  0  0  0  0  0  0  0
   37.1190   25.6110   37.4440 H   0  0  0  0  0  0  0  0  0  0  0  0
   37.5800   23.9120   39.2450 H   0  0  0  0  0  0  0  0  0  0  0  0
   40.6460   22.1980   36.9370 H   0  0  0  0  0  0  0  0  0  0  0  0
   36.9440   27.7080   34.3320 C   0  0  0  0  0  0  0  0  0  0  0  0
   36.8800   27.4140   33.0100 N   0  0  0  0  0  0  0  0  0  0  0  0
   35.9930   28.2490   32.4100 C   0  0  0  0  0  0  0  0  0  0  0  0
   35.8180   28.1510   31.3500 H   0  0  0  0  0  0  0  0  0  0  0  0
   35.5130   29.0590   33.3850 N   0  0  0  0  0  0  0  0  0  0  0  0
   34.8130   29.7790   33.1350 H   0  0  0  0  0  0  0  0  0  0  0  0
   36.0940   28.7260   34.5450 N   0  0  0  0  0  0  0  0  0  0  0  0
  1  4  1  6  0  0  0
  1  3  1  0  0  0  0
  1  2  1  0  0  0  0
  1  8  1  0  0  0  0
  2  5  1  1  0  0  0
  3  2  1  0  0  0  0
  3  7  1  0  0  0  0
  6  3  1  0  0  0  0
  8  9  1  0  0  0  0
  9 14  1  0  0  0  0
  9 10  2  0  0  0  0
 10 15  1  0  0  0  0
 11 10  1  0  0  0  0
 12 11  2  0  0  0  0
 13  8  2  0  0  0  0
 13 12  1  0  0  0  0
 16 12  1  0  0  0  0
 17 23  2  0  0  0  0
 17  2  1  0  0  0  0
 18 17  1  0  0  0  0
 19 18  2  0  0  0  0
 19 21  1  0  0  0  0
 20 19  1  0  0  0  0
 21 23  1  0  0  0  0
 22 21  1  0  0  0  0
M  END
>  <minimizedAffinity>
-4.3166852

$$$$

 OpenBabel03272501123D

 23 25  0  0  1  0  0  0  0  0999 V2000
   37.4100   26.6200   35.2050 C   0  0  1  0  0  0  0  0  0  0  0  0
   38.6770   25.8960   35.2710 C   0  0  1  0  0  0  0  0  0  0  0  0
   38.5320   27.1650   36.0680 C   0  0  0  0  0  0  0  0  0  0  0  0
   36.5110   26.4330   35.8260 H   0  0  0  0  0  0  0  0  0  0  0  0
   39.3330   26.0060   34.3820 H   0  0  0  0  0  0  0  0  0  0  0  0
   38.5050   26.9820   37.1580 H   0  0  0  0  0  0  0  0  0  0  0  0
   39.0610   28.0780   35.7960 H   0  0  0  0  0  0  0  0  0  0  0  0
   37.0950   27.5030   34.0220 C   0  0  0  0  0  0  0  0  0  0  0  0
   36.1390   28.5150   34.2210 C   0  0  0  0  0  0  0  0  0  0  0  0
   35.8450   29.3020   33.1170 C   0  0  0  0  0  0  0  0  0  0  0  0
   36.4720   29.0710   31.9210 N   0  0  0  0  0  0  0  0  0  0  0  0
   37.3970   28.0750   31.7740 C   0  0  0  0  0  0  0  0  0  0  0  0
   37.7050   27.2880   32.8380 N   0  0  0  0  0  0  0  0  0  0  0  0
   35.6530   28.6910   35.1540 H   0  0  0  0  0  0  0  0  0  0  0  0
   35.1270   30.1120   33.1420 H   0  0  0  0  0  0  0  0  0  0  0  0
   37.8620   27.9360   30.8080 H   0  0  0  0  0  0  0  0  0  0  0  0
   38.7160   24.5810   35.9720 C   0  0  0  0  0  0  0  0  0  0  0  0
   39.6650   23.6150   35.9130 N   0  0  0  0  0  0  0  0  0  0  0  0
   39.2990   22.5800   36.7110 C   0  0  0  0  0  0  0  0  0  0  0  0
   39.9460   21.7200   36.7830 H   0  0  0  0  0  0  0  0  0  0  0  0
   38.1100   22.9270   37.2630 N   0  0  0  0  0  0  0  0  0  0  0  0
   37.6510   22.2660   37.9140 H   0  0  0  0  0  0  0  0  0  0  0  0
   37.7640   24.1390   36.8100 N   0  0  0  0  0  0  0  0  0  0  0  0
  1  2  1  0  0  0  0
  1  4  1  1  0  0  0
  1  3  1  0  0  0  0
  2  5  1  6  0  0  0
  2 17  1  0  0  0  0
  2  3  1  0  0  0  0
  3  6  1  0  0  0  0
  7  3  1  0  0  0  0
  8  9  1  0  0  0  0
  8  1  1  0  0  0  0
  9 14  1  0  0  0  0
 10 15  1  0  0  0  0
 10  9  2  0  0  0  0
 11 10  1  0  0  0  0
 12 11  2  0  0  0  0
 12 13  1  0  0  0  0
 13  8  2  0  0  0  0
 16 12  1  0  0  0  0
 17 23  2  0  0  0  0
 18 17  1  0  0  0  0
 18 19  2  0  0  0  0
 19 20  1  0  0  0  0
 19 21  1  0  0  0  0
 21 22  1  0  0  0  0
 23 21  1  0  0  0  0
M  END
>  <minimizedAffinity>
-4.2860446

$$$$

 OpenBabel03272501123D

 23 25  0  0  1  0  0  0  0  0999 V2000
   38.4940   25.8160   35.0870 C   0  0  1  0  0  0  0  0  0  0  0  0
   37.6340   26.9640   35.3680 C   0  0  1  0  0  0  0  0  0  0  0  0
   39.1260   27.1600   35.4010 C   0  0  0  0  0  0  0  0  0  0  0  0
   38.8210   25.4680   34.0870 H   0  0  0  0  0  0  0  0  0  0  0  0
   37.1660   26.9700   36.3740 H   0  0  0  0  0  0  0  0  0  0  0  0
   39.4910   27.7860   34.5670 H   0  0  0  0  0  0  0  0  0  0  0  0
   39.6630   27.3260   36.3340 H   0  0  0  0  0  0  0  0  0  0  0  0
   38.7570   24.7790   36.1510 C   0  0  0  0  0  0  0  0  0  0  0  0
   39.7860   23.8550   35.8980 C   0  0  0  0  0  0  0  0  0  0  0  0
   39.9970   22.8950   36.8770 C   0  0  0  0  0  0  0  0  0  0  0  0
   39.2250   22.8830   38.0070 N   0  0  0  0  0  0  0  0  0  0  0  0
   38.2340   23.8020   38.2120 C   0  0  0  0  0  0  0  0  0  0  0  0
   38.0040   24.7560   37.2710 N   0  0  0  0  0  0  0  0  0  0  0  0
   40.3850   23.8680   35.0160 H   0  0  0  0  0  0  0  0  0  0  0  0
   40.7590   22.1290   36.7990 H   0  0  0  0  0  0  0  0  0  0  0  0
   37.6530   23.7480   39.1220 H   0  0  0  0  0  0  0  0  0  0  0  0
   36.8340   27.5490   34.2550 C   0  0  0  0  0  0  0  0  0  0  0  0
   36.0920   28.6840   34.2480 N   0  0  0  0  0  0  0  0  0  0  0  0
   35.5280   28.8410   33.0230 C   0  0  0  0  0  0  0  0  0  0  0  0
   34.9010   29.7000   32.8430 H   0  0  0  0  0  0  0  0  0  0  0  0
   35.9380   27.7870   32.2770 N   0  0  0  0  0  0  0  0  0  0  0  0
   35.6160   27.7150   31.2960 H   0  0  0  0  0  0  0  0  0  0  0  0
   36.7270   27.0090   33.0300 N   0  0  0  0  0  0  0  0  0  0  0  0
  1  4  1  6  0  0  0
  1  2  1  0  0  0  0
  1  3  1  0  0  0  0
  1  8  1  0  0  0  0
  2  3  1  0  0  0  0
  2  5  1  1  0  0  0
  3  7  1  0  0  0  0
  6  3  1  0  0  0  0
  8 13  1  0  0  0  0
  9  8  2  0  0  0  0
  9 10  1  0  0  0  0
 10 11  2  0  0  0  0
 11 12  1  0  0  0  0
 12 16  1  0  0  0  0
 13 12  2  0  0  0  0
 14  9  1  0  0  0  0
 15 10  1  0  0  0  0
 17  2  1  0  0  0  0
 18 17  1  0  0  0  0
 19 18  2  0  0  0  0
 20 19  1  0  0  0  0
 21 19  1  0  0  0  0
 21 23  1  0  0  0  0
 22 21  1  0  0  0  0
 23 17  2  0  0  0  0
M  END
>  <minimizedAffinity>
-4.25766563

$$$$

 OpenBabel03272501123D

 23 25  0  0  1  0  0  0  0  0999 V2000
   38.6130   24.6950   34.4650 C   0  0  1  0  0  0  0  0  0  0  0  0
   37.7200   25.8160   34.1820 C   0  0  1  0  0  0  0  0  0  0  0  0
   39.1930   26.0890   34.3220 C   0  0  0  0  0  0  0  0  0  0  0  0
   39.0720   24.0150   33.7200 H   0  0  0  0  0  0  0  0  0  0  0  0
   37.1210   26.1750   35.0450 H   0  0  0  0  0  0  0  0  0  0  0  0
   39.6660   26.3760   33.3640 H   0  0  0  0  0  0  0  0  0  0  0  0
   39.6010   26.6220   35.1810 H   0  0  0  0  0  0  0  0  0  0  0  0
   38.7330   24.1480   35.8660 C   0  0  0  0  0  0  0  0  0  0  0  0
   37.7560   24.5540   36.7930 C   0  0  0  0  0  0  0  0  0  0  0  0
   37.8950   24.0610   38.0820 C   0  0  0  0  0  0  0  0  0  0  0  0
   38.9390   23.2300   38.3910 N   0  0  0  0  0  0  0  0  0  0  0  0
   39.8670   22.8610   37.4570 C   0  0  0  0  0  0  0  0  0  0  0  0
   39.7550   23.3290   36.1860 N   0  0  0  0  0  0  0  0  0  0  0  0
   36.9440   25.2020   36.5470 H   0  0  0  0  0  0  0  0  0  0  0  0
   37.2080   24.3000   38.8840 H   0  0  0  0  0  0  0  0  0  0  0  0
   40.6710   22.2030   37.7550 H   0  0  0  0  0  0  0  0  0  0  0  0
   37.0750   25.8990   32.8400 C   0  0  0  0  0  0  0  0  0  0  0  0
   36.3470   26.9110   32.3090 N   0  0  0  0  0  0  0  0  0  0  0  0
   35.9490   26.5650   31.0580 C   0  0  0  0  0  0  0  0  0  0  0  0
   35.3550   27.2620   30.4870 H   0  0  0  0  0  0  0  0  0  0  0  0
   36.4450   25.3260   30.8290 N   0  0  0  0  0  0  0  0  0  0  0  0
   36.2540   24.8720   29.9190 H   0  0  0  0  0  0  0  0  0  0  0  0
   37.1250   24.9290   31.9130 N   0  0  0  0  0  0  0  0  0  0  0  0
  1  4  1  6  0  0  0
  1  8  1  0  0  0  0
  2  3  1  0  0  0  0
  2  1  1  0  0  0  0
  2  5  1  1  0  0  0
  3  1  1  0  0  0  0
  3  7  1  0  0  0  0
  6  3  1  0  0  0  0
  8 13  2  0  0  0  0
  8  9  1  0  0  0  0
  9 10  2  0  0  0  0
 10 11  1  0  0  0  0
 10 15  1  0  0  0  0
 12 16  1  0  0  0  0
 12 11  2  0  0  0  0
 13 12  1  0  0  0  0
 14  9  1  0  0  0  0
 17  2  1  0  0  0  0
 18 17  1  0  0  0  0
 19 18  2  0  0  0  0
 20 19  1  0  0  0  0
 21 19  1  0  0  0  0
 21 23  1  0  0  0  0
 22 21  1  0  0  0  0
 23 17  2  0  0  0  0
M  END
>  <minimizedAffinity>
-4.04229546

$$$$

 OpenBabel03272501123D

 23 25  0  0  1  0  0  0  0  0999 V2000
   35.1400   29.6110   34.2180 C   0  0  1  0  0  0  0  0  0  0  0  0
   35.6740   30.7160   35.0120 C   0  0  1  0  0  0  0  0  0  0  0  0
   35.4370   30.9370   33.5420 C   0  0  0  0  0  0  0  0  0  0  0  0
   34.0710   29.3510   34.0880 H   0  0  0  0  0  0  0  0  0  0  0  0
   36.7490   30.6320   35.2770 H   0  0  0  0  0  0  0  0  0  0  0  0
   34.6020   31.6350   33.3460 H   0  0  0  0  0  0  0  0  0  0  0  0
   36.2600   31.0380   32.8360 H   0  0  0  0  0  0  0  0  0  0  0  0
   36.0460   28.4970   33.7520 C   0  0  0  0  0  0  0  0  0  0  0  0
   36.9270   27.9540   34.7040 C   0  0  0  0  0  0  0  0  0  0  0  0
   37.7680   26.9480   34.2520 C   0  0  0  0  0  0  0  0  0  0  0  0
   37.7110   26.5380   32.9470 N   0  0  0  0  0  0  0  0  0  0  0  0
   36.8380   27.0960   32.0550 C   0  0  0  0  0  0  0  0  0  0  0  0
   36.0010   28.0830   32.4690 N   0  0  0  0  0  0  0  0  0  0  0  0
   36.9670   28.2760   35.7200 H   0  0  0  0  0  0  0  0  0  0  0  0
   38.4900   26.4510   34.8880 H   0  0  0  0  0  0  0  0  0  0  0  0
   36.8350   26.7350   31.0350 H   0  0  0  0  0  0  0  0  0  0  0  0
   34.7870   31.3730   36.0130 C   0  0  0  0  0  0  0  0  0  0  0  0
   33.4740   31.1460   36.2630 N   0  0  0  0  0  0  0  0  0  0  0  0
   33.0620   31.9700   37.2610 C   0  0  0  0  0  0  0  0  0  0  0  0
   32.0350   31.9210   37.5880 H   0  0  0  0  0  0  0  0  0  0  0  0
   34.1420   32.7050   37.6200 N   0  0  0  0  0  0  0  0  0  0  0  0
   34.0410   33.4040   38.3760 H   0  0  0  0  0  0  0  0  0  0  0  0
   35.1830   32.3380   36.8600 N   0  0  0  0  0  0  0  0  0  0  0  0
  1  4  1  1  0  0  0
  1  2  1  0  0  0  0
  2  5  1  1  0  0  0
  2 17  1  0  0  0  0
  3  1  1  0  0  0  0
  3  2  1  0  0  0  0
  6  3  1  0  0  0  0
  7  3  1  0  0  0  0
  8  1  1  0  0  0  0
  8  9  1  0  0  0  0
  9 14  1  0  0  0  0
 10  9  2  0  0  0  0
 10 15  1  0  0  0  0
 11 10  1  0  0  0  0
 12 13  1  0  0  0  0
 12 11  2  0  0  0  0
 13  8  2  0  0  0  0
 16 12  1  0  0  0  0
 17 18  1  0  0  0  0
 17 23  2  0  0  0  0
 18 19  2  0  0  0  0
 19 20  1  0  0  0  0
 19 21  1  0  0  0  0
 21 22  1  0  0  0  0
 23 21  1  0  0  0  0
M  END
>  <minimizedAffinity>
-4.0411396

$$$$

 OpenBabel03272501123D

 23 25  0  0  1  0  0  0  0  0999 V2000
   39.0460   25.1320   34.5010 C   0  0  1  0  0  0  0  0  0  0  0  0
   38.4970   23.8840   35.0260 C   0  0  1  0  0  0  0  0  0  0  0  0
   39.6570   23.8120   34.0700 C   0  0  0  0  0  0  0  0  0  0  0  0
   39.8160   25.7670   34.9820 H   0  0  0  0  0  0  0  0  0  0  0  0
   37.5340   23.5630   34.5760 H   0  0  0  0  0  0  0  0  0  0  0  0
   40.5900   23.4700   34.5570 H   0  0  0  0  0  0  0  0  0  0  0  0
   39.5410   23.4410   33.0520 H   0  0  0  0  0  0  0  0  0  0  0  0
   38.3540   25.8560   33.3720 C   0  0  0  0  0  0  0  0  0  0  0  0
   39.0540   26.9200   32.7750 C   0  0  0  0  0  0  0  0  0  0  0  0
   38.3930   27.5880   31.7550 C   0  0  0  0  0  0  0  0  0  0  0  0
   37.1320   27.2040   31.3840 N   0  0  0  0  0  0  0  0  0  0  0  0
   36.4890   26.1620   31.9930 C   0  0  0  0  0  0  0  0  0  0  0  0
   37.1120   25.4880   32.9950 N   0  0  0  0  0  0  0  0  0  0  0  0
   40.0360   27.2160   33.0670 H   0  0  0  0  0  0  0  0  0  0  0  0
   38.8260   28.4230   31.2180 H   0  0  0  0  0  0  0  0  0  0  0  0
   35.4940   25.9000   31.6620 H   0  0  0  0  0  0  0  0  0  0  0  0
   38.7030   23.5610   36.4670 C   0  0  0  0  0  0  0  0  0  0  0  0
   38.0010   23.9950   37.5430 N   0  0  0  0  0  0  0  0  0  0  0  0
   38.5310   23.4510   38.6690 C   0  0  0  0  0  0  0  0  0  0  0  0
   38.0890   23.6920   39.6230 H   0  0  0  0  0  0  0  0  0  0  0  0
   39.5660   22.6750   38.2670 N   0  0  0  0  0  0  0  0  0  0  0  0
   40.1120   22.1630   38.9810 H   0  0  0  0  0  0  0  0  0  0  0  0
   39.6640   22.7470   36.9330 N   0  0  0  0  0  0  0  0  0  0  0  0
  1  4  1  1  0  0  0
  1  2  1  0  0  0  0
  2  5  1  6  0  0  0
  2 17  1  0  0  0  0
  3  1  1  0  0  0  0
  3  6  1  0  0  0  0
  3  2  1  0  0  0  0
  7  3  1  0  0  0  0
  8  1  1  0  0  0  0
  9 14  1  0  0  0  0
  9  8  2  0  0  0  0
 10  9  1  0  0  0  0
 11 10  2  0  0  0  0
 11 12  1  0  0  0  0
 12 13  2  0  0  0  0
 13  8  1  0  0  0  0
 15 10  1  0  0  0  0
 16 12  1  0  0  0  0
 17 23  2  0  0  0  0
 17 18  1  0  0  0  0
 18 19  2  0  0  0  0
 19 20  1  0  0  0  0
 21 19  1  0  0  0  0
 21 22  1  0  0  0  0
 23 21  1  0  0  0  0
M  END
>  <minimizedAffinity>
-4.01076221

$$$$

 OpenBabel03272501123D

 23 25  0  0  1  0  0  0  0  0999 V2000
   35.7370   30.4550   33.7700 C   0  0  1  0  0  0  0  0  0  0  0  0
   35.0370   30.1160   32.5320 C   0  0  1  0  0  0  0  0  0  0  0  0
   35.7390   31.4450   32.6200 C   0  0  0  0  0  0  0  0  0  0  0  0
   36.7760   30.1790   34.0350 H   0  0  0  0  0  0  0  0  0  0  0  0
   33.9310   30.1970   32.5760 H   0  0  0  0  0  0  0  0  0  0  0  0
   36.6270   31.5010   31.9650 H   0  0  0  0  0  0  0  0  0  0  0  0
   35.1870   32.3830   32.6820 H   0  0  0  0  0  0  0  0  0  0  0  0
   34.9680   30.9490   34.9710 C   0  0  0  0  0  0  0  0  0  0  0  0
   35.6750   31.7350   35.8990 C   0  0  0  0  0  0  0  0  0  0  0  0
   34.9590   32.1610   37.0080 C   0  0  0  0  0  0  0  0  0  0  0  0
   33.6430   31.8120   37.1530 N   0  0  0  0  0  0  0  0  0  0  0  0
   32.9950   31.0460   36.2240 C   0  0  0  0  0  0  0  0  0  0  0  0
   33.6710   30.6140   35.1260 N   0  0  0  0  0  0  0  0  0  0  0  0
   36.7010   32.0040   35.7820 H   0  0  0  0  0  0  0  0  0  0  0  0
   35.3920   32.7700   37.7920 H   0  0  0  0  0  0  0  0  0  0  0  0
   31.9550   30.8000   36.3870 H   0  0  0  0  0  0  0  0  0  0  0  0
   35.5950   29.0390   31.6650 C   0  0  0  0  0  0  0  0  0  0  0  0
   35.6180   27.7010   31.8820 N   0  0  0  0  0  0  0  0  0  0  0  0
   36.2230   27.0900   30.8310 C   0  0  0  0  0  0  0  0  0  0  0  0
   36.3270   26.0160   30.8400 H   0  0  0  0  0  0  0  0  0  0  0  0
   36.5700   28.0730   29.9660 N   0  0  0  0  0  0  0  0  0  0  0  0
   37.0510   27.8170   29.0860 H   0  0  0  0  0  0  0  0  0  0  0  0
   36.1870   29.2510   30.4780 N   0  0  0  0  0  0  0  0  0  0  0  0
  1  4  1  1  0  0  0
  1  8  1  0  0  0  0
  2  5  1  1  0  0  0
  2  3  1  0  0  0  0
  2  1  1  0  0  0  0
  3  7  1  0  0  0  0
  3  1  1  0  0  0  0
  6  3  1  0  0  0  0
  8 13  2  0  0  0  0
  8  9  1  0  0  0  0
  9 10  2  0  0  0  0
 10 11  1  0  0  0  0
 10 15  1  0  0  0  0
 12 16  1  0  0  0  0
 12 11  2  0  0  0  0
 13 12  1  0  0  0  0
 14  9  1  0  0  0  0
 17 18  1  0  0  0  0
 17  2  1  0  0  0  0
 19 20  1  0  0  0  0
 19 18  2  0  0  0  0
 21 23  1  0  0  0  0
 21 19  1  0  0  0  0
 22 21  1  0  0  0  0
 23 17  2  0  0  0  0
M  END
>  <minimizedAffinity>
-3.95925426

$$$$
