REMARK  Name = 
REMARK  3 active torsions:
REMARK  status: ('A' for Active; 'I' for Inactive)
REMARK    1  A    between atoms: C_1  and  O_10
REMARK    2  A    between atoms: C_2  and  N_9
REMARK    3  A    between atoms: O_10  and  C_15
REMARK                            x       y       z     vdW  Elec       q    Type
REMARK                         _______ _______ _______ _____ _____    ______ ____
ROOT
ATOM      1  C   UNL     1      36.791  29.683  51.125  0.00  0.00    +0.000 A 
ATOM      2  C   UNL     1      37.297  30.064  49.885  0.00  0.00    +0.000 A 
ATOM      3  C   UNL     1      36.547  29.857  48.751  0.00  0.00    +0.000 A 
ATOM      4  N   UNL     1      35.319  29.276  48.892  0.00  0.00    +0.000 NA
ATOM      5  C   UNL     1      34.838  28.910  50.096  0.00  0.00    +0.000 A 
ATOM      6  N   UNL     1      35.564  29.110  51.203  0.00  0.00    +0.000 NA
ATOM      7  H   UNL     1      36.898  30.138  47.755  0.00  0.00    +0.000 HD
ATOM      8  H   UNL     1      33.870  28.450  50.228  0.00  0.00    +0.000 HD
ENDROOT
BRANCH   2  11
ATOM      9  C   UNL     1      38.631  32.064  49.489  0.00  0.00    +0.000 C 
ATOM     10  O   UNL     1      37.805  33.036  49.459  0.00  0.00    +0.000 OA
ATOM     11  N   UNL     1      38.548  30.663  49.687  0.00  0.00    +0.000 N 
ATOM     12  H   UNL     1      39.578  32.598  49.303  0.00  0.00    +0.000 HD
ATOM     13  H   UNL     1      39.493  30.197  49.662  0.00  0.00    +0.000 HD
ENDBRANCH   2  11
BRANCH   1  14
ATOM     14  O   UNL     1      37.654  29.955  52.156  0.00  0.00    +0.000 OA
BRANCH  14  15
ATOM     15  C   UNL     1      37.267  29.622  53.448  0.00  0.00    +0.000 A 
ATOM     16  N   UNL     1      36.151  30.138  54.042  0.00  0.00    +0.000 NA
ATOM     17  C   UNL     1      36.089  29.598  55.283  0.00  0.00    +0.000 A 
ATOM     18  H   UNL     1      35.381  29.713  56.110  0.00  0.00    +0.000 HD
ATOM     19  N   UNL     1      37.152  28.774  55.417  0.00  0.00    +0.000 N 
ATOM     20  H   UNL     1      37.427  28.192  56.235  0.00  0.00    +0.000 HD
ATOM     21  N   UNL     1      37.872  28.783  54.308  0.00  0.00    +0.000 NA
ENDBRANCH  14  15
ENDBRANCH   1  14
TORSDOF 3
