
 OpenBabel03272501113D

 23 25  0  0  1  0  0  0  0  0999 V2000
   37.3190   31.5690   49.4200 C   0  0  1  0  0  0  0  0  0  0  0  0
   37.0170   30.1990   49.0080 C   0  0  1  0  0  0  0  0  0  0  0  0
   37.9470   30.4110   50.1730 C   0  0  0  0  0  0  0  0  0  0  0  0
   36.7230   32.1930   50.1140 H   0  0  0  0  0  0  0  0  0  0  0  0
   37.5350   29.8560   48.0880 H   0  0  0  0  0  0  0  0  0  0  0  0
   37.5030   30.0960   51.1350 H   0  0  0  0  0  0  0  0  0  0  0  0
   39.0150   30.2050   50.1010 H   0  0  0  0  0  0  0  0  0  0  0  0
   38.3280   32.3920   48.6570 C   0  0  0  0  0  0  0  0  0  0  0  0
   38.8300   33.5380   49.2990 C   0  0  0  0  0  0  0  0  0  0  0  0
   39.7380   34.2940   48.5730 C   0  0  0  0  0  0  0  0  0  0  0  0
   40.0970   33.9120   47.3080 N   0  0  0  0  0  0  0  0  0  0  0  0
   39.5830   32.7890   46.7230 C   0  0  0  0  0  0  0  0  0  0  0  0
   38.6910   32.0270   47.4100 N   0  0  0  0  0  0  0  0  0  0  0  0
   38.5470   33.8320   50.2850 H   0  0  0  0  0  0  0  0  0  0  0  0
   40.1950   35.1980   48.9580 H   0  0  0  0  0  0  0  0  0  0  0  0
   39.9000   32.5330   45.7210 H   0  0  0  0  0  0  0  0  0  0  0  0
   35.6450   29.6660   49.2420 C   0  0  0  0  0  0  0  0  0  0  0  0
   35.1380   28.4540   48.9090 N   0  0  0  0  0  0  0  0  0  0  0  0
   33.8420   28.3880   49.3110 C   0  0  0  0  0  0  0  0  0  0  0  0
   33.2820   27.4850   49.1230 H   0  0  0  0  0  0  0  0  0  0  0  0
   33.5640   29.5760   49.8980 N   0  0  0  0  0  0  0  0  0  0  0  0
   32.6150   29.7340   50.2790 H   0  0  0  0  0  0  0  0  0  0  0  0
   34.6600   30.3450   49.8520 N   0  0  0  0  0  0  0  0  0  0  0  0
  1  4  1  1  0  0  0
  1  3  1  0  0  0  0
  2  5  1  6  0  0  0
  2 17  1  0  0  0  0
  2  1  1  0  0  0  0
  2  3  1  0  0  0  0
  3  6  1  0  0  0  0
  7  3  1  0  0  0  0
  8  9  1  0  0  0  0
  8  1  1  0  0  0  0
  9 14  1  0  0  0  0
 10 15  1  0  0  0  0
 10  9  2  0  0  0  0
 11 10  1  0  0  0  0
 12 11  2  0  0  0  0
 12 13  1  0  0  0  0
 13  8  2  0  0  0  0
 16 12  1  0  0  0  0
 17 23  2  0  0  0  0
 18 17  1  0  0  0  0
 18 19  2  0  0  0  0
 19 21  1  0  0  0  0
 20 19  1  0  0  0  0
 21 22  1  0  0  0  0
 23 21  1  0  0  0  0
M  END
>  <minimizedAffinity>
-5.0880332

>  <minimizedRMSD>
1.94054699

$$$$
