
 OpenBabel03272509213D

 44 48  0  0  0  0  0  0  0  0999 V2000
   38.0120   31.2750   47.7420 C   0  0  0  0  0  0  0  0  0  0  0  0
   37.0890   31.3010   48.7690 C   0  0  0  0  0  0  0  0  0  0  0  0
   37.2030   32.4050   49.6160 C   0  0  0  0  0  0  0  0  0  0  0  0
   38.1790   33.3880   49.4220 C   0  0  0  0  0  0  0  0  0  0  0  0
   39.0830   33.2730   48.3360 C   0  0  0  0  0  0  0  0  0  0  0  0
   38.9810   32.1810   47.4850 C   0  0  0  0  0  0  0  0  0  0  0  0
   36.5320   32.5310   50.4570 H   0  0  0  0  0  0  0  0  0  0  0  0
   38.2610   34.2420   50.0830 H   0  0  0  0  0  0  0  0  0  0  0  0
   39.8290   34.0270   48.1880 H   0  0  0  0  0  0  0  0  0  0  0  0
   34.9360   30.2940   48.2090 C   0  0  0  0  0  0  0  0  0  0  0  0
   36.0910   30.2980   48.9710 C   0  0  0  0  0  0  0  0  0  0  0  0
   36.2330   29.2840   49.9350 C   0  0  0  0  0  0  0  0  0  0  0  0
   35.2490   28.3730   50.0660 N   0  0  0  0  0  0  0  0  0  0  0  0
   34.1270   28.4100   49.2920 C   0  0  0  0  0  0  0  0  0  0  0  0
   33.9790   29.3640   48.3750 N   0  0  0  0  0  0  0  0  0  0  0  0
   34.7570   31.0450   47.4450 H   0  0  0  0  0  0  0  0  0  0  0  0
   33.4650   27.5830   49.5650 H   0  0  0  0  0  0  0  0  0  0  0  0
   37.4590   29.2370   50.7880 C   0  0  0  0  0  0  0  0  0  0  0  0
   37.3490   29.8770   51.6930 H   0  0  0  0  0  0  0  0  0  0  0  0
   37.6870   28.1960   51.0220 H   0  0  0  0  0  0  0  0  0  0  0  0
   38.2970   29.6530   50.1560 H   0  0  0  0  0  0  0  0  0  0  0  0
   37.9790   30.2030   46.8330 O   0  0  0  0  0  0  0  0  0  0  0  0
   37.3760   30.3330   46.0180 H   0  0  0  0  0  0  0  0  0  0  0  0
   39.8840   32.1230   46.4500 O   0  0  0  0  0  0  0  0  0  0  0  0
   40.2900   31.2590   44.1470 C   0  0  0  0  0  0  0  0  0  0  0  0
   39.6030   31.9680   45.1260 C   0  0  0  0  0  0  0  0  0  0  0  0
   38.4470   32.6430   44.7710 C   0  0  0  0  0  0  0  0  0  0  0  0
   37.9720   32.6150   43.4430 C   0  0  0  0  0  0  0  0  0  0  0  0
   36.9200   33.1480   42.8020 N   0  0  0  0  0  0  0  0  0  0  0  0
   36.9370   32.8000   41.5030 C   0  0  0  0  0  0  0  0  0  0  0  0
   38.0350   32.0240   41.3240 N   0  0  0  0  0  0  0  0  0  0  0  0
   38.6900   31.8950   42.5050 C   0  0  0  0  0  0  0  0  0  0  0  0
   39.8340   31.2260   42.8530 C   0  0  0  0  0  0  0  0  0  0  0  0
   41.1750   30.7670   44.5210 H   0  0  0  0  0  0  0  0  0  0  0  0
   37.7990   33.2410   45.4210 H   0  0  0  0  0  0  0  0  0  0  0  0
   36.1820   33.7570   43.2610 H   0  0  0  0  0  0  0  0  0  0  0  0
   36.1810   33.1220   40.8050 H   0  0  0  0  0  0  0  0  0  0  0  0
   40.6010   30.4630   41.8720 C   0  0  0  0  0  0  0  0  0  0  0  0
   41.0940   29.2260   42.1190 N   0  0  0  0  0  0  0  0  0  0  0  0
   41.7540   28.7750   41.0320 C   0  0  0  0  0  0  0  0  0  0  0  0
   42.2700   27.8320   40.8780 H   0  0  0  0  0  0  0  0  0  0  0  0
   41.6370   29.7870   40.1250 N   0  0  0  0  0  0  0  0  0  0  0  0
   42.0760   29.6890   39.1630 H   0  0  0  0  0  0  0  0  0  0  0  0
   40.9470   30.7990   40.6230 N   0  0  0  0  0  0  0  0  0  0  0  0
  1  2  1  0  0  0  0
  2 11  1  0  0  0  0
  2  3  2  0  0  0  0
  3  7  1  0  0  0  0
  4  3  1  0  0  0  0
  4  8  1  0  0  0  0
  5  4  2  0  0  0  0
  6  1  2  0  0  0  0
  6  5  1  0  0  0  0
  9  5  1  0  0  0  0
 10 15  2  0  0  0  0
 10 11  1  0  0  0  0
 11 12  2  0  0  0  0
 12 13  1  0  0  0  0
 12 18  1  0  0  0  0
 14 17  1  0  0  0  0
 14 13  2  0  0  0  0
 15 14  1  0  0  0  0
 16 10  1  0  0  0  0
 18 20  1  0  0  0  0
 18 19  1  0  0  0  0
 21 18  1  0  0  0  0
 22  1  1  0  0  0  0
 23 22  1  0  0  0  0
 24  6  1  0  0  0  0
 25 34  1  0  0  0  0
 25 26  1  0  0  0  0
 26 24  1  0  0  0  0
 27 26  2  0  0  0  0
 27 35  1  0  0  0  0
 28 27  1  0  0  0  0
 29 36  1  0  0  0  0
 29 28  1  0  0  0  0
 30 29  1  0  0  0  0
 31 30  2  0  0  0  0
 31 32  1  0  0  0  0
 32 33  1  0  0  0  0
 32 28  2  0  0  0  0
 33 25  2  0  0  0  0
 37 30  1  0  0  0  0
 38 39  1  0  0  0  0
 38 33  1  0  0  0  0
 40 39  2  0  0  0  0
 41 40  1  0  0  0  0
 42 44  1  0  0  0  0
 42 40  1  0  0  0  0
 43 42  1  0  0  0  0
 44 38  2  0  0  0  0
M  END
>  <minimizedAffinity>
-7.67376328

>  <minimizedRMSD>
0.422314912

$$$$
