
 OpenBabel03272505093D

 27 29  0  0  0  0  0  0  0  0999 V2000
   36.3840   30.8810   45.8340 Cl  0  0  0  0  0  0  0  0  0  0  0  0
   36.7420   30.8140   47.5420 C   0  0  0  0  0  0  0  0  0  0  0  0
   38.0060   31.1590   47.9150 C   0  0  0  0  0  0  0  0  0  0  0  0
   38.3130   31.1110   49.2760 C   0  0  0  0  0  0  0  0  0  0  0  0
   37.3490   30.7260   50.1810 C   0  0  0  0  0  0  0  0  0  0  0  0
   36.0990   30.3930   49.7330 C   0  0  0  0  0  0  0  0  0  0  0  0
   35.7430   30.4200   48.4200 C   0  0  0  0  0  0  0  0  0  0  0  0
   39.3060   31.3790   49.5970 H   0  0  0  0  0  0  0  0  0  0  0  0
   37.6190   30.7000   51.2280 H   0  0  0  0  0  0  0  0  0  0  0  0
   35.3490   30.0920   50.4550 H   0  0  0  0  0  0  0  0  0  0  0  0
   40.2300   33.3020   45.9620 C   0  0  0  0  0  0  0  0  0  0  0  0
   40.8990   32.4010   45.0980 C   0  0  0  0  0  0  0  0  0  0  0  0
   40.5620   31.0490   45.2090 C   0  0  0  0  0  0  0  0  0  0  0  0
   39.6250   30.6730   46.1270 N   0  0  0  0  0  0  0  0  0  0  0  0
   39.0190   31.5680   46.9240 C   0  0  0  0  0  0  0  0  0  0  0  0
   39.3280   32.8550   46.8300 N   0  0  0  0  0  0  0  0  0  0  0  0
   40.4550   34.3470   45.9120 H   0  0  0  0  0  0  0  0  0  0  0  0
   41.6370   32.7630   44.3870 H   0  0  0  0  0  0  0  0  0  0  0  0
   41.0510   30.3270   44.5660 H   0  0  0  0  0  0  0  0  0  0  0  0
   34.1230   29.9950   47.7870 S   0  0  0  0  0  0  0  0  0  0  0  0
   34.0050   28.2350   47.5060 C   0  0  0  0  0  0  0  0  0  0  0  0
   33.8720   27.8600   46.2220 N   0  0  0  0  0  0  0  0  0  0  0  0
   33.7920   26.5260   46.1150 C   0  0  0  0  0  0  0  0  0  0  0  0
   33.6810   25.8990   45.2390 H   0  0  0  0  0  0  0  0  0  0  0  0
   33.8770   26.0620   47.3730 N   0  0  0  0  0  0  0  0  0  0  0  0
   33.8590   25.0890   47.7600 H   0  0  0  0  0  0  0  0  0  0  0  0
   34.0070   27.0820   48.2360 N   0  0  0  0  0  0  0  0  0  0  0  0
  1  2  1  0  0  0  0
  2  3  2  0  0  0  0
  2  7  1  0  0  0  0
  3  4  1  0  0  0  0
  4  8  1  0  0  0  0
  4  5  2  0  0  0  0
  5  9  1  0  0  0  0
  6  5  1  0  0  0  0
  6 10  1  0  0  0  0
  7  6  2  0  0  0  0
 11 16  1  0  0  0  0
 12 13  1  0  0  0  0
 12 11  2  0  0  0  0
 13 14  2  0  0  0  0
 14 15  1  0  0  0  0
 15  3  1  0  0  0  0
 16 15  2  0  0  0  0
 17 11  1  0  0  0  0
 18 12  1  0  0  0  0
 19 13  1  0  0  0  0
 20  7  1  0  0  0  0
 21 20  1  0  0  0  0
 21 27  2  0  0  0  0
 22 21  1  0  0  0  0
 23 22  2  0  0  0  0
 23 25  1  0  0  0  0
 24 23  1  0  0  0  0
 25 26  1  0  0  0  0
 25 27  1  0  0  0  0
M  END
>  <minimizedAffinity>
-5.29232121

>  <minimizedRMSD>
0.762729287

$$$$
