
 OpenBabel03272502263D

 38 41  0  0  0  0  0  0  0  0999 V2000
   37.6620   30.2150   51.0220 C   0  0  0  0  0  0  0  0  0  0  0  0
   38.1160   30.7850   49.8260 C   0  0  0  0  0  0  0  0  0  0  0  0
   37.4080   30.4950   48.6690 C   0  0  0  0  0  0  0  0  0  0  0  0
   36.3410   29.6870   48.7890 N   0  0  0  0  0  0  0  0  0  0  0  0
   35.9190   29.1470   49.9430 C   0  0  0  0  0  0  0  0  0  0  0  0
   36.5910   29.4180   51.0690 N   0  0  0  0  0  0  0  0  0  0  0  0
   38.2300   30.4560   51.9100 H   0  0  0  0  0  0  0  0  0  0  0  0
   38.9650   31.4280   49.7390 H   0  0  0  0  0  0  0  0  0  0  0  0
   37.7600   31.0190   47.3740 C   0  0  0  0  0  0  0  0  0  0  0  0
   37.0100   30.7010   46.2480 C   0  0  0  0  0  0  0  0  0  0  0  0
   37.2980   31.1780   44.9970 C   0  0  0  0  0  0  0  0  0  0  0  0
   38.3600   31.9950   44.8370 N   0  0  0  0  0  0  0  0  0  0  0  0
   39.0800   32.2970   45.9320 C   0  0  0  0  0  0  0  0  0  0  0  0
   38.8130   31.8420   47.1600 N   0  0  0  0  0  0  0  0  0  0  0  0
   36.1430   30.0440   46.3300 H   0  0  0  0  0  0  0  0  0  0  0  0
   36.6880   30.9050   44.1440 H   0  0  0  0  0  0  0  0  0  0  0  0
   40.2600   33.1980   45.7880 C   0  0  0  0  0  0  0  0  0  0  0  0
   40.3590   33.9440   46.9620 F   0  0  0  0  0  0  0  0  0  0  0  0
   41.4020   32.4660   45.5440 F   0  0  0  0  0  0  0  0  0  0  0  0
   40.0840   34.1020   44.7710 F   0  0  0  0  0  0  0  0  0  0  0  0
   34.7970   28.3350   49.8790 O   0  0  0  0  0  0  0  0  0  0  0  0
   33.7080   26.6070   46.8260 N   0  0  0  0  0  0  0  0  0  0  0  0
   34.2990   26.7480   48.0210 C   0  0  0  0  0  0  0  0  0  0  0  0
   34.2680   27.9650   48.6660 C   0  0  0  0  0  0  0  0  0  0  0  0
   33.6080   29.0320   48.0410 C   0  0  0  0  0  0  0  0  0  0  0  0
   33.4560   30.2230   48.4420 O   0  0  0  0  0  0  0  0  0  0  0  0
   33.0300   28.8210   46.8290 N   0  0  0  0  0  0  0  0  0  0  0  0
   33.0800   27.6240   46.2300 C   0  0  0  0  0  0  0  0  0  0  0  0
   32.5500   27.4010   45.1010 O   0  0  0  0  0  0  0  0  0  0  0  0
   33.7970   25.6470   46.4360 H   0  0  0  0  0  0  0  0  0  0  0  0
   34.8220   25.9900   48.5670 H   0  0  0  0  0  0  0  0  0  0  0  0
   32.3370   29.8260   46.1020 C   0  0  0  0  0  0  0  0  0  0  0  0
   31.2160   29.9430   45.3610 N   0  0  0  0  0  0  0  0  0  0  0  0
   31.1240   31.2230   44.9360 C   0  0  0  0  0  0  0  0  0  0  0  0
   30.2870   31.4880   44.3320 H   0  0  0  0  0  0  0  0  0  0  0  0
   32.1920   31.8870   45.4170 N   0  0  0  0  0  0  0  0  0  0  0  0
   32.2940   32.8960   45.1900 H   0  0  0  0  0  0  0  0  0  0  0  0
   32.9360   31.0490   46.1270 N   0  0  0  0  0  0  0  0  0  0  0  0
  1  6  1  0  0  0  0
  1  7  1  0  0  0  0
  2  1  2  0  0  0  0
  3  4  2  0  0  0  0
  3  2  1  0  0  0  0
  4  5  1  0  0  0  0
  5  6  2  0  0  0  0
  8  2  1  0  0  0  0
  9  3  1  0  0  0  0
 10 15  1  0  0  0  0
 10  9  2  0  0  0  0
 11 10  1  0  0  0  0
 12 11  2  0  0  0  0
 12 13  1  0  0  0  0
 13 14  2  0  0  0  0
 14  9  1  0  0  0  0
 16 11  1  0  0  0  0
 17 13  1  0  0  0  0
 17 18  1  0  0  0  0
 19 17  1  0  0  0  0
 20 17  1  0  0  0  0
 21  5  1  0  0  0  0
 22 23  1  0  0  0  0
 23 31  1  0  0  0  0
 23 24  2  0  0  0  0
 24 21  1  0  0  0  0
 25 26  2  0  0  0  0
 25 24  1  0  0  0  0
 27 25  1  0  0  0  0
 28 22  1  0  0  0  0
 28 27  1  0  0  0  0
 29 28  2  0  0  0  0
 30 22  1  0  0  0  0
 32 38  2  0  0  0  0
 32 27  1  0  0  0  0
 33 32  1  0  0  0  0
 34 33  2  0  0  0  0
 34 36  1  0  0  0  0
 35 34  1  0  0  0  0
 36 38  1  0  0  0  0
 37 36  1  0  0  0  0
M  END
>  <minimizedAffinity>
-6.71879959

>  <minimizedRMSD>
0.896871328

$$$$
