
 OpenBabel03272509183D

 31 33  0  0  0  0  0  0  0  0999 V2000
   38.0490   31.2720   47.7830 C   0  0  0  0  0  0  0  0  0  0  0  0
   37.0860   31.2980   48.7730 C   0  0  0  0  0  0  0  0  0  0  0  0
   37.1670   32.4210   49.6190 C   0  0  0  0  0  0  0  0  0  0  0  0
   38.1440   33.4000   49.4480 C   0  0  0  0  0  0  0  0  0  0  0  0
   39.0690   33.2830   48.4200 C   0  0  0  0  0  0  0  0  0  0  0  0
   39.0140   32.1880   47.5700 C   0  0  0  0  0  0  0  0  0  0  0  0
   36.4520   32.5040   50.4070 H   0  0  0  0  0  0  0  0  0  0  0  0
   38.1810   34.2520   50.1150 H   0  0  0  0  0  0  0  0  0  0  0  0
   39.8430   34.0250   48.2560 H   0  0  0  0  0  0  0  0  0  0  0  0
   34.9320   30.3180   48.1460 C   0  0  0  0  0  0  0  0  0  0  0  0
   36.0830   30.2960   48.9530 C   0  0  0  0  0  0  0  0  0  0  0  0
   36.2060   29.2890   49.9120 C   0  0  0  0  0  0  0  0  0  0  0  0
   35.1920   28.3820   50.0030 N   0  0  0  0  0  0  0  0  0  0  0  0
   34.1010   28.4260   49.2170 C   0  0  0  0  0  0  0  0  0  0  0  0
   33.9730   29.3850   48.2960 N   0  0  0  0  0  0  0  0  0  0  0  0
   34.8240   31.0980   47.3950 H   0  0  0  0  0  0  0  0  0  0  0  0
   33.3630   27.6570   49.3780 H   0  0  0  0  0  0  0  0  0  0  0  0
   37.4000   29.2280   50.7850 C   0  0  0  0  0  0  0  0  0  0  0  0
   37.7060   28.1950   51.0560 H   0  0  0  0  0  0  0  0  0  0  0  0
   38.2140   29.8070   50.2810 H   0  0  0  0  0  0  0  0  0  0  0  0
   37.1480   29.8320   51.6930 H   0  0  0  0  0  0  0  0  0  0  0  0
   38.0450   30.1890   46.8930 O   0  0  0  0  0  0  0  0  0  0  0  0
   37.2540   29.9240   46.3260 H   0  0  0  0  0  0  0  0  0  0  0  0
   39.9540   32.0880   46.5420 O   0  0  0  0  0  0  0  0  0  0  0  0
   39.4790   32.3340   45.2610 C   0  0  0  0  0  0  0  0  0  0  0  0
   38.2320   32.5820   44.8210 N   0  0  0  0  0  0  0  0  0  0  0  0
   38.2990   32.7520   43.4880 C   0  0  0  0  0  0  0  0  0  0  0  0
   37.4530   32.9670   42.8440 H   0  0  0  0  0  0  0  0  0  0  0  0
   39.5800   32.6090   43.1030 N   0  0  0  0  0  0  0  0  0  0  0  0
   39.9380   32.6880   42.1240 H   0  0  0  0  0  0  0  0  0  0  0  0
   40.2720   32.3570   44.1920 N   0  0  0  0  0  0  0  0  0  0  0  0
  1  2  1  0  0  0  0
  2 11  1  0  0  0  0
  2  3  2  0  0  0  0
  3  7  1  0  0  0  0
  4  3  1  0  0  0  0
  4  8  1  0  0  0  0
  5  4  2  0  0  0  0
  6  1  2  0  0  0  0
  6  5  1  0  0  0  0
  9  5  1  0  0  0  0
 10 15  2  0  0  0  0
 10 11  1  0  0  0  0
 11 12  2  0  0  0  0
 12 13  1  0  0  0  0
 12 18  1  0  0  0  0
 14 17  1  0  0  0  0
 14 13  2  0  0  0  0
 15 14  1  0  0  0  0
 16 10  1  0  0  0  0
 18 19  1  0  0  0  0
 18 21  1  0  0  0  0
 20 18  1  0  0  0  0
 22  1  1  0  0  0  0
 23 22  1  0  0  0  0
 24  6  1  0  0  0  0
 25 24  1  0  0  0  0
 26 25  1  0  0  0  0
 27 26  2  0  0  0  0
 28 27  1  0  0  0  0
 29 27  1  0  0  0  0
 29 31  1  0  0  0  0
 30 29  1  0  0  0  0
 31 25  2  0  0  0  0
M  END
>  <minimizedAffinity>
-6.35577679

>  <minimizedRMSD>
0.260453552

$$$$
