
 OpenBabel03272502123D

 24 26  0  0  0  0  0  0  0  0999 V2000
   38.2570   24.9650   33.3280 C   0  0  0  0  0  0  0  0  0  0  0  0
   39.5300   25.3220   32.9600 C   0  0  0  0  0  0  0  0  0  0  0  0
   40.6640   25.1990   33.7570 C   0  0  0  0  0  0  0  0  0  0  0  0
   40.4620   24.6740   35.0070 N   0  0  0  0  0  0  0  0  0  0  0  0
   39.2100   24.3160   35.3820 C   0  0  0  0  0  0  0  0  0  0  0  0
   38.1660   24.4640   34.5620 N   0  0  0  0  0  0  0  0  0  0  0  0
   39.7140   25.7420   31.9730 H   0  0  0  0  0  0  0  0  0  0  0  0
   41.6410   25.4960   33.4200 H   0  0  0  0  0  0  0  0  0  0  0  0
   36.5540   26.3330   32.0890 C   0  0  0  0  0  0  0  0  0  0  0  0
   37.1150   25.1140   32.4630 C   0  0  0  0  0  0  0  0  0  0  0  0
   36.5250   23.9490   31.9600 C   0  0  0  0  0  0  0  0  0  0  0  0
   35.4460   24.0680   31.1410 N   0  0  0  0  0  0  0  0  0  0  0  0
   34.9240   25.2770   30.7970 C   0  0  0  0  0  0  0  0  0  0  0  0
   35.4890   26.3980   31.2800 N   0  0  0  0  0  0  0  0  0  0  0  0
   37.0080   27.2330   32.4760 H   0  0  0  0  0  0  0  0  0  0  0  0
   36.9150   22.9800   32.2140 H   0  0  0  0  0  0  0  0  0  0  0  0
   34.0640   25.2010   30.1380 H   0  0  0  0  0  0  0  0  0  0  0  0
   38.9780   23.7540   36.7110 C   0  0  0  0  0  0  0  0  0  0  0  0
   37.8650   24.0740   37.4320 N   0  0  0  0  0  0  0  0  0  0  0  0
   37.9130   23.4090   38.6190 C   0  0  0  0  0  0  0  0  0  0  0  0
   37.1370   23.4960   39.3770 H   0  0  0  0  0  0  0  0  0  0  0  0
   39.0520   22.6840   38.6230 N   0  0  0  0  0  0  0  0  0  0  0  0
   39.3450   22.0740   39.4170 H   0  0  0  0  0  0  0  0  0  0  0  0
   39.6920   22.8920   37.4730 N   0  0  0  0  0  0  0  0  0  0  0  0
  1  6  1  0  0  0  0
  2  1  2  0  0  0  0
  2  3  1  0  0  0  0
  3  4  2  0  0  0  0
  4  5  1  0  0  0  0
  5 18  1  0  0  0  0
  6  5  2  0  0  0  0
  7  2  1  0  0  0  0
  8  3  1  0  0  0  0
  9 10  1  0  0  0  0
  9 15  1  0  0  0  0
 10  1  1  0  0  0  0
 11 16  1  0  0  0  0
 11 10  2  0  0  0  0
 12 11  1  0  0  0  0
 13 12  2  0  0  0  0
 13 14  1  0  0  0  0
 14  9  2  0  0  0  0
 17 13  1  0  0  0  0
 18 19  1  0  0  0  0
 18 24  2  0  0  0  0
 19 20  2  0  0  0  0
 20 22  1  0  0  0  0
 20 21  1  0  0  0  0
 22 23  1  0  0  0  0
 24 22  1  0  0  0  0
M  END
>  <minimizedAffinity>
-4.92799997

$$$$

 OpenBabel03272502123D

 24 26  0  0  0  0  0  0  0  0999 V2000
   38.4870   25.4780   35.4190 C   0  0  0  0  0  0  0  0  0  0  0  0
   38.4180   26.7490   35.9340 C   0  0  0  0  0  0  0  0  0  0  0  0
   37.7460   27.8200   35.3510 C   0  0  0  0  0  0  0  0  0  0  0  0
   37.1100   27.5530   34.1670 N   0  0  0  0  0  0  0  0  0  0  0  0
   37.1690   26.3020   33.6480 C   0  0  0  0  0  0  0  0  0  0  0  0
   37.8350   25.3220   34.2640 N   0  0  0  0  0  0  0  0  0  0  0  0
   38.9160   26.9840   36.8720 H   0  0  0  0  0  0  0  0  0  0  0  0
   37.7240   28.7990   35.7960 H   0  0  0  0  0  0  0  0  0  0  0  0
   40.3730   23.8300   35.5860 C   0  0  0  0  0  0  0  0  0  0  0  0
   39.1970   24.4050   36.0630 C   0  0  0  0  0  0  0  0  0  0  0  0
   38.6680   23.9010   37.2560 C   0  0  0  0  0  0  0  0  0  0  0  0
   39.3240   22.8860   37.8810 N   0  0  0  0  0  0  0  0  0  0  0  0
   40.4720   22.3480   37.3860 C   0  0  0  0  0  0  0  0  0  0  0  0
   40.9820   22.8310   36.2380 N   0  0  0  0  0  0  0  0  0  0  0  0
   40.7830   24.2170   34.6660 H   0  0  0  0  0  0  0  0  0  0  0  0
   37.7630   24.3050   37.6730 H   0  0  0  0  0  0  0  0  0  0  0  0
   40.8700   21.5470   38.0010 H   0  0  0  0  0  0  0  0  0  0  0  0
   36.4960   26.0020   32.3860 C   0  0  0  0  0  0  0  0  0  0  0  0
   36.2250   24.7170   32.0150 N   0  0  0  0  0  0  0  0  0  0  0  0
   35.5990   24.7400   30.8070 C   0  0  0  0  0  0  0  0  0  0  0  0
   35.2760   23.8370   30.2920 H   0  0  0  0  0  0  0  0  0  0  0  0
   35.4850   26.0340   30.4410 N   0  0  0  0  0  0  0  0  0  0  0  0
   35.0410   26.3450   29.5500 H   0  0  0  0  0  0  0  0  0  0  0  0
   36.0260   26.7930   31.3940 N   0  0  0  0  0  0  0  0  0  0  0  0
  1  2  1  0  0  0  0
  1 10  1  0  0  0  0
  2  7  1  0  0  0  0
  3  8  1  0  0  0  0
  3  2  2  0  0  0  0
  4  3  1  0  0  0  0
  5  4  2  0  0  0  0
  5  6  1  0  0  0  0
  6  1  2  0  0  0  0
  9 10  2  0  0  0  0
  9 14  1  0  0  0  0
 10 11  1  0  0  0  0
 11 16  1  0  0  0  0
 11 12  2  0  0  0  0
 13 12  1  0  0  0  0
 13 17  1  0  0  0  0
 14 13  2  0  0  0  0
 15  9  1  0  0  0  0
 18  5  1  0  0  0  0
 19 18  1  0  0  0  0
 20 19  2  0  0  0  0
 21 20  1  0  0  0  0
 22 20  1  0  0  0  0
 22 24  1  0  0  0  0
 23 22  1  0  0  0  0
 24 18  2  0  0  0  0
M  END
>  <minimizedAffinity>
-4.82831955

$$$$

 OpenBabel03272502123D

 24 26  0  0  0  0  0  0  0  0999 V2000
   37.7440   25.7170   33.7100 C   0  0  0  0  0  0  0  0  0  0  0  0
   38.2960   25.0140   32.6680 C   0  0  0  0  0  0  0  0  0  0  0  0
   39.0520   23.8520   32.7900 C   0  0  0  0  0  0  0  0  0  0  0  0
   39.2420   23.3940   34.0680 N   0  0  0  0  0  0  0  0  0  0  0  0
   38.7000   24.0780   35.1060 C   0  0  0  0  0  0  0  0  0  0  0  0
   37.9850   25.1900   34.9120 N   0  0  0  0  0  0  0  0  0  0  0  0
   38.1600   25.3590   31.6450 H   0  0  0  0  0  0  0  0  0  0  0  0
   39.4640   23.3390   31.9400 H   0  0  0  0  0  0  0  0  0  0  0  0
   36.7210   27.8620   34.5210 C   0  0  0  0  0  0  0  0  0  0  0  0
   36.9690   26.9170   33.5280 C   0  0  0  0  0  0  0  0  0  0  0  0
   36.4250   27.1520   32.2600 C   0  0  0  0  0  0  0  0  0  0  0  0
   35.6900   28.2800   32.0670 N   0  0  0  0  0  0  0  0  0  0  0  0
   35.4670   29.1820   33.0610 C   0  0  0  0  0  0  0  0  0  0  0  0
   35.9890   28.9580   34.2810 N   0  0  0  0  0  0  0  0  0  0  0  0
   37.1390   27.6820   35.4990 H   0  0  0  0  0  0  0  0  0  0  0  0
   36.5830   26.4580   31.4540 H   0  0  0  0  0  0  0  0  0  0  0  0
   34.8620   30.0260   32.7460 H   0  0  0  0  0  0  0  0  0  0  0  0
   38.8930   23.6030   36.4740 C   0  0  0  0  0  0  0  0  0  0  0  0
   38.1380   24.0810   37.5040 N   0  0  0  0  0  0  0  0  0  0  0  0
   38.5330   23.4650   38.6520 C   0  0  0  0  0  0  0  0  0  0  0  0
   38.0820   23.6750   39.6210 H   0  0  0  0  0  0  0  0  0  0  0  0
   39.5270   22.6130   38.3240 N   0  0  0  0  0  0  0  0  0  0  0  0
   40.0190   22.0070   39.0170 H   0  0  0  0  0  0  0  0  0  0  0  0
   39.7430   22.6970   37.0130 N   0  0  0  0  0  0  0  0  0  0  0  0
  1  6  1  0  0  0  0
  2  3  1  0  0  0  0
  2  1  2  0  0  0  0
  3  4  2  0  0  0  0
  4  5  1  0  0  0  0
  5 18  1  0  0  0  0
  6  5  2  0  0  0  0
  7  2  1  0  0  0  0
  8  3  1  0  0  0  0
  9 15  1  0  0  0  0
 10  1  1  0  0  0  0
 10  9  2  0  0  0  0
 11 10  1  0  0  0  0
 12 11  2  0  0  0  0
 12 13  1  0  0  0  0
 13 14  2  0  0  0  0
 14  9  1  0  0  0  0
 16 11  1  0  0  0  0
 17 13  1  0  0  0  0
 18 24  2  0  0  0  0
 18 19  1  0  0  0  0
 19 20  2  0  0  0  0
 20 21  1  0  0  0  0
 22 20  1  0  0  0  0
 22 23  1  0  0  0  0
 24 22  1  0  0  0  0
M  END
>  <minimizedAffinity>
-4.73704576

$$$$

 OpenBabel03272502123D

 24 26  0  0  0  0  0  0  0  0999 V2000
   37.6870   24.3770   33.1210 C   0  0  0  0  0  0  0  0  0  0  0  0
   37.2520   23.2250   32.5140 C   0  0  0  0  0  0  0  0  0  0  0  0
   37.2390   21.9620   33.0980 C   0  0  0  0  0  0  0  0  0  0  0  0
   37.7020   21.8940   34.3860 N   0  0  0  0  0  0  0  0  0  0  0  0
   38.1340   23.0250   34.9970 C   0  0  0  0  0  0  0  0  0  0  0  0
   38.1180   24.2050   34.3730 N   0  0  0  0  0  0  0  0  0  0  0  0
   36.8810   23.2540   31.4920 H   0  0  0  0  0  0  0  0  0  0  0  0
   36.8880   21.0890   32.5780 H   0  0  0  0  0  0  0  0  0  0  0  0
   38.2270   25.9190   31.2140 C   0  0  0  0  0  0  0  0  0  0  0  0
   37.6810   25.6610   32.4690 C   0  0  0  0  0  0  0  0  0  0  0  0
   37.0810   26.7290   33.1460 C   0  0  0  0  0  0  0  0  0  0  0  0
   37.0650   27.9510   32.5490 N   0  0  0  0  0  0  0  0  0  0  0  0
   37.6090   28.1670   31.3200 C   0  0  0  0  0  0  0  0  0  0  0  0
   38.1860   27.1420   30.6680 N   0  0  0  0  0  0  0  0  0  0  0  0
   38.6900   25.0970   30.6910 H   0  0  0  0  0  0  0  0  0  0  0  0
   36.6430   26.5900   34.1180 H   0  0  0  0  0  0  0  0  0  0  0  0
   37.5150   29.1950   30.9840 H   0  0  0  0  0  0  0  0  0  0  0  0
   38.6310   22.9700   36.3700 C   0  0  0  0  0  0  0  0  0  0  0  0
   37.9590   23.5730   37.3930 N   0  0  0  0  0  0  0  0  0  0  0  0
   38.6470   23.3580   38.5480 C   0  0  0  0  0  0  0  0  0  0  0  0
   38.3160   23.7400   39.5120 H   0  0  0  0  0  0  0  0  0  0  0  0
   39.7360   22.6250   38.2320 N   0  0  0  0  0  0  0  0  0  0  0  0
   40.4450   22.3150   38.9320 H   0  0  0  0  0  0  0  0  0  0  0  0
   39.7240   22.3920   36.9200 N   0  0  0  0  0  0  0  0  0  0  0  0
  1  6  1  0  0  0  0
  2  3  1  0  0  0  0
  2  1  2  0  0  0  0
  3  4  2  0  0  0  0
  4  5  1  0  0  0  0
  5 18  1  0  0  0  0
  6  5  2  0  0  0  0
  7  2  1  0  0  0  0
  8  3  1  0  0  0  0
  9 10  1  0  0  0  0
 10  1  1  0  0  0  0
 10 11  2  0  0  0  0
 11 16  1  0  0  0  0
 12 11  1  0  0  0  0
 13 12  2  0  0  0  0
 14  9  2  0  0  0  0
 14 13  1  0  0  0  0
 15  9  1  0  0  0  0
 17 13  1  0  0  0  0
 18 24  2  0  0  0  0
 18 19  1  0  0  0  0
 19 20  2  0  0  0  0
 20 21  1  0  0  0  0
 22 20  1  0  0  0  0
 22 23  1  0  0  0  0
 24 22  1  0  0  0  0
M  END
>  <minimizedAffinity>
-4.66820383

$$$$

 OpenBabel03272502123D

 24 26  0  0  0  0  0  0  0  0999 V2000
   36.3490   24.2010   31.8100 C   0  0  0  0  0  0  0  0  0  0  0  0
   35.6450   25.0780   31.0230 C   0  0  0  0  0  0  0  0  0  0  0  0
   35.6120   26.4600   31.1840 C   0  0  0  0  0  0  0  0  0  0  0  0
   36.3550   26.9570   32.2230 N   0  0  0  0  0  0  0  0  0  0  0  0
   37.0560   26.1030   33.0080 C   0  0  0  0  0  0  0  0  0  0  0  0
   37.0400   24.7850   32.7930 N   0  0  0  0  0  0  0  0  0  0  0  0
   35.0470   24.7050   30.1930 H   0  0  0  0  0  0  0  0  0  0  0  0
   35.0410   27.1030   30.5390 H   0  0  0  0  0  0  0  0  0  0  0  0
   35.3340   21.9130   32.0050 C   0  0  0  0  0  0  0  0  0  0  0  0
   36.3490   22.7770   31.5990 C   0  0  0  0  0  0  0  0  0  0  0  0
   37.4480   22.2180   30.9380 C   0  0  0  0  0  0  0  0  0  0  0  0
   37.4670   20.8740   30.7280 N   0  0  0  0  0  0  0  0  0  0  0  0
   36.4570   20.0600   31.1400 C   0  0  0  0  0  0  0  0  0  0  0  0
   35.3990   20.5950   31.7760 N   0  0  0  0  0  0  0  0  0  0  0  0
   34.4850   22.3420   32.5160 H   0  0  0  0  0  0  0  0  0  0  0  0
   38.2620   22.8350   30.6010 H   0  0  0  0  0  0  0  0  0  0  0  0
   36.6230   19.0150   30.8980 H   0  0  0  0  0  0  0  0  0  0  0  0
   37.8530   26.6180   34.1190 C   0  0  0  0  0  0  0  0  0  0  0  0
   39.1740   26.3040   34.2500 N   0  0  0  0  0  0  0  0  0  0  0  0
   39.6560   26.9190   35.3650 C   0  0  0  0  0  0  0  0  0  0  0  0
   40.6900   26.8250   35.6910 H   0  0  0  0  0  0  0  0  0  0  0  0
   38.6320   27.6070   35.9130 N   0  0  0  0  0  0  0  0  0  0  0  0
   38.7200   28.1750   36.7840 H   0  0  0  0  0  0  0  0  0  0  0  0
   37.5470   27.4250   35.1620 N   0  0  0  0  0  0  0  0  0  0  0  0
  1  6  1  0  0  0  0
  2  3  1  0  0  0  0
  2  1  2  0  0  0  0
  3  4  2  0  0  0  0
  4  5  1  0  0  0  0
  5 18  1  0  0  0  0
  6  5  2  0  0  0  0
  7  2  1  0  0  0  0
  8  3  1  0  0  0  0
  9 15  1  0  0  0  0
 10  1  1  0  0  0  0
 10  9  2  0  0  0  0
 11 10  1  0  0  0  0
 12 11  2  0  0  0  0
 12 13  1  0  0  0  0
 13 14  2  0  0  0  0
 14  9  1  0  0  0  0
 16 11  1  0  0  0  0
 17 13  1  0  0  0  0
 18 19  1  0  0  0  0
 18 24  2  0  0  0  0
 19 20  2  0  0  0  0
 20 21  1  0  0  0  0
 20 22  1  0  0  0  0
 22 23  1  0  0  0  0
 24 22  1  0  0  0  0
M  END
>  <minimizedAffinity>
-4.66214657

$$$$

 OpenBabel03272502123D

 24 26  0  0  0  0  0  0  0  0999 V2000
   37.3600   22.6570   33.0770 C   0  0  0  0  0  0  0  0  0  0  0  0
   37.4250   23.9380   32.5870 C   0  0  0  0  0  0  0  0  0  0  0  0
   37.8710   25.0500   33.2960 C   0  0  0  0  0  0  0  0  0  0  0  0
   38.2720   24.8160   34.5850 N   0  0  0  0  0  0  0  0  0  0  0  0
   38.2140   23.5560   35.0800 C   0  0  0  0  0  0  0  0  0  0  0  0
   37.7740   22.5340   34.3400 N   0  0  0  0  0  0  0  0  0  0  0  0
   37.1110   24.1480   31.5670 H   0  0  0  0  0  0  0  0  0  0  0  0
   37.9000   26.0350   32.8650 H   0  0  0  0  0  0  0  0  0  0  0  0
   37.4710   21.0940   31.1150 C   0  0  0  0  0  0  0  0  0  0  0  0
   36.8900   21.5400   32.2990 C   0  0  0  0  0  0  0  0  0  0  0  0
   35.7660   20.8510   32.7680 C   0  0  0  0  0  0  0  0  0  0  0  0
   35.3040   19.7930   32.0480 N   0  0  0  0  0  0  0  0  0  0  0  0
   35.8990   19.3850   30.8940 C   0  0  0  0  0  0  0  0  0  0  0  0
   36.9800   20.0460   30.4410 N   0  0  0  0  0  0  0  0  0  0  0  0
   38.3390   21.6240   30.7520 H   0  0  0  0  0  0  0  0  0  0  0  0
   35.2740   21.1500   33.6760 H   0  0  0  0  0  0  0  0  0  0  0  0
   35.4110   18.5280   30.4400 H   0  0  0  0  0  0  0  0  0  0  0  0
   38.6390   23.2890   36.4530 C   0  0  0  0  0  0  0  0  0  0  0  0
   37.9510   23.7910   37.5180 N   0  0  0  0  0  0  0  0  0  0  0  0
   38.5690   23.3840   38.6610 C   0  0  0  0  0  0  0  0  0  0  0  0
   38.2120   23.6550   39.6540 H   0  0  0  0  0  0  0  0  0  0  0  0
   39.6300   22.6350   38.2950 N   0  0  0  0  0  0  0  0  0  0  0  0
   40.2850   22.1920   38.9750 H   0  0  0  0  0  0  0  0  0  0  0  0
   39.6710   22.5780   36.9650 N   0  0  0  0  0  0  0  0  0  0  0  0
  1  6  1  0  0  0  0
  2  1  2  0  0  0  0
  2  3  1  0  0  0  0
  3  4  2  0  0  0  0
  4  5  1  0  0  0  0
  5 18  1  0  0  0  0
  6  5  2  0  0  0  0
  7  2  1  0  0  0  0
  8  3  1  0  0  0  0
  9 10  1  0  0  0  0
 10 11  2  0  0  0  0
 10  1  1  0  0  0  0
 11 16  1  0  0  0  0
 12 11  1  0  0  0  0
 13 12  2  0  0  0  0
 14 13  1  0  0  0  0
 14  9  2  0  0  0  0
 15  9  1  0  0  0  0
 17 13  1  0  0  0  0
 18 24  2  0  0  0  0
 18 19  1  0  0  0  0
 19 20  2  0  0  0  0
 20 21  1  0  0  0  0
 22 20  1  0  0  0  0
 22 23  1  0  0  0  0
 24 22  1  0  0  0  0
M  END
>  <minimizedAffinity>
-4.6443572

$$$$

 OpenBabel03272502123D

 24 26  0  0  0  0  0  0  0  0999 V2000
   37.9450   22.6560   34.2820 C   0  0  0  0  0  0  0  0  0  0  0  0
   37.8540   23.7330   33.4350 C   0  0  0  0  0  0  0  0  0  0  0  0
   37.1430   23.7620   32.2400 C   0  0  0  0  0  0  0  0  0  0  0  0
   36.4880   22.6050   31.9060 N   0  0  0  0  0  0  0  0  0  0  0  0
   36.5680   21.5340   32.7340 C   0  0  0  0  0  0  0  0  0  0  0  0
   37.2720   21.5800   33.8690 N   0  0  0  0  0  0  0  0  0  0  0  0
   38.3670   24.6620   33.6790 H   0  0  0  0  0  0  0  0  0  0  0  0
   37.1060   24.6330   31.6110 H   0  0  0  0  0  0  0  0  0  0  0  0
   38.2160   23.1580   36.7270 C   0  0  0  0  0  0  0  0  0  0  0  0
   38.6960   22.6800   35.5100 C   0  0  0  0  0  0  0  0  0  0  0  0
   40.0050   22.1880   35.4790 C   0  0  0  0  0  0  0  0  0  0  0  0
   40.7330   22.2010   36.6290 N   0  0  0  0  0  0  0  0  0  0  0  0
   40.2310   22.6770   37.8010 C   0  0  0  0  0  0  0  0  0  0  0  0
   38.9730   23.1510   37.8330 N   0  0  0  0  0  0  0  0  0  0  0  0
   37.2070   23.5390   36.7530 H   0  0  0  0  0  0  0  0  0  0  0  0
   40.4300   21.8060   34.5680 H   0  0  0  0  0  0  0  0  0  0  0  0
   40.9360   22.6190   38.6240 H   0  0  0  0  0  0  0  0  0  0  0  0
   35.8760   20.2930   32.3930 C   0  0  0  0  0  0  0  0  0  0  0  0
   36.5480   19.1120   32.2860 N   0  0  0  0  0  0  0  0  0  0  0  0
   35.6570   18.1350   31.9620 C   0  0  0  0  0  0  0  0  0  0  0  0
   35.9460   17.0950   31.8190 H   0  0  0  0  0  0  0  0  0  0  0  0
   34.4430   18.7180   31.8730 N   0  0  0  0  0  0  0  0  0  0  0  0
   33.5690   18.1990   31.6350 H   0  0  0  0  0  0  0  0  0  0  0  0
   34.5760   20.0180   32.1330 N   0  0  0  0  0  0  0  0  0  0  0  0
  1 10  1  0  0  0  0
  2  7  1  0  0  0  0
  2  1  2  0  0  0  0
  3  2  1  0  0  0  0
  4  3  2  0  0  0  0
  4  5  1  0  0  0  0
  5  6  2  0  0  0  0
  6  1  1  0  0  0  0
  8  3  1  0  0  0  0
  9 15  1  0  0  0  0
  9 14  1  0  0  0  0
 10  9  2  0  0  0  0
 11 10  1  0  0  0  0
 11 12  2  0  0  0  0
 12 13  1  0  0  0  0
 13 14  2  0  0  0  0
 13 17  1  0  0  0  0
 16 11  1  0  0  0  0
 18  5  1  0  0  0  0
 19 18  1  0  0  0  0
 20 19  2  0  0  0  0
 21 20  1  0  0  0  0
 22 20  1  0  0  0  0
 22 24  1  0  0  0  0
 23 22  1  0  0  0  0
 24 18  2  0  0  0  0
M  END
>  <minimizedAffinity>
-4.59783602

$$$$

 OpenBabel03272502123D

 24 26  0  0  0  0  0  0  0  0999 V2000
   36.2100   28.4890   33.4290 C   0  0  0  0  0  0  0  0  0  0  0  0
   35.9390   29.0590   32.2100 C   0  0  0  0  0  0  0  0  0  0  0  0
   35.3260   30.2930   32.0150 C   0  0  0  0  0  0  0  0  0  0  0  0
   34.9750   30.9730   33.1530 N   0  0  0  0  0  0  0  0  0  0  0  0
   35.2380   30.4210   34.3630 C   0  0  0  0  0  0  0  0  0  0  0  0
   35.8300   29.2290   34.4740 N   0  0  0  0  0  0  0  0  0  0  0  0
   36.2070   28.5380   31.2930 H   0  0  0  0  0  0  0  0  0  0  0  0
   35.1340   30.6950   31.0360 H   0  0  0  0  0  0  0  0  0  0  0  0
   37.1940   26.3660   32.5190 C   0  0  0  0  0  0  0  0  0  0  0  0
   36.8470   27.2060   33.5750 C   0  0  0  0  0  0  0  0  0  0  0  0
   37.1400   26.7710   34.8720 C   0  0  0  0  0  0  0  0  0  0  0  0
   37.7420   25.5620   35.0320 N   0  0  0  0  0  0  0  0  0  0  0  0
   38.0670   24.7660   33.9760 C   0  0  0  0  0  0  0  0  0  0  0  0
   37.7860   25.1830   32.7280 N   0  0  0  0  0  0  0  0  0  0  0  0
   36.9690   26.7000   31.5180 H   0  0  0  0  0  0  0  0  0  0  0  0
   36.8950   27.3760   35.7260 H   0  0  0  0  0  0  0  0  0  0  0  0
   38.5410   23.8350   34.2710 H   0  0  0  0  0  0  0  0  0  0  0  0
   34.8710   31.1330   35.5860 C   0  0  0  0  0  0  0  0  0  0  0  0
   33.5900   31.1260   36.0540 N   0  0  0  0  0  0  0  0  0  0  0  0
   33.5430   31.8630   37.1970 C   0  0  0  0  0  0  0  0  0  0  0  0
   32.6280   32.0120   37.7670 H   0  0  0  0  0  0  0  0  0  0  0  0
   34.7930   32.3180   37.4280 N   0  0  0  0  0  0  0  0  0  0  0  0
   35.0470   32.9150   38.2450 H   0  0  0  0  0  0  0  0  0  0  0  0
   35.5910   31.8780   36.4570 N   0  0  0  0  0  0  0  0  0  0  0  0
  1 10  1  0  0  0  0
  1  6  1  0  0  0  0
  2  1  2  0  0  0  0
  3  2  1  0  0  0  0
  3  4  2  0  0  0  0
  4  5  1  0  0  0  0
  5  6  2  0  0  0  0
  5 18  1  0  0  0  0
  7  2  1  0  0  0  0
  8  3  1  0  0  0  0
  9 14  2  0  0  0  0
  9 10  1  0  0  0  0
 10 11  2  0  0  0  0
 11 12  1  0  0  0  0
 11 16  1  0  0  0  0
 13 17  1  0  0  0  0
 13 12  2  0  0  0  0
 14 13  1  0  0  0  0
 15  9  1  0  0  0  0
 18 19  1  0  0  0  0
 18 24  2  0  0  0  0
 19 20  2  0  0  0  0
 20 22  1  0  0  0  0
 20 21  1  0  0  0  0
 22 23  1  0  0  0  0
 24 22  1  0  0  0  0
M  END
>  <minimizedAffinity>
-4.56046677

$$$$

 OpenBabel03272502123D

 24 26  0  0  0  0  0  0  0  0999 V2000
   38.5330   22.9590   34.6000 C   0  0  0  0  0  0  0  0  0  0  0  0
   39.1530   21.9630   33.8870 C   0  0  0  0  0  0  0  0  0  0  0  0
   39.0260   21.7540   32.5170 C   0  0  0  0  0  0  0  0  0  0  0  0
   38.2100   22.6310   31.8510 N   0  0  0  0  0  0  0  0  0  0  0  0
   37.5930   23.6190   32.5440 C   0  0  0  0  0  0  0  0  0  0  0  0
   37.7610   23.7590   33.8620 N   0  0  0  0  0  0  0  0  0  0  0  0
   39.8040   21.2540   34.3940 H   0  0  0  0  0  0  0  0  0  0  0  0
   39.5340   20.9560   32.0050 H   0  0  0  0  0  0  0  0  0  0  0  0
   39.7560   22.6160   36.7660 C   0  0  0  0  0  0  0  0  0  0  0  0
   38.6980   23.1300   36.0200 C   0  0  0  0  0  0  0  0  0  0  0  0
   37.7240   23.8680   36.7020 C   0  0  0  0  0  0  0  0  0  0  0  0
   37.8610   24.0420   38.0450 N   0  0  0  0  0  0  0  0  0  0  0  0
   38.9090   23.5240   38.7410 C   0  0  0  0  0  0  0  0  0  0  0  0
   39.8460   22.8140   38.0880 N   0  0  0  0  0  0  0  0  0  0  0  0
   40.5080   22.0460   36.2420 H   0  0  0  0  0  0  0  0  0  0  0  0
   36.8840   24.2890   36.1800 H   0  0  0  0  0  0  0  0  0  0  0  0
   38.8720   23.7500   39.8020 H   0  0  0  0  0  0  0  0  0  0  0  0
   36.7190   24.5630   31.8490 C   0  0  0  0  0  0  0  0  0  0  0  0
   36.7090   25.8880   32.1700 N   0  0  0  0  0  0  0  0  0  0  0  0
   35.8090   26.5200   31.3670 C   0  0  0  0  0  0  0  0  0  0  0  0
   35.6130   27.5900   31.4260 H   0  0  0  0  0  0  0  0  0  0  0  0
   35.2710   25.5830   30.5580 N   0  0  0  0  0  0  0  0  0  0  0  0
   34.5460   25.7910   29.8370 H   0  0  0  0  0  0  0  0  0  0  0  0
   35.8200   24.4050   30.8490 N   0  0  0  0  0  0  0  0  0  0  0  0
  1 10  1  0  0  0  0
  2  7  1  0  0  0  0
  2  1  1  0  0  0  0
  3  2  2  0  0  0  0
  4  3  1  0  0  0  0
  4  5  2  0  0  0  0
  5  6  1  0  0  0  0
  6  1  2  0  0  0  0
  8  3  1  0  0  0  0
  9 14  1  0  0  0  0
 10 11  1  0  0  0  0
 10  9  2  0  0  0  0
 11 12  2  0  0  0  0
 12 13  1  0  0  0  0
 13 17  1  0  0  0  0
 14 13  2  0  0  0  0
 15  9  1  0  0  0  0
 16 11  1  0  0  0  0
 18 19  1  0  0  0  0
 18  5  1  0  0  0  0
 20 21  1  0  0  0  0
 20 19  2  0  0  0  0
 22 24  1  0  0  0  0
 22 20  1  0  0  0  0
 23 22  1  0  0  0  0
 24 18  2  0  0  0  0
M  END
>  <minimizedAffinity>
-4.51244307

$$$$
