
 OpenBabel03272505093D

 27 29  0  0  0  0  0  0  0  0999 V2000
   36.3160   30.8650   45.6900 Cl  0  0  0  0  0  0  0  0  0  0  0  0
   36.6210   30.6930   47.4010 C   0  0  0  0  0  0  0  0  0  0  0  0
   37.8730   31.0110   47.8330 C   0  0  0  0  0  0  0  0  0  0  0  0
   38.1370   30.8810   49.1980 C   0  0  0  0  0  0  0  0  0  0  0  0
   37.1450   30.4440   50.0480 C   0  0  0  0  0  0  0  0  0  0  0  0
   35.9090   30.1420   49.5420 C   0  0  0  0  0  0  0  0  0  0  0  0
   35.5940   30.2500   48.2220 C   0  0  0  0  0  0  0  0  0  0  0  0
   39.1200   31.1260   49.5660 H   0  0  0  0  0  0  0  0  0  0  0  0
   37.3820   30.3540   51.0990 H   0  0  0  0  0  0  0  0  0  0  0  0
   35.1370   29.8000   50.2210 H   0  0  0  0  0  0  0  0  0  0  0  0
   40.1520   33.2640   46.0780 C   0  0  0  0  0  0  0  0  0  0  0  0
   40.8530   32.4150   45.1880 C   0  0  0  0  0  0  0  0  0  0  0  0
   40.5170   31.0570   45.2120 C   0  0  0  0  0  0  0  0  0  0  0  0
   39.5520   30.6290   46.0760 N   0  0  0  0  0  0  0  0  0  0  0  0
   38.9160   31.4770   46.9010 C   0  0  0  0  0  0  0  0  0  0  0  0
   39.2240   32.7680   46.8890 N   0  0  0  0  0  0  0  0  0  0  0  0
   40.3750   34.3110   46.0940 H   0  0  0  0  0  0  0  0  0  0  0  0
   41.6120   32.8170   44.5240 H   0  0  0  0  0  0  0  0  0  0  0  0
   41.0300   30.3740   44.5460 H   0  0  0  0  0  0  0  0  0  0  0  0
   33.9950   29.8680   47.5150 S   0  0  0  0  0  0  0  0  0  0  0  0
   33.9410   28.1670   46.9750 C   0  0  0  0  0  0  0  0  0  0  0  0
   33.8710   27.2490   47.9550 N   0  0  0  0  0  0  0  0  0  0  0  0
   33.8350   26.0070   47.4520 C   0  0  0  0  0  0  0  0  0  0  0  0
   33.7770   25.0480   47.9540 H   0  0  0  0  0  0  0  0  0  0  0  0
   33.8840   26.1620   46.1180 N   0  0  0  0  0  0  0  0  0  0  0  0
   33.8800   25.4670   45.3340 H   0  0  0  0  0  0  0  0  0  0  0  0
   33.9490   27.4660   45.8040 N   0  0  0  0  0  0  0  0  0  0  0  0
  1  2  1  0  0  0  0
  2  3  2  0  0  0  0
  2  7  1  0  0  0  0
  3  4  1  0  0  0  0
  4  8  1  0  0  0  0
  4  5  2  0  0  0  0
  5  9  1  0  0  0  0
  6  5  1  0  0  0  0
  6 10  1  0  0  0  0
  7  6  2  0  0  0  0
 11 17  1  0  0  0  0
 11 16  1  0  0  0  0
 12 13  1  0  0  0  0
 12 11  2  0  0  0  0
 13 14  2  0  0  0  0
 14 15  1  0  0  0  0
 15  3  1  0  0  0  0
 16 15  2  0  0  0  0
 18 12  1  0  0  0  0
 19 13  1  0  0  0  0
 20  7  1  0  0  0  0
 21 20  1  0  0  0  0
 21 22  1  0  0  0  0
 23 24  1  0  0  0  0
 23 22  2  0  0  0  0
 25 23  1  0  0  0  0
 26 25  1  0  0  0  0
 27 25  1  0  0  0  0
 27 21  2  0  0  0  0
M  END
>  <minimizedAffinity>
-5.21843958

>  <minimizedRMSD>
1.08398438

$$$$
