
 OpenBabel03272506473D

 40 43  0  0  1  0  0  0  0  0999 V2000
   32.0070   28.3780   47.4900 C   0  0  2  0  0  0  0  0  0  0  0  0
   33.2670   28.1650   48.2770 C   0  0  1  0  0  0  0  0  0  0  0  0
   33.6160   26.8540   48.1670 O   0  0  0  0  0  0  0  0  0  0  0  0
   32.8620   26.2610   47.1580 C   0  0  0  0  0  0  0  0  0  0  0  0
   32.2780   27.3770   46.3220 C   0  0  1  0  0  0  0  0  0  0  0  0
   31.0860   28.0640   47.9740 H   0  0  0  0  0  0  0  0  0  0  0  0
   33.1180   28.5080   49.3310 H   0  0  0  0  0  0  0  0  0  0  0  0
   32.1440   25.6190   47.6540 H   0  0  0  0  0  0  0  0  0  0  0  0
   33.5420   25.6380   46.5080 H   0  0  0  0  0  0  0  0  0  0  0  0
   33.0080   27.8410   45.6670 H   0  0  0  0  0  0  0  0  0  0  0  0
   31.9630   29.6870   46.9680 O   0  0  0  0  0  0  0  0  0  0  0  0
   32.1140   29.6750   45.9900 H   0  0  0  0  0  0  0  0  0  0  0  0
   34.5920   29.1700   47.4890 S   0  0  0  0  0  0  0  0  0  0  0  0
   36.9990   29.2520   50.6360 C   0  0  0  0  0  0  0  0  0  0  0  0
   37.4090   30.5860   50.7450 C   0  0  0  0  0  0  0  0  0  0  0  0
   36.9150   31.4970   49.7960 C   0  0  0  0  0  0  0  0  0  0  0  0
   36.0760   31.0400   48.8390 N   0  0  0  0  0  0  0  0  0  0  0  0
   35.7040   29.7430   48.7670 C   0  0  0  0  0  0  0  0  0  0  0  0
   36.1600   28.8310   49.6650 N   0  0  0  0  0  0  0  0  0  0  0  0
   37.4020   28.5820   51.3860 H   0  0  0  0  0  0  0  0  0  0  0  0
   38.0860   30.8830   51.5420 H   0  0  0  0  0  0  0  0  0  0  0  0
   37.2130   32.5290   49.8560 H   0  0  0  0  0  0  0  0  0  0  0  0
   31.1000   26.9420   45.7650 O   0  0  0  0  0  0  0  0  0  0  0  0
   29.9100   29.2010   44.2960 Cl  0  0  0  0  0  0  0  0  0  0  0  0
   29.2190   28.2660   45.6010 C   0  0  0  0  0  0  0  0  0  0  0  0
   29.8740   27.2150   46.2000 C   0  0  0  0  0  0  0  0  0  0  0  0
   29.2070   26.5180   47.2100 C   0  0  0  0  0  0  0  0  0  0  0  0
   27.9290   26.8810   47.5870 C   0  0  0  0  0  0  0  0  0  0  0  0
   27.2640   27.9380   46.9890 C   0  0  0  0  0  0  0  0  0  0  0  0
   27.9360   28.6210   45.9910 C   0  0  0  0  0  0  0  0  0  0  0  0
   29.6180   25.6780   47.7400 H   0  0  0  0  0  0  0  0  0  0  0  0
   27.3600   26.3840   48.3590 H   0  0  0  0  0  0  0  0  0  0  0  0
   26.2680   28.2590   47.2500 H   0  0  0  0  0  0  0  0  0  0  0  0
   27.2560   29.7420   45.3440 C   0  0  0  0  0  0  0  0  0  0  0  0
   27.2050   31.0340   45.7280 N   0  0  0  0  0  0  0  0  0  0  0  0
   26.4670   31.7620   44.8500 C   0  0  0  0  0  0  0  0  0  0  0  0
   26.2050   32.8000   44.8200 H   0  0  0  0  0  0  0  0  0  0  0  0
   26.0630   30.8990   43.9160 N   0  0  0  0  0  0  0  0  0  0  0  0
   25.4810   30.9690   43.0420 H   0  0  0  0  0  0  0  0  0  0  0  0
   26.5350   29.7050   44.2170 N   0  0  0  0  0  0  0  0  0  0  0  0
  1  6  1  1  0  0  0
  1  2  1  0  0  0  0
  2  7  1  1  0  0  0
  3  2  1  0  0  0  0
  4  8  1  0  0  0  0
  4  3  1  0  0  0  0
  5 10  1  6  0  0  0
  5  4  1  0  0  0  0
  5  1  1  0  0  0  0
  9  4  1  0  0  0  0
 11  1  1  0  0  0  0
 12 11  1  0  0  0  0
 13  2  1  0  0  0  0
 13 18  1  0  0  0  0
 14 15  1  0  0  0  0
 14 20  1  0  0  0  0
 15 21  1  0  0  0  0
 16 22  1  0  0  0  0
 16 15  2  0  0  0  0
 17 16  1  0  0  0  0
 18 17  2  0  0  0  0
 18 19  1  0  0  0  0
 19 14  2  0  0  0  0
 23 26  1  0  0  0  0
 23  5  1  0  0  0  0
 24 25  1  0  0  0  0
 25 30  2  0  0  0  0
 25 26  1  0  0  0  0
 26 27  2  0  0  0  0
 27 28  1  0  0  0  0
 27 31  1  0  0  0  0
 28 32  1  0  0  0  0
 29 33  1  0  0  0  0
 29 28  2  0  0  0  0
 30 29  1  0  0  0  0
 34 35  1  0  0  0  0
 34 30  1  0  0  0  0
 36 35  2  0  0  0  0
 37 36  1  0  0  0  0
 38 40  1  0  0  0  0
 38 36  1  0  0  0  0
 39 38  1  0  0  0  0
 40 34  2  0  0  0  0
M  END
>  <minimizedAffinity>
-5.15620136

>  <minimizedRMSD>
0.488904357

$$$$
