
 OpenBabel03272506473D

 40 43  0  0  1  0  0  0  0  0999 V2000
   31.1540   28.1160   47.4300 C   0  0  2  0  0  0  0  0  0  0  0  0
   32.2470   27.4350   48.2010 C   0  0  1  0  0  0  0  0  0  0  0  0
   32.0460   26.0910   48.1190 O   0  0  0  0  0  0  0  0  0  0  0  0
   31.0940   25.8290   47.1390 C   0  0  0  0  0  0  0  0  0  0  0  0
   30.9760   27.0690   46.2850 C   0  0  1  0  0  0  0  0  0  0  0  0
   30.1970   28.2010   47.9380 H   0  0  0  0  0  0  0  0  0  0  0  0
   32.2740   27.8280   49.2480 H   0  0  0  0  0  0  0  0  0  0  0  0
   30.1930   25.5320   47.6640 H   0  0  0  0  0  0  0  0  0  0  0  0
   31.4550   24.9760   46.4950 H   0  0  0  0  0  0  0  0  0  0  0  0
   31.8130   27.1950   45.6050 H   0  0  0  0  0  0  0  0  0  0  0  0
   31.6170   29.3270   46.8750 O   0  0  0  0  0  0  0  0  0  0  0  0
   31.7260   29.2390   45.8950 H   0  0  0  0  0  0  0  0  0  0  0  0
   33.8410   27.8200   47.3640 S   0  0  0  0  0  0  0  0  0  0  0  0
   35.5930   29.3430   50.5770 C   0  0  0  0  0  0  0  0  0  0  0  0
   36.2660   30.4810   50.1170 C   0  0  0  0  0  0  0  0  0  0  0  0
   36.1710   30.7850   48.7490 C   0  0  0  0  0  0  0  0  0  0  0  0
   35.4380   29.9690   47.9570 N   0  0  0  0  0  0  0  0  0  0  0  0
   34.8020   28.8790   48.4380 C   0  0  0  0  0  0  0  0  0  0  0  0
   34.8710   28.5500   49.7550 N   0  0  0  0  0  0  0  0  0  0  0  0
   35.6920   29.1440   51.6370 H   0  0  0  0  0  0  0  0  0  0  0  0
   36.8370   31.0920   50.8120 H   0  0  0  0  0  0  0  0  0  0  0  0
   36.6780   31.6540   48.3690 H   0  0  0  0  0  0  0  0  0  0  0  0
   29.7090   27.1270   45.7590 O   0  0  0  0  0  0  0  0  0  0  0  0
   29.0760   29.7790   44.6450 Cl  0  0  0  0  0  0  0  0  0  0  0  0
   28.2520   28.9070   45.9160 C   0  0  0  0  0  0  0  0  0  0  0  0
   28.6380   27.6570   46.3400 C   0  0  0  0  0  0  0  0  0  0  0  0
   27.8800   27.0420   47.3390 C   0  0  0  0  0  0  0  0  0  0  0  0
   26.7790   27.6790   47.8780 C   0  0  0  0  0  0  0  0  0  0  0  0
   26.3850   28.9390   47.4570 C   0  0  0  0  0  0  0  0  0  0  0  0
   27.1450   29.5360   46.4660 C   0  0  0  0  0  0  0  0  0  0  0  0
   28.0840   26.0660   47.7410 H   0  0  0  0  0  0  0  0  0  0  0  0
   26.1530   27.2590   48.6510 H   0  0  0  0  0  0  0  0  0  0  0  0
   25.5350   29.4750   47.8470 H   0  0  0  0  0  0  0  0  0  0  0  0
   26.7510   30.8660   46.0040 C   0  0  0  0  0  0  0  0  0  0  0  0
   26.4000   31.2590   44.7630 N   0  0  0  0  0  0  0  0  0  0  0  0
   26.1030   32.5860   44.7500 C   0  0  0  0  0  0  0  0  0  0  0  0
   25.7890   33.2430   43.9640 H   0  0  0  0  0  0  0  0  0  0  0  0
   26.2770   33.0050   46.0030 N   0  0  0  0  0  0  0  0  0  0  0  0
   26.1780   33.9300   46.4990 H   0  0  0  0  0  0  0  0  0  0  0  0
   26.6610   31.9810   46.7400 N   0  0  0  0  0  0  0  0  0  0  0  0
  1  6  1  1  0  0  0
  1  2  1  0  0  0  0
  2  7  1  1  0  0  0
  3  2  1  0  0  0  0
  4  8  1  0  0  0  0
  4  3  1  0  0  0  0
  5 10  1  6  0  0  0
  5  4  1  0  0  0  0
  5  1  1  0  0  0  0
  9  4  1  0  0  0  0
 11  1  1  0  0  0  0
 12 11  1  0  0  0  0
 13  2  1  0  0  0  0
 13 18  1  0  0  0  0
 14 20  1  0  0  0  0
 15 14  1  0  0  0  0
 15 21  1  0  0  0  0
 16 15  2  0  0  0  0
 17 18  2  0  0  0  0
 17 16  1  0  0  0  0
 18 19  1  0  0  0  0
 19 14  2  0  0  0  0
 22 16  1  0  0  0  0
 23  5  1  0  0  0  0
 23 26  1  0  0  0  0
 24 25  1  0  0  0  0
 25 26  2  0  0  0  0
 25 30  1  0  0  0  0
 26 27  1  0  0  0  0
 27 31  1  0  0  0  0
 27 28  2  0  0  0  0
 28 32  1  0  0  0  0
 29 33  1  0  0  0  0
 29 28  1  0  0  0  0
 30 29  2  0  0  0  0
 34 30  1  0  0  0  0
 34 40  2  0  0  0  0
 35 34  1  0  0  0  0
 36 35  2  0  0  0  0
 36 38  1  0  0  0  0
 37 36  1  0  0  0  0
 38 39  1  0  0  0  0
 38 40  1  0  0  0  0
M  END
>  <minimizedAffinity>
-5.65319633

>  <minimizedRMSD>
1.77865922

$$$$
