
     RDKit          3D

 40 43  0  0  0  0  0  0  0  0999 V2000
   32.1675   28.5243   47.4244 C   0  0  2  0  0  0  0  0  0  0  0  0
   33.4080   28.3633   48.2518 C   0  0  1  0  0  0  0  0  0  0  0  0
   33.8065   27.0641   48.1659 O   0  0  0  0  0  0  0  0  0  0  0  0
   33.1055   26.4364   47.1414 C   0  0  0  0  0  0  0  0  0  0  0  0
   32.5085   27.5220   46.2761 C   0  0  1  0  0  0  0  0  0  0  0  0
   32.0930   29.8260   46.8873 O   0  0  0  0  0  0  0  0  0  0  0  0
   34.7206   29.4074   47.4936 S   0  0  0  0  0  0  0  0  0  0  0  0
   37.1306   29.2913   50.6376 C   0  0  0  0  0  0  0  0  0  0  0  0
   37.6320   30.5927   50.7588 C   0  0  0  0  0  0  0  0  0  0  0  0
   37.2006   31.5452   49.8203 C   0  0  0  0  0  0  0  0  0  0  0  0
   36.3321   31.1558   48.8596 N   0  0  0  0  0  0  0  0  0  0  0  0
   35.8711   29.8894   48.7765 C   0  0  0  0  0  0  0  0  0  0  0  0
   36.2636   28.9389   49.6640 N   0  0  0  0  0  0  0  0  0  0  0  0
   31.3642   27.0406   45.6874 O   0  0  0  0  0  0  0  0  0  0  0  0
   29.8811   29.1165   44.2139 Cl  0  0  0  0  0  0  0  0  0  0  0  0
   29.3360   28.1289   45.5490 C   0  0  0  0  0  0  0  0  0  0  0  0
   30.1245   27.1741   46.1477 C   0  0  0  0  0  0  0  0  0  0  0  0
   29.5678   26.4211   47.1835 C   0  0  0  0  0  0  0  0  0  0  0  0
   28.2651   26.6372   47.5870 C   0  0  0  0  0  0  0  0  0  0  0  0
   27.4651   27.5969   46.9901 C   0  0  0  0  0  0  0  0  0  0  0  0
   28.0288   28.3360   45.9650 C   0  0  0  0  0  0  0  0  0  0  0  0
   31.2434   28.1833   47.8833 H   0  0  0  0  0  0  0  0  0  0  0  0
   33.2149   28.7107   49.2974 H   0  0  0  0  0  0  0  0  0  0  0  0
   32.3937   25.7741   47.6212 H   0  0  0  0  0  0  0  0  0  0  0  0
   33.8263   25.8309   46.5187 H   0  0  0  0  0  0  0  0  0  0  0  0
   33.2416   28.0048   45.6381 H   0  0  0  0  0  0  0  0  0  0  0  0
   32.2754   29.8104   45.9136 H   0  0  0  0  0  0  0  0  0  0  0  0
   37.4883   28.5881   51.3809 H   0  0  0  0  0  0  0  0  0  0  0  0
   38.3289   30.8348   51.5579 H   0  0  0  0  0  0  0  0  0  0  0  0
   37.5703   32.5529   49.8903 H   0  0  0  0  0  0  0  0  0  0  0  0
   30.0883   25.6463   47.7169 H   0  0  0  0  0  0  0  0  0  0  0  0
   27.7768   26.0899   48.3800 H   0  0  0  0  0  0  0  0  0  0  0  0
   26.4436   27.8020   47.2702 H   0  0  0  0  0  0  0  0  0  0  0  0
   27.2060   29.3566   45.3181 C   0  0  0  0  0  0  0  0  0  0  0  0
   27.5337   30.6224   44.9886 N   0  0  0  0  0  0  0  0  0  0  0  0
   26.4820   31.2496   44.3996 C   0  0  0  0  0  0  0  0  0  0  0  0
   26.3633   32.2399   44.0103 H   0  0  0  0  0  0  0  0  0  0  0  0
   25.4986   30.3498   44.3705 N   0  0  0  0  0  0  0  0  0  0  0  0
   24.5036   30.3461   44.0228 H   0  0  0  0  0  0  0  0  0  0  0  0
   25.9351   29.2314   44.9163 N   0  0  0  0  0  0  0  0  0  0  0  0
  1  2  1  0
  3  2  1  0
  4  3  1  0
  5  4  1  0
  5  1  1  0
  6  1  1  0
  7  2  1  0
  7 12  1  0
  8  9  2  0
 10  9  1  0
 11 10  2  0
 12 11  1  0
 12 13  2  0
 13  8  1  0
 14 17  1  0
 14  5  1  0
 15 16  1  0
 16 21  2  0
 16 17  1  0
 17 18  2  0
 18 19  1  0
 20 19  2  0
 21 20  1  0
  1 22  1  1
  2 23  1  1
  4 24  1  0
  4 25  1  0
  5 26  1  6
  6 27  1  0
  8 28  1  0
  9 29  1  0
 10 30  1  0
 18 31  1  0
 19 32  1  0
 20 33  1  0
 34 35  1  0
 35 36  2  0
 36 37  1  0
 36 38  1  0
 38 39  1  0
 38 40  1  0
 40 34  2  0
 21 34  1  0
M  ISO  8  22  13  23  13  24  13  25  13  26  13  27   3  28  14  29  14
M  ISO  6  30  14  31  14  32  14  33  14  37  14  39   9
M  END
>  <DihAtoms>  (1) 
15,20,33,34

>  <DihDeg>  (1) 
0.007510042636212167

$$$$
