
 OpenBabel03272506473D

 40 43  0  0  1  0  0  0  0  0999 V2000
   32.1410   28.4490   47.4660 C   0  0  2  0  0  0  0  0  0  0  0  0
   33.3920   28.3030   48.2810 C   0  0  1  0  0  0  0  0  0  0  0  0
   33.8090   27.0110   48.1850 O   0  0  0  0  0  0  0  0  0  0  0  0
   33.1070   26.3770   47.1630 C   0  0  0  0  0  0  0  0  0  0  0  0
   32.4860   27.4580   46.3100 C   0  0  1  0  0  0  0  0  0  0  0  0
   31.2270   28.0920   47.9320 H   0  0  0  0  0  0  0  0  0  0  0  0
   33.2040   28.6430   49.3300 H   0  0  0  0  0  0  0  0  0  0  0  0
   32.4110   25.7020   47.6470 H   0  0  0  0  0  0  0  0  0  0  0  0
   33.8310   25.7860   46.5310 H   0  0  0  0  0  0  0  0  0  0  0  0
   33.2060   27.9560   45.6670 H   0  0  0  0  0  0  0  0  0  0  0  0
   32.0420   29.7530   46.9360 O   0  0  0  0  0  0  0  0  0  0  0  0
   32.2150   29.7440   45.9620 H   0  0  0  0  0  0  0  0  0  0  0  0
   34.6820   29.3700   47.5160 S   0  0  0  0  0  0  0  0  0  0  0  0
   37.1240   29.2820   50.6350 C   0  0  0  0  0  0  0  0  0  0  0  0
   37.6010   30.5920   50.7600 C   0  0  0  0  0  0  0  0  0  0  0  0
   37.1420   31.5420   49.8320 C   0  0  0  0  0  0  0  0  0  0  0  0
   36.2710   31.1420   48.8780 N   0  0  0  0  0  0  0  0  0  0  0  0
   35.8350   29.8670   48.7900 C   0  0  0  0  0  0  0  0  0  0  0  0
   36.2550   28.9190   49.6670 N   0  0  0  0  0  0  0  0  0  0  0  0
   37.5020   28.5810   51.3700 H   0  0  0  0  0  0  0  0  0  0  0  0
   38.3010   30.8430   51.5540 H   0  0  0  0  0  0  0  0  0  0  0  0
   37.4910   32.5560   49.9050 H   0  0  0  0  0  0  0  0  0  0  0  0
   31.3430   26.9630   45.7290 O   0  0  0  0  0  0  0  0  0  0  0  0
   30.0200   29.0800   44.1670 Cl  0  0  0  0  0  0  0  0  0  0  0  0
   29.3790   28.1490   45.4990 C   0  0  0  0  0  0  0  0  0  0  0  0
   30.0970   27.1670   46.1430 C   0  0  0  0  0  0  0  0  0  0  0  0
   29.4670   26.4640   47.1720 C   0  0  0  0  0  0  0  0  0  0  0  0
   28.1630   26.7530   47.5240 C   0  0  0  0  0  0  0  0  0  0  0  0
   27.4350   27.7400   46.8820 C   0  0  0  0  0  0  0  0  0  0  0  0
   28.0710   28.4290   45.8640 C   0  0  0  0  0  0  0  0  0  0  0  0
   29.9280   25.6740   47.7370 H   0  0  0  0  0  0  0  0  0  0  0  0
   27.6210   26.2470   48.3090 H   0  0  0  0  0  0  0  0  0  0  0  0
   26.4160   28.0010   47.1210 H   0  0  0  0  0  0  0  0  0  0  0  0
   27.3240   29.4770   45.1700 C   0  0  0  0  0  0  0  0  0  0  0  0
   26.6080   29.3910   44.0310 N   0  0  0  0  0  0  0  0  0  0  0  0
   26.0640   30.5960   43.7170 C   0  0  0  0  0  0  0  0  0  0  0  0
   25.4460   30.9140   42.9030 H   0  0  0  0  0  0  0  0  0  0  0  0
   26.4560   31.4280   44.6820 N   0  0  0  0  0  0  0  0  0  0  0  0
   26.3050   32.4500   44.8900 H   0  0  0  0  0  0  0  0  0  0  0  0
   27.2030   30.7580   45.5380 N   0  0  0  0  0  0  0  0  0  0  0  0
  1  6  1  1  0  0  0
  1  2  1  0  0  0  0
  2  7  1  1  0  0  0
  3  2  1  0  0  0  0
  4  8  1  0  0  0  0
  4  3  1  0  0  0  0
  5 10  1  6  0  0  0
  5  4  1  0  0  0  0
  5  1  1  0  0  0  0
  9  4  1  0  0  0  0
 11  1  1  0  0  0  0
 12 11  1  0  0  0  0
 13  2  1  0  0  0  0
 13 18  1  0  0  0  0
 14 15  1  0  0  0  0
 14 20  1  0  0  0  0
 15 21  1  0  0  0  0
 16 22  1  0  0  0  0
 16 15  2  0  0  0  0
 17 16  1  0  0  0  0
 18 17  2  0  0  0  0
 18 19  1  0  0  0  0
 19 14  2  0  0  0  0
 23 26  1  0  0  0  0
 23  5  1  0  0  0  0
 24 25  1  0  0  0  0
 25 30  2  0  0  0  0
 25 26  1  0  0  0  0
 26 27  2  0  0  0  0
 27 28  1  0  0  0  0
 27 31  1  0  0  0  0
 28 32  1  0  0  0  0
 29 33  1  0  0  0  0
 29 28  2  0  0  0  0
 30 29  1  0  0  0  0
 34 40  2  0  0  0  0
 34 30  1  0  0  0  0
 35 34  1  0  0  0  0
 36 35  2  0  0  0  0
 36 38  1  0  0  0  0
 37 36  1  0  0  0  0
 38 39  1  0  0  0  0
 38 40  1  0  0  0  0
M  END
>  <minimizedAffinity>
-5.1009264

>  <minimizedRMSD>
0.464758992

$$$$
