REMARK  Name = 
REMARK  6 active torsions:
REMARK  status: ('A' for Active; 'I' for Inactive)
REMARK    1  A    between atoms: C_1  and  O_6
REMARK    2  A    between atoms: C_2  and  S_7
REMARK    3  A    between atoms: C_5  and  O_14
REMARK    4  A    between atoms: S_7  and  C_12
REMARK    5  A    between atoms: O_14  and  C_17
REMARK    6  A    between atoms: C_21  and  C_34
REMARK                            x       y       z     vdW  Elec       q    Type
REMARK                         _______ _______ _______ _____ _____    ______ ____
ROOT
ATOM      1  C   UNL     1      32.167  28.524  47.424  0.00  0.00    +0.000 C 
ATOM      2  C   UNL     1      33.408  28.363  48.252  0.00  0.00    +0.000 C 
ATOM      3  O   UNL     1      33.806  27.064  48.166  0.00  0.00    +0.000 OA
ATOM      4  C   UNL     1      33.105  26.436  47.141  0.00  0.00    +0.000 C 
ATOM      5  C   UNL     1      32.508  27.522  46.276  0.00  0.00    +0.000 C 
ATOM      6  H   UNL     1      31.243  28.183  47.883  0.00  0.00    +0.000 HD
ATOM      7  H   UNL     1      33.215  28.711  49.297  0.00  0.00    +0.000 HD
ATOM      8  H   UNL     1      32.394  25.774  47.621  0.00  0.00    +0.000 HD
ATOM      9  H   UNL     1      33.826  25.831  46.519  0.00  0.00    +0.000 HD
ATOM     10  H   UNL     1      33.242  28.005  45.638  0.00  0.00    +0.000 HD
ENDROOT
BRANCH   1  11
ATOM     11  O   UNL     1      32.093  29.826  46.887  0.00  0.00    +0.000 OA
ATOM     12  H   UNL     1      32.275  29.810  45.914  0.00  0.00    +0.000 HD
ENDBRANCH   1  11
BRANCH   2  13
ATOM     13  S   UNL     1      34.721  29.407  47.494  0.00  0.00    +0.000 S 
BRANCH  13  18
ATOM     14  C   UNL     1      37.131  29.291  50.638  0.00  0.00    +0.000 A 
ATOM     15  C   UNL     1      37.632  30.593  50.759  0.00  0.00    +0.000 A 
ATOM     16  C   UNL     1      37.201  31.545  49.820  0.00  0.00    +0.000 A 
ATOM     17  N   UNL     1      36.332  31.156  48.860  0.00  0.00    +0.000 NA
ATOM     18  C   UNL     1      35.871  29.889  48.776  0.00  0.00    +0.000 A 
ATOM     19  N   UNL     1      36.264  28.939  49.664  0.00  0.00    +0.000 NA
ATOM     20  H   UNL     1      37.488  28.588  51.381  0.00  0.00    +0.000 HD
ATOM     21  H   UNL     1      38.329  30.835  51.558  0.00  0.00    +0.000 HD
ATOM     22  H   UNL     1      37.570  32.553  49.890  0.00  0.00    +0.000 HD
ENDBRANCH  13  18
ENDBRANCH   2  13
BRANCH   5  23
ATOM     23  O   UNL     1      31.364  27.041  45.687  0.00  0.00    +0.000 OA
BRANCH  23  26
ATOM     24 CL   UNL     1      29.881  29.116  44.214  0.00  0.00    +0.000 Cl
ATOM     25  C   UNL     1      29.336  28.129  45.549  0.00  0.00    +0.000 A 
ATOM     26  C   UNL     1      30.125  27.174  46.148  0.00  0.00    +0.000 A 
ATOM     27  C   UNL     1      29.568  26.421  47.184  0.00  0.00    +0.000 A 
ATOM     28  C   UNL     1      28.265  26.637  47.587  0.00  0.00    +0.000 A 
ATOM     29  C   UNL     1      27.465  27.597  46.990  0.00  0.00    +0.000 A 
ATOM     30  C   UNL     1      28.029  28.336  45.965  0.00  0.00    +0.000 A 
ATOM     31  H   UNL     1      30.088  25.646  47.717  0.00  0.00    +0.000 HD
ATOM     32  H   UNL     1      27.777  26.090  48.380  0.00  0.00    +0.000 HD
ATOM     33  H   UNL     1      26.444  27.802  47.270  0.00  0.00    +0.000 HD
BRANCH  30  34
ATOM     34  C   UNL     1      27.206  29.357  45.318  0.00  0.00    +0.000 A 
ATOM     35  N   UNL     1      27.592  30.514  44.743  0.00  0.00    +0.000 NA
ATOM     36  C   UNL     1      26.517  31.185  44.254  0.00  0.00    +0.000 A 
ATOM     37  H   UNL     1      26.427  32.121  43.741  0.00  0.00    +0.000 HD
ATOM     38  N   UNL     1      25.459  30.423  44.535  0.00  0.00    +0.000 N 
ATOM     39  H   UNL     1      24.422  30.500  44.369  0.00  0.00    +0.000 HD
ATOM     40  N   UNL     1      25.876  29.342  45.166  0.00  0.00    +0.000 NA
ENDBRANCH  30  34
ENDBRANCH  23  26
ENDBRANCH   5  23
TORSDOF 6
