
 OpenBabel03272509573D

 44 47  0  0  0  0  0  0  0  0999 V2000
   34.2560   28.9870   47.8190 C   0  0  0  0  0  0  0  0  0  0  0  0
   34.9300   29.5260   47.0980 H   0  0  0  0  0  0  0  0  0  0  0  0
   33.6050   29.7690   48.2500 H   0  0  0  0  0  0  0  0  0  0  0  0
   33.3750   27.9790   47.1420 C   0  0  0  0  0  0  0  0  0  0  0  0
   33.4080   28.2040   46.0540 H   0  0  0  0  0  0  0  0  0  0  0  0
   33.7210   26.9420   47.3340 H   0  0  0  0  0  0  0  0  0  0  0  0
   31.9570   28.0940   47.5560 C   0  0  0  0  0  0  0  0  0  0  0  0
   31.5880   27.5390   48.7760 C   0  0  0  0  0  0  0  0  0  0  0  0
   30.3020   27.5930   49.2460 C   0  0  0  0  0  0  0  0  0  0  0  0
   29.3700   28.1940   48.5180 N   0  0  0  0  0  0  0  0  0  0  0  0
   29.7390   28.7330   47.3250 C   0  0  0  0  0  0  0  0  0  0  0  0
   30.9830   28.7010   46.8340 N   0  0  0  0  0  0  0  0  0  0  0  0
   32.3160   27.0380   49.4050 H   0  0  0  0  0  0  0  0  0  0  0  0
   29.9980   27.1680   50.1890 H   0  0  0  0  0  0  0  0  0  0  0  0
   28.6550   29.4050   46.5310 C   0  0  0  0  0  0  0  0  0  0  0  0
   27.7230   29.4890   47.1530 H   0  0  0  0  0  0  0  0  0  0  0  0
   28.9640   30.3380   46.0690 H   0  0  0  0  0  0  0  0  0  0  0  0
   28.3340   28.4420   45.4240 C   0  0  0  0  0  0  0  0  0  0  0  0
   27.6340   27.2910   45.6040 N   0  0  0  0  0  0  0  0  0  0  0  0
   27.5300   26.6760   44.4140 C   0  0  0  0  0  0  0  0  0  0  0  0
   27.0200   25.7330   44.2610 H   0  0  0  0  0  0  0  0  0  0  0  0
   28.1710   27.4500   43.4940 N   0  0  0  0  0  0  0  0  0  0  0  0
   28.2670   27.2460   42.4790 H   0  0  0  0  0  0  0  0  0  0  0  0
   28.6450   28.5010   44.1090 N   0  0  0  0  0  0  0  0  0  0  0  0
   34.9950   28.4020   48.8730 O   0  0  0  0  0  0  0  0  0  0  0  0
   37.1390   30.0190   51.2760 C   0  0  0  0  0  0  0  0  0  0  0  0
   37.9580   30.7910   50.4280 C   0  0  0  0  0  0  0  0  0  0  0  0
   37.7110   30.7010   49.0670 C   0  0  0  0  0  0  0  0  0  0  0  0
   36.6980   29.8710   48.6840 N   0  0  0  0  0  0  0  0  0  0  0  0
   35.9360   29.1490   49.5020 C   0  0  0  0  0  0  0  0  0  0  0  0
   36.1770   29.2380   50.8340 N   0  0  0  0  0  0  0  0  0  0  0  0
   37.3390   30.0970   52.3340 H   0  0  0  0  0  0  0  0  0  0  0  0
   38.7490   31.4400   50.7320 H   0  0  0  0  0  0  0  0  0  0  0  0
   38.8070   33.3740   49.1730 F   0  0  0  0  0  0  0  0  0  0  0  0
   38.9460   32.6510   48.0600 C   0  0  0  0  0  0  0  0  0  0  0  0
   38.4300   31.4060   48.0220 C   0  0  0  0  0  0  0  0  0  0  0  0
   38.6310   30.7430   46.8180 C   0  0  0  0  0  0  0  0  0  0  0  0
   39.2940   31.3050   45.7610 C   0  0  0  0  0  0  0  0  0  0  0  0
   39.8060   32.5820   45.8400 C   0  0  0  0  0  0  0  0  0  0  0  0
   39.6230   33.2590   47.0170 C   0  0  0  0  0  0  0  0  0  0  0  0
   38.2730   29.7350   46.6390 H   0  0  0  0  0  0  0  0  0  0  0  0
   39.4500   30.7880   44.8230 H   0  0  0  0  0  0  0  0  0  0  0  0
   40.3370   33.0660   45.0300 H   0  0  0  0  0  0  0  0  0  0  0  0
   40.0120   34.2630   47.1120 H   0  0  0  0  0  0  0  0  0  0  0  0
  1  3  1  0  0  0  0
  1 25  1  0  0  0  0
  2  1  1  0  0  0  0
  4  6  1  0  0  0  0
  4  7  1  0  0  0  0
  4  1  1  0  0  0  0
  5  4  1  0  0  0  0
  7  8  1  0  0  0  0
  8  9  2  0  0  0  0
  8 13  1  0  0  0  0
  9 14  1  0  0  0  0
 10  9  1  0  0  0  0
 11 10  2  0  0  0  0
 12 11  1  0  0  0  0
 12  7  2  0  0  0  0
 15 16  1  0  0  0  0
 15 11  1  0  0  0  0
 17 15  1  0  0  0  0
 18 19  1  0  0  0  0
 18 15  1  0  0  0  0
 20 19  2  0  0  0  0
 21 20  1  0  0  0  0
 22 24  1  0  0  0  0
 22 20  1  0  0  0  0
 23 22  1  0  0  0  0
 24 18  2  0  0  0  0
 25 30  1  0  0  0  0
 26 32  1  0  0  0  0
 27 33  1  0  0  0  0
 27 26  2  0  0  0  0
 28 27  1  0  0  0  0
 29 28  2  0  0  0  0
 29 30  1  0  0  0  0
 30 31  2  0  0  0  0
 31 26  1  0  0  0  0
 35 34  1  0  0  0  0
 36 35  1  0  0  0  0
 36 28  1  0  0  0  0
 37 36  2  0  0  0  0
 38 39  2  0  0  0  0
 38 37  1  0  0  0  0
 39 40  1  0  0  0  0
 40 44  1  0  0  0  0
 40 35  2  0  0  0  0
 41 37  1  0  0  0  0
 42 38  1  0  0  0  0
 43 39  1  0  0  0  0
M  END
>  <minimizedAffinity>
-6.23556805

>  <minimizedRMSD>
0.526558876

$$$$
