REMARK  Name = 
REMARK  5 active torsions:
REMARK  status: ('A' for Active; 'I' for Inactive)
REMARK    1  A    between atoms: C_1  and  C_7
REMARK    2  A    between atoms: C_5  and  C_10
REMARK    3  A    between atoms: C_10  and  N_13
REMARK    4  A    between atoms: N_24  and  S_26
REMARK    5  A    between atoms: S_26  and  O_29
REMARK                            x       y       z     vdW  Elec       q    Type
REMARK                         _______ _______ _______ _____ _____    ______ ____
ROOT
ATOM      1  C   UNL     1      37.471  31.437  49.386  0.00  0.00    +0.000 A 
ATOM      2  C   UNL     1      37.869  32.721  49.707  0.00  0.00    +0.000 A 
ATOM      3  C   UNL     1      38.684  33.330  48.756  0.00  0.00    +0.000 A 
ATOM      4  N   UNL     1      39.030  32.662  47.611  0.00  0.00    +0.000 NA
ATOM      5  C   UNL     1      38.613  31.407  47.346  0.00  0.00    +0.000 A 
ATOM      6  N   UNL     1      37.817  30.788  48.258  0.00  0.00    +0.000 NA
ATOM      7  H   UNL     1      37.598  33.238  50.598  0.00  0.00    +0.000 HD
ATOM      8  H   UNL     1      39.071  34.327  48.867  0.00  0.00    +0.000 HD
ENDROOT
BRANCH   1   9
ATOM      9  C   UNL     1      36.562  30.729  50.354  0.00  0.00    +0.000 C 
ATOM     10  C   UNL     1      36.492  29.310  50.462  0.00  0.00    +0.000 C 
ATOM     11  C   UNL     1      37.335  30.044  51.496  0.00  0.00    +0.000 C 
ATOM     12  H   UNL     1      35.726  31.385  50.679  0.00  0.00    +0.000 HD
ATOM     13  H   UNL     1      37.138  28.668  49.794  0.00  0.00    +0.000 HD
ATOM     14  H   UNL     1      35.585  28.790  50.766  0.00  0.00    +0.000 HD
ATOM     15  H   UNL     1      36.858  30.139  52.478  0.00  0.00    +0.000 HD
ATOM     16  H   UNL     1      38.429  30.015  51.440  0.00  0.00    +0.000 HD
ENDBRANCH   1   9
BRANCH   5  17
ATOM     17  C   UNL     1      38.979  30.719  46.121  0.00  0.00    +0.000 C 
ATOM     18  H   UNL     1      38.608  29.678  46.126  0.00  0.00    +0.000 HD
ATOM     19  H   UNL     1      38.534  31.297  45.268  0.00  0.00    +0.000 HD
BRANCH  17  22
ATOM     20  C   UNL     1      41.046  31.548  45.011  0.00  0.00    +0.000 C 
ATOM     21  O   UNL     1      40.454  32.291  44.183  0.00  0.00    +0.000 OA
ATOM     22  N   UNL     1      40.428  30.751  46.007  0.00  0.00    +0.000 N 
ATOM     23  H   UNL     1      40.981  30.172  46.677  0.00  0.00    +0.000 HD
ATOM     24  N   UNL     1      42.485  31.471  44.977  0.00  0.00    +0.000 N 
ATOM     25  H   UNL     1      42.988  30.551  44.804  0.00  0.00    +0.000 HD
BRANCH  24  26
ATOM     26  S   UNL     1      43.389  32.938  45.229  0.00  0.00    +0.000 S 
ATOM     27  O   UNL     1      43.030  33.953  44.191  0.00  0.00    +0.000 OA
ATOM     28  O   UNL     1      43.024  33.441  46.596  0.00  0.00    +0.000 OA
BRANCH  26  29
ATOM     29  O   UNL     1      45.016  32.592  45.144  0.00  0.00    +0.000 OA
ATOM     30  H   UNL     1      45.540  33.377  45.385  0.00  0.00    +0.000 HD
ENDBRANCH  26  29
ENDBRANCH  24  26
ENDBRANCH  17  22
ENDBRANCH   5  17
TORSDOF 5
