REMARK  Name = 
REMARK  6 active torsions:
REMARK  status: ('A' for Active; 'I' for Inactive)
REMARK    1  A    between atoms: C_2  and  S_8
REMARK    2  A    between atoms: C_6  and  N_7
REMARK    3  A    between atoms: S_8  and  C_11
REMARK    4  A    between atoms: C_13  and  C_15
REMARK    5  A    between atoms: N_29  and  S_31
REMARK    6  A    between atoms: S_31  and  O_34
REMARK                            x       y       z     vdW  Elec       q    Type
REMARK                         _______ _______ _______ _____ _____    ______ ____
ROOT
ATOM      1  S   UNL     1      38.126  30.590  46.566  0.00  0.00    +0.000 S 
ENDROOT
BRANCH   1   3
ATOM      2  N   UNL     1      39.595  32.864  46.306  0.00  0.00    +0.000 NA
ATOM      3  C   UNL     1      38.271  32.351  46.066  0.00  0.00    +0.000 C 
ATOM      4  C   UNL     1      37.937  32.398  44.602  0.00  0.00    +0.000 C 
ATOM      5  N   UNL     1      38.934  31.591  43.910  0.00  0.00    +0.000 NA
ATOM      6  C   UNL     1      40.176  32.374  44.022  0.00  0.00    +0.000 C 
ATOM      7  C   UNL     1      40.592  32.264  45.477  0.00  0.00    +0.000 C 
ATOM      8  H   UNL     1      39.563  33.872  46.133  0.00  0.00    +0.000 HD
ATOM      9  H   UNL     1      37.552  32.953  46.655  0.00  0.00    +0.000 HD
ATOM     10  H   UNL     1      37.926  33.408  44.174  0.00  0.00    +0.000 HD
ATOM     11  H   UNL     1      36.926  31.921  44.456  0.00  0.00    +0.000 HD
ATOM     12  H   UNL     1      39.038  30.658  44.329  0.00  0.00    +0.000 HD
ATOM     13  H   UNL     1      39.924  33.425  43.784  0.00  0.00    +0.000 HD
ATOM     14  H   UNL     1      40.968  31.943  43.401  0.00  0.00    +0.000 HD
ATOM     15  H   UNL     1      41.532  32.847  45.620  0.00  0.00    +0.000 HD
BRANCH   7  16
ATOM     16  N   UNL     1      40.842  30.880  45.809  0.00  0.00    +0.000 NA
ATOM     17  H   UNL     1      40.943  30.270  44.979  0.00  0.00    +0.000 HD
ATOM     18  H   UNL     1      41.685  30.808  46.416  0.00  0.00    +0.000 HD
ENDBRANCH   7  16
ENDBRANCH   1   3
BRANCH   1  21
ATOM     19  C   UNL     1      37.891  30.929  50.601  0.00  0.00    +0.000 A 
ATOM     20  C   UNL     1      38.362  31.081  49.314  0.00  0.00    +0.000 A 
ATOM     21  C   UNL     1      37.659  30.492  48.282  0.00  0.00    +0.000 A 
ATOM     22  N   UNL     1      36.519  29.782  48.599  0.00  0.00    +0.000 NA
ATOM     23  C   UNL     1      36.120  29.674  49.857  0.00  0.00    +0.000 A 
ATOM     24  N   UNL     1      36.785  30.234  50.869  0.00  0.00    +0.000 NA
ATOM     25  H   UNL     1      38.430  31.384  51.422  0.00  0.00    +0.000 HD
ATOM     26  H   UNL     1      39.252  31.636  49.070  0.00  0.00    +0.000 HD
BRANCH  23  27
ATOM     27  C   UNL     1      34.904  28.910  50.149  0.00  0.00    +0.000 C 
ATOM     28  O   UNL     1      34.495  27.961  49.451  0.00  0.00    +0.000 OA
ATOM     29  N   UNL     1      34.139  29.278  51.309  0.00  0.00    +0.000 N 
ATOM     30  H   UNL     1      34.513  29.006  52.265  0.00  0.00    +0.000 HD
BRANCH  29  31
ATOM     31  S   UNL     1      32.639  30.143  51.214  0.00  0.00    +0.000 S 
ATOM     32  O   UNL     1      32.423  31.000  52.409  0.00  0.00    +0.000 OA
ATOM     33  O   UNL     1      32.676  31.034  50.005  0.00  0.00    +0.000 OA
BRANCH  31  34
ATOM     34  O   UNL     1      31.380  29.035  51.101  0.00  0.00    +0.000 OA
ATOM     35  H   UNL     1      31.703  28.240  50.643  0.00  0.00    +0.000 HD
ENDBRANCH  31  34
ENDBRANCH  29  31
ENDBRANCH  23  27
ENDBRANCH   1  21
TORSDOF 6
