
 OpenBabel03262521013D

 35 36  0  0  1  0  0  0  0  0999 V2000
   38.2110   30.8910   45.7430 S   0  0  0  0  0  0  0  0  0  0  0  0
   39.6570   32.8730   44.5710 N   0  0  0  0  0  0  0  0  0  0  0  0
   38.2960   32.4470   44.7720 C   0  0  1  0  0  0  0  0  0  0  0  0
   37.6280   32.1570   43.4590 C   0  0  0  0  0  0  0  0  0  0  0  0
   38.4030   31.1090   42.8060 N   0  0  0  0  0  0  0  0  0  0  0  0
   39.6630   31.7710   42.4310 C   0  0  0  0  0  0  0  0  0  0  0  0
   40.4080   31.9910   43.7350 C   0  0  2  0  0  0  0  0  0  0  0  0
   39.6220   33.8040   44.1460 H   0  0  0  0  0  0  0  0  0  0  0  0
   37.7590   33.2450   45.3220 H   0  0  0  0  0  0  0  0  0  0  0  0
   37.5520   33.0230   42.7900 H   0  0  0  0  0  0  0  0  0  0  0  0
   36.5940   31.7590   43.6700 H   0  0  0  0  0  0  0  0  0  0  0  0
   38.5690   30.3060   43.4260 H   0  0  0  0  0  0  0  0  0  0  0  0
   39.4000   32.7480   41.9820 H   0  0  0  0  0  0  0  0  0  0  0  0
   40.2700   31.1230   41.7900 H   0  0  0  0  0  0  0  0  0  0  0  0
   41.3750   32.4970   43.5080 H   0  0  0  0  0  0  0  0  0  0  0  0
   40.6790   30.7170   44.3610 N   0  0  0  0  0  0  0  0  0  0  0  0
   40.5590   29.9110   43.7230 H   0  0  0  0  0  0  0  0  0  0  0  0
   41.6390   30.7180   44.7650 H   0  0  0  0  0  0  0  0  0  0  0  0
   38.7890   32.6000   49.3760 C   0  0  0  0  0  0  0  0  0  0  0  0
   38.7990   32.4320   48.0070 C   0  0  0  0  0  0  0  0  0  0  0  0
   38.2760   31.2670   47.4830 C   0  0  0  0  0  0  0  0  0  0  0  0
   37.7700   30.3320   48.3630 N   0  0  0  0  0  0  0  0  0  0  0  0
   37.7900   30.5550   49.6680 C   0  0  0  0  0  0  0  0  0  0  0  0
   38.2920   31.6730   50.1950 N   0  0  0  0  0  0  0  0  0  0  0  0
   39.1950   33.5070   49.8040 H   0  0  0  0  0  0  0  0  0  0  0  0
   39.1950   33.1640   47.3230 H   0  0  0  0  0  0  0  0  0  0  0  0
   37.2420   29.5350   50.5660 C   0  0  0  0  0  0  0  0  0  0  0  0
   37.8730   28.5250   50.9380 O   0  0  0  0  0  0  0  0  0  0  0  0
   35.8990   29.7110   51.0470 N   0  0  0  0  0  0  0  0  0  0  0  0
   35.7610   30.0240   52.0520 H   0  0  0  0  0  0  0  0  0  0  0  0
   34.5000   29.4340   50.0600 S   0  0  0  0  0  0  0  0  0  0  0  0
   33.2440   29.5390   50.8460 O   0  0  0  0  0  1  0  0  0  0  0  0
   34.4610   30.4810   48.9840 O   0  0  0  0  0  1  0  0  0  0  0  0
   34.6030   27.8950   49.3930 O   0  0  0  0  0  0  0  0  0  0  0  0
   35.5410   27.6690   49.2700 H   0  0  0  0  0  0  0  0  0  0  0  0
  1 21  1  0  0  0  0
  2  3  1  0  0  0  0
  3  9  1  1  0  0  0
  3  1  1  0  0  0  0
  4 11  1  0  0  0  0
  4  3  1  0  0  0  0
  5 12  1  0  0  0  0
  5  4  1  0  0  0  0
  6  5  1  0  0  0  0
  6  7  1  0  0  0  0
  7 15  1  6  0  0  0
  7 16  1  0  0  0  0
  7  2  1  0  0  0  0
  8  2  1  0  0  0  0
 10  4  1  0  0  0  0
 13  6  1  0  0  0  0
 14  6  1  0  0  0  0
 16 18  1  0  0  0  0
 17 16  1  0  0  0  0
 19 25  1  0  0  0  0
 19 24  1  0  0  0  0
 20 19  2  0  0  0  0
 21 20  1  0  0  0  0
 21 22  2  0  0  0  0
 22 23  1  0  0  0  0
 23 24  2  0  0  0  0
 23 27  1  0  0  0  0
 26 20  1  0  0  0  0
 27 28  2  0  0  0  0
 27 29  1  0  0  0  0
 29 30  1  0  0  0  0
 31 32  1  0  0  0  0
 31 29  1  0  0  0  0
 33 31  1  0  0  0  0
 34 31  1  0  0  0  0
 35 34  1  0  0  0  0
M  END
>  <minimizedAffinity>
-5.62711525

>  <minimizedRMSD>
2.11715913

$$$$
