
 OpenBabel03272510313D

 30 31  0  0  0  0  0  0  0  0999 V2000
   37.3230   31.4000   49.4150 C   0  0  0  0  0  0  0  0  0  0  0  0
   37.8430   32.6800   49.4220 C   0  0  0  0  0  0  0  0  0  0  0  0
   38.1090   33.2040   48.1590 C   0  0  0  0  0  0  0  0  0  0  0  0
   37.8530   32.4640   47.0350 N   0  0  0  0  0  0  0  0  0  0  0  0
   37.3430   31.2160   47.0850 C   0  0  0  0  0  0  0  0  0  0  0  0
   37.0750   30.6790   48.3050 N   0  0  0  0  0  0  0  0  0  0  0  0
   38.0410   33.2530   50.2970 H   0  0  0  0  0  0  0  0  0  0  0  0
   38.5150   34.1870   48.0050 H   0  0  0  0  0  0  0  0  0  0  0  0
   36.9810   30.7820   50.7450 C   0  0  0  0  0  0  0  0  0  0  0  0
   36.9580   29.3750   50.9670 C   0  0  0  0  0  0  0  0  0  0  0  0
   38.2000   30.1290   51.4220 C   0  0  0  0  0  0  0  0  0  0  0  0
   36.4090   31.4880   51.3850 H   0  0  0  0  0  0  0  0  0  0  0  0
   37.1990   28.6720   50.1160 H   0  0  0  0  0  0  0  0  0  0  0  0
   36.3020   28.9090   51.7010 H   0  0  0  0  0  0  0  0  0  0  0  0
   38.2520   30.2960   52.5040 H   0  0  0  0  0  0  0  0  0  0  0  0
   39.1330   30.0530   50.8530 H   0  0  0  0  0  0  0  0  0  0  0  0
   37.0660   30.4510   45.8820 C   0  0  0  0  0  0  0  0  0  0  0  0
   36.8520   29.3950   46.1260 H   0  0  0  0  0  0  0  0  0  0  0  0
   36.1850   30.9300   45.3770 H   0  0  0  0  0  0  0  0  0  0  0  0
   38.1700   31.3700   43.8500 C   0  0  0  0  0  0  0  0  0  0  0  0
   37.1890   32.0700   43.4810 O   0  0  0  0  0  0  0  0  0  0  0  0
   38.2240   30.5560   45.0100 N   0  0  0  0  0  0  0  0  0  0  0  0
   39.0780   30.0160   45.2690 H   0  0  0  0  0  0  0  0  0  0  0  0
   39.3680   31.3670   43.0490 N   0  0  0  0  0  0  0  0  0  0  0  0
   39.3570   31.0470   42.0350 H   0  0  0  0  0  0  0  0  0  0  0  0
   40.8490   31.9070   43.7890 S   0  0  0  0  0  0  0  0  0  0  0  0
   40.6380   33.2190   44.4750 O   0  0  0  0  0  1  0  0  0  0  0  0
   41.2420   30.8570   44.7870 O   0  0  0  0  0  1  0  0  0  0  0  0
   42.0160   32.0650   42.6110 O   0  0  0  0  0  0  0  0  0  0  0  0
   42.8790   32.2650   43.0160 H   0  0  0  0  0  0  0  0  0  0  0  0
  1  2  1  0  0  0  0
  1  9  1  0  0  0  0
  2  7  1  0  0  0  0
  3  2  2  0  0  0  0
  4  5  2  0  0  0  0
  4  3  1  0  0  0  0
  5  6  1  0  0  0  0
  6  1  2  0  0  0  0
  8  3  1  0  0  0  0
  9 10  1  0  0  0  0
  9 12  1  0  0  0  0
  9 11  1  0  0  0  0
 10 11  1  0  0  0  0
 10 14  1  0  0  0  0
 11 15  1  0  0  0  0
 13 10  1  0  0  0  0
 16 11  1  0  0  0  0
 17 18  1  0  0  0  0
 17  5  1  0  0  0  0
 19 17  1  0  0  0  0
 20 22  1  0  0  0  0
 21 20  2  0  0  0  0
 22 23  1  0  0  0  0
 22 17  1  0  0  0  0
 24 26  1  0  0  0  0
 24 20  1  0  0  0  0
 25 24  1  0  0  0  0
 26 27  1  0  0  0  0
 26 28  1  0  0  0  0
 29 30  1  0  0  0  0
 29 26  1  0  0  0  0
M  END
>  <minimizedAffinity>
0.200662985

>  <minimizedRMSD>
2.42815566

$$$$
