
 OpenBabel03272509363D

 28 29  0  0  1  0  0  0  0  0999 V2000
   35.9380   29.5850   48.9590 C   0  0  0  0  0  0  0  0  0  0  0  0
   36.2660   29.3030   50.2780 C   0  0  0  0  0  0  0  0  0  0  0  0
   37.2880   29.9170   50.9870 C   0  0  0  0  0  0  0  0  0  0  0  0
   38.0390   30.8860   50.3270 C   0  0  0  0  0  0  0  0  0  0  0  0
   37.7200   31.1770   49.0050 C   0  0  0  0  0  0  0  0  0  0  0  0
   36.6950   30.5380   48.3490 C   0  0  0  0  0  0  0  0  0  0  0  0
   35.6790   28.5420   50.8030 H   0  0  0  0  0  0  0  0  0  0  0  0
   37.4570   29.6180   52.0170 H   0  0  0  0  0  0  0  0  0  0  0  0
   38.8200   31.3260   50.9290 H   0  0  0  0  0  0  0  0  0  0  0  0
   38.3940   31.9380   48.6490 H   0  0  0  0  0  0  0  0  0  0  0  0
   34.8450   28.8700   48.3360 C   0  0  2  0  0  0  0  0  0  0  0  0
   34.4480   27.8440   49.0010 O   0  0  0  0  0  0  0  0  0  0  0  0
   32.7360   30.7310   46.0520 C   0  0  0  0  0  0  0  0  0  0  0  0
   32.9170   30.1110   44.8240 C   0  0  0  0  0  0  0  0  0  0  0  0
   33.7770   29.0350   44.7810 C   0  0  0  0  0  0  0  0  0  0  0  0
   34.4230   28.6040   45.9200 N   0  0  0  0  0  0  0  0  0  0  0  0
   34.2170   29.2310   47.0770 C   0  0  0  0  0  0  0  0  0  0  0  0
   33.3820   30.2790   47.1310 N   0  0  0  0  0  0  0  0  0  0  0  0
   32.0500   31.5720   46.0370 H   0  0  0  0  0  0  0  0  0  0  0  0
   32.4650   30.3700   43.8910 H   0  0  0  0  0  0  0  0  0  0  0  0
   34.0480   28.4220   43.9130 H   0  0  0  0  0  0  0  0  0  0  0  0
   36.4920   30.9300   47.0020 N   0  0  0  0  0  0  0  0  0  0  0  0
   35.6370   31.2190   46.5040 H   0  0  0  0  0  0  0  0  0  0  0  0
   37.5290   31.0740   45.6370 S   0  0  0  0  0  0  0  0  0  0  0  0
   38.8940   30.5250   46.0340 O   0  0  0  0  0  0  0  0  0  0  0  0
   37.0470   30.3660   44.4250 O   0  0  0  0  0  0  0  0  0  0  0  0
   37.7810   32.7280   45.3290 O   0  0  0  0  0  0  0  0  0  0  0  0
   37.8460   33.2190   46.1820 H   0  0  0  0  0  0  0  0  0  0  0  0
  1  2  1  0  0  0  0
  2  7  1  0  0  0  0
  2  3  2  0  0  0  0
  3  8  1  0  0  0  0
  4  9  1  0  0  0  0
  4  3  1  0  0  0  0
  5  4  2  0  0  0  0
  6  1  2  0  0  0  0
  6  5  1  0  0  0  0
 10  5  1  0  0  0  0
 11  1  1  0  0  0  0
 11 12  1  6  0  0  0
 13 18  1  0  0  0  0
 14 13  2  0  0  0  0
 15 14  1  0  0  0  0
 15 16  2  0  0  0  0
 16 17  1  0  0  0  0
 17 18  2  0  0  0  0
 17 11  1  0  0  0  0
 19 13  1  0  0  0  0
 20 14  1  0  0  0  0
 21 15  1  0  0  0  0
 22  6  1  0  0  0  0
 23 22  1  0  0  0  0
 24 25  1  0  0  0  0
 24 22  1  0  0  0  0
 26 24  1  0  0  0  0
 27 24  1  0  0  0  0
 27 28  1  0  0  0  0
M  END
>  <minimizedAffinity>
-5.45906067

>  <minimizedRMSD>
1.1664933

$$$$
