
 OpenBabel03272509523D

 41 43  0  0  0  0  0  0  0  0999 V2000
   34.0770   29.1520   47.9620 C   0  0  0  0  0  0  0  0  0  0  0  0
   33.3360   29.8340   48.4310 H   0  0  0  0  0  0  0  0  0  0  0  0
   34.8320   29.7090   47.3450 H   0  0  0  0  0  0  0  0  0  0  0  0
   33.3610   28.1490   47.1030 C   0  0  0  0  0  0  0  0  0  0  0  0
   33.3700   28.4550   46.0190 H   0  0  0  0  0  0  0  0  0  0  0  0
   33.8490   27.1630   47.1320 H   0  0  0  0  0  0  0  0  0  0  0  0
   31.9320   28.0050   47.4760 C   0  0  0  0  0  0  0  0  0  0  0  0
   31.6130   27.0180   48.4100 C   0  0  0  0  0  0  0  0  0  0  0  0
   30.3270   26.8050   48.8210 C   0  0  0  0  0  0  0  0  0  0  0  0
   29.3600   27.5470   48.3240 N   0  0  0  0  0  0  0  0  0  0  0  0
   29.6660   28.5130   47.4110 C   0  0  0  0  0  0  0  0  0  0  0  0
   30.9200   28.7570   46.9780 N   0  0  0  0  0  0  0  0  0  0  0  0
   32.4130   26.4040   48.8210 H   0  0  0  0  0  0  0  0  0  0  0  0
   30.0800   26.0330   49.5510 H   0  0  0  0  0  0  0  0  0  0  0  0
   28.6030   29.3060   46.8850 N   0  0  0  0  0  0  0  0  0  0  0  0
   28.6520   29.7020   45.9200 H   0  0  0  0  0  0  0  0  0  0  0  0
   27.1720   29.6790   47.7700 S   0  0  0  0  0  0  0  0  0  0  0  0
   27.4910   30.0980   49.1770 O   0  0  0  0  0  1  0  0  0  0  0  0
   26.4270   30.8370   47.1490 O   0  0  0  0  0  1  0  0  0  0  0  0
   26.1860   28.3070   47.7410 O   0  0  0  0  0  0  0  0  0  0  0  0
   25.6430   28.3770   46.8980 H   0  0  0  0  0  0  0  0  0  0  0  0
   34.8230   28.4670   48.9710 O   0  0  0  0  0  0  0  0  0  0  0  0
   37.0170   29.9060   51.4600 C   0  0  0  0  0  0  0  0  0  0  0  0
   37.8500   30.7110   50.6290 C   0  0  0  0  0  0  0  0  0  0  0  0
   37.5880   30.6920   49.2660 C   0  0  0  0  0  0  0  0  0  0  0  0
   36.5540   29.9050   48.8420 N   0  0  0  0  0  0  0  0  0  0  0  0
   35.7940   29.1670   49.6380 C   0  0  0  0  0  0  0  0  0  0  0  0
   36.0340   29.1720   50.9640 N   0  0  0  0  0  0  0  0  0  0  0  0
   37.2430   29.9400   52.5210 H   0  0  0  0  0  0  0  0  0  0  0  0
   38.6580   31.3260   50.9640 H   0  0  0  0  0  0  0  0  0  0  0  0
   38.7480   33.3320   49.5050 F   0  0  0  0  0  0  0  0  0  0  0  0
   38.8680   32.6650   48.3570 C   0  0  0  0  0  0  0  0  0  0  0  0
   38.3200   31.4370   48.2710 C   0  0  0  0  0  0  0  0  0  0  0  0
   38.5080   30.8300   47.0200 C   0  0  0  0  0  0  0  0  0  0  0  0
   39.1840   31.4310   45.9920 C   0  0  0  0  0  0  0  0  0  0  0  0
   39.7260   32.6890   46.1340 C   0  0  0  0  0  0  0  0  0  0  0  0
   39.5570   33.3050   47.3470 C   0  0  0  0  0  0  0  0  0  0  0  0
   38.1140   29.8320   46.8100 H   0  0  0  0  0  0  0  0  0  0  0  0
   39.3220   30.9520   45.0310 H   0  0  0  0  0  0  0  0  0  0  0  0
   40.2530   33.1500   45.3250 H   0  0  0  0  0  0  0  0  0  0  0  0
   39.9730   34.2960   47.4900 H   0  0  0  0  0  0  0  0  0  0  0  0
  1  2  1  0  0  0  0
  1 22  1  0  0  0  0
  3  1  1  0  0  0  0
  4  6  1  0  0  0  0
  4  7  1  0  0  0  0
  4  1  1  0  0  0  0
  5  4  1  0  0  0  0
  7  8  1  0  0  0  0
  8  9  2  0  0  0  0
  8 13  1  0  0  0  0
  9 14  1  0  0  0  0
 10  9  1  0  0  0  0
 11 10  2  0  0  0  0
 12 11  1  0  0  0  0
 12  7  2  0  0  0  0
 15 11  1  0  0  0  0
 15 17  1  0  0  0  0
 16 15  1  0  0  0  0
 17 18  1  0  0  0  0
 19 17  1  0  0  0  0
 20 17  1  0  0  0  0
 21 20  1  0  0  0  0
 22 27  1  0  0  0  0
 23 29  1  0  0  0  0
 24 30  1  0  0  0  0
 24 23  2  0  0  0  0
 25 24  1  0  0  0  0
 26 25  2  0  0  0  0
 26 27  1  0  0  0  0
 27 28  2  0  0  0  0
 28 23  1  0  0  0  0
 32 31  1  0  0  0  0
 33 32  1  0  0  0  0
 33 25  1  0  0  0  0
 34 33  2  0  0  0  0
 35 36  2  0  0  0  0
 35 34  1  0  0  0  0
 36 37  1  0  0  0  0
 37 41  1  0  0  0  0
 37 32  2  0  0  0  0
 38 34  1  0  0  0  0
 39 35  1  0  0  0  0
 40 36  1  0  0  0  0
M  END
>  <minimizedAffinity>
-7.00869942

>  <minimizedRMSD>
1.16803539

$$$$
