
 OpenBabel03272510323D

 26 27  0  0  0  0  0  0  0  0999 V2000
   35.9990   30.3170   47.6430 C   0  0  0  0  0  0  0  0  0  0  0  0
   35.2890   29.8820   46.5680 C   0  0  0  0  0  0  0  0  0  0  0  0
   34.0850   29.2310   46.6730 C   0  0  0  0  0  0  0  0  0  0  0  0
   33.5930   29.0200   47.9350 C   0  0  0  0  0  0  0  0  0  0  0  0
   34.2770   29.4420   49.0500 C   0  0  0  0  0  0  0  0  0  0  0  0
   35.4890   30.0960   48.9100 C   0  0  0  0  0  0  0  0  0  0  0  0
   35.6730   30.0450   45.5570 H   0  0  0  0  0  0  0  0  0  0  0  0
   33.5570   28.9030   45.7740 H   0  0  0  0  0  0  0  0  0  0  0  0
   32.6360   28.5010   47.9820 H   0  0  0  0  0  0  0  0  0  0  0  0
   33.7930   29.2210   49.9900 H   0  0  0  0  0  0  0  0  0  0  0  0
   38.6190   32.8220   47.9150 C   0  0  0  0  0  0  0  0  0  0  0  0
   39.6100   32.3940   47.0360 C   0  0  0  0  0  0  0  0  0  0  0  0
   39.3570   31.2040   46.3340 C   0  0  0  0  0  0  0  0  0  0  0  0
   38.1850   30.5320   46.5330 N   0  0  0  0  0  0  0  0  0  0  0  0
   37.2550   31.0020   47.4060 C   0  0  0  0  0  0  0  0  0  0  0  0
   37.4730   32.1530   48.1010 N   0  0  0  0  0  0  0  0  0  0  0  0
   38.8270   33.7380   48.4480 H   0  0  0  0  0  0  0  0  0  0  0  0
   40.5440   32.8940   46.8510 H   0  0  0  0  0  0  0  0  0  0  0  0
   40.0700   30.7900   45.6250 H   0  0  0  0  0  0  0  0  0  0  0  0
   36.1780   30.5180   50.0540 N   0  0  0  0  0  0  0  0  0  0  0  0
   35.8880   31.4360   50.5070 H   0  0  0  0  0  0  0  0  0  0  0  0
   37.4570   29.8770   50.9630 S   0  0  0  0  0  0  0  0  0  0  0  0
   37.8360   28.4680   50.6380 O   0  0  0  0  0  1  0  0  0  0  0  0
   37.1800   30.0710   52.4170 O   0  0  0  0  0  1  0  0  0  0  0  0
   38.8330   30.8090   50.5940 O   0  0  0  0  0  0  0  0  0  0  0  0
   38.8220   31.0480   49.6170 H   0  0  0  0  0  0  0  0  0  0  0  0
  1  6  1  0  0  0  0
  2  3  1  0  0  0  0
  2  1  2  0  0  0  0
  3  4  2  0  0  0  0
  4  9  1  0  0  0  0
  4  5  1  0  0  0  0
  5 10  1  0  0  0  0
  6  5  2  0  0  0  0
  6 20  1  0  0  0  0
  7  2  1  0  0  0  0
  8  3  1  0  0  0  0
 11 16  1  0  0  0  0
 11 17  1  0  0  0  0
 12 11  2  0  0  0  0
 13 14  2  0  0  0  0
 13 12  1  0  0  0  0
 14 15  1  0  0  0  0
 15  1  1  0  0  0  0
 15 16  2  0  0  0  0
 18 12  1  0  0  0  0
 19 13  1  0  0  0  0
 20 21  1  0  0  0  0
 20 22  1  0  0  0  0
 22 24  1  0  0  0  0
 23 22  1  0  0  0  0
 25 22  1  0  0  0  0
 26 25  1  0  0  0  0
M  END
>  <minimizedAffinity>
-4.87973452

>  <minimizedRMSD>
1.42788827

$$$$
