REMARK  Name = 
REMARK  7 active torsions:
REMARK  status: ('A' for Active; 'I' for Inactive)
REMARK    1  A    between atoms: C_3  and  C_9
REMARK    2  A    between atoms: C_5  and  O_14
REMARK    3  A    between atoms: O_14  and  C_15
REMARK    4  A    between atoms: C_15  and  C_16
REMARK    5  A    between atoms: C_16  and  C_17
REMARK    6  A    between atoms: N_35  and  S_37
REMARK    7  A    between atoms: S_37  and  O_40
REMARK                            x       y       z     vdW  Elec       q    Type
REMARK                         _______ _______ _______ _____ _____    ______ ____
ROOT
ATOM      1  C   UNL     1      34.441  28.673  48.161  0.00  0.00    +0.000 C 
ATOM      2  H   UNL     1      33.841  29.606  48.213  0.00  0.00    +0.000 HD
ATOM      3  H   UNL     1      35.320  28.775  47.469  0.00  0.00    +0.000 HD
ENDROOT
BRANCH   1   4
ATOM      4  C   UNL     1      33.566  27.540  47.706  0.00  0.00    +0.000 C 
ATOM      5  H   UNL     1      33.817  27.223  46.655  0.00  0.00    +0.000 HD
ATOM      6  H   UNL     1      33.708  26.640  48.324  0.00  0.00    +0.000 HD
BRANCH   4   7
ATOM      7  C   UNL     1      32.129  27.908  47.691  0.00  0.00    +0.000 A 
ATOM      8  C   UNL     1      31.359  27.517  48.788  0.00  0.00    +0.000 A 
ATOM      9  C   UNL     1      30.026  27.807  48.871  0.00  0.00    +0.000 A 
ATOM     10  N   UNL     1      29.448  28.472  47.893  0.00  0.00    +0.000 NA
ATOM     11  C   UNL     1      30.196  28.857  46.819  0.00  0.00    +0.000 A 
ATOM     12  N   UNL     1      31.513  28.592  46.696  0.00  0.00    +0.000 NA
ATOM     13  H   UNL     1      31.837  26.966  49.597  0.00  0.00    +0.000 HD
ATOM     14  H   UNL     1      29.426  27.500  49.729  0.00  0.00    +0.000 HD
ATOM     15  N   UNL     1      29.550  29.577  45.770  0.00  0.00    +0.000 N 
ATOM     16  H   UNL     1      30.004  29.692  44.836  0.00  0.00    +0.000 HD
BRANCH  15  17
ATOM     17  S   UNL     1      28.000  30.308  45.939  0.00  0.00    +0.000 S 
ATOM     18  O   UNL     1      27.477  30.169  47.340  0.00  0.00    +0.000 OA
ATOM     19  O   UNL     1      28.057  31.792  45.661  0.00  0.00    +0.000 OA
BRANCH  17  20
ATOM     20  O   UNL     1      26.969  29.575  44.817  0.00  0.00    +0.000 OA
ATOM     21  H   UNL     1      27.082  30.091  43.963  0.00  0.00    +0.000 HD
ENDBRANCH  17  20
ENDBRANCH  15  17
ENDBRANCH   4   7
ENDBRANCH   1   4
BRANCH   1  22
ATOM     22  O   UNL     1      34.987  28.366  49.446  0.00  0.00    +0.000 OA
BRANCH  22  27
ATOM     23  C   UNL     1      37.337  30.172  51.518  0.00  0.00    +0.000 A 
ATOM     24  C   UNL     1      38.079  30.864  50.517  0.00  0.00    +0.000 A 
ATOM     25  C   UNL     1      37.707  30.651  49.196  0.00  0.00    +0.000 A 
ATOM     26  N   UNL     1      36.663  29.797  48.974  0.00  0.00    +0.000 NA
ATOM     27  C   UNL     1      35.990  29.167  49.925  0.00  0.00    +0.000 A 
ATOM     28  N   UNL     1      36.337  29.361  51.213  0.00  0.00    +0.000 NA
ATOM     29  H   UNL     1      37.648  30.357  52.542  0.00  0.00    +0.000 HD
ATOM     30  H   UNL     1      38.895  31.532  50.694  0.00  0.00    +0.000 HD
BRANCH  25  33
ATOM     31  F   UNL     1      38.941  33.262  49.011  0.00  0.00    +0.000 F 
ATOM     32  C   UNL     1      38.916  32.471  47.938  0.00  0.00    +0.000 A 
ATOM     33  C   UNL     1      38.336  31.260  48.050  0.00  0.00    +0.000 A 
ATOM     34  C   UNL     1      38.368  30.515  46.861  0.00  0.00    +0.000 A 
ATOM     35  C   UNL     1      38.935  30.979  45.704  0.00  0.00    +0.000 A 
ATOM     36  C   UNL     1      39.515  32.227  45.645  0.00  0.00    +0.000 A 
ATOM     37  C   UNL     1      39.498  32.975  46.793  0.00  0.00    +0.000 A 
ATOM     38  H   UNL     1      37.933  29.514  46.808  0.00  0.00    +0.000 HD
ATOM     39  H   UNL     1      38.953  30.395  44.793  0.00  0.00    +0.000 HD
ATOM     40  H   UNL     1      39.956  32.580  44.736  0.00  0.00    +0.000 HD
ATOM     41  H   UNL     1      39.948  33.962  46.778  0.00  0.00    +0.000 HD
ENDBRANCH  25  33
ENDBRANCH  22  27
ENDBRANCH   1  22
TORSDOF 7
