
 OpenBabel03272506543D

 42 44  0  0  1  0  0  0  0  0999 V2000
   38.7620   23.6670   31.6830 C   0  0  1  0  0  0  0  0  0  0  0  0
   39.8530   24.3990   32.2790 C   0  0  0  0  0  0  0  0  0  0  0  0
   39.9020   24.4150   33.7940 C   0  0  0  0  0  0  0  0  0  0  0  0
   39.5760   23.1810   34.4740 C   0  0  2  0  0  0  0  0  0  0  0  0
   38.4570   22.3370   33.8570 C   0  0  0  0  0  0  0  0  0  0  0  0
   38.5730   22.3300   32.3570 C   0  0  0  0  0  0  0  0  0  0  0  0
   39.0730   23.3640   30.6290 H   0  0  0  0  0  0  0  0  0  0  0  0
   40.8180   23.9090   31.9820 H   0  0  0  0  0  0  0  0  0  0  0  0
   39.9840   25.4440   31.9660 H   0  0  0  0  0  0  0  0  0  0  0  0
   39.0380   25.1290   34.0160 H   0  0  0  0  0  0  0  0  0  0  0  0
   40.8580   24.8330   34.1040 H   0  0  0  0  0  0  0  0  0  0  0  0
   40.3920   22.4410   34.5780 H   0  0  0  0  0  0  0  0  0  0  0  0
   37.5040   22.7530   34.1670 H   0  0  0  0  0  0  0  0  0  0  0  0
   38.6470   21.2850   34.0880 H   0  0  0  0  0  0  0  0  0  0  0  0
   37.6630   21.8620   31.9320 H   0  0  0  0  0  0  0  0  0  0  0  0
   39.4330   21.6740   32.0300 H   0  0  0  0  0  0  0  0  0  0  0  0
   39.0920   23.5110   35.8460 C   0  0  0  0  0  0  0  0  0  0  0  0
   38.3800   24.7180   36.0000 C   0  0  0  0  0  0  0  0  0  0  0  0
   37.9430   25.1120   37.2470 C   0  0  0  0  0  0  0  0  0  0  0  0
   38.2030   24.3310   38.3230 C   0  0  0  0  0  0  0  0  0  0  0  0
   38.8980   23.1550   38.1810 C   0  0  0  0  0  0  0  0  0  0  0  0
   39.3440   22.7500   36.9330 C   0  0  0  0  0  0  0  0  0  0  0  0
   38.0890   25.4850   35.2940 H   0  0  0  0  0  0  0  0  0  0  0  0
   37.3900   26.0160   37.4810 H   0  0  0  0  0  0  0  0  0  0  0  0
   37.8760   24.5980   39.3430 H   0  0  0  0  0  0  0  0  0  0  0  0
   39.0860   22.5620   39.0730 H   0  0  0  0  0  0  0  0  0  0  0  0
   40.0910   21.5760   36.9230 N   0  0  0  0  0  0  0  0  0  0  0  0
   39.8770   20.5360   36.8600 H   0  0  0  0  0  0  0  0  0  0  0  0
   41.8210   21.4020   36.9710 S   0  0  0  0  0  0  0  0  0  0  0  0
   42.2360   20.7430   35.6620 O   0  0  0  0  0  1  0  0  0  0  0  0
   42.5290   22.7110   37.0500 O   0  0  0  0  0  1  0  0  0  0  0  0
   42.3100   20.3970   38.1860 O   0  0  0  0  0  0  0  0  0  0  0  0
   42.1670   20.7390   39.0920 H   0  0  0  0  0  0  0  0  0  0  0  0
   37.4190   25.7490   31.3700 C   0  0  0  0  0  0  0  0  0  0  0  0
   37.4950   24.3680   31.4320 C   0  0  0  0  0  0  0  0  0  0  0  0
   36.3100   23.6510   31.2390 C   0  0  0  0  0  0  0  0  0  0  0  0
   35.1560   24.3410   31.0060 N   0  0  0  0  0  0  0  0  0  0  0  0
   35.1270   25.6950   30.9540 C   0  0  0  0  0  0  0  0  0  0  0  0
   36.2780   26.4010   31.1400 N   0  0  0  0  0  0  0  0  0  0  0  0
   38.2070   26.4460   31.4730 H   0  0  0  0  0  0  0  0  0  0  0  0
   36.2820   22.5740   31.2710 H   0  0  0  0  0  0  0  0  0  0  0  0
   34.1400   26.0690   30.7620 H   0  0  0  0  0  0  0  0  0  0  0  0
  1  7  1  6  0  0  0
  1  2  1  0  0  0  0
  1  6  1  0  0  0  0
  2  3  1  0  0  0  0
  3 10  1  0  0  0  0
  3 11  1  0  0  0  0
  3  4  1  0  0  0  0
  4 12  1  1  0  0  0
  4 17  1  0  0  0  0
  5 14  1  0  0  0  0
  5 13  1  0  0  0  0
  5  4  1  0  0  0  0
  6  5  1  0  0  0  0
  8  2  1  0  0  0  0
  9  2  1  0  0  0  0
 15  6  1  0  0  0  0
 16  6  1  0  0  0  0
 17 18  2  0  0  0  0
 17 22  1  0  0  0  0
 18 19  1  0  0  0  0
 19 24  1  0  0  0  0
 19 20  2  0  0  0  0
 20 25  1  0  0  0  0
 21 20  1  0  0  0  0
 21 26  1  0  0  0  0
 22 21  2  0  0  0  0
 23 18  1  0  0  0  0
 27 22  1  0  0  0  0
 27 29  1  0  0  0  0
 28 27  1  0  0  0  0
 29 31  1  0  0  0  0
 29 32  1  0  0  0  0
 30 29  1  0  0  0  0
 32 33  1  0  0  0  0
 34 35  1  0  0  0  0
 34 40  1  0  0  0  0
 35  1  1  0  0  0  0
 36 41  1  0  0  0  0
 36 35  2  0  0  0  0
 37 36  1  0  0  0  0
 38 37  2  0  0  0  0
 38 39  1  0  0  0  0
 39 34  2  0  0  0  0
 42 38  1  0  0  0  0
M  END
>  <minimizedAffinity>
-5.65161085

$$$$

 OpenBabel03272506543D

 42 44  0  0  1  0  0  0  0  0999 V2000
   38.5710   26.6620   32.5830 C   0  0  1  0  0  0  0  0  0  0  0  0
   39.7640   26.8730   33.3680 C   0  0  0  0  0  0  0  0  0  0  0  0
   39.8700   26.0770   34.6540 C   0  0  0  0  0  0  0  0  0  0  0  0
   39.4230   24.7030   34.6140 C   0  0  2  0  0  0  0  0  0  0  0  0
   38.1890   24.4110   33.7560 C   0  0  0  0  0  0  0  0  0  0  0  0
   38.2480   25.1920   32.4720 C   0  0  0  0  0  0  0  0  0  0  0  0
   38.8050   26.9410   31.5030 H   0  0  0  0  0  0  0  0  0  0  0  0
   40.6510   26.5380   32.7680 H   0  0  0  0  0  0  0  0  0  0  0  0
   40.0080   27.9100   33.6380 H   0  0  0  0  0  0  0  0  0  0  0  0
   39.1070   26.6340   35.2980 H   0  0  0  0  0  0  0  0  0  0  0  0
   40.8800   26.1870   35.0450 H   0  0  0  0  0  0  0  0  0  0  0  0
   40.1480   23.9570   34.2380 H   0  0  0  0  0  0  0  0  0  0  0  0
   37.3050   24.6760   34.3270 H   0  0  0  0  0  0  0  0  0  0  0  0
   38.2590   23.3850   33.3830 H   0  0  0  0  0  0  0  0  0  0  0  0
   37.2730   25.0990   31.9530 H   0  0  0  0  0  0  0  0  0  0  0  0
   39.0110   24.7420   31.7700 H   0  0  0  0  0  0  0  0  0  0  0  0
   39.0330   24.2930   35.9950 C   0  0  0  0  0  0  0  0  0  0  0  0
   38.2240   25.1890   36.7240 C   0  0  0  0  0  0  0  0  0  0  0  0
   37.8640   24.8980   38.0230 C   0  0  0  0  0  0  0  0  0  0  0  0
   38.2930   23.7470   38.5930 C   0  0  0  0  0  0  0  0  0  0  0  0
   39.0830   22.8710   37.8900 C   0  0  0  0  0  0  0  0  0  0  0  0
   39.4530   23.1530   36.5850 C   0  0  0  0  0  0  0  0  0  0  0  0
   37.7980   26.1510   36.4730 H   0  0  0  0  0  0  0  0  0  0  0  0
   37.2480   25.5110   38.6740 H   0  0  0  0  0  0  0  0  0  0  0  0
   38.0330   23.4650   39.6280 H   0  0  0  0  0  0  0  0  0  0  0  0
   39.4060   21.9610   38.3890 H   0  0  0  0  0  0  0  0  0  0  0  0
   40.3070   22.2240   35.9980 N   0  0  0  0  0  0  0  0  0  0  0  0
   40.2680   21.5800   35.1520 H   0  0  0  0  0  0  0  0  0  0  0  0
   41.9220   21.7920   36.4790 S   0  0  0  0  0  0  0  0  0  0  0  0
   42.5530   21.0590   35.3020 O   0  0  0  0  0  1  0  0  0  0  0  0
   42.7740   22.9820   36.7670 O   0  0  0  0  0  1  0  0  0  0  0  0
   41.9290   20.7440   37.7540 O   0  0  0  0  0  0  0  0  0  0  0  0
   41.6140   21.1160   38.6010 H   0  0  0  0  0  0  0  0  0  0  0  0
   37.0110   27.8270   34.1470 C   0  0  0  0  0  0  0  0  0  0  0  0
   37.3890   27.4910   32.8580 C   0  0  0  0  0  0  0  0  0  0  0  0
   36.6020   27.9780   31.8100 C   0  0  0  0  0  0  0  0  0  0  0  0
   35.5150   28.7470   32.1090 N   0  0  0  0  0  0  0  0  0  0  0  0
   35.1800   29.0520   33.3870 C   0  0  0  0  0  0  0  0  0  0  0  0
   35.9430   28.5820   34.4140 N   0  0  0  0  0  0  0  0  0  0  0  0
   37.4920   27.5660   35.0520 H   0  0  0  0  0  0  0  0  0  0  0  0
   36.8270   27.7640   30.7780 H   0  0  0  0  0  0  0  0  0  0  0  0
   34.3000   29.6630   33.4370 H   0  0  0  0  0  0  0  0  0  0  0  0
  1  7  1  6  0  0  0
  1 35  1  0  0  0  0
  1  2  1  0  0  0  0
  2  9  1  0  0  0  0
  2  3  1  0  0  0  0
  3 11  1  0  0  0  0
  3 10  1  0  0  0  0
  4 12  1  6  0  0  0
  4  3  1  0  0  0  0
  4 17  1  0  0  0  0
  5 13  1  0  0  0  0
  5  4  1  0  0  0  0
  6  1  1  0  0  0  0
  6  5  1  0  0  0  0
  8  2  1  0  0  0  0
 14  5  1  0  0  0  0
 15  6  1  0  0  0  0
 16  6  1  0  0  0  0
 17 22  2  0  0  0  0
 17 18  1  0  0  0  0
 18 19  2  0  0  0  0
 19 20  1  0  0  0  0
 19 24  1  0  0  0  0
 20 25  1  0  0  0  0
 21 26  1  0  0  0  0
 21 20  2  0  0  0  0
 22 21  1  0  0  0  0
 23 18  1  0  0  0  0
 27 29  1  0  0  0  0
 27 22  1  0  0  0  0
 28 27  1  0  0  0  0
 29 31  1  0  0  0  0
 29 32  1  0  0  0  0
 30 29  1  0  0  0  0
 32 33  1  0  0  0  0
 34 39  1  0  0  0  0
 34 40  1  0  0  0  0
 35 34  2  0  0  0  0
 36 37  2  0  0  0  0
 36 35  1  0  0  0  0
 37 38  1  0  0  0  0
 38 42  1  0  0  0  0
 38 39  2  0  0  0  0
 41 36  1  0  0  0  0
M  END
>  <minimizedAffinity>
-5.60127974

$$$$

 OpenBabel03272506543D

 42 44  0  0  1  0  0  0  0  0999 V2000
   38.3070   26.0390   31.7450 C   0  0  1  0  0  0  0  0  0  0  0  0
   39.1270   24.9200   31.3480 C   0  0  0  0  0  0  0  0  0  0  0  0
   38.5180   23.5430   31.5340 C   0  0  0  0  0  0  0  0  0  0  0  0
   37.1170   23.3960   31.2090 C   0  0  2  0  0  0  0  0  0  0  0  0
   36.2070   24.5740   31.5640 C   0  0  0  0  0  0  0  0  0  0  0  0
   36.8900   25.8770   31.2500 C   0  0  0  0  0  0  0  0  0  0  0  0
   38.6600   26.9580   31.1710 H   0  0  0  0  0  0  0  0  0  0  0  0
   39.3130   24.9870   30.2430 H   0  0  0  0  0  0  0  0  0  0  0  0
   40.1350   24.8610   31.7790 H   0  0  0  0  0  0  0  0  0  0  0  0
   38.5860   23.4460   32.6700 H   0  0  0  0  0  0  0  0  0  0  0  0
   39.1520   22.8150   31.0300 H   0  0  0  0  0  0  0  0  0  0  0  0
   36.8700   23.2260   30.1440 H   0  0  0  0  0  0  0  0  0  0  0  0
   35.9630   24.5130   32.6190 H   0  0  0  0  0  0  0  0  0  0  0  0
   35.3740   24.5970   30.8540 H   0  0  0  0  0  0  0  0  0  0  0  0
   36.2880   26.7060   31.6720 H   0  0  0  0  0  0  0  0  0  0  0  0
   36.9120   26.0540   30.1340 H   0  0  0  0  0  0  0  0  0  0  0  0
   36.5710   22.2450   31.9860 C   0  0  0  0  0  0  0  0  0  0  0  0
   35.6140   21.4340   31.3410 C   0  0  0  0  0  0  0  0  0  0  0  0
   35.0310   20.3810   32.0130 C   0  0  0  0  0  0  0  0  0  0  0  0
   35.3830   20.1320   33.2970 C   0  0  0  0  0  0  0  0  0  0  0  0
   36.3110   20.9190   33.9320 C   0  0  0  0  0  0  0  0  0  0  0  0
   36.9040   21.9800   33.2680 C   0  0  0  0  0  0  0  0  0  0  0  0
   35.1840   21.4690   30.3490 H   0  0  0  0  0  0  0  0  0  0  0  0
   34.2880   19.6960   31.6170 H   0  0  0  0  0  0  0  0  0  0  0  0
   34.9480   19.3010   33.8810 H   0  0  0  0  0  0  0  0  0  0  0  0
   36.5610   20.6820   34.9640 H   0  0  0  0  0  0  0  0  0  0  0  0
   37.7800   22.7440   34.0340 N   0  0  0  0  0  0  0  0  0  0  0  0
   38.4760   23.5250   33.8440 H   0  0  0  0  0  0  0  0  0  0  0  0
   38.0220   22.6990   35.7560 S   0  0  0  0  0  0  0  0  0  0  0  0
   38.3930   24.1120   36.1870 O   0  0  0  0  0  1  0  0  0  0  0  0
   36.7880   22.3190   36.5010 O   0  0  0  0  0  1  0  0  0  0  0  0
   39.2860   21.7250   36.1790 O   0  0  0  0  0  0  0  0  0  0  0  0
   39.1460   20.7690   36.0220 H   0  0  0  0  0  0  0  0  0  0  0  0
   39.5830   26.6230   33.8110 C   0  0  0  0  0  0  0  0  0  0  0  0
   38.3800   26.5090   33.1360 C   0  0  0  0  0  0  0  0  0  0  0  0
   37.2180   26.8640   33.8290 C   0  0  0  0  0  0  0  0  0  0  0  0
   37.3310   27.2990   35.1180 N   0  0  0  0  0  0  0  0  0  0  0  0
   38.5300   27.3950   35.7410 C   0  0  0  0  0  0  0  0  0  0  0  0
   39.6670   27.0500   35.0730 N   0  0  0  0  0  0  0  0  0  0  0  0
   40.5530   26.4170   33.4450 H   0  0  0  0  0  0  0  0  0  0  0  0
   36.2420   26.8050   33.3770 H   0  0  0  0  0  0  0  0  0  0  0  0
   38.4320   27.7520   36.7480 H   0  0  0  0  0  0  0  0  0  0  0  0
  1  7  1  6  0  0  0
  1 35  1  0  0  0  0
  2  3  1  0  0  0  0
  2  1  1  0  0  0  0
  2  9  1  0  0  0  0
  3 10  1  0  0  0  0
  4 12  1  6  0  0  0
  4  3  1  0  0  0  0
  4  5  1  0  0  0  0
  4 17  1  0  0  0  0
  5 13  1  0  0  0  0
  6  5  1  0  0  0  0
  6 15  1  0  0  0  0
  6  1  1  0  0  0  0
  8  2  1  0  0  0  0
 11  3  1  0  0  0  0
 14  5  1  0  0  0  0
 16  6  1  0  0  0  0
 17 22  1  0  0  0  0
 18 17  2  0  0  0  0
 18 19  1  0  0  0  0
 19 20  2  0  0  0  0
 20 25  1  0  0  0  0
 20 21  1  0  0  0  0
 21 26  1  0  0  0  0
 22 21  2  0  0  0  0
 22 27  1  0  0  0  0
 23 18  1  0  0  0  0
 24 19  1  0  0  0  0
 27 29  1  0  0  0  0
 28 27  1  0  0  0  0
 29 32  1  0  0  0  0
 29 30  1  0  0  0  0
 29 31  1  0  0  0  0
 33 32  1  0  0  0  0
 34 39  1  0  0  0  0
 35 34  2  0  0  0  0
 35 36  1  0  0  0  0
 36 37  2  0  0  0  0
 37 38  1  0  0  0  0
 38 42  1  0  0  0  0
 39 38  2  0  0  0  0
 40 34  1  0  0  0  0
 41 36  1  0  0  0  0
M  END
>  <minimizedAffinity>
-5.59450674

$$$$

 OpenBabel03272506543D

 42 44  0  0  1  0  0  0  0  0999 V2000
   36.3270   27.3960   32.3420 C   0  0  1  0  0  0  0  0  0  0  0  0
   36.5010   25.9660   32.2550 C   0  0  0  0  0  0  0  0  0  0  0  0
   37.7000   25.3910   32.9830 C   0  0  0  0  0  0  0  0  0  0  0  0
   38.0090   25.9480   34.2810 C   0  0  2  0  0  0  0  0  0  0  0  0
   37.7960   27.4540   34.4460 C   0  0  0  0  0  0  0  0  0  0  0  0
   36.5300   27.8830   33.7560 C   0  0  0  0  0  0  0  0  0  0  0  0
   35.2270   27.6300   32.1610 H   0  0  0  0  0  0  0  0  0  0  0  0
   35.6220   25.4690   32.7450 H   0  0  0  0  0  0  0  0  0  0  0  0
   36.5230   25.5250   31.2500 H   0  0  0  0  0  0  0  0  0  0  0  0
   38.5400   25.7360   32.2900 H   0  0  0  0  0  0  0  0  0  0  0  0
   37.6090   24.3060   32.9950 H   0  0  0  0  0  0  0  0  0  0  0  0
   37.4460   25.5400   35.1420 H   0  0  0  0  0  0  0  0  0  0  0  0
   38.6550   27.9690   34.0280 H   0  0  0  0  0  0  0  0  0  0  0  0
   37.5460   27.6590   35.4910 H   0  0  0  0  0  0  0  0  0  0  0  0
   36.4890   28.9900   33.7410 H   0  0  0  0  0  0  0  0  0  0  0  0
   35.6260   27.5530   34.3480 H   0  0  0  0  0  0  0  0  0  0  0  0
   39.4610   25.7360   34.5530 C   0  0  0  0  0  0  0  0  0  0  0  0
   40.3500   26.7260   34.0880 C   0  0  0  0  0  0  0  0  0  0  0  0
   41.7090   26.5750   34.2610 C   0  0  0  0  0  0  0  0  0  0  0  0
   42.1840   25.4680   34.8810 C   0  0  0  0  0  0  0  0  0  0  0  0
   41.3240   24.4980   35.3330 C   0  0  0  0  0  0  0  0  0  0  0  0
   39.9560   24.6380   35.1640 C   0  0  0  0  0  0  0  0  0  0  0  0
   40.1880   27.6570   33.5610 H   0  0  0  0  0  0  0  0  0  0  0  0
   42.4810   27.2700   33.9460 H   0  0  0  0  0  0  0  0  0  0  0  0
   43.2620   25.2970   35.0470 H   0  0  0  0  0  0  0  0  0  0  0  0
   41.7510   23.6250   35.8230 H   0  0  0  0  0  0  0  0  0  0  0  0
   39.1920   23.5620   35.6050 N   0  0  0  0  0  0  0  0  0  0  0  0
   38.9130   22.6130   35.2140 H   0  0  0  0  0  0  0  0  0  0  0  0
   38.3830   23.3720   37.1340 S   0  0  0  0  0  0  0  0  0  0  0  0
   38.1160   24.7720   37.6700 O   0  0  0  0  0  1  0  0  0  0  0  0
   37.0650   22.6880   37.0060 O   0  0  0  0  0  1  0  0  0  0  0  0
   39.3340   22.6090   38.2470 O   0  0  0  0  0  0  0  0  0  0  0  0
   39.5230   21.6680   38.0580 H   0  0  0  0  0  0  0  0  0  0  0  0
   38.2420   27.9600   30.8410 C   0  0  0  0  0  0  0  0  0  0  0  0
   36.9830   28.2490   31.3410 C   0  0  0  0  0  0  0  0  0  0  0  0
   36.3450   29.3930   30.8510 C   0  0  0  0  0  0  0  0  0  0  0  0
   36.9890   30.1550   29.9200 N   0  0  0  0  0  0  0  0  0  0  0  0
   38.2220   29.8350   29.4580 C   0  0  0  0  0  0  0  0  0  0  0  0
   38.8510   28.7210   29.9300 N   0  0  0  0  0  0  0  0  0  0  0  0
   38.8600   27.1360   31.0800 H   0  0  0  0  0  0  0  0  0  0  0  0
   35.3650   29.6890   31.1870 H   0  0  0  0  0  0  0  0  0  0  0  0
   38.5760   30.5420   28.7330 H   0  0  0  0  0  0  0  0  0  0  0  0
  1  7  1  6  0  0  0
  1  6  1  0  0  0  0
  2  1  1  0  0  0  0
  2  8  1  0  0  0  0
  2  3  1  0  0  0  0
  3 11  1  0  0  0  0
  3  4  1  0  0  0  0
  4  5  1  0  0  0  0
  4 17  1  0  0  0  0
  4 12  1  1  0  0  0
  5 14  1  0  0  0  0
  6 16  1  0  0  0  0
  6  5  1  0  0  0  0
  9  2  1  0  0  0  0
 10  3  1  0  0  0  0
 13  5  1  0  0  0  0
 15  6  1  0  0  0  0
 17 22  1  0  0  0  0
 18 19  1  0  0  0  0
 18 17  2  0  0  0  0
 19 20  2  0  0  0  0
 20 25  1  0  0  0  0
 20 21  1  0  0  0  0
 21 26  1  0  0  0  0
 22 21  2  0  0  0  0
 22 27  1  0  0  0  0
 23 18  1  0  0  0  0
 24 19  1  0  0  0  0
 27 29  1  0  0  0  0
 28 27  1  0  0  0  0
 29 30  1  0  0  0  0
 29 32  1  0  0  0  0
 31 29  1  0  0  0  0
 33 32  1  0  0  0  0
 34 40  1  0  0  0  0
 34 35  1  0  0  0  0
 35  1  1  0  0  0  0
 36 41  1  0  0  0  0
 36 35  2  0  0  0  0
 37 36  1  0  0  0  0
 38 37  2  0  0  0  0
 38 39  1  0  0  0  0
 39 34  2  0  0  0  0
 42 38  1  0  0  0  0
M  END
>  <minimizedAffinity>
-5.50214529

$$$$

 OpenBabel03272506543D

 42 44  0  0  1  0  0  0  0  0999 V2000
   38.2030   23.9300   32.8800 C   0  0  1  0  0  0  0  0  0  0  0  0
   36.9760   23.9410   32.1220 C   0  0  0  0  0  0  0  0  0  0  0  0
   36.4460   25.3050   31.7220 C   0  0  0  0  0  0  0  0  0  0  0  0
   37.4170   26.2850   31.2910 C   0  0  2  0  0  0  0  0  0  0  0  0
   38.7590   26.2870   32.0280 C   0  0  0  0  0  0  0  0  0  0  0  0
   39.2170   24.8780   32.2860 C   0  0  0  0  0  0  0  0  0  0  0  0
   38.7030   22.9170   32.7300 H   0  0  0  0  0  0  0  0  0  0  0  0
   37.1550   23.4230   31.1430 H   0  0  0  0  0  0  0  0  0  0  0  0
   36.1190   23.4020   32.5490 H   0  0  0  0  0  0  0  0  0  0  0  0
   36.0600   25.6740   32.7320 H   0  0  0  0  0  0  0  0  0  0  0  0
   35.6350   25.1650   31.0090 H   0  0  0  0  0  0  0  0  0  0  0  0
   37.7360   26.2350   30.2330 H   0  0  0  0  0  0  0  0  0  0  0  0
   38.6360   26.8280   32.9610 H   0  0  0  0  0  0  0  0  0  0  0  0
   39.5340   26.6380   31.3410 H   0  0  0  0  0  0  0  0  0  0  0  0
   40.0920   24.9050   32.9650 H   0  0  0  0  0  0  0  0  0  0  0  0
   39.5880   24.4020   31.3310 H   0  0  0  0  0  0  0  0  0  0  0  0
   36.8510   27.6460   31.5260 C   0  0  0  0  0  0  0  0  0  0  0  0
   36.4330   27.9470   32.8380 C   0  0  0  0  0  0  0  0  0  0  0  0
   35.8570   29.1670   33.1200 C   0  0  0  0  0  0  0  0  0  0  0  0
   35.6950   30.0740   32.1270 C   0  0  0  0  0  0  0  0  0  0  0  0
   36.0970   29.7860   30.8460 C   0  0  0  0  0  0  0  0  0  0  0  0
   36.6760   28.5630   30.5500 C   0  0  0  0  0  0  0  0  0  0  0  0
   36.4490   27.3730   33.7550 H   0  0  0  0  0  0  0  0  0  0  0  0
   35.5000   29.5040   34.0880 H   0  0  0  0  0  0  0  0  0  0  0  0
   35.2410   31.0660   32.2970 H   0  0  0  0  0  0  0  0  0  0  0  0
   35.9450   30.5440   30.0800 H   0  0  0  0  0  0  0  0  0  0  0  0
   36.9840   28.3620   29.2080 N   0  0  0  0  0  0  0  0  0  0  0  0
   36.4820   27.9520   28.3640 H   0  0  0  0  0  0  0  0  0  0  0  0
   38.4350   28.8050   28.3590 S   0  0  0  0  0  0  0  0  0  0  0  0
   39.3950   29.3810   29.3920 O   0  0  0  0  0  1  0  0  0  0  0  0
   39.1130   27.6360   27.7300 O   0  0  0  0  0  1  0  0  0  0  0  0
   38.1640   29.9940   27.2460 O   0  0  0  0  0  0  0  0  0  0  0  0
   37.6160   29.7300   26.4800 H   0  0  0  0  0  0  0  0  0  0  0  0
   38.0970   22.8840   35.1460 C   0  0  0  0  0  0  0  0  0  0  0  0
   38.1280   24.0140   34.3460 C   0  0  0  0  0  0  0  0  0  0  0  0
   38.0910   25.2560   34.9870 C   0  0  0  0  0  0  0  0  0  0  0  0
   38.0250   25.2890   36.3500 N   0  0  0  0  0  0  0  0  0  0  0  0
   37.9960   24.1570   37.0950 C   0  0  0  0  0  0  0  0  0  0  0  0
   38.0330   22.9430   36.4770 N   0  0  0  0  0  0  0  0  0  0  0  0
   38.1350   21.8730   34.8400 H   0  0  0  0  0  0  0  0  0  0  0  0
   38.1120   26.1840   34.4380 H   0  0  0  0  0  0  0  0  0  0  0  0
   37.9440   24.3690   38.1450 H   0  0  0  0  0  0  0  0  0  0  0  0
  1  7  1  6  0  0  0
  1 35  1  0  0  0  0
  2  9  1  0  0  0  0
  2  1  1  0  0  0  0
  3  2  1  0  0  0  0
  3 10  1  0  0  0  0
  4 12  1  6  0  0  0
  4 17  1  0  0  0  0
  4  3  1  0  0  0  0
  4  5  1  0  0  0  0
  5  6  1  0  0  0  0
  5 13  1  0  0  0  0
  6  1  1  0  0  0  0
  6 15  1  0  0  0  0
  8  2  1  0  0  0  0
 11  3  1  0  0  0  0
 14  5  1  0  0  0  0
 16  6  1  0  0  0  0
 17 18  1  0  0  0  0
 18 19  2  0  0  0  0
 18 23  1  0  0  0  0
 19 24  1  0  0  0  0
 20 25  1  0  0  0  0
 20 19  1  0  0  0  0
 21 20  2  0  0  0  0
 22 21  1  0  0  0  0
 22 17  2  0  0  0  0
 26 21  1  0  0  0  0
 27 22  1  0  0  0  0
 28 27  1  0  0  0  0
 29 27  1  0  0  0  0
 29 30  1  0  0  0  0
 31 29  1  0  0  0  0
 32 29  1  0  0  0  0
 33 32  1  0  0  0  0
 34 39  1  0  0  0  0
 35 36  1  0  0  0  0
 35 34  2  0  0  0  0
 36 37  2  0  0  0  0
 37 38  1  0  0  0  0
 38 42  1  0  0  0  0
 39 38  2  0  0  0  0
 40 34  1  0  0  0  0
 41 36  1  0  0  0  0
M  END
>  <minimizedAffinity>
-5.42401886

$$$$

 OpenBabel03272506543D

 42 44  0  0  1  0  0  0  0  0999 V2000
   40.3270   25.9490   34.9320 C   0  0  1  0  0  0  0  0  0  0  0  0
   40.6070   26.1530   33.5310 C   0  0  0  0  0  0  0  0  0  0  0  0
   39.4300   26.0170   32.5850 C   0  0  0  0  0  0  0  0  0  0  0  0
   38.1680   26.5690   33.0230 C   0  0  2  0  0  0  0  0  0  0  0  0
   37.8400   26.4250   34.5110 C   0  0  0  0  0  0  0  0  0  0  0  0
   39.0680   26.6710   35.3450 C   0  0  0  0  0  0  0  0  0  0  0  0
   41.1260   26.4910   35.5350 H   0  0  0  0  0  0  0  0  0  0  0  0
   40.9510   27.2110   33.3850 H   0  0  0  0  0  0  0  0  0  0  0  0
   41.4150   25.5530   33.0900 H   0  0  0  0  0  0  0  0  0  0  0  0
   39.2930   24.8830   32.5970 H   0  0  0  0  0  0  0  0  0  0  0  0
   39.7340   26.3740   31.6020 H   0  0  0  0  0  0  0  0  0  0  0  0
   38.0180   27.6530   32.8580 H   0  0  0  0  0  0  0  0  0  0  0  0
   37.4540   25.4250   34.6810 H   0  0  0  0  0  0  0  0  0  0  0  0
   37.2090   27.2670   34.8120 H   0  0  0  0  0  0  0  0  0  0  0  0
   38.8480   26.3940   36.3950 H   0  0  0  0  0  0  0  0  0  0  0  0
   39.3170   27.7740   35.3670 H   0  0  0  0  0  0  0  0  0  0  0  0
   37.0670   25.8510   32.3190 C   0  0  0  0  0  0  0  0  0  0  0  0
   37.0640   24.4430   32.4030 C   0  0  0  0  0  0  0  0  0  0  0  0
   36.1050   23.7100   31.7390 C   0  0  0  0  0  0  0  0  0  0  0  0
   35.1660   24.3510   31.0030 C   0  0  0  0  0  0  0  0  0  0  0  0
   35.1640   25.7210   30.9130 C   0  0  0  0  0  0  0  0  0  0  0  0
   36.1230   26.4690   31.5760 C   0  0  0  0  0  0  0  0  0  0  0  0
   37.7200   23.7450   32.9070 H   0  0  0  0  0  0  0  0  0  0  0  0
   36.0080   22.6290   31.7340 H   0  0  0  0  0  0  0  0  0  0  0  0
   34.3740   23.8130   30.4520 H   0  0  0  0  0  0  0  0  0  0  0  0
   34.3920   26.1920   30.3090 H   0  0  0  0  0  0  0  0  0  0  0  0
   36.0590   27.8420   31.3580 N   0  0  0  0  0  0  0  0  0  0  0  0
   35.5260   28.6580   31.7850 H   0  0  0  0  0  0  0  0  0  0  0  0
   36.9630   28.7940   30.2170 S   0  0  0  0  0  0  0  0  0  0  0  0
   36.2900   30.1590   30.1490 O   0  0  0  0  0  1  0  0  0  0  0  0
   38.3740   29.0180   30.6450 O   0  0  0  0  0  1  0  0  0  0  0  0
   36.9060   28.1570   28.6950 O   0  0  0  0  0  0  0  0  0  0  0  0
   37.3720   27.3040   28.5830 H   0  0  0  0  0  0  0  0  0  0  0  0
   41.5740   23.8350   35.3990 C   0  0  0  0  0  0  0  0  0  0  0  0
   40.4130   24.5860   35.4770 C   0  0  0  0  0  0  0  0  0  0  0  0
   39.3100   24.0000   36.1060 C   0  0  0  0  0  0  0  0  0  0  0  0
   39.4330   22.7350   36.6020 N   0  0  0  0  0  0  0  0  0  0  0  0
   40.5890   22.0350   36.5030 C   0  0  0  0  0  0  0  0  0  0  0  0
   41.6690   22.5990   35.8930 N   0  0  0  0  0  0  0  0  0  0  0  0
   42.5020   24.1190   34.9800 H   0  0  0  0  0  0  0  0  0  0  0  0
   38.3690   24.5170   36.2090 H   0  0  0  0  0  0  0  0  0  0  0  0
   40.5080   21.0600   36.9450 H   0  0  0  0  0  0  0  0  0  0  0  0
  1  6  1  0  0  0  0
  1 35  1  0  0  0  0
  1  7  1  1  0  0  0
  2  1  1  0  0  0  0
  3 10  1  0  0  0  0
  3  4  1  0  0  0  0
  3  2  1  0  0  0  0
  4 12  1  6  0  0  0
  4  5  1  0  0  0  0
  5 13  1  0  0  0  0
  5 14  1  0  0  0  0
  5  6  1  0  0  0  0
  6 16  1  0  0  0  0
  6 15  1  0  0  0  0
  8  2  1  0  0  0  0
  9  2  1  0  0  0  0
 11  3  1  0  0  0  0
 17 18  1  0  0  0  0
 17  4  1  0  0  0  0
 18 23  1  0  0  0  0
 19 18  2  0  0  0  0
 20 19  1  0  0  0  0
 21 20  2  0  0  0  0
 21 22  1  0  0  0  0
 22 17  2  0  0  0  0
 24 19  1  0  0  0  0
 25 20  1  0  0  0  0
 26 21  1  0  0  0  0
 27 22  1  0  0  0  0
 27 28  1  0  0  0  0
 29 31  1  0  0  0  0
 29 27  1  0  0  0  0
 30 29  1  0  0  0  0
 32 29  1  0  0  0  0
 33 32  1  0  0  0  0
 34 35  2  0  0  0  0
 34 39  1  0  0  0  0
 35 36  1  0  0  0  0
 36 41  1  0  0  0  0
 36 37  2  0  0  0  0
 38 37  1  0  0  0  0
 38 42  1  0  0  0  0
 39 38  2  0  0  0  0
 40 34  1  0  0  0  0
M  END
>  <minimizedAffinity>
-5.38350153

$$$$

 OpenBabel03272506543D

 42 44  0  0  1  0  0  0  0  0999 V2000
   39.5410   23.7740   34.3840 C   0  0  1  0  0  0  0  0  0  0  0  0
   38.5060   23.5760   33.3990 C   0  0  0  0  0  0  0  0  0  0  0  0
   37.7300   24.8100   32.9820 C   0  0  0  0  0  0  0  0  0  0  0  0
   38.4830   26.0320   32.8110 C   0  0  2  0  0  0  0  0  0  0  0  0
   39.6280   26.2720   33.7990 C   0  0  0  0  0  0  0  0  0  0  0  0
   40.3730   24.9920   34.0590 C   0  0  0  0  0  0  0  0  0  0  0  0
   40.2980   22.9300   34.2770 H   0  0  0  0  0  0  0  0  0  0  0  0
   38.9810   23.2210   32.4460 H   0  0  0  0  0  0  0  0  0  0  0  0
   37.7510   22.8080   33.6150 H   0  0  0  0  0  0  0  0  0  0  0  0
   37.0890   24.9690   33.9150 H   0  0  0  0  0  0  0  0  0  0  0  0
   37.1210   24.5590   32.1160 H   0  0  0  0  0  0  0  0  0  0  0  0
   38.9870   26.1710   31.8360 H   0  0  0  0  0  0  0  0  0  0  0  0
   39.2080   26.6670   34.7190 H   0  0  0  0  0  0  0  0  0  0  0  0
   40.3990   26.8680   33.3010 H   0  0  0  0  0  0  0  0  0  0  0  0
   41.0770   25.1540   34.8990 H   0  0  0  0  0  0  0  0  0  0  0  0
   41.0160   24.7210   33.1700 H   0  0  0  0  0  0  0  0  0  0  0  0
   37.5600   27.1880   33.0080 C   0  0  0  0  0  0  0  0  0  0  0  0
   37.1660   27.4740   34.3310 C   0  0  0  0  0  0  0  0  0  0  0  0
   36.2780   28.4970   34.5850 C   0  0  0  0  0  0  0  0  0  0  0  0
   35.7860   29.2250   33.5540 C   0  0  0  0  0  0  0  0  0  0  0  0
   36.1640   28.9510   32.2630 C   0  0  0  0  0  0  0  0  0  0  0  0
   37.0550   27.9240   31.9950 C   0  0  0  0  0  0  0  0  0  0  0  0
   37.4150   27.0130   35.2780 H   0  0  0  0  0  0  0  0  0  0  0  0
   35.9080   28.8030   35.5580 H   0  0  0  0  0  0  0  0  0  0  0  0
   35.0740   30.0560   33.7010 H   0  0  0  0  0  0  0  0  0  0  0  0
   35.7420   29.5610   31.4670 H   0  0  0  0  0  0  0  0  0  0  0  0
   37.3120   27.6990   30.6460 N   0  0  0  0  0  0  0  0  0  0  0  0
   36.8270   27.1820   29.8530 H   0  0  0  0  0  0  0  0  0  0  0  0
   38.6370   28.2950   29.6890 S   0  0  0  0  0  0  0  0  0  0  0  0
   38.4550   29.8020   29.5700 O   0  0  0  0  0  1  0  0  0  0  0  0
   39.9620   28.0590   30.3320 O   0  0  0  0  0  1  0  0  0  0  0  0
   38.6140   27.6880   28.1540 O   0  0  0  0  0  0  0  0  0  0  0  0
   38.7950   26.7300   28.0820 H   0  0  0  0  0  0  0  0  0  0  0  0
   38.0320   24.2500   36.3160 C   0  0  0  0  0  0  0  0  0  0  0  0
   39.1880   23.6830   35.8070 C   0  0  0  0  0  0  0  0  0  0  0  0
   40.0200   23.0050   36.7050 C   0  0  0  0  0  0  0  0  0  0  0  0
   39.6530   22.9410   38.0180 N   0  0  0  0  0  0  0  0  0  0  0  0
   38.5110   23.5110   38.4740 C   0  0  0  0  0  0  0  0  0  0  0  0
   37.6950   24.1730   37.6050 N   0  0  0  0  0  0  0  0  0  0  0  0
   37.2840   24.7790   35.7880 H   0  0  0  0  0  0  0  0  0  0  0  0
   40.9380   22.5350   36.3920 H   0  0  0  0  0  0  0  0  0  0  0  0
   38.3810   23.3640   39.5280 H   0  0  0  0  0  0  0  0  0  0  0  0
  1  7  1  6  0  0  0
  1 35  1  0  0  0  0
  2  9  1  0  0  0  0
  2  1  1  0  0  0  0
  3  2  1  0  0  0  0
  3 10  1  0  0  0  0
  4 12  1  6  0  0  0
  4  3  1  0  0  0  0
  4 17  1  0  0  0  0
  4  5  1  0  0  0  0
  5  6  1  0  0  0  0
  5 13  1  0  0  0  0
  6  1  1  0  0  0  0
  6 15  1  0  0  0  0
  8  2  1  0  0  0  0
 11  3  1  0  0  0  0
 14  5  1  0  0  0  0
 16  6  1  0  0  0  0
 17 18  1  0  0  0  0
 18 19  2  0  0  0  0
 18 23  1  0  0  0  0
 19 24  1  0  0  0  0
 20 25  1  0  0  0  0
 20 19  1  0  0  0  0
 21 20  2  0  0  0  0
 22 21  1  0  0  0  0
 22 17  2  0  0  0  0
 26 21  1  0  0  0  0
 27 22  1  0  0  0  0
 28 27  1  0  0  0  0
 29 31  1  0  0  0  0
 29 27  1  0  0  0  0
 30 29  1  0  0  0  0
 32 29  1  0  0  0  0
 33 32  1  0  0  0  0
 34 39  1  0  0  0  0
 35 34  2  0  0  0  0
 35 36  1  0  0  0  0
 36 37  2  0  0  0  0
 37 38  1  0  0  0  0
 38 42  1  0  0  0  0
 39 38  2  0  0  0  0
 40 34  1  0  0  0  0
 41 36  1  0  0  0  0
M  END
>  <minimizedAffinity>
-5.37459803

$$$$

 OpenBabel03272506543D

 42 44  0  0  1  0  0  0  0  0999 V2000
   37.1380   27.8200   32.3450 C   0  0  1  0  0  0  0  0  0  0  0  0
   36.8110   28.9780   31.5470 C   0  0  0  0  0  0  0  0  0  0  0  0
   35.5680   29.7450   31.9550 C   0  0  0  0  0  0  0  0  0  0  0  0
   35.3400   29.9180   33.3720 C   0  0  2  0  0  0  0  0  0  0  0  0
   35.7140   28.7390   34.2730 C   0  0  0  0  0  0  0  0  0  0  0  0
   37.0090   28.1220   33.8180 C   0  0  0  0  0  0  0  0  0  0  0  0
   38.2540   27.6190   32.2370 H   0  0  0  0  0  0  0  0  0  0  0  0
   37.6390   29.7290   31.6510 H   0  0  0  0  0  0  0  0  0  0  0  0
   36.7280   28.8300   30.4620 H   0  0  0  0  0  0  0  0  0  0  0  0
   34.7600   29.0210   31.5960 H   0  0  0  0  0  0  0  0  0  0  0  0
   35.5430   30.6810   31.4000 H   0  0  0  0  0  0  0  0  0  0  0  0
   35.8680   30.7590   33.8600 H   0  0  0  0  0  0  0  0  0  0  0  0
   34.9090   28.0120   34.2380 H   0  0  0  0  0  0  0  0  0  0  0  0
   36.0000   29.1280   35.2550 H   0  0  0  0  0  0  0  0  0  0  0  0
   37.1670   27.1760   34.3720 H   0  0  0  0  0  0  0  0  0  0  0  0
   37.8810   28.7860   34.0940 H   0  0  0  0  0  0  0  0  0  0  0  0
   33.8780   30.1180   33.5930 C   0  0  0  0  0  0  0  0  0  0  0  0
   33.0120   29.1300   33.0810 C   0  0  0  0  0  0  0  0  0  0  0  0
   31.6460   29.2720   33.2060 C   0  0  0  0  0  0  0  0  0  0  0  0
   31.1420   30.3660   33.8250 C   0  0  0  0  0  0  0  0  0  0  0  0
   31.9800   31.3330   34.3240 C   0  0  0  0  0  0  0  0  0  0  0  0
   33.3540   31.2030   34.2030 C   0  0  0  0  0  0  0  0  0  0  0  0
   33.1980   28.2090   32.5450 H   0  0  0  0  0  0  0  0  0  0  0  0
   30.8910   28.5780   32.8510 H   0  0  0  0  0  0  0  0  0  0  0  0
   30.0580   30.5290   33.9540 H   0  0  0  0  0  0  0  0  0  0  0  0
   31.5300   32.1960   34.8110 H   0  0  0  0  0  0  0  0  0  0  0  0
   34.0950   32.2760   34.6890 N   0  0  0  0  0  0  0  0  0  0  0  0
   34.3850   33.2310   34.3220 H   0  0  0  0  0  0  0  0  0  0  0  0
   34.8420   32.4480   36.2510 S   0  0  0  0  0  0  0  0  0  0  0  0
   36.1250   31.6290   36.2200 O   0  0  0  0  0  1  0  0  0  0  0  0
   35.2230   33.8570   36.5540 O   0  0  0  0  0  1  0  0  0  0  0  0
   33.9050   31.8210   37.4570 O   0  0  0  0  0  0  0  0  0  0  0  0
   33.0730   32.3060   37.6330 H   0  0  0  0  0  0  0  0  0  0  0  0
   35.4910   26.4150   31.1000 C   0  0  0  0  0  0  0  0  0  0  0  0
   36.5620   26.5210   31.9720 C   0  0  0  0  0  0  0  0  0  0  0  0
   37.0880   25.3330   32.4910 C   0  0  0  0  0  0  0  0  0  0  0  0
   36.5250   24.1480   32.1160 N   0  0  0  0  0  0  0  0  0  0  0  0
   35.4760   24.0900   31.2590 C   0  0  0  0  0  0  0  0  0  0  0  0
   34.9580   25.2430   30.7480 N   0  0  0  0  0  0  0  0  0  0  0  0
   34.9820   27.1960   30.6020 H   0  0  0  0  0  0  0  0  0  0  0  0
   37.9200   25.3270   33.1750 H   0  0  0  0  0  0  0  0  0  0  0  0
   35.1620   23.0810   31.0760 H   0  0  0  0  0  0  0  0  0  0  0  0
  1  7  1  6  0  0  0
  1  6  1  0  0  0  0
  2  8  1  0  0  0  0
  2  3  1  0  0  0  0
  2  1  1  0  0  0  0
  3  4  1  0  0  0  0
  4 17  1  0  0  0  0
  4 12  1  1  0  0  0
  4  5  1  0  0  0  0
  5 14  1  0  0  0  0
  6 16  1  0  0  0  0
  6  5  1  0  0  0  0
  6 15  1  0  0  0  0
  9  2  1  0  0  0  0
 10  3  1  0  0  0  0
 11  3  1  0  0  0  0
 13  5  1  0  0  0  0
 17 22  1  0  0  0  0
 18 19  1  0  0  0  0
 18 17  2  0  0  0  0
 19 20  2  0  0  0  0
 20 25  1  0  0  0  0
 20 21  1  0  0  0  0
 21 26  1  0  0  0  0
 22 21  2  0  0  0  0
 22 27  1  0  0  0  0
 23 18  1  0  0  0  0
 24 19  1  0  0  0  0
 27 29  1  0  0  0  0
 28 27  1  0  0  0  0
 29 31  1  0  0  0  0
 29 32  1  0  0  0  0
 30 29  1  0  0  0  0
 32 33  1  0  0  0  0
 34 35  1  0  0  0  0
 35  1  1  0  0  0  0
 35 36  2  0  0  0  0
 36 41  1  0  0  0  0
 37 36  1  0  0  0  0
 38 37  2  0  0  0  0
 39 34  2  0  0  0  0
 39 38  1  0  0  0  0
 40 34  1  0  0  0  0
 42 38  1  0  0  0  0
M  END
>  <minimizedAffinity>
-5.35848522

$$$$

 OpenBabel03272506543D

 42 44  0  0  1  0  0  0  0  0999 V2000
   35.1510   30.4710   33.5420 C   0  0  1  0  0  0  0  0  0  0  0  0
   35.8200   29.6620   34.5320 C   0  0  0  0  0  0  0  0  0  0  0  0
   36.3000   28.2990   34.0730 C   0  0  0  0  0  0  0  0  0  0  0  0
   36.8810   28.2190   32.7520 C   0  0  2  0  0  0  0  0  0  0  0  0
   36.2420   29.0940   31.6710 C   0  0  0  0  0  0  0  0  0  0  0  0
   35.8940   30.4470   32.2280 C   0  0  0  0  0  0  0  0  0  0  0  0
   35.2460   31.5630   33.8530 H   0  0  0  0  0  0  0  0  0  0  0  0
   36.7610   30.1880   34.8470 H   0  0  0  0  0  0  0  0  0  0  0  0
   35.2890   29.4880   35.4780 H   0  0  0  0  0  0  0  0  0  0  0  0
   35.3020   27.7470   34.0070 H   0  0  0  0  0  0  0  0  0  0  0  0
   36.9400   27.8800   34.8470 H   0  0  0  0  0  0  0  0  0  0  0  0
   37.9500   28.4880   32.6630 H   0  0  0  0  0  0  0  0  0  0  0  0
   35.3530   28.5900   31.3040 H   0  0  0  0  0  0  0  0  0  0  0  0
   37.0090   29.3590   30.9370 H   0  0  0  0  0  0  0  0  0  0  0  0
   35.2830   30.9940   31.4840 H   0  0  0  0  0  0  0  0  0  0  0  0
   36.8280   31.0680   32.3700 H   0  0  0  0  0  0  0  0  0  0  0  0
   36.7270   26.8210   32.2520 C   0  0  0  0  0  0  0  0  0  0  0  0
   35.5460   26.5220   31.5420 C   0  0  0  0  0  0  0  0  0  0  0  0
   35.3140   25.2400   31.0910 C   0  0  0  0  0  0  0  0  0  0  0  0
   36.2270   24.2710   31.3350 C   0  0  0  0  0  0  0  0  0  0  0  0
   37.3780   24.5540   32.0290 C   0  0  0  0  0  0  0  0  0  0  0  0
   37.6220   25.8380   32.4880 C   0  0  0  0  0  0  0  0  0  0  0  0
   34.6950   27.1280   31.2610 H   0  0  0  0  0  0  0  0  0  0  0  0
   34.4450   24.8990   30.5370 H   0  0  0  0  0  0  0  0  0  0  0  0
   36.0920   23.2290   30.9960 H   0  0  0  0  0  0  0  0  0  0  0  0
   38.0820   23.7430   32.2040 H   0  0  0  0  0  0  0  0  0  0  0  0
   38.7880   25.9890   33.2320 N   0  0  0  0  0  0  0  0  0  0  0  0
   39.8000   26.2410   33.0220 H   0  0  0  0  0  0  0  0  0  0  0  0
   38.9930   25.8450   34.9540 S   0  0  0  0  0  0  0  0  0  0  0  0
   37.6550   25.3900   35.5210 O   0  0  0  0  0  1  0  0  0  0  0  0
   40.0050   24.8170   35.3290 O   0  0  0  0  0  1  0  0  0  0  0  0
   39.3410   27.2960   35.6600 O   0  0  0  0  0  0  0  0  0  0  0  0
   40.2170   27.6690   35.4350 H   0  0  0  0  0  0  0  0  0  0  0  0
   32.9270   29.5990   34.2710 C   0  0  0  0  0  0  0  0  0  0  0  0
   33.6970   30.3300   33.3820 C   0  0  0  0  0  0  0  0  0  0  0  0
   33.0360   30.9440   32.3130 C   0  0  0  0  0  0  0  0  0  0  0  0
   31.6840   30.7910   32.2030 N   0  0  0  0  0  0  0  0  0  0  0  0
   30.9680   30.0660   33.0970 C   0  0  0  0  0  0  0  0  0  0  0  0
   31.6050   29.4650   34.1420 N   0  0  0  0  0  0  0  0  0  0  0  0
   33.2490   29.0870   35.1370 H   0  0  0  0  0  0  0  0  0  0  0  0
   33.5600   31.5310   31.5770 H   0  0  0  0  0  0  0  0  0  0  0  0
   29.9230   30.0510   32.8580 H   0  0  0  0  0  0  0  0  0  0  0  0
  1  7  1  1  0  0  0
  1  2  1  0  0  0  0
  2  8  1  0  0  0  0
  2  9  1  0  0  0  0
  3  2  1  0  0  0  0
  3 11  1  0  0  0  0
  4 12  1  1  0  0  0
  4  3  1  0  0  0  0
  5  6  1  0  0  0  0
  5  4  1  0  0  0  0
  6 16  1  0  0  0  0
  6  1  1  0  0  0  0
 10  3  1  0  0  0  0
 13  5  1  0  0  0  0
 14  5  1  0  0  0  0
 15  6  1  0  0  0  0
 17 22  1  0  0  0  0
 17  4  1  0  0  0  0
 18 17  2  0  0  0  0
 19 20  2  0  0  0  0
 19 18  1  0  0  0  0
 20 21  1  0  0  0  0
 21 26  1  0  0  0  0
 21 22  2  0  0  0  0
 22 27  1  0  0  0  0
 23 18  1  0  0  0  0
 24 19  1  0  0  0  0
 25 20  1  0  0  0  0
 27 29  1  0  0  0  0
 28 27  1  0  0  0  0
 29 31  1  0  0  0  0
 29 30  1  0  0  0  0
 29 32  1  0  0  0  0
 33 32  1  0  0  0  0
 34 40  1  0  0  0  0
 35  1  1  0  0  0  0
 35 34  2  0  0  0  0
 36 35  1  0  0  0  0
 37 36  2  0  0  0  0
 37 38  1  0  0  0  0
 38 39  2  0  0  0  0
 39 34  1  0  0  0  0
 41 36  1  0  0  0  0
 42 38  1  0  0  0  0
M  END
>  <minimizedAffinity>
-5.2591958

$$$$
