REMARK  Name = 
REMARK  6 active torsions:
REMARK  status: ('A' for Active; 'I' for Inactive)
REMARK    1  A    between atoms: C_2  and  C_12
REMARK    2  A    between atoms: C_6  and  O_16
REMARK    3  A    between atoms: O_16  and  C_18
REMARK    4  A    between atoms: C_22  and  N_37
REMARK    5  A    between atoms: N_37  and  S_39
REMARK    6  A    between atoms: S_39  and  O_42
REMARK                            x       y       z     vdW  Elec       q    Type
REMARK                         _______ _______ _______ _____ _____    ______ ____
ROOT
ATOM      1  C   UNL     1      36.238  30.186  46.860  0.00  0.00    +0.000 A 
ATOM      2  C   UNL     1      37.084  30.758  47.808  0.00  0.00    +0.000 A 
ATOM      3  C   UNL     1      38.064  31.670  47.440  0.00  0.00    +0.000 A 
ATOM      4  C   UNL     1      38.155  31.977  46.087  0.00  0.00    +0.000 A 
ATOM      5  N   UNL     1      39.026  32.838  45.481  0.00  0.00    +0.000 N 
ATOM      6  C   UNL     1      38.733  32.808  44.169  0.00  0.00    +0.000 A 
ATOM      7  N   UNL     1      37.735  31.978  43.949  0.00  0.00    +0.000 NA
ATOM      8  C   UNL     1      37.343  31.438  45.116  0.00  0.00    +0.000 A 
ATOM      9  C   UNL     1      36.356  30.516  45.513  0.00  0.00    +0.000 A 
ATOM     10  H   UNL     1      35.462  29.472  47.105  0.00  0.00    +0.000 HD
ATOM     11  H   UNL     1      38.710  32.106  48.166  0.00  0.00    +0.000 HD
ATOM     12  H   UNL     1      39.756  33.391  45.958  0.00  0.00    +0.000 HD
ATOM     13  H   UNL     1      35.718  30.091  44.754  0.00  0.00    +0.000 HD
ENDROOT
BRANCH   2  16
ATOM     14  C   UNL     1      37.517  30.143  51.490  0.00  0.00    +0.000 A 
ATOM     15  C   UNL     1      37.805  30.574  50.203  0.00  0.00    +0.000 A 
ATOM     16  C   UNL     1      36.887  30.353  49.182  0.00  0.00    +0.000 A 
ATOM     17  N   UNL     1      35.735  29.712  49.517  0.00  0.00    +0.000 NA
ATOM     18  C   UNL     1      35.454  29.293  50.765  0.00  0.00    +0.000 A 
ATOM     19  N   UNL     1      36.332  29.507  51.729  0.00  0.00    +0.000 NA
ATOM     20  H   UNL     1      38.272  30.346  52.236  0.00  0.00    +0.000 HD
ATOM     21  H   UNL     1      38.727  31.088  49.934  0.00  0.00    +0.000 HD
ATOM     22  H   UNL     1      34.518  28.787  50.970  0.00  0.00    +0.000 HD
ENDBRANCH   2  16
BRANCH   6  23
ATOM     23  O   UNL     1      39.429  33.575  43.233  0.00  0.00    +0.000 OA
BRANCH  23  25
ATOM     24  N   UNL     1      39.578  31.870  41.712  0.00  0.00    +0.000 NA
ATOM     25  C   UNL     1      39.203  33.248  41.874  0.00  0.00    +0.000 C 
ATOM     26  C   UNL     1      37.806  33.447  41.512  0.00  0.00    +0.000 C 
ATOM     27  O   UNL     1      37.640  33.121  40.154  0.00  0.00    +0.000 OA
ATOM     28  C   UNL     1      38.065  31.879  39.790  0.00  0.00    +0.000 C 
ATOM     29  C   UNL     1      39.441  31.547  40.325  0.00  0.00    +0.000 C 
ATOM     30  H   UNL     1      39.332  31.188  42.381  0.00  0.00    +0.000 HD
ATOM     31  H   UNL     1      39.861  33.885  41.269  0.00  0.00    +0.000 HD
ATOM     32  H   UNL     1      37.620  34.564  41.526  0.00  0.00    +0.000 HD
ATOM     33  H   UNL     1      36.978  32.999  41.987  0.00  0.00    +0.000 HD
ATOM     34  H   UNL     1      38.132  31.837  38.704  0.00  0.00    +0.000 HD
ATOM     35  H   UNL     1      37.374  31.083  40.163  0.00  0.00    +0.000 HD
ATOM     36  H   UNL     1      39.567  30.435  40.182  0.00  0.00    +0.000 HD
BRANCH  29  37
ATOM     37  N   UNL     1      40.423  32.167  39.488  0.00  0.00    +0.000 NA
ATOM     38  H   UNL     1      41.319  32.313  40.030  0.00  0.00    +0.000 HD
BRANCH  37  39
ATOM     39  S   UNL     1      40.770  31.211  38.094  0.00  0.00    +0.000 S 
ATOM     40  O   UNL     1      39.504  31.047  37.298  0.00  0.00    +0.000 OA
ATOM     41  O   UNL     1      41.303  29.860  38.420  0.00  0.00    +0.000 OA
BRANCH  39  42
ATOM     42  O   UNL     1      41.868  32.053  37.128  0.00  0.00    +0.000 OA
ATOM     43  H   UNL     1      42.494  32.582  37.685  0.00  0.00    +0.000 HD
ENDBRANCH  39  42
ENDBRANCH  37  39
ENDBRANCH  29  37
ENDBRANCH  23  25
ENDBRANCH   6  23
TORSDOF 6
