
 OpenBabel03262523273D

 38 40  0  0  1  0  0  0  0  0999 V2000
   38.2560   23.0100   36.8950 C   0  0  0  0  0  0  0  0  0  0  0  0
   39.6380   22.9720   36.7070 C   0  0  0  0  0  0  0  0  0  0  0  0
   40.1110   22.4610   35.5180 C   0  0  0  0  0  0  0  0  0  0  0  0
   39.1980   22.0300   34.6090 N   0  0  0  0  0  0  0  0  0  0  0  0
   37.8700   22.0750   34.8090 C   0  0  0  0  0  0  0  0  0  0  0  0
   37.4000   22.5640   35.9470 N   0  0  0  0  0  0  0  0  0  0  0  0
   36.9770   21.5880   33.7760 N   0  0  0  0  0  0  0  0  0  0  0  0
   35.8600   20.7560   34.1370 C   0  0  0  0  0  0  0  0  0  0  0  0
   35.4850   19.7800   33.0490 C   0  0  0  0  0  0  0  0  0  0  0  0
   36.6850   19.5920   32.1560 C   0  0  0  0  0  0  0  0  0  0  0  0
   36.8520   20.8980   31.4140 C   0  0  0  0  0  0  0  0  0  0  0  0
   37.2460   21.9550   32.3830 C   0  0  1  0  0  0  0  0  0  0  0  0
   37.8970   23.4170   37.8410 H   0  0  0  0  0  0  0  0  0  0  0  0
   40.3690   23.3100   37.4210 H   0  0  0  0  0  0  0  0  0  0  0  0
   41.1680   22.3650   35.2260 H   0  0  0  0  0  0  0  0  0  0  0  0
   34.9850   21.2950   34.5250 H   0  0  0  0  0  0  0  0  0  0  0  0
   36.2210   20.1230   34.9990 H   0  0  0  0  0  0  0  0  0  0  0  0
   34.6870   20.2760   32.4510 H   0  0  0  0  0  0  0  0  0  0  0  0
   35.0800   18.8340   33.4470 H   0  0  0  0  0  0  0  0  0  0  0  0
   36.4920   18.7880   31.4060 H   0  0  0  0  0  0  0  0  0  0  0  0
   37.5450   19.3630   32.7960 H   0  0  0  0  0  0  0  0  0  0  0  0
   35.8890   21.0370   30.8990 H   0  0  0  0  0  0  0  0  0  0  0  0
   37.6530   20.7120   30.6570 H   0  0  0  0  0  0  0  0  0  0  0  0
   38.3670   22.0630   32.3570 H   0  0  0  0  0  0  0  0  0  0  0  0
   36.7000   23.2770   32.0550 C   0  0  0  0  0  0  0  0  0  0  0  0
   35.5530   23.5740   31.3080 C   0  0  0  0  0  0  0  0  0  0  0  0
   35.2200   24.8750   31.1340 C   0  0  0  0  0  0  0  0  0  0  0  0
   36.0560   25.8830   31.7240 C   0  0  0  0  0  0  0  0  0  0  0  0
   37.3610   24.7980   32.5480 S   0  0  0  0  0  0  0  0  0  0  0  0
   34.8930   22.8490   30.8450 H   0  0  0  0  0  0  0  0  0  0  0  0
   34.4340   25.3590   30.6330 H   0  0  0  0  0  0  0  0  0  0  0  0
   36.1450   27.2470   31.8330 N   0  0  0  0  0  0  0  0  0  0  0  0
   35.6230   27.7760   32.5510 H   0  0  0  0  0  0  0  0  0  0  0  0
   37.0830   28.2530   30.8510 S   0  0  0  0  0  0  0  0  0  0  0  0
   38.5350   27.9510   31.0760 O   0  0  0  0  0  1  0  0  0  0  0  0
   36.8940   29.7150   31.1560 O   0  0  0  0  0  1  0  0  0  0  0  0
   36.7840   28.0250   29.2090 O   0  0  0  0  0  0  0  0  0  0  0  0
   35.8580   27.7350   29.0710 H   0  0  0  0  0  0  0  0  0  0  0  0
  1 13  1  0  0  0  0
  2  1  1  0  0  0  0
  2 14  1  0  0  0  0
  3  2  2  0  0  0  0
  4  5  2  0  0  0  0
  4  3  1  0  0  0  0
  5  6  1  0  0  0  0
  6  1  2  0  0  0  0
  7  8  1  0  0  0  0
  7  5  1  0  0  0  0
  8 16  1  0  0  0  0
  8 17  1  0  0  0  0
  9 19  1  0  0  0  0
  9  8  1  0  0  0  0
 10 21  1  0  0  0  0
 10  9  1  0  0  0  0
 11 10  1  0  0  0  0
 11 12  1  0  0  0  0
 12 24  1  6  0  0  0
 12  7  1  0  0  0  0
 15  3  1  0  0  0  0
 18  9  1  0  0  0  0
 20 10  1  0  0  0  0
 22 11  1  0  0  0  0
 23 11  1  0  0  0  0
 25 12  1  0  0  0  0
 25 29  1  0  0  0  0
 26 25  2  0  0  0  0
 27 26  1  0  0  0  0
 27 28  2  0  0  0  0
 28 32  1  0  0  0  0
 28 29  1  0  0  0  0
 30 26  1  0  0  0  0
 31 27  1  0  0  0  0
 32 33  1  0  0  0  0
 34 35  1  0  0  0  0
 34 36  1  0  0  0  0
 34 32  1  0  0  0  0
 37 34  1  0  0  0  0
 38 37  1  0  0  0  0
M  END
>  <minimizedAffinity>
-5.84579992

$$$$

 OpenBabel03262523273D

 38 40  0  0  1  0  0  0  0  0999 V2000
   37.4810   28.7830   28.9820 C   0  0  0  0  0  0  0  0  0  0  0  0
   38.8010   28.6130   28.5610 C   0  0  0  0  0  0  0  0  0  0  0  0
   39.6700   27.9700   29.4160 C   0  0  0  0  0  0  0  0  0  0  0  0
   39.1820   27.5450   30.6090 N   0  0  0  0  0  0  0  0  0  0  0  0
   37.9060   27.7190   30.9960 C   0  0  0  0  0  0  0  0  0  0  0  0
   37.0590   28.3340   30.1850 N   0  0  0  0  0  0  0  0  0  0  0  0
   37.4830   27.2290   32.2940 N   0  0  0  0  0  0  0  0  0  0  0  0
   36.6600   28.0600   33.1330 C   0  0  0  0  0  0  0  0  0  0  0  0
   36.8870   27.8080   34.6040 C   0  0  0  0  0  0  0  0  0  0  0  0
   38.2470   27.1790   34.7650 C   0  0  0  0  0  0  0  0  0  0  0  0
   38.1260   25.7880   34.1860 C   0  0  0  0  0  0  0  0  0  0  0  0
   37.9150   25.8950   32.7180 C   0  0  1  0  0  0  0  0  0  0  0  0
   36.8060   29.2940   28.2950 H   0  0  0  0  0  0  0  0  0  0  0  0
   39.1980   28.9460   27.6180 H   0  0  0  0  0  0  0  0  0  0  0  0
   40.7350   27.7630   29.2260 H   0  0  0  0  0  0  0  0  0  0  0  0
   35.5920   28.0650   32.8760 H   0  0  0  0  0  0  0  0  0  0  0  0
   37.0110   29.1160   32.9490 H   0  0  0  0  0  0  0  0  0  0  0  0
   36.1230   27.0580   34.9090 H   0  0  0  0  0  0  0  0  0  0  0  0
   36.7450   28.7140   35.2160 H   0  0  0  0  0  0  0  0  0  0  0  0
   38.5080   27.0830   35.8460 H   0  0  0  0  0  0  0  0  0  0  0  0
   38.9690   27.7960   34.2180 H   0  0  0  0  0  0  0  0  0  0  0  0
   37.3120   25.3270   34.7680 H   0  0  0  0  0  0  0  0  0  0  0  0
   39.0900   25.2780   34.4300 H   0  0  0  0  0  0  0  0  0  0  0  0
   38.9100   25.7710   32.2050 H   0  0  0  0  0  0  0  0  0  0  0  0
   37.0450   24.8440   32.1770 C   0  0  0  0  0  0  0  0  0  0  0  0
   35.7790   24.9910   31.5930 C   0  0  0  0  0  0  0  0  0  0  0  0
   35.1470   23.8810   31.1450 C   0  0  0  0  0  0  0  0  0  0  0  0
   35.8040   22.6110   31.2880 C   0  0  0  0  0  0  0  0  0  0  0  0
   37.4060   23.1540   32.1230 S   0  0  0  0  0  0  0  0  0  0  0  0
   35.2460   25.9270   31.4630 H   0  0  0  0  0  0  0  0  0  0  0  0
   34.2200   23.7150   30.6800 H   0  0  0  0  0  0  0  0  0  0  0  0
   35.6020   21.2840   31.0140 N   0  0  0  0  0  0  0  0  0  0  0  0
   35.4470   20.9380   30.0530 H   0  0  0  0  0  0  0  0  0  0  0  0
   35.5700   20.0370   32.1550 S   0  0  0  0  0  0  0  0  0  0  0  0
   35.2860   20.6120   33.5100 O   0  0  0  0  0  1  0  0  0  0  0  0
   36.8820   19.3060   32.2630 O   0  0  0  0  0  1  0  0  0  0  0  0
   34.3690   18.8980   31.8430 O   0  0  0  0  0  0  0  0  0  0  0  0
   34.1960   18.8440   30.8800 H   0  0  0  0  0  0  0  0  0  0  0  0
  1  6  1  0  0  0  0
  2  1  2  0  0  0  0
  2  3  1  0  0  0  0
  3  4  2  0  0  0  0
  4  5  1  0  0  0  0
  5  7  1  0  0  0  0
  6  5  2  0  0  0  0
  7 12  1  0  0  0  0
  7  8  1  0  0  0  0
  8  9  1  0  0  0  0
  9 10  1  0  0  0  0
  9 18  1  0  0  0  0
  9 19  1  0  0  0  0
 10 20  1  0  0  0  0
 11 23  1  0  0  0  0
 11 10  1  0  0  0  0
 11 22  1  0  0  0  0
 12 24  1  6  0  0  0
 12 11  1  0  0  0  0
 13  1  1  0  0  0  0
 14  2  1  0  0  0  0
 15  3  1  0  0  0  0
 16  8  1  0  0  0  0
 17  8  1  0  0  0  0
 21 10  1  0  0  0  0
 25 12  1  0  0  0  0
 26 25  2  0  0  0  0
 27 28  2  0  0  0  0
 27 26  1  0  0  0  0
 28 29  1  0  0  0  0
 29 25  1  0  0  0  0
 30 26  1  0  0  0  0
 31 27  1  0  0  0  0
 32 28  1  0  0  0  0
 32 34  1  0  0  0  0
 33 32  1  0  0  0  0
 34 36  1  0  0  0  0
 34 35  1  0  0  0  0
 37 34  1  0  0  0  0
 38 37  1  0  0  0  0
M  END
>  <minimizedAffinity>
-5.5219121

$$$$

 OpenBabel03262523273D

 38 40  0  0  1  0  0  0  0  0999 V2000
   34.5030   29.7960   32.2600 C   0  0  0  0  0  0  0  0  0  0  0  0
   35.1340   30.4810   31.2200 C   0  0  0  0  0  0  0  0  0  0  0  0
   36.4270   30.1230   30.9060 C   0  0  0  0  0  0  0  0  0  0  0  0
   36.9980   29.1250   31.6290 N   0  0  0  0  0  0  0  0  0  0  0  0
   36.3730   28.4770   32.6260 C   0  0  0  0  0  0  0  0  0  0  0  0
   35.1300   28.8100   32.9400 N   0  0  0  0  0  0  0  0  0  0  0  0
   37.0720   27.4250   33.3400 N   0  0  0  0  0  0  0  0  0  0  0  0
   36.9930   27.3680   34.7760 C   0  0  0  0  0  0  0  0  0  0  0  0
   38.2320   26.7760   35.4040 C   0  0  0  0  0  0  0  0  0  0  0  0
   39.3670   26.9190   34.4220 C   0  0  0  0  0  0  0  0  0  0  0  0
   39.0540   25.9630   33.2930 C   0  0  0  0  0  0  0  0  0  0  0  0
   37.8480   26.4490   32.5720 C   0  0  1  0  0  0  0  0  0  0  0  0
   33.4810   30.0910   32.4970 H   0  0  0  0  0  0  0  0  0  0  0  0
   34.6900   31.2730   30.6430 H   0  0  0  0  0  0  0  0  0  0  0  0
   37.0520   30.5690   30.1170 H   0  0  0  0  0  0  0  0  0  0  0  0
   36.0750   26.9170   35.1740 H   0  0  0  0  0  0  0  0  0  0  0  0
   36.9640   28.4430   35.1200 H   0  0  0  0  0  0  0  0  0  0  0  0
   38.0230   25.6900   35.5310 H   0  0  0  0  0  0  0  0  0  0  0  0
   38.4520   27.2040   36.3960 H   0  0  0  0  0  0  0  0  0  0  0  0
   40.3300   26.6010   34.8880 H   0  0  0  0  0  0  0  0  0  0  0  0
   39.3920   27.9630   34.0890 H   0  0  0  0  0  0  0  0  0  0  0  0
   38.9700   24.9830   33.7890 H   0  0  0  0  0  0  0  0  0  0  0  0
   39.9590   25.9690   32.6370 H   0  0  0  0  0  0  0  0  0  0  0  0
   38.1830   27.0380   31.6720 H   0  0  0  0  0  0  0  0  0  0  0  0
   37.0020   25.3650   32.0580 C   0  0  0  0  0  0  0  0  0  0  0  0
   35.7350   25.4690   31.4670 C   0  0  0  0  0  0  0  0  0  0  0  0
   35.1280   24.3330   31.0480 C   0  0  0  0  0  0  0  0  0  0  0  0
   35.8120   23.0820   31.2280 C   0  0  0  0  0  0  0  0  0  0  0  0
   37.3990   23.6830   32.0520 S   0  0  0  0  0  0  0  0  0  0  0  0
   35.1830   26.3890   31.3100 H   0  0  0  0  0  0  0  0  0  0  0  0
   34.2070   24.1350   30.5860 H   0  0  0  0  0  0  0  0  0  0  0  0
   35.6380   21.7440   30.9910 N   0  0  0  0  0  0  0  0  0  0  0  0
   35.4150   21.3770   30.0510 H   0  0  0  0  0  0  0  0  0  0  0  0
   35.7530   20.5170   32.1470 S   0  0  0  0  0  0  0  0  0  0  0  0
   35.2960   21.0420   33.4750 O   0  0  0  0  0  1  0  0  0  0  0  0
   37.1620   20.0210   32.3410 O   0  0  0  0  0  1  0  0  0  0  0  0
   34.7830   19.1870   31.7850 O   0  0  0  0  0  0  0  0  0  0  0  0
   34.6790   19.0990   30.8150 H   0  0  0  0  0  0  0  0  0  0  0  0
  1 13  1  0  0  0  0
  1  6  1  0  0  0  0
  2  1  2  0  0  0  0
  3  2  1  0  0  0  0
  3  4  2  0  0  0  0
  4  5  1  0  0  0  0
  5  6  2  0  0  0  0
  5  7  1  0  0  0  0
  7  8  1  0  0  0  0
  8 17  1  0  0  0  0
  8 16  1  0  0  0  0
  8  9  1  0  0  0  0
  9 18  1  0  0  0  0
  9 19  1  0  0  0  0
 10 20  1  0  0  0  0
 10  9  1  0  0  0  0
 11 22  1  0  0  0  0
 11 10  1  0  0  0  0
 12 24  1  6  0  0  0
 12 11  1  0  0  0  0
 12  7  1  0  0  0  0
 14  2  1  0  0  0  0
 15  3  1  0  0  0  0
 21 10  1  0  0  0  0
 23 11  1  0  0  0  0
 25 12  1  0  0  0  0
 26 25  2  0  0  0  0
 27 28  2  0  0  0  0
 27 26  1  0  0  0  0
 28 29  1  0  0  0  0
 29 25  1  0  0  0  0
 30 26  1  0  0  0  0
 31 27  1  0  0  0  0
 32 28  1  0  0  0  0
 32 34  1  0  0  0  0
 33 32  1  0  0  0  0
 34 36  1  0  0  0  0
 34 35  1  0  0  0  0
 37 34  1  0  0  0  0
 38 37  1  0  0  0  0
M  END
>  <minimizedAffinity>
-5.51874113

$$$$

 OpenBabel03262523273D

 38 40  0  0  1  0  0  0  0  0999 V2000
   38.6750   20.6480   32.3850 C   0  0  0  0  0  0  0  0  0  0  0  0
   37.3140   20.3550   32.2850 C   0  0  0  0  0  0  0  0  0  0  0  0
   36.4680   20.9040   33.2250 C   0  0  0  0  0  0  0  0  0  0  0  0
   37.0180   21.6940   34.1830 N   0  0  0  0  0  0  0  0  0  0  0  0
   38.3320   21.9640   34.2610 C   0  0  0  0  0  0  0  0  0  0  0  0
   39.1580   21.4430   33.3650 N   0  0  0  0  0  0  0  0  0  0  0  0
   38.8210   22.8190   35.3260 N   0  0  0  0  0  0  0  0  0  0  0  0
   40.0100   22.4470   36.0460 C   0  0  0  0  0  0  0  0  0  0  0  0
   40.0030   22.9380   37.4730 C   0  0  0  0  0  0  0  0  0  0  0  0
   38.5720   23.1910   37.8740 C   0  0  0  0  0  0  0  0  0  0  0  0
   38.1340   24.4020   37.0840 C   0  0  0  0  0  0  0  0  0  0  0  0
   38.0800   24.0420   35.6420 C   0  0  1  0  0  0  0  0  0  0  0  0
   39.3310   20.2050   31.6350 H   0  0  0  0  0  0  0  0  0  0  0  0
   36.8690   19.7300   31.5300 H   0  0  0  0  0  0  0  0  0  0  0  0
   35.3770   20.7650   33.2770 H   0  0  0  0  0  0  0  0  0  0  0  0
   40.9540   22.6780   35.5360 H   0  0  0  0  0  0  0  0  0  0  0  0
   39.9820   21.3210   36.1140 H   0  0  0  0  0  0  0  0  0  0  0  0
   40.5350   23.9160   37.4650 H   0  0  0  0  0  0  0  0  0  0  0  0
   40.5390   22.2600   38.1590 H   0  0  0  0  0  0  0  0  0  0  0  0
   38.5080   23.4420   38.9590 H   0  0  0  0  0  0  0  0  0  0  0  0
   37.9910   22.2960   37.6210 H   0  0  0  0  0  0  0  0  0  0  0  0
   38.8560   25.1830   37.3690 H   0  0  0  0  0  0  0  0  0  0  0  0
   37.1240   24.6690   37.4810 H   0  0  0  0  0  0  0  0  0  0  0  0
   37.0180   23.7750   35.3800 H   0  0  0  0  0  0  0  0  0  0  0  0
   38.4530   25.1480   34.7520 C   0  0  0  0  0  0  0  0  0  0  0  0
   39.4680   26.0970   34.9360 C   0  0  0  0  0  0  0  0  0  0  0  0
   39.6520   27.0340   33.9760 C   0  0  0  0  0  0  0  0  0  0  0  0
   38.8010   27.0080   32.8190 C   0  0  0  0  0  0  0  0  0  0  0  0
   37.7150   25.5220   33.2330 S   0  0  0  0  0  0  0  0  0  0  0  0
   40.1330   26.1550   35.7900 H   0  0  0  0  0  0  0  0  0  0  0  0
   40.3210   27.8350   33.8680 H   0  0  0  0  0  0  0  0  0  0  0  0
   38.5960   27.6880   31.6470 N   0  0  0  0  0  0  0  0  0  0  0  0
   39.3490   27.8290   30.9540 H   0  0  0  0  0  0  0  0  0  0  0  0
   37.1370   28.3860   31.1560 S   0  0  0  0  0  0  0  0  0  0  0  0
   37.4170   29.6890   30.4690 O   0  0  0  0  0  1  0  0  0  0  0  0
   36.2160   28.6950   32.3070 O   0  0  0  0  0  1  0  0  0  0  0  0
   36.2910   27.4260   30.0610 O   0  0  0  0  0  0  0  0  0  0  0  0
   36.4870   26.4790   30.2200 H   0  0  0  0  0  0  0  0  0  0  0  0
  1  6  1  0  0  0  0
  2  1  2  0  0  0  0
  2  3  1  0  0  0  0
  3 15  1  0  0  0  0
  3  4  2  0  0  0  0
  4  5  1  0  0  0  0
  5  7  1  0  0  0  0
  6  5  2  0  0  0  0
  7 12  1  0  0  0  0
  7  8  1  0  0  0  0
  8 17  1  0  0  0  0
  8  9  1  0  0  0  0
  9 10  1  0  0  0  0
  9 19  1  0  0  0  0
 10 20  1  0  0  0  0
 11 22  1  0  0  0  0
 11 23  1  0  0  0  0
 11 10  1  0  0  0  0
 12 24  1  6  0  0  0
 12 11  1  0  0  0  0
 13  1  1  0  0  0  0
 14  2  1  0  0  0  0
 16  8  1  0  0  0  0
 18  9  1  0  0  0  0
 21 10  1  0  0  0  0
 25 26  2  0  0  0  0
 25 12  1  0  0  0  0
 26 30  1  0  0  0  0
 27 26  1  0  0  0  0
 28 29  1  0  0  0  0
 28 27  2  0  0  0  0
 29 25  1  0  0  0  0
 31 27  1  0  0  0  0
 32 28  1  0  0  0  0
 33 32  1  0  0  0  0
 34 32  1  0  0  0  0
 34 36  1  0  0  0  0
 35 34  1  0  0  0  0
 37 38  1  0  0  0  0
 37 34  1  0  0  0  0
M  END
>  <minimizedAffinity>
-5.45258284

$$$$

 OpenBabel03262523273D

 38 40  0  0  1  0  0  0  0  0999 V2000
   42.3680   21.9540   35.7850 C   0  0  0  0  0  0  0  0  0  0  0  0
   41.9640   21.4710   37.0310 C   0  0  0  0  0  0  0  0  0  0  0  0
   40.8740   22.0660   37.6280 C   0  0  0  0  0  0  0  0  0  0  0  0
   40.2660   23.0810   36.9620 N   0  0  0  0  0  0  0  0  0  0  0  0
   40.6710   23.5320   35.7620 C   0  0  0  0  0  0  0  0  0  0  0  0
   41.7180   22.9700   35.1750 N   0  0  0  0  0  0  0  0  0  0  0  0
   39.9550   24.6250   35.1340 N   0  0  0  0  0  0  0  0  0  0  0  0
   40.6930   25.6980   34.5200 C   0  0  0  0  0  0  0  0  0  0  0  0
   39.9550   27.0140   34.5690 C   0  0  0  0  0  0  0  0  0  0  0  0
   38.9460   26.9420   35.6870 C   0  0  0  0  0  0  0  0  0  0  0  0
   37.8900   25.9660   35.2220 C   0  0  0  0  0  0  0  0  0  0  0  0
   38.4900   24.6080   35.1490 C   0  0  1  0  0  0  0  0  0  0  0  0
   43.2330   21.4740   35.3260 H   0  0  0  0  0  0  0  0  0  0  0  0
   42.4400   20.6670   37.5660 H   0  0  0  0  0  0  0  0  0  0  0  0
   40.4400   21.7970   38.6030 H   0  0  0  0  0  0  0  0  0  0  0  0
   41.0790   25.4800   33.5150 H   0  0  0  0  0  0  0  0  0  0  0  0
   41.6090   25.8400   35.1620 H   0  0  0  0  0  0  0  0  0  0  0  0
   39.3980   27.0910   33.6080 H   0  0  0  0  0  0  0  0  0  0  0  0
   40.6350   27.8790   34.6440 H   0  0  0  0  0  0  0  0  0  0  0  0
   38.4590   27.9350   35.8370 H   0  0  0  0  0  0  0  0  0  0  0  0
   39.4670   26.5960   36.5860 H   0  0  0  0  0  0  0  0  0  0  0  0
   37.5270   26.3960   34.2760 H   0  0  0  0  0  0  0  0  0  0  0  0
   37.0770   26.0180   35.9880 H   0  0  0  0  0  0  0  0  0  0  0  0
   38.2490   24.0580   36.1020 H   0  0  0  0  0  0  0  0  0  0  0  0
   37.9460   23.7890   34.0580 C   0  0  0  0  0  0  0  0  0  0  0  0
   37.4740   24.2210   32.8110 C   0  0  0  0  0  0  0  0  0  0  0  0
   37.0220   23.2880   31.9390 C   0  0  0  0  0  0  0  0  0  0  0  0
   37.0490   21.9070   32.3350 C   0  0  0  0  0  0  0  0  0  0  0  0
   37.7800   22.0680   34.0660 S   0  0  0  0  0  0  0  0  0  0  0  0
   37.4350   25.2490   32.4700 H   0  0  0  0  0  0  0  0  0  0  0  0
   36.6260   23.3390   30.9680 H   0  0  0  0  0  0  0  0  0  0  0  0
   36.7270   20.6670   31.8500 N   0  0  0  0  0  0  0  0  0  0  0  0
   37.2670   20.2150   31.0930 H   0  0  0  0  0  0  0  0  0  0  0  0
   35.4450   19.7040   32.3840 S   0  0  0  0  0  0  0  0  0  0  0  0
   35.6220   18.3090   31.8610 O   0  0  0  0  0  1  0  0  0  0  0  0
   34.1050   20.1830   31.8930 O   0  0  0  0  0  1  0  0  0  0  0  0
   35.3700   19.5920   34.0640 O   0  0  0  0  0  0  0  0  0  0  0  0
   35.7280   20.4070   34.4730 H   0  0  0  0  0  0  0  0  0  0  0  0
  1  2  1  0  0  0  0
  2 14  1  0  0  0  0
  2  3  2  0  0  0  0
  3 15  1  0  0  0  0
  4  3  1  0  0  0  0
  5  4  2  0  0  0  0
  6  5  1  0  0  0  0
  6  1  2  0  0  0  0
  7 12  1  0  0  0  0
  7  5  1  0  0  0  0
  8  9  1  0  0  0  0
  8  7  1  0  0  0  0
  8 17  1  0  0  0  0
  9 19  1  0  0  0  0
  9 10  1  0  0  0  0
 10 20  1  0  0  0  0
 10 21  1  0  0  0  0
 11 10  1  0  0  0  0
 11 23  1  0  0  0  0
 12 11  1  0  0  0  0
 12 24  1  1  0  0  0
 13  1  1  0  0  0  0
 16  8  1  0  0  0  0
 18  9  1  0  0  0  0
 22 11  1  0  0  0  0
 25 29  1  0  0  0  0
 25 12  1  0  0  0  0
 26 25  2  0  0  0  0
 27 28  2  0  0  0  0
 27 26  1  0  0  0  0
 28 29  1  0  0  0  0
 30 26  1  0  0  0  0
 31 27  1  0  0  0  0
 32 28  1  0  0  0  0
 32 34  1  0  0  0  0
 33 32  1  0  0  0  0
 34 37  1  0  0  0  0
 35 34  1  0  0  0  0
 36 34  1  0  0  0  0
 37 38  1  0  0  0  0
M  END
>  <minimizedAffinity>
-5.42135286

$$$$

 OpenBabel03262523273D

 38 40  0  0  1  0  0  0  0  0999 V2000
   36.0460   22.2640   31.4200 C   0  0  0  0  0  0  0  0  0  0  0  0
   37.0940   21.5320   30.8580 C   0  0  0  0  0  0  0  0  0  0  0  0
   38.2160   22.2220   30.4540 C   0  0  0  0  0  0  0  0  0  0  0  0
   38.2260   23.5680   30.6320 N   0  0  0  0  0  0  0  0  0  0  0  0
   37.2070   24.2550   31.1750 C   0  0  0  0  0  0  0  0  0  0  0  0
   36.1210   23.6060   31.5680 N   0  0  0  0  0  0  0  0  0  0  0  0
   37.3150   25.6940   31.3190 N   0  0  0  0  0  0  0  0  0  0  0  0
   36.1990   26.5300   30.9620 C   0  0  0  0  0  0  0  0  0  0  0  0
   36.6240   27.8920   30.4720 C   0  0  0  0  0  0  0  0  0  0  0  0
   38.0520   27.7920   29.9960 C   0  0  0  0  0  0  0  0  0  0  0  0
   38.8840   27.5920   31.2410 C   0  0  0  0  0  0  0  0  0  0  0  0
   38.5700   26.2590   31.8210 C   0  0  1  0  0  0  0  0  0  0  0  0
   35.1650   21.7040   31.7340 H   0  0  0  0  0  0  0  0  0  0  0  0
   37.0940   20.4650   30.7130 H   0  0  0  0  0  0  0  0  0  0  0  0
   39.1180   21.7860   29.9970 H   0  0  0  0  0  0  0  0  0  0  0  0
   35.4060   26.5940   31.7200 H   0  0  0  0  0  0  0  0  0  0  0  0
   35.7160   26.0260   30.0760 H   0  0  0  0  0  0  0  0  0  0  0  0
   36.6050   28.5600   31.3620 H   0  0  0  0  0  0  0  0  0  0  0  0
   35.9360   28.3050   29.7150 H   0  0  0  0  0  0  0  0  0  0  0  0
   38.3710   28.7470   29.5150 H   0  0  0  0  0  0  0  0  0  0  0  0
   38.1170   26.9400   29.3100 H   0  0  0  0  0  0  0  0  0  0  0  0
   38.6480   28.4680   31.8650 H   0  0  0  0  0  0  0  0  0  0  0  0
   39.9480   27.6550   30.9030 H   0  0  0  0  0  0  0  0  0  0  0  0
   39.3440   25.5220   31.4640 H   0  0  0  0  0  0  0  0  0  0  0  0
   38.6290   26.2330   33.2870 C   0  0  0  0  0  0  0  0  0  0  0  0
   39.2240   27.1720   34.1420 C   0  0  0  0  0  0  0  0  0  0  0  0
   39.1510   26.9590   35.4770 C   0  0  0  0  0  0  0  0  0  0  0  0
   38.4690   25.7860   35.9500 C   0  0  0  0  0  0  0  0  0  0  0  0
   37.9430   25.0180   34.3090 S   0  0  0  0  0  0  0  0  0  0  0  0
   39.7470   28.0690   33.8310 H   0  0  0  0  0  0  0  0  0  0  0  0
   39.5020   27.4890   36.3130 H   0  0  0  0  0  0  0  0  0  0  0  0
   38.1420   25.1600   37.1240 N   0  0  0  0  0  0  0  0  0  0  0  0
   37.7180   25.6680   37.9180 H   0  0  0  0  0  0  0  0  0  0  0  0
   38.3690   23.5200   37.4620 S   0  0  0  0  0  0  0  0  0  0  0  0
   37.1750   22.7470   36.9870 O   0  0  0  0  0  1  0  0  0  0  0  0
   38.5100   23.2360   38.9340 O   0  0  0  0  0  1  0  0  0  0  0  0
   39.7140   22.8730   36.6800 O   0  0  0  0  0  0  0  0  0  0  0  0
   40.3950   23.5660   36.5500 H   0  0  0  0  0  0  0  0  0  0  0  0
  1  6  1  0  0  0  0
  1 13  1  0  0  0  0
  2  1  2  0  0  0  0
  3  4  2  0  0  0  0
  3  2  1  0  0  0  0
  4  5  1  0  0  0  0
  5  7  1  0  0  0  0
  5  6  2  0  0  0  0
  7 12  1  0  0  0  0
  8  7  1  0  0  0  0
  8 16  1  0  0  0  0
  9  8  1  0  0  0  0
  9 18  1  0  0  0  0
 10  9  1  0  0  0  0
 10 11  1  0  0  0  0
 11 12  1  0  0  0  0
 11 22  1  0  0  0  0
 12 24  1  6  0  0  0
 12 25  1  0  0  0  0
 14  2  1  0  0  0  0
 15  3  1  0  0  0  0
 17  8  1  0  0  0  0
 19  9  1  0  0  0  0
 20 10  1  0  0  0  0
 21 10  1  0  0  0  0
 23 11  1  0  0  0  0
 25 26  2  0  0  0  0
 25 29  1  0  0  0  0
 26 27  1  0  0  0  0
 27 28  2  0  0  0  0
 27 31  1  0  0  0  0
 28 32  1  0  0  0  0
 29 28  1  0  0  0  0
 30 26  1  0  0  0  0
 32 34  1  0  0  0  0
 32 33  1  0  0  0  0
 34 36  1  0  0  0  0
 35 34  1  0  0  0  0
 37 34  1  0  0  0  0
 38 37  1  0  0  0  0
M  END
>  <minimizedAffinity>
-5.25014734

$$$$

 OpenBabel03262523273D

 38 40  0  0  1  0  0  0  0  0999 V2000
   32.1380   29.6570   35.4280 C   0  0  0  0  0  0  0  0  0  0  0  0
   31.1400   28.9990   34.7080 C   0  0  0  0  0  0  0  0  0  0  0  0
   31.4160   28.6440   33.4050 C   0  0  0  0  0  0  0  0  0  0  0  0
   32.6410   28.9570   32.9120 N   0  0  0  0  0  0  0  0  0  0  0  0
   33.5900   29.5920   33.6220 C   0  0  0  0  0  0  0  0  0  0  0  0
   33.3400   29.9400   34.8760 N   0  0  0  0  0  0  0  0  0  0  0  0
   34.8680   29.8840   33.0020 N   0  0  0  0  0  0  0  0  0  0  0  0
   35.4660   31.1800   33.1830 C   0  0  0  0  0  0  0  0  0  0  0  0
   36.3150   31.5990   32.0080 C   0  0  0  0  0  0  0  0  0  0  0  0
   35.8640   30.8130   30.8030 C   0  0  0  0  0  0  0  0  0  0  0  0
   36.2980   29.3880   31.0580 C   0  0  0  0  0  0  0  0  0  0  0  0
   35.5130   28.8430   32.1980 C   0  0  1  0  0  0  0  0  0  0  0  0
   31.9050   29.9330   36.4570 H   0  0  0  0  0  0  0  0  0  0  0  0
   30.1660   28.7470   35.0900 H   0  0  0  0  0  0  0  0  0  0  0  0
   30.7330   28.1230   32.7150 H   0  0  0  0  0  0  0  0  0  0  0  0
   35.9880   31.3210   34.1390 H   0  0  0  0  0  0  0  0  0  0  0  0
   34.6050   31.9080   33.2100 H   0  0  0  0  0  0  0  0  0  0  0  0
   37.3550   31.2870   32.2520 H   0  0  0  0  0  0  0  0  0  0  0  0
   36.3100   32.6900   31.8480 H   0  0  0  0  0  0  0  0  0  0  0  0
   36.3840   31.1740   29.8830 H   0  0  0  0  0  0  0  0  0  0  0  0
   34.7750   30.9090   30.7280 H   0  0  0  0  0  0  0  0  0  0  0  0
   37.3870   29.4620   31.2020 H   0  0  0  0  0  0  0  0  0  0  0  0
   36.0870   28.8360   30.1100 H   0  0  0  0  0  0  0  0  0  0  0  0
   34.6430   28.2590   31.7850 H   0  0  0  0  0  0  0  0  0  0  0  0
   36.2740   27.9050   33.0330 C   0  0  0  0  0  0  0  0  0  0  0  0
   36.6920   28.0770   34.3590 C   0  0  0  0  0  0  0  0  0  0  0  0
   37.3790   27.0710   34.9500 C   0  0  0  0  0  0  0  0  0  0  0  0
   37.6420   25.8800   34.1910 C   0  0  0  0  0  0  0  0  0  0  0  0
   36.8190   26.3350   32.5560 S   0  0  0  0  0  0  0  0  0  0  0  0
   36.5160   28.9560   34.9700 H   0  0  0  0  0  0  0  0  0  0  0  0
   37.7950   26.9450   35.9060 H   0  0  0  0  0  0  0  0  0  0  0  0
   38.2540   24.6610   34.3240 N   0  0  0  0  0  0  0  0  0  0  0  0
   38.7430   24.2030   33.5370 H   0  0  0  0  0  0  0  0  0  0  0  0
   38.3110   23.7370   35.7380 S   0  0  0  0  0  0  0  0  0  0  0  0
   37.8080   22.3550   35.4470 O   0  0  0  0  0  1  0  0  0  0  0  0
   37.4430   24.2900   36.8380 O   0  0  0  0  0  1  0  0  0  0  0  0
   39.8740   23.5730   36.3460 O   0  0  0  0  0  0  0  0  0  0  0  0
   40.4120   24.3570   36.1120 H   0  0  0  0  0  0  0  0  0  0  0  0
  1 13  1  0  0  0  0
  2 14  1  0  0  0  0
  2  1  2  0  0  0  0
  3  2  1  0  0  0  0
  4  3  2  0  0  0  0
  4  5  1  0  0  0  0
  5  6  2  0  0  0  0
  6  1  1  0  0  0  0
  7  8  1  0  0  0  0
  7  5  1  0  0  0  0
  8 17  1  0  0  0  0
  8 16  1  0  0  0  0
  9 18  1  0  0  0  0
  9  8  1  0  0  0  0
 10 11  1  0  0  0  0
 10  9  1  0  0  0  0
 11 22  1  0  0  0  0
 11 12  1  0  0  0  0
 12 24  1  6  0  0  0
 12  7  1  0  0  0  0
 12 25  1  0  0  0  0
 15  3  1  0  0  0  0
 19  9  1  0  0  0  0
 20 10  1  0  0  0  0
 21 10  1  0  0  0  0
 23 11  1  0  0  0  0
 25 26  2  0  0  0  0
 26 27  1  0  0  0  0
 26 30  1  0  0  0  0
 27 31  1  0  0  0  0
 28 32  1  0  0  0  0
 28 27  2  0  0  0  0
 29 25  1  0  0  0  0
 29 28  1  0  0  0  0
 32 34  1  0  0  0  0
 33 32  1  0  0  0  0
 34 37  1  0  0  0  0
 34 36  1  0  0  0  0
 35 34  1  0  0  0  0
 38 37  1  0  0  0  0
M  END
>  <minimizedAffinity>
-5.21591663

$$$$

 OpenBabel03262523273D

 38 40  0  0  1  0  0  0  0  0999 V2000
   39.7950   26.5570   35.1480 C   0  0  0  0  0  0  0  0  0  0  0  0
   38.8280   27.0930   36.0000 C   0  0  0  0  0  0  0  0  0  0  0  0
   37.6940   27.6280   35.4280 C   0  0  0  0  0  0  0  0  0  0  0  0
   37.5940   27.5940   34.0740 N   0  0  0  0  0  0  0  0  0  0  0  0
   38.5370   27.0730   33.2710 C   0  0  0  0  0  0  0  0  0  0  0  0
   39.6330   26.5550   33.8060 N   0  0  0  0  0  0  0  0  0  0  0  0
   38.3370   27.0870   31.8350 N   0  0  0  0  0  0  0  0  0  0  0  0
   39.4220   27.4690   30.9700 C   0  0  0  0  0  0  0  0  0  0  0  0
   38.9480   28.1230   29.6950 C   0  0  0  0  0  0  0  0  0  0  0  0
   37.5600   28.6620   29.9340 C   0  0  0  0  0  0  0  0  0  0  0  0
   36.6670   27.4490   30.0600 C   0  0  0  0  0  0  0  0  0  0  0  0
   37.0230   26.7160   31.3040 C   0  0  1  0  0  0  0  0  0  0  0  0
   40.6870   26.1380   35.6150 H   0  0  0  0  0  0  0  0  0  0  0  0
   38.8980   27.1250   37.0730 H   0  0  0  0  0  0  0  0  0  0  0  0
   36.8480   28.0850   35.9650 H   0  0  0  0  0  0  0  0  0  0  0  0
   40.1620   26.6810   30.7780 H   0  0  0  0  0  0  0  0  0  0  0  0
   39.9860   28.2700   31.5290 H   0  0  0  0  0  0  0  0  0  0  0  0
   38.8740   27.3080   28.9400 H   0  0  0  0  0  0  0  0  0  0  0  0
   39.6550   28.8800   29.3180 H   0  0  0  0  0  0  0  0  0  0  0  0
   37.2150   29.2570   29.0560 H   0  0  0  0  0  0  0  0  0  0  0  0
   37.5860   29.2570   30.8540 H   0  0  0  0  0  0  0  0  0  0  0  0
   36.8140   26.9090   29.1120 H   0  0  0  0  0  0  0  0  0  0  0  0
   35.6240   27.8490   30.1000 H   0  0  0  0  0  0  0  0  0  0  0  0
   36.3160   27.0340   32.1210 H   0  0  0  0  0  0  0  0  0  0  0  0
   36.8770   25.2600   31.1830 C   0  0  0  0  0  0  0  0  0  0  0  0
   37.8730   24.3160   30.8970 C   0  0  0  0  0  0  0  0  0  0  0  0
   37.5210   23.0100   30.8450 C   0  0  0  0  0  0  0  0  0  0  0  0
   36.1490   22.6570   31.0840 C   0  0  0  0  0  0  0  0  0  0  0  0
   35.4120   24.3660   31.3910 S   0  0  0  0  0  0  0  0  0  0  0  0
   38.9180   24.5350   30.7110 H   0  0  0  0  0  0  0  0  0  0  0  0
   38.0540   22.1250   30.6560 H   0  0  0  0  0  0  0  0  0  0  0  0
   35.3400   21.5520   31.1420 N   0  0  0  0  0  0  0  0  0  0  0  0
   34.4900   21.4630   30.5610 H   0  0  0  0  0  0  0  0  0  0  0  0
   35.5840   20.2040   32.1310 S   0  0  0  0  0  0  0  0  0  0  0  0
   35.3010   20.5770   33.5560 O   0  0  0  0  0  1  0  0  0  0  0  0
   37.0010   19.6940   32.0920 O   0  0  0  0  0  1  0  0  0  0  0  0
   34.5630   18.9210   31.7470 O   0  0  0  0  0  0  0  0  0  0  0  0
   34.3390   18.9410   30.7940 H   0  0  0  0  0  0  0  0  0  0  0  0
  1 13  1  0  0  0  0
  1  2  1  0  0  0  0
  2 14  1  0  0  0  0
  3 15  1  0  0  0  0
  3  2  2  0  0  0  0
  4  3  1  0  0  0  0
  5  6  1  0  0  0  0
  5  4  2  0  0  0  0
  6  1  2  0  0  0  0
  7  5  1  0  0  0  0
  8 17  1  0  0  0  0
  8  7  1  0  0  0  0
  9 10  1  0  0  0  0
  9  8  1  0  0  0  0
 10 11  1  0  0  0  0
 10 21  1  0  0  0  0
 11 23  1  0  0  0  0
 11 12  1  0  0  0  0
 12  7  1  0  0  0  0
 12 24  1  1  0  0  0
 16  8  1  0  0  0  0
 18  9  1  0  0  0  0
 19  9  1  0  0  0  0
 20 10  1  0  0  0  0
 22 11  1  0  0  0  0
 25 12  1  0  0  0  0
 25 29  1  0  0  0  0
 26 25  2  0  0  0  0
 27 26  1  0  0  0  0
 27 28  2  0  0  0  0
 28 32  1  0  0  0  0
 28 29  1  0  0  0  0
 30 26  1  0  0  0  0
 31 27  1  0  0  0  0
 32 34  1  0  0  0  0
 33 32  1  0  0  0  0
 34 35  1  0  0  0  0
 36 34  1  0  0  0  0
 37 34  1  0  0  0  0
 38 37  1  0  0  0  0
M  END
>  <minimizedAffinity>
-5.10126066

$$$$

 OpenBabel03262523273D

 38 40  0  0  1  0  0  0  0  0999 V2000
   31.6760   28.9970   35.4380 C   0  0  0  0  0  0  0  0  0  0  0  0
   30.6240   29.6330   34.7760 C   0  0  0  0  0  0  0  0  0  0  0  0
   30.9140   30.7690   34.0520 C   0  0  0  0  0  0  0  0  0  0  0  0
   32.2050   31.1910   34.0310 N   0  0  0  0  0  0  0  0  0  0  0  0
   33.2030   30.5640   34.6760 C   0  0  0  0  0  0  0  0  0  0  0  0
   32.9400   29.4700   35.3750 N   0  0  0  0  0  0  0  0  0  0  0  0
   34.5490   31.0970   34.5930 N   0  0  0  0  0  0  0  0  0  0  0  0
   35.3550   31.1810   35.7830 C   0  0  0  0  0  0  0  0  0  0  0  0
   36.3370   32.3260   35.7410 C   0  0  0  0  0  0  0  0  0  0  0  0
   35.8310   33.3390   34.7450 C   0  0  0  0  0  0  0  0  0  0  0  0
   35.9900   32.6920   33.3880 C   0  0  0  0  0  0  0  0  0  0  0  0
   35.0500   31.5440   33.2900 C   0  0  1  0  0  0  0  0  0  0  0  0
   31.4300   28.0990   36.0070 H   0  0  0  0  0  0  0  0  0  0  0  0
   29.5990   29.3060   34.7870 H   0  0  0  0  0  0  0  0  0  0  0  0
   30.1950   31.3770   33.4810 H   0  0  0  0  0  0  0  0  0  0  0  0
   35.8330   30.2400   36.0870 H   0  0  0  0  0  0  0  0  0  0  0  0
   34.6360   31.4280   36.6170 H   0  0  0  0  0  0  0  0  0  0  0  0
   37.2880   31.9030   35.3470 H   0  0  0  0  0  0  0  0  0  0  0  0
   36.5350   32.7520   36.7390 H   0  0  0  0  0  0  0  0  0  0  0  0
   36.4640   34.2580   34.7670 H   0  0  0  0  0  0  0  0  0  0  0  0
   34.7830   33.5510   34.9860 H   0  0  0  0  0  0  0  0  0  0  0  0
   37.0630   32.4560   33.3290 H   0  0  0  0  0  0  0  0  0  0  0  0
   35.7450   33.4910   32.6460 H   0  0  0  0  0  0  0  0  0  0  0  0
   34.1180   31.8890   32.7610 H   0  0  0  0  0  0  0  0  0  0  0  0
   35.5790   30.4260   32.4990 C   0  0  0  0  0  0  0  0  0  0  0  0
   35.9100   29.1380   32.9430 C   0  0  0  0  0  0  0  0  0  0  0  0
   36.3740   28.2470   32.0340 C   0  0  0  0  0  0  0  0  0  0  0  0
   36.5030   28.6650   30.6660 C   0  0  0  0  0  0  0  0  0  0  0  0
   35.9000   30.4470   30.8000 S   0  0  0  0  0  0  0  0  0  0  0  0
   35.8280   28.7790   33.9620 H   0  0  0  0  0  0  0  0  0  0  0  0
   36.6850   27.2470   32.0980 H   0  0  0  0  0  0  0  0  0  0  0  0
   36.8970   28.1750   29.4480 N   0  0  0  0  0  0  0  0  0  0  0  0
   36.3440   27.4680   28.9350 H   0  0  0  0  0  0  0  0  0  0  0  0
   38.2950   28.6240   28.6120 S   0  0  0  0  0  0  0  0  0  0  0  0
   39.3480   29.0410   29.5960 O   0  0  0  0  0  1  0  0  0  0  0  0
   38.0790   29.7940   27.6890 O   0  0  0  0  0  1  0  0  0  0  0  0
   38.9450   27.3630   27.7040 O   0  0  0  0  0  0  0  0  0  0  0  0
   38.2340   26.7540   27.4140 H   0  0  0  0  0  0  0  0  0  0  0  0
  1 13  1  0  0  0  0
  2 14  1  0  0  0  0
  2  1  2  0  0  0  0
  3  2  1  0  0  0  0
  4  3  2  0  0  0  0
  4  5  1  0  0  0  0
  5  6  2  0  0  0  0
  6  1  1  0  0  0  0
  7  5  1  0  0  0  0
  7  8  1  0  0  0  0
  8 16  1  0  0  0  0
  8 17  1  0  0  0  0
  9  8  1  0  0  0  0
  9 19  1  0  0  0  0
 10 20  1  0  0  0  0
 10 21  1  0  0  0  0
 10  9  1  0  0  0  0
 11 10  1  0  0  0  0
 12 24  1  6  0  0  0
 12 11  1  0  0  0  0
 12  7  1  0  0  0  0
 15  3  1  0  0  0  0
 18  9  1  0  0  0  0
 22 11  1  0  0  0  0
 23 11  1  0  0  0  0
 25 26  2  0  0  0  0
 25 12  1  0  0  0  0
 26 30  1  0  0  0  0
 27 31  1  0  0  0  0
 27 26  1  0  0  0  0
 28 29  1  0  0  0  0
 28 27  2  0  0  0  0
 29 25  1  0  0  0  0
 32 28  1  0  0  0  0
 33 32  1  0  0  0  0
 34 32  1  0  0  0  0
 34 35  1  0  0  0  0
 36 34  1  0  0  0  0
 37 34  1  0  0  0  0
 38 37  1  0  0  0  0
M  END
>  <minimizedAffinity>
-5.09601545

$$$$
