
 OpenBabel03272503063D

 30 31  0  0  0  0  0  0  0  0999 V2000
   38.0170   30.0000   47.2710 F   0  0  0  0  0  0  0  0  0  0  0  0
   38.4430   31.2360   47.6300 C   0  0  0  0  0  0  0  0  0  0  0  0
   38.1130   31.7580   48.8550 C   0  0  0  0  0  0  0  0  0  0  0  0
   38.5770   33.0070   49.1480 C   0  0  0  0  0  0  0  0  0  0  0  0
   39.3470   33.7400   48.2730 C   0  0  0  0  0  0  0  0  0  0  0  0
   39.6690   33.2010   47.0470 C   0  0  0  0  0  0  0  0  0  0  0  0
   39.2160   31.9380   46.7160 C   0  0  0  0  0  0  0  0  0  0  0  0
   38.3210   33.4220   50.1110 H   0  0  0  0  0  0  0  0  0  0  0  0
   39.7200   34.7310   48.4940 H   0  0  0  0  0  0  0  0  0  0  0  0
   40.2710   33.6840   46.2690 H   0  0  0  0  0  0  0  0  0  0  0  0
   36.9470   29.6330   51.7600 C   0  0  0  0  0  0  0  0  0  0  0  0
   37.7640   30.4160   50.9370 C   0  0  0  0  0  0  0  0  0  0  0  0
   37.2960   30.9380   49.7420 C   0  0  0  0  0  0  0  0  0  0  0  0
   35.9950   30.6390   49.4260 N   0  0  0  0  0  0  0  0  0  0  0  0
   35.2230   29.8860   50.2260 C   0  0  0  0  0  0  0  0  0  0  0  0
   35.6910   29.3890   51.3770 N   0  0  0  0  0  0  0  0  0  0  0  0
   37.3790   29.2700   52.6590 H   0  0  0  0  0  0  0  0  0  0  0  0
   38.7960   30.6350   51.2180 H   0  0  0  0  0  0  0  0  0  0  0  0
   34.1880   29.6580   49.9550 H   0  0  0  0  0  0  0  0  0  0  0  0
   38.4710   31.4320   44.4950 C   0  0  0  0  0  0  0  0  0  0  0  0
   37.4070   31.9760   44.9230 O   0  0  0  0  0  0  0  0  0  0  0  0
   39.5260   31.3360   45.4510 N   0  0  0  0  0  0  0  0  0  0  0  0
   40.3890   30.8490   45.1350 H   0  0  0  0  0  0  0  0  0  0  0  0
   38.5760   30.9640   43.1540 N   0  0  0  0  0  0  0  0  0  0  0  0
   38.2990   29.9750   42.9400 H   0  0  0  0  0  0  0  0  0  0  0  0
   39.1420   31.9550   41.8560 S   0  0  0  0  0  0  0  0  0  0  0  0
   38.1500   31.9430   40.7570 O   0  0  0  0  0  1  0  0  0  0  0  0
   40.4540   31.4250   41.3230 O   0  0  0  0  0  1  0  0  0  0  0  0
   39.4560   33.5020   42.4460 O   0  0  0  0  0  0  0  0  0  0  0  0
   39.2840   34.1980   41.7610 H   0  0  0  0  0  0  0  0  0  0  0  0
  1  2  1  0  0  0  0
  2  3  1  0  0  0  0
  3  4  2  0  0  0  0
  3 13  1  0  0  0  0
  4  8  1  0  0  0  0
  5  9  1  0  0  0  0
  5  4  1  0  0  0  0
  6  5  2  0  0  0  0
  7  6  1  0  0  0  0
  7  2  2  0  0  0  0
 10  6  1  0  0  0  0
 11 17  1  0  0  0  0
 12 18  1  0  0  0  0
 12 11  2  0  0  0  0
 13 12  1  0  0  0  0
 14 13  2  0  0  0  0
 14 15  1  0  0  0  0
 15 16  2  0  0  0  0
 16 11  1  0  0  0  0
 19 15  1  0  0  0  0
 20 21  2  0  0  0  0
 20 22  1  0  0  0  0
 22  7  1  0  0  0  0
 23 22  1  0  0  0  0
 24 20  1  0  0  0  0
 25 24  1  0  0  0  0
 26 29  1  0  0  0  0
 26 24  1  0  0  0  0
 27 26  1  0  0  0  0
 28 26  1  0  0  0  0
 30 29  1  0  0  0  0
M  END
>  <minimizedAffinity>
-5.87139988

>  <minimizedRMSD>
0.919974804

$$$$
