
 OpenBabel03272505533D

 32 33  0  0  1  0  0  0  0  0999 V2000
   35.5280   30.0690   49.8690 C   0  0  2  0  0  0  0  0  0  0  0  0
   36.1440   31.3310   49.3040 C   0  0  0  0  0  0  0  0  0  0  0  0
   37.6370   31.3230   49.3370 C   0  0  1  0  0  0  0  0  0  0  0  0
   38.2210   31.0040   50.6810 C   0  0  0  0  0  0  0  0  0  0  0  0
   37.4510   29.9750   51.4530 C   0  0  0  0  0  0  0  0  0  0  0  0
   36.5080   29.1890   50.5640 C   0  0  0  0  0  0  0  0  0  0  0  0
   34.7400   30.4010   50.5710 H   0  0  0  0  0  0  0  0  0  0  0  0
   35.8420   31.4220   48.2530 H   0  0  0  0  0  0  0  0  0  0  0  0
   35.8130   32.2380   49.8340 H   0  0  0  0  0  0  0  0  0  0  0  0
   37.9460   32.3850   49.1120 H   0  0  0  0  0  0  0  0  0  0  0  0
   38.4070   31.9330   51.2850 H   0  0  0  0  0  0  0  0  0  0  0  0
   39.2410   30.5950   50.5020 H   0  0  0  0  0  0  0  0  0  0  0  0
   38.0980   29.2190   51.9370 H   0  0  0  0  0  0  0  0  0  0  0  0
   36.8090   30.5250   52.1830 H   0  0  0  0  0  0  0  0  0  0  0  0
   35.9140   28.5180   51.2310 H   0  0  0  0  0  0  0  0  0  0  0  0
   37.0550   28.5050   49.8860 H   0  0  0  0  0  0  0  0  0  0  0  0
   34.8920   29.2780   48.7760 C   0  0  0  0  0  0  0  0  0  0  0  0
   34.7040   29.9480   47.5540 C   0  0  0  0  0  0  0  0  0  0  0  0
   34.0930   29.2030   46.5240 C   0  0  0  0  0  0  0  0  0  0  0  0
   33.7320   27.9130   46.7640 N   0  0  0  0  0  0  0  0  0  0  0  0
   33.9310   27.3060   47.9580 C   0  0  0  0  0  0  0  0  0  0  0  0
   34.5090   27.9930   48.9500 N   0  0  0  0  0  0  0  0  0  0  0  0
   34.9630   30.9490   47.3130 H   0  0  0  0  0  0  0  0  0  0  0  0
   33.9010   29.6120   45.5510 H   0  0  0  0  0  0  0  0  0  0  0  0
   33.6050   26.2800   48.0370 H   0  0  0  0  0  0  0  0  0  0  0  0
   38.2000   30.5270   48.2730 N   0  0  0  0  0  0  0  0  0  0  0  0
   37.4160   30.0010   47.8280 H   0  0  0  0  0  0  0  0  0  0  0  0
   38.8100   31.5840   47.0220 S   0  0  0  0  0  0  0  0  0  0  0  0
   39.1710   32.8850   47.6870 O   0  0  0  0  0  0  0  0  0  0  0  0
   37.7410   31.8840   46.0070 O   0  0  0  0  0  0  0  0  0  0  0  0
   40.1830   30.9590   46.3350 O   0  0  0  0  0  0  0  0  0  0  0  0
   40.1120   30.6930   45.3960 H   0  0  0  0  0  0  0  0  0  0  0  0
  1  6  1  0  0  0  0
  1  7  1  1  0  0  0
  2  3  1  0  0  0  0
  2  9  1  0  0  0  0
  2  1  1  0  0  0  0
  3 10  1  6  0  0  0
  3  4  1  0  0  0  0
  4 11  1  0  0  0  0
  4  5  1  0  0  0  0
  5 13  1  0  0  0  0
  5 14  1  0  0  0  0
  6 15  1  0  0  0  0
  6  5  1  0  0  0  0
  8  2  1  0  0  0  0
 12  4  1  0  0  0  0
 16  6  1  0  0  0  0
 17 22  1  0  0  0  0
 17  1  1  0  0  0  0
 18 17  2  0  0  0  0
 19 20  2  0  0  0  0
 19 18  1  0  0  0  0
 20 21  1  0  0  0  0
 21 25  1  0  0  0  0
 21 22  2  0  0  0  0
 23 18  1  0  0  0  0
 24 19  1  0  0  0  0
 26  3  1  0  0  0  0
 27 26  1  0  0  0  0
 28 29  1  0  0  0  0
 28 26  1  0  0  0  0
 30 28  1  0  0  0  0
 31 28  1  0  0  0  0
 32 31  1  0  0  0  0
M  END
>  <minimizedAffinity>
-5.91819143

>  <minimizedRMSD>
0.976787686

$$$$
