
 OpenBabel03272509483D

 23 23  0  0  0  0  0  0  0  0999 V2000
   37.8610   24.3600   38.2010 C   0  0  0  0  0  0  0  0  0  0  0  0
   37.2400   24.7750   38.9980 H   0  0  0  0  0  0  0  0  0  0  0  0
   38.7910   24.9960   38.1830 H   0  0  0  0  0  0  0  0  0  0  0  0
   38.3250   22.9550   38.5130 C   0  0  0  0  0  0  0  0  0  0  0  0
   37.8360   22.5650   39.4180 H   0  0  0  0  0  0  0  0  0  0  0  0
   37.9670   22.3250   37.6490 H   0  0  0  0  0  0  0  0  0  0  0  0
   39.7580   22.8360   38.5130 N   0  0  0  0  0  0  0  0  0  0  0  0
   40.1150   22.1850   39.2420 H   0  0  0  0  0  0  0  0  0  0  0  0
   40.2490   22.3620   36.9230 S   0  0  0  0  0  0  0  0  0  0  0  0
   41.2140   21.2200   37.0830 O   0  0  0  0  0  1  0  0  0  0  0  0
   40.8870   23.5200   36.1800 O   0  0  0  0  0  1  0  0  0  0  0  0
   38.8790   21.8890   36.0600 O   0  0  0  0  0  0  0  0  0  0  0  0
   38.1090   22.3340   36.4630 H   0  0  0  0  0  0  0  0  0  0  0  0
   37.3280   24.4550   36.9040 O   0  0  0  0  0  0  0  0  0  0  0  0
   38.9240   27.2960   35.3020 C   0  0  0  0  0  0  0  0  0  0  0  0
   39.1100   26.7630   34.0150 C   0  0  0  0  0  0  0  0  0  0  0  0
   38.6810   25.4620   33.7620 C   0  0  0  0  0  0  0  0  0  0  0  0
   38.1010   24.7770   34.7860 N   0  0  0  0  0  0  0  0  0  0  0  0
   37.9350   25.3150   36.0110 C   0  0  0  0  0  0  0  0  0  0  0  0
   38.3550   26.5740   36.2410 N   0  0  0  0  0  0  0  0  0  0  0  0
   39.2720   28.3030   35.4470 H   0  0  0  0  0  0  0  0  0  0  0  0
   39.5790   27.3360   33.2120 H   0  0  0  0  0  0  0  0  0  0  0  0
   38.7940   24.9830   32.7840 H   0  0  0  0  0  0  0  0  0  0  0  0
  1  4  1  0  0  0  0
  1  2  1  0  0  0  0
  3  1  1  0  0  0  0
  4  5  1  0  0  0  0
  6  4  1  0  0  0  0
  7  4  1  0  0  0  0
  7  8  1  0  0  0  0
  9 10  1  0  0  0  0
  9  7  1  0  0  0  0
 11  9  1  0  0  0  0
 12 13  1  0  0  0  0
 12  9  1  0  0  0  0
 14  1  1  0  0  0  0
 15 21  1  0  0  0  0
 15 20  1  0  0  0  0
 16 15  2  0  0  0  0
 17 16  1  0  0  0  0
 17 18  2  0  0  0  0
 18 19  1  0  0  0  0
 19 20  2  0  0  0  0
 19 14  1  0  0  0  0
 22 16  1  0  0  0  0
 23 17  1  0  0  0  0
M  END
>  <minimizedAffinity>
-3.79280543

$$$$

 OpenBabel03272509483D

 23 23  0  0  0  0  0  0  0  0999 V2000
   38.6230   23.3380   37.5650 C   0  0  0  0  0  0  0  0  0  0  0  0
   37.9200   22.8440   38.2400 H   0  0  0  0  0  0  0  0  0  0  0  0
   38.6660   24.4100   37.9080 H   0  0  0  0  0  0  0  0  0  0  0  0
   40.0280   22.7980   37.7130 C   0  0  0  0  0  0  0  0  0  0  0  0
   40.7780   23.5800   37.5260 H   0  0  0  0  0  0  0  0  0  0  0  0
   40.1210   22.5060   38.7990 H   0  0  0  0  0  0  0  0  0  0  0  0
   40.2340   21.5860   36.9670 N   0  0  0  0  0  0  0  0  0  0  0  0
   39.7980   21.6080   36.0220 H   0  0  0  0  0  0  0  0  0  0  0  0
   41.9380   21.2960   36.8890 S   0  0  0  0  0  0  0  0  0  0  0  0
   42.6170   22.6320   37.0190 O   0  0  0  0  0  1  0  0  0  0  0  0
   42.3180   20.6110   35.5900 O   0  0  0  0  0  1  0  0  0  0  0  0
   42.3620   20.2680   38.1570 O   0  0  0  0  0  0  0  0  0  0  0  0
   41.5660   19.7600   38.4030 H   0  0  0  0  0  0  0  0  0  0  0  0
   38.2300   23.4010   36.2170 O   0  0  0  0  0  0  0  0  0  0  0  0
   37.9360   26.1390   33.8510 C   0  0  0  0  0  0  0  0  0  0  0  0
   38.1040   27.2240   34.7280 C   0  0  0  0  0  0  0  0  0  0  0  0
   38.3100   26.9640   36.0810 C   0  0  0  0  0  0  0  0  0  0  0  0
   38.3360   25.6610   36.4780 N   0  0  0  0  0  0  0  0  0  0  0  0
   38.1710   24.6400   35.6120 C   0  0  0  0  0  0  0  0  0  0  0  0
   37.9730   24.9080   34.3070 N   0  0  0  0  0  0  0  0  0  0  0  0
   37.7800   26.3910   32.8180 H   0  0  0  0  0  0  0  0  0  0  0  0
   38.0780   28.2590   34.3820 H   0  0  0  0  0  0  0  0  0  0  0  0
   38.4480   27.7580   36.8210 H   0  0  0  0  0  0  0  0  0  0  0  0
  1  4  1  0  0  0  0
  1  3  1  0  0  0  0
  1  2  1  0  0  0  0
  4  6  1  0  0  0  0
  5  4  1  0  0  0  0
  7  4  1  0  0  0  0
  8  7  1  0  0  0  0
  9  7  1  0  0  0  0
  9 10  1  0  0  0  0
  9 12  1  0  0  0  0
 11  9  1  0  0  0  0
 12 13  1  0  0  0  0
 14  1  1  0  0  0  0
 15 20  2  0  0  0  0
 15 16  1  0  0  0  0
 16 17  2  0  0  0  0
 17 18  1  0  0  0  0
 17 23  1  0  0  0  0
 19 14  1  0  0  0  0
 19 18  2  0  0  0  0
 20 19  1  0  0  0  0
 21 15  1  0  0  0  0
 22 16  1  0  0  0  0
M  END
>  <minimizedAffinity>
-3.79120255

$$$$

 OpenBabel03272509483D

 23 23  0  0  0  0  0  0  0  0999 V2000
   35.5220   23.9800   31.2250 C   0  0  0  0  0  0  0  0  0  0  0  0
   34.8330   23.8190   32.0570 H   0  0  0  0  0  0  0  0  0  0  0  0
   34.8750   24.0240   30.3030 H   0  0  0  0  0  0  0  0  0  0  0  0
   36.2130   25.3230   31.3100 C   0  0  0  0  0  0  0  0  0  0  0  0
   36.3290   25.6470   32.3540 H   0  0  0  0  0  0  0  0  0  0  0  0
   37.2500   25.1490   30.9020 H   0  0  0  0  0  0  0  0  0  0  0  0
   35.6160   26.3050   30.4450 N   0  0  0  0  0  0  0  0  0  0  0  0
   34.6320   26.5280   30.6980 H   0  0  0  0  0  0  0  0  0  0  0  0
   36.6260   27.7100   30.4650 S   0  0  0  0  0  0  0  0  0  0  0  0
   37.8860   27.3350   31.1950 O   0  0  0  0  0  1  0  0  0  0  0  0
   35.9280   28.8760   31.1370 O   0  0  0  0  0  1  0  0  0  0  0  0
   36.9520   28.1540   28.8700 O   0  0  0  0  0  0  0  0  0  0  0  0
   36.2290   27.8070   28.3140 H   0  0  0  0  0  0  0  0  0  0  0  0
   36.4350   22.9400   30.9820 O   0  0  0  0  0  0  0  0  0  0  0  0
   35.7830   19.3850   31.3280 C   0  0  0  0  0  0  0  0  0  0  0  0
   35.4890   19.3350   32.7010 C   0  0  0  0  0  0  0  0  0  0  0  0
   35.5280   20.5170   33.4360 C   0  0  0  0  0  0  0  0  0  0  0  0
   35.8530   21.6620   32.7750 N   0  0  0  0  0  0  0  0  0  0  0  0
   36.1300   21.6800   31.4560 C   0  0  0  0  0  0  0  0  0  0  0  0
   36.0870   20.5290   30.7580 N   0  0  0  0  0  0  0  0  0  0  0  0
   35.7390   18.4470   30.8040 H   0  0  0  0  0  0  0  0  0  0  0  0
   35.2320   18.4010   33.2050 H   0  0  0  0  0  0  0  0  0  0  0  0
   35.3110   20.5530   34.5080 H   0  0  0  0  0  0  0  0  0  0  0  0
  1  4  1  0  0  0  0
  1  2  1  0  0  0  0
  3  1  1  0  0  0  0
  4  5  1  0  0  0  0
  6  4  1  0  0  0  0
  7  9  1  0  0  0  0
  7  8  1  0  0  0  0
  7  4  1  0  0  0  0
  9 11  1  0  0  0  0
  9 10  1  0  0  0  0
 12  9  1  0  0  0  0
 13 12  1  0  0  0  0
 14  1  1  0  0  0  0
 14 19  1  0  0  0  0
 15 16  1  0  0  0  0
 16 22  1  0  0  0  0
 16 17  2  0  0  0  0
 17 23  1  0  0  0  0
 18 17  1  0  0  0  0
 19 18  2  0  0  0  0
 20 15  2  0  0  0  0
 20 19  1  0  0  0  0
 21 15  1  0  0  0  0
M  END
>  <minimizedAffinity>
-3.77348518

$$$$

 OpenBabel03272509483D

 23 23  0  0  0  0  0  0  0  0999 V2000
   38.1810   26.2900   35.3590 C   0  0  0  0  0  0  0  0  0  0  0  0
   38.7570   26.7250   36.1790 H   0  0  0  0  0  0  0  0  0  0  0  0
   38.7900   26.4800   34.4300 H   0  0  0  0  0  0  0  0  0  0  0  0
   38.0680   24.7860   35.4790 C   0  0  0  0  0  0  0  0  0  0  0  0
   37.0480   24.4840   35.7570 H   0  0  0  0  0  0  0  0  0  0  0  0
   38.2560   24.3910   34.4400 H   0  0  0  0  0  0  0  0  0  0  0  0
   39.1020   24.2200   36.3030 N   0  0  0  0  0  0  0  0  0  0  0  0
   39.8510   24.9000   36.5440 H   0  0  0  0  0  0  0  0  0  0  0  0
   38.3500   23.5540   37.7110 S   0  0  0  0  0  0  0  0  0  0  0  0
   37.1240   22.8160   37.2470 O   0  0  0  0  0  1  0  0  0  0  0  0
   37.9920   24.6410   38.7060 O   0  0  0  0  0  1  0  0  0  0  0  0
   39.4460   22.5110   38.4590 O   0  0  0  0  0  0  0  0  0  0  0  0
   40.3430   22.7930   38.1990 H   0  0  0  0  0  0  0  0  0  0  0  0
   36.9340   26.8860   35.1070 O   0  0  0  0  0  0  0  0  0  0  0  0
   35.9090   29.3480   32.6430 C   0  0  0  0  0  0  0  0  0  0  0  0
   36.7880   29.0130   31.5990 C   0  0  0  0  0  0  0  0  0  0  0  0
   37.6840   27.9640   31.7910 C   0  0  0  0  0  0  0  0  0  0  0  0
   37.6550   27.3190   32.9900 N   0  0  0  0  0  0  0  0  0  0  0  0
   36.8000   27.6630   33.9740 C   0  0  0  0  0  0  0  0  0  0  0  0
   35.9390   28.6790   33.7740 N   0  0  0  0  0  0  0  0  0  0  0  0
   35.2370   30.1640   32.4470 H   0  0  0  0  0  0  0  0  0  0  0  0
   36.7890   29.5480   30.6470 H   0  0  0  0  0  0  0  0  0  0  0  0
   38.3970   27.6480   31.0230 H   0  0  0  0  0  0  0  0  0  0  0  0
  1  4  1  0  0  0  0
  1  2  1  0  0  0  0
  3  1  1  0  0  0  0
  4  5  1  0  0  0  0
  4  7  1  0  0  0  0
  6  4  1  0  0  0  0
  7  8  1  0  0  0  0
  7  9  1  0  0  0  0
  9 12  1  0  0  0  0
  9 11  1  0  0  0  0
 10  9  1  0  0  0  0
 13 12  1  0  0  0  0
 14  1  1  0  0  0  0
 15 20  1  0  0  0  0
 16 17  1  0  0  0  0
 16 15  2  0  0  0  0
 17 18  2  0  0  0  0
 18 19  1  0  0  0  0
 19 14  1  0  0  0  0
 20 19  2  0  0  0  0
 21 15  1  0  0  0  0
 22 16  1  0  0  0  0
 23 17  1  0  0  0  0
M  END
>  <minimizedAffinity>
-3.76482844

$$$$

 OpenBabel03272509483D

 23 23  0  0  0  0  0  0  0  0999 V2000
   37.2530   22.1970   33.7940 C   0  0  0  0  0  0  0  0  0  0  0  0
   36.6800   21.2690   33.7270 H   0  0  0  0  0  0  0  0  0  0  0  0
   36.5640   22.9400   34.2870 H   0  0  0  0  0  0  0  0  0  0  0  0
   38.4460   22.0640   34.7150 C   0  0  0  0  0  0  0  0  0  0  0  0
   39.1700   21.3330   34.3260 H   0  0  0  0  0  0  0  0  0  0  0  0
   38.9510   23.0720   34.6930 H   0  0  0  0  0  0  0  0  0  0  0  0
   38.0630   21.8500   36.0850 N   0  0  0  0  0  0  0  0  0  0  0  0
   38.4150   20.9510   36.4720 H   0  0  0  0  0  0  0  0  0  0  0  0
   38.6070   23.2110   37.0040 S   0  0  0  0  0  0  0  0  0  0  0  0
   37.4150   24.1040   37.2130 O   0  0  0  0  0  1  0  0  0  0  0  0
   39.7240   23.9450   36.2860 O   0  0  0  0  0  1  0  0  0  0  0  0
   39.2190   22.6530   38.4730 O   0  0  0  0  0  0  0  0  0  0  0  0
   39.4980   21.7270   38.3430 H   0  0  0  0  0  0  0  0  0  0  0  0
   37.6060   22.7840   32.5680 O   0  0  0  0  0  0  0  0  0  0  0  0
   36.6030   26.2480   32.1380 C   0  0  0  0  0  0  0  0  0  0  0  0
   35.5050   26.0670   31.2810 C   0  0  0  0  0  0  0  0  0  0  0  0
   35.1640   24.7730   30.8940 C   0  0  0  0  0  0  0  0  0  0  0  0
   35.9220   23.7490   31.3750 N   0  0  0  0  0  0  0  0  0  0  0  0
   36.9710   23.9530   32.1970 C   0  0  0  0  0  0  0  0  0  0  0  0
   37.2890   25.2100   32.5620 N   0  0  0  0  0  0  0  0  0  0  0  0
   36.8270   27.2640   32.4070 H   0  0  0  0  0  0  0  0  0  0  0  0
   34.9140   26.9070   30.9100 H   0  0  0  0  0  0  0  0  0  0  0  0
   34.3220   24.5580   30.2290 H   0  0  0  0  0  0  0  0  0  0  0  0
  1  3  1  0  0  0  0
  1  4  1  0  0  0  0
  2  1  1  0  0  0  0
  4  7  1  0  0  0  0
  5  4  1  0  0  0  0
  6  4  1  0  0  0  0
  7  8  1  0  0  0  0
  7  9  1  0  0  0  0
  9 10  1  0  0  0  0
  9 12  1  0  0  0  0
 11  9  1  0  0  0  0
 13 12  1  0  0  0  0
 14  1  1  0  0  0  0
 15 21  1  0  0  0  0
 15 20  1  0  0  0  0
 16 15  2  0  0  0  0
 17 16  1  0  0  0  0
 17 18  2  0  0  0  0
 18 19  1  0  0  0  0
 19 20  2  0  0  0  0
 19 14  1  0  0  0  0
 22 16  1  0  0  0  0
 23 17  1  0  0  0  0
M  END
>  <minimizedAffinity>
-3.7512598

$$$$

 OpenBabel03272509483D

 23 23  0  0  0  0  0  0  0  0999 V2000
   37.4490   26.0680   35.1690 C   0  0  0  0  0  0  0  0  0  0  0  0
   36.5180   25.5370   35.3800 H   0  0  0  0  0  0  0  0  0  0  0  0
   37.2210   27.1570   35.3440 H   0  0  0  0  0  0  0  0  0  0  0  0
   38.5430   25.7100   36.1500 C   0  0  0  0  0  0  0  0  0  0  0  0
   39.4010   26.3920   36.0570 H   0  0  0  0  0  0  0  0  0  0  0  0
   38.0950   25.8830   37.1700 H   0  0  0  0  0  0  0  0  0  0  0  0
   38.8860   24.3140   36.1080 N   0  0  0  0  0  0  0  0  0  0  0  0
   39.9050   24.1460   35.9850 H   0  0  0  0  0  0  0  0  0  0  0  0
   38.2750   23.5760   37.5490 S   0  0  0  0  0  0  0  0  0  0  0  0
   37.0500   22.7960   37.1570 O   0  0  0  0  0  1  0  0  0  0  0  0
   37.9490   24.6180   38.6010 O   0  0  0  0  0  1  0  0  0  0  0  0
   39.4690   22.5640   38.1780 O   0  0  0  0  0  0  0  0  0  0  0  0
   40.3310   22.8930   37.8590 H   0  0  0  0  0  0  0  0  0  0  0  0
   37.9000   25.9980   33.8400 O   0  0  0  0  0  0  0  0  0  0  0  0
   35.7880   24.5610   31.2600 C   0  0  0  0  0  0  0  0  0  0  0  0
   36.1320   23.2060   31.4060 C   0  0  0  0  0  0  0  0  0  0  0  0
   37.0660   22.8540   32.3770 C   0  0  0  0  0  0  0  0  0  0  0  0
   37.5960   23.8540   33.1350 N   0  0  0  0  0  0  0  0  0  0  0  0
   37.2470   25.1460   32.9720 C   0  0  0  0  0  0  0  0  0  0  0  0
   36.3420   25.4700   32.0290 N   0  0  0  0  0  0  0  0  0  0  0  0
   35.0630   24.7820   30.4970 H   0  0  0  0  0  0  0  0  0  0  0  0
   35.6900   22.4260   30.7830 H   0  0  0  0  0  0  0  0  0  0  0  0
   37.3810   21.8200   32.5460 H   0  0  0  0  0  0  0  0  0  0  0  0
  1  3  1  0  0  0  0
  1  2  1  0  0  0  0
  1  4  1  0  0  0  0
  4  6  1  0  0  0  0
  5  4  1  0  0  0  0
  7  4  1  0  0  0  0
  7  9  1  0  0  0  0
  8  7  1  0  0  0  0
  9 12  1  0  0  0  0
  9 11  1  0  0  0  0
 10  9  1  0  0  0  0
 13 12  1  0  0  0  0
 14  1  1  0  0  0  0
 15 16  2  0  0  0  0
 15 20  1  0  0  0  0
 16 17  1  0  0  0  0
 17 23  1  0  0  0  0
 17 18  2  0  0  0  0
 19 18  1  0  0  0  0
 19 14  1  0  0  0  0
 20 19  2  0  0  0  0
 21 15  1  0  0  0  0
 22 16  1  0  0  0  0
M  END
>  <minimizedAffinity>
-3.74766779

$$$$

 OpenBabel03272509483D

 23 23  0  0  0  0  0  0  0  0999 V2000
   37.8030   22.8110   33.9850 C   0  0  0  0  0  0  0  0  0  0  0  0
   37.4450   22.0500   33.2880 H   0  0  0  0  0  0  0  0  0  0  0  0
   36.8760   23.2990   34.3990 H   0  0  0  0  0  0  0  0  0  0  0  0
   38.5170   22.2040   35.1730 C   0  0  0  0  0  0  0  0  0  0  0  0
   38.8650   21.1850   34.9510 H   0  0  0  0  0  0  0  0  0  0  0  0
   39.4350   22.8400   35.3240 H   0  0  0  0  0  0  0  0  0  0  0  0
   37.7590   22.3220   36.3900 N   0  0  0  0  0  0  0  0  0  0  0  0
   37.4770   21.4030   36.7870 H   0  0  0  0  0  0  0  0  0  0  0  0
   38.6940   23.2540   37.5070 S   0  0  0  0  0  0  0  0  0  0  0  0
   38.0840   24.6290   37.5510 O   0  0  0  0  0  1  0  0  0  0  0  0
   40.1500   23.3140   37.0850 O   0  0  0  0  0  1  0  0  0  0  0  0
   38.6250   22.5060   39.0170 O   0  0  0  0  0  0  0  0  0  0  0  0
   38.4320   21.5610   38.8680 H   0  0  0  0  0  0  0  0  0  0  0  0
   38.5440   23.8590   33.4140 O   0  0  0  0  0  0  0  0  0  0  0  0
   39.6420   26.8110   35.2200 C   0  0  0  0  0  0  0  0  0  0  0  0
   38.4020   27.4470   35.4010 C   0  0  0  0  0  0  0  0  0  0  0  0
   37.2560   26.8350   34.8990 C   0  0  0  0  0  0  0  0  0  0  0  0
   37.4070   25.6450   34.2540 N   0  0  0  0  0  0  0  0  0  0  0  0
   38.6110   25.0580   34.0950 C   0  0  0  0  0  0  0  0  0  0  0  0
   39.7090   25.6620   34.5870 N   0  0  0  0  0  0  0  0  0  0  0  0
   40.4960   27.3230   35.6250 H   0  0  0  0  0  0  0  0  0  0  0  0
   38.3110   28.4020   35.9220 H   0  0  0  0  0  0  0  0  0  0  0  0
   36.2590   27.2720   35.0030 H   0  0  0  0  0  0  0  0  0  0  0  0
  1  3  1  0  0  0  0
  1  4  1  0  0  0  0
  2  1  1  0  0  0  0
  4  6  1  0  0  0  0
  4  7  1  0  0  0  0
  5  4  1  0  0  0  0
  7  8  1  0  0  0  0
  7  9  1  0  0  0  0
  9 10  1  0  0  0  0
  9 12  1  0  0  0  0
 11  9  1  0  0  0  0
 13 12  1  0  0  0  0
 14  1  1  0  0  0  0
 14 19  1  0  0  0  0
 15 16  1  0  0  0  0
 15 21  1  0  0  0  0
 16 22  1  0  0  0  0
 17 23  1  0  0  0  0
 17 16  2  0  0  0  0
 18 17  1  0  0  0  0
 19 18  2  0  0  0  0
 19 20  1  0  0  0  0
 20 15  2  0  0  0  0
M  END
>  <minimizedAffinity>
-3.73042107

$$$$

 OpenBabel03272509483D

 23 23  0  0  0  0  0  0  0  0999 V2000
   38.5910   27.1610   35.5900 C   0  0  0  0  0  0  0  0  0  0  0  0
   39.3780   27.8480   35.9070 H   0  0  0  0  0  0  0  0  0  0  0  0
   39.0330   26.5680   34.7400 H   0  0  0  0  0  0  0  0  0  0  0  0
   38.2510   26.1520   36.6650 C   0  0  0  0  0  0  0  0  0  0  0  0
   38.8920   26.2780   37.5490 H   0  0  0  0  0  0  0  0  0  0  0  0
   37.1980   26.4010   36.9830 H   0  0  0  0  0  0  0  0  0  0  0  0
   38.1940   24.8070   36.1590 N   0  0  0  0  0  0  0  0  0  0  0  0
   38.9390   24.5990   35.4630 H   0  0  0  0  0  0  0  0  0  0  0  0
   38.2520   23.7300   37.5120 S   0  0  0  0  0  0  0  0  0  0  0  0
   37.9460   24.5480   38.7370 O   0  0  0  0  0  1  0  0  0  0  0  0
   39.6090   23.0630   37.6230 O   0  0  0  0  0  1  0  0  0  0  0  0
   37.1000   22.5200   37.2810 O   0  0  0  0  0  0  0  0  0  0  0  0
   36.9400   22.4460   36.3210 H   0  0  0  0  0  0  0  0  0  0  0  0
   37.4370   27.7600   35.0570 O   0  0  0  0  0  0  0  0  0  0  0  0
   36.5910   25.7440   32.1580 C   0  0  0  0  0  0  0  0  0  0  0  0
   35.9010   26.7040   31.4000 C   0  0  0  0  0  0  0  0  0  0  0  0
   35.7600   27.9900   31.9180 C   0  0  0  0  0  0  0  0  0  0  0  0
   36.3060   28.2420   33.1400 N   0  0  0  0  0  0  0  0  0  0  0  0
   36.9640   27.3000   33.8440 C   0  0  0  0  0  0  0  0  0  0  0  0
   37.0920   26.0620   33.3310 N   0  0  0  0  0  0  0  0  0  0  0  0
   36.6730   24.7670   31.7160 H   0  0  0  0  0  0  0  0  0  0  0  0
   35.4730   26.4740   30.4220 H   0  0  0  0  0  0  0  0  0  0  0  0
   35.2350   28.7880   31.3840 H   0  0  0  0  0  0  0  0  0  0  0  0
  1  2  1  0  0  0  0
  1  4  1  0  0  0  0
  3  1  1  0  0  0  0
  4  6  1  0  0  0  0
  4  5  1  0  0  0  0
  7  4  1  0  0  0  0
  7  9  1  0  0  0  0
  8  7  1  0  0  0  0
  9 11  1  0  0  0  0
  9 10  1  0  0  0  0
 12  9  1  0  0  0  0
 13 12  1  0  0  0  0
 14  1  1  0  0  0  0
 15 20  1  0  0  0  0
 16 17  1  0  0  0  0
 16 15  2  0  0  0  0
 17 18  2  0  0  0  0
 18 19  1  0  0  0  0
 19 14  1  0  0  0  0
 20 19  2  0  0  0  0
 21 15  1  0  0  0  0
 22 16  1  0  0  0  0
 23 17  1  0  0  0  0
M  END
>  <minimizedAffinity>
-3.69488621

$$$$

 OpenBabel03272509483D

 23 23  0  0  0  0  0  0  0  0999 V2000
   38.5010   23.4010   34.3160 C   0  0  0  0  0  0  0  0  0  0  0  0
   38.7840   22.3470   34.2770 H   0  0  0  0  0  0  0  0  0  0  0  0
   37.4060   23.4080   34.5840 H   0  0  0  0  0  0  0  0  0  0  0  0
   39.2050   24.1390   35.4330 C   0  0  0  0  0  0  0  0  0  0  0  0
   39.9980   23.5230   35.8810 H   0  0  0  0  0  0  0  0  0  0  0  0
   39.7120   25.0160   34.9360 H   0  0  0  0  0  0  0  0  0  0  0  0
   38.2860   24.7090   36.3820 N   0  0  0  0  0  0  0  0  0  0  0  0
   37.3280   24.8380   35.9970 H   0  0  0  0  0  0  0  0  0  0  0  0
   38.2910   23.7040   37.7900 S   0  0  0  0  0  0  0  0  0  0  0  0
   37.9750   24.5920   38.9640 O   0  0  0  0  0  1  0  0  0  0  0  0
   39.6320   23.0170   37.9680 O   0  0  0  0  0  1  0  0  0  0  0  0
   37.1200   22.5070   37.5960 O   0  0  0  0  0  0  0  0  0  0  0  0
   36.9800   22.3850   36.6380 H   0  0  0  0  0  0  0  0  0  0  0  0
   38.5830   24.0990   33.0990 O   0  0  0  0  0  0  0  0  0  0  0  0
   35.5180   23.7050   31.1930 C   0  0  0  0  0  0  0  0  0  0  0  0
   35.1730   25.0560   31.0250 C   0  0  0  0  0  0  0  0  0  0  0  0
   36.0050   26.0310   31.5720 C   0  0  0  0  0  0  0  0  0  0  0  0
   37.1140   25.6130   32.2420 N   0  0  0  0  0  0  0  0  0  0  0  0
   37.4200   24.3080   32.3870 C   0  0  0  0  0  0  0  0  0  0  0  0
   36.6060   23.3770   31.8530 N   0  0  0  0  0  0  0  0  0  0  0  0
   34.8460   22.9900   30.7530 H   0  0  0  0  0  0  0  0  0  0  0  0
   34.2770   25.3630   30.4830 H   0  0  0  0  0  0  0  0  0  0  0  0
   35.7980   27.1020   31.4810 H   0  0  0  0  0  0  0  0  0  0  0  0
  1  3  1  0  0  0  0
  1  4  1  0  0  0  0
  2  1  1  0  0  0  0
  4  5  1  0  0  0  0
  4  7  1  0  0  0  0
  6  4  1  0  0  0  0
  7  9  1  0  0  0  0
  8  7  1  0  0  0  0
  9 11  1  0  0  0  0
  9 10  1  0  0  0  0
 12  9  1  0  0  0  0
 13 12  1  0  0  0  0
 14  1  1  0  0  0  0
 15 20  1  0  0  0  0
 16 15  2  0  0  0  0
 16 17  1  0  0  0  0
 17 18  2  0  0  0  0
 18 19  1  0  0  0  0
 19 14  1  0  0  0  0
 20 19  2  0  0  0  0
 21 15  1  0  0  0  0
 22 16  1  0  0  0  0
 23 17  1  0  0  0  0
M  END
>  <minimizedAffinity>
-3.67368746

$$$$
