REMARK  Name = 
REMARK  4 active torsions:
REMARK  status: ('A' for Active; 'I' for Inactive)
REMARK    1  A    between atoms: C_5  and  C_7
REMARK    2  A    between atoms: C_12  and  N_20
REMARK    3  A    between atoms: N_20  and  S_22
REMARK    4  A    between atoms: S_22  and  O_25
REMARK                            x       y       z     vdW  Elec       q    Type
REMARK                         _______ _______ _______ _____ _____    ______ ____
ROOT
ATOM      1  C   UNL     1      36.105  30.133  48.605  0.00  0.00    +0.000 A 
ATOM      2  C   UNL     1      35.289  29.936  47.536  0.00  0.00    +0.000 A 
ATOM      3  C   UNL     1      34.300  28.983  47.507  0.00  0.00    +0.000 A 
ATOM      4  C   UNL     1      34.147  28.203  48.624  0.00  0.00    +0.000 A 
ATOM      5  C   UNL     1      34.950  28.367  49.728  0.00  0.00    +0.000 A 
ATOM      6  C   UNL     1      35.938  29.337  49.725  0.00  0.00    +0.000 A 
ATOM      7  H   UNL     1      35.403  30.552  46.640  0.00  0.00    +0.000 HD
ATOM      8  H   UNL     1      33.673  28.869  46.620  0.00  0.00    +0.000 HD
ATOM      9  H   UNL     1      33.354  27.458  48.568  0.00  0.00    +0.000 HD
ATOM     10  H   UNL     1      34.737  27.697  50.547  0.00  0.00    +0.000 HD
ENDROOT
BRANCH   1  15
ATOM     11  C   UNL     1      38.012  33.103  49.473  0.00  0.00    +0.000 A 
ATOM     12  C   UNL     1      38.968  33.215  48.467  0.00  0.00    +0.000 A 
ATOM     13  C   UNL     1      38.946  32.232  47.465  0.00  0.00    +0.000 A 
ATOM     14  N   UNL     1      38.016  31.232  47.512  0.00  0.00    +0.000 NA
ATOM     15  C   UNL     1      37.108  31.177  48.522  0.00  0.00    +0.000 A 
ATOM     16  N   UNL     1      37.106  32.117  49.508  0.00  0.00    +0.000 NA
ATOM     17  H   UNL     1      38.041  33.866  50.237  0.00  0.00    +0.000 HD
ATOM     18  H   UNL     1      39.715  33.986  48.394  0.00  0.00    +0.000 HD
ATOM     19  H   UNL     1      39.652  32.235  46.638  0.00  0.00    +0.000 HD
ENDBRANCH   1  15
BRANCH   6  20
ATOM     20  N   UNL     1      36.752  29.491  50.854  0.00  0.00    +0.000 N 
ATOM     21  H   UNL     1      37.548  30.196  50.809  0.00  0.00    +0.000 HD
BRANCH  20  22
ATOM     22  S   UNL     1      36.787  28.773  52.389  0.00  0.00    +0.000 S 
ATOM     23  O   UNL     1      35.760  27.714  52.629  0.00  0.00    +0.000 OA
ATOM     24  O   UNL     1      36.761  29.838  53.436  0.00  0.00    +0.000 OA
BRANCH  22  25
ATOM     25  O   UNL     1      38.288  27.984  52.526  0.00  0.00    +0.000 OA
ATOM     26  H   UNL     1      38.530  27.572  51.641  0.00  0.00    +0.000 HD
ENDBRANCH  22  25
ENDBRANCH  20  22
ENDBRANCH   6  20
TORSDOF 4
