
 OpenBabel03272503063D

 30 31  0  0  0  0  0  0  0  0999 V2000
   37.9640   30.1710   47.2390 F   0  0  0  0  0  0  0  0  0  0  0  0
   38.3880   31.3650   47.7200 C   0  0  0  0  0  0  0  0  0  0  0  0
   37.9910   31.7980   48.9590 C   0  0  0  0  0  0  0  0  0  0  0  0
   38.4570   33.0100   49.3770 C   0  0  0  0  0  0  0  0  0  0  0  0
   39.2920   33.7920   48.6110 C   0  0  0  0  0  0  0  0  0  0  0  0
   39.6810   33.3430   47.3690 C   0  0  0  0  0  0  0  0  0  0  0  0
   39.2280   32.1190   46.9120 C   0  0  0  0  0  0  0  0  0  0  0  0
   38.1490   33.3550   50.3530 H   0  0  0  0  0  0  0  0  0  0  0  0
   39.6680   34.7540   48.9320 H   0  0  0  0  0  0  0  0  0  0  0  0
   40.3390   33.8710   46.6690 H   0  0  0  0  0  0  0  0  0  0  0  0
   36.6210   29.4520   51.5920 C   0  0  0  0  0  0  0  0  0  0  0  0
   37.5020   30.2770   50.8830 C   0  0  0  0  0  0  0  0  0  0  0  0
   37.1070   30.9300   49.7270 C   0  0  0  0  0  0  0  0  0  0  0  0
   35.8110   30.7150   49.3310 N   0  0  0  0  0  0  0  0  0  0  0  0
   34.9780   29.9200   50.0210 C   0  0  0  0  0  0  0  0  0  0  0  0
   35.3760   29.2960   51.1360 N   0  0  0  0  0  0  0  0  0  0  0  0
   37.0000   28.9870   52.4680 H   0  0  0  0  0  0  0  0  0  0  0  0
   38.5270   30.4270   51.2270 H   0  0  0  0  0  0  0  0  0  0  0  0
   33.9490   29.7610   49.6880 H   0  0  0  0  0  0  0  0  0  0  0  0
   38.7060   31.9700   44.5780 C   0  0  0  0  0  0  0  0  0  0  0  0
   37.6850   32.6270   44.9500 O   0  0  0  0  0  0  0  0  0  0  0  0
   39.6070   31.6100   45.6240 N   0  0  0  0  0  0  0  0  0  0  0  0
   40.4240   31.0290   45.3480 H   0  0  0  0  0  0  0  0  0  0  0  0
   38.9110   31.6330   43.2100 N   0  0  0  0  0  0  0  0  0  0  0  0
   38.3450   32.1250   42.4760 H   0  0  0  0  0  0  0  0  0  0  0  0
   40.0550   30.4430   42.6990 S   0  0  0  0  0  0  0  0  0  0  0  0
   40.6050   30.8210   41.3780 O   0  0  0  0  0  1  0  0  0  0  0  0
   39.3880   29.0910   42.5710 O   0  0  0  0  0  1  0  0  0  0  0  0
   41.2410   30.2810   43.8860 O   0  0  0  0  0  0  0  0  0  0  0  0
   42.1240   30.0510   43.4950 H   0  0  0  0  0  0  0  0  0  0  0  0
  1  2  1  0  0  0  0
  2  3  1  0  0  0  0
  3  4  2  0  0  0  0
  3 13  1  0  0  0  0
  4  8  1  0  0  0  0
  5  9  1  0  0  0  0
  5  4  1  0  0  0  0
  6  5  2  0  0  0  0
  7  6  1  0  0  0  0
  7  2  2  0  0  0  0
 10  6  1  0  0  0  0
 11 17  1  0  0  0  0
 12 18  1  0  0  0  0
 12 11  2  0  0  0  0
 13 12  1  0  0  0  0
 14 13  2  0  0  0  0
 14 15  1  0  0  0  0
 15 16  2  0  0  0  0
 16 11  1  0  0  0  0
 19 15  1  0  0  0  0
 20 21  2  0  0  0  0
 20 22  1  0  0  0  0
 22  7  1  0  0  0  0
 23 22  1  0  0  0  0
 24 20  1  0  0  0  0
 25 24  1  0  0  0  0
 26 24  1  0  0  0  0
 26 29  1  0  0  0  0
 27 26  1  0  0  0  0
 28 26  1  0  0  0  0
 30 29  1  0  0  0  0
M  END
>  <minimizedAffinity>
-6.3901825

>  <minimizedRMSD>
0.611143351

$$$$
