
 OpenBabel03272510253D

 43 46  0  0  1  0  0  0  0  0999 V2000
   35.9850   30.1950   46.9410 C   0  0  0  0  0  0  0  0  0  0  0  0
   36.9350   30.7130   47.8190 C   0  0  0  0  0  0  0  0  0  0  0  0
   37.9400   31.5610   47.3730 C   0  0  0  0  0  0  0  0  0  0  0  0
   37.9470   31.8610   46.0150 C   0  0  0  0  0  0  0  0  0  0  0  0
   38.8220   32.6650   45.3400 N   0  0  0  0  0  0  0  0  0  0  0  0
   38.4290   32.6520   44.0540 C   0  0  0  0  0  0  0  0  0  0  0  0
   37.3660   31.8870   43.9150 N   0  0  0  0  0  0  0  0  0  0  0  0
   37.0310   31.3740   45.1110 C   0  0  0  0  0  0  0  0  0  0  0  0
   36.0210   30.5160   45.5870 C   0  0  0  0  0  0  0  0  0  0  0  0
   35.1860   29.5320   47.2480 H   0  0  0  0  0  0  0  0  0  0  0  0
   38.6650   31.9560   48.0450 H   0  0  0  0  0  0  0  0  0  0  0  0
   39.6190   33.1710   45.7570 H   0  0  0  0  0  0  0  0  0  0  0  0
   35.3010   30.1320   44.8810 H   0  0  0  0  0  0  0  0  0  0  0  0
   37.5710   30.1550   51.4800 C   0  0  0  0  0  0  0  0  0  0  0  0
   37.7830   30.5750   50.1750 C   0  0  0  0  0  0  0  0  0  0  0  0
   36.8180   30.3230   49.2060 C   0  0  0  0  0  0  0  0  0  0  0  0
   35.6980   29.6640   49.6080 N   0  0  0  0  0  0  0  0  0  0  0  0
   35.4910   29.2560   50.8740 C   0  0  0  0  0  0  0  0  0  0  0  0
   36.4130   29.4990   51.7890 N   0  0  0  0  0  0  0  0  0  0  0  0
   38.3590   30.3830   52.1840 H   0  0  0  0  0  0  0  0  0  0  0  0
   38.6790   31.1040   49.8520 H   0  0  0  0  0  0  0  0  0  0  0  0
   34.5770   28.7340   51.1340 H   0  0  0  0  0  0  0  0  0  0  0  0
   39.0980   33.3730   43.0640 O   0  0  0  0  0  0  0  0  0  0  0  0
   39.1640   31.3030   42.0880 N   0  0  0  0  0  0  0  0  0  0  0  0
   39.2660   32.7120   41.8230 C   0  0  1  0  0  0  0  0  0  0  0  0
   38.2500   33.1290   40.8650 C   0  0  0  0  0  0  0  0  0  0  0  0
   38.4700   32.4540   39.6510 O   0  0  0  0  0  0  0  0  0  0  0  0
   38.5310   31.0960   39.7350 C   0  0  0  0  0  0  0  0  0  0  0  0
   39.4200   30.6140   40.8600 C   0  0  1  0  0  0  0  0  0  0  0  0
   38.4760   30.9420   42.6960 H   0  0  0  0  0  0  0  0  0  0  0  0
   40.2730   32.9490   41.4580 H   0  0  0  0  0  0  0  0  0  0  0  0
   38.4760   34.2060   40.5970 H   0  0  0  0  0  0  0  0  0  0  0  0
   37.2080   33.0680   41.0090 H   0  0  0  0  0  0  0  0  0  0  0  0
   38.9560   30.7080   38.8110 H   0  0  0  0  0  0  0  0  0  0  0  0
   37.5200   30.6500   39.9090 H   0  0  0  0  0  0  0  0  0  0  0  0
   39.1890   29.5170   40.9870 H   0  0  0  0  0  0  0  0  0  0  0  0
   40.7840   30.6850   40.4320 N   0  0  0  0  0  0  0  0  0  0  0  0
   41.2900   31.4460   40.9630 H   0  0  0  0  0  0  0  0  0  0  0  0
   41.6110   29.1910   40.6850 S   0  0  0  0  0  0  0  0  0  0  0  0
   40.7580   28.0740   40.1490 O   0  0  0  0  0  1  0  0  0  0  0  0
   41.9090   28.9140   42.1170 O   0  0  0  0  0  1  0  0  0  0  0  0
   43.0390   29.2120   39.7870 O   0  0  0  0  0  0  0  0  0  0  0  0
   43.4170   30.1270   39.7460 H   0  0  0  0  0  0  0  0  0  0  0  0
  1 10  1  0  0  0  0
  1  2  1  0  0  0  0
  2 16  1  0  0  0  0
  3  2  2  0  0  0  0
  3 11  1  0  0  0  0
  4  3  1  0  0  0  0
  5 12  1  0  0  0  0
  5  4  1  0  0  0  0
  6  5  1  0  0  0  0
  7  6  2  0  0  0  0
  7  8  1  0  0  0  0
  8  9  1  0  0  0  0
  8  4  2  0  0  0  0
  9  1  2  0  0  0  0
 13  9  1  0  0  0  0
 14 19  1  0  0  0  0
 14 20  1  0  0  0  0
 15 14  2  0  0  0  0
 16 17  2  0  0  0  0
 16 15  1  0  0  0  0
 17 18  1  0  0  0  0
 18 22  1  0  0  0  0
 18 19  2  0  0  0  0
 21 15  1  0  0  0  0
 23  6  1  0  0  0  0
 24 30  1  0  0  0  0
 25 31  1  6  0  0  0
 25 24  1  0  0  0  0
 25 23  1  0  0  0  0
 26 33  1  0  0  0  0
 26 25  1  0  0  0  0
 27 28  1  0  0  0  0
 27 26  1  0  0  0  0
 28 35  1  0  0  0  0
 28 29  1  0  0  0  0
 29 36  1  1  0  0  0
 29 24  1  0  0  0  0
 32 26  1  0  0  0  0
 34 28  1  0  0  0  0
 37 39  1  0  0  0  0
 37 29  1  0  0  0  0
 37 38  1  0  0  0  0
 39 41  1  0  0  0  0
 40 39  1  0  0  0  0
 42 39  1  0  0  0  0
 43 42  1  0  0  0  0
M  END
>  <minimizedAffinity>
-5.92517328

>  <minimizedRMSD>
1.61843359

$$$$
