
 OpenBabel03272503063D

 30 31  0  0  0  0  0  0  0  0999 V2000
   38.3640   30.2890   47.3520 F   0  0  0  0  0  0  0  0  0  0  0  0
   38.6570   31.5280   47.8170 C   0  0  0  0  0  0  0  0  0  0  0  0
   38.1060   31.9810   48.9880 C   0  0  0  0  0  0  0  0  0  0  0  0
   38.4470   33.2380   49.3950 C   0  0  0  0  0  0  0  0  0  0  0  0
   39.3050   34.0450   48.6810 C   0  0  0  0  0  0  0  0  0  0  0  0
   39.8490   33.5750   47.5070 C   0  0  0  0  0  0  0  0  0  0  0  0
   39.5260   32.3060   47.0650 C   0  0  0  0  0  0  0  0  0  0  0  0
   38.0170   33.6000   50.3170 H   0  0  0  0  0  0  0  0  0  0  0  0
   39.5830   35.0430   48.9930 H   0  0  0  0  0  0  0  0  0  0  0  0
   40.5410   34.1190   46.8540 H   0  0  0  0  0  0  0  0  0  0  0  0
   36.6710   29.5530   51.5090 C   0  0  0  0  0  0  0  0  0  0  0  0
   37.5670   30.4040   50.8530 C   0  0  0  0  0  0  0  0  0  0  0  0
   37.2050   31.0850   49.7030 C   0  0  0  0  0  0  0  0  0  0  0  0
   35.9240   30.8710   49.2570 N   0  0  0  0  0  0  0  0  0  0  0  0
   35.0760   30.0510   49.8980 C   0  0  0  0  0  0  0  0  0  0  0  0
   35.4420   29.3990   51.0080 N   0  0  0  0  0  0  0  0  0  0  0  0
   37.0240   29.0670   52.3840 H   0  0  0  0  0  0  0  0  0  0  0  0
   38.5790   30.5520   51.2350 H   0  0  0  0  0  0  0  0  0  0  0  0
   34.0600   29.8930   49.5260 H   0  0  0  0  0  0  0  0  0  0  0  0
   39.3060   32.1030   44.6870 C   0  0  0  0  0  0  0  0  0  0  0  0
   38.2410   32.7580   44.9110 O   0  0  0  0  0  0  0  0  0  0  0  0
   40.0690   31.7740   45.8470 N   0  0  0  0  0  0  0  0  0  0  0  0
   40.9180   31.1950   45.6890 H   0  0  0  0  0  0  0  0  0  0  0  0
   39.6850   31.7390   43.3640 N   0  0  0  0  0  0  0  0  0  0  0  0
   39.8490   32.4970   42.6560 H   0  0  0  0  0  0  0  0  0  0  0  0
   39.8910   30.0980   42.8650 S   0  0  0  0  0  0  0  0  0  0  0  0
   41.2880   29.8860   42.4250 O   0  0  0  0  0  1  0  0  0  0  0  0
   38.9700   29.7790   41.7080 O   0  0  0  0  0  1  0  0  0  0  0  0
   39.4370   29.0810   44.1310 O   0  0  0  0  0  0  0  0  0  0  0  0
   39.9670   28.2430   44.1380 H   0  0  0  0  0  0  0  0  0  0  0  0
  1  2  1  0  0  0  0
  2  3  1  0  0  0  0
  3  4  2  0  0  0  0
  3 13  1  0  0  0  0
  4  8  1  0  0  0  0
  5  9  1  0  0  0  0
  5  4  1  0  0  0  0
  6  5  2  0  0  0  0
  7  6  1  0  0  0  0
  7  2  2  0  0  0  0
 10  6  1  0  0  0  0
 11 17  1  0  0  0  0
 12 18  1  0  0  0  0
 12 11  2  0  0  0  0
 13 12  1  0  0  0  0
 14 13  2  0  0  0  0
 14 15  1  0  0  0  0
 15 16  2  0  0  0  0
 16 11  1  0  0  0  0
 19 15  1  0  0  0  0
 20 21  2  0  0  0  0
 20 22  1  0  0  0  0
 22  7  1  0  0  0  0
 23 22  1  0  0  0  0
 24 20  1  0  0  0  0
 25 24  1  0  0  0  0
 26 24  1  0  0  0  0
 26 29  1  0  0  0  0
 27 26  1  0  0  0  0
 28 26  1  0  0  0  0
 29 30  1  0  0  0  0
M  END
>  <minimizedAffinity>
-6.61660004

>  <minimizedRMSD>
0.221912593

$$$$
