
 OpenBabel03272500583D

 33 34  0  0  0  0  0  0  0  0999 V2000
   38.1110   31.9170   47.4340 C   0  0  0  0  0  0  0  0  0  0  0  0
   38.5680   32.8490   48.3220 C   0  0  0  0  0  0  0  0  0  0  0  0
   38.0670   32.9420   49.6290 C   0  0  0  0  0  0  0  0  0  0  0  0
   37.0340   32.0010   50.0160 C   0  0  0  0  0  0  0  0  0  0  0  0
   36.6260   31.1010   49.0890 C   0  0  0  0  0  0  0  0  0  0  0  0
   37.1100   31.0210   47.8350 C   0  0  0  0  0  0  0  0  0  0  0  0
   39.3520   33.5740   48.0530 H   0  0  0  0  0  0  0  0  0  0  0  0
   38.4740   33.7040   50.2780 H   0  0  0  0  0  0  0  0  0  0  0  0
   36.7600   32.1950   51.0250 H   0  0  0  0  0  0  0  0  0  0  0  0
   35.8890   30.5000   49.5970 H   0  0  0  0  0  0  0  0  0  0  0  0
   39.9880   31.2860   46.0090 C   0  0  0  0  0  0  0  0  0  0  0  0
   38.7350   31.9300   46.1340 C   0  0  0  0  0  0  0  0  0  0  0  0
   38.2620   32.4920   44.9740 C   0  0  0  0  0  0  0  0  0  0  0  0
   38.9690   32.4100   43.8310 N   0  0  0  0  0  0  0  0  0  0  0  0
   40.1310   31.8080   43.7360 C   0  0  0  0  0  0  0  0  0  0  0  0
   40.6380   31.2470   44.8220 N   0  0  0  0  0  0  0  0  0  0  0  0
   40.4580   30.8040   46.8730 H   0  0  0  0  0  0  0  0  0  0  0  0
   37.2960   32.9890   45.0680 H   0  0  0  0  0  0  0  0  0  0  0  0
   40.5930   31.8170   42.7530 H   0  0  0  0  0  0  0  0  0  0  0  0
   35.1870   29.9880   46.9610 C   0  0  0  0  0  0  0  0  0  0  0  0
   34.5280   30.7040   47.8160 O   0  0  0  0  0  0  0  0  0  0  0  0
   36.6310   30.1010   46.9390 N   0  0  0  0  0  0  0  0  0  0  0  0
   37.2160   29.5420   46.3150 H   0  0  0  0  0  0  0  0  0  0  0  0
   34.5010   29.1550   46.1130 O   0  0  0  0  0  0  0  0  0  0  0  0
   33.1130   29.0860   46.0310 C   0  0  0  0  0  0  0  0  0  0  0  0
   32.4920   29.0600   44.8720 O   0  0  0  0  0  0  0  0  0  0  0  0
   32.1630   29.0110   47.0880 N   0  0  0  0  0  0  0  0  0  0  0  0
   31.3200   29.6470   46.9630 H   0  0  0  0  0  0  0  0  0  0  0  0
   32.4280   27.9590   48.4250 S   0  0  0  0  0  0  0  0  0  0  0  0
   31.0490   27.5970   48.9540 O   0  0  0  0  0  1  0  0  0  0  0  0
   33.1440   26.7160   48.0050 O   0  0  0  0  0  1  0  0  0  0  0  0
   33.2090   28.7230   49.6930 O   0  0  0  0  0  0  0  0  0  0  0  0
   33.7230   29.5220   49.4220 H   0  0  0  0  0  0  0  0  0  0  0  0
  1  6  2  0  0  0  0
  1  2  1  0  0  0  0
  2  3  2  0  0  0  0
  3  4  1  0  0  0  0
  3  8  1  0  0  0  0
  4  9  1  0  0  0  0
  5 10  1  0  0  0  0
  5  4  2  0  0  0  0
  6  5  1  0  0  0  0
  7  2  1  0  0  0  0
 11 12  1  0  0  0  0
 11 17  1  0  0  0  0
 12  1  1  0  0  0  0
 13 18  1  0  0  0  0
 13 12  2  0  0  0  0
 14 13  1  0  0  0  0
 15 14  2  0  0  0  0
 15 16  1  0  0  0  0
 16 11  2  0  0  0  0
 19 15  1  0  0  0  0
 20 21  2  0  0  0  0
 22 20  1  0  0  0  0
 22  6  1  0  0  0  0
 23 22  1  0  0  0  0
 24 20  1  0  0  0  0
 25 24  1  0  0  0  0
 25 27  1  0  0  0  0
 26 25  2  0  0  0  0
 27 29  1  0  0  0  0
 28 27  1  0  0  0  0
 29 30  1  0  0  0  0
 29 32  1  0  0  0  0
 31 29  1  0  0  0  0
 33 32  1  0  0  0  0
M  END
>  <minimizedAffinity>
-5.91207743

>  <minimizedRMSD>
1.91422069

$$$$
