
 OpenBabel03272510323D

 26 27  0  0  0  0  0  0  0  0999 V2000
   35.9080   30.1420   47.2220 C   0  0  0  0  0  0  0  0  0  0  0  0
   34.8930   30.2210   46.3200 C   0  0  0  0  0  0  0  0  0  0  0  0
   33.6950   29.5660   46.4730 C   0  0  0  0  0  0  0  0  0  0  0  0
   33.5380   28.8010   47.6000 C   0  0  0  0  0  0  0  0  0  0  0  0
   34.5370   28.6930   48.5380 C   0  0  0  0  0  0  0  0  0  0  0  0
   35.7330   29.3650   48.3540 C   0  0  0  0  0  0  0  0  0  0  0  0
   35.0090   30.8280   45.4180 H   0  0  0  0  0  0  0  0  0  0  0  0
   32.9150   29.6660   45.7160 H   0  0  0  0  0  0  0  0  0  0  0  0
   32.5760   28.2960   47.6900 H   0  0  0  0  0  0  0  0  0  0  0  0
   34.2990   28.0640   49.3830 H   0  0  0  0  0  0  0  0  0  0  0  0
   38.6820   32.4340   47.7360 C   0  0  0  0  0  0  0  0  0  0  0  0
   39.4250   32.3570   46.5620 C   0  0  0  0  0  0  0  0  0  0  0  0
   38.9480   31.4860   45.5700 C   0  0  0  0  0  0  0  0  0  0  0  0
   37.8060   30.7670   45.7860 N   0  0  0  0  0  0  0  0  0  0  0  0
   37.1240   30.8860   46.9560 C   0  0  0  0  0  0  0  0  0  0  0  0
   37.5640   31.7230   47.9360 N   0  0  0  0  0  0  0  0  0  0  0  0
   39.0610   33.1080   48.4900 H   0  0  0  0  0  0  0  0  0  0  0  0
   40.3270   32.9060   46.3530 H   0  0  0  0  0  0  0  0  0  0  0  0
   39.4600   31.3580   44.6190 H   0  0  0  0  0  0  0  0  0  0  0  0
   36.7440   29.2430   49.3150 N   0  0  0  0  0  0  0  0  0  0  0  0
   37.6830   28.8450   49.0090 H   0  0  0  0  0  0  0  0  0  0  0  0
   36.8490   29.5950   50.9690 S   0  0  0  0  0  0  0  0  0  0  0  0
   35.6320   29.2690   51.7750 O   0  0  0  0  0  1  0  0  0  0  0  0
   37.2870   31.0100   51.1480 O   0  0  0  0  0  1  0  0  0  0  0  0
   38.0840   28.6110   51.6010 O   0  0  0  0  0  0  0  0  0  0  0  0
   38.0520   27.7080   51.1590 H   0  0  0  0  0  0  0  0  0  0  0  0
  1  6  1  0  0  0  0
  2  3  1  0  0  0  0
  2  1  2  0  0  0  0
  3  4  2  0  0  0  0
  4  9  1  0  0  0  0
  4  5  1  0  0  0  0
  5 10  1  0  0  0  0
  6  5  2  0  0  0  0
  6 20  1  0  0  0  0
  7  2  1  0  0  0  0
  8  3  1  0  0  0  0
 11 16  1  0  0  0  0
 11 17  1  0  0  0  0
 12 11  2  0  0  0  0
 13 14  2  0  0  0  0
 13 12  1  0  0  0  0
 14 15  1  0  0  0  0
 15  1  1  0  0  0  0
 15 16  2  0  0  0  0
 18 12  1  0  0  0  0
 19 13  1  0  0  0  0
 20 22  1  0  0  0  0
 21 20  1  0  0  0  0
 22 24  1  0  0  0  0
 22 25  1  0  0  0  0
 22 23  1  0  0  0  0
 26 25  1  0  0  0  0
M  END
>  <minimizedAffinity>
-4.81362963

>  <minimizedRMSD>
1.77158916

$$$$
