
 OpenBabel03272500593D

 33 34  0  0  0  0  0  0  0  0999 V2000
   38.0820   31.8720   47.4320 C   0  0  0  0  0  0  0  0  0  0  0  0
   38.5680   32.7580   48.3490 C   0  0  0  0  0  0  0  0  0  0  0  0
   38.0680   32.8270   49.6590 C   0  0  0  0  0  0  0  0  0  0  0  0
   37.0020   31.9120   50.0140 C   0  0  0  0  0  0  0  0  0  0  0  0
   36.5640   31.0570   49.0580 C   0  0  0  0  0  0  0  0  0  0  0  0
   37.0490   30.9990   47.8030 C   0  0  0  0  0  0  0  0  0  0  0  0
   39.3780   33.4640   48.1050 H   0  0  0  0  0  0  0  0  0  0  0  0
   38.5000   33.5530   50.3320 H   0  0  0  0  0  0  0  0  0  0  0  0
   36.7320   32.0830   51.0280 H   0  0  0  0  0  0  0  0  0  0  0  0
   35.8050   30.4660   49.5460 H   0  0  0  0  0  0  0  0  0  0  0  0
   39.9600   31.2580   46.0020 C   0  0  0  0  0  0  0  0  0  0  0  0
   38.7090   31.9040   46.1340 C   0  0  0  0  0  0  0  0  0  0  0  0
   38.2410   32.4870   44.9820 C   0  0  0  0  0  0  0  0  0  0  0  0
   38.9500   32.4210   43.8400 N   0  0  0  0  0  0  0  0  0  0  0  0
   40.1100   31.8160   43.7370 C   0  0  0  0  0  0  0  0  0  0  0  0
   40.6130   31.2360   44.8150 N   0  0  0  0  0  0  0  0  0  0  0  0
   40.4260   30.7600   46.8580 H   0  0  0  0  0  0  0  0  0  0  0  0
   37.2760   32.9860   45.0820 H   0  0  0  0  0  0  0  0  0  0  0  0
   40.5740   31.8410   42.7560 H   0  0  0  0  0  0  0  0  0  0  0  0
   35.1000   29.9870   46.9610 C   0  0  0  0  0  0  0  0  0  0  0  0
   34.4740   30.6400   47.8880 O   0  0  0  0  0  0  0  0  0  0  0  0
   36.5400   30.1250   46.8770 N   0  0  0  0  0  0  0  0  0  0  0  0
   37.1020   29.6140   46.1940 H   0  0  0  0  0  0  0  0  0  0  0  0
   34.3860   29.1940   46.0990 O   0  0  0  0  0  0  0  0  0  0  0  0
   33.0320   29.3590   45.8150 C   0  0  0  0  0  0  0  0  0  0  0  0
   32.5980   29.4820   44.5810 O   0  0  0  0  0  0  0  0  0  0  0  0
   31.9350   29.4030   46.7200 N   0  0  0  0  0  0  0  0  0  0  0  0
   31.3730   30.3040   46.6820 H   0  0  0  0  0  0  0  0  0  0  0  0
   31.6090   28.0700   47.7610 S   0  0  0  0  0  0  0  0  0  0  0  0
   30.1010   28.0430   47.9490 O   0  0  0  0  0  1  0  0  0  0  0  0
   32.0600   26.7820   47.1510 O   0  0  0  0  0  1  0  0  0  0  0  0
   32.2480   28.2860   49.2920 O   0  0  0  0  0  0  0  0  0  0  0  0
   32.9980   28.9280   49.3250 H   0  0  0  0  0  0  0  0  0  0  0  0
  1  6  2  0  0  0  0
  1  2  1  0  0  0  0
  2  3  2  0  0  0  0
  3  4  1  0  0  0  0
  3  8  1  0  0  0  0
  4  9  1  0  0  0  0
  5 10  1  0  0  0  0
  5  4  2  0  0  0  0
  6  5  1  0  0  0  0
  7  2  1  0  0  0  0
 11 12  1  0  0  0  0
 11 17  1  0  0  0  0
 12  1  1  0  0  0  0
 13 18  1  0  0  0  0
 13 12  2  0  0  0  0
 14 13  1  0  0  0  0
 15 14  2  0  0  0  0
 15 16  1  0  0  0  0
 16 11  2  0  0  0  0
 19 15  1  0  0  0  0
 20 21  2  0  0  0  0
 22 20  1  0  0  0  0
 22  6  1  0  0  0  0
 23 22  1  0  0  0  0
 24 20  1  0  0  0  0
 25 24  1  0  0  0  0
 25 27  1  0  0  0  0
 26 25  2  0  0  0  0
 27 29  1  0  0  0  0
 28 27  1  0  0  0  0
 29 30  1  0  0  0  0
 29 32  1  0  0  0  0
 31 29  1  0  0  0  0
 32 33  1  0  0  0  0
M  END
>  <minimizedAffinity>
-5.83576488

>  <minimizedRMSD>
1.75803041

$$$$
