
     RDKit          3D

 43 46  0  0  0  0  0  0  0  0999 V2000
   36.2381   30.1860   46.8601 C   0  0  0  0  0  0  0  0  0  0  0  0
   37.0839   30.7584   47.8082 C   0  0  0  0  0  0  0  0  0  0  0  0
   38.0639   31.6698   47.4397 C   0  0  0  0  0  0  0  0  0  0  0  0
   38.1546   31.9771   46.0871 C   0  0  0  0  0  0  0  0  0  0  0  0
   39.0255   32.8376   45.4809 N   0  0  0  0  0  0  0  0  0  0  0  0
   38.7331   32.8081   44.1695 C   0  0  0  0  0  0  0  0  0  0  0  0
   37.7346   31.9777   43.9489 N   0  0  0  0  0  0  0  0  0  0  0  0
   37.3426   31.4377   45.1162 C   0  0  0  0  0  0  0  0  0  0  0  0
   36.3565   30.5162   45.5132 C   0  0  0  0  0  0  0  0  0  0  0  0
   37.5171   30.1431   51.4898 C   0  0  0  0  0  0  0  0  0  0  0  0
   37.8046   30.5742   50.2026 C   0  0  0  0  0  0  0  0  0  0  0  0
   36.8869   30.3531   49.1824 C   0  0  0  0  0  0  0  0  0  0  0  0
   35.7348   29.7119   49.5166 N   0  0  0  0  0  0  0  0  0  0  0  0
   35.4541   29.2928   50.7651 C   0  0  0  0  0  0  0  0  0  0  0  0
   36.3316   29.5068   51.7288 N   0  0  0  0  0  0  0  0  0  0  0  0
   39.4290   33.5747   43.2330 O   0  0  0  0  0  0  0  0  0  0  0  0
   39.5785   31.8704   41.7125 N   0  0  0  0  0  0  0  0  0  0  0  0
   39.2032   33.2477   41.8744 C   0  0  1  0  0  0  0  0  0  0  0  0
   37.8065   33.4466   41.5116 C   0  0  0  0  0  0  0  0  0  0  0  0
   37.6400   33.1212   40.1540 O   0  0  0  0  0  0  0  0  0  0  0  0
   38.0650   31.8788   39.7903 C   0  0  0  0  0  0  0  0  0  0  0  0
   39.4409   31.5468   40.3249 C   0  0  1  0  0  0  0  0  0  0  0  0
   35.4617   29.4721   47.1050 H   0  0  0  0  0  0  0  0  0  0  0  0
   38.7096   32.1064   48.1656 H   0  0  0  0  0  0  0  0  0  0  0  0
   39.7558   33.3905   45.9575 H   0  0  0  0  0  0  0  0  0  0  0  0
   35.7179   30.0913   44.7537 H   0  0  0  0  0  0  0  0  0  0  0  0
   38.2724   30.3460   52.2362 H   0  0  0  0  0  0  0  0  0  0  0  0
   38.7268   31.0878   49.9340 H   0  0  0  0  0  0  0  0  0  0  0  0
   34.5178   28.7868   50.9696 H   0  0  0  0  0  0  0  0  0  0  0  0
   39.3321   31.1877   42.3813 H   0  0  0  0  0  0  0  0  0  0  0  0
   39.8613   33.8852   41.2692 H   0  0  0  0  0  0  0  0  0  0  0  0
   37.6195   34.5640   41.5265 H   0  0  0  0  0  0  0  0  0  0  0  0
   36.9780   32.9993   41.9870 H   0  0  0  0  0  0  0  0  0  0  0  0
   38.1319   31.8365   38.7043 H   0  0  0  0  0  0  0  0  0  0  0  0
   37.3738   31.0828   40.1632 H   0  0  0  0  0  0  0  0  0  0  0  0
   39.5666   30.4353   40.1821 H   0  0  0  0  0  0  0  0  0  0  0  0
   40.4233   32.1671   39.4883 N   0  0  0  0  0  0  0  0  0  0  0  0
   41.3195   32.3128   40.0296 H   0  0  0  0  0  0  0  0  0  0  0  0
   40.7704   31.2109   38.0943 S   0  0  0  0  0  0  0  0  0  0  0  0
   39.5044   31.0467   37.2981 O   0  0  0  0  0  0  0  0  0  0  0  0
   41.3029   29.8595   38.4204 O   0  0  0  0  0  0  0  0  0  0  0  0
   41.8679   32.0525   37.1280 O   0  0  0  0  0  0  0  0  0  0  0  0
   42.4937   32.5818   37.6855 H   0  0  0  0  0  0  0  0  0  0  0  0
  1  2  2  0
  2 12  1  0
  3  2  1  0
  4  3  2  0
  5  4  1  0
  6  5  1  0
  7  6  2  0
  7  8  1  0
  8  9  2  0
  8  4  1  0
  9  1  1  0
 10 15  2  0
 11 10  1  0
 12 13  1  0
 12 11  2  0
 13 14  2  0
 14 15  1  0
 16  6  1  0
 17 18  1  0
 18 16  1  0
 19 18  1  0
 20 19  1  0
 21 20  1  0
 21 22  1  0
 22 17  1  0
  1 23  1  0
  3 24  1  0
  5 25  1  0
  9 26  1  0
 10 27  1  0
 11 28  1  0
 14 29  1  0
 17 30  1  0
 18 31  1  6
 19 32  1  0
 19 33  1  0
 21 34  1  0
 21 35  1  0
 22 36  1  1
 37 38  1  0
 37 39  1  0
 39 40  2  0
 39 41  2  0
 39 42  1  0
 42 43  1  0
 22 37  1  0
M  ISO  8  23  14  24  14  25   9  26  14  27  14  28  14  29  14  30   5
M  ISO  8  31  13  32  13  33  13  34  13  35  13  36  13  38   5  43   3
M  END
>  <DihAtoms>  (1) 
20,21,36,37

>  <DihDeg>  (1) 
125.81325812543898

$$$$
