
 OpenBabel03272503063D

 30 31  0  0  0  0  0  0  0  0999 V2000
   37.8790   29.9380   47.2590 F   0  0  0  0  0  0  0  0  0  0  0  0
   38.3540   31.1580   47.6090 C   0  0  0  0  0  0  0  0  0  0  0  0
   38.0730   31.6880   48.8420 C   0  0  0  0  0  0  0  0  0  0  0  0
   38.5850   32.9210   49.1250 C   0  0  0  0  0  0  0  0  0  0  0  0
   39.3540   33.6310   48.2310 C   0  0  0  0  0  0  0  0  0  0  0  0
   39.6270   33.0850   46.9960 C   0  0  0  0  0  0  0  0  0  0  0  0
   39.1250   31.8370   46.6760 C   0  0  0  0  0  0  0  0  0  0  0  0
   38.3670   33.3420   50.0950 H   0  0  0  0  0  0  0  0  0  0  0  0
   39.7650   34.6090   48.4430 H   0  0  0  0  0  0  0  0  0  0  0  0
   40.2240   33.5500   46.2030 H   0  0  0  0  0  0  0  0  0  0  0  0
   36.9080   29.6180   51.7870 C   0  0  0  0  0  0  0  0  0  0  0  0
   37.7280   30.3770   50.9440 C   0  0  0  0  0  0  0  0  0  0  0  0
   37.2540   30.8930   49.7490 C   0  0  0  0  0  0  0  0  0  0  0  0
   35.9430   30.6120   49.4530 N   0  0  0  0  0  0  0  0  0  0  0  0
   35.1700   29.8830   50.2720 C   0  0  0  0  0  0  0  0  0  0  0  0
   35.6430   29.3910   51.4230 N   0  0  0  0  0  0  0  0  0  0  0  0
   37.3450   29.2580   52.6840 H   0  0  0  0  0  0  0  0  0  0  0  0
   38.7670   30.5810   51.2100 H   0  0  0  0  0  0  0  0  0  0  0  0
   34.1270   29.6700   50.0170 H   0  0  0  0  0  0  0  0  0  0  0  0
   38.5000   31.6640   44.3680 C   0  0  0  0  0  0  0  0  0  0  0  0
   37.5920   32.4690   44.7410 O   0  0  0  0  0  0  0  0  0  0  0  0
   39.3830   31.2280   45.4020 N   0  0  0  0  0  0  0  0  0  0  0  0
   40.1030   30.5300   45.1270 H   0  0  0  0  0  0  0  0  0  0  0  0
   38.6070   31.2450   43.0120 N   0  0  0  0  0  0  0  0  0  0  0  0
   37.7980   31.4120   42.3640 H   0  0  0  0  0  0  0  0  0  0  0  0
   40.0150   30.4700   42.3780 S   0  0  0  0  0  0  0  0  0  0  0  0
   40.5310   31.2460   41.2280 O   0  0  0  0  0  1  0  0  0  0  0  0
   39.6780   29.0740   41.9000 O   0  0  0  0  0  1  0  0  0  0  0  0
   41.1460   30.2910   43.6140 O   0  0  0  0  0  0  0  0  0  0  0  0
   42.0750   30.3470   43.2750 H   0  0  0  0  0  0  0  0  0  0  0  0
  1  2  1  0  0  0  0
  2  3  1  0  0  0  0
  3  4  2  0  0  0  0
  3 13  1  0  0  0  0
  4  8  1  0  0  0  0
  5  9  1  0  0  0  0
  5  4  1  0  0  0  0
  6  5  2  0  0  0  0
  7  6  1  0  0  0  0
  7  2  2  0  0  0  0
 10  6  1  0  0  0  0
 11 17  1  0  0  0  0
 12 18  1  0  0  0  0
 12 11  2  0  0  0  0
 13 12  1  0  0  0  0
 14 13  2  0  0  0  0
 14 15  1  0  0  0  0
 15 16  2  0  0  0  0
 16 11  1  0  0  0  0
 19 15  1  0  0  0  0
 20 21  2  0  0  0  0
 20 22  1  0  0  0  0
 22  7  1  0  0  0  0
 23 22  1  0  0  0  0
 24 20  1  0  0  0  0
 25 24  1  0  0  0  0
 26 24  1  0  0  0  0
 26 29  1  0  0  0  0
 27 26  1  0  0  0  0
 28 26  1  0  0  0  0
 30 29  1  0  0  0  0
M  END
>  <minimizedAffinity>
-6.16032171

>  <minimizedRMSD>
0.959524393

$$$$
