
 OpenBabel03272510323D

 26 27  0  0  0  0  0  0  0  0999 V2000
   37.0620   30.6900   45.8980 C   0  0  0  0  0  0  0  0  0  0  0  0
   36.0810   30.4760   44.9810 C   0  0  0  0  0  0  0  0  0  0  0  0
   34.8360   29.9960   45.3060 C   0  0  0  0  0  0  0  0  0  0  0  0
   34.5930   29.7250   46.6280 C   0  0  0  0  0  0  0  0  0  0  0  0
   35.5550   29.9250   47.5890 C   0  0  0  0  0  0  0  0  0  0  0  0
   36.8000   30.4110   47.2290 C   0  0  0  0  0  0  0  0  0  0  0  0
   36.2650   30.6880   43.9250 H   0  0  0  0  0  0  0  0  0  0  0  0
   34.0860   29.8430   44.5270 H   0  0  0  0  0  0  0  0  0  0  0  0
   33.5960   29.3460   46.8510 H   0  0  0  0  0  0  0  0  0  0  0  0
   35.2500   29.6780   48.5950 H   0  0  0  0  0  0  0  0  0  0  0  0
   39.8050   33.0160   45.3740 C   0  0  0  0  0  0  0  0  0  0  0  0
   40.7280   32.3070   44.6110 C   0  0  0  0  0  0  0  0  0  0  0  0
   40.3850   30.9880   44.2720 C   0  0  0  0  0  0  0  0  0  0  0  0
   39.1940   30.4650   44.6920 N   0  0  0  0  0  0  0  0  0  0  0  0
   38.3340   31.2090   45.4360 C   0  0  0  0  0  0  0  0  0  0  0  0
   38.6410   32.4910   45.7800 N   0  0  0  0  0  0  0  0  0  0  0  0
   40.0820   34.0290   45.6270 H   0  0  0  0  0  0  0  0  0  0  0  0
   41.6730   32.6830   44.2610 H   0  0  0  0  0  0  0  0  0  0  0  0
   41.0400   30.3560   43.6790 H   0  0  0  0  0  0  0  0  0  0  0  0
   37.7730   30.6070   48.2170 N   0  0  0  0  0  0  0  0  0  0  0  0
   38.6470   30.0000   48.1910 H   0  0  0  0  0  0  0  0  0  0  0  0
   37.9100   31.6480   49.5470 S   0  0  0  0  0  0  0  0  0  0  0  0
   36.6190   32.0640   50.1750 O   0  0  0  0  0  1  0  0  0  0  0  0
   38.7650   32.8160   49.1780 O   0  0  0  0  0  1  0  0  0  0  0  0
   38.7420   30.7890   50.7570 O   0  0  0  0  0  0  0  0  0  0  0  0
   38.4480   29.8270   50.7470 H   0  0  0  0  0  0  0  0  0  0  0  0
  1  6  1  0  0  0  0
  2  3  1  0  0  0  0
  2  1  2  0  0  0  0
  3  4  2  0  0  0  0
  4  9  1  0  0  0  0
  4  5  1  0  0  0  0
  5 10  1  0  0  0  0
  6  5  2  0  0  0  0
  6 20  1  0  0  0  0
  7  2  1  0  0  0  0
  8  3  1  0  0  0  0
 11 17  1  0  0  0  0
 11 16  1  0  0  0  0
 12 11  2  0  0  0  0
 13 12  1  0  0  0  0
 13 14  2  0  0  0  0
 14 15  1  0  0  0  0
 15 16  2  0  0  0  0
 15  1  1  0  0  0  0
 18 12  1  0  0  0  0
 19 13  1  0  0  0  0
 20 22  1  0  0  0  0
 21 20  1  0  0  0  0
 22 23  1  0  0  0  0
 22 25  1  0  0  0  0
 24 22  1  0  0  0  0
 26 25  1  0  0  0  0
M  END
>  <minimizedAffinity>
-5.20569277

>  <minimizedRMSD>
3.58362818

$$$$
