
 OpenBabel03272510183D

 26 27  0  0  0  0  0  0  0  0999 V2000
   34.7570   31.7530   32.2430 Br  0  0  0  0  0  0  0  0  0  0  0  0
   35.6240   30.1540   32.7990 C   0  0  0  0  0  0  0  0  0  0  0  0
   35.5820   29.7420   34.1130 C   0  0  0  0  0  0  0  0  0  0  0  0
   36.2370   28.5690   34.4380 C   0  0  0  0  0  0  0  0  0  0  0  0
   36.9240   27.8020   33.5120 C   0  0  0  0  0  0  0  0  0  0  0  0
   36.9480   28.2370   32.2130 C   0  0  0  0  0  0  0  0  0  0  0  0
   36.2960   29.4150   31.8640 C   0  0  0  0  0  0  0  0  0  0  0  0
   36.1980   28.2490   35.4860 H   0  0  0  0  0  0  0  0  0  0  0  0
   37.4880   27.6290   31.4990 H   0  0  0  0  0  0  0  0  0  0  0  0
   36.3700   29.6800   30.8110 H   0  0  0  0  0  0  0  0  0  0  0  0
   34.9790   32.1520   36.7820 C   0  0  0  0  0  0  0  0  0  0  0  0
   33.5860   32.0400   37.0360 C   0  0  0  0  0  0  0  0  0  0  0  0
   32.8830   31.1240   36.2710 C   0  0  0  0  0  0  0  0  0  0  0  0
   33.5360   30.3780   35.3210 N   0  0  0  0  0  0  0  0  0  0  0  0
   34.8690   30.5240   35.1170 C   0  0  0  0  0  0  0  0  0  0  0  0
   35.5900   31.4140   35.8500 N   0  0  0  0  0  0  0  0  0  0  0  0
   35.6080   32.8450   37.3350 H   0  0  0  0  0  0  0  0  0  0  0  0
   33.1600   32.6650   37.8010 H   0  0  0  0  0  0  0  0  0  0  0  0
   31.8290   31.0280   36.4530 H   0  0  0  0  0  0  0  0  0  0  0  0
   37.5510   26.6120   34.0080 N   0  0  0  0  0  0  0  0  0  0  0  0
   37.0190   25.7880   33.7200 H   0  0  0  0  0  0  0  0  0  0  0  0
   38.9960   26.6000   34.9510 S   0  0  0  0  0  0  0  0  0  0  0  0
   39.3990   25.1990   35.2460 O   0  0  0  0  0  1  0  0  0  0  0  0
   40.0990   27.2270   34.1110 O   0  0  0  0  0  1  0  0  0  0  0  0
   38.8680   27.5510   36.3290 O   0  0  0  0  0  0  0  0  0  0  0  0
   38.4180   27.0040   37.0280 H   0  0  0  0  0  0  0  0  0  0  0  0
  1  2  1  0  0  0  0
  2  3  1  0  0  0  0
  3  4  2  0  0  0  0
  3 15  1  0  0  0  0
  4  8  1  0  0  0  0
  5 20  1  0  0  0  0
  5  4  1  0  0  0  0
  6  5  2  0  0  0  0
  7  6  1  0  0  0  0
  7  2  2  0  0  0  0
  9  6  1  0  0  0  0
 10  7  1  0  0  0  0
 11 12  1  0  0  0  0
 11 17  1  0  0  0  0
 12 18  1  0  0  0  0
 13 19  1  0  0  0  0
 13 12  2  0  0  0  0
 14 13  1  0  0  0  0
 15 14  2  0  0  0  0
 15 16  1  0  0  0  0
 16 11  2  0  0  0  0
 20 22  1  0  0  0  0
 21 20  1  0  0  0  0
 22 23  1  0  0  0  0
 22 25  1  0  0  0  0
 24 22  1  0  0  0  0
 25 26  1  0  0  0  0
M  END
>  <minimizedAffinity>
-4.93644571

$$$$

 OpenBabel03272510183D

 26 27  0  0  0  0  0  0  0  0999 V2000
   39.0560   25.8230   34.4700 Br  0  0  0  0  0  0  0  0  0  0  0  0
   38.4140   24.1630   33.7990 C   0  0  0  0  0  0  0  0  0  0  0  0
   38.2010   23.0910   34.6370 C   0  0  0  0  0  0  0  0  0  0  0  0
   37.7330   21.9190   34.0730 C   0  0  0  0  0  0  0  0  0  0  0  0
   37.4720   21.7790   32.7200 C   0  0  0  0  0  0  0  0  0  0  0  0
   37.6920   22.8640   31.9110 C   0  0  0  0  0  0  0  0  0  0  0  0
   38.1630   24.0530   32.4580 C   0  0  0  0  0  0  0  0  0  0  0  0
   37.5670   21.0710   34.7480 H   0  0  0  0  0  0  0  0  0  0  0  0
   37.4840   22.7430   30.8560 H   0  0  0  0  0  0  0  0  0  0  0  0
   38.3080   24.8570   31.7400 H   0  0  0  0  0  0  0  0  0  0  0  0
   39.9490   22.8200   37.8260 C   0  0  0  0  0  0  0  0  0  0  0  0
   39.0370   23.3720   38.7640 C   0  0  0  0  0  0  0  0  0  0  0  0
   37.8270   23.8290   38.2660 C   0  0  0  0  0  0  0  0  0  0  0  0
   37.5590   23.7360   36.9220 N   0  0  0  0  0  0  0  0  0  0  0  0
   38.4650   23.1990   36.0670 C   0  0  0  0  0  0  0  0  0  0  0  0
   39.6620   22.7410   36.5230 N   0  0  0  0  0  0  0  0  0  0  0  0
   40.9200   22.4370   38.1280 H   0  0  0  0  0  0  0  0  0  0  0  0
   39.3310   23.4040   39.7980 H   0  0  0  0  0  0  0  0  0  0  0  0
   37.1270   24.2480   38.9640 H   0  0  0  0  0  0  0  0  0  0  0  0
   36.9900   20.5000   32.2910 N   0  0  0  0  0  0  0  0  0  0  0  0
   37.6420   20.0850   31.6220 H   0  0  0  0  0  0  0  0  0  0  0  0
   35.5180   19.7850   32.8410 S   0  0  0  0  0  0  0  0  0  0  0  0
   34.3710   20.3200   32.0600 O   0  0  0  0  0  1  0  0  0  0  0  0
   35.6020   18.2900   32.5660 O   0  0  0  0  0  1  0  0  0  0  0  0
   35.3130   19.9380   34.5000 O   0  0  0  0  0  0  0  0  0  0  0  0
   34.9290   20.8400   34.6710 H   0  0  0  0  0  0  0  0  0  0  0  0
  2  1  1  0  0  0  0
  2  3  1  0  0  0  0
  3 15  1  0  0  0  0
  4  3  2  0  0  0  0
  4  8  1  0  0  0  0
  5  4  1  0  0  0  0
  6  7  1  0  0  0  0
  6  5  2  0  0  0  0
  7  2  2  0  0  0  0
  9  6  1  0  0  0  0
 10  7  1  0  0  0  0
 11 17  1  0  0  0  0
 11 12  1  0  0  0  0
 12 18  1  0  0  0  0
 13 12  2  0  0  0  0
 13 19  1  0  0  0  0
 14 13  1  0  0  0  0
 15 16  1  0  0  0  0
 15 14  2  0  0  0  0
 16 11  2  0  0  0  0
 20  5  1  0  0  0  0
 20 22  1  0  0  0  0
 21 20  1  0  0  0  0
 22 25  1  0  0  0  0
 23 22  1  0  0  0  0
 24 22  1  0  0  0  0
 25 26  1  0  0  0  0
M  END
>  <minimizedAffinity>
-4.75152588

$$$$

 OpenBabel03272510183D

 26 27  0  0  0  0  0  0  0  0999 V2000
   36.1840   25.1900   31.0770 Br  0  0  0  0  0  0  0  0  0  0  0  0
   37.1090   24.8380   32.7010 C   0  0  0  0  0  0  0  0  0  0  0  0
   37.4550   23.5530   33.0590 C   0  0  0  0  0  0  0  0  0  0  0  0
   38.1260   23.3800   34.2540 C   0  0  0  0  0  0  0  0  0  0  0  0
   38.4630   24.4270   35.0950 C   0  0  0  0  0  0  0  0  0  0  0  0
   38.1070   25.6940   34.7120 C   0  0  0  0  0  0  0  0  0  0  0  0
   37.4300   25.8920   33.5130 C   0  0  0  0  0  0  0  0  0  0  0  0
   38.3960   22.3530   34.5310 H   0  0  0  0  0  0  0  0  0  0  0  0
   38.3750   26.5040   35.3770 H   0  0  0  0  0  0  0  0  0  0  0  0
   37.1900   26.9300   33.2930 H   0  0  0  0  0  0  0  0  0  0  0  0
   35.5180   20.8520   31.5590 C   0  0  0  0  0  0  0  0  0  0  0  0
   36.4040   20.2830   30.6060 C   0  0  0  0  0  0  0  0  0  0  0  0
   37.6630   20.8540   30.5040 C   0  0  0  0  0  0  0  0  0  0  0  0
   38.0010   21.9180   31.3040 N   0  0  0  0  0  0  0  0  0  0  0  0
   37.1160   22.4240   32.2000 C   0  0  0  0  0  0  0  0  0  0  0  0
   35.8730   21.8880   32.3250 N   0  0  0  0  0  0  0  0  0  0  0  0
   34.5120   20.4670   31.7060 H   0  0  0  0  0  0  0  0  0  0  0  0
   36.0550   19.4510   30.0230 H   0  0  0  0  0  0  0  0  0  0  0  0
   38.3450   20.4350   29.7880 H   0  0  0  0  0  0  0  0  0  0  0  0
   39.1590   24.0820   36.2990 N   0  0  0  0  0  0  0  0  0  0  0  0
   40.1690   24.1600   36.1570 H   0  0  0  0  0  0  0  0  0  0  0  0
   38.3820   23.6060   37.7650 S   0  0  0  0  0  0  0  0  0  0  0  0
   37.9940   24.8100   38.5480 O   0  0  0  0  0  1  0  0  0  0  0  0
   37.1040   22.8710   37.3900 O   0  0  0  0  0  1  0  0  0  0  0  0
   39.3000   22.5140   38.6500 O   0  0  0  0  0  0  0  0  0  0  0  0
   39.9590   23.0390   39.1800 H   0  0  0  0  0  0  0  0  0  0  0  0
  1  2  1  0  0  0  0
  2  3  2  0  0  0  0
  2  7  1  0  0  0  0
  3  4  1  0  0  0  0
  4  8  1  0  0  0  0
  4  5  2  0  0  0  0
  5 20  1  0  0  0  0
  6  5  1  0  0  0  0
  6  9  1  0  0  0  0
  7  6  2  0  0  0  0
 10  7  1  0  0  0  0
 11 17  1  0  0  0  0
 11 16  1  0  0  0  0
 12 11  2  0  0  0  0
 13 12  1  0  0  0  0
 13 14  2  0  0  0  0
 14 15  1  0  0  0  0
 15 16  2  0  0  0  0
 15  3  1  0  0  0  0
 18 12  1  0  0  0  0
 19 13  1  0  0  0  0
 20 22  1  0  0  0  0
 21 20  1  0  0  0  0
 22 23  1  0  0  0  0
 22 25  1  0  0  0  0
 24 22  1  0  0  0  0
 25 26  1  0  0  0  0
M  END
>  <minimizedAffinity>
-4.75017834

$$$$

 OpenBabel03272510183D

 26 27  0  0  0  0  0  0  0  0999 V2000
   36.1210   27.0900   31.7330 Br  0  0  0  0  0  0  0  0  0  0  0  0
   36.3210   25.2040   31.8730 C   0  0  0  0  0  0  0  0  0  0  0  0
   37.1910   24.6460   32.7840 C   0  0  0  0  0  0  0  0  0  0  0  0
   37.2790   23.2680   32.8240 C   0  0  0  0  0  0  0  0  0  0  0  0
   36.5400   22.4350   32.0010 C   0  0  0  0  0  0  0  0  0  0  0  0
   35.6820   23.0190   31.1060 C   0  0  0  0  0  0  0  0  0  0  0  0
   35.5770   24.4050   31.0480 C   0  0  0  0  0  0  0  0  0  0  0  0
   37.9760   22.8330   33.5510 H   0  0  0  0  0  0  0  0  0  0  0  0
   35.1090   22.3580   30.4680 H   0  0  0  0  0  0  0  0  0  0  0  0
   34.8720   24.7770   30.3070 H   0  0  0  0  0  0  0  0  0  0  0  0
   39.9790   26.6550   34.0030 C   0  0  0  0  0  0  0  0  0  0  0  0
   39.5530   27.0910   35.2850 C   0  0  0  0  0  0  0  0  0  0  0  0
   38.2980   26.6750   35.7010 C   0  0  0  0  0  0  0  0  0  0  0  0
   37.5320   25.8800   34.8840 N   0  0  0  0  0  0  0  0  0  0  0  0
   37.9870   25.4910   33.6670 C   0  0  0  0  0  0  0  0  0  0  0  0
   39.2140   25.8810   33.2270 N   0  0  0  0  0  0  0  0  0  0  0  0
   40.9490   26.9330   33.5970 H   0  0  0  0  0  0  0  0  0  0  0  0
   40.2190   27.7120   35.8560 H   0  0  0  0  0  0  0  0  0  0  0  0
   37.9620   26.9960   36.6690 H   0  0  0  0  0  0  0  0  0  0  0  0
   36.7450   21.0260   32.1660 N   0  0  0  0  0  0  0  0  0  0  0  0
   37.6780   20.7660   31.8380 H   0  0  0  0  0  0  0  0  0  0  0  0
   35.5710   19.9470   32.8270 S   0  0  0  0  0  0  0  0  0  0  0  0
   34.2890   20.0750   32.0830 O   0  0  0  0  0  1  0  0  0  0  0  0
   36.0820   18.5290   32.6210 O   0  0  0  0  0  1  0  0  0  0  0  0
   35.3910   20.1360   34.4850 O   0  0  0  0  0  0  0  0  0  0  0  0
   34.7630   20.8950   34.6320 H   0  0  0  0  0  0  0  0  0  0  0  0
  1  2  1  0  0  0  0
  2  3  1  0  0  0  0
  3  4  2  0  0  0  0
  3 15  1  0  0  0  0
  4  8  1  0  0  0  0
  5 20  1  0  0  0  0
  5  4  1  0  0  0  0
  6  5  2  0  0  0  0
  7  6  1  0  0  0  0
  7  2  2  0  0  0  0
  9  6  1  0  0  0  0
 10  7  1  0  0  0  0
 11 12  1  0  0  0  0
 12 13  2  0  0  0  0
 12 18  1  0  0  0  0
 13 19  1  0  0  0  0
 14 13  1  0  0  0  0
 15 14  2  0  0  0  0
 16 15  1  0  0  0  0
 16 11  2  0  0  0  0
 17 11  1  0  0  0  0
 20 22  1  0  0  0  0
 21 20  1  0  0  0  0
 22 25  1  0  0  0  0
 23 22  1  0  0  0  0
 24 22  1  0  0  0  0
 25 26  1  0  0  0  0
M  END
>  <minimizedAffinity>
-4.73226118

$$$$

 OpenBabel03272510183D

 26 27  0  0  0  0  0  0  0  0999 V2000
   37.2420   29.0270   29.7050 Br  0  0  0  0  0  0  0  0  0  0  0  0
   36.4850   29.6010   31.3520 C   0  0  0  0  0  0  0  0  0  0  0  0
   36.1170   28.6920   32.3210 C   0  0  0  0  0  0  0  0  0  0  0  0
   35.5740   29.1880   33.4910 C   0  0  0  0  0  0  0  0  0  0  0  0
   35.3890   30.5400   33.7290 C   0  0  0  0  0  0  0  0  0  0  0  0
   35.7650   31.4190   32.7480 C   0  0  0  0  0  0  0  0  0  0  0  0
   36.3130   30.9420   31.5620 C   0  0  0  0  0  0  0  0  0  0  0  0
   35.2840   28.4580   34.2560 H   0  0  0  0  0  0  0  0  0  0  0  0
   35.6150   32.4730   32.9450 H   0  0  0  0  0  0  0  0  0  0  0  0
   36.5820   31.7130   30.8420 H   0  0  0  0  0  0  0  0  0  0  0  0
   37.6130   25.3700   32.4620 C   0  0  0  0  0  0  0  0  0  0  0  0
   36.7030   24.5530   31.7410 C   0  0  0  0  0  0  0  0  0  0  0  0
   35.5820   25.1780   31.2180 C   0  0  0  0  0  0  0  0  0  0  0  0
   35.3950   26.5250   31.4090 N   0  0  0  0  0  0  0  0  0  0  0  0
   36.2960   27.2610   32.1060 C   0  0  0  0  0  0  0  0  0  0  0  0
   37.4070   26.6800   32.6330 N   0  0  0  0  0  0  0  0  0  0  0  0
   38.5190   24.9640   32.9060 H   0  0  0  0  0  0  0  0  0  0  0  0
   36.9310   23.5080   31.6400 H   0  0  0  0  0  0  0  0  0  0  0  0
   34.8840   24.5740   30.6690 H   0  0  0  0  0  0  0  0  0  0  0  0
   34.8140   30.8930   34.9940 N   0  0  0  0  0  0  0  0  0  0  0  0
   34.0810   30.2270   35.2460 H   0  0  0  0  0  0  0  0  0  0  0  0
   35.3070   32.2540   35.9350 S   0  0  0  0  0  0  0  0  0  0  0  0
   36.7540   32.5230   35.7190 O   0  0  0  0  0  1  0  0  0  0  0  0
   34.5340   33.4640   35.4330 O   0  0  0  0  0  1  0  0  0  0  0  0
   34.9040   32.0890   37.5570 O   0  0  0  0  0  0  0  0  0  0  0  0
   35.6170   31.5440   37.9870 H   0  0  0  0  0  0  0  0  0  0  0  0
  1  2  1  0  0  0  0
  2  7  2  0  0  0  0
  2  3  1  0  0  0  0
  3  4  2  0  0  0  0
  4  5  1  0  0  0  0
  4  8  1  0  0  0  0
  5 20  1  0  0  0  0
  6  9  1  0  0  0  0
  6  5  2  0  0  0  0
  7  6  1  0  0  0  0
 10  7  1  0  0  0  0
 11 16  1  0  0  0  0
 11 17  1  0  0  0  0
 12 11  2  0  0  0  0
 13 14  2  0  0  0  0
 13 12  1  0  0  0  0
 14 15  1  0  0  0  0
 15  3  1  0  0  0  0
 15 16  2  0  0  0  0
 18 12  1  0  0  0  0
 19 13  1  0  0  0  0
 20 21  1  0  0  0  0
 20 22  1  0  0  0  0
 22 25  1  0  0  0  0
 23 22  1  0  0  0  0
 24 22  1  0  0  0  0
 25 26  1  0  0  0  0
M  END
>  <minimizedAffinity>
-4.62158298

$$$$

 OpenBabel03272510183D

 26 27  0  0  0  0  0  0  0  0999 V2000
   38.6240   27.1340   35.5710 Br  0  0  0  0  0  0  0  0  0  0  0  0
   38.2840   25.7660   34.2940 C   0  0  0  0  0  0  0  0  0  0  0  0
   38.2420   24.4400   34.6650 C   0  0  0  0  0  0  0  0  0  0  0  0
   37.9880   23.5060   33.6780 C   0  0  0  0  0  0  0  0  0  0  0  0
   37.7770   23.8420   32.3520 C   0  0  0  0  0  0  0  0  0  0  0  0
   37.8240   25.1690   32.0130 C   0  0  0  0  0  0  0  0  0  0  0  0
   38.0780   26.1260   32.9890 C   0  0  0  0  0  0  0  0  0  0  0  0
   37.9580   22.4530   33.9840 H   0  0  0  0  0  0  0  0  0  0  0  0
   37.6580   25.4190   30.9730 H   0  0  0  0  0  0  0  0  0  0  0  0
   38.0960   27.1520   32.6270 H   0  0  0  0  0  0  0  0  0  0  0  0
   39.8590   23.0160   37.6060 C   0  0  0  0  0  0  0  0  0  0  0  0
   38.9430   23.2740   38.6600 C   0  0  0  0  0  0  0  0  0  0  0  0
   37.7760   23.9410   38.3240 C   0  0  0  0  0  0  0  0  0  0  0  0
   37.5510   24.3200   37.0230 N   0  0  0  0  0  0  0  0  0  0  0  0
   38.4600   24.0480   36.0530 C   0  0  0  0  0  0  0  0  0  0  0  0
   39.6160   23.3950   36.3480 N   0  0  0  0  0  0  0  0  0  0  0  0
   40.7990   22.4970   37.7790 H   0  0  0  0  0  0  0  0  0  0  0  0
   39.2020   22.9410   39.6490 H   0  0  0  0  0  0  0  0  0  0  0  0
   37.0730   24.1430   39.1100 H   0  0  0  0  0  0  0  0  0  0  0  0
   37.5260   22.7560   31.4500 N   0  0  0  0  0  0  0  0  0  0  0  0
   38.0600   22.8850   30.5880 H   0  0  0  0  0  0  0  0  0  0  0  0
   36.4710   21.4340   31.7960 S   0  0  0  0  0  0  0  0  0  0  0  0
   37.0560   20.5840   32.8660 O   0  0  0  0  0  1  0  0  0  0  0  0
   35.1690   22.0130   32.3290 O   0  0  0  0  0  1  0  0  0  0  0  0
   36.0610   20.5670   30.4180 O   0  0  0  0  0  0  0  0  0  0  0  0
   36.7970   19.9220   30.2410 H   0  0  0  0  0  0  0  0  0  0  0  0
  2  3  1  0  0  0  0
  2  1  1  0  0  0  0
  3 15  1  0  0  0  0
  4  8  1  0  0  0  0
  4  3  2  0  0  0  0
  5  4  1  0  0  0  0
  6  5  2  0  0  0  0
  6  7  1  0  0  0  0
  7  2  2  0  0  0  0
  9  6  1  0  0  0  0
 10  7  1  0  0  0  0
 11 17  1  0  0  0  0
 11 12  1  0  0  0  0
 12 18  1  0  0  0  0
 13 12  2  0  0  0  0
 13 19  1  0  0  0  0
 14 13  1  0  0  0  0
 15 16  1  0  0  0  0
 15 14  2  0  0  0  0
 16 11  2  0  0  0  0
 20 22  1  0  0  0  0
 20  5  1  0  0  0  0
 21 20  1  0  0  0  0
 22 24  1  0  0  0  0
 22 23  1  0  0  0  0
 25 22  1  0  0  0  0
 26 25  1  0  0  0  0
M  END
>  <minimizedAffinity>
-4.6061511

$$$$

 OpenBabel03272510183D

 26 27  0  0  0  0  0  0  0  0999 V2000
   35.1360   32.4220   32.2770 Br  0  0  0  0  0  0  0  0  0  0  0  0
   35.6900   30.6110   32.4530 C   0  0  0  0  0  0  0  0  0  0  0  0
   35.5500   29.9370   33.6460 C   0  0  0  0  0  0  0  0  0  0  0  0
   35.9760   28.6230   33.6930 C   0  0  0  0  0  0  0  0  0  0  0  0
   36.5280   27.9640   32.6070 C   0  0  0  0  0  0  0  0  0  0  0  0
   36.6540   28.6610   31.4340 C   0  0  0  0  0  0  0  0  0  0  0  0
   36.2320   29.9840   31.3630 C   0  0  0  0  0  0  0  0  0  0  0  0
   35.8610   28.0950   34.6470 H   0  0  0  0  0  0  0  0  0  0  0  0
   37.0870   28.1360   30.5920 H   0  0  0  0  0  0  0  0  0  0  0  0
   36.3710   30.4550   30.3920 H   0  0  0  0  0  0  0  0  0  0  0  0
   33.0750   30.9990   36.1040 C   0  0  0  0  0  0  0  0  0  0  0  0
   33.8120   31.8160   37.0010 C   0  0  0  0  0  0  0  0  0  0  0  0
   35.1610   31.9820   36.7310 C   0  0  0  0  0  0  0  0  0  0  0  0
   35.7230   31.3680   35.6390 N   0  0  0  0  0  0  0  0  0  0  0  0
   34.9740   30.5970   34.8120 C   0  0  0  0  0  0  0  0  0  0  0  0
   33.6470   30.4140   35.0470 N   0  0  0  0  0  0  0  0  0  0  0  0
   32.0120   30.8160   36.2380 H   0  0  0  0  0  0  0  0  0  0  0  0
   33.2890   32.2570   37.8300 H   0  0  0  0  0  0  0  0  0  0  0  0
   35.7320   32.5970   37.4010 H   0  0  0  0  0  0  0  0  0  0  0  0
   36.9200   26.6020   32.8170 N   0  0  0  0  0  0  0  0  0  0  0  0
   37.3880   26.5060   33.7210 H   0  0  0  0  0  0  0  0  0  0  0  0
   36.6310   25.3260   31.6910 S   0  0  0  0  0  0  0  0  0  0  0  0
   36.8050   24.0090   32.3590 O   0  0  0  0  0  1  0  0  0  0  0  0
   35.1790   25.4270   31.2460 O   0  0  0  0  0  1  0  0  0  0  0  0
   37.5530   25.4830   30.2960 O   0  0  0  0  0  0  0  0  0  0  0  0
   38.4510   25.0990   30.4880 H   0  0  0  0  0  0  0  0  0  0  0  0
  1  2  1  0  0  0  0
  2  3  1  0  0  0  0
  3  4  2  0  0  0  0
  3 15  1  0  0  0  0
  4  8  1  0  0  0  0
  5 20  1  0  0  0  0
  5  4  1  0  0  0  0
  6  5  2  0  0  0  0
  7  6  1  0  0  0  0
  7  2  2  0  0  0  0
  9  6  1  0  0  0  0
 10  7  1  0  0  0  0
 11 17  1  0  0  0  0
 11 12  1  0  0  0  0
 12 18  1  0  0  0  0
 13 12  2  0  0  0  0
 13 19  1  0  0  0  0
 14 13  1  0  0  0  0
 15 16  1  0  0  0  0
 15 14  2  0  0  0  0
 16 11  2  0  0  0  0
 20 21  1  0  0  0  0
 22 23  1  0  0  0  0
 22 20  1  0  0  0  0
 24 22  1  0  0  0  0
 25 26  1  0  0  0  0
 25 22  1  0  0  0  0
M  END
>  <minimizedAffinity>
-4.5815649

$$$$

 OpenBabel03272510183D

 26 27  0  0  0  0  0  0  0  0999 V2000
   38.5540   27.1020   35.6550 Br  0  0  0  0  0  0  0  0  0  0  0  0
   38.2330   25.3620   34.9580 C   0  0  0  0  0  0  0  0  0  0  0  0
   37.8850   25.1770   33.6380 C   0  0  0  0  0  0  0  0  0  0  0  0
   37.6680   23.8820   33.2080 C   0  0  0  0  0  0  0  0  0  0  0  0
   37.7860   22.7770   34.0350 C   0  0  0  0  0  0  0  0  0  0  0  0
   38.1350   22.9930   35.3430 C   0  0  0  0  0  0  0  0  0  0  0  0
   38.3570   24.2880   35.7980 C   0  0  0  0  0  0  0  0  0  0  0  0
   37.3910   23.7450   32.1560 H   0  0  0  0  0  0  0  0  0  0  0  0
   38.2240   22.1220   35.9800 H   0  0  0  0  0  0  0  0  0  0  0  0
   38.6290   24.3610   36.8490 H   0  0  0  0  0  0  0  0  0  0  0  0
   38.7540   27.6910   31.1440 C   0  0  0  0  0  0  0  0  0  0  0  0
   37.5690   28.4610   31.0060 C   0  0  0  0  0  0  0  0  0  0  0  0
   36.4870   28.0890   31.7880 C   0  0  0  0  0  0  0  0  0  0  0  0
   36.5940   27.0190   32.6430 N   0  0  0  0  0  0  0  0  0  0  0  0
   37.7500   26.3160   32.7370 C   0  0  0  0  0  0  0  0  0  0  0  0
   38.8310   26.6540   31.9840 N   0  0  0  0  0  0  0  0  0  0  0  0
   39.6500   27.9120   30.5700 H   0  0  0  0  0  0  0  0  0  0  0  0
   37.5770   29.2820   30.3130 H   0  0  0  0  0  0  0  0  0  0  0  0
   35.5840   28.6630   31.6960 H   0  0  0  0  0  0  0  0  0  0  0  0
   37.5300   21.5000   33.4370 N   0  0  0  0  0  0  0  0  0  0  0  0
   38.3900   21.1190   33.0390 H   0  0  0  0  0  0  0  0  0  0  0  0
   35.9810   20.7380   33.4080 S   0  0  0  0  0  0  0  0  0  0  0  0
   35.0290   21.5520   32.6050 O   0  0  0  0  0  1  0  0  0  0  0  0
   36.1420   19.3960   32.7090 O   0  0  0  0  0  1  0  0  0  0  0  0
   35.4110   20.3900   34.9490 O   0  0  0  0  0  0  0  0  0  0  0  0
   34.9880   21.2170   35.3040 H   0  0  0  0  0  0  0  0  0  0  0  0
  2  1  1  0  0  0  0
  2  7  1  0  0  0  0
  3  2  2  0  0  0  0
  4  3  1  0  0  0  0
  4  5  2  0  0  0  0
  5  6  1  0  0  0  0
  6  7  2  0  0  0  0
  6  9  1  0  0  0  0
  7 10  1  0  0  0  0
  8  4  1  0  0  0  0
 11 16  1  0  0  0  0
 12 11  2  0  0  0  0
 12 13  1  0  0  0  0
 13 14  2  0  0  0  0
 14 15  1  0  0  0  0
 15  3  1  0  0  0  0
 16 15  2  0  0  0  0
 17 11  1  0  0  0  0
 18 12  1  0  0  0  0
 19 13  1  0  0  0  0
 20  5  1  0  0  0  0
 21 20  1  0  0  0  0
 22 20  1  0  0  0  0
 22 25  1  0  0  0  0
 23 22  1  0  0  0  0
 24 22  1  0  0  0  0
 25 26  1  0  0  0  0
M  END
>  <minimizedAffinity>
-4.5638175

$$$$

 OpenBabel03272510183D

 26 27  0  0  0  0  0  0  0  0999 V2000
   35.8300   29.5520   31.3150 Br  0  0  0  0  0  0  0  0  0  0  0  0
   36.7190   28.4870   32.6150 C   0  0  0  0  0  0  0  0  0  0  0  0
   36.3920   28.5740   33.9510 C   0  0  0  0  0  0  0  0  0  0  0  0
   37.0840   27.7660   34.8340 C   0  0  0  0  0  0  0  0  0  0  0  0
   38.0770   26.8860   34.4390 C   0  0  0  0  0  0  0  0  0  0  0  0
   38.3800   26.8220   33.1040 C   0  0  0  0  0  0  0  0  0  0  0  0
   37.6970   27.6250   32.1980 C   0  0  0  0  0  0  0  0  0  0  0  0
   36.8170   27.8430   35.8950 H   0  0  0  0  0  0  0  0  0  0  0  0
   39.1590   26.1310   32.8070 H   0  0  0  0  0  0  0  0  0  0  0  0
   38.0050   27.5060   31.1610 H   0  0  0  0  0  0  0  0  0  0  0  0
   34.8280   31.5540   35.3540 C   0  0  0  0  0  0  0  0  0  0  0  0
   33.4370   31.2750   35.2860 C   0  0  0  0  0  0  0  0  0  0  0  0
   33.0700   30.0510   34.7510 C   0  0  0  0  0  0  0  0  0  0  0  0
   34.0350   29.1740   34.3180 N   0  0  0  0  0  0  0  0  0  0  0  0
   35.3520   29.4890   34.4050 C   0  0  0  0  0  0  0  0  0  0  0  0
   35.7460   30.6830   34.9240 N   0  0  0  0  0  0  0  0  0  0  0  0
   35.2050   32.4890   35.7590 H   0  0  0  0  0  0  0  0  0  0  0  0
   32.7530   32.0210   35.6500 H   0  0  0  0  0  0  0  0  0  0  0  0
   32.0220   29.8250   34.6940 H   0  0  0  0  0  0  0  0  0  0  0  0
   38.7000   26.1180   35.4760 N   0  0  0  0  0  0  0  0  0  0  0  0
   39.3280   26.7110   36.0240 H   0  0  0  0  0  0  0  0  0  0  0  0
   38.4140   24.4370   35.7410 S   0  0  0  0  0  0  0  0  0  0  0  0
   37.9750   23.7910   34.4750 O   0  0  0  0  0  1  0  0  0  0  0  0
   39.7370   23.8030   36.1450 O   0  0  0  0  0  1  0  0  0  0  0  0
   37.3610   24.1610   37.0200 O   0  0  0  0  0  0  0  0  0  0  0  0
   36.4350   24.2540   36.6680 H   0  0  0  0  0  0  0  0  0  0  0  0
  1  2  1  0  0  0  0
  2  3  1  0  0  0  0
  3 15  1  0  0  0  0
  3  4  2  0  0  0  0
  4  8  1  0  0  0  0
  5  4  1  0  0  0  0
  5 20  1  0  0  0  0
  6  5  2  0  0  0  0
  7  2  2  0  0  0  0
  7  6  1  0  0  0  0
  9  6  1  0  0  0  0
 10  7  1  0  0  0  0
 11 17  1  0  0  0  0
 12 11  1  0  0  0  0
 12 18  1  0  0  0  0
 13 12  2  0  0  0  0
 14 15  2  0  0  0  0
 14 13  1  0  0  0  0
 15 16  1  0  0  0  0
 16 11  2  0  0  0  0
 19 13  1  0  0  0  0
 20 22  1  0  0  0  0
 20 21  1  0  0  0  0
 22 24  1  0  0  0  0
 22 25  1  0  0  0  0
 23 22  1  0  0  0  0
 26 25  1  0  0  0  0
M  END
>  <minimizedAffinity>
-4.31562805

$$$$
