
 OpenBabel03272509013D

 29 30  0  0  0  0  0  0  0  0999 V2000
   38.0220   23.2100   33.4030 Cl  0  0  0  0  0  0  0  0  0  0  0  0
   36.8570   24.0440   32.4020 C   0  0  0  0  0  0  0  0  0  0  0  0
   35.9530   23.3110   31.6490 C   0  0  0  0  0  0  0  0  0  0  0  0
   35.0280   23.9270   30.8540 C   0  0  0  0  0  0  0  0  0  0  0  0
   34.9640   25.3030   30.7730 C   0  0  0  0  0  0  0  0  0  0  0  0
   35.8540   26.0710   31.5120 C   0  0  0  0  0  0  0  0  0  0  0  0
   35.8990   27.8160   31.5110 Cl  0  0  0  0  0  0  0  0  0  0  0  0
   36.7750   25.4030   32.3070 C   0  0  0  0  0  0  0  0  0  0  0  0
   34.3210   23.3600   30.2650 H   0  0  0  0  0  0  0  0  0  0  0  0
   34.2490   25.8320   30.1570 H   0  0  0  0  0  0  0  0  0  0  0  0
   36.7920   19.8170   30.9340 C   0  0  0  0  0  0  0  0  0  0  0  0
   36.0390   19.1070   31.8670 C   0  0  0  0  0  0  0  0  0  0  0  0
   35.2260   19.8640   32.7590 C   0  0  0  0  0  0  0  0  0  0  0  0
   35.2400   21.2170   32.6400 N   0  0  0  0  0  0  0  0  0  0  0  0
   35.9950   21.8640   31.7100 C   0  0  0  0  0  0  0  0  0  0  0  0
   36.7600   21.1490   30.8700 N   0  0  0  0  0  0  0  0  0  0  0  0
   37.3820   19.1660   30.2940 H   0  0  0  0  0  0  0  0  0  0  0  0
   35.9890   18.0530   32.0050 H   0  0  0  0  0  0  0  0  0  0  0  0
   34.5870   19.4580   33.5360 H   0  0  0  0  0  0  0  0  0  0  0  0
   37.7530   26.2110   33.1250 C   0  0  0  0  0  0  0  0  0  0  0  0
   37.9870   27.1160   32.5750 H   0  0  0  0  0  0  0  0  0  0  0  0
   38.6470   25.5620   33.2350 H   0  0  0  0  0  0  0  0  0  0  0  0
   37.2210   26.4450   34.4460 N   0  0  0  0  0  0  0  0  0  0  0  0
   36.3860   25.8610   34.6550 H   0  0  0  0  0  0  0  0  0  0  0  0
   38.3950   26.3210   35.6840 S   0  0  0  0  0  0  0  0  0  0  0  0
   38.0620   25.2390   36.6690 O   0  0  0  0  0  1  0  0  0  0  0  0
   39.6750   25.8600   35.0000 O   0  0  0  0  0  1  0  0  0  0  0  0
   38.7550   27.7240   36.4640 O   0  0  0  0  0  0  0  0  0  0  0  0
   38.6960   27.7120   37.4450 H   0  0  0  0  0  0  0  0  0  0  0  0
  2  1  1  0  0  0  0
  3 15  1  0  0  0  0
  3  2  2  0  0  0  0
  4  3  1  0  0  0  0
  5  4  2  0  0  0  0
  5  6  1  0  0  0  0
  6  8  2  0  0  0  0
  7  6  1  0  0  0  0
  8  2  1  0  0  0  0
  8 20  1  0  0  0  0
  9  4  1  0  0  0  0
 10  5  1  0  0  0  0
 11 12  1  0  0  0  0
 12 18  1  0  0  0  0
 12 13  2  0  0  0  0
 13 19  1  0  0  0  0
 14 13  1  0  0  0  0
 15 14  2  0  0  0  0
 16 11  2  0  0  0  0
 16 15  1  0  0  0  0
 17 11  1  0  0  0  0
 20 22  1  0  0  0  0
 20 23  1  0  0  0  0
 21 20  1  0  0  0  0
 23 24  1  0  0  0  0
 23 25  1  0  0  0  0
 25 28  1  0  0  0  0
 25 26  1  0  0  0  0
 27 25  1  0  0  0  0
 28 29  1  0  0  0  0
M  END
>  <minimizedAffinity>
-5.05014992

$$$$

 OpenBabel03272509013D

 29 30  0  0  0  0  0  0  0  0999 V2000
   38.8520   24.4310   33.8360 Cl  0  0  0  0  0  0  0  0  0  0  0  0
   37.7650   23.0680   33.7180 C   0  0  0  0  0  0  0  0  0  0  0  0
   37.5350   22.2770   34.8340 C   0  0  0  0  0  0  0  0  0  0  0  0
   36.6930   21.2020   34.7810 C   0  0  0  0  0  0  0  0  0  0  0  0
   36.0410   20.8670   33.6120 C   0  0  0  0  0  0  0  0  0  0  0  0
   36.2460   21.6350   32.4730 C   0  0  0  0  0  0  0  0  0  0  0  0
   35.4990   21.3350   30.9240 Cl  0  0  0  0  0  0  0  0  0  0  0  0
   37.1090   22.7180   32.5730 C   0  0  0  0  0  0  0  0  0  0  0  0
   36.5110   20.5830   35.6480 H   0  0  0  0  0  0  0  0  0  0  0  0
   35.3670   20.0260   33.5250 H   0  0  0  0  0  0  0  0  0  0  0  0
   40.0720   22.5040   37.4670 C   0  0  0  0  0  0  0  0  0  0  0  0
   39.4380   23.2440   38.4630 C   0  0  0  0  0  0  0  0  0  0  0  0
   38.1030   23.6690   38.2070 C   0  0  0  0  0  0  0  0  0  0  0  0
   37.5420   23.3270   37.0180 N   0  0  0  0  0  0  0  0  0  0  0  0
   38.2060   22.6010   36.0770 C   0  0  0  0  0  0  0  0  0  0  0  0
   39.4640   22.2010   36.3200 N   0  0  0  0  0  0  0  0  0  0  0  0
   41.0850   22.2200   37.7410 H   0  0  0  0  0  0  0  0  0  0  0  0
   39.8270   23.5400   39.4090 H   0  0  0  0  0  0  0  0  0  0  0  0
   37.4820   24.2490   38.8800 H   0  0  0  0  0  0  0  0  0  0  0  0
   37.3490   23.5740   31.3540 C   0  0  0  0  0  0  0  0  0  0  0  0
   37.4870   22.9170   30.5010 H   0  0  0  0  0  0  0  0  0  0  0  0
   38.2740   24.1470   31.5760 H   0  0  0  0  0  0  0  0  0  0  0  0
   36.2760   24.5260   31.1960 N   0  0  0  0  0  0  0  0  0  0  0  0
   35.4980   24.3730   31.8690 H   0  0  0  0  0  0  0  0  0  0  0  0
   36.8020   26.1530   31.2090 S   0  0  0  0  0  0  0  0  0  0  0  0
   36.6900   26.7710   32.5720 O   0  0  0  0  0  1  0  0  0  0  0  0
   38.2950   26.1110   30.9090 O   0  0  0  0  0  1  0  0  0  0  0  0
   36.1200   27.1290   30.0730 O   0  0  0  0  0  0  0  0  0  0  0  0
   35.7110   27.9630   30.3940 H   0  0  0  0  0  0  0  0  0  0  0  0
  2  1  1  0  0  0  0
  2  3  1  0  0  0  0
  3 15  1  0  0  0  0
  4  3  2  0  0  0  0
  4  9  1  0  0  0  0
  5  4  1  0  0  0  0
  6  8  1  0  0  0  0
  6  5  2  0  0  0  0
  7  6  1  0  0  0  0
  8  2  2  0  0  0  0
 10  5  1  0  0  0  0
 11 17  1  0  0  0  0
 11 12  1  0  0  0  0
 12 18  1  0  0  0  0
 13 12  2  0  0  0  0
 13 19  1  0  0  0  0
 14 13  1  0  0  0  0
 15 16  1  0  0  0  0
 15 14  2  0  0  0  0
 16 11  2  0  0  0  0
 20 22  1  0  0  0  0
 20  8  1  0  0  0  0
 21 20  1  0  0  0  0
 23 25  1  0  0  0  0
 23 20  1  0  0  0  0
 23 24  1  0  0  0  0
 25 26  1  0  0  0  0
 27 25  1  0  0  0  0
 28 29  1  0  0  0  0
 28 25  1  0  0  0  0
M  END
>  <minimizedAffinity>
-5.01460552

$$$$

 OpenBabel03272509013D

 29 30  0  0  0  0  0  0  0  0999 V2000
   38.3800   23.4130   33.2280 Cl  0  0  0  0  0  0  0  0  0  0  0  0
   37.1010   24.1820   32.3190 C   0  0  0  0  0  0  0  0  0  0  0  0
   36.1060   23.4040   31.7470 C   0  0  0  0  0  0  0  0  0  0  0  0
   35.0890   23.9680   31.0290 C   0  0  0  0  0  0  0  0  0  0  0  0
   35.0200   25.3350   30.8480 C   0  0  0  0  0  0  0  0  0  0  0  0
   35.9990   26.1460   31.4050 C   0  0  0  0  0  0  0  0  0  0  0  0
   36.0500   27.8850   31.2600 Cl  0  0  0  0  0  0  0  0  0  0  0  0
   37.0120   25.5300   32.1280 C   0  0  0  0  0  0  0  0  0  0  0  0
   34.3110   23.3670   30.5820 H   0  0  0  0  0  0  0  0  0  0  0  0
   34.2350   25.8230   30.2870 H   0  0  0  0  0  0  0  0  0  0  0  0
   35.5790   20.0370   33.0920 C   0  0  0  0  0  0  0  0  0  0  0  0
   36.2660   19.2210   32.1950 C   0  0  0  0  0  0  0  0  0  0  0  0
   36.9220   19.8600   31.1040 C   0  0  0  0  0  0  0  0  0  0  0  0
   36.8350   21.2130   31.0120 N   0  0  0  0  0  0  0  0  0  0  0  0
   36.1500   21.9660   31.9170 C   0  0  0  0  0  0  0  0  0  0  0  0
   35.5320   21.3620   32.9440 N   0  0  0  0  0  0  0  0  0  0  0  0
   35.1080   19.4720   33.8920 H   0  0  0  0  0  0  0  0  0  0  0  0
   36.3670   18.1610   32.2180 H   0  0  0  0  0  0  0  0  0  0  0  0
   37.4930   19.3630   30.3280 H   0  0  0  0  0  0  0  0  0  0  0  0
   38.0880   26.3860   32.7490 C   0  0  0  0  0  0  0  0  0  0  0  0
   38.4400   27.0850   31.9970 H   0  0  0  0  0  0  0  0  0  0  0  0
   38.8890   25.6770   33.0480 H   0  0  0  0  0  0  0  0  0  0  0  0
   37.5930   27.0130   33.9500 N   0  0  0  0  0  0  0  0  0  0  0  0
   36.5650   26.9100   34.0660 H   0  0  0  0  0  0  0  0  0  0  0  0
   38.4310   26.5360   35.3630 S   0  0  0  0  0  0  0  0  0  0  0  0
   37.7890   25.3530   36.0260 O   0  0  0  0  0  1  0  0  0  0  0  0
   39.7930   26.0410   34.8930 O   0  0  0  0  0  1  0  0  0  0  0  0
   38.7150   27.7310   36.4580 O   0  0  0  0  0  0  0  0  0  0  0  0
   38.4270   27.5600   37.3830 H   0  0  0  0  0  0  0  0  0  0  0  0
  2  1  1  0  0  0  0
  3 15  1  0  0  0  0
  3  2  2  0  0  0  0
  4  3  1  0  0  0  0
  5  4  2  0  0  0  0
  5  6  1  0  0  0  0
  6  8  2  0  0  0  0
  7  6  1  0  0  0  0
  8  2  1  0  0  0  0
  8 20  1  0  0  0  0
  9  4  1  0  0  0  0
 10  5  1  0  0  0  0
 11 17  1  0  0  0  0
 12 18  1  0  0  0  0
 12 11  2  0  0  0  0
 13 12  1  0  0  0  0
 14 13  2  0  0  0  0
 14 15  1  0  0  0  0
 15 16  2  0  0  0  0
 16 11  1  0  0  0  0
 19 13  1  0  0  0  0
 20 22  1  0  0  0  0
 20 23  1  0  0  0  0
 21 20  1  0  0  0  0
 23 24  1  0  0  0  0
 23 25  1  0  0  0  0
 25 26  1  0  0  0  0
 25 28  1  0  0  0  0
 27 25  1  0  0  0  0
 28 29  1  0  0  0  0
M  END
>  <minimizedAffinity>
-4.99961519

$$$$

 OpenBabel03272509013D

 29 30  0  0  0  0  0  0  0  0999 V2000
   37.8450   23.2450   33.6430 Cl  0  0  0  0  0  0  0  0  0  0  0  0
   38.6930   24.7710   33.5900 C   0  0  0  0  0  0  0  0  0  0  0  0
   39.2420   25.2900   34.7530 C   0  0  0  0  0  0  0  0  0  0  0  0
   39.9120   26.4810   34.7530 C   0  0  0  0  0  0  0  0  0  0  0  0
   40.0640   27.2100   33.5910 C   0  0  0  0  0  0  0  0  0  0  0  0
   39.5270   26.7240   32.4060 C   0  0  0  0  0  0  0  0  0  0  0  0
   39.6330   27.5310   30.8620 Cl  0  0  0  0  0  0  0  0  0  0  0  0
   38.8560   25.5090   32.4530 C   0  0  0  0  0  0  0  0  0  0  0  0
   40.3410   26.8890   35.6560 H   0  0  0  0  0  0  0  0  0  0  0  0
   40.5850   28.1570   33.5440 H   0  0  0  0  0  0  0  0  0  0  0  0
   37.9800   24.1250   37.9890 C   0  0  0  0  0  0  0  0  0  0  0  0
   38.8690   23.1100   38.3360 C   0  0  0  0  0  0  0  0  0  0  0  0
   39.9260   22.8300   37.4220 C   0  0  0  0  0  0  0  0  0  0  0  0
   39.9940   23.5670   36.2830 N   0  0  0  0  0  0  0  0  0  0  0  0
   39.0980   24.5500   35.9900 C   0  0  0  0  0  0  0  0  0  0  0  0
   38.1040   24.8120   36.8530 N   0  0  0  0  0  0  0  0  0  0  0  0
   37.2070   24.2740   38.7390 H   0  0  0  0  0  0  0  0  0  0  0  0
   38.8650   22.5040   39.2110 H   0  0  0  0  0  0  0  0  0  0  0  0
   40.6920   22.0740   37.5500 H   0  0  0  0  0  0  0  0  0  0  0  0
   38.2660   24.9530   31.1810 C   0  0  0  0  0  0  0  0  0  0  0  0
   38.8390   24.0760   30.8980 H   0  0  0  0  0  0  0  0  0  0  0  0
   38.3720   25.7640   30.4310 H   0  0  0  0  0  0  0  0  0  0  0  0
   36.8550   24.7040   31.3550 N   0  0  0  0  0  0  0  0  0  0  0  0
   36.6360   24.2270   32.2530 H   0  0  0  0  0  0  0  0  0  0  0  0
   35.8850   26.0950   31.1340 S   0  0  0  0  0  0  0  0  0  0  0  0
   34.4330   25.7500   30.9790 O   0  0  0  0  0  1  0  0  0  0  0  0
   35.9750   26.8760   32.4390 O   0  0  0  0  0  1  0  0  0  0  0  0
   36.3700   27.1160   29.9390 O   0  0  0  0  0  0  0  0  0  0  0  0
   35.6950   27.3640   29.2680 H   0  0  0  0  0  0  0  0  0  0  0  0
  2  1  1  0  0  0  0
  2  3  1  0  0  0  0
  3 15  1  0  0  0  0
  4  3  2  0  0  0  0
  4  9  1  0  0  0  0
  5  4  1  0  0  0  0
  6  8  1  0  0  0  0
  6  5  2  0  0  0  0
  7  6  1  0  0  0  0
  8  2  2  0  0  0  0
 10  5  1  0  0  0  0
 11 12  1  0  0  0  0
 11 17  1  0  0  0  0
 12 18  1  0  0  0  0
 13 19  1  0  0  0  0
 13 12  2  0  0  0  0
 14 13  1  0  0  0  0
 15 14  2  0  0  0  0
 15 16  1  0  0  0  0
 16 11  2  0  0  0  0
 20 23  1  0  0  0  0
 20  8  1  0  0  0  0
 21 20  1  0  0  0  0
 22 20  1  0  0  0  0
 23 24  1  0  0  0  0
 25 23  1  0  0  0  0
 25 27  1  0  0  0  0
 26 25  1  0  0  0  0
 28 25  1  0  0  0  0
 29 28  1  0  0  0  0
M  END
>  <minimizedAffinity>
-4.8362298

$$$$

 OpenBabel03272509013D

 29 30  0  0  0  0  0  0  0  0999 V2000
   38.3580   27.0480   33.1930 Cl  0  0  0  0  0  0  0  0  0  0  0  0
   37.2980   25.8600   32.4730 C   0  0  0  0  0  0  0  0  0  0  0  0
   36.2770   26.2740   31.6320 C   0  0  0  0  0  0  0  0  0  0  0  0
   35.4270   25.3760   31.0500 C   0  0  0  0  0  0  0  0  0  0  0  0
   35.5570   24.0220   31.2830 C   0  0  0  0  0  0  0  0  0  0  0  0
   36.5670   23.5680   32.1210 C   0  0  0  0  0  0  0  0  0  0  0  0
   36.8550   21.8920   32.5140 Cl  0  0  0  0  0  0  0  0  0  0  0  0
   37.4080   24.5160   32.6880 C   0  0  0  0  0  0  0  0  0  0  0  0
   34.6300   25.6940   30.3940 H   0  0  0  0  0  0  0  0  0  0  0  0
   34.9070   23.2760   30.8450 H   0  0  0  0  0  0  0  0  0  0  0  0
   36.5950   29.5970   30.1210 C   0  0  0  0  0  0  0  0  0  0  0  0
   35.7630   30.3910   30.9090 C   0  0  0  0  0  0  0  0  0  0  0  0
   35.0810   29.7510   31.9840 C   0  0  0  0  0  0  0  0  0  0  0  0
   35.2860   28.4210   32.1670 N   0  0  0  0  0  0  0  0  0  0  0  0
   36.1120   27.6890   31.3680 C   0  0  0  0  0  0  0  0  0  0  0  0
   36.7540   28.2940   30.3560 N   0  0  0  0  0  0  0  0  0  0  0  0
   37.0760   30.1610   29.3260 H   0  0  0  0  0  0  0  0  0  0  0  0
   35.5650   31.4320   30.8120 H   0  0  0  0  0  0  0  0  0  0  0  0
   34.4030   30.2320   32.6800 H   0  0  0  0  0  0  0  0  0  0  0  0
   38.5180   24.0540   33.5990 C   0  0  0  0  0  0  0  0  0  0  0  0
   39.4030   24.6420   33.3790 H   0  0  0  0  0  0  0  0  0  0  0  0
   38.6730   22.9830   33.3500 H   0  0  0  0  0  0  0  0  0  0  0  0
   38.0930   24.1230   34.9760 N   0  0  0  0  0  0  0  0  0  0  0  0
   37.0830   24.3530   35.0770 H   0  0  0  0  0  0  0  0  0  0  0  0
   38.5090   22.7360   35.8880 S   0  0  0  0  0  0  0  0  0  0  0  0
   39.7290   22.0510   35.3460 O   0  0  0  0  0  1  0  0  0  0  0  0
   38.9150   23.2500   37.2640 O   0  0  0  0  0  1  0  0  0  0  0  0
   37.2940   21.6530   36.1280 O   0  0  0  0  0  0  0  0  0  0  0  0
   37.4790   20.7190   35.8820 H   0  0  0  0  0  0  0  0  0  0  0  0
  2  8  1  0  0  0  0
  2  1  1  0  0  0  0
  3  2  2  0  0  0  0
  4  5  2  0  0  0  0
  4  3  1  0  0  0  0
  5  6  1  0  0  0  0
  6  7  1  0  0  0  0
  6  8  2  0  0  0  0
  8 20  1  0  0  0  0
  9  4  1  0  0  0  0
 10  5  1  0  0  0  0
 11 16  2  0  0  0  0
 11 12  1  0  0  0  0
 12 13  2  0  0  0  0
 13 14  1  0  0  0  0
 13 19  1  0  0  0  0
 15  3  1  0  0  0  0
 15 14  2  0  0  0  0
 16 15  1  0  0  0  0
 17 11  1  0  0  0  0
 18 12  1  0  0  0  0
 20 23  1  0  0  0  0
 21 20  1  0  0  0  0
 22 20  1  0  0  0  0
 23 24  1  0  0  0  0
 23 25  1  0  0  0  0
 25 28  1  0  0  0  0
 25 27  1  0  0  0  0
 26 25  1  0  0  0  0
 29 28  1  0  0  0  0
M  END
>  <minimizedAffinity>
-4.8340826

$$$$

 OpenBabel03272509013D

 29 30  0  0  0  0  0  0  0  0999 V2000
   38.1840   23.5890   33.4580 Cl  0  0  0  0  0  0  0  0  0  0  0  0
   38.0090   25.1580   34.2060 C   0  0  0  0  0  0  0  0  0  0  0  0
   38.6100   25.4030   35.4310 C   0  0  0  0  0  0  0  0  0  0  0  0
   38.4950   26.6170   36.0480 C   0  0  0  0  0  0  0  0  0  0  0  0
   37.7740   27.6420   35.4700 C   0  0  0  0  0  0  0  0  0  0  0  0
   37.1570   27.4350   34.2440 C   0  0  0  0  0  0  0  0  0  0  0  0
   36.2100   28.6290   33.3930 Cl  0  0  0  0  0  0  0  0  0  0  0  0
   37.3010   26.1870   33.6530 C   0  0  0  0  0  0  0  0  0  0  0  0
   38.9620   26.8130   37.0020 H   0  0  0  0  0  0  0  0  0  0  0  0
   37.6570   28.6180   35.9230 H   0  0  0  0  0  0  0  0  0  0  0  0
   39.5880   22.6780   37.6760 C   0  0  0  0  0  0  0  0  0  0  0  0
   40.8680   22.3440   37.2390 C   0  0  0  0  0  0  0  0  0  0  0  0
   41.3950   23.0840   36.1420 C   0  0  0  0  0  0  0  0  0  0  0  0
   40.6190   24.0590   35.6000 N   0  0  0  0  0  0  0  0  0  0  0  0
   39.3720   24.3470   36.0650 C   0  0  0  0  0  0  0  0  0  0  0  0
   38.8780   23.6490   37.1000 N   0  0  0  0  0  0  0  0  0  0  0  0
   39.2620   22.0680   38.5150 H   0  0  0  0  0  0  0  0  0  0  0  0
   41.5180   21.5940   37.6240 H   0  0  0  0  0  0  0  0  0  0  0  0
   42.3700   22.9410   35.6900 H   0  0  0  0  0  0  0  0  0  0  0  0
   36.6460   25.9320   32.3180 C   0  0  0  0  0  0  0  0  0  0  0  0
   35.9450   26.7380   32.1260 H   0  0  0  0  0  0  0  0  0  0  0  0
   36.1210   24.9600   32.4310 H   0  0  0  0  0  0  0  0  0  0  0  0
   37.6490   25.7680   31.2950 N   0  0  0  0  0  0  0  0  0  0  0  0
   37.4800   24.9370   30.6930 H   0  0  0  0  0  0  0  0  0  0  0  0
   37.9030   27.1760   30.3570 S   0  0  0  0  0  0  0  0  0  0  0  0
   36.6390   27.9610   30.1660 O   0  0  0  0  0  1  0  0  0  0  0  0
   38.8100   28.0730   31.1900 O   0  0  0  0  0  1  0  0  0  0  0  0
   38.6640   26.9420   28.9170 O   0  0  0  0  0  0  0  0  0  0  0  0
   38.2200   27.3050   28.1190 H   0  0  0  0  0  0  0  0  0  0  0  0
  1  2  1  0  0  0  0
  2  3  1  0  0  0  0
  3  4  2  0  0  0  0
  3 15  1  0  0  0  0
  4  9  1  0  0  0  0
  5 10  1  0  0  0  0
  5  4  1  0  0  0  0
  6  5  2  0  0  0  0
  7  6  1  0  0  0  0
  8  2  2  0  0  0  0
  8  6  1  0  0  0  0
 11 17  1  0  0  0  0
 12 18  1  0  0  0  0
 12 11  1  0  0  0  0
 13 12  2  0  0  0  0
 14 15  2  0  0  0  0
 14 13  1  0  0  0  0
 15 16  1  0  0  0  0
 16 11  2  0  0  0  0
 19 13  1  0  0  0  0
 20 22  1  0  0  0  0
 20  8  1  0  0  0  0
 21 20  1  0  0  0  0
 23 20  1  0  0  0  0
 24 23  1  0  0  0  0
 25 27  1  0  0  0  0
 25 23  1  0  0  0  0
 26 25  1  0  0  0  0
 28 25  1  0  0  0  0
 29 28  1  0  0  0  0
M  END
>  <minimizedAffinity>
-4.78264523

$$$$

 OpenBabel03272509013D

 29 30  0  0  0  0  0  0  0  0999 V2000
   39.2500   26.5500   35.1930 Cl  0  0  0  0  0  0  0  0  0  0  0  0
   38.7820   25.2430   34.1320 C   0  0  0  0  0  0  0  0  0  0  0  0
   38.5140   23.9910   34.6660 C   0  0  0  0  0  0  0  0  0  0  0  0
   38.1460   22.9440   33.8690 C   0  0  0  0  0  0  0  0  0  0  0  0
   38.0280   23.0980   32.5030 C   0  0  0  0  0  0  0  0  0  0  0  0
   38.2890   24.3360   31.9310 C   0  0  0  0  0  0  0  0  0  0  0  0
   38.1880   24.6840   30.2240 Cl  0  0  0  0  0  0  0  0  0  0  0  0
   38.6590   25.3720   32.7790 C   0  0  0  0  0  0  0  0  0  0  0  0
   37.9360   21.9670   34.2810 H   0  0  0  0  0  0  0  0  0  0  0  0
   37.7410   22.2970   31.8350 H   0  0  0  0  0  0  0  0  0  0  0  0
   37.8130   24.0730   38.2610 C   0  0  0  0  0  0  0  0  0  0  0  0
   38.8990   23.3980   38.8170 C   0  0  0  0  0  0  0  0  0  0  0  0
   39.8890   22.9080   37.9180 C   0  0  0  0  0  0  0  0  0  0  0  0
   39.7100   23.1300   36.5900 N   0  0  0  0  0  0  0  0  0  0  0  0
   38.6300   23.7960   36.0960 C   0  0  0  0  0  0  0  0  0  0  0  0
   37.6980   24.2580   36.9450 N   0  0  0  0  0  0  0  0  0  0  0  0
   37.1060   24.4130   39.0130 H   0  0  0  0  0  0  0  0  0  0  0  0
   39.0900   23.1970   39.8440 H   0  0  0  0  0  0  0  0  0  0  0  0
   40.7860   22.3660   38.1960 H   0  0  0  0  0  0  0  0  0  0  0  0
   38.9440   26.7300   32.1880 C   0  0  0  0  0  0  0  0  0  0  0  0
   39.3370   26.5870   31.1860 H   0  0  0  0  0  0  0  0  0  0  0  0
   39.7020   27.1870   32.8580 H   0  0  0  0  0  0  0  0  0  0  0  0
   37.7620   27.5550   32.2440 N   0  0  0  0  0  0  0  0  0  0  0  0
   37.7890   28.2490   33.0190 H   0  0  0  0  0  0  0  0  0  0  0  0
   37.3800   28.3010   30.7530 S   0  0  0  0  0  0  0  0  0  0  0  0
   36.9940   29.7410   30.9250 O   0  0  0  0  0  1  0  0  0  0  0  0
   38.6770   28.3260   29.9550 O   0  0  0  0  0  1  0  0  0  0  0  0
   36.2720   27.5110   29.8270 O   0  0  0  0  0  0  0  0  0  0  0  0
   35.5000   28.0350   29.5180 H   0  0  0  0  0  0  0  0  0  0  0  0
  2  3  1  0  0  0  0
  2  1  1  0  0  0  0
  3 15  1  0  0  0  0
  4  9  1  0  0  0  0
  4  3  2  0  0  0  0
  5  4  1  0  0  0  0
  6  5  2  0  0  0  0
  6  8  1  0  0  0  0
  7  6  1  0  0  0  0
  8  2  2  0  0  0  0
 10  5  1  0  0  0  0
 11 12  1  0  0  0  0
 11 17  1  0  0  0  0
 12 18  1  0  0  0  0
 13 19  1  0  0  0  0
 13 12  2  0  0  0  0
 14 13  1  0  0  0  0
 15 14  2  0  0  0  0
 15 16  1  0  0  0  0
 16 11  2  0  0  0  0
 20 23  1  0  0  0  0
 20  8  1  0  0  0  0
 20 22  1  0  0  0  0
 21 20  1  0  0  0  0
 23 24  1  0  0  0  0
 25 26  1  0  0  0  0
 25 23  1  0  0  0  0
 27 25  1  0  0  0  0
 28 25  1  0  0  0  0
 29 28  1  0  0  0  0
M  END
>  <minimizedAffinity>
-4.72418833

$$$$

 OpenBabel03272509013D

 29 30  0  0  0  0  0  0  0  0999 V2000
   36.1520   28.2420   33.9310 Cl  0  0  0  0  0  0  0  0  0  0  0  0
   36.1850   29.4060   32.6280 C   0  0  0  0  0  0  0  0  0  0  0  0
   35.6670   30.6760   32.8310 C   0  0  0  0  0  0  0  0  0  0  0  0
   35.6730   31.6130   31.8370 C   0  0  0  0  0  0  0  0  0  0  0  0
   36.1970   31.3250   30.5930 C   0  0  0  0  0  0  0  0  0  0  0  0
   36.7250   30.0640   30.3500 C   0  0  0  0  0  0  0  0  0  0  0  0
   37.4170   29.5510   28.8330 Cl  0  0  0  0  0  0  0  0  0  0  0  0
   36.6990   29.1440   31.3900 C   0  0  0  0  0  0  0  0  0  0  0  0
   35.2710   32.6030   31.9900 H   0  0  0  0  0  0  0  0  0  0  0  0
   36.2230   32.0360   29.7770 H   0  0  0  0  0  0  0  0  0  0  0  0
   33.3070   31.1040   35.6000 C   0  0  0  0  0  0  0  0  0  0  0  0
   34.0900   31.6630   36.6080 C   0  0  0  0  0  0  0  0  0  0  0  0
   35.4650   31.8920   36.3130 C   0  0  0  0  0  0  0  0  0  0  0  0
   35.9160   31.5520   35.0770 N   0  0  0  0  0  0  0  0  0  0  0  0
   35.1070   31.0090   34.1250 C   0  0  0  0  0  0  0  0  0  0  0  0
   33.8120   30.7950   34.4060 N   0  0  0  0  0  0  0  0  0  0  0  0
   32.2730   30.9640   35.9070 H   0  0  0  0  0  0  0  0  0  0  0  0
   33.7920   31.9470   37.5900 H   0  0  0  0  0  0  0  0  0  0  0  0
   36.1970   32.3160   36.9900 H   0  0  0  0  0  0  0  0  0  0  0  0
   37.2690   27.7660   31.1590 C   0  0  0  0  0  0  0  0  0  0  0  0
   37.7300   27.4320   32.0820 H   0  0  0  0  0  0  0  0  0  0  0  0
   38.0230   27.8940   30.3540 H   0  0  0  0  0  0  0  0  0  0  0  0
   36.2450   26.8820   30.6580 N   0  0  0  0  0  0  0  0  0  0  0  0
   36.1460   26.9230   29.6230 H   0  0  0  0  0  0  0  0  0  0  0  0
   36.4090   25.2700   31.2060 S   0  0  0  0  0  0  0  0  0  0  0  0
   36.8690   25.2040   32.6330 O   0  0  0  0  0  1  0  0  0  0  0  0
   35.0020   24.6860   31.2100 O   0  0  0  0  0  1  0  0  0  0  0  0
   37.3250   24.2870   30.2550 O   0  0  0  0  0  0  0  0  0  0  0  0
   38.0560   23.8010   30.6980 H   0  0  0  0  0  0  0  0  0  0  0  0
  2  3  1  0  0  0  0
  2  1  1  0  0  0  0
  3 15  1  0  0  0  0
  4  9  1  0  0  0  0
  4  3  2  0  0  0  0
  5  4  1  0  0  0  0
  6  5  2  0  0  0  0
  6  8  1  0  0  0  0
  7  6  1  0  0  0  0
  8  2  2  0  0  0  0
 10  5  1  0  0  0  0
 11 17  1  0  0  0  0
 11 12  1  0  0  0  0
 12 18  1  0  0  0  0
 13 12  2  0  0  0  0
 13 19  1  0  0  0  0
 14 13  1  0  0  0  0
 15 16  1  0  0  0  0
 15 14  2  0  0  0  0
 16 11  2  0  0  0  0
 20  8  1  0  0  0  0
 20 21  1  0  0  0  0
 22 20  1  0  0  0  0
 23 20  1  0  0  0  0
 23 25  1  0  0  0  0
 24 23  1  0  0  0  0
 25 27  1  0  0  0  0
 25 26  1  0  0  0  0
 28 29  1  0  0  0  0
 28 25  1  0  0  0  0
M  END
>  <minimizedAffinity>
-4.70308971

$$$$

 OpenBabel03272509013D

 29 30  0  0  0  0  0  0  0  0999 V2000
   38.9360   25.3500   33.6800 Cl  0  0  0  0  0  0  0  0  0  0  0  0
   37.7260   24.3330   32.9360 C   0  0  0  0  0  0  0  0  0  0  0  0
   36.8590   24.8730   31.9980 C   0  0  0  0  0  0  0  0  0  0  0  0
   35.8990   24.1110   31.3940 C   0  0  0  0  0  0  0  0  0  0  0  0
   35.7590   22.7730   31.7010 C   0  0  0  0  0  0  0  0  0  0  0  0
   36.6070   22.1950   32.6360 C   0  0  0  0  0  0  0  0  0  0  0  0
   36.5510   20.5220   33.1300 Cl  0  0  0  0  0  0  0  0  0  0  0  0
   37.5690   23.0070   33.2230 C   0  0  0  0  0  0  0  0  0  0  0  0
   35.2230   24.5280   30.6630 H   0  0  0  0  0  0  0  0  0  0  0  0
   35.0140   22.1320   31.2490 H   0  0  0  0  0  0  0  0  0  0  0  0
   37.9020   27.9850   30.3680 C   0  0  0  0  0  0  0  0  0  0  0  0
   37.1710   28.9620   31.0410 C   0  0  0  0  0  0  0  0  0  0  0  0
   36.3010   28.5240   32.0800 C   0  0  0  0  0  0  0  0  0  0  0  0
   36.2430   27.1920   32.3430 N   0  0  0  0  0  0  0  0  0  0  0  0
   36.9790   26.2760   31.6550 C   0  0  0  0  0  0  0  0  0  0  0  0
   37.7990   26.6910   30.6760 N   0  0  0  0  0  0  0  0  0  0  0  0
   38.5390   28.4030   29.5920 H   0  0  0  0  0  0  0  0  0  0  0  0
   37.1770   30.0140   30.8790 H   0  0  0  0  0  0  0  0  0  0  0  0
   35.6710   29.1600   32.6910 H   0  0  0  0  0  0  0  0  0  0  0  0
   38.5080   22.4070   34.2400 C   0  0  0  0  0  0  0  0  0  0  0  0
   39.4690   22.9020   34.1450 H   0  0  0  0  0  0  0  0  0  0  0  0
   38.5780   21.3320   33.9730 H   0  0  0  0  0  0  0  0  0  0  0  0
   37.9310   22.4910   35.5600 N   0  0  0  0  0  0  0  0  0  0  0  0
   37.5740   21.5760   35.9030 H   0  0  0  0  0  0  0  0  0  0  0  0
   38.9610   23.2290   36.7080 S   0  0  0  0  0  0  0  0  0  0  0  0
   40.3250   23.5040   36.1470 O   0  0  0  0  0  1  0  0  0  0  0  0
   38.3580   24.6000   36.9870 O   0  0  0  0  0  1  0  0  0  0  0  0
   39.0740   22.4600   38.1580 O   0  0  0  0  0  0  0  0  0  0  0  0
   39.9810   22.2510   38.4780 H   0  0  0  0  0  0  0  0  0  0  0  0
  2  8  1  0  0  0  0
  2  1  1  0  0  0  0
  3  2  2  0  0  0  0
  4  5  2  0  0  0  0
  4  3  1  0  0  0  0
  5  6  1  0  0  0  0
  6  7  1  0  0  0  0
  6  8  2  0  0  0  0
  8 20  1  0  0  0  0
  9  4  1  0  0  0  0
 10  5  1  0  0  0  0
 11 16  2  0  0  0  0
 11 12  1  0  0  0  0
 12 13  2  0  0  0  0
 13 14  1  0  0  0  0
 13 19  1  0  0  0  0
 15  3  1  0  0  0  0
 15 14  2  0  0  0  0
 16 15  1  0  0  0  0
 17 11  1  0  0  0  0
 18 12  1  0  0  0  0
 20 23  1  0  0  0  0
 21 20  1  0  0  0  0
 22 20  1  0  0  0  0
 23 24  1  0  0  0  0
 23 25  1  0  0  0  0
 25 27  1  0  0  0  0
 25 28  1  0  0  0  0
 26 25  1  0  0  0  0
 28 29  1  0  0  0  0
M  END
>  <minimizedAffinity>
-4.67415524

$$$$
