
 OpenBabel03272504353D

 41 43  0  0  0  0  0  0  0  0999 V2000
   34.8550   29.6330   47.1690 C   0  0  0  0  0  0  0  0  0  0  0  0
   35.3290   29.9490   45.9070 C   0  0  0  0  0  0  0  0  0  0  0  0
   34.4370   30.0400   44.8320 C   0  0  0  0  0  0  0  0  0  0  0  0
   33.1190   29.8060   45.0930 N   0  0  0  0  0  0  0  0  0  0  0  0
   32.6920   29.4990   46.3480 C   0  0  0  0  0  0  0  0  0  0  0  0
   33.5440   29.4110   47.3770 N   0  0  0  0  0  0  0  0  0  0  0  0
   36.3920   30.1180   45.7940 H   0  0  0  0  0  0  0  0  0  0  0  0
   34.7960   30.2820   43.8600 H   0  0  0  0  0  0  0  0  0  0  0  0
   35.7240   29.5300   48.2910 N   0  0  0  0  0  0  0  0  0  0  0  0
   35.3810   28.7310   49.4660 C   0  0  0  0  0  0  0  0  0  0  0  0
   35.6730   29.3760   50.7660 C   0  0  0  0  0  0  0  0  0  0  0  0
   36.7150   30.3120   50.8100 N   0  0  0  0  0  0  0  0  0  0  0  0
   36.8450   31.1280   49.6130 C   0  0  0  0  0  0  0  0  0  0  0  0
   36.9890   30.1350   48.4710 C   0  0  0  0  0  0  0  0  0  0  0  0
   34.2800   28.5590   49.4000 H   0  0  0  0  0  0  0  0  0  0  0  0
   35.8240   27.7090   49.3840 H   0  0  0  0  0  0  0  0  0  0  0  0
   34.7540   29.8300   51.2000 H   0  0  0  0  0  0  0  0  0  0  0  0
   35.9340   28.5400   51.4800 H   0  0  0  0  0  0  0  0  0  0  0  0
   37.6120   30.0460   51.2260 H   0  0  0  0  0  0  0  0  0  0  0  0
   37.8290   31.6690   49.6590 H   0  0  0  0  0  0  0  0  0  0  0  0
   36.0390   31.8450   49.4780 H   0  0  0  0  0  0  0  0  0  0  0  0
   37.3680   30.6480   47.5470 H   0  0  0  0  0  0  0  0  0  0  0  0
   37.7760   29.4120   48.7640 H   0  0  0  0  0  0  0  0  0  0  0  0
   31.2700   29.2590   46.5640 C   0  0  0  0  0  0  0  0  0  0  0  0
   30.8640   28.3600   47.5400 C   0  0  0  0  0  0  0  0  0  0  0  0
   29.5330   28.1080   47.7740 C   0  0  0  0  0  0  0  0  0  0  0  0
   28.6260   28.7740   47.0120 N   0  0  0  0  0  0  0  0  0  0  0  0
   29.0350   29.6460   46.0680 C   0  0  0  0  0  0  0  0  0  0  0  0
   30.3540   29.9010   45.8300 N   0  0  0  0  0  0  0  0  0  0  0  0
   31.5500   27.8200   48.1560 H   0  0  0  0  0  0  0  0  0  0  0  0
   29.0610   27.1990   48.7580 N   0  0  0  0  0  0  0  0  0  0  0  0
   29.6160   26.3620   49.0350 H   0  0  0  0  0  0  0  0  0  0  0  0
   28.0300   30.3590   45.2510 C   0  0  0  0  0  0  0  0  0  0  0  0
   28.1360   31.7250   45.4080 F   0  0  0  0  0  0  0  0  0  0  0  0
   26.7640   29.9580   45.6700 F   0  0  0  0  0  0  0  0  0  0  0  0
   28.1510   29.9800   43.9350 F   0  0  0  0  0  0  0  0  0  0  0  0
   27.5380   27.4950   49.5020 S   0  0  0  0  0  0  0  0  0  0  0  0
   27.4130   28.8860   50.0090 O   0  0  0  0  0  0  0  0  0  0  0  0
   26.4660   27.3050   48.4710 O   0  0  0  0  0  0  0  0  0  0  0  0
   27.2170   26.3920   50.7310 O   0  0  0  0  0  0  0  0  0  0  0  0
   26.6940   26.8720   51.4230 H   0  0  0  0  0  0  0  0  0  0  0  0
  1  6  1  0  0  0  0
  1  9  1  0  0  0  0
  2  1  2  0  0  0  0
  3  4  2  0  0  0  0
  3  2  1  0  0  0  0
  4  5  1  0  0  0  0
  5 24  1  0  0  0  0
  5  6  2  0  0  0  0
  7  2  1  0  0  0  0
  8  3  1  0  0  0  0
  9 14  1  0  0  0  0
  9 10  1  0  0  0  0
 10 11  1  0  0  0  0
 11 12  1  0  0  0  0
 11 17  1  0  0  0  0
 11 18  1  0  0  0  0
 12 19  1  0  0  0  0
 13 20  1  0  0  0  0
 13 12  1  0  0  0  0
 14 23  1  0  0  0  0
 14 13  1  0  0  0  0
 15 10  1  0  0  0  0
 16 10  1  0  0  0  0
 21 13  1  0  0  0  0
 22 14  1  0  0  0  0
 24 25  1  0  0  0  0
 25 26  2  0  0  0  0
 25 30  1  0  0  0  0
 26 31  1  0  0  0  0
 27 26  1  0  0  0  0
 28 27  2  0  0  0  0
 29 28  1  0  0  0  0
 29 24  2  0  0  0  0
 31 32  1  0  0  0  0
 31 37  1  0  0  0  0
 33 34  1  0  0  0  0
 33 35  1  0  0  0  0
 33 28  1  0  0  0  0
 36 33  1  0  0  0  0
 37 38  1  0  0  0  0
 37 40  1  0  0  0  0
 39 37  1  0  0  0  0
 40 41  1  0  0  0  0
M  END
>  <minimizedAffinity>
-5.75936031

>  <minimizedRMSD>
1.84427381

$$$$
