
 OpenBabel03262521143D

 29 30  0  0  0  0  0  0  0  0999 V2000
   36.8470   27.2930   34.1510 O   0  0  0  0  0  0  0  0  0  0  0  0
   36.7870   27.1270   32.7630 C   0  0  0  0  0  0  0  0  0  0  0  0
   36.6540   25.9610   32.0190 C   0  0  0  0  0  0  0  0  0  0  0  0
   36.6430   26.2800   30.7210 N   0  0  0  0  0  0  0  0  0  0  0  0
   36.7630   27.6070   30.6030 C   0  0  0  0  0  0  0  0  0  0  0  0
   36.8520   28.1290   31.8420 N   0  0  0  0  0  0  0  0  0  0  0  0
   36.5750   24.9670   32.4720 H   0  0  0  0  0  0  0  0  0  0  0  0
   36.5560   25.6240   29.9150 H   0  0  0  0  0  0  0  0  0  0  0  0
   36.8000   28.3970   29.4210 N   0  0  0  0  0  0  0  0  0  0  0  0
   35.9440   28.7940   28.9770 H   0  0  0  0  0  0  0  0  0  0  0  0
   38.3060   28.7340   28.6610 S   0  0  0  0  0  0  0  0  0  0  0  0
   38.0820   29.8500   27.6550 O   0  0  0  0  0  1  0  0  0  0  0  0
   39.3330   29.2120   29.6360 O   0  0  0  0  0  1  0  0  0  0  0  0
   38.8550   27.3870   27.8120 O   0  0  0  0  0  0  0  0  0  0  0  0
   39.8070   27.2280   28.0220 H   0  0  0  0  0  0  0  0  0  0  0  0
   38.3250   27.3570   36.2520 O   0  0  0  0  0  0  0  0  0  0  0  0
   38.1720   26.5890   34.9430 P   0  0  2  0  0  0  0  0  0  0  0  0
   39.5770   26.7170   33.9860 O   0  0  0  0  0  0  0  0  0  0  0  0
   40.2890   26.2400   34.5040 H   0  0  0  0  0  0  0  0  0  0  0  0
   37.8840   24.9280   35.1920 O   0  0  0  0  0  0  0  0  0  0  0  0
   38.6800   24.1700   36.0530 C   0  0  0  0  0  0  0  0  0  0  0  0
   39.9230   23.6170   35.7330 C   0  0  0  0  0  0  0  0  0  0  0  0
   40.5870   22.8870   36.7090 C   0  0  0  0  0  0  0  0  0  0  0  0
   40.0190   22.7350   37.9260 N   0  0  0  0  0  0  0  0  0  0  0  0
   38.7940   23.2930   38.2090 C   0  0  0  0  0  0  0  0  0  0  0  0
   38.1370   24.0040   37.2690 N   0  0  0  0  0  0  0  0  0  0  0  0
   40.2790   23.7990   34.7400 H   0  0  0  0  0  0  0  0  0  0  0  0
   41.5480   22.4610   36.4590 H   0  0  0  0  0  0  0  0  0  0  0  0
   38.3300   23.1720   39.1920 H   0  0  0  0  0  0  0  0  0  0  0  0
  1 17  1  0  0  0  0
  2  1  1  0  0  0  0
  3  7  1  0  0  0  0
  3  2  2  0  0  0  0
  4  3  1  0  0  0  0
  5  4  1  0  0  0  0
  5  6  2  0  0  0  0
  6  2  1  0  0  0  0
  8  4  1  0  0  0  0
  9  5  1  0  0  0  0
 10  9  1  0  0  0  0
 11  9  1  0  0  0  0
 11 13  1  0  0  0  0
 12 11  1  0  0  0  0
 14 15  1  0  0  0  0
 14 11  1  0  0  0  0
 17 20  1  0  0  0  0
 17 16  2  1  0  0  0
 18 19  1  0  0  0  0
 18 17  1  0  0  0  0
 20 21  1  0  0  0  0
 21 26  1  0  0  0  0
 22 21  2  0  0  0  0
 22 23  1  0  0  0  0
 23 24  2  0  0  0  0
 24 25  1  0  0  0  0
 25 29  1  0  0  0  0
 26 25  2  0  0  0  0
 27 22  1  0  0  0  0
 28 23  1  0  0  0  0
M  END
>  <minimizedAffinity>
-5.1519208

$$$$

 OpenBabel03262521143D

 29 30  0  0  0  0  0  0  0  0999 V2000
   38.6750   26.8800   33.4640 O   0  0  0  0  0  0  0  0  0  0  0  0
   38.0580   26.0670   32.5050 C   0  0  0  0  0  0  0  0  0  0  0  0
   37.0630   26.3840   31.5900 C   0  0  0  0  0  0  0  0  0  0  0  0
   36.7800   25.2930   30.8710 N   0  0  0  0  0  0  0  0  0  0  0  0
   37.5560   24.2880   31.2900 C   0  0  0  0  0  0  0  0  0  0  0  0
   38.3370   24.7530   32.2840 N   0  0  0  0  0  0  0  0  0  0  0  0
   36.6150   27.3800   31.5120 H   0  0  0  0  0  0  0  0  0  0  0  0
   36.0750   25.2120   30.1060 H   0  0  0  0  0  0  0  0  0  0  0  0
   37.6080   22.9460   30.8210 N   0  0  0  0  0  0  0  0  0  0  0  0
   38.2380   22.6380   30.0490 H   0  0  0  0  0  0  0  0  0  0  0  0
   36.6000   21.7490   31.5350 S   0  0  0  0  0  0  0  0  0  0  0  0
   35.3250   22.4310   32.0030 O   0  0  0  0  0  1  0  0  0  0  0  0
   36.2050   20.6900   30.5560 O   0  0  0  0  0  1  0  0  0  0  0  0
   37.3450   21.0790   32.8880 O   0  0  0  0  0  0  0  0  0  0  0  0
   37.2770   20.0940   32.8500 H   0  0  0  0  0  0  0  0  0  0  0  0
   36.7540   28.0390   34.7160 O   0  0  0  0  0  0  0  0  0  0  0  0
   37.8770   27.0340   34.9530 P   0  0  2  0  0  0  0  0  0  0  0  0
   38.9540   27.5850   36.1550 O   0  0  0  0  0  0  0  0  0  0  0  0
   38.4150   27.6020   36.9980 H   0  0  0  0  0  0  0  0  0  0  0  0
   37.2950   25.5150   35.4600 O   0  0  0  0  0  0  0  0  0  0  0  0
   38.0720   24.6590   36.2440 C   0  0  0  0  0  0  0  0  0  0  0  0
   37.7460   24.2170   37.5290 C   0  0  0  0  0  0  0  0  0  0  0  0
   38.6320   23.3650   38.1730 C   0  0  0  0  0  0  0  0  0  0  0  0
   39.7700   22.9920   37.5470 N   0  0  0  0  0  0  0  0  0  0  0  0
   40.0610   23.4460   36.2810 C   0  0  0  0  0  0  0  0  0  0  0  0
   39.2080   24.2750   35.6430 N   0  0  0  0  0  0  0  0  0  0  0  0
   36.8200   24.5740   37.9310 H   0  0  0  0  0  0  0  0  0  0  0  0
   38.3770   23.0240   39.1670 H   0  0  0  0  0  0  0  0  0  0  0  0
   40.9800   23.1480   35.7700 H   0  0  0  0  0  0  0  0  0  0  0  0
  1 17  1  0  0  0  0
  2  1  1  0  0  0  0
  3  2  2  0  0  0  0
  4  5  1  0  0  0  0
  4  3  1  0  0  0  0
  5  6  2  0  0  0  0
  6  2  1  0  0  0  0
  7  3  1  0  0  0  0
  8  4  1  0  0  0  0
  9  5  1  0  0  0  0
  9 11  1  0  0  0  0
 10  9  1  0  0  0  0
 11 12  1  0  0  0  0
 11 14  1  0  0  0  0
 13 11  1  0  0  0  0
 15 14  1  0  0  0  0
 17 16  2  6  0  0  0
 17 20  1  0  0  0  0
 17 18  1  0  0  0  0
 18 19  1  0  0  0  0
 20 21  1  0  0  0  0
 21 22  1  0  0  0  0
 22 27  1  0  0  0  0
 22 23  2  0  0  0  0
 23 28  1  0  0  0  0
 24 23  1  0  0  0  0
 25 24  2  0  0  0  0
 26 21  2  0  0  0  0
 26 25  1  0  0  0  0
 29 25  1  0  0  0  0
M  END
>  <minimizedAffinity>
-5.03366089

$$$$

 OpenBabel03262521143D

 29 30  0  0  0  0  0  0  0  0999 V2000
   37.6350   25.6810   36.2790 O   0  0  0  0  0  0  0  0  0  0  0  0
   38.1800   24.5620   36.9200 C   0  0  0  0  0  0  0  0  0  0  0  0
   38.1460   24.2110   38.2630 C   0  0  0  0  0  0  0  0  0  0  0  0
   38.7980   23.0550   38.4210 N   0  0  0  0  0  0  0  0  0  0  0  0
   39.2480   22.6490   37.2290 C   0  0  0  0  0  0  0  0  0  0  0  0
   38.8750   23.5620   36.3100 N   0  0  0  0  0  0  0  0  0  0  0  0
   37.6530   24.8190   39.0290 H   0  0  0  0  0  0  0  0  0  0  0  0
   38.9460   22.5350   39.3130 H   0  0  0  0  0  0  0  0  0  0  0  0
   39.9920   21.4800   36.9070 N   0  0  0  0  0  0  0  0  0  0  0  0
   39.5430   20.5750   36.6460 H   0  0  0  0  0  0  0  0  0  0  0  0
   41.7110   21.5220   36.9400 S   0  0  0  0  0  0  0  0  0  0  0  0
   42.2140   21.0910   35.5720 O   0  0  0  0  0  1  0  0  0  0  0  0
   42.2350   22.8990   37.1940 O   0  0  0  0  0  1  0  0  0  0  0  0
   42.3090   20.4260   38.0700 O   0  0  0  0  0  0  0  0  0  0  0  0
   42.9980   20.8650   38.6260 H   0  0  0  0  0  0  0  0  0  0  0  0
   37.4630   27.2030   34.2160 O   0  0  0  0  0  0  0  0  0  0  0  0
   38.4070   26.1890   34.8560 P   0  0  2  0  0  0  0  0  0  0  0  0
   38.6820   24.8640   33.8190 O   0  0  0  0  0  0  0  0  0  0  0  0
   39.1750   25.2450   33.0360 H   0  0  0  0  0  0  0  0  0  0  0  0
   39.9280   26.8600   35.2280 O   0  0  0  0  0  0  0  0  0  0  0  0
   41.0800   26.4920   34.5280 C   0  0  0  0  0  0  0  0  0  0  0  0
   41.7900   27.3110   33.6470 C   0  0  0  0  0  0  0  0  0  0  0  0
   42.9190   26.7870   33.0320 C   0  0  0  0  0  0  0  0  0  0  0  0
   43.2930   25.5160   33.2990 N   0  0  0  0  0  0  0  0  0  0  0  0
   42.5710   24.7370   34.1730 C   0  0  0  0  0  0  0  0  0  0  0  0
   41.4710   25.2330   34.7780 N   0  0  0  0  0  0  0  0  0  0  0  0
   41.4060   28.3000   33.5070 H   0  0  0  0  0  0  0  0  0  0  0  0
   43.4670   27.4230   32.3500 H   0  0  0  0  0  0  0  0  0  0  0  0
   42.8690   23.7080   34.3940 H   0  0  0  0  0  0  0  0  0  0  0  0
  1  2  1  0  0  0  0
  2  3  2  0  0  0  0
  3  4  1  0  0  0  0
  3  7  1  0  0  0  0
  4  8  1  0  0  0  0
  5  4  1  0  0  0  0
  6  2  1  0  0  0  0
  6  5  2  0  0  0  0
  9 11  1  0  0  0  0
  9  5  1  0  0  0  0
 10  9  1  0  0  0  0
 11 13  1  0  0  0  0
 11 14  1  0  0  0  0
 12 11  1  0  0  0  0
 14 15  1  0  0  0  0
 17 16  2  6  0  0  0
 17 20  1  0  0  0  0
 17  1  1  0  0  0  0
 18 17  1  0  0  0  0
 19 18  1  0  0  0  0
 21 26  1  0  0  0  0
 21 20  1  0  0  0  0
 22 21  2  0  0  0  0
 23 24  2  0  0  0  0
 23 22  1  0  0  0  0
 24 25  1  0  0  0  0
 25 29  1  0  0  0  0
 25 26  2  0  0  0  0
 27 22  1  0  0  0  0
 28 23  1  0  0  0  0
M  END
>  <minimizedAffinity>
-4.96161556

$$$$

 OpenBabel03262521143D

 29 30  0  0  0  0  0  0  0  0999 V2000
   38.3810   25.1560   32.0410 O   0  0  0  0  0  0  0  0  0  0  0  0
   37.2720   24.3510   31.7570 C   0  0  0  0  0  0  0  0  0  0  0  0
   35.9280   24.6940   31.6820 C   0  0  0  0  0  0  0  0  0  0  0  0
   35.2220   23.5990   31.3820 N   0  0  0  0  0  0  0  0  0  0  0  0
   36.0620   22.5670   31.2600 C   0  0  0  0  0  0  0  0  0  0  0  0
   37.3120   23.0160   31.4860 N   0  0  0  0  0  0  0  0  0  0  0  0
   35.5600   25.7110   31.8520 H   0  0  0  0  0  0  0  0  0  0  0  0
   34.1880   23.5350   31.2580 H   0  0  0  0  0  0  0  0  0  0  0  0
   35.7670   21.2100   30.9490 N   0  0  0  0  0  0  0  0  0  0  0  0
   35.7410   20.8440   29.9720 H   0  0  0  0  0  0  0  0  0  0  0  0
   35.4330   20.0940   32.2140 S   0  0  0  0  0  0  0  0  0  0  0  0
   36.5630   19.0780   32.2510 O   0  0  0  0  0  1  0  0  0  0  0  0
   35.3880   20.7580   33.5530 O   0  0  0  0  0  1  0  0  0  0  0  0
   34.0060   19.2560   31.9030 O   0  0  0  0  0  0  0  0  0  0  0  0
   33.4410   19.2500   32.7140 H   0  0  0  0  0  0  0  0  0  0  0  0
   38.5290   26.6380   34.1340 O   0  0  0  0  0  0  0  0  0  0  0  0
   38.8700   25.2270   33.6640 P   0  0  2  0  0  0  0  0  0  0  0  0
   40.5410   24.9190   33.8000 O   0  0  0  0  0  0  0  0  0  0  0  0
   40.7290   24.9350   34.7830 H   0  0  0  0  0  0  0  0  0  0  0  0
   38.0630   24.0280   34.5670 O   0  0  0  0  0  0  0  0  0  0  0  0
   38.3540   23.8100   35.9150 C   0  0  0  0  0  0  0  0  0  0  0  0
   37.6070   24.2890   36.9940 C   0  0  0  0  0  0  0  0  0  0  0  0
   38.0350   23.9800   38.2770 C   0  0  0  0  0  0  0  0  0  0  0  0
   39.1490   23.2320   38.4440 N   0  0  0  0  0  0  0  0  0  0  0  0
   39.8610   22.7750   37.3600 C   0  0  0  0  0  0  0  0  0  0  0  0
   39.4570   23.0690   36.1060 N   0  0  0  0  0  0  0  0  0  0  0  0
   36.7430   24.8720   36.7490 H   0  0  0  0  0  0  0  0  0  0  0  0
   37.4550   24.3530   39.1100 H   0  0  0  0  0  0  0  0  0  0  0  0
   40.7630   22.1700   37.4890 H   0  0  0  0  0  0  0  0  0  0  0  0
  1 17  1  0  0  0  0
  2  1  1  0  0  0  0
  3  2  2  0  0  0  0
  3  7  1  0  0  0  0
  4  3  1  0  0  0  0
  5  4  1  0  0  0  0
  5  6  2  0  0  0  0
  6  2  1  0  0  0  0
  8  4  1  0  0  0  0
  9  5  1  0  0  0  0
  9 11  1  0  0  0  0
 10  9  1  0  0  0  0
 11 12  1  0  0  0  0
 11 13  1  0  0  0  0
 14 11  1  0  0  0  0
 14 15  1  0  0  0  0
 17 18  1  0  0  0  0
 17 16  2  1  0  0  0
 17 20  1  0  0  0  0
 18 19  1  0  0  0  0
 20 21  1  0  0  0  0
 21 26  2  0  0  0  0
 21 22  1  0  0  0  0
 22 23  2  0  0  0  0
 23 24  1  0  0  0  0
 23 28  1  0  0  0  0
 25 29  1  0  0  0  0
 25 24  2  0  0  0  0
 26 25  1  0  0  0  0
 27 22  1  0  0  0  0
M  END
>  <minimizedAffinity>
-4.88210249

$$$$

 OpenBabel03262521143D

 29 30  0  0  0  0  0  0  0  0999 V2000
   36.3500   22.3070   32.5410 O   0  0  0  0  0  0  0  0  0  0  0  0
   36.6350   23.4290   31.7540 C   0  0  0  0  0  0  0  0  0  0  0  0
   37.7360   23.6840   30.9460 C   0  0  0  0  0  0  0  0  0  0  0  0
   37.5840   24.8860   30.3810 N   0  0  0  0  0  0  0  0  0  0  0  0
   36.4260   25.4120   30.7950 C   0  0  0  0  0  0  0  0  0  0  0  0
   35.8430   24.5310   31.6310 N   0  0  0  0  0  0  0  0  0  0  0  0
   38.5670   22.9810   30.8270 H   0  0  0  0  0  0  0  0  0  0  0  0
   38.2430   25.3570   29.7240 H   0  0  0  0  0  0  0  0  0  0  0  0
   35.8470   26.6670   30.4590 N   0  0  0  0  0  0  0  0  0  0  0  0
   35.2050   26.7970   29.6470 H   0  0  0  0  0  0  0  0  0  0  0  0
   36.1990   28.0560   31.4110 S   0  0  0  0  0  0  0  0  0  0  0  0
   36.3910   29.2320   30.4690 O   0  0  0  0  0  1  0  0  0  0  0  0
   35.0750   28.4040   32.3340 O   0  0  0  0  0  1  0  0  0  0  0  0
   37.6380   27.8440   32.2590 O   0  0  0  0  0  0  0  0  0  0  0  0
   37.5090   28.1080   33.2030 H   0  0  0  0  0  0  0  0  0  0  0  0
   38.5670   21.1630   33.1550 O   0  0  0  0  0  0  0  0  0  0  0  0
   37.4390   21.9660   33.7960 P   0  0  2  0  0  0  0  0  0  0  0  0
   36.6700   21.0730   35.0280 O   0  0  0  0  0  0  0  0  0  0  0  0
   37.3660   20.9580   35.7390 H   0  0  0  0  0  0  0  0  0  0  0  0
   37.9900   23.4170   34.4970 O   0  0  0  0  0  0  0  0  0  0  0  0
   38.2760   23.5070   35.8620 C   0  0  0  0  0  0  0  0  0  0  0  0
   37.6220   24.3380   36.7750 C   0  0  0  0  0  0  0  0  0  0  0  0
   38.0310   24.3050   38.1010 C   0  0  0  0  0  0  0  0  0  0  0  0
   39.0380   23.4810   38.4660 N   0  0  0  0  0  0  0  0  0  0  0  0
   39.6610   22.6750   37.5410 C   0  0  0  0  0  0  0  0  0  0  0  0
   39.2740   22.6970   36.2480 N   0  0  0  0  0  0  0  0  0  0  0  0
   36.8390   24.9510   36.3790 H   0  0  0  0  0  0  0  0  0  0  0  0
   37.5230   24.9490   38.8050 H   0  0  0  0  0  0  0  0  0  0  0  0
   40.4760   22.0070   37.8310 H   0  0  0  0  0  0  0  0  0  0  0  0
  1 17  1  0  0  0  0
  2  1  1  0  0  0  0
  3  2  2  0  0  0  0
  4  5  1  0  0  0  0
  4  3  1  0  0  0  0
  5  6  2  0  0  0  0
  6  2  1  0  0  0  0
  7  3  1  0  0  0  0
  8  4  1  0  0  0  0
  9  5  1  0  0  0  0
  9 11  1  0  0  0  0
 10  9  1  0  0  0  0
 11 14  1  0  0  0  0
 11 13  1  0  0  0  0
 12 11  1  0  0  0  0
 14 15  1  0  0  0  0
 17 16  2  6  0  0  0
 17 20  1  0  0  0  0
 17 18  1  0  0  0  0
 18 19  1  0  0  0  0
 20 21  1  0  0  0  0
 21 26  2  0  0  0  0
 21 22  1  0  0  0  0
 22 23  2  0  0  0  0
 23 24  1  0  0  0  0
 23 28  1  0  0  0  0
 25 29  1  0  0  0  0
 25 24  2  0  0  0  0
 26 25  1  0  0  0  0
 27 22  1  0  0  0  0
M  END
>  <minimizedAffinity>
-4.8788867

$$$$

 OpenBabel03262521143D

 29 30  0  0  0  0  0  0  0  0999 V2000
   36.7120   27.1770   32.9390 O   0  0  0  0  0  0  0  0  0  0  0  0
   37.5390   26.8140   34.0070 C   0  0  0  0  0  0  0  0  0  0  0  0
   38.8370   27.2190   34.2950 C   0  0  0  0  0  0  0  0  0  0  0  0
   39.2340   26.6150   35.4200 N   0  0  0  0  0  0  0  0  0  0  0  0
   38.2410   25.8390   35.8650 C   0  0  0  0  0  0  0  0  0  0  0  0
   37.2060   25.9550   35.0100 N   0  0  0  0  0  0  0  0  0  0  0  0
   39.3990   27.9190   33.6690 H   0  0  0  0  0  0  0  0  0  0  0  0
   40.1590   26.7150   35.8920 H   0  0  0  0  0  0  0  0  0  0  0  0
   38.2060   25.0120   37.0220 N   0  0  0  0  0  0  0  0  0  0  0  0
   37.8790   25.3510   37.9530 H   0  0  0  0  0  0  0  0  0  0  0  0
   38.7170   23.3720   36.9200 S   0  0  0  0  0  0  0  0  0  0  0  0
   39.6280   23.2420   35.7100 O   0  0  0  0  0  1  0  0  0  0  0  0
   39.5060   22.9540   38.1190 O   0  0  0  0  0  1  0  0  0  0  0  0
   37.3980   22.3550   36.6750 O   0  0  0  0  0  0  0  0  0  0  0  0
   37.4500   21.5880   37.2960 H   0  0  0  0  0  0  0  0  0  0  0  0
   38.3330   28.0610   31.1520 O   0  0  0  0  0  0  0  0  0  0  0  0
   37.3340   26.9310   31.3800 P   0  0  2  0  0  0  0  0  0  0  0  0
   36.0830   26.9720   30.2220 O   0  0  0  0  0  0  0  0  0  0  0  0
   36.5300   26.7740   29.3490 H   0  0  0  0  0  0  0  0  0  0  0  0
   38.0590   25.3920   31.2810 O   0  0  0  0  0  0  0  0  0  0  0  0
   37.3690   24.2340   31.6500 C   0  0  0  0  0  0  0  0  0  0  0  0
   36.1610   23.8000   31.1000 C   0  0  0  0  0  0  0  0  0  0  0  0
   35.6060   22.6230   31.5830 C   0  0  0  0  0  0  0  0  0  0  0  0
   36.2440   21.9390   32.5590 N   0  0  0  0  0  0  0  0  0  0  0  0
   37.4340   22.3940   33.0780 C   0  0  0  0  0  0  0  0  0  0  0  0
   37.9840   23.5380   32.6190 N   0  0  0  0  0  0  0  0  0  0  0  0
   35.7410   24.4180   30.3330 H   0  0  0  0  0  0  0  0  0  0  0  0
   34.6710   22.2890   31.1560 H   0  0  0  0  0  0  0  0  0  0  0  0
   37.9540   21.8450   33.8670 H   0  0  0  0  0  0  0  0  0  0  0  0
  1  2  1  0  0  0  0
  2  3  2  0  0  0  0
  2  6  1  0  0  0  0
  3  4  1  0  0  0  0
  4  5  1  0  0  0  0
  4  8  1  0  0  0  0
  5  9  1  0  0  0  0
  6  5  2  0  0  0  0
  7  3  1  0  0  0  0
  9 10  1  0  0  0  0
 11  9  1  0  0  0  0
 11 13  1  0  0  0  0
 12 11  1  0  0  0  0
 14 11  1  0  0  0  0
 14 15  1  0  0  0  0
 17 16  2  6  0  0  0
 17  1  1  0  0  0  0
 18 17  1  0  0  0  0
 19 18  1  0  0  0  0
 20 17  1  0  0  0  0
 20 21  1  0  0  0  0
 21 26  1  0  0  0  0
 22 23  1  0  0  0  0
 22 21  2  0  0  0  0
 23 24  2  0  0  0  0
 24 25  1  0  0  0  0
 25 29  1  0  0  0  0
 26 25  2  0  0  0  0
 27 22  1  0  0  0  0
 28 23  1  0  0  0  0
M  END
>  <minimizedAffinity>
-4.77277517

$$$$

 OpenBabel03262521143D

 29 30  0  0  0  0  0  0  0  0999 V2000
   37.6040   24.5990   36.8360 O   0  0  0  0  0  0  0  0  0  0  0  0
   38.0040   25.5660   35.9060 C   0  0  0  0  0  0  0  0  0  0  0  0
   38.4730   26.8550   36.1220 C   0  0  0  0  0  0  0  0  0  0  0  0
   38.7350   27.4190   34.9380 N   0  0  0  0  0  0  0  0  0  0  0  0
   38.4520   26.5400   33.9710 C   0  0  0  0  0  0  0  0  0  0  0  0
   38.0070   25.4100   34.5530 N   0  0  0  0  0  0  0  0  0  0  0  0
   38.5900   27.2920   37.1190 H   0  0  0  0  0  0  0  0  0  0  0  0
   39.1000   28.3820   34.7690 H   0  0  0  0  0  0  0  0  0  0  0  0
   38.5730   26.6950   32.5620 N   0  0  0  0  0  0  0  0  0  0  0  0
   39.4410   26.4530   32.0370 H   0  0  0  0  0  0  0  0  0  0  0  0
   37.2490   27.3070   31.6500 S   0  0  0  0  0  0  0  0  0  0  0  0
   36.0450   26.4230   31.9250 O   0  0  0  0  0  1  0  0  0  0  0  0
   36.8830   28.6990   32.0560 O   0  0  0  0  0  1  0  0  0  0  0  0
   37.5770   27.2220   30.0010 O   0  0  0  0  0  0  0  0  0  0  0  0
   37.3480   28.0820   29.5720 H   0  0  0  0  0  0  0  0  0  0  0  0
   37.8800   22.1500   36.1110 O   0  0  0  0  0  0  0  0  0  0  0  0
   38.5760   23.2140   36.9540 P   0  0  2  0  0  0  0  0  0  0  0  0
   38.7160   22.7180   38.5800 O   0  0  0  0  0  0  0  0  0  0  0  0
   39.3360   21.9330   38.5600 H   0  0  0  0  0  0  0  0  0  0  0  0
   40.1490   23.5590   36.3980 O   0  0  0  0  0  0  0  0  0  0  0  0
   41.1250   22.5640   36.3010 C   0  0  0  0  0  0  0  0  0  0  0  0
   41.9300   22.3240   35.1850 C   0  0  0  0  0  0  0  0  0  0  0  0
   42.8540   21.2910   35.2540 C   0  0  0  0  0  0  0  0  0  0  0  0
   42.9480   20.5560   36.3850 N   0  0  0  0  0  0  0  0  0  0  0  0
   42.1390   20.8190   37.4660 C   0  0  0  0  0  0  0  0  0  0  0  0
   41.2350   21.8200   37.4130 N   0  0  0  0  0  0  0  0  0  0  0  0
   41.7730   22.9650   34.3420 H   0  0  0  0  0  0  0  0  0  0  0  0
   43.4770   21.1070   34.3890 H   0  0  0  0  0  0  0  0  0  0  0  0
   42.2100   20.2280   38.3830 H   0  0  0  0  0  0  0  0  0  0  0  0
  1 17  1  0  0  0  0
  2  3  2  0  0  0  0
  2  1  1  0  0  0  0
  3  7  1  0  0  0  0
  4  3  1  0  0  0  0
  5  6  2  0  0  0  0
  5  4  1  0  0  0  0
  6  2  1  0  0  0  0
  8  4  1  0  0  0  0
  9  5  1  0  0  0  0
 10  9  1  0  0  0  0
 11 12  1  0  0  0  0
 11 13  1  0  0  0  0
 11  9  1  0  0  0  0
 14 11  1  0  0  0  0
 15 14  1  0  0  0  0
 17 16  2  6  0  0  0
 17 18  1  0  0  0  0
 19 18  1  0  0  0  0
 20 17  1  0  0  0  0
 21 20  1  0  0  0  0
 21 26  1  0  0  0  0
 22 23  1  0  0  0  0
 22 21  2  0  0  0  0
 23 24  2  0  0  0  0
 24 25  1  0  0  0  0
 25 29  1  0  0  0  0
 26 25  2  0  0  0  0
 27 22  1  0  0  0  0
 28 23  1  0  0  0  0
M  END
>  <minimizedAffinity>
-4.73784781

$$$$

 OpenBabel03262521143D

 29 30  0  0  0  0  0  0  0  0999 V2000
   37.5840   25.3690   31.9600 O   0  0  0  0  0  0  0  0  0  0  0  0
   38.2120   25.4380   33.2090 C   0  0  0  0  0  0  0  0  0  0  0  0
   39.2900   26.2140   33.6120 C   0  0  0  0  0  0  0  0  0  0  0  0
   39.5490   25.9520   34.8980 N   0  0  0  0  0  0  0  0  0  0  0  0
   38.6770   25.0380   35.3350 C   0  0  0  0  0  0  0  0  0  0  0  0
   37.8600   24.7200   34.3120 N   0  0  0  0  0  0  0  0  0  0  0  0
   39.8100   26.9110   32.9460 H   0  0  0  0  0  0  0  0  0  0  0  0
   40.3000   26.3770   35.4850 H   0  0  0  0  0  0  0  0  0  0  0  0
   38.5680   24.4570   36.6280 N   0  0  0  0  0  0  0  0  0  0  0  0
   37.9750   24.8630   37.3850 H   0  0  0  0  0  0  0  0  0  0  0  0
   39.4370   23.0200   36.9990 S   0  0  0  0  0  0  0  0  0  0  0  0
   38.8910   21.9050   36.1220 O   0  0  0  0  0  1  0  0  0  0  0  0
   40.8950   23.1510   36.6970 O   0  0  0  0  0  1  0  0  0  0  0  0
   39.1860   22.5740   38.6030 O   0  0  0  0  0  0  0  0  0  0  0  0
   40.0520   22.3570   39.0270 H   0  0  0  0  0  0  0  0  0  0  0  0
   38.7440   23.0770   31.8950 O   0  0  0  0  0  0  0  0  0  0  0  0
   37.7060   23.8940   31.1310 P   0  0  2  0  0  0  0  0  0  0  0  0
   38.1920   24.1520   29.5170 O   0  0  0  0  0  0  0  0  0  0  0  0
   38.1920   23.2440   29.0970 H   0  0  0  0  0  0  0  0  0  0  0  0
   36.1840   23.1290   31.0810 O   0  0  0  0  0  0  0  0  0  0  0  0
   36.0140   21.8120   31.5160 C   0  0  0  0  0  0  0  0  0  0  0  0
   35.5380   21.4280   32.7720 C   0  0  0  0  0  0  0  0  0  0  0  0
   35.4280   20.0720   33.0450 C   0  0  0  0  0  0  0  0  0  0  0  0
   35.7800   19.1730   32.1000 N   0  0  0  0  0  0  0  0  0  0  0  0
   36.2450   19.5840   30.8720 C   0  0  0  0  0  0  0  0  0  0  0  0
   36.3570   20.9000   30.5930 N   0  0  0  0  0  0  0  0  0  0  0  0
   35.2880   22.2220   33.4450 H   0  0  0  0  0  0  0  0  0  0  0  0
   35.0590   19.7780   34.0180 H   0  0  0  0  0  0  0  0  0  0  0  0
   36.5310   18.8620   30.1040 H   0  0  0  0  0  0  0  0  0  0  0  0
  1  2  1  0  0  0  0
  2  3  2  0  0  0  0
  2  6  1  0  0  0  0
  3  4  1  0  0  0  0
  4  5  1  0  0  0  0
  4  8  1  0  0  0  0
  5  9  1  0  0  0  0
  6  5  2  0  0  0  0
  7  3  1  0  0  0  0
  9 11  1  0  0  0  0
  9 10  1  0  0  0  0
 11 14  1  0  0  0  0
 12 11  1  0  0  0  0
 13 11  1  0  0  0  0
 14 15  1  0  0  0  0
 17 16  2  1  0  0  0
 17  1  1  0  0  0  0
 18 17  1  0  0  0  0
 19 18  1  0  0  0  0
 20 17  1  0  0  0  0
 20 21  1  0  0  0  0
 21 22  1  0  0  0  0
 22 23  2  0  0  0  0
 22 27  1  0  0  0  0
 23 28  1  0  0  0  0
 24 23  1  0  0  0  0
 25 24  2  0  0  0  0
 26 25  1  0  0  0  0
 26 21  2  0  0  0  0
 29 25  1  0  0  0  0
M  END
>  <minimizedAffinity>
-4.70301628

$$$$

 OpenBabel03262521143D

 29 30  0  0  0  0  0  0  0  0999 V2000
   37.7390   25.6250   36.1660 O   0  0  0  0  0  0  0  0  0  0  0  0
   38.2380   24.3170   36.1420 C   0  0  0  0  0  0  0  0  0  0  0  0
   37.6400   23.1370   36.5660 C   0  0  0  0  0  0  0  0  0  0  0  0
   38.4870   22.1260   36.3510 N   0  0  0  0  0  0  0  0  0  0  0  0
   39.6060   22.6120   35.8040 C   0  0  0  0  0  0  0  0  0  0  0  0
   39.4610   23.9450   35.6740 N   0  0  0  0  0  0  0  0  0  0  0  0
   36.6350   23.0970   37.0010 H   0  0  0  0  0  0  0  0  0  0  0  0
   38.3270   21.1170   36.5650 H   0  0  0  0  0  0  0  0  0  0  0  0
   40.7790   21.9130   35.4040 N   0  0  0  0  0  0  0  0  0  0  0  0
   40.9070   21.5200   34.4460 H   0  0  0  0  0  0  0  0  0  0  0  0
   42.0660   21.6880   36.5220 S   0  0  0  0  0  0  0  0  0  0  0  0
   43.0140   20.6520   35.9410 O   0  0  0  0  0  1  0  0  0  0  0  0
   42.8520   22.9420   36.7350 O   0  0  0  0  0  1  0  0  0  0  0  0
   41.4830   21.0820   37.9810 O   0  0  0  0  0  0  0  0  0  0  0  0
   41.8690   21.5960   38.7320 H   0  0  0  0  0  0  0  0  0  0  0  0
   37.1730   25.6310   33.6600 O   0  0  0  0  0  0  0  0  0  0  0  0
   37.8440   26.5020   34.7180 P   0  0  2  0  0  0  0  0  0  0  0  0
   39.4730   26.8090   34.3210 O   0  0  0  0  0  0  0  0  0  0  0  0
   39.4380   27.3640   33.4880 H   0  0  0  0  0  0  0  0  0  0  0  0
   37.0770   28.0130   34.8980 O   0  0  0  0  0  0  0  0  0  0  0  0
   36.2810   28.5530   33.8850 C   0  0  0  0  0  0  0  0  0  0  0  0
   36.6080   28.5900   32.5280 C   0  0  0  0  0  0  0  0  0  0  0  0
   35.7010   29.1650   31.6500 C   0  0  0  0  0  0  0  0  0  0  0  0
   34.5400   29.6660   32.1270 N   0  0  0  0  0  0  0  0  0  0  0  0
   34.2470   29.6140   33.4700 C   0  0  0  0  0  0  0  0  0  0  0  0
   35.1210   29.0580   34.3360 N   0  0  0  0  0  0  0  0  0  0  0  0
   37.5530   28.1660   32.2580 H   0  0  0  0  0  0  0  0  0  0  0  0
   35.9570   29.1930   30.5990 H   0  0  0  0  0  0  0  0  0  0  0  0
   33.3100   30.0170   33.8620 H   0  0  0  0  0  0  0  0  0  0  0  0
  2  1  1  0  0  0  0
  2  3  2  0  0  0  0
  3  7  1  0  0  0  0
  4  8  1  0  0  0  0
  4  3  1  0  0  0  0
  5  4  1  0  0  0  0
  6  5  2  0  0  0  0
  6  2  1  0  0  0  0
  9  5  1  0  0  0  0
  9 11  1  0  0  0  0
 10  9  1  0  0  0  0
 11 13  1  0  0  0  0
 11 14  1  0  0  0  0
 12 11  1  0  0  0  0
 14 15  1  0  0  0  0
 17 16  2  6  0  0  0
 17 20  1  0  0  0  0
 17  1  1  0  0  0  0
 18 17  1  0  0  0  0
 19 18  1  0  0  0  0
 21 26  1  0  0  0  0
 21 20  1  0  0  0  0
 22 21  2  0  0  0  0
 23 24  2  0  0  0  0
 23 22  1  0  0  0  0
 24 25  1  0  0  0  0
 25 29  1  0  0  0  0
 25 26  2  0  0  0  0
 27 22  1  0  0  0  0
 28 23  1  0  0  0  0
M  END
>  <minimizedAffinity>
-4.67952824

$$$$
