
 OpenBabel03272509203D

 44 47  0  0  0  0  0  0  0  0999 V2000
   38.0240   31.2210   47.7070 C   0  0  0  0  0  0  0  0  0  0  0  0
   37.1020   31.2740   48.7340 C   0  0  0  0  0  0  0  0  0  0  0  0
   37.2290   32.3930   49.5640 C   0  0  0  0  0  0  0  0  0  0  0  0
   38.2210   33.3730   49.3530 C   0  0  0  0  0  0  0  0  0  0  0  0
   39.1140   33.2160   48.2670 C   0  0  0  0  0  0  0  0  0  0  0  0
   39.0000   32.1130   47.4360 C   0  0  0  0  0  0  0  0  0  0  0  0
   36.5370   32.4960   50.3890 H   0  0  0  0  0  0  0  0  0  0  0  0
   38.3100   34.2230   49.9910 H   0  0  0  0  0  0  0  0  0  0  0  0
   39.8620   33.9860   48.1340 H   0  0  0  0  0  0  0  0  0  0  0  0
   34.9350   30.2930   48.1940 C   0  0  0  0  0  0  0  0  0  0  0  0
   36.0950   30.2890   48.9560 C   0  0  0  0  0  0  0  0  0  0  0  0
   36.2280   29.2940   49.9360 C   0  0  0  0  0  0  0  0  0  0  0  0
   35.2230   28.3950   50.0850 N   0  0  0  0  0  0  0  0  0  0  0  0
   34.1040   28.4340   49.3170 C   0  0  0  0  0  0  0  0  0  0  0  0
   33.9640   29.3790   48.3780 N   0  0  0  0  0  0  0  0  0  0  0  0
   34.7760   31.0410   47.4180 H   0  0  0  0  0  0  0  0  0  0  0  0
   33.3740   27.6650   49.5270 H   0  0  0  0  0  0  0  0  0  0  0  0
   37.4410   29.2390   50.7800 C   0  0  0  0  0  0  0  0  0  0  0  0
   37.6970   30.2600   51.1100 H   0  0  0  0  0  0  0  0  0  0  0  0
   38.2840   28.8110   50.1990 H   0  0  0  0  0  0  0  0  0  0  0  0
   37.2510   28.5880   51.6500 H   0  0  0  0  0  0  0  0  0  0  0  0
   37.9800   30.1350   46.8160 O   0  0  0  0  0  0  0  0  0  0  0  0
   37.3840   30.1110   46.0020 H   0  0  0  0  0  0  0  0  0  0  0  0
   39.8980   32.0200   46.4000 O   0  0  0  0  0  0  0  0  0  0  0  0
   40.3280   31.4340   44.0280 C   0  0  0  0  0  0  0  0  0  0  0  0
   39.6070   31.9710   45.0630 C   0  0  0  0  0  0  0  0  0  0  0  0
   38.3820   32.5730   44.7710 C   0  0  0  0  0  0  0  0  0  0  0  0
   37.9180   32.6180   43.4530 C   0  0  0  0  0  0  0  0  0  0  0  0
   36.7990   33.1190   42.8690 N   0  0  0  0  0  0  0  0  0  0  0  0
   36.8350   32.9010   41.5480 C   0  0  0  0  0  0  0  0  0  0  0  0
   37.9930   32.2520   41.3000 N   0  0  0  0  0  0  0  0  0  0  0  0
   38.6700   32.0700   42.4530 C   0  0  0  0  0  0  0  0  0  0  0  0
   39.8720   31.4790   42.7380 C   0  0  0  0  0  0  0  0  0  0  0  0
   41.2650   30.9830   44.3150 H   0  0  0  0  0  0  0  0  0  0  0  0
   37.7150   33.0330   45.4880 H   0  0  0  0  0  0  0  0  0  0  0  0
   36.0320   33.6030   43.3920 H   0  0  0  0  0  0  0  0  0  0  0  0
   36.0660   33.2030   40.8690 H   0  0  0  0  0  0  0  0  0  0  0  0
   40.6110   30.9270   41.6650 N   0  0  0  0  0  0  0  0  0  0  0  0
   41.0140   31.5100   40.9020 H   0  0  0  0  0  0  0  0  0  0  0  0
   41.0600   29.3410   41.2600 S   0  0  0  0  0  0  0  0  0  0  0  0
   41.8260   29.2490   39.9680 O   0  0  0  0  0  0  0  0  0  0  0  0
   39.9240   28.3930   41.1800 O   0  0  0  0  0  0  0  0  0  0  0  0
   42.1290   28.7980   42.4560 O   0  0  0  0  0  0  0  0  0  0  0  0
   43.0660   29.0580   42.2670 H   0  0  0  0  0  0  0  0  0  0  0  0
  1  2  1  0  0  0  0
  2 11  1  0  0  0  0
  2  3  2  0  0  0  0
  3  7  1  0  0  0  0
  4  3  1  0  0  0  0
  4  8  1  0  0  0  0
  5  4  2  0  0  0  0
  6  1  2  0  0  0  0
  6  5  1  0  0  0  0
  9  5  1  0  0  0  0
 10 15  2  0  0  0  0
 10 11  1  0  0  0  0
 11 12  2  0  0  0  0
 12 13  1  0  0  0  0
 12 18  1  0  0  0  0
 14 17  1  0  0  0  0
 14 13  2  0  0  0  0
 15 14  1  0  0  0  0
 16 10  1  0  0  0  0
 18 19  1  0  0  0  0
 18 21  1  0  0  0  0
 20 18  1  0  0  0  0
 22  1  1  0  0  0  0
 23 22  1  0  0  0  0
 24  6  1  0  0  0  0
 25 34  1  0  0  0  0
 25 26  1  0  0  0  0
 26 24  1  0  0  0  0
 27 26  2  0  0  0  0
 27 35  1  0  0  0  0
 28 27  1  0  0  0  0
 29 36  1  0  0  0  0
 29 28  1  0  0  0  0
 30 29  1  0  0  0  0
 31 30  2  0  0  0  0
 31 32  1  0  0  0  0
 32 33  1  0  0  0  0
 32 28  2  0  0  0  0
 33 25  2  0  0  0  0
 37 30  1  0  0  0  0
 38 33  1  0  0  0  0
 39 38  1  0  0  0  0
 40 38  1  0  0  0  0
 40 43  1  0  0  0  0
 41 40  1  0  0  0  0
 42 40  1  0  0  0  0
 44 43  1  0  0  0  0
M  END
>  <minimizedAffinity>
-7.73078775

>  <minimizedRMSD>
0.536352098

$$$$
