
 OpenBabel03272510143D

 26 27  0  0  0  0  0  0  0  0999 V2000
   36.9570   29.5910   51.2300 Br  0  0  0  0  0  0  0  0  0  0  0  0
   35.9000   29.3220   49.6720 C   0  0  0  0  0  0  0  0  0  0  0  0
   36.0860   30.0920   48.5440 C   0  0  0  0  0  0  0  0  0  0  0  0
   35.2780   29.8340   47.4530 C   0  0  0  0  0  0  0  0  0  0  0  0
   34.3050   28.8490   47.4440 C   0  0  0  0  0  0  0  0  0  0  0  0
   34.1440   28.0990   48.5800 C   0  0  0  0  0  0  0  0  0  0  0  0
   34.9460   28.3410   49.6900 C   0  0  0  0  0  0  0  0  0  0  0  0
   35.4320   30.4530   46.5600 H   0  0  0  0  0  0  0  0  0  0  0  0
   33.3810   27.3330   48.5610 H   0  0  0  0  0  0  0  0  0  0  0  0
   34.7460   27.6970   50.5440 H   0  0  0  0  0  0  0  0  0  0  0  0
   37.9000   33.1260   49.4380 C   0  0  0  0  0  0  0  0  0  0  0  0
   38.9850   33.1590   48.5220 C   0  0  0  0  0  0  0  0  0  0  0  0
   39.0630   32.1200   47.6090 C   0  0  0  0  0  0  0  0  0  0  0  0
   38.1180   31.1230   47.6190 N   0  0  0  0  0  0  0  0  0  0  0  0
   37.1000   31.1390   48.5160 C   0  0  0  0  0  0  0  0  0  0  0  0
   36.9930   32.1440   49.4260 N   0  0  0  0  0  0  0  0  0  0  0  0
   37.7600   33.9000   50.1880 H   0  0  0  0  0  0  0  0  0  0  0  0
   39.6770   33.9780   48.5870 H   0  0  0  0  0  0  0  0  0  0  0  0
   39.8780   32.1310   46.9100 H   0  0  0  0  0  0  0  0  0  0  0  0
   33.5500   28.7070   46.2340 N   0  0  0  0  0  0  0  0  0  0  0  0
   34.0040   28.0330   45.6140 H   0  0  0  0  0  0  0  0  0  0  0  0
   32.0880   29.5600   45.8980 S   0  0  0  0  0  0  0  0  0  0  0  0
   31.0050   29.0900   46.8030 O   0  0  0  0  0  1  0  0  0  0  0  0
   32.3330   31.0310   46.2010 O   0  0  0  0  0  1  0  0  0  0  0  0
   31.6650   29.4900   44.2740 O   0  0  0  0  0  0  0  0  0  0  0  0
   31.1870   28.6280   44.1280 H   0  0  0  0  0  0  0  0  0  0  0  0
  2  7  1  0  0  0  0
  2  1  1  0  0  0  0
  3  2  2  0  0  0  0
  4  3  1  0  0  0  0
  5  4  2  0  0  0  0
  5  6  1  0  0  0  0
  6  7  2  0  0  0  0
  7 10  1  0  0  0  0
  8  4  1  0  0  0  0
  9  6  1  0  0  0  0
 11 17  1  0  0  0  0
 12 18  1  0  0  0  0
 12 11  2  0  0  0  0
 13 14  2  0  0  0  0
 13 12  1  0  0  0  0
 14 15  1  0  0  0  0
 15  3  1  0  0  0  0
 15 16  2  0  0  0  0
 16 11  1  0  0  0  0
 19 13  1  0  0  0  0
 20  5  1  0  0  0  0
 21 20  1  0  0  0  0
 22 24  1  0  0  0  0
 22 20  1  0  0  0  0
 22 23  1  0  0  0  0
 25 22  1  0  0  0  0
 26 25  1  0  0  0  0
M  END
>  <minimizedAffinity>
-5.52837372

>  <minimizedRMSD>
0.787935793

$$$$
