
 OpenBabel03272506213D

 26 27  0  0  0  0  0  0  0  0999 V2000
   37.6030   30.4640   50.8470 C   0  0  0  0  0  0  0  0  0  0  0  0
   37.1210   30.8650   49.5840 C   0  0  0  0  0  0  0  0  0  0  0  0
   35.8550   30.4260   49.2100 C   0  0  0  0  0  0  0  0  0  0  0  0
   35.1440   29.6480   50.0490 N   0  0  0  0  0  0  0  0  0  0  0  0
   35.6370   29.2770   51.2630 C   0  0  0  0  0  0  0  0  0  0  0  0
   36.8720   29.6890   51.6610 N   0  0  0  0  0  0  0  0  0  0  0  0
   38.5620   30.7240   51.2720 H   0  0  0  0  0  0  0  0  0  0  0  0
   34.9660   28.6420   51.8580 H   0  0  0  0  0  0  0  0  0  0  0  0
   38.0070   31.7020   48.7860 C   0  0  0  0  0  0  0  0  0  0  0  0
   38.4750   31.1440   47.6030 C   0  0  0  0  0  0  0  0  0  0  0  0
   39.3250   31.7970   46.7270 C   0  0  0  0  0  0  0  0  0  0  0  0
   39.7510   33.0850   47.0260 C   0  0  0  0  0  0  0  0  0  0  0  0
   39.2810   33.6280   48.1990 C   0  0  0  0  0  0  0  0  0  0  0  0
   38.4310   32.9860   49.0810 C   0  0  0  0  0  0  0  0  0  0  0  0
   38.1870   30.1370   47.2980 H   0  0  0  0  0  0  0  0  0  0  0  0
   39.6670   31.3230   45.8140 H   0  0  0  0  0  0  0  0  0  0  0  0
   40.4130   33.6590   46.3930 H   0  0  0  0  0  0  0  0  0  0  0  0
   39.5460   34.6330   48.5380 H   0  0  0  0  0  0  0  0  0  0  0  0
   38.0610   33.3940   49.9920 H   0  0  0  0  0  0  0  0  0  0  0  0
   35.3760   30.8230   47.9590 N   0  0  0  0  0  0  0  0  0  0  0  0
   35.7270   31.6630   47.4520 H   0  0  0  0  0  0  0  0  0  0  0  0
   34.1440   29.9640   47.1080 S   0  0  0  0  0  0  0  0  0  0  0  0
   33.5180   28.8910   47.9680 O   0  0  0  0  0  0  0  0  0  0  0  0
   34.7470   29.3520   45.8880 O   0  0  0  0  0  0  0  0  0  0  0  0
   32.8910   31.0310   46.7000 O   0  0  0  0  0  0  0  0  0  0  0  0
   33.2910   31.7870   46.1860 H   0  0  0  0  0  0  0  0  0  0  0  0
  1  7  1  0  0  0  0
  1  6  1  0  0  0  0
  2  1  2  0  0  0  0
  3  2  1  0  0  0  0
  3  4  2  0  0  0  0
  4  5  1  0  0  0  0
  5  6  2  0  0  0  0
  5  8  1  0  0  0  0
  9 14  1  0  0  0  0
  9  2  1  0  0  0  0
 10  9  2  0  0  0  0
 11 12  2  0  0  0  0
 11 10  1  0  0  0  0
 12 13  1  0  0  0  0
 13 18  1  0  0  0  0
 13 14  2  0  0  0  0
 14 19  1  0  0  0  0
 15 10  1  0  0  0  0
 16 11  1  0  0  0  0
 17 12  1  0  0  0  0
 20  3  1  0  0  0  0
 21 20  1  0  0  0  0
 22 20  1  0  0  0  0
 22 23  1  0  0  0  0
 24 22  1  0  0  0  0
 25 22  1  0  0  0  0
 26 25  1  0  0  0  0
M  END
>  <minimizedAffinity>
-5.82208776

>  <minimizedRMSD>
1.04423964

$$$$
