
 OpenBabel03272510153D

 26 27  0  0  0  0  0  0  0  0999 V2000
   37.2630   29.3600   51.0450 Br  0  0  0  0  0  0  0  0  0  0  0  0
   35.9210   29.3720   49.6990 C   0  0  0  0  0  0  0  0  0  0  0  0
   35.9500   30.2910   48.6720 C   0  0  0  0  0  0  0  0  0  0  0  0
   34.9390   30.2350   47.7330 C   0  0  0  0  0  0  0  0  0  0  0  0
   33.9120   29.3070   47.7770 C   0  0  0  0  0  0  0  0  0  0  0  0
   33.9090   28.4050   48.8090 C   0  0  0  0  0  0  0  0  0  0  0  0
   34.9170   28.4430   49.7660 C   0  0  0  0  0  0  0  0  0  0  0  0
   34.9700   30.9710   46.9200 H   0  0  0  0  0  0  0  0  0  0  0  0
   33.1020   27.6850   48.8330 H   0  0  0  0  0  0  0  0  0  0  0  0
   34.8330   27.6900   50.5460 H   0  0  0  0  0  0  0  0  0  0  0  0
   37.9890   33.1990   49.5010 C   0  0  0  0  0  0  0  0  0  0  0  0
   39.0030   33.2010   48.5060 C   0  0  0  0  0  0  0  0  0  0  0  0
   38.9550   32.1870   47.5630 C   0  0  0  0  0  0  0  0  0  0  0  0
   37.9610   31.2410   47.6210 N   0  0  0  0  0  0  0  0  0  0  0  0
   37.0150   31.2850   48.5930 C   0  0  0  0  0  0  0  0  0  0  0  0
   37.0320   32.2660   49.5340 N   0  0  0  0  0  0  0  0  0  0  0  0
   37.9480   33.9570   50.2790 H   0  0  0  0  0  0  0  0  0  0  0  0
   39.7410   33.9810   48.5380 H   0  0  0  0  0  0  0  0  0  0  0  0
   39.7150   32.1750   46.8040 H   0  0  0  0  0  0  0  0  0  0  0  0
   32.9390   29.3800   46.7270 N   0  0  0  0  0  0  0  0  0  0  0  0
   32.0100   29.5520   47.1200 H   0  0  0  0  0  0  0  0  0  0  0  0
   33.3060   29.1980   45.0500 S   0  0  0  0  0  0  0  0  0  0  0  0
   33.0520   30.4750   44.3320 O   0  0  0  0  0  1  0  0  0  0  0  0
   34.7940   28.8970   44.9370 O   0  0  0  0  0  1  0  0  0  0  0  0
   32.5170   27.8860   44.3610 O   0  0  0  0  0  0  0  0  0  0  0  0
   31.5990   28.1860   44.1190 H   0  0  0  0  0  0  0  0  0  0  0  0
  2  7  1  0  0  0  0
  2  1  1  0  0  0  0
  3  2  2  0  0  0  0
  4  5  2  0  0  0  0
  4  3  1  0  0  0  0
  5  6  1  0  0  0  0
  6  9  1  0  0  0  0
  6  7  2  0  0  0  0
  7 10  1  0  0  0  0
  8  4  1  0  0  0  0
 11 16  1  0  0  0  0
 11 17  1  0  0  0  0
 12 18  1  0  0  0  0
 12 11  2  0  0  0  0
 13 14  2  0  0  0  0
 13 12  1  0  0  0  0
 14 15  1  0  0  0  0
 15  3  1  0  0  0  0
 15 16  2  0  0  0  0
 19 13  1  0  0  0  0
 20 21  1  0  0  0  0
 20  5  1  0  0  0  0
 22 20  1  0  0  0  0
 23 22  1  0  0  0  0
 24 22  1  0  0  0  0
 25 22  1  0  0  0  0
 26 25  1  0  0  0  0
M  END
>  <minimizedAffinity>
-5.32511568

>  <minimizedRMSD>
0.169727489

$$$$
