
 OpenBabel03272508173D

 23 24  0  0  0  0  0  0  0  0999 V2000
   35.9780   30.2970   46.4980 C   0  0  0  0  0  0  0  0  0  0  0  0
   37.2780   30.6040   46.8960 C   0  0  0  0  0  0  0  0  0  0  0  0
   38.2190   30.7620   45.8520 C   0  0  0  0  0  0  0  0  0  0  0  0
   37.8030   30.6080   44.5590 N   0  0  0  0  0  0  0  0  0  0  0  0
   36.5220   30.3090   44.2340 C   0  0  0  0  0  0  0  0  0  0  0  0
   35.6340   30.1600   45.2240 N   0  0  0  0  0  0  0  0  0  0  0  0
   39.2460   30.9900   45.9020 H   0  0  0  0  0  0  0  0  0  0  0  0
   36.2190   30.1930   43.2160 H   0  0  0  0  0  0  0  0  0  0  0  0
   34.9890   30.2370   47.6420 C   0  0  0  0  0  0  0  0  0  0  0  0
   33.6940   29.6270   47.4450 C   0  0  0  0  0  0  0  0  0  0  0  0
   34.7650   28.7770   48.0830 C   0  0  0  0  0  0  0  0  0  0  0  0
   35.2780   30.8480   48.5490 H   0  0  0  0  0  0  0  0  0  0  0  0
   33.4520   29.2980   46.3970 H   0  0  0  0  0  0  0  0  0  0  0  0
   32.7900   29.9050   48.0180 H   0  0  0  0  0  0  0  0  0  0  0  0
   35.2600   27.9930   47.4930 H   0  0  0  0  0  0  0  0  0  0  0  0
   34.6620   28.6370   49.1690 H   0  0  0  0  0  0  0  0  0  0  0  0
   37.7820   30.7710   48.2070 N   0  0  0  0  0  0  0  0  0  0  0  0
   38.2090   29.9790   48.7370 H   0  0  0  0  0  0  0  0  0  0  0  0
   37.9240   32.0700   49.3240 S   0  0  0  0  0  0  0  0  0  0  0  0
   38.9780   31.7490   50.3450 O   0  0  0  0  0  0  0  0  0  0  0  0
   36.6300   32.2310   50.0740 O   0  0  0  0  0  0  0  0  0  0  0  0
   38.3800   33.4940   48.5490 O   0  0  0  0  0  0  0  0  0  0  0  0
   37.7340   34.2050   48.7700 H   0  0  0  0  0  0  0  0  0  0  0  0
  1  2  1  0  0  0  0
  1  9  1  0  0  0  0
  2 17  1  0  0  0  0
  3  7  1  0  0  0  0
  3  2  2  0  0  0  0
  4  3  1  0  0  0  0
  5  4  2  0  0  0  0
  5  6  1  0  0  0  0
  6  1  2  0  0  0  0
  8  5  1  0  0  0  0
  9 11  1  0  0  0  0
  9 12  1  0  0  0  0
 10  9  1  0  0  0  0
 10 14  1  0  0  0  0
 10 11  1  0  0  0  0
 11 16  1  0  0  0  0
 13 10  1  0  0  0  0
 15 11  1  0  0  0  0
 17 18  1  0  0  0  0
 17 19  1  0  0  0  0
 19 21  1  0  0  0  0
 19 20  1  0  0  0  0
 22 23  1  0  0  0  0
 22 19  1  0  0  0  0
M  END
>  <minimizedAffinity>
-3.68340182

>  <minimizedRMSD>
3.7673223

$$$$
