
 OpenBabel03272509593D

 44 46  0  0  0  0  0  0  0  0999 V2000
   35.6770   25.6720   31.5170 C   0  0  0  0  0  0  0  0  0  0  0  0
   35.1490   26.1820   30.6730 H   0  0  0  0  0  0  0  0  0  0  0  0
   34.8730   25.3010   32.2130 H   0  0  0  0  0  0  0  0  0  0  0  0
   36.5540   24.5670   31.0370 C   0  0  0  0  0  0  0  0  0  0  0  0
   37.5700   24.8870   30.7410 H   0  0  0  0  0  0  0  0  0  0  0  0
   36.1010   24.1600   30.0880 H   0  0  0  0  0  0  0  0  0  0  0  0
   36.6350   23.4250   31.9860 C   0  0  0  0  0  0  0  0  0  0  0  0
   35.6720   22.4370   31.8940 C   0  0  0  0  0  0  0  0  0  0  0  0
   35.6620   21.3460   32.7230 C   0  0  0  0  0  0  0  0  0  0  0  0
   36.6210   21.2330   33.6580 N   0  0  0  0  0  0  0  0  0  0  0  0
   37.5520   22.2090   33.7330 C   0  0  0  0  0  0  0  0  0  0  0  0
   37.5930   23.2860   32.9410 N   0  0  0  0  0  0  0  0  0  0  0  0
   34.8800   22.4790   31.1600 H   0  0  0  0  0  0  0  0  0  0  0  0
   34.9180   20.5780   32.6550 H   0  0  0  0  0  0  0  0  0  0  0  0
   38.6100   22.0470   34.7920 C   0  0  0  0  0  0  0  0  0  0  0  0
   39.2470   21.1680   34.6250 H   0  0  0  0  0  0  0  0  0  0  0  0
   39.2700   22.9290   34.7850 H   0  0  0  0  0  0  0  0  0  0  0  0
   37.8890   21.9800   36.0470 N   0  0  0  0  0  0  0  0  0  0  0  0
   37.9740   21.0610   36.5130 H   0  0  0  0  0  0  0  0  0  0  0  0
   38.4300   23.1910   37.1540 S   0  0  0  0  0  0  0  0  0  0  0  0
   37.5130   24.3570   37.0430 O   0  0  0  0  0  1  0  0  0  0  0  0
   39.8530   23.5120   36.7750 O   0  0  0  0  0  1  0  0  0  0  0  0
   38.4440   22.6360   38.7220 O   0  0  0  0  0  0  0  0  0  0  0  0
   37.5360   22.6240   39.1530 H   0  0  0  0  0  0  0  0  0  0  0  0
   36.4280   26.6430   32.2380 O   0  0  0  0  0  0  0  0  0  0  0  0
   36.1050   29.9480   30.8030 C   0  0  0  0  0  0  0  0  0  0  0  0
   35.6150   30.6520   31.9220 C   0  0  0  0  0  0  0  0  0  0  0  0
   35.4260   29.9520   33.0970 C   0  0  0  0  0  0  0  0  0  0  0  0
   35.7350   28.6190   33.0710 N   0  0  0  0  0  0  0  0  0  0  0  0
   36.2000   27.9620   31.9990 C   0  0  0  0  0  0  0  0  0  0  0  0
   36.3850   28.6430   30.8530 N   0  0  0  0  0  0  0  0  0  0  0  0
   36.2490   30.5080   29.8860 H   0  0  0  0  0  0  0  0  0  0  0  0
   35.3810   31.6910   31.9200 H   0  0  0  0  0  0  0  0  0  0  0  0
   32.7870   29.7230   34.2560 F   0  0  0  0  0  0  0  0  0  0  0  0
   33.7160   30.4180   34.8900 C   0  0  0  0  0  0  0  0  0  0  0  0
   34.9330   30.5130   34.3370 C   0  0  0  0  0  0  0  0  0  0  0  0
   35.8380   31.2690   35.0900 C   0  0  0  0  0  0  0  0  0  0  0  0
   35.5030   31.8560   36.2800 C   0  0  0  0  0  0  0  0  0  0  0  0
   34.2480   31.7350   36.8100 C   0  0  0  0  0  0  0  0  0  0  0  0
   33.3520   31.0010   36.0890 C   0  0  0  0  0  0  0  0  0  0  0  0
   36.8680   31.4120   34.7280 H   0  0  0  0  0  0  0  0  0  0  0  0
   36.2430   32.4340   36.8260 H   0  0  0  0  0  0  0  0  0  0  0  0
   34.0350   32.2170   37.7510 H   0  0  0  0  0  0  0  0  0  0  0  0
   32.3440   30.8840   36.4810 H   0  0  0  0  0  0  0  0  0  0  0  0
  1  3  1  0  0  0  0
  1 25  1  0  0  0  0
  2  1  1  0  0  0  0
  4  1  1  0  0  0  0
  4  7  1  0  0  0  0
  5  4  1  0  0  0  0
  6  4  1  0  0  0  0
  7 12  1  0  0  0  0
  8  7  2  0  0  0  0
  8  9  1  0  0  0  0
  9 10  2  0  0  0  0
 10 11  1  0  0  0  0
 11 15  1  0  0  0  0
 12 11  2  0  0  0  0
 13  8  1  0  0  0  0
 14  9  1  0  0  0  0
 15 18  1  0  0  0  0
 16 15  1  0  0  0  0
 17 15  1  0  0  0  0
 18 19  1  0  0  0  0
 18 20  1  0  0  0  0
 20 23  1  0  0  0  0
 21 20  1  0  0  0  0
 22 20  1  0  0  0  0
 23 24  1  0  0  0  0
 26 31  2  0  0  0  0
 26 27  1  0  0  0  0
 27 28  2  0  0  0  0
 28 36  1  0  0  0  0
 29 28  1  0  0  0  0
 30 25  1  0  0  0  0
 30 29  2  0  0  0  0
 31 30  1  0  0  0  0
 32 26  1  0  0  0  0
 33 27  1  0  0  0  0
 34 35  1  0  0  0  0
 35 40  1  0  0  0  0
 36 35  2  0  0  0  0
 36 37  1  0  0  0  0
 37 38  2  0  0  0  0
 38 39  1  0  0  0  0
 38 42  1  0  0  0  0
 39 43  1  0  0  0  0
 40 44  1  0  0  0  0
 40 39  2  0  0  0  0
 41 37  1  0  0  0  0
M  END
>  <minimizedAffinity>
-6.17211151

$$$$

 OpenBabel03272509593D

 44 46  0  0  0  0  0  0  0  0999 V2000
   39.4260   26.1280   33.5640 C   0  0  0  0  0  0  0  0  0  0  0  0
   38.8420   25.5280   34.3040 H   0  0  0  0  0  0  0  0  0  0  0  0
   38.9980   27.1690   33.5930 H   0  0  0  0  0  0  0  0  0  0  0  0
   40.8850   26.1170   33.8700 C   0  0  0  0  0  0  0  0  0  0  0  0
   41.2880   27.0900   34.2060 H   0  0  0  0  0  0  0  0  0  0  0  0
   41.4330   25.9050   32.9080 H   0  0  0  0  0  0  0  0  0  0  0  0
   41.2790   25.0440   34.8220 C   0  0  0  0  0  0  0  0  0  0  0  0
   42.6080   24.9660   35.1960 C   0  0  0  0  0  0  0  0  0  0  0  0
   43.0680   24.0130   36.0680 C   0  0  0  0  0  0  0  0  0  0  0  0
   42.1970   23.1250   36.5760 N   0  0  0  0  0  0  0  0  0  0  0  0
   40.9030   23.2170   36.1980 C   0  0  0  0  0  0  0  0  0  0  0  0
   40.4200   24.1330   35.3500 N   0  0  0  0  0  0  0  0  0  0  0  0
   43.3490   25.6560   34.8180 H   0  0  0  0  0  0  0  0  0  0  0  0
   44.0960   23.9490   36.3610 H   0  0  0  0  0  0  0  0  0  0  0  0
   39.9570   22.2040   36.7880 C   0  0  0  0  0  0  0  0  0  0  0  0
   39.0720   22.0330   36.1590 H   0  0  0  0  0  0  0  0  0  0  0  0
   40.4740   21.2370   36.8850 H   0  0  0  0  0  0  0  0  0  0  0  0
   39.6160   22.7170   38.0990 N   0  0  0  0  0  0  0  0  0  0  0  0
   40.2240   23.4990   38.3980 H   0  0  0  0  0  0  0  0  0  0  0  0
   37.9780   23.2600   38.1600 S   0  0  0  0  0  0  0  0  0  0  0  0
   37.4540   23.2990   36.7690 O   0  0  0  0  0  1  0  0  0  0  0  0
   38.0000   24.6120   38.8270 O   0  0  0  0  0  1  0  0  0  0  0  0
   37.0270   22.2610   39.0900 O   0  0  0  0  0  0  0  0  0  0  0  0
   36.7470   21.4180   38.6180 H   0  0  0  0  0  0  0  0  0  0  0  0
   39.1750   25.6160   32.2600 O   0  0  0  0  0  0  0  0  0  0  0  0
   35.7200   25.8520   31.2130 C   0  0  0  0  0  0  0  0  0  0  0  0
   35.3840   24.4830   31.1700 C   0  0  0  0  0  0  0  0  0  0  0  0
   36.3610   23.5650   31.5030 C   0  0  0  0  0  0  0  0  0  0  0  0
   37.5850   24.0720   31.8490 N   0  0  0  0  0  0  0  0  0  0  0  0
   37.8890   25.3770   31.8840 C   0  0  0  0  0  0  0  0  0  0  0  0
   36.9380   26.2730   31.5600 N   0  0  0  0  0  0  0  0  0  0  0  0
   34.9440   26.5630   30.9490 H   0  0  0  0  0  0  0  0  0  0  0  0
   34.4240   24.1090   30.8990 H   0  0  0  0  0  0  0  0  0  0  0  0
   37.9370   21.5530   30.1490 F   0  0  0  0  0  0  0  0  0  0  0  0
   36.9110   21.1810   30.8950 C   0  0  0  0  0  0  0  0  0  0  0  0
   36.1920   22.1270   31.5140 C   0  0  0  0  0  0  0  0  0  0  0  0
   35.1310   21.6240   32.2760 C   0  0  0  0  0  0  0  0  0  0  0  0
   34.8580   20.2870   32.3720 C   0  0  0  0  0  0  0  0  0  0  0  0
   35.6160   19.3520   31.7230 C   0  0  0  0  0  0  0  0  0  0  0  0
   36.6550   19.8250   30.9760 C   0  0  0  0  0  0  0  0  0  0  0  0
   34.4760   22.3150   32.8270 H   0  0  0  0  0  0  0  0  0  0  0  0
   34.0220   19.9480   32.9770 H   0  0  0  0  0  0  0  0  0  0  0  0
   35.3600   18.3110   31.8320 H   0  0  0  0  0  0  0  0  0  0  0  0
   37.2800   19.1090   30.4450 H   0  0  0  0  0  0  0  0  0  0  0  0
  1  3  1  0  0  0  0
  1  4  1  0  0  0  0
  1  2  1  0  0  0  0
  4  5  1  0  0  0  0
  4  7  1  0  0  0  0
  6  4  1  0  0  0  0
  7  8  2  0  0  0  0
  7 12  1  0  0  0  0
  8  9  1  0  0  0  0
  9 14  1  0  0  0  0
  9 10  2  0  0  0  0
 11 10  1  0  0  0  0
 11 15  1  0  0  0  0
 12 11  2  0  0  0  0
 13  8  1  0  0  0  0
 15 17  1  0  0  0  0
 15 18  1  0  0  0  0
 16 15  1  0  0  0  0
 18 20  1  0  0  0  0
 18 19  1  0  0  0  0
 20 22  1  0  0  0  0
 20 23  1  0  0  0  0
 21 20  1  0  0  0  0
 24 23  1  0  0  0  0
 25  1  1  0  0  0  0
 26 31  1  0  0  0  0
 27 26  2  0  0  0  0
 27 28  1  0  0  0  0
 28 36  1  0  0  0  0
 28 29  2  0  0  0  0
 29 30  1  0  0  0  0
 30 25  1  0  0  0  0
 31 30  2  0  0  0  0
 32 26  1  0  0  0  0
 33 27  1  0  0  0  0
 34 35  1  0  0  0  0
 35 40  2  0  0  0  0
 35 36  1  0  0  0  0
 36 37  2  0  0  0  0
 37 38  1  0  0  0  0
 37 41  1  0  0  0  0
 38 42  1  0  0  0  0
 39 43  1  0  0  0  0
 39 38  2  0  0  0  0
 40 39  1  0  0  0  0
 44 40  1  0  0  0  0
M  END
>  <minimizedAffinity>
-6.12503862

$$$$

 OpenBabel03272509593D

 44 46  0  0  0  0  0  0  0  0999 V2000
   38.5050   26.9950   34.4190 C   0  0  0  0  0  0  0  0  0  0  0  0
   39.0610   27.9090   34.0970 H   0  0  0  0  0  0  0  0  0  0  0  0
   39.1160   26.1150   34.0730 H   0  0  0  0  0  0  0  0  0  0  0  0
   38.2800   26.9730   35.8930 C   0  0  0  0  0  0  0  0  0  0  0  0
   37.3710   27.5080   36.2230 H   0  0  0  0  0  0  0  0  0  0  0  0
   39.1280   27.5370   36.3750 H   0  0  0  0  0  0  0  0  0  0  0  0
   38.3040   25.6030   36.4710 C   0  0  0  0  0  0  0  0  0  0  0  0
   37.9170   25.4500   37.7900 C   0  0  0  0  0  0  0  0  0  0  0  0
   37.9060   24.2290   38.4120 C   0  0  0  0  0  0  0  0  0  0  0  0
   38.2840   23.1430   37.7160 N   0  0  0  0  0  0  0  0  0  0  0  0
   38.6600   23.3130   36.4300 C   0  0  0  0  0  0  0  0  0  0  0  0
   38.6830   24.4880   35.7910 N   0  0  0  0  0  0  0  0  0  0  0  0
   37.6040   26.2900   38.3940 H   0  0  0  0  0  0  0  0  0  0  0  0
   37.6060   24.1060   39.4330 H   0  0  0  0  0  0  0  0  0  0  0  0
   39.0770   22.0740   35.6830 C   0  0  0  0  0  0  0  0  0  0  0  0
   38.9810   21.1610   36.2870 H   0  0  0  0  0  0  0  0  0  0  0  0
   38.4290   21.9450   34.8010 H   0  0  0  0  0  0  0  0  0  0  0  0
   40.4410   22.3200   35.2620 N   0  0  0  0  0  0  0  0  0  0  0  0
   40.6040   23.3010   34.9770 H   0  0  0  0  0  0  0  0  0  0  0  0
   41.5690   21.9310   36.5100 S   0  0  0  0  0  0  0  0  0  0  0  0
   42.3950   23.1390   36.7760 O   0  0  0  0  0  1  0  0  0  0  0  0
   42.3720   20.7580   36.0100 O   0  0  0  0  0  1  0  0  0  0  0  0
   40.8060   21.4530   37.9090 O   0  0  0  0  0  0  0  0  0  0  0  0
   40.4450   22.2190   38.4520 H   0  0  0  0  0  0  0  0  0  0  0  0
   37.2690   26.9400   33.7140 O   0  0  0  0  0  0  0  0  0  0  0  0
   36.2320   29.7490   31.6830 C   0  0  0  0  0  0  0  0  0  0  0  0
   35.5100   30.4890   32.6410 C   0  0  0  0  0  0  0  0  0  0  0  0
   35.4230   29.9800   33.9220 C   0  0  0  0  0  0  0  0  0  0  0  0
   36.0540   28.7880   34.1510 N   0  0  0  0  0  0  0  0  0  0  0  0
   36.7370   28.0940   33.2290 C   0  0  0  0  0  0  0  0  0  0  0  0
   36.8240   28.5890   31.9800 N   0  0  0  0  0  0  0  0  0  0  0  0
   36.2940   30.1580   30.6800 H   0  0  0  0  0  0  0  0  0  0  0  0
   35.0260   31.4160   32.4410 H   0  0  0  0  0  0  0  0  0  0  0  0
   32.6680   29.6440   34.7350 F   0  0  0  0  0  0  0  0  0  0  0  0
   33.4510   30.4610   35.4180 C   0  0  0  0  0  0  0  0  0  0  0  0
   34.7250   30.6050   35.0260 C   0  0  0  0  0  0  0  0  0  0  0  0
   35.4640   31.4920   35.8170 C   0  0  0  0  0  0  0  0  0  0  0  0
   34.9270   32.1500   36.8900 C   0  0  0  0  0  0  0  0  0  0  0  0
   33.6210   31.9760   37.2570 C   0  0  0  0  0  0  0  0  0  0  0  0
   32.8860   31.1140   36.4970 C   0  0  0  0  0  0  0  0  0  0  0  0
   36.5220   31.6840   35.5840 H   0  0  0  0  0  0  0  0  0  0  0  0
   35.5440   32.8290   37.4720 H   0  0  0  0  0  0  0  0  0  0  0  0
   33.2470   32.5180   38.1110 H   0  0  0  0  0  0  0  0  0  0  0  0
   31.8430   30.9520   36.7600 H   0  0  0  0  0  0  0  0  0  0  0  0
  1  4  1  0  0  0  0
  2  1  1  0  0  0  0
  3  1  1  0  0  0  0
  4  5  1  0  0  0  0
  4  6  1  0  0  0  0
  4  7  1  0  0  0  0
  7  8  1  0  0  0  0
  8 13  1  0  0  0  0
  8  9  2  0  0  0  0
  9 14  1  0  0  0  0
 10  9  1  0  0  0  0
 11 10  2  0  0  0  0
 12 11  1  0  0  0  0
 12  7  2  0  0  0  0
 15 16  1  0  0  0  0
 15 11  1  0  0  0  0
 17 15  1  0  0  0  0
 18 15  1  0  0  0  0
 18 20  1  0  0  0  0
 19 18  1  0  0  0  0
 20 21  1  0  0  0  0
 20 23  1  0  0  0  0
 22 20  1  0  0  0  0
 23 24  1  0  0  0  0
 25  1  1  0  0  0  0
 26 31  2  0  0  0  0
 26 27  1  0  0  0  0
 27 28  2  0  0  0  0
 28 29  1  0  0  0  0
 28 36  1  0  0  0  0
 30 25  1  0  0  0  0
 30 29  2  0  0  0  0
 31 30  1  0  0  0  0
 32 26  1  0  0  0  0
 33 27  1  0  0  0  0
 34 35  1  0  0  0  0
 35 40  1  0  0  0  0
 36 35  2  0  0  0  0
 36 37  1  0  0  0  0
 37 38  2  0  0  0  0
 38 39  1  0  0  0  0
 38 42  1  0  0  0  0
 39 43  1  0  0  0  0
 40 44  1  0  0  0  0
 40 39  2  0  0  0  0
 41 37  1  0  0  0  0
M  END
>  <minimizedAffinity>
-6.07037306

$$$$

 OpenBabel03272509593D

 44 46  0  0  0  0  0  0  0  0999 V2000
   38.3950   27.1140   34.6650 C   0  0  0  0  0  0  0  0  0  0  0  0
   38.6710   28.1970   34.7100 H   0  0  0  0  0  0  0  0  0  0  0  0
   39.1560   26.6230   33.9960 H   0  0  0  0  0  0  0  0  0  0  0  0
   38.3580   26.4940   36.0200 C   0  0  0  0  0  0  0  0  0  0  0  0
   37.6460   26.9680   36.7190 H   0  0  0  0  0  0  0  0  0  0  0  0
   39.3680   26.6540   36.4960 H   0  0  0  0  0  0  0  0  0  0  0  0
   38.1380   25.0230   35.9870 C   0  0  0  0  0  0  0  0  0  0  0  0
   37.7200   24.4050   37.1510 C   0  0  0  0  0  0  0  0  0  0  0  0
   37.4910   23.0550   37.2220 C   0  0  0  0  0  0  0  0  0  0  0  0
   37.6790   22.3070   36.1210 N   0  0  0  0  0  0  0  0  0  0  0  0
   38.0880   22.9300   34.9940 C   0  0  0  0  0  0  0  0  0  0  0  0
   38.3210   24.2430   34.8890 N   0  0  0  0  0  0  0  0  0  0  0  0
   37.5540   24.9600   38.0640 H   0  0  0  0  0  0  0  0  0  0  0  0
   37.1670   22.5720   38.1210 H   0  0  0  0  0  0  0  0  0  0  0  0
   38.2880   22.0590   33.7810 C   0  0  0  0  0  0  0  0  0  0  0  0
   39.0430   22.4590   33.0900 H   0  0  0  0  0  0  0  0  0  0  0  0
   38.6390   21.0650   34.1010 H   0  0  0  0  0  0  0  0  0  0  0  0
   36.9790   21.9470   33.1690 N   0  0  0  0  0  0  0  0  0  0  0  0
   36.2070   22.1370   33.8300 H   0  0  0  0  0  0  0  0  0  0  0  0
   36.8130   23.0250   31.8300 S   0  0  0  0  0  0  0  0  0  0  0  0
   35.5620   22.6690   31.1070 O   0  0  0  0  0  1  0  0  0  0  0  0
   38.0540   22.8600   30.9910 O   0  0  0  0  0  1  0  0  0  0  0  0
   36.7470   24.6140   32.3160 O   0  0  0  0  0  0  0  0  0  0  0  0
   35.8470   24.8900   32.6710 H   0  0  0  0  0  0  0  0  0  0  0  0
   37.1350   26.9910   34.0140 O   0  0  0  0  0  0  0  0  0  0  0  0
   35.9070   29.5970   31.8240 C   0  0  0  0  0  0  0  0  0  0  0  0
   35.3030   30.4480   32.7720 C   0  0  0  0  0  0  0  0  0  0  0  0
   35.3550   30.0770   34.1020 C   0  0  0  0  0  0  0  0  0  0  0  0
   35.9950   28.9000   34.3850 N   0  0  0  0  0  0  0  0  0  0  0  0
   36.5640   28.1000   33.4710 C   0  0  0  0  0  0  0  0  0  0  0  0
   36.5160   28.4610   32.1750 N   0  0  0  0  0  0  0  0  0  0  0  0
   35.8600   29.8980   30.7830 H   0  0  0  0  0  0  0  0  0  0  0  0
   34.8100   31.3600   32.5300 H   0  0  0  0  0  0  0  0  0  0  0  0
   36.6880   31.8870   35.9200 F   0  0  0  0  0  0  0  0  0  0  0  0
   35.3910   31.6700   36.0550 C   0  0  0  0  0  0  0  0  0  0  0  0
   34.7910   30.8270   35.2040 C   0  0  0  0  0  0  0  0  0  0  0  0
   33.4200   30.6700   35.4360 C   0  0  0  0  0  0  0  0  0  0  0  0
   32.7610   31.3200   36.4440 C   0  0  0  0  0  0  0  0  0  0  0  0
   33.4110   32.1730   37.2920 C   0  0  0  0  0  0  0  0  0  0  0  0
   34.7480   32.3380   37.0800 C   0  0  0  0  0  0  0  0  0  0  0  0
   32.8280   30.0000   34.7940 H   0  0  0  0  0  0  0  0  0  0  0  0
   31.6940   31.1630   36.5810 H   0  0  0  0  0  0  0  0  0  0  0  0
   32.8450   32.6600   38.0700 H   0  0  0  0  0  0  0  0  0  0  0  0
   35.2980   33.0090   37.7380 H   0  0  0  0  0  0  0  0  0  0  0  0
  1  2  1  0  0  0  0
  1  4  1  0  0  0  0
  3  1  1  0  0  0  0
  4  6  1  0  0  0  0
  4  5  1  0  0  0  0
  7  4  1  0  0  0  0
  7  8  1  0  0  0  0
  8  9  2  0  0  0  0
  8 13  1  0  0  0  0
  9 14  1  0  0  0  0
 10  9  1  0  0  0  0
 11 10  2  0  0  0  0
 12 11  1  0  0  0  0
 12  7  2  0  0  0  0
 15 17  1  0  0  0  0
 15 11  1  0  0  0  0
 16 15  1  0  0  0  0
 18 15  1  0  0  0  0
 18 19  1  0  0  0  0
 20 23  1  0  0  0  0
 20 18  1  0  0  0  0
 21 20  1  0  0  0  0
 22 20  1  0  0  0  0
 23 24  1  0  0  0  0
 25  1  1  0  0  0  0
 26 31  2  0  0  0  0
 26 27  1  0  0  0  0
 27 28  2  0  0  0  0
 28 29  1  0  0  0  0
 28 36  1  0  0  0  0
 30 25  1  0  0  0  0
 30 29  2  0  0  0  0
 31 30  1  0  0  0  0
 32 26  1  0  0  0  0
 33 27  1  0  0  0  0
 34 35  1  0  0  0  0
 35 40  1  0  0  0  0
 36 37  1  0  0  0  0
 36 35  2  0  0  0  0
 37 38  2  0  0  0  0
 38 42  1  0  0  0  0
 38 39  1  0  0  0  0
 39 43  1  0  0  0  0
 40 39  2  0  0  0  0
 40 44  1  0  0  0  0
 41 37  1  0  0  0  0
M  END
>  <minimizedAffinity>
-5.92989349

$$$$

 OpenBabel03272509593D

 44 46  0  0  0  0  0  0  0  0999 V2000
   38.0730   26.9000   34.8220 C   0  0  0  0  0  0  0  0  0  0  0  0
   38.2520   27.9640   35.1120 H   0  0  0  0  0  0  0  0  0  0  0  0
   39.0540   26.5100   34.4320 H   0  0  0  0  0  0  0  0  0  0  0  0
   37.5660   26.0900   35.9660 C   0  0  0  0  0  0  0  0  0  0  0  0
   36.5250   25.7380   35.8490 H   0  0  0  0  0  0  0  0  0  0  0  0
   37.5340   26.7620   36.8710 H   0  0  0  0  0  0  0  0  0  0  0  0
   38.4540   24.9510   36.3200 C   0  0  0  0  0  0  0  0  0  0  0  0
   38.1280   24.1980   37.4330 C   0  0  0  0  0  0  0  0  0  0  0  0
   38.8840   23.1290   37.8400 C   0  0  0  0  0  0  0  0  0  0  0  0
   39.9790   22.8020   37.1330 N   0  0  0  0  0  0  0  0  0  0  0  0
   40.2810   23.5510   36.0490 C   0  0  0  0  0  0  0  0  0  0  0  0
   39.5670   24.5990   35.6240 N   0  0  0  0  0  0  0  0  0  0  0  0
   37.2580   24.4170   38.0360 H   0  0  0  0  0  0  0  0  0  0  0  0
   38.6350   22.5420   38.7010 H   0  0  0  0  0  0  0  0  0  0  0  0
   41.5150   23.1540   35.2820 C   0  0  0  0  0  0  0  0  0  0  0  0
   41.6850   22.0690   35.2830 H   0  0  0  0  0  0  0  0  0  0  0  0
   41.4030   23.4610   34.2300 H   0  0  0  0  0  0  0  0  0  0  0  0
   42.6020   23.8870   35.8980 N   0  0  0  0  0  0  0  0  0  0  0  0
   43.4370   23.3020   36.0690 H   0  0  0  0  0  0  0  0  0  0  0  0
   43.0830   25.2360   34.9340 S   0  0  0  0  0  0  0  0  0  0  0  0
   43.2870   24.7560   33.5410 O   0  0  0  0  0  1  0  0  0  0  0  0
   44.3360   25.7880   35.5640 O   0  0  0  0  0  1  0  0  0  0  0  0
   41.9430   26.4470   34.9480 O   0  0  0  0  0  0  0  0  0  0  0  0
   41.1610   26.2710   34.3400 H   0  0  0  0  0  0  0  0  0  0  0  0
   37.1570   26.8720   33.7330 O   0  0  0  0  0  0  0  0  0  0  0  0
   36.1960   29.7080   31.7020 C   0  0  0  0  0  0  0  0  0  0  0  0
   35.5560   30.5000   32.6770 C   0  0  0  0  0  0  0  0  0  0  0  0
   35.4950   30.0140   33.9690 C   0  0  0  0  0  0  0  0  0  0  0  0
   36.0670   28.7910   34.1900 N   0  0  0  0  0  0  0  0  0  0  0  0
   36.6710   28.0480   33.2520 C   0  0  0  0  0  0  0  0  0  0  0  0
   36.7330   28.5200   31.9930 N   0  0  0  0  0  0  0  0  0  0  0  0
   36.2380   30.0990   30.6910 H   0  0  0  0  0  0  0  0  0  0  0  0
   35.1180   31.4510   32.4830 H   0  0  0  0  0  0  0  0  0  0  0  0
   36.7210   31.7840   35.9000 F   0  0  0  0  0  0  0  0  0  0  0  0
   35.4300   31.5150   35.9940 C   0  0  0  0  0  0  0  0  0  0  0  0
   34.8790   30.6920   35.0900 C   0  0  0  0  0  0  0  0  0  0  0  0
   33.5100   30.4760   35.2820 C   0  0  0  0  0  0  0  0  0  0  0  0
   32.8060   31.0540   36.3030 C   0  0  0  0  0  0  0  0  0  0  0  0
   33.4050   31.8880   37.2050 C   0  0  0  0  0  0  0  0  0  0  0  0
   34.7400   32.1100   37.0330 C   0  0  0  0  0  0  0  0  0  0  0  0
   32.9570   29.8170   34.5960 H   0  0  0  0  0  0  0  0  0  0  0  0
   31.7430   30.8540   36.4070 H   0  0  0  0  0  0  0  0  0  0  0  0
   32.8050   32.3190   37.9910 H   0  0  0  0  0  0  0  0  0  0  0  0
   35.2500   32.7690   37.7330 H   0  0  0  0  0  0  0  0  0  0  0  0
  1  2  1  0  0  0  0
  1  4  1  0  0  0  0
  3  1  1  0  0  0  0
  4  7  1  0  0  0  0
  4  6  1  0  0  0  0
  5  4  1  0  0  0  0
  7  8  1  0  0  0  0
  8  9  2  0  0  0  0
  8 13  1  0  0  0  0
  9 14  1  0  0  0  0
 10  9  1  0  0  0  0
 11 10  2  0  0  0  0
 12 11  1  0  0  0  0
 12  7  2  0  0  0  0
 15 16  1  0  0  0  0
 15 18  1  0  0  0  0
 15 11  1  0  0  0  0
 17 15  1  0  0  0  0
 18 19  1  0  0  0  0
 20 23  1  0  0  0  0
 20 22  1  0  0  0  0
 20 18  1  0  0  0  0
 21 20  1  0  0  0  0
 24 23  1  0  0  0  0
 25  1  1  0  0  0  0
 26 31  2  0  0  0  0
 26 27  1  0  0  0  0
 27 28  2  0  0  0  0
 28 29  1  0  0  0  0
 28 36  1  0  0  0  0
 30 25  1  0  0  0  0
 30 29  2  0  0  0  0
 31 30  1  0  0  0  0
 32 26  1  0  0  0  0
 33 27  1  0  0  0  0
 34 35  1  0  0  0  0
 35 40  1  0  0  0  0
 36 37  1  0  0  0  0
 36 35  2  0  0  0  0
 37 38  2  0  0  0  0
 38 42  1  0  0  0  0
 38 39  1  0  0  0  0
 39 43  1  0  0  0  0
 40 39  2  0  0  0  0
 40 44  1  0  0  0  0
 41 37  1  0  0  0  0
M  END
>  <minimizedAffinity>
-5.72076988

$$$$

 OpenBabel03272509593D

 44 46  0  0  0  0  0  0  0  0999 V2000
   35.6990   27.7190   31.9960 C   0  0  0  0  0  0  0  0  0  0  0  0
   34.6720   27.9730   32.3570 H   0  0  0  0  0  0  0  0  0  0  0  0
   36.3820   27.8270   32.8850 H   0  0  0  0  0  0  0  0  0  0  0  0
   35.7590   26.3510   31.4080 C   0  0  0  0  0  0  0  0  0  0  0  0
   36.0850   26.3220   30.3520 H   0  0  0  0  0  0  0  0  0  0  0  0
   34.7090   25.9420   31.3890 H   0  0  0  0  0  0  0  0  0  0  0  0
   36.5650   25.3980   32.2170 C   0  0  0  0  0  0  0  0  0  0  0  0
   36.6340   24.0840   31.7910 C   0  0  0  0  0  0  0  0  0  0  0  0
   37.3510   23.1320   32.4690 C   0  0  0  0  0  0  0  0  0  0  0  0
   38.0100   23.4880   33.5840 N   0  0  0  0  0  0  0  0  0  0  0  0
   37.9300   24.7760   33.9840 C   0  0  0  0  0  0  0  0  0  0  0  0
   37.2410   25.7310   33.3490 N   0  0  0  0  0  0  0  0  0  0  0  0
   36.1240   23.7450   30.9010 H   0  0  0  0  0  0  0  0  0  0  0  0
   37.4070   22.1130   32.1420 H   0  0  0  0  0  0  0  0  0  0  0  0
   38.6810   25.1370   35.2390 C   0  0  0  0  0  0  0  0  0  0  0  0
   39.6380   24.6050   35.3290 H   0  0  0  0  0  0  0  0  0  0  0  0
   38.9120   26.2140   35.2280 H   0  0  0  0  0  0  0  0  0  0  0  0
   37.7750   24.8370   36.3290 N   0  0  0  0  0  0  0  0  0  0  0  0
   36.7890   24.7650   36.0250 H   0  0  0  0  0  0  0  0  0  0  0  0
   38.2000   23.3620   37.1190 S   0  0  0  0  0  0  0  0  0  0  0  0
   37.7240   23.4400   38.5260 O   0  0  0  0  0  1  0  0  0  0  0  0
   39.6970   23.2310   37.0020 O   0  0  0  0  0  1  0  0  0  0  0  0
   37.5240   22.0400   36.3700 O   0  0  0  0  0  0  0  0  0  0  0  0
   36.5540   21.9010   36.5980 H   0  0  0  0  0  0  0  0  0  0  0  0
   36.1040   28.7000   31.0470 O   0  0  0  0  0  0  0  0  0  0  0  0
   36.8110   32.2360   31.3440 C   0  0  0  0  0  0  0  0  0  0  0  0
   36.2390   32.4930   32.6070 C   0  0  0  0  0  0  0  0  0  0  0  0
   35.6480   31.4400   33.2770 C   0  0  0  0  0  0  0  0  0  0  0  0
   35.6700   30.2250   32.6480 N   0  0  0  0  0  0  0  0  0  0  0  0
   36.2170   29.9950   31.4460 C   0  0  0  0  0  0  0  0  0  0  0  0
   36.7940   31.0200   30.7910 N   0  0  0  0  0  0  0  0  0  0  0  0
   37.2720   33.0700   30.8260 H   0  0  0  0  0  0  0  0  0  0  0  0
   36.2340   33.4480   33.0790 H   0  0  0  0  0  0  0  0  0  0  0  0
   36.7980   32.2940   35.7900 F   0  0  0  0  0  0  0  0  0  0  0  0
   35.5320   31.9170   35.7500 C   0  0  0  0  0  0  0  0  0  0  0  0
   35.0160   31.5240   34.5770 C   0  0  0  0  0  0  0  0  0  0  0  0
   33.6700   31.1470   34.6480 C   0  0  0  0  0  0  0  0  0  0  0  0
   32.9540   31.1780   35.8140 C   0  0  0  0  0  0  0  0  0  0  0  0
   33.5170   31.5850   36.9910 C   0  0  0  0  0  0  0  0  0  0  0  0
   34.8290   31.9570   36.9400 C   0  0  0  0  0  0  0  0  0  0  0  0
   33.1470   30.8080   33.7410 H   0  0  0  0  0  0  0  0  0  0  0  0
   31.9110   30.8750   35.8150 H   0  0  0  0  0  0  0  0  0  0  0  0
   32.9100   31.5920   37.8810 H   0  0  0  0  0  0  0  0  0  0  0  0
   35.3100   32.2860   37.8590 H   0  0  0  0  0  0  0  0  0  0  0  0
  1  2  1  0  0  0  0
  1  3  1  0  0  0  0
  4  1  1  0  0  0  0
  4  7  1  0  0  0  0
  5  4  1  0  0  0  0
  6  4  1  0  0  0  0
  7 12  1  0  0  0  0
  8  7  2  0  0  0  0
  8  9  1  0  0  0  0
  9 10  2  0  0  0  0
 10 11  1  0  0  0  0
 11 15  1  0  0  0  0
 12 11  2  0  0  0  0
 13  8  1  0  0  0  0
 14  9  1  0  0  0  0
 15 16  1  0  0  0  0
 15 18  1  0  0  0  0
 17 15  1  0  0  0  0
 18 20  1  0  0  0  0
 19 18  1  0  0  0  0
 20 21  1  0  0  0  0
 22 20  1  0  0  0  0
 23 24  1  0  0  0  0
 23 20  1  0  0  0  0
 25 30  1  0  0  0  0
 25  1  1  0  0  0  0
 26 27  1  0  0  0  0
 27 33  1  0  0  0  0
 27 28  2  0  0  0  0
 28 36  1  0  0  0  0
 29 28  1  0  0  0  0
 30 29  2  0  0  0  0
 31 26  2  0  0  0  0
 31 30  1  0  0  0  0
 32 26  1  0  0  0  0
 35 34  1  0  0  0  0
 35 40  1  0  0  0  0
 36 37  1  0  0  0  0
 36 35  2  0  0  0  0
 37 38  2  0  0  0  0
 38 42  1  0  0  0  0
 38 39  1  0  0  0  0
 39 43  1  0  0  0  0
 40 39  2  0  0  0  0
 40 44  1  0  0  0  0
 41 37  1  0  0  0  0
M  END
>  <minimizedAffinity>
-5.65874529

$$$$

 OpenBabel03272509593D

 44 46  0  0  0  0  0  0  0  0999 V2000
   35.6470   21.6030   31.5480 C   0  0  0  0  0  0  0  0  0  0  0  0
   35.0460   21.0480   30.7860 H   0  0  0  0  0  0  0  0  0  0  0  0
   34.9080   22.1580   32.1900 H   0  0  0  0  0  0  0  0  0  0  0  0
   36.5070   20.6870   32.3500 C   0  0  0  0  0  0  0  0  0  0  0  0
   37.5170   20.5270   31.9320 H   0  0  0  0  0  0  0  0  0  0  0  0
   36.0300   19.6650   32.3280 H   0  0  0  0  0  0  0  0  0  0  0  0
   36.6030   21.0740   33.7830 C   0  0  0  0  0  0  0  0  0  0  0  0
   35.6120   20.6330   34.6400 C   0  0  0  0  0  0  0  0  0  0  0  0
   35.6120   20.9380   35.9770 C   0  0  0  0  0  0  0  0  0  0  0  0
   36.6100   21.6900   36.4710 N   0  0  0  0  0  0  0  0  0  0  0  0
   37.5690   22.1120   35.6170 C   0  0  0  0  0  0  0  0  0  0  0  0
   37.6000   21.8340   34.3080 N   0  0  0  0  0  0  0  0  0  0  0  0
   34.7870   20.0250   34.2960 H   0  0  0  0  0  0  0  0  0  0  0  0
   34.8470   20.5980   36.6450 H   0  0  0  0  0  0  0  0  0  0  0  0
   38.6710   22.9530   36.2060 C   0  0  0  0  0  0  0  0  0  0  0  0
   39.0760   23.6830   35.4920 H   0  0  0  0  0  0  0  0  0  0  0  0
   38.2750   23.5240   37.0610 H   0  0  0  0  0  0  0  0  0  0  0  0
   39.6710   22.0090   36.6630 N   0  0  0  0  0  0  0  0  0  0  0  0
   39.4220   21.0270   36.4580 H   0  0  0  0  0  0  0  0  0  0  0  0
   41.2130   22.3280   35.9530 S   0  0  0  0  0  0  0  0  0  0  0  0
   41.3320   23.7970   35.7540 O   0  0  0  0  0  1  0  0  0  0  0  0
   41.2610   21.5460   34.6660 O   0  0  0  0  0  1  0  0  0  0  0  0
   42.4600   21.7880   36.9120 O   0  0  0  0  0  0  0  0  0  0  0  0
   42.6700   22.4000   37.6830 H   0  0  0  0  0  0  0  0  0  0  0  0
   36.4330   22.5860   30.8830 O   0  0  0  0  0  0  0  0  0  0  0  0
   35.1280   25.9560   31.0670 C   0  0  0  0  0  0  0  0  0  0  0  0
   36.0890   26.5430   31.9140 C   0  0  0  0  0  0  0  0  0  0  0  0
   37.1240   25.7490   32.3690 C   0  0  0  0  0  0  0  0  0  0  0  0
   37.1240   24.4460   31.9520 N   0  0  0  0  0  0  0  0  0  0  0  0
   36.2020   23.9010   31.1460 C   0  0  0  0  0  0  0  0  0  0  0  0
   35.1930   24.6730   30.7010 N   0  0  0  0  0  0  0  0  0  0  0  0
   34.3200   26.5880   30.7160 H   0  0  0  0  0  0  0  0  0  0  0  0
   36.0700   27.5610   32.2270 H   0  0  0  0  0  0  0  0  0  0  0  0
   37.0920   26.0590   35.2440 F   0  0  0  0  0  0  0  0  0  0  0  0
   38.1980   26.3350   34.5740 C   0  0  0  0  0  0  0  0  0  0  0  0
   38.1930   26.1860   33.2420 C   0  0  0  0  0  0  0  0  0  0  0  0
   39.4130   26.5040   32.6330 C   0  0  0  0  0  0  0  0  0  0  0  0
   40.5040   26.9290   33.3400 C   0  0  0  0  0  0  0  0  0  0  0  0
   40.4670   27.0690   34.7000 C   0  0  0  0  0  0  0  0  0  0  0  0
   39.2860   26.7630   35.3110 C   0  0  0  0  0  0  0  0  0  0  0  0
   39.5200   26.4160   31.5410 H   0  0  0  0  0  0  0  0  0  0  0  0
   41.4280   27.1640   32.8190 H   0  0  0  0  0  0  0  0  0  0  0  0
   41.3550   27.4070   35.2100 H   0  0  0  0  0  0  0  0  0  0  0  0
   39.2210   26.8630   36.3920 H   0  0  0  0  0  0  0  0  0  0  0  0
  1  3  1  0  0  0  0
  1  4  1  0  0  0  0
  2  1  1  0  0  0  0
  4  7  1  0  0  0  0
  5  4  1  0  0  0  0
  6  4  1  0  0  0  0
  7 12  2  0  0  0  0
  7  8  1  0  0  0  0
  8  9  2  0  0  0  0
  9 10  1  0  0  0  0
  9 14  1  0  0  0  0
 11 15  1  0  0  0  0
 11 10  2  0  0  0  0
 12 11  1  0  0  0  0
 13  8  1  0  0  0  0
 15 18  1  0  0  0  0
 15 17  1  0  0  0  0
 16 15  1  0  0  0  0
 19 18  1  0  0  0  0
 20 18  1  0  0  0  0
 20 23  1  0  0  0  0
 21 20  1  0  0  0  0
 22 20  1  0  0  0  0
 23 24  1  0  0  0  0
 25 30  1  0  0  0  0
 25  1  1  0  0  0  0
 26 27  1  0  0  0  0
 27 33  1  0  0  0  0
 27 28  2  0  0  0  0
 28 36  1  0  0  0  0
 29 28  1  0  0  0  0
 30 29  2  0  0  0  0
 31 26  2  0  0  0  0
 31 30  1  0  0  0  0
 32 26  1  0  0  0  0
 35 34  1  0  0  0  0
 35 40  1  0  0  0  0
 36 35  2  0  0  0  0
 37 36  1  0  0  0  0
 37 38  2  0  0  0  0
 38 39  1  0  0  0  0
 39 43  1  0  0  0  0
 39 40  2  0  0  0  0
 40 44  1  0  0  0  0
 41 37  1  0  0  0  0
 42 38  1  0  0  0  0
M  END
>  <minimizedAffinity>
-5.52153254

$$$$

 OpenBabel03272509593D

 44 46  0  0  0  0  0  0  0  0999 V2000
   37.2390   26.0980   33.0890 C   0  0  0  0  0  0  0  0  0  0  0  0
   36.2690   26.2560   33.6210 H   0  0  0  0  0  0  0  0  0  0  0  0
   37.1250   25.1440   32.5020 H   0  0  0  0  0  0  0  0  0  0  0  0
   37.5870   27.2540   32.2140 C   0  0  0  0  0  0  0  0  0  0  0  0
   37.7850   26.9840   31.1610 H   0  0  0  0  0  0  0  0  0  0  0  0
   38.5630   27.6790   32.5840 H   0  0  0  0  0  0  0  0  0  0  0  0
   36.5950   28.3600   32.2800 C   0  0  0  0  0  0  0  0  0  0  0  0
   36.4270   29.1470   31.1550 C   0  0  0  0  0  0  0  0  0  0  0  0
   35.5390   30.1900   31.1180 C   0  0  0  0  0  0  0  0  0  0  0  0
   34.8060   30.4570   32.2120 N   0  0  0  0  0  0  0  0  0  0  0  0
   34.9850   29.6780   33.3010 C   0  0  0  0  0  0  0  0  0  0  0  0
   35.8420   28.6530   33.3730 N   0  0  0  0  0  0  0  0  0  0  0  0
   36.9900   28.9750   30.2490 H   0  0  0  0  0  0  0  0  0  0  0  0
   35.4040   30.8010   30.2490 H   0  0  0  0  0  0  0  0  0  0  0  0
   34.1460   30.0080   34.5080 C   0  0  0  0  0  0  0  0  0  0  0  0
   33.1200   29.6250   34.4290 H   0  0  0  0  0  0  0  0  0  0  0  0
   34.5950   29.5440   35.4010 H   0  0  0  0  0  0  0  0  0  0  0  0
   34.1930   31.4510   34.6250 N   0  0  0  0  0  0  0  0  0  0  0  0
   33.2550   31.8800   34.7010 H   0  0  0  0  0  0  0  0  0  0  0  0
   35.1200   31.9470   35.9940 S   0  0  0  0  0  0  0  0  0  0  0  0
   34.2580   31.8270   37.2010 O   0  0  0  0  0  1  0  0  0  0  0  0
   35.5680   33.3600   35.7200 O   0  0  0  0  0  1  0  0  0  0  0  0
   36.4870   31.0190   36.1870 O   0  0  0  0  0  0  0  0  0  0  0  0
   36.3100   30.1240   36.6100 H   0  0  0  0  0  0  0  0  0  0  0  0
   38.2580   25.8660   34.0560 O   0  0  0  0  0  0  0  0  0  0  0  0
   39.0540   22.9900   36.1020 C   0  0  0  0  0  0  0  0  0  0  0  0
   38.3680   21.9860   35.3880 C   0  0  0  0  0  0  0  0  0  0  0  0
   37.6770   22.3560   34.2510 C   0  0  0  0  0  0  0  0  0  0  0  0
   37.7190   23.6820   33.9140 N   0  0  0  0  0  0  0  0  0  0  0  0
   38.3750   24.6260   34.6030 C   0  0  0  0  0  0  0  0  0  0  0  0
   39.0500   24.2670   35.7110 N   0  0  0  0  0  0  0  0  0  0  0  0
   39.5940   22.6880   36.9930 H   0  0  0  0  0  0  0  0  0  0  0  0
   38.3490   20.9590   35.6680 H   0  0  0  0  0  0  0  0  0  0  0  0
   35.3980   20.7130   34.9370 F   0  0  0  0  0  0  0  0  0  0  0  0
   35.8640   20.6930   33.7000 C   0  0  0  0  0  0  0  0  0  0  0  0
   36.9210   21.4600   33.4010 C   0  0  0  0  0  0  0  0  0  0  0  0
   37.3320   21.3630   32.0670 C   0  0  0  0  0  0  0  0  0  0  0  0
   36.7060   20.5540   31.1570 C   0  0  0  0  0  0  0  0  0  0  0  0
   35.6300   19.7850   31.5030 C   0  0  0  0  0  0  0  0  0  0  0  0
   35.2160   19.8680   32.8000 C   0  0  0  0  0  0  0  0  0  0  0  0
   38.1910   21.9520   31.7130 H   0  0  0  0  0  0  0  0  0  0  0  0
   37.0650   20.5140   30.1320 H   0  0  0  0  0  0  0  0  0  0  0  0
   35.1730   19.1650   30.7490 H   0  0  0  0  0  0  0  0  0  0  0  0
   34.3620   19.2690   33.1110 H   0  0  0  0  0  0  0  0  0  0  0  0
  1  2  1  0  0  0  0
  1 25  1  0  0  0  0
  3  1  1  0  0  0  0
  4  7  1  0  0  0  0
  4  6  1  0  0  0  0
  4  1  1  0  0  0  0
  5  4  1  0  0  0  0
  7 12  1  0  0  0  0
  8  7  2  0  0  0  0
  9  8  1  0  0  0  0
  9 10  2  0  0  0  0
 10 11  1  0  0  0  0
 11 12  2  0  0  0  0
 11 15  1  0  0  0  0
 13  8  1  0  0  0  0
 14  9  1  0  0  0  0
 15 18  1  0  0  0  0
 15 17  1  0  0  0  0
 16 15  1  0  0  0  0
 18 19  1  0  0  0  0
 18 20  1  0  0  0  0
 20 23  1  0  0  0  0
 20 21  1  0  0  0  0
 22 20  1  0  0  0  0
 23 24  1  0  0  0  0
 25 30  1  0  0  0  0
 26 32  1  0  0  0  0
 27 33  1  0  0  0  0
 27 26  2  0  0  0  0
 28 27  1  0  0  0  0
 29 28  2  0  0  0  0
 29 30  1  0  0  0  0
 30 31  2  0  0  0  0
 31 26  1  0  0  0  0
 35 34  1  0  0  0  0
 36 35  1  0  0  0  0
 36 28  1  0  0  0  0
 37 36  2  0  0  0  0
 38 39  2  0  0  0  0
 38 37  1  0  0  0  0
 39 40  1  0  0  0  0
 40 44  1  0  0  0  0
 40 35  2  0  0  0  0
 41 37  1  0  0  0  0
 42 38  1  0  0  0  0
 43 39  1  0  0  0  0
M  END
>  <minimizedAffinity>
-5.49297142

$$$$

 OpenBabel03272509593D

 44 46  0  0  0  0  0  0  0  0999 V2000
   38.4430   26.4100   34.5720 C   0  0  0  0  0  0  0  0  0  0  0  0
   37.9940   27.3990   34.3080 H   0  0  0  0  0  0  0  0  0  0  0  0
   39.4820   26.6260   34.9480 H   0  0  0  0  0  0  0  0  0  0  0  0
   37.6240   25.6810   35.5810 C   0  0  0  0  0  0  0  0  0  0  0  0
   36.7010   25.2260   35.1770 H   0  0  0  0  0  0  0  0  0  0  0  0
   37.2570   26.4370   36.3330 H   0  0  0  0  0  0  0  0  0  0  0  0
   38.3990   24.6690   36.3480 C   0  0  0  0  0  0  0  0  0  0  0  0
   37.9730   24.3600   37.6260 C   0  0  0  0  0  0  0  0  0  0  0  0
   38.6200   23.4400   38.4110 C   0  0  0  0  0  0  0  0  0  0  0  0
   39.7060   22.8190   37.9200 N   0  0  0  0  0  0  0  0  0  0  0  0
   40.1070   23.1350   36.6690 C   0  0  0  0  0  0  0  0  0  0  0  0
   39.5000   24.0260   35.8760 N   0  0  0  0  0  0  0  0  0  0  0  0
   37.1060   24.8290   38.0690 H   0  0  0  0  0  0  0  0  0  0  0  0
   38.2940   23.1970   39.4010 H   0  0  0  0  0  0  0  0  0  0  0  0
   41.3270   22.4190   36.1540 C   0  0  0  0  0  0  0  0  0  0  0  0
   41.7880   21.7680   36.9100 H   0  0  0  0  0  0  0  0  0  0  0  0
   41.0400   21.7750   35.3070 H   0  0  0  0  0  0  0  0  0  0  0  0
   42.2220   23.4630   35.6990 N   0  0  0  0  0  0  0  0  0  0  0  0
   43.1670   23.3930   36.1130 H   0  0  0  0  0  0  0  0  0  0  0  0
   42.3890   23.4510   33.9810 S   0  0  0  0  0  0  0  0  0  0  0  0
   42.5510   22.0390   33.5440 O   0  0  0  0  0  1  0  0  0  0  0  0
   43.5820   24.3150   33.6600 O   0  0  0  0  0  1  0  0  0  0  0  0
   41.0680   24.1240   33.2250 O   0  0  0  0  0  0  0  0  0  0  0  0
   40.2780   23.5050   33.1690 H   0  0  0  0  0  0  0  0  0  0  0  0
   38.5880   25.6420   33.3820 O   0  0  0  0  0  0  0  0  0  0  0  0
   35.6110   25.8650   31.3390 C   0  0  0  0  0  0  0  0  0  0  0  0
   35.3580   24.4940   31.1270 C   0  0  0  0  0  0  0  0  0  0  0  0
   36.2220   23.5790   31.6970 C   0  0  0  0  0  0  0  0  0  0  0  0
   37.2610   24.0920   32.4260 N   0  0  0  0  0  0  0  0  0  0  0  0
   37.4900   25.3990   32.6190 C   0  0  0  0  0  0  0  0  0  0  0  0
   36.6480   26.2910   32.0650 N   0  0  0  0  0  0  0  0  0  0  0  0
   34.9260   26.5730   30.8870 H   0  0  0  0  0  0  0  0  0  0  0  0
   34.5420   24.1170   30.5550 H   0  0  0  0  0  0  0  0  0  0  0  0
   37.9460   21.7490   30.2670 F   0  0  0  0  0  0  0  0  0  0  0  0
   36.9020   21.2770   30.9260 C   0  0  0  0  0  0  0  0  0  0  0  0
   36.1140   22.1400   31.5820 C   0  0  0  0  0  0  0  0  0  0  0  0
   35.0400   21.5350   32.2450 C   0  0  0  0  0  0  0  0  0  0  0  0
   34.8200   20.1850   32.2190 C   0  0  0  0  0  0  0  0  0  0  0  0
   35.6480   19.3370   31.5360 C   0  0  0  0  0  0  0  0  0  0  0  0
   36.7010   19.9100   30.8840 C   0  0  0  0  0  0  0  0  0  0  0  0
   34.3300   22.1520   32.8160 H   0  0  0  0  0  0  0  0  0  0  0  0
   33.9710   19.7650   32.7500 H   0  0  0  0  0  0  0  0  0  0  0  0
   35.4320   18.2810   31.5470 H   0  0  0  0  0  0  0  0  0  0  0  0
   37.3800   19.2650   30.3300 H   0  0  0  0  0  0  0  0  0  0  0  0
  1  3  1  0  0  0  0
  1  4  1  0  0  0  0
  2  1  1  0  0  0  0
  4  6  1  0  0  0  0
  4  7  1  0  0  0  0
  5  4  1  0  0  0  0
  7  8  1  0  0  0  0
  8 13  1  0  0  0  0
  8  9  2  0  0  0  0
  9 14  1  0  0  0  0
 10  9  1  0  0  0  0
 11 10  2  0  0  0  0
 12  7  2  0  0  0  0
 12 11  1  0  0  0  0
 15 11  1  0  0  0  0
 15 16  1  0  0  0  0
 17 15  1  0  0  0  0
 18 19  1  0  0  0  0
 18 15  1  0  0  0  0
 20 18  1  0  0  0  0
 21 20  1  0  0  0  0
 22 20  1  0  0  0  0
 23 20  1  0  0  0  0
 24 23  1  0  0  0  0
 25  1  1  0  0  0  0
 26 31  1  0  0  0  0
 27 26  2  0  0  0  0
 27 28  1  0  0  0  0
 28 29  2  0  0  0  0
 29 30  1  0  0  0  0
 30 25  1  0  0  0  0
 31 30  2  0  0  0  0
 32 26  1  0  0  0  0
 33 27  1  0  0  0  0
 34 35  1  0  0  0  0
 35 36  1  0  0  0  0
 36 28  1  0  0  0  0
 36 37  2  0  0  0  0
 37 41  1  0  0  0  0
 38 37  1  0  0  0  0
 38 42  1  0  0  0  0
 39 43  1  0  0  0  0
 39 38  2  0  0  0  0
 40 35  2  0  0  0  0
 40 39  1  0  0  0  0
 44 40  1  0  0  0  0
M  END
>  <minimizedAffinity>
-5.48965502

$$$$
