
 OpenBabel03272510153D

 26 27  0  0  0  0  0  0  0  0999 V2000
   37.0290   29.6320   51.2350 Br  0  0  0  0  0  0  0  0  0  0  0  0
   35.9720   29.3790   49.6750 C   0  0  0  0  0  0  0  0  0  0  0  0
   36.1490   30.1690   48.5600 C   0  0  0  0  0  0  0  0  0  0  0  0
   35.3410   29.9220   47.4660 C   0  0  0  0  0  0  0  0  0  0  0  0
   34.3760   28.9300   47.4420 C   0  0  0  0  0  0  0  0  0  0  0  0
   34.2230   28.1600   48.5660 C   0  0  0  0  0  0  0  0  0  0  0  0
   35.0250   28.3900   49.6790 C   0  0  0  0  0  0  0  0  0  0  0  0
   35.4890   30.5570   46.5830 H   0  0  0  0  0  0  0  0  0  0  0  0
   33.4660   27.3880   48.5360 H   0  0  0  0  0  0  0  0  0  0  0  0
   34.8320   27.7310   50.5230 H   0  0  0  0  0  0  0  0  0  0  0  0
   37.9330   33.2090   49.4920 C   0  0  0  0  0  0  0  0  0  0  0  0
   39.0230   33.2590   48.5830 C   0  0  0  0  0  0  0  0  0  0  0  0
   39.1140   32.2300   47.6600 C   0  0  0  0  0  0  0  0  0  0  0  0
   38.1770   31.2260   47.6560 N   0  0  0  0  0  0  0  0  0  0  0  0
   37.1540   31.2250   48.5470 C   0  0  0  0  0  0  0  0  0  0  0  0
   37.0340   32.2200   49.4660 N   0  0  0  0  0  0  0  0  0  0  0  0
   37.7830   33.9750   50.2490 H   0  0  0  0  0  0  0  0  0  0  0  0
   39.7070   34.0840   48.6590 H   0  0  0  0  0  0  0  0  0  0  0  0
   39.9330   32.2550   46.9650 H   0  0  0  0  0  0  0  0  0  0  0  0
   33.6200   28.8010   46.2310 N   0  0  0  0  0  0  0  0  0  0  0  0
   33.4930   27.8130   46.0010 H   0  0  0  0  0  0  0  0  0  0  0  0
   33.0230   30.1370   45.3160 S   0  0  0  0  0  0  0  0  0  0  0  0
   31.9360   29.6850   44.4080 O   0  0  0  0  0  1  0  0  0  0  0  0
   32.4210   31.1320   46.2950 O   0  0  0  0  0  1  0  0  0  0  0  0
   34.2480   30.9610   44.5160 O   0  0  0  0  0  0  0  0  0  0  0  0
   34.4320   30.4720   43.6680 H   0  0  0  0  0  0  0  0  0  0  0  0
  2  7  1  0  0  0  0
  2  1  1  0  0  0  0
  3  2  2  0  0  0  0
  4  3  1  0  0  0  0
  5  4  2  0  0  0  0
  5  6  1  0  0  0  0
  6  7  2  0  0  0  0
  7 10  1  0  0  0  0
  8  4  1  0  0  0  0
  9  6  1  0  0  0  0
 11 17  1  0  0  0  0
 12 18  1  0  0  0  0
 12 11  2  0  0  0  0
 13 12  1  0  0  0  0
 14 13  2  0  0  0  0
 14 15  1  0  0  0  0
 15  3  1  0  0  0  0
 15 16  2  0  0  0  0
 16 11  1  0  0  0  0
 19 13  1  0  0  0  0
 20  5  1  0  0  0  0
 21 20  1  0  0  0  0
 22 20  1  0  0  0  0
 22 24  1  0  0  0  0
 23 22  1  0  0  0  0
 25 22  1  0  0  0  0
 26 25  1  0  0  0  0
M  END
>  <minimizedAffinity>
-5.66845465

>  <minimizedRMSD>
0.80372411

$$$$
