
 OpenBabel03262521113D

 29 30  0  0  0  0  0  0  0  0999 V2000
   32.8500   29.8810   46.4410 O   0  0  0  0  0  0  0  0  0  0  0  0
   31.8000   28.9700   46.6000 C   0  0  0  0  0  0  0  0  0  0  0  0
   30.8560   28.5420   45.6750 C   0  0  0  0  0  0  0  0  0  0  0  0
   30.0420   27.6630   46.2690 N   0  0  0  0  0  0  0  0  0  0  0  0
   30.4280   27.5110   47.5400 C   0  0  0  0  0  0  0  0  0  0  0  0
   31.4970   28.3030   47.7490 N   0  0  0  0  0  0  0  0  0  0  0  0
   30.8280   28.8980   44.6400 H   0  0  0  0  0  0  0  0  0  0  0  0
   29.2340   27.1660   45.8360 H   0  0  0  0  0  0  0  0  0  0  0  0
   29.8630   26.6830   48.5490 N   0  0  0  0  0  0  0  0  0  0  0  0
   30.1690   25.6990   48.7130 H   0  0  0  0  0  0  0  0  0  0  0  0
   28.6190   27.2970   49.5660 S   0  0  0  0  0  0  0  0  0  0  0  0
   28.9580   26.9190   50.9980 O   0  0  0  0  0  0  0  0  0  0  0  0
   28.5300   28.7880   49.5070 O   0  0  0  0  0  0  0  0  0  0  0  0
   27.1410   26.5840   49.1880 O   0  0  0  0  0  0  0  0  0  0  0  0
   26.4450   27.2820   49.1150 H   0  0  0  0  0  0  0  0  0  0  0  0
   35.4150   29.8700   46.2930 O   0  0  0  0  0  0  0  0  0  0  0  0
   34.2910   29.5280   47.2650 P   0  0  2  0  0  0  0  0  0  0  0  0
   34.3390   27.8810   47.7070 O   0  0  0  0  0  0  0  0  0  0  0  0
   35.1910   27.7750   48.2210 H   0  0  0  0  0  0  0  0  0  0  0  0
   34.3750   30.4360   48.7040 O   0  0  0  0  0  0  0  0  0  0  0  0
   35.4930   30.3790   49.5400 C   0  0  0  0  0  0  0  0  0  0  0  0
   35.6790   29.4700   50.5850 C   0  0  0  0  0  0  0  0  0  0  0  0
   36.8520   29.5490   51.3220 C   0  0  0  0  0  0  0  0  0  0  0  0
   37.7710   30.4910   51.0100 N   0  0  0  0  0  0  0  0  0  0  0  0
   37.5570   31.3700   49.9740 C   0  0  0  0  0  0  0  0  0  0  0  0
   36.4200   31.3050   49.2490 N   0  0  0  0  0  0  0  0  0  0  0  0
   34.8880   28.7670   50.7460 H   0  0  0  0  0  0  0  0  0  0  0  0
   36.9930   28.8460   52.1300 H   0  0  0  0  0  0  0  0  0  0  0  0
   38.2960   32.1330   49.7170 H   0  0  0  0  0  0  0  0  0  0  0  0
  1  2  1  0  0  0  0
  1 17  1  0  0  0  0
  2  6  1  0  0  0  0
  3  4  1  0  0  0  0
  3  2  2  0  0  0  0
  4  5  1  0  0  0  0
  5  6  2  0  0  0  0
  5  9  1  0  0  0  0
  7  3  1  0  0  0  0
  8  4  1  0  0  0  0
  9 10  1  0  0  0  0
  9 11  1  0  0  0  0
 11 12  1  0  0  0  0
 13 11  1  0  0  0  0
 14 11  1  0  0  0  0
 15 14  1  0  0  0  0
 17 16  2  6  0  0  0
 17 18  1  0  0  0  0
 17 20  1  0  0  0  0
 18 19  1  0  0  0  0
 20 21  1  0  0  0  0
 21 22  1  0  0  0  0
 22 27  1  0  0  0  0
 22 23  2  0  0  0  0
 23 28  1  0  0  0  0
 24 23  1  0  0  0  0
 25 24  2  0  0  0  0
 26 21  2  0  0  0  0
 26 25  1  0  0  0  0
 29 25  1  0  0  0  0
M  END
>  <minimizedAffinity>
-4.91155958

>  <minimizedRMSD>
1.27372968

$$$$
