
 OpenBabel03262521233D

 50 53  0  0  1  0  0  0  0  0999 V2000
   40.1410   25.0590   53.5410 C   0  0  0  0  0  0  0  0  0  0  0  0
   39.7940   25.9900   52.5600 C   0  0  0  0  0  0  0  0  0  0  0  0
   40.4780   25.8680   51.3410 C   0  0  0  0  0  0  0  0  0  0  0  0
   41.4180   24.9210   51.0960 C   0  0  0  0  0  0  0  0  0  0  0  0
   42.1950   24.5740   50.0950 N   0  0  0  0  0  0  0  0  0  0  0  0
   42.9900   23.5040   50.3850 C   0  0  0  0  0  0  0  0  0  0  0  0
   42.6800   23.1540   51.6840 C   0  0  0  0  0  0  0  0  0  0  0  0
   41.7150   24.0360   52.1000 C   0  0  0  0  0  0  0  0  0  0  0  0
   41.0950   24.0810   53.3270 C   0  0  0  0  0  0  0  0  0  0  0  0
   39.6000   25.1830   54.4570 H   0  0  0  0  0  0  0  0  0  0  0  0
   40.2670   26.5540   50.5220 H   0  0  0  0  0  0  0  0  0  0  0  0
   42.2330   25.0440   49.1490 H   0  0  0  0  0  0  0  0  0  0  0  0
   43.7060   23.0530   49.7050 H   0  0  0  0  0  0  0  0  0  0  0  0
   43.1400   22.3340   52.2230 H   0  0  0  0  0  0  0  0  0  0  0  0
   42.5460   23.7540   55.2240 C   0  0  2  0  0  3  0  0  0  0  0  0
   41.4170   23.1250   54.4040 C   0  0  2  0  0  3  0  0  0  0  0  0
   41.8400   21.7740   53.9690 C   0  0  0  0  0  3  0  0  0  0  0  0
   42.6980   21.7740   53.2650 H   0  0  0  0  0  0  0  0  0  0  0  0
   42.2340   21.0490   55.0600 O   0  0  0  0  0  0  0  0  0  0  0  0
   42.0040   21.6040   56.2880 C   0  0  0  0  0  3  0  0  0  0  0  0
   40.9250   21.5420   56.6140 H   0  0  0  0  0  0  0  0  0  0  0  0
   42.5660   22.9680   56.5130 C   0  0  1  0  0  3  0  0  0  0  0  0
   42.3290   25.1010   55.3930 O   0  0  0  0  0  0  0  0  0  0  0  0
   42.5200   25.3580   56.3310 H   0  0  0  0  0  0  0  0  0  0  0  0
   43.8430   22.9930   57.0150 O   0  0  0  0  0  0  0  0  0  0  0  0
   44.2090   23.8950   56.8180 H   0  0  0  0  0  0  0  0  0  0  0  0
   38.6040   27.2940   52.6720 S   0  0  0  0  0  0  0  0  0  0  0  0
   38.2760   28.1190   51.1240 C   0  0  0  0  0  0  0  0  0  0  0  0
   39.2100   28.6230   50.7960 H   0  0  0  0  0  0  0  0  0  0  0  0
   38.0820   27.3300   50.3400 H   0  0  0  0  0  0  0  0  0  0  0  0
   37.1770   29.1490   51.1860 C   0  0  0  0  0  0  0  0  0  0  0  0
   36.8690   29.1660   52.2760 H   0  0  0  0  0  0  0  0  0  0  0  0
   36.2910   28.6890   50.6970 H   0  0  0  0  0  0  0  0  0  0  0  0
   37.5390   30.3770   50.7330 C   0  0  0  0  0  0  0  0  0  0  0  0
   38.5440   30.7400   51.0770 H   0  0  0  0  0  0  0  0  0  0  0  0
   36.8300   31.2080   50.9380 H   0  0  0  0  0  0  0  0  0  0  0  0
   37.5910   30.0860   49.3970 O   0  0  0  0  0  0  0  0  0  0  0  0
   38.1670   31.0020   48.5500 C   0  0  0  0  0  0  0  0  0  0  0  0
   38.4370   32.2000   49.1630 C   0  0  0  0  0  0  0  0  0  0  0  0
   39.0280   33.2270   48.4080 C   0  0  0  0  0  0  0  0  0  0  0  0
   39.3010   32.9700   47.1000 N   0  0  0  0  0  0  0  0  0  0  0  0
   39.0190   31.7610   46.5160 C   0  0  0  0  0  0  0  0  0  0  0  0
   38.4570   30.8100   47.2670 N   0  0  0  0  0  0  0  0  0  0  0  0
   39.8920   32.7530   44.5200 C   0  0  0  0  0  0  0  0  0  0  0  0
   40.1010   33.8720   45.0810 O   0  0  0  0  0  0  0  0  0  0  0  0
   39.3470   31.6000   45.1420 N   0  0  0  0  0  0  0  0  0  0  0  0
   38.2710   32.5370   50.1880 H   0  0  0  0  0  0  0  0  0  0  0  0
   39.2790   34.1950   48.7870 H   0  0  0  0  0  0  0  0  0  0  0  0
   40.1580   32.6720   43.4650 H   0  0  0  0  0  0  0  0  0  0  0  0
   39.1700   30.6740   44.6930 H   0  0  0  0  0  0  0  0  0  0  0  0
  1 10  1  0  0  0  0
  2 27  1  0  0  0  0
  2  1  2  0  0  0  0
  3  2  1  0  0  0  0
  4  3  2  0  0  0  0
  4  8  1  0  0  0  0
  5  6  1  0  0  0  0
  5  4  1  0  0  0  0
  6  7  2  0  0  0  0
  7  8  1  0  0  0  0
  7 14  1  0  0  0  0
  8  9  2  0  0  0  0
  9  1  1  0  0  0  0
 11  3  1  0  0  0  0
 12  5  1  0  0  0  0
 13  6  1  0  0  0  0
 15 23  1  1  0  0  0
 15 22  1  0  0  0  0
 16  9  1  6  0  0  0
 16 15  1  0  0  0  0
 17 16  1  0  0  0  0
 17 19  1  0  0  0  0
 18 17  1  0  0  0  0
 19 20  1  0  0  0  0
 20 22  1  0  0  0  0
 20 21  1  0  0  0  0
 22 25  1  6  0  0  0
 23 24  1  0  0  0  0
 26 25  1  0  0  0  0
 28 31  1  0  0  0  0
 28 27  1  0  0  0  0
 29 28  1  0  0  0  0
 30 28  1  0  0  0  0
 31 32  1  0  0  0  0
 33 31  1  0  0  0  0
 34 36  1  0  0  0  0
 34 35  1  0  0  0  0
 34 31  1  0  0  0  0
 37 34  1  0  0  0  0
 38 39  1  0  0  0  0
 38 37  1  0  0  0  0
 39 47  1  0  0  0  0
 40 48  1  0  0  0  0
 40 39  2  0  0  0  0
 41 40  1  0  0  0  0
 42 41  2  0  0  0  0
 42 43  1  0  0  0  0
 43 38  2  0  0  0  0
 44 45  2  0  0  0  0
 44 46  1  0  0  0  0
 46 42  1  0  0  0  0
 49 44  1  0  0  0  0
 50 46  1  0  0  0  0
M  END
>  <minimizedAffinity>
-4.54471016

>  <minimizedRMSD>
0.514900088

$$$$
