
 OpenBabel03262520493D

 51 55  0  0  1  0  0  0  0  0999 V2000
   39.2800   28.8940   43.1470 C   0  0  0  0  0  0  0  0  0  0  0  0
   40.3130   29.7890   42.9300 C   0  0  0  0  0  0  0  0  0  0  0  0
   41.1540   29.6140   41.8400 C   0  0  0  0  0  0  0  0  0  0  0  0
   40.9850   28.5740   40.9690 C   0  0  0  0  0  0  0  0  0  0  0  0
   41.6420   28.1840   39.8570 N   0  0  0  0  0  0  0  0  0  0  0  0
   41.0320   27.0770   39.3990 C   0  0  0  0  0  0  0  0  0  0  0  0
   39.9550   26.7030   40.1920 C   0  0  0  0  0  0  0  0  0  0  0  0
   39.9560   27.6760   41.1780 C   0  0  0  0  0  0  0  0  0  0  0  0
   39.1100   27.8430   42.2660 C   0  0  0  0  0  0  0  0  0  0  0  0
   38.5690   28.9180   43.9370 H   0  0  0  0  0  0  0  0  0  0  0  0
   41.9660   30.3250   41.6770 H   0  0  0  0  0  0  0  0  0  0  0  0
   42.4670   28.6270   39.4100 H   0  0  0  0  0  0  0  0  0  0  0  0
   41.3520   26.5390   38.5050 H   0  0  0  0  0  0  0  0  0  0  0  0
   39.3070   25.8500   40.0320 H   0  0  0  0  0  0  0  0  0  0  0  0
   38.3600   25.7310   43.3650 C   0  0  1  0  0  0  0  0  0  0  0  0
   38.0120   26.8510   42.4550 C   0  0  2  0  0  0  0  0  0  0  0  0
   37.4590   26.3420   41.1450 C   0  0  0  0  0  0  0  0  0  0  0  0
   36.3610   26.4300   41.0520 H   0  0  0  0  0  0  0  0  0  0  0  0
   37.7800   25.0350   40.8560 O   0  0  0  0  0  0  0  0  0  0  0  0
   37.3610   24.1190   41.7940 C   0  0  0  0  0  0  0  0  0  0  0  0
   38.1120   23.3010   41.8240 H   0  0  0  0  0  0  0  0  0  0  0  0
   37.2710   24.6830   43.1890 C   0  0  2  0  0  0  0  0  0  0  0  0
   39.5620   25.1140   43.1240 O   0  0  0  0  0  0  0  0  0  0  0  0
   39.6180   24.5910   42.3060 H   0  0  0  0  0  0  0  0  0  0  0  0
   36.0470   25.3450   43.2970 O   0  0  0  0  0  0  0  0  0  0  0  0
   35.3620   24.9670   42.6690 H   0  0  0  0  0  0  0  0  0  0  0  0
   40.4840   30.9220   43.9000 C   0  0  0  0  0  0  0  0  0  0  0  0
   41.5380   30.9650   44.2280 H   0  0  0  0  0  0  0  0  0  0  0  0
   40.1020   31.8730   43.4790 H   0  0  0  0  0  0  0  0  0  0  0  0
   39.6030   30.6170   45.1080 C   0  0  0  0  0  0  0  0  0  0  0  0
   38.5630   30.7320   44.7390 H   0  0  0  0  0  0  0  0  0  0  0  0
   39.8430   29.5480   45.3710 H   0  0  0  0  0  0  0  0  0  0  0  0
   38.7090   32.1380   46.9140 C   0  0  1  0  0  0  0  0  0  0  0  0
   39.8110   32.9420   46.2640 C   0  0  0  0  0  0  0  0  0  0  0  0
   39.8650   31.4680   46.2960 C   0  0  2  0  0  0  0  0  0  0  0  0
   37.7320   32.1620   46.3710 H   0  0  0  0  0  0  0  0  0  0  0  0
   40.5070   33.5430   46.8640 H   0  0  0  0  0  0  0  0  0  0  0  0
   39.6040   33.4360   45.2730 H   0  0  0  0  0  0  0  0  0  0  0  0
   40.6110   31.0640   47.0400 H   0  0  0  0  0  0  0  0  0  0  0  0
   38.5950   32.3010   48.3990 C   0  0  0  0  0  0  0  0  0  0  0  0
   38.2170   33.3030   48.6960 H   0  0  0  0  0  0  0  0  0  0  0  0
   39.6410   32.2360   48.8140 H   0  0  0  0  0  0  0  0  0  0  0  0
   37.3430   29.8590   50.9500 C   0  0  0  0  0  0  0  0  0  0  0  0
   38.0580   30.9330   50.3340 C   0  0  0  0  0  0  0  0  0  0  0  0
   37.8370   31.1820   49.0060 C   0  0  0  0  0  0  0  0  0  0  0  0
   36.9660   30.4080   48.3560 N   0  0  0  0  0  0  0  0  0  0  0  0
   36.2960   29.4020   48.9300 C   0  0  0  0  0  0  0  0  0  0  0  0
   36.4980   29.1450   50.2290 N   0  0  0  0  0  0  0  0  0  0  0  0
   37.5730   29.7240   52.0100 H   0  0  0  0  0  0  0  0  0  0  0  0
   38.7540   31.5210   50.9280 H   0  0  0  0  0  0  0  0  0  0  0  0
   35.6040   28.8210   48.3300 H   0  0  0  0  0  0  0  0  0  0  0  0
  1 10  1  0  0  0  0
  2  1  1  0  0  0  0
  2 27  1  0  0  0  0
  3  2  2  0  0  0  0
  4  8  2  0  0  0  0
  4  3  1  0  0  0  0
  5  4  1  0  0  0  0
  6  5  1  0  0  0  0
  6  7  2  0  0  0  0
  7  8  1  0  0  0  0
  8  9  1  0  0  0  0
  9  1  2  0  0  0  0
 11  3  1  0  0  0  0
 12  5  1  0  0  0  0
 13  6  1  0  0  0  0
 14  7  1  0  0  0  0
 15 23  1  6  0  0  0
 16  9  1  6  0  0  0
 16 15  1  0  0  0  0
 17 16  1  0  0  0  0
 18 17  1  0  0  0  0
 19 17  1  0  0  0  0
 19 20  1  0  0  0  0
 20 21  1  0  0  0  0
 20 22  1  0  0  0  0
 22 25  1  6  0  0  0
 22 15  1  0  0  0  0
 24 23  1  0  0  0  0
 26 25  1  0  0  0  0
 27 28  1  0  0  0  0
 27 30  1  0  0  0  0
 29 27  1  0  0  0  0
 30 32  1  0  0  0  0
 30 35  1  0  0  0  0
 31 30  1  0  0  0  0
 33 36  1  6  0  0  0
 33 40  1  0  0  0  0
 34 35  1  0  0  0  0
 34 37  1  0  0  0  0
 34 33  1  0  0  0  0
 35 33  1  0  0  0  0
 35 39  1  1  0  0  0
 38 34  1  0  0  0  0
 40 41  1  0  0  0  0
 40 42  1  0  0  0  0
 40 45  1  0  0  0  0
 43 49  1  0  0  0  0
 44 50  1  0  0  0  0
 44 43  1  0  0  0  0
 45 44  2  0  0  0  0
 46 47  2  0  0  0  0
 46 45  1  0  0  0  0
 47 48  1  0  0  0  0
 48 43  2  0  0  0  0
 51 47  1  0  0  0  0
M  END
>  <minimizedAffinity>
-6.10663509

>  <minimizedRMSD>
0.399518073

$$$$
