
 OpenBabel03272500073D

 42 45  0  0  1  0  0  0  0  0999 V2000
   31.0990   27.3830   48.3670 C   0  0  0  0  0  0  0  0  0  0  0  0
   30.7500   27.7890   49.6390 C   0  0  0  0  0  0  0  0  0  0  0  0
   29.4740   28.2350   49.9160 C   0  0  0  0  0  0  0  0  0  0  0  0
   28.5330   28.2760   48.8980 C   0  0  0  0  0  0  0  0  0  0  0  0
   28.8950   27.8700   47.6380 C   0  0  0  0  0  0  0  0  0  0  0  0
   30.1560   27.4300   47.3700 C   0  0  0  0  0  0  0  0  0  0  0  0
   31.4530   27.7780   50.4790 H   0  0  0  0  0  0  0  0  0  0  0  0
   29.2240   28.5490   50.9270 H   0  0  0  0  0  0  0  0  0  0  0  0
   27.5500   28.6300   49.1500 H   0  0  0  0  0  0  0  0  0  0  0  0
   28.1200   27.9250   46.8870 H   0  0  0  0  0  0  0  0  0  0  0  0
   30.4410   25.4780   45.8610 C   0  0  2  0  0  3  0  0  0  0  0  0
   30.5010   26.9840   46.0250 C   0  0  1  0  0  3  0  0  0  0  0  0
   29.6930   27.5850   44.9050 C   0  0  0  0  0  3  0  0  0  0  0  0
   30.1190   28.5880   44.6560 H   0  0  0  0  0  0  0  0  0  0  0  0
   29.9030   26.8190   43.7560 O   0  0  0  0  0  0  0  0  0  0  0  0
   31.1590   26.2830   43.6610 C   0  0  0  0  0  3  0  0  0  0  0  0
   31.2510   25.9100   42.6050 H   0  0  0  0  0  0  0  0  0  0  0  0
   31.3010   25.1370   44.6620 C   0  0  2  0  0  3  0  0  0  0  0  0
   29.1140   25.1460   45.5920 O   0  0  0  0  0  0  0  0  0  0  0  0
   28.9070   24.2660   46.0040 H   0  0  0  0  0  0  0  0  0  0  0  0
   30.9840   23.9150   44.1220 O   0  0  0  0  0  0  0  0  0  0  0  0
   31.8000   23.3540   44.1130 H   0  0  0  0  0  0  0  0  0  0  0  0
   32.4200   26.9620   48.2440 O   0  0  0  0  0  0  0  0  0  0  0  0
   35.3820   28.7750   49.1850 C   0  0  0  0  0  0  0  0  0  0  0  0
   35.3090   29.9420   48.4240 C   0  0  0  0  0  0  0  0  0  0  0  0
   34.2000   30.0860   47.5700 C   0  0  0  0  0  0  0  0  0  0  0  0
   33.2790   29.0870   47.5430 N   0  0  0  0  0  0  0  0  0  0  0  0
   33.3760   27.9830   48.2830 C   0  0  0  0  0  0  0  0  0  0  0  0
   34.4420   27.8170   49.1200 N   0  0  0  0  0  0  0  0  0  0  0  0
   36.2120   28.5750   49.8790 H   0  0  0  0  0  0  0  0  0  0  0  0
   34.1380   30.9800   46.9840 H   0  0  0  0  0  0  0  0  0  0  0  0
   36.3390   30.9010   48.5480 N   0  0  0  0  0  0  0  0  0  0  0  0
   36.5540   31.5710   49.6760 C   0  0  0  0  0  0  0  0  0  0  0  0
   37.5810   32.5080   49.7370 C   0  0  0  0  0  0  0  0  0  0  0  0
   38.3050   32.6590   48.5810 C   0  0  0  0  0  0  0  0  0  0  0  0
   39.2360   33.5070   48.6300 O   0  0  0  0  0  0  0  0  0  0  0  0
   38.1180   32.0090   47.4410 N   0  0  0  0  0  0  0  0  0  0  0  0
   37.1030   31.1020   47.4250 C   0  0  0  0  0  0  0  0  0  0  0  0
   36.9130   30.4710   46.3360 O   0  0  0  0  0  0  0  0  0  0  0  0
   35.9540   31.4130   50.5570 H   0  0  0  0  0  0  0  0  0  0  0  0
   37.7620   33.0560   50.6520 H   0  0  0  0  0  0  0  0  0  0  0  0
   38.7010   32.1670   46.5990 H   0  0  0  0  0  0  0  0  0  0  0  0
  1  2  1  0  0  0  0
  2  3  2  0  0  0  0
  2  7  1  0  0  0  0
  3  8  1  0  0  0  0
  4  9  1  0  0  0  0
  4  3  1  0  0  0  0
  5  4  2  0  0  0  0
  6  5  1  0  0  0  0
  6  1  2  0  0  0  0
 10  5  1  0  0  0  0
 11 19  1  6  0  0  0
 11 12  1  0  0  0  0
 12  6  1  1  0  0  0
 13 12  1  0  0  0  0
 14 13  1  0  0  0  0
 15 13  1  0  0  0  0
 16 15  1  0  0  0  0
 16 18  1  0  0  0  0
 17 16  1  0  0  0  0
 18 21  1  6  0  0  0
 18 11  1  0  0  0  0
 19 20  1  0  0  0  0
 22 21  1  0  0  0  0
 23 28  1  0  0  0  0
 23  1  1  0  0  0  0
 24 30  1  0  0  0  0
 25 32  1  0  0  0  0
 25 24  2  0  0  0  0
 26 25  1  0  0  0  0
 27 26  2  0  0  0  0
 27 28  1  0  0  0  0
 28 29  2  0  0  0  0
 29 24  1  0  0  0  0
 31 26  1  0  0  0  0
 32 33  1  0  0  0  0
 33 34  2  0  0  0  0
 33 40  1  0  0  0  0
 34 41  1  0  0  0  0
 35 36  2  0  0  0  0
 35 34  1  0  0  0  0
 37 35  1  0  0  0  0
 38 37  1  0  0  0  0
 38 32  1  0  0  0  0
 39 38  2  0  0  0  0
 42 37  1  0  0  0  0
M  END
>  <minimizedAffinity>
-5.89322042

>  <minimizedRMSD>
1.02940631

$$$$
