
 OpenBabel03272507513D

 31 33  0  0  1  0  0  0  0  0999 V2000
   37.2560   26.1220   32.1590 C   0  0  0  0  0  0  0  0  0  0  0  0
   36.2880   26.6290   31.2730 C   0  0  0  0  0  0  0  0  0  0  0  0
   35.2940   25.7460   30.8280 C   0  0  0  0  0  0  0  0  0  0  0  0
   35.3210   24.4640   31.2730 N   0  0  0  0  0  0  0  0  0  0  0  0
   36.2690   24.0110   32.1290 C   0  0  0  0  0  0  0  0  0  0  0  0
   37.2470   24.8380   32.5790 N   0  0  0  0  0  0  0  0  0  0  0  0
   34.5490   26.1300   30.1480 H   0  0  0  0  0  0  0  0  0  0  0  0
   36.1140   22.9630   32.3620 H   0  0  0  0  0  0  0  0  0  0  0  0
   36.3740   27.9880   30.8940 N   0  0  0  0  0  0  0  0  0  0  0  0
   37.1020   28.3930   29.8480 C   0  0  0  0  0  0  0  0  0  0  0  0
   37.1700   29.7420   29.4990 C   0  0  0  0  0  0  0  0  0  0  0  0
   36.4270   30.5590   30.3310 C   0  0  0  0  0  0  0  0  0  0  0  0
   36.4590   31.8040   30.0510 O   0  0  0  0  0  0  0  0  0  0  0  0
   35.6890   30.1950   31.3830 N   0  0  0  0  0  0  0  0  0  0  0  0
   35.6810   28.8720   31.6480 C   0  0  0  0  0  0  0  0  0  0  0  0
   34.9850   28.5090   32.6430 O   0  0  0  0  0  0  0  0  0  0  0  0
   37.6700   27.7070   29.2350 H   0  0  0  0  0  0  0  0  0  0  0  0
   37.7390   30.1330   28.6680 H   0  0  0  0  0  0  0  0  0  0  0  0
   35.1670   30.9070   31.9400 H   0  0  0  0  0  0  0  0  0  0  0  0
   38.0960   27.5000   34.0740 C   0  0  2  0  0  3  0  0  0  0  0  0
   38.3860   26.8890   32.7390 C   0  0  1  0  0  3  0  0  0  0  0  0
   39.6320   26.0450   32.8890 C   0  0  0  0  0  3  0  0  0  0  0  0
   39.7810   25.4980   31.9370 H   0  0  0  0  0  0  0  0  0  0  0  0
   39.5740   25.1230   33.9050 O   0  0  0  0  0  0  0  0  0  0  0  0
   39.3500   25.6530   35.1490 C   0  0  0  0  0  3  0  0  0  0  0  0
   38.5080   25.1540   35.6780 H   0  0  0  0  0  0  0  0  0  0  0  0
   39.1550   27.1370   35.1090 C   0  0  2  0  0  3  0  0  0  0  0  0
   36.8810   26.9810   34.5130 O   0  0  0  0  0  0  0  0  0  0  0  0
   36.4570   27.5370   35.2130 H   0  0  0  0  0  0  0  0  0  0  0  0
   38.6910   27.5380   36.3600 O   0  0  0  0  0  0  0  0  0  0  0  0
   39.1830   27.0920   37.1010 H   0  0  0  0  0  0  0  0  0  0  0  0
  1  6  1  0  0  0  0
  2  1  2  0  0  0  0
  3  2  1  0  0  0  0
  3  4  2  0  0  0  0
  4  5  1  0  0  0  0
  5  8  1  0  0  0  0
  5  6  2  0  0  0  0
  7  3  1  0  0  0  0
  9  2  1  0  0  0  0
  9 15  1  0  0  0  0
 10  9  1  0  0  0  0
 11 10  2  0  0  0  0
 11 12  1  0  0  0  0
 12 14  1  0  0  0  0
 13 12  2  0  0  0  0
 14 15  1  0  0  0  0
 14 19  1  0  0  0  0
 15 16  2  0  0  0  0
 17 10  1  0  0  0  0
 18 11  1  0  0  0  0
 20 28  1  1  0  0  0
 20 27  1  0  0  0  0
 21  1  1  1  0  0  0
 21 22  1  0  0  0  0
 21 20  1  0  0  0  0
 22 24  1  0  0  0  0
 23 22  1  0  0  0  0
 24 25  1  0  0  0  0
 25 26  1  0  0  0  0
 27 25  1  0  0  0  0
 27 30  1  1  0  0  0
 28 29  1  0  0  0  0
 30 31  1  0  0  0  0
M  END
>  <minimizedAffinity>
-5.28451586

$$$$

 OpenBabel03272507513D

 31 33  0  0  1  0  0  0  0  0999 V2000
   36.6300   26.5840   31.8650 C   0  0  0  0  0  0  0  0  0  0  0  0
   37.3400   25.4310   32.2440 C   0  0  0  0  0  0  0  0  0  0  0  0
   36.7480   24.1890   31.9740 C   0  0  0  0  0  0  0  0  0  0  0  0
   35.5340   24.1700   31.3660 N   0  0  0  0  0  0  0  0  0  0  0  0
   34.8800   25.3030   31.0140 C   0  0  0  0  0  0  0  0  0  0  0  0
   35.4230   26.5220   31.2620 N   0  0  0  0  0  0  0  0  0  0  0  0
   37.2890   23.3010   32.2630 H   0  0  0  0  0  0  0  0  0  0  0  0
   33.9300   25.0720   30.5430 H   0  0  0  0  0  0  0  0  0  0  0  0
   38.6000   25.5940   32.8650 N   0  0  0  0  0  0  0  0  0  0  0  0
   39.7390   25.6460   32.1650 C   0  0  0  0  0  0  0  0  0  0  0  0
   40.9690   25.8040   32.8050 C   0  0  0  0  0  0  0  0  0  0  0  0
   40.8600   25.8950   34.1800 C   0  0  0  0  0  0  0  0  0  0  0  0
   41.9610   26.0400   34.8100 O   0  0  0  0  0  0  0  0  0  0  0  0
   39.7460   25.8480   34.9150 N   0  0  0  0  0  0  0  0  0  0  0  0
   38.6030   25.6920   34.2130 C   0  0  0  0  0  0  0  0  0  0  0  0
   37.5360   25.6460   34.8950 O   0  0  0  0  0  0  0  0  0  0  0  0
   39.7630   25.5620   31.0870 H   0  0  0  0  0  0  0  0  0  0  0  0
   41.9220   25.8540   32.2980 H   0  0  0  0  0  0  0  0  0  0  0  0
   39.7890   25.9280   35.9540 H   0  0  0  0  0  0  0  0  0  0  0  0
   37.2000   28.7800   30.8040 C   0  0  2  0  0  3  0  0  0  0  0  0
   37.0810   27.9840   32.0660 C   0  0  1  0  0  3  0  0  0  0  0  0
   36.1680   28.7490   32.9970 C   0  0  0  0  0  3  0  0  0  0  0  0
   35.9810   28.1090   33.8830 H   0  0  0  0  0  0  0  0  0  0  0  0
   34.9530   29.0860   32.4530 O   0  0  0  0  0  0  0  0  0  0  0  0
   35.0260   29.8510   31.3170 C   0  0  0  0  0  3  0  0  0  0  0  0
   34.4220   29.4310   30.4830 H   0  0  0  0  0  0  0  0  0  0  0  0
   36.4390   30.0970   30.8870 C   0  0  2  0  0  3  0  0  0  0  0  0
   36.6310   28.0250   29.7820 O   0  0  0  0  0  0  0  0  0  0  0  0
   36.9300   28.3110   28.8830 H   0  0  0  0  0  0  0  0  0  0  0  0
   36.4020   30.6550   29.6110 O   0  0  0  0  0  0  0  0  0  0  0  0
   35.6980   31.3530   29.5290 H   0  0  0  0  0  0  0  0  0  0  0  0
  1  2  1  0  0  0  0
  2  9  1  0  0  0  0
  3  2  2  0  0  0  0
  3  7  1  0  0  0  0
  4  3  1  0  0  0  0
  5  6  1  0  0  0  0
  5  4  2  0  0  0  0
  6  1  2  0  0  0  0
  8  5  1  0  0  0  0
  9 15  1  0  0  0  0
 10 11  2  0  0  0  0
 10  9  1  0  0  0  0
 11 12  1  0  0  0  0
 12 13  2  0  0  0  0
 12 14  1  0  0  0  0
 14 19  1  0  0  0  0
 15 16  2  0  0  0  0
 15 14  1  0  0  0  0
 17 10  1  0  0  0  0
 18 11  1  0  0  0  0
 20 28  1  6  0  0  0
 20 27  1  0  0  0  0
 20 21  1  0  0  0  0
 21  1  1  6  0  0  0
 21 22  1  0  0  0  0
 22 23  1  0  0  0  0
 24 22  1  0  0  0  0
 25 24  1  0  0  0  0
 26 25  1  0  0  0  0
 27 30  1  6  0  0  0
 27 25  1  0  0  0  0
 29 28  1  0  0  0  0
 31 30  1  0  0  0  0
M  END
>  <minimizedAffinity>
-5.11469841

$$$$

 OpenBabel03272507513D

 31 33  0  0  1  0  0  0  0  0999 V2000
   38.6140   24.1950   33.8480 C   0  0  0  0  0  0  0  0  0  0  0  0
   38.9740   24.4730   35.1790 C   0  0  0  0  0  0  0  0  0  0  0  0
   38.4150   25.6120   35.7760 C   0  0  0  0  0  0  0  0  0  0  0  0
   37.5650   26.3750   35.0420 N   0  0  0  0  0  0  0  0  0  0  0  0
   37.2400   26.0750   33.7610 C   0  0  0  0  0  0  0  0  0  0  0  0
   37.7630   24.9800   33.1520 N   0  0  0  0  0  0  0  0  0  0  0  0
   38.6880   25.8290   36.7970 H   0  0  0  0  0  0  0  0  0  0  0  0
   36.5490   26.8060   33.3540 H   0  0  0  0  0  0  0  0  0  0  0  0
   39.8660   23.5900   35.8300 N   0  0  0  0  0  0  0  0  0  0  0  0
   41.1930   23.6910   35.7000 C   0  0  0  0  0  0  0  0  0  0  0  0
   42.0490   22.8040   36.3520 C   0  0  0  0  0  0  0  0  0  0  0  0
   41.3820   21.8580   37.1080 C   0  0  0  0  0  0  0  0  0  0  0  0
   42.1240   21.0220   37.7230 O   0  0  0  0  0  0  0  0  0  0  0  0
   40.0620   21.7220   37.2630 N   0  0  0  0  0  0  0  0  0  0  0  0
   39.3110   22.6240   36.5960 C   0  0  0  0  0  0  0  0  0  0  0  0
   38.0560   22.5100   36.7330 O   0  0  0  0  0  0  0  0  0  0  0  0
   41.6610   24.4500   35.0870 H   0  0  0  0  0  0  0  0  0  0  0  0
   43.1270   22.8320   36.2880 H   0  0  0  0  0  0  0  0  0  0  0  0
   39.6710   20.9640   37.8640 H   0  0  0  0  0  0  0  0  0  0  0  0
   38.2800   21.8010   33.1920 C   0  0  2  0  0  3  0  0  0  0  0  0
   39.0970   23.0470   33.0420 C   0  0  1  0  0  3  0  0  0  0  0  0
   39.1590   23.3710   31.5660 C   0  0  0  0  0  3  0  0  0  0  0  0
   39.6590   24.3550   31.4610 H   0  0  0  0  0  0  0  0  0  0  0  0
   37.9340   23.4500   30.9500 O   0  0  0  0  0  0  0  0  0  0  0  0
   37.1760   22.3100   31.0330 C   0  0  0  0  0  3  0  0  0  0  0  0
   36.1470   22.5110   31.4050 H   0  0  0  0  0  0  0  0  0  0  0  0
   37.8420   21.2410   31.8440 C   0  0  2  0  0  3  0  0  0  0  0  0
   37.1320   22.1410   33.9030 O   0  0  0  0  0  0  0  0  0  0  0  0
   36.6920   21.3570   34.3160 H   0  0  0  0  0  0  0  0  0  0  0  0
   36.9030   20.2400   32.0780 O   0  0  0  0  0  0  0  0  0  0  0  0
   36.3720   20.0280   31.2630 H   0  0  0  0  0  0  0  0  0  0  0  0
  1  2  1  0  0  0  0
  2  3  2  0  0  0  0
  2  9  1  0  0  0  0
  3  7  1  0  0  0  0
  4  3  1  0  0  0  0
  5  4  2  0  0  0  0
  6  5  1  0  0  0  0
  6  1  2  0  0  0  0
  8  5  1  0  0  0  0
  9 15  1  0  0  0  0
 10  9  1  0  0  0  0
 10 11  2  0  0  0  0
 11 12  1  0  0  0  0
 12 14  1  0  0  0  0
 12 13  2  0  0  0  0
 14 19  1  0  0  0  0
 15 16  2  0  0  0  0
 15 14  1  0  0  0  0
 17 10  1  0  0  0  0
 18 11  1  0  0  0  0
 20 28  1  1  0  0  0
 21 20  1  0  0  0  0
 21  1  1  1  0  0  0
 22 21  1  0  0  0  0
 23 22  1  0  0  0  0
 24 25  1  0  0  0  0
 24 22  1  0  0  0  0
 25 26  1  0  0  0  0
 25 27  1  0  0  0  0
 27 30  1  1  0  0  0
 27 20  1  0  0  0  0
 28 29  1  0  0  0  0
 31 30  1  0  0  0  0
M  END
>  <minimizedAffinity>
-4.97992849

$$$$

 OpenBabel03272507513D

 31 33  0  0  1  0  0  0  0  0999 V2000
   37.6740   23.8500   33.1580 C   0  0  0  0  0  0  0  0  0  0  0  0
   37.9400   22.5280   33.5590 C   0  0  0  0  0  0  0  0  0  0  0  0
   37.2290   21.5030   32.9210 C   0  0  0  0  0  0  0  0  0  0  0  0
   36.3310   21.8400   31.9600 N   0  0  0  0  0  0  0  0  0  0  0  0
   36.1010   23.1250   31.5980 C   0  0  0  0  0  0  0  0  0  0  0  0
   36.7720   24.1430   32.1960 N   0  0  0  0  0  0  0  0  0  0  0  0
   37.4300   20.4860   33.2250 H   0  0  0  0  0  0  0  0  0  0  0  0
   35.3510   23.1800   30.8160 H   0  0  0  0  0  0  0  0  0  0  0  0
   38.9060   22.3170   34.5700 N   0  0  0  0  0  0  0  0  0  0  0  0
   40.2120   22.2150   34.3000 C   0  0  0  0  0  0  0  0  0  0  0  0
   41.1420   22.0040   35.3180 C   0  0  0  0  0  0  0  0  0  0  0  0
   40.5680   21.9180   36.5730 C   0  0  0  0  0  0  0  0  0  0  0  0
   41.3810   21.7240   37.5370 O   0  0  0  0  0  0  0  0  0  0  0  0
   39.2720   22.0130   36.8840 N   0  0  0  0  0  0  0  0  0  0  0  0
   38.4450   22.2180   35.8380 C   0  0  0  0  0  0  0  0  0  0  0  0
   37.2110   22.3110   36.1150 O   0  0  0  0  0  0  0  0  0  0  0  0
   40.6040   22.2840   33.2940 H   0  0  0  0  0  0  0  0  0  0  0  0
   42.2080   21.9130   35.1660 H   0  0  0  0  0  0  0  0  0  0  0  0
   38.9550   21.9320   37.8750 H   0  0  0  0  0  0  0  0  0  0  0  0
   39.4280   25.6130   32.8730 C   0  0  2  0  0  3  0  0  0  0  0  0
   38.3140   25.0680   33.7110 C   0  0  1  0  0  3  0  0  0  0  0  0
   37.3210   26.1890   33.9240 C   0  0  0  0  0  3  0  0  0  0  0  0
   36.4390   25.7590   34.4410 H   0  0  0  0  0  0  0  0  0  0  0  0
   36.8850   26.7900   32.7690 O   0  0  0  0  0  0  0  0  0  0  0  0
   37.8780   27.3360   31.9970 C   0  0  0  0  0  3  0  0  0  0  0  0
   37.8240   27.0010   30.9380 H   0  0  0  0  0  0  0  0  0  0  0  0
   39.2410   27.0950   32.5680 C   0  0  2  0  0  3  0  0  0  0  0  0
   39.4110   24.9270   31.6620 O   0  0  0  0  0  0  0  0  0  0  0  0
   40.2700   24.9860   31.1750 H   0  0  0  0  0  0  0  0  0  0  0  0
   40.1760   27.4580   31.6020 O   0  0  0  0  0  0  0  0  0  0  0  0
   39.9370   28.3140   31.1550 H   0  0  0  0  0  0  0  0  0  0  0  0
  1  2  1  0  0  0  0
  2  9  1  0  0  0  0
  3  7  1  0  0  0  0
  3  2  2  0  0  0  0
  4  3  1  0  0  0  0
  5  4  2  0  0  0  0
  5  6  1  0  0  0  0
  6  1  2  0  0  0  0
  8  5  1  0  0  0  0
  9 15  1  0  0  0  0
 10  9  1  0  0  0  0
 10 11  2  0  0  0  0
 11 12  1  0  0  0  0
 12 14  1  0  0  0  0
 12 13  2  0  0  0  0
 14 19  1  0  0  0  0
 15 16  2  0  0  0  0
 15 14  1  0  0  0  0
 17 10  1  0  0  0  0
 18 11  1  0  0  0  0
 20 28  1  6  0  0  0
 20 21  1  0  0  0  0
 21  1  1  6  0  0  0
 21 22  1  0  0  0  0
 22 23  1  0  0  0  0
 24 22  1  0  0  0  0
 25 27  1  0  0  0  0
 25 24  1  0  0  0  0
 26 25  1  0  0  0  0
 27 30  1  6  0  0  0
 27 20  1  0  0  0  0
 29 28  1  0  0  0  0
 31 30  1  0  0  0  0
M  END
>  <minimizedAffinity>
-4.94671011

$$$$

 OpenBabel03272507513D

 31 33  0  0  1  0  0  0  0  0999 V2000
   40.1700   23.9930   35.0200 C   0  0  0  0  0  0  0  0  0  0  0  0
   38.7680   23.9900   35.1260 C   0  0  0  0  0  0  0  0  0  0  0  0
   38.2070   23.4220   36.2790 C   0  0  0  0  0  0  0  0  0  0  0  0
   39.0420   22.9130   37.2200 N   0  0  0  0  0  0  0  0  0  0  0  0
   40.3900   22.9340   37.0840 C   0  0  0  0  0  0  0  0  0  0  0  0
   40.9660   23.4750   35.9800 N   0  0  0  0  0  0  0  0  0  0  0  0
   37.1310   23.4180   36.3650 H   0  0  0  0  0  0  0  0  0  0  0  0
   40.8740   22.4790   37.9430 H   0  0  0  0  0  0  0  0  0  0  0  0
   38.0150   24.5610   34.0730 N   0  0  0  0  0  0  0  0  0  0  0  0
   37.6840   23.8700   32.9760 C   0  0  0  0  0  0  0  0  0  0  0  0
   36.9440   24.4610   31.9520 C   0  0  0  0  0  0  0  0  0  0  0  0
   36.6160   25.7800   32.2070 C   0  0  0  0  0  0  0  0  0  0  0  0
   35.9380   26.3630   31.2960 O   0  0  0  0  0  0  0  0  0  0  0  0
   36.9270   26.5030   33.2860 N   0  0  0  0  0  0  0  0  0  0  0  0
   37.6440   25.8520   34.2250 C   0  0  0  0  0  0  0  0  0  0  0  0
   37.9480   26.5240   35.2560 O   0  0  0  0  0  0  0  0  0  0  0  0
   37.9750   22.8390   32.8290 H   0  0  0  0  0  0  0  0  0  0  0  0
   36.6450   23.9590   31.0440 H   0  0  0  0  0  0  0  0  0  0  0  0
   36.6210   27.4980   33.3670 H   0  0  0  0  0  0  0  0  0  0  0  0
   41.3050   25.9870   34.0180 C   0  0  2  0  0  3  0  0  0  0  0  0
   40.9520   24.5390   33.8830 C   0  0  1  0  0  3  0  0  0  0  0  0
   42.2400   23.7790   33.6590 C   0  0  0  0  0  3  0  0  0  0  0  0
   41.9980   22.6970   33.6790 H   0  0  0  0  0  0  0  0  0  0  0  0
   43.2100   24.0140   34.6020 O   0  0  0  0  0  0  0  0  0  0  0  0
   43.5870   25.3270   34.7220 C   0  0  0  0  0  3  0  0  0  0  0  0
   43.5550   25.6820   35.7760 H   0  0  0  0  0  0  0  0  0  0  0  0
   42.7970   26.2300   33.8260 C   0  0  2  0  0  3  0  0  0  0  0  0
   40.9760   26.3760   35.3130 O   0  0  0  0  0  0  0  0  0  0  0  0
   40.8780   27.3560   35.4060 H   0  0  0  0  0  0  0  0  0  0  0  0
   43.0720   27.5440   34.1990 O   0  0  0  0  0  0  0  0  0  0  0  0
   44.0420   27.6880   34.3700 H   0  0  0  0  0  0  0  0  0  0  0  0
  1  2  2  0  0  0  0
  1  6  1  0  0  0  0
  2  3  1  0  0  0  0
  3  7  1  0  0  0  0
  3  4  2  0  0  0  0
  5  4  1  0  0  0  0
  5  8  1  0  0  0  0
  6  5  2  0  0  0  0
  9 15  1  0  0  0  0
  9  2  1  0  0  0  0
 10  9  1  0  0  0  0
 11 12  1  0  0  0  0
 11 10  2  0  0  0  0
 12 14  1  0  0  0  0
 13 12  2  0  0  0  0
 14 19  1  0  0  0  0
 14 15  1  0  0  0  0
 15 16  2  0  0  0  0
 17 10  1  0  0  0  0
 18 11  1  0  0  0  0
 20 28  1  1  0  0  0
 21 20  1  0  0  0  0
 21  1  1  1  0  0  0
 22 23  1  0  0  0  0
 22 21  1  0  0  0  0
 22 24  1  0  0  0  0
 24 25  1  0  0  0  0
 25 26  1  0  0  0  0
 27 20  1  0  0  0  0
 27 30  1  1  0  0  0
 27 25  1  0  0  0  0
 28 29  1  0  0  0  0
 30 31  1  0  0  0  0
M  END
>  <minimizedAffinity>
-4.91518021

$$$$

 OpenBabel03272507513D

 31 33  0  0  1  0  0  0  0  0999 V2000
   38.5370   24.8270   32.7810 C   0  0  0  0  0  0  0  0  0  0  0  0
   39.3160   24.1090   33.7060 C   0  0  0  0  0  0  0  0  0  0  0  0
   40.5830   23.6790   33.2880 C   0  0  0  0  0  0  0  0  0  0  0  0
   40.9830   23.9760   32.0250 N   0  0  0  0  0  0  0  0  0  0  0  0
   40.2040   24.6710   31.1610 C   0  0  0  0  0  0  0  0  0  0  0  0
   38.9720   25.1020   31.5320 N   0  0  0  0  0  0  0  0  0  0  0  0
   41.1860   23.1280   33.9950 H   0  0  0  0  0  0  0  0  0  0  0  0
   40.7050   24.8030   30.2070 H   0  0  0  0  0  0  0  0  0  0  0  0
   38.7800   23.8740   34.9940 N   0  0  0  0  0  0  0  0  0  0  0  0
   38.7970   24.8040   35.9550 C   0  0  0  0  0  0  0  0  0  0  0  0
   38.2630   24.5420   37.2170 C   0  0  0  0  0  0  0  0  0  0  0  0
   37.7440   23.2660   37.3360 C   0  0  0  0  0  0  0  0  0  0  0  0
   37.2450   22.9790   38.4750 O   0  0  0  0  0  0  0  0  0  0  0  0
   37.7090   22.3110   36.4030 N   0  0  0  0  0  0  0  0  0  0  0  0
   38.2470   22.6510   35.2130 C   0  0  0  0  0  0  0  0  0  0  0  0
   38.2210   21.7560   34.3160 O   0  0  0  0  0  0  0  0  0  0  0  0
   39.2240   25.7860   35.8060 H   0  0  0  0  0  0  0  0  0  0  0  0
   38.2460   25.2480   38.0340 H   0  0  0  0  0  0  0  0  0  0  0  0
   37.2880   21.3780   36.6100 H   0  0  0  0  0  0  0  0  0  0  0  0
   37.1380   26.8210   33.3610 C   0  0  2  0  0  3  0  0  0  0  0  0
   37.1750   25.3620   33.0270 C   0  0  1  0  0  3  0  0  0  0  0  0
   36.2550   25.1460   31.8460 C   0  0  0  0  0  3  0  0  0  0  0  0
   36.3710   24.0930   31.5210 H   0  0  0  0  0  0  0  0  0  0  0  0
   36.5150   25.9550   30.7680 O   0  0  0  0  0  0  0  0  0  0  0  0
   36.4480   27.2990   31.0310 C   0  0  0  0  0  3  0  0  0  0  0  0
   37.3550   27.8440   30.6870 H   0  0  0  0  0  0  0  0  0  0  0  0
   36.1630   27.5840   32.4730 C   0  0  2  0  0  3  0  0  0  0  0  0
   38.4120   27.3330   33.1300 O   0  0  0  0  0  0  0  0  0  0  0  0
   38.5730   28.1860   33.6030 H   0  0  0  0  0  0  0  0  0  0  0  0
   36.3640   28.9470   32.6830 O   0  0  0  0  0  0  0  0  0  0  0  0
   35.9770   29.4990   31.9520 H   0  0  0  0  0  0  0  0  0  0  0  0
  1  2  1  0  0  0  0
  2  9  1  0  0  0  0
  3  2  2  0  0  0  0
  3  7  1  0  0  0  0
  4  3  1  0  0  0  0
  5  6  1  0  0  0  0
  5  4  2  0  0  0  0
  6  1  2  0  0  0  0
  8  5  1  0  0  0  0
  9 15  1  0  0  0  0
  9 10  1  0  0  0  0
 10 11  2  0  0  0  0
 11 12  1  0  0  0  0
 11 18  1  0  0  0  0
 12 13  2  0  0  0  0
 14 19  1  0  0  0  0
 14 12  1  0  0  0  0
 15 14  1  0  0  0  0
 16 15  2  0  0  0  0
 17 10  1  0  0  0  0
 20 28  1  6  0  0  0
 21  1  1  6  0  0  0
 21 20  1  0  0  0  0
 22 21  1  0  0  0  0
 23 22  1  0  0  0  0
 24 25  1  0  0  0  0
 24 22  1  0  0  0  0
 25 27  1  0  0  0  0
 26 25  1  0  0  0  0
 27 30  1  6  0  0  0
 27 20  1  0  0  0  0
 28 29  1  0  0  0  0
 31 30  1  0  0  0  0
M  END
>  <minimizedAffinity>
-4.90049458

$$$$

 OpenBabel03272507513D

 31 33  0  0  1  0  0  0  0  0999 V2000
   37.6440   22.7160   32.7600 C   0  0  0  0  0  0  0  0  0  0  0  0
   38.1920   23.5760   33.7270 C   0  0  0  0  0  0  0  0  0  0  0  0
   37.8120   24.9250   33.6830 C   0  0  0  0  0  0  0  0  0  0  0  0
   36.9430   25.3210   32.7170 N   0  0  0  0  0  0  0  0  0  0  0  0
   36.4340   24.4620   31.8010 C   0  0  0  0  0  0  0  0  0  0  0  0
   36.7810   23.1490   31.8150 N   0  0  0  0  0  0  0  0  0  0  0  0
   38.2290   25.5900   34.4240 H   0  0  0  0  0  0  0  0  0  0  0  0
   35.7610   24.9730   31.1210 H   0  0  0  0  0  0  0  0  0  0  0  0
   39.0810   23.0310   34.6820 N   0  0  0  0  0  0  0  0  0  0  0  0
   40.4070   23.0260   34.5020 C   0  0  0  0  0  0  0  0  0  0  0  0
   41.2600   22.4780   35.4600 C   0  0  0  0  0  0  0  0  0  0  0  0
   40.5920   21.9700   36.5590 C   0  0  0  0  0  0  0  0  0  0  0  0
   41.3320   21.4570   37.4630 O   0  0  0  0  0  0  0  0  0  0  0  0
   39.2740   21.9560   36.7760 N   0  0  0  0  0  0  0  0  0  0  0  0
   38.5250   22.5060   35.7980 C   0  0  0  0  0  0  0  0  0  0  0  0
   37.2720   22.5020   35.9880 O   0  0  0  0  0  0  0  0  0  0  0  0
   40.8740   23.4330   33.6150 H   0  0  0  0  0  0  0  0  0  0  0  0
   42.3360   22.4430   35.3740 H   0  0  0  0  0  0  0  0  0  0  0  0
   38.8830   21.5420   37.6510 H   0  0  0  0  0  0  0  0  0  0  0  0
   36.8680   20.3810   33.2280 C   0  0  2  0  0  3  0  0  0  0  0  0
   37.9220   21.2640   32.6350 C   0  0  1  0  0  3  0  0  0  0  0  0
   38.1080   20.8390   31.1960 C   0  0  0  0  0  3  0  0  0  0  0  0
   38.7990   21.5650   30.7210 H   0  0  0  0  0  0  0  0  0  0  0  0
   36.9510   20.8080   30.4580 O   0  0  0  0  0  0  0  0  0  0  0  0
   35.9780   19.9770   30.9510 C   0  0  0  0  0  3  0  0  0  0  0  0
   34.9950   20.4880   31.0540 H   0  0  0  0  0  0  0  0  0  0  0  0
   36.3840   19.3280   32.2390 C   0  0  2  0  0  3  0  0  0  0  0  0
   35.7820   21.1900   33.5510 O   0  0  0  0  0  0  0  0  0  0  0  0
   35.1780   20.7750   34.2140 H   0  0  0  0  0  0  0  0  0  0  0  0
   35.2550   18.7160   32.7780 O   0  0  0  0  0  0  0  0  0  0  0  0
   34.7270   18.2310   32.0880 H   0  0  0  0  0  0  0  0  0  0  0  0
  1  2  1  0  0  0  0
  2  9  1  0  0  0  0
  3  2  2  0  0  0  0
  3  7  1  0  0  0  0
  4  3  1  0  0  0  0
  5  6  1  0  0  0  0
  5  4  2  0  0  0  0
  6  1  2  0  0  0  0
  8  5  1  0  0  0  0
  9 15  1  0  0  0  0
 10  9  1  0  0  0  0
 10 11  2  0  0  0  0
 11 12  1  0  0  0  0
 12 14  1  0  0  0  0
 12 13  2  0  0  0  0
 14 19  1  0  0  0  0
 15 16  2  0  0  0  0
 15 14  1  0  0  0  0
 17 10  1  0  0  0  0
 18 11  1  0  0  0  0
 20 28  1  6  0  0  0
 21  1  1  6  0  0  0
 21 20  1  0  0  0  0
 22 21  1  0  0  0  0
 23 22  1  0  0  0  0
 24 25  1  0  0  0  0
 24 22  1  0  0  0  0
 25 26  1  0  0  0  0
 25 27  1  0  0  0  0
 27 30  1  1  0  0  0
 27 20  1  0  0  0  0
 28 29  1  0  0  0  0
 31 30  1  0  0  0  0
M  END
>  <minimizedAffinity>
-4.86401796

$$$$

 OpenBabel03272507513D

 31 33  0  0  1  0  0  0  0  0999 V2000
   39.4130   26.1650   33.1060 C   0  0  0  0  0  0  0  0  0  0  0  0
   39.9510   25.7600   34.3410 C   0  0  0  0  0  0  0  0  0  0  0  0
   41.1960   26.2900   34.7090 C   0  0  0  0  0  0  0  0  0  0  0  0
   41.8060   27.1570   33.8600 N   0  0  0  0  0  0  0  0  0  0  0  0
   41.2560   27.5250   32.6780 C   0  0  0  0  0  0  0  0  0  0  0  0
   40.0530   27.0300   32.2900 N   0  0  0  0  0  0  0  0  0  0  0  0
   41.6130   25.9830   35.6560 H   0  0  0  0  0  0  0  0  0  0  0  0
   41.8990   28.2220   32.1510 H   0  0  0  0  0  0  0  0  0  0  0  0
   39.2060   24.8550   35.1330 N   0  0  0  0  0  0  0  0  0  0  0  0
   39.3040   23.5290   34.9840 C   0  0  0  0  0  0  0  0  0  0  0  0
   38.5540   22.6610   35.7770 C   0  0  0  0  0  0  0  0  0  0  0  0
   37.7420   23.3150   36.6860 C   0  0  0  0  0  0  0  0  0  0  0  0
   37.0360   22.5600   37.4340 O   0  0  0  0  0  0  0  0  0  0  0  0
   37.6160   24.6320   36.8650 N   0  0  0  0  0  0  0  0  0  0  0  0
   38.3780   25.3970   36.0550 C   0  0  0  0  0  0  0  0  0  0  0  0
   38.2720   26.6500   36.2110 O   0  0  0  0  0  0  0  0  0  0  0  0
   39.9530   23.0730   34.2490 H   0  0  0  0  0  0  0  0  0  0  0  0
   38.5870   21.5830   35.7070 H   0  0  0  0  0  0  0  0  0  0  0  0
   36.9670   25.0120   37.5880 H   0  0  0  0  0  0  0  0  0  0  0  0
   36.9560   26.5950   32.8830 C   0  0  2  0  0  3  0  0  0  0  0  0
   38.1180   25.7170   32.5380 C   0  0  1  0  0  3  0  0  0  0  0  0
   38.1650   25.6030   31.0310 C   0  0  0  0  0  3  0  0  0  0  0  0
   39.0910   25.0540   30.7660 H   0  0  0  0  0  0  0  0  0  0  0  0
   38.1820   26.8070   30.3700 O   0  0  0  0  0  0  0  0  0  0  0  0
   37.1090   27.6200   30.6330 C   0  0  0  0  0  3  0  0  0  0  0  0
   37.4180   28.6470   30.9280 H   0  0  0  0  0  0  0  0  0  0  0  0
   36.1790   27.0260   31.6450 C   0  0  2  0  0  3  0  0  0  0  0  0
   37.4680   27.7430   33.4830 O   0  0  0  0  0  0  0  0  0  0  0  0
   36.7930   28.2300   34.0160 H   0  0  0  0  0  0  0  0  0  0  0  0
   35.2780   28.0180   32.0250 O   0  0  0  0  0  0  0  0  0  0  0  0
   34.9440   28.5380   31.2450 H   0  0  0  0  0  0  0  0  0  0  0  0
  1  2  1  0  0  0  0
  2  3  2  0  0  0  0
  2  9  1  0  0  0  0
  3  7  1  0  0  0  0
  4  3  1  0  0  0  0
  5  4  2  0  0  0  0
  6  5  1  0  0  0  0
  6  1  2  0  0  0  0
  8  5  1  0  0  0  0
  9 15  1  0  0  0  0
 10  9  1  0  0  0  0
 10 11  2  0  0  0  0
 11 12  1  0  0  0  0
 12 14  1  0  0  0  0
 12 13  2  0  0  0  0
 14 19  1  0  0  0  0
 15 16  2  0  0  0  0
 15 14  1  0  0  0  0
 17 10  1  0  0  0  0
 18 11  1  0  0  0  0
 20 28  1  6  0  0  0
 21 20  1  0  0  0  0
 21  1  1  6  0  0  0
 22 21  1  0  0  0  0
 23 22  1  0  0  0  0
 24 25  1  0  0  0  0
 24 22  1  0  0  0  0
 25 26  1  0  0  0  0
 25 27  1  0  0  0  0
 27 30  1  1  0  0  0
 27 20  1  0  0  0  0
 28 29  1  0  0  0  0
 31 30  1  0  0  0  0
M  END
>  <minimizedAffinity>
-4.85454845

$$$$

 OpenBabel03272507513D

 31 33  0  0  1  0  0  0  0  0999 V2000
   39.4750   22.7050   33.4850 C   0  0  0  0  0  0  0  0  0  0  0  0
   38.9540   22.4650   32.2010 C   0  0  0  0  0  0  0  0  0  0  0  0
   39.5990   21.5030   31.4110 C   0  0  0  0  0  0  0  0  0  0  0  0
   40.6800   20.8620   31.9260 N   0  0  0  0  0  0  0  0  0  0  0  0
   41.1530   21.1190   33.1700 C   0  0  0  0  0  0  0  0  0  0  0  0
   40.5530   22.0450   33.9610 N   0  0  0  0  0  0  0  0  0  0  0  0
   39.2030   21.3140   30.4240 H   0  0  0  0  0  0  0  0  0  0  0  0
   42.0190   20.5030   33.3900 H   0  0  0  0  0  0  0  0  0  0  0  0
   37.8170   23.1990   31.7910 N   0  0  0  0  0  0  0  0  0  0  0  0
   36.5710   22.7700   32.0150 C   0  0  0  0  0  0  0  0  0  0  0  0
   35.4680   23.5150   31.5960 C   0  0  0  0  0  0  0  0  0  0  0  0
   35.8150   24.6890   30.9550 C   0  0  0  0  0  0  0  0  0  0  0  0
   34.8370   25.4040   30.5520 O   0  0  0  0  0  0  0  0  0  0  0  0
   37.0440   25.1520   30.7110 N   0  0  0  0  0  0  0  0  0  0  0  0
   38.0500   24.3680   31.1500 C   0  0  0  0  0  0  0  0  0  0  0  0
   39.2230   24.7920   30.9280 O   0  0  0  0  0  0  0  0  0  0  0  0
   36.3600   21.8360   32.5190 H   0  0  0  0  0  0  0  0  0  0  0  0
   34.4390   23.2230   31.7470 H   0  0  0  0  0  0  0  0  0  0  0  0
   37.1820   26.0600   30.2140 H   0  0  0  0  0  0  0  0  0  0  0  0
   37.9440   23.1090   35.4250 C   0  0  2  0  0  3  0  0  0  0  0  0
   38.9420   23.6810   34.4670 C   0  0  1  0  0  3  0  0  0  0  0  0
   40.0390   24.3220   35.2880 C   0  0  0  0  0  3  0  0  0  0  0  0
   40.8370   24.6400   34.5880 H   0  0  0  0  0  0  0  0  0  0  0  0
   40.6020   23.4950   36.2280 O   0  0  0  0  0  0  0  0  0  0  0  0
   39.7210   22.9860   37.1460 C   0  0  0  0  0  3  0  0  0  0  0  0
   39.7970   21.8800   37.2400 H   0  0  0  0  0  0  0  0  0  0  0  0
   38.3090   23.4050   36.8740 C   0  0  2  0  0  3  0  0  0  0  0  0
   37.9540   21.7270   35.2590 O   0  0  0  0  0  0  0  0  0  0  0  0
   37.1360   21.2930   35.6050 H   0  0  0  0  0  0  0  0  0  0  0  0
   37.4760   22.6460   37.6930 O   0  0  0  0  0  0  0  0  0  0  0  0
   37.8320   22.5690   38.6180 H   0  0  0  0  0  0  0  0  0  0  0  0
  1  6  1  0  0  0  0
  2  1  2  0  0  0  0
  3  4  2  0  0  0  0
  3  2  1  0  0  0  0
  4  5  1  0  0  0  0
  5  8  1  0  0  0  0
  5  6  2  0  0  0  0
  7  3  1  0  0  0  0
  9 10  1  0  0  0  0
  9  2  1  0  0  0  0
 10 17  1  0  0  0  0
 11 18  1  0  0  0  0
 11 10  2  0  0  0  0
 12 11  1  0  0  0  0
 13 12  2  0  0  0  0
 14 12  1  0  0  0  0
 14 15  1  0  0  0  0
 15  9  1  0  0  0  0
 16 15  2  0  0  0  0
 19 14  1  0  0  0  0
 20 28  1  1  0  0  0
 20 27  1  0  0  0  0
 21  1  1  1  0  0  0
 21 22  1  0  0  0  0
 21 20  1  0  0  0  0
 22 24  1  0  0  0  0
 23 22  1  0  0  0  0
 24 25  1  0  0  0  0
 25 26  1  0  0  0  0
 27 25  1  0  0  0  0
 27 30  1  1  0  0  0
 28 29  1  0  0  0  0
 30 31  1  0  0  0  0
M  END
>  <minimizedAffinity>
-4.84334135

$$$$
