
 OpenBabel03272510263D

 48 52  0  0  1  0  0  0  0  0999 V2000
   39.3630   31.6410   41.8600 N   0  0  0  0  0  0  0  0  0  0  0  0
   39.2410   33.0680   41.8580 C   0  0  1  0  0  0  0  0  0  0  0  0
   37.9530   33.4880   41.3240 C   0  0  0  0  0  0  0  0  0  0  0  0
   37.8670   33.0700   39.9860 O   0  0  0  0  0  0  0  0  0  0  0  0
   38.0860   31.7350   39.7760 C   0  0  0  0  0  0  0  0  0  0  0  0
   39.2750   31.1890   40.4900 C   0  0  1  0  0  0  0  0  0  0  0  0
   38.7990   31.0780   42.4520 H   0  0  0  0  0  0  0  0  0  0  0  0
   40.0560   33.4930   41.2510 H   0  0  0  0  0  0  0  0  0  0  0  0
   37.9930   34.6160   41.2320 H   0  0  0  0  0  0  0  0  0  0  0  0
   37.0080   33.2560   41.7310 H   0  0  0  0  0  0  0  0  0  0  0  0
   38.0990   31.5560   38.7100 H   0  0  0  0  0  0  0  0  0  0  0  0
   37.1820   31.2060   40.2010 H   0  0  0  0  0  0  0  0  0  0  0  0
   39.0990   30.0730   40.5520 H   0  0  0  0  0  0  0  0  0  0  0  0
   41.4370   30.1110   40.0830 C   0  0  2  0  0  3  0  0  0  0  0  0
   40.5830   31.3170   39.7700 C   0  0  1  0  0  3  0  0  0  0  0  0
   40.4200   31.4090   38.2960 C   0  0  0  0  0  3  0  0  0  0  0  0
   41.4620   31.5010   37.8690 H   0  0  0  0  0  0  0  0  0  0  0  0
   39.9120   30.2480   37.7180 O   0  0  0  0  0  0  0  0  0  0  0  0
   40.9690   29.3120   37.8140 C   0  0  0  0  0  3  0  0  0  0  0  0
   41.9090   29.8580   37.5780 H   0  0  0  0  0  0  0  0  0  0  0  0
   41.0350   28.9050   39.2600 C   0  0  1  0  0  3  0  0  0  0  0  0
   41.3990   29.7460   41.4050 O   0  0  0  0  0  0  0  0  0  0  0  0
   41.6370   28.8170   41.5510 H   0  0  0  0  0  0  0  0  0  0  0  0
   42.0080   27.9320   39.4850 O   0  0  0  0  0  0  0  0  0  0  0  0
   42.8580   28.3090   39.8330 H   0  0  0  0  0  0  0  0  0  0  0  0
   39.3880   33.4930   43.2080 O   0  0  0  0  0  0  0  0  0  0  0  0
   36.1620   30.2090   46.8990 C   0  0  0  0  0  0  0  0  0  0  0  0
   37.0490   30.7360   47.8280 C   0  0  0  0  0  0  0  0  0  0  0  0
   38.0640   31.6190   47.4350 C   0  0  0  0  0  0  0  0  0  0  0  0
   38.1270   31.9290   46.0800 C   0  0  0  0  0  0  0  0  0  0  0  0
   39.0180   32.7610   45.4590 N   0  0  0  0  0  0  0  0  0  0  0  0
   38.6860   32.7490   44.1580 C   0  0  0  0  0  0  0  0  0  0  0  0
   37.6490   31.9590   43.9590 N   0  0  0  0  0  0  0  0  0  0  0  0
   37.2600   31.4220   45.1280 C   0  0  0  0  0  0  0  0  0  0  0  0
   36.2590   30.5430   45.5530 C   0  0  0  0  0  0  0  0  0  0  0  0
   35.3690   29.5280   47.1560 H   0  0  0  0  0  0  0  0  0  0  0  0
   38.7650   32.0410   48.1420 H   0  0  0  0  0  0  0  0  0  0  0  0
   39.8030   33.2940   45.9380 H   0  0  0  0  0  0  0  0  0  0  0  0
   35.5830   30.1470   44.8140 H   0  0  0  0  0  0  0  0  0  0  0  0
   37.5110   30.1640   51.5100 C   0  0  0  0  0  0  0  0  0  0  0  0
   37.8110   30.5990   50.2260 C   0  0  0  0  0  0  0  0  0  0  0  0
   36.9080   30.3590   49.2190 C   0  0  0  0  0  0  0  0  0  0  0  0
   35.7470   29.6940   49.5580 N   0  0  0  0  0  0  0  0  0  0  0  0
   35.4650   29.2760   50.8070 C   0  0  0  0  0  0  0  0  0  0  0  0
   36.3390   29.5110   51.7650 N   0  0  0  0  0  0  0  0  0  0  0  0
   38.2600   30.3800   52.2680 H   0  0  0  0  0  0  0  0  0  0  0  0
   38.7180   31.1220   49.9510 H   0  0  0  0  0  0  0  0  0  0  0  0
   34.5310   28.7630   50.9740 H   0  0  0  0  0  0  0  0  0  0  0  0
  1  7  1  0  0  0  0
  2  8  1  6  0  0  0
  2  1  1  0  0  0  0
  2 26  1  0  0  0  0
  3 10  1  0  0  0  0
  3  2  1  0  0  0  0
  4  3  1  0  0  0  0
  5  4  1  0  0  0  0
  5 12  1  0  0  0  0
  5  6  1  0  0  0  0
  6 13  1  1  0  0  0
  6  1  1  0  0  0  0
  9  3  1  0  0  0  0
 11  5  1  0  0  0  0
 14 22  1  1  0  0  0
 15 16  1  6  0  0  0
 15 14  1  0  0  0  0
 15  6  1  0  0  0  0
 17 16  1  0  0  0  0
 18 19  1  0  0  0  0
 18 16  1  0  0  0  0
 19 21  1  0  0  0  0
 20 19  1  0  0  0  0
 21 24  1  6  0  0  0
 21 14  1  0  0  0  0
 22 23  1  0  0  0  0
 24 25  1  0  0  0  0
 26 32  1  0  0  0  0
 27 36  1  0  0  0  0
 27 28  1  0  0  0  0
 28 42  1  0  0  0  0
 29 28  2  0  0  0  0
 29 37  1  0  0  0  0
 30 29  1  0  0  0  0
 31 38  1  0  0  0  0
 31 30  1  0  0  0  0
 32 31  1  0  0  0  0
 33 32  2  0  0  0  0
 33 34  1  0  0  0  0
 34 35  1  0  0  0  0
 34 30  2  0  0  0  0
 35 27  2  0  0  0  0
 39 35  1  0  0  0  0
 40 45  1  0  0  0  0
 40 46  1  0  0  0  0
 41 40  2  0  0  0  0
 42 43  2  0  0  0  0
 42 41  1  0  0  0  0
 43 44  1  0  0  0  0
 44 48  1  0  0  0  0
 44 45  2  0  0  0  0
 47 41  1  0  0  0  0
M  END
>  <minimizedAffinity>
-6.03985882

>  <minimizedRMSD>
0.867515445

$$$$
