
     RDKit          3D

 55 58  0  0  0  0  0  0  0  0999 V2000
   37.1443   29.2810   51.5755 C   0  0  0  0  0  0  0  0  0  0  0  0
   37.4699   30.4925   51.0530 C   0  0  0  0  0  0  0  0  0  0  0  0
   37.4337   30.1508   49.7277 O   0  0  0  0  0  0  0  0  0  0  0  0
   38.0368   30.9883   48.8213 C   0  0  0  0  0  0  0  0  0  0  0  0
   38.3419   32.2185   49.3492 C   0  0  0  0  0  0  0  0  0  0  0  0
   38.9633   33.1716   48.5264 C   0  0  0  0  0  0  0  0  0  0  0  0
   39.2292   32.8157   47.2398 N   0  0  0  0  0  0  0  0  0  0  0  0
   38.9119   31.5778   46.7413 C   0  0  0  0  0  0  0  0  0  0  0  0
   38.3217   30.6987   47.5554 N   0  0  0  0  0  0  0  0  0  0  0  0
   39.8144   32.4031   44.6824 C   0  0  0  0  0  0  0  0  0  0  0  0
   40.0552   33.5507   45.1639 O   0  0  0  0  0  0  0  0  0  0  0  0
   39.2348   31.3121   45.3815 N   0  0  0  0  0  0  0  0  0  0  0  0
   38.1686   28.2042   51.3245 C   0  0  0  0  0  0  0  0  0  0  0  0
   38.6974   27.3331   52.7904 S   0  0  0  0  0  0  0  0  0  0  0  0
   40.3648   25.1059   53.3968 C   0  0  0  0  0  0  0  0  0  0  0  0
   39.8121   25.9956   52.4755 C   0  0  0  0  0  0  0  0  0  0  0  0
   40.1925   25.7976   51.1391 C   0  0  0  0  0  0  0  0  0  0  0  0
   41.0383   24.8179   50.7337 C   0  0  0  0  0  0  0  0  0  0  0  0
   41.5572   24.4028   49.6002 N   0  0  0  0  0  0  0  0  0  0  0  0
   42.3836   23.3295   49.7552 C   0  0  0  0  0  0  0  0  0  0  0  0
   42.3791   23.0509   51.1074 C   0  0  0  0  0  0  0  0  0  0  0  0
   41.5487   23.9747   51.6868 C   0  0  0  0  0  0  0  0  0  0  0  0
   41.2306   24.0949   53.0199 C   0  0  0  0  0  0  0  0  0  0  0  0
   37.0375   29.3131   52.7021 H   0  0  0  0  0  0  0  0  0  0  0  0
   36.1648   28.8601   51.2583 H   0  0  0  0  0  0  0  0  0  0  0  0
   38.4936   30.8685   51.3151 H   0  0  0  0  0  0  0  0  0  0  0  0
   36.7732   31.3288   51.2731 H   0  0  0  0  0  0  0  0  0  0  0  0
   38.1858   32.6295   50.3484 H   0  0  0  0  0  0  0  0  0  0  0  0
   39.2424   34.1558   48.8367 H   0  0  0  0  0  0  0  0  0  0  0  0
   40.0770   32.2405   43.6356 H   0  0  0  0  0  0  0  0  0  0  0  0
   39.0313   30.3632   44.9978 H   0  0  0  0  0  0  0  0  0  0  0  0
   39.0618   28.6719   50.8599 H   0  0  0  0  0  0  0  0  0  0  0  0
   37.8163   27.4407   50.5713 H   0  0  0  0  0  0  0  0  0  0  0  0
   40.0528   25.2865   54.4054 H   0  0  0  0  0  0  0  0  0  0  0  0
   39.8060   26.4491   50.3560 H   0  0  0  0  0  0  0  0  0  0  0  0
   41.3804   24.8259   48.6466 H   0  0  0  0  0  0  0  0  0  0  0  0
   42.9161   22.8278   48.9516 H   0  0  0  0  0  0  0  0  0  0  0  0
   42.9407   22.2469   51.5671 H   0  0  0  0  0  0  0  0  0  0  0  0
   41.4186   21.5877   52.3011 O   0  0  0  0  0  0  0  0  0  0  0  0
   41.3322   21.7737   53.6619 C   0  0  2  0  0  0  0  0  0  0  0  0
   41.7825   23.1847   54.0432 C   0  0  2  0  0  0  0  0  0  0  0  0
   41.3727   23.4538   55.4408 C   0  0  2  0  0  0  0  0  0  0  0  0
   40.2738   23.4864   55.5905 H   0  0  0  0  0  0  0  0  0  0  0  0
   41.8459   22.4593   56.2516 O   0  0  0  0  0  0  0  0  0  0  0  0
   42.7088   21.5600   55.6883 C   0  0  1  0  0  0  0  0  0  0  0  0
   43.7522   21.9663   55.5483 H   0  0  0  0  0  0  0  0  0  0  0  0
   42.2255   20.8567   54.4643 C   0  0  1  0  0  0  0  0  0  0  0  0
   41.5465   19.6858   54.6964 O   0  0  0  0  0  0  0  0  0  0  0  0
   41.8160   20.7018   52.1060 H   0  0  0  0  0  0  0  0  0  0  0  0
   40.2780   21.6983   53.9935 H   0  0  0  0  0  0  0  0  0  0  0  0
   42.8844   23.2798   53.9778 H   0  0  0  0  0  0  0  0  0  0  0  0
   41.8623   24.4006   55.7677 H   0  0  0  0  0  0  0  0  0  0  0  0
   42.8592   20.7560   56.4665 H   0  0  0  0  0  0  0  0  0  0  0  0
   43.1243   20.6822   53.8039 H   0  0  0  0  0  0  0  0  0  0  0  0
   41.0168   19.4973   53.8778 H   0  0  0  0  0  0  0  0  0  0  0  0
  2  1  1  0
  3  2  1  0
  4  5  2  0
  4  3  1  0
  6  5  1  0
  7  6  2  0
  8  7  1  0
  8  9  2  0
  9  4  1  0
 10 11  2  0
 10 12  1  0
 12  8  1  0
 13  1  1  0
 13 14  1  0
 16 14  1  0
 16 15  2  0
 17 16  1  0
 18 17  2  0
 18 22  1  0
 19 20  1  0
 19 18  1  0
 20 21  2  0
 21 22  1  0
 22 23  2  0
 23 15  1  0
  1 24  1  0
  1 25  1  0
  2 26  1  0
  2 27  1  0
  5 28  1  0
  6 29  1  0
 10 30  1  0
 12 31  1  0
 13 32  1  0
 13 33  1  0
 15 34  1  0
 17 35  1  0
 19 36  1  0
 20 37  1  0
 21 38  1  0
 39 40  1  0
 40 41  1  0
 41 42  1  0
 42 43  1  6
 42 44  1  0
 44 45  1  0
 45 46  1  6
 45 47  1  0
 47 48  1  0
 47 40  1  0
 39 49  1  0
 40 50  1  1
 41 51  1  1
 42 52  1  0
 45 53  1  0
 47 54  1  6
 48 55  1  0
 23 41  1  0
M  ISO  8  24   8  25   8  26   8  27   8  28  14  29  14  30   6  32   8
M  ISO  8  33   8  34  14  35  14  36   9  37  14  38  14  43   8  46   8
M  END
>  <DihAtoms>  (1) 
21,22,40,39

>  <DihDeg>  (1) 
-89.9959386678388

$$$$
