
 OpenBabel03272506103D

 47 50  0  0  1  0  0  0  0  0999 V2000
   37.7590   25.6060   31.1310 C   0  0  0  0  0  0  0  0  0  0  0  0
   37.5550   26.1860   30.2070 H   0  0  0  0  0  0  0  0  0  0  0  0
   38.6580   26.1000   31.5760 H   0  0  0  0  0  0  0  0  0  0  0  0
   38.0850   24.1740   30.7790 C   0  0  0  0  0  0  0  0  0  0  0  0
   39.2190   23.8890   29.9390 C   0  0  0  0  0  0  0  0  0  0  0  0
   39.1430   22.1260   29.8490 S   0  0  0  0  0  0  0  0  0  0  0  0
   37.6080   21.9900   30.9430 C   0  0  0  0  0  0  0  0  0  0  0  0
   37.4150   23.1410   31.1770 N   0  0  0  0  0  0  0  0  0  0  0  0
   36.8580   20.8340   31.3880 N   0  0  0  0  0  0  0  0  0  0  0  0
   37.5970   19.6210   31.5560 C   0  0  0  0  0  0  0  0  0  0  0  0
   36.7560   18.3900   31.6120 C   0  0  0  0  0  0  0  0  0  0  0  0
   35.3430   18.6360   31.3070 N   0  0  0  0  0  0  0  0  0  0  0  0
   34.9280   19.6910   32.2140 C   0  0  0  0  0  0  0  0  0  0  0  0
   35.4450   20.9760   31.6280 C   0  0  0  0  0  0  0  0  0  0  0  0
   39.8850   24.5840   29.5160 H   0  0  0  0  0  0  0  0  0  0  0  0
   38.2650   19.6760   32.4630 H   0  0  0  0  0  0  0  0  0  0  0  0
   38.2900   19.5160   30.6950 H   0  0  0  0  0  0  0  0  0  0  0  0
   36.7620   17.9590   32.6550 H   0  0  0  0  0  0  0  0  0  0  0  0
   37.1020   17.5640   30.9580 H   0  0  0  0  0  0  0  0  0  0  0  0
   34.8460   17.7640   31.6420 H   0  0  0  0  0  0  0  0  0  0  0  0
   33.8140   19.7720   32.2360 H   0  0  0  0  0  0  0  0  0  0  0  0
   35.3410   19.5690   33.2380 H   0  0  0  0  0  0  0  0  0  0  0  0
   35.2830   21.7780   32.3780 H   0  0  0  0  0  0  0  0  0  0  0  0
   34.8710   21.1780   30.7020 H   0  0  0  0  0  0  0  0  0  0  0  0
   36.6530   25.6830   32.1080 C   0  0  0  0  0  0  0  0  0  0  0  0
   35.9370   26.4890   31.7840 H   0  0  0  0  0  0  0  0  0  0  0  0
   36.1040   24.7300   32.2060 H   0  0  0  0  0  0  0  0  0  0  0  0
   37.5060   27.7690   35.0520 C   0  0  0  0  0  0  0  0  0  0  0  0
   38.1400   26.8760   35.9010 C   0  0  0  0  0  0  0  0  0  0  0  0
   38.2680   25.5610   35.4500 C   0  0  0  0  0  0  0  0  0  0  0  0
   37.7880   25.2060   34.2390 N   0  0  0  0  0  0  0  0  0  0  0  0
   37.1720   26.1390   33.4520 C   0  0  0  0  0  0  0  0  0  0  0  0
   37.0370   27.4030   33.8620 N   0  0  0  0  0  0  0  0  0  0  0  0
   37.4090   28.7990   35.4130 H   0  0  0  0  0  0  0  0  0  0  0  0
   38.5450   27.0840   36.8700 H   0  0  0  0  0  0  0  0  0  0  0  0
   38.1460   24.1270   37.4910 C   0  0  2  0  0  3  0  0  0  0  0  0
   38.9260   24.4990   36.2540 C   0  0  1  0  0  3  0  0  0  0  0  0
   39.1770   23.2310   35.4660 C   0  0  0  0  0  3  0  0  0  0  0  0
   38.3790   23.0170   34.7580 H   0  0  0  0  0  0  0  0  0  0  0  0
   39.4050   22.1860   36.3520 O   0  0  0  0  0  0  0  0  0  0  0  0
   40.0510   22.6050   37.5080 C   0  0  0  0  0  3  0  0  0  0  0  0
   40.3880   21.7210   38.0650 H   0  0  0  0  0  0  0  0  0  0  0  0
   39.1070   23.3790   38.4180 C   0  0  2  0  0  3  0  0  0  0  0  0
   37.0850   23.2970   37.2280 O   0  0  0  0  0  0  0  0  0  0  0  0
   37.0220   23.1070   36.2780 H   0  0  0  0  0  0  0  0  0  0  0  0
   38.3520   22.4690   39.1510 O   0  0  0  0  0  0  0  0  0  0  0  0
   37.4270   22.8210   39.2320 H   0  0  0  0  0  0  0  0  0  0  0  0
  1  3  1  0  0  0  0
  1 25  1  0  0  0  0
  2  1  1  0  0  0  0
  4  1  1  0  0  0  0
  4  8  1  0  0  0  0
  5  4  2  0  0  0  0
  6  5  1  0  0  0  0
  6  7  1  0  0  0  0
  7  8  2  0  0  0  0
  7  9  1  0  0  0  0
  9 10  1  0  0  0  0
  9 14  1  0  0  0  0
 10 11  1  0  0  0  0
 10 16  1  0  0  0  0
 11 18  1  0  0  0  0
 12 11  1  0  0  0  0
 12 20  1  0  0  0  0
 12 13  1  0  0  0  0
 13 21  1  0  0  0  0
 13 22  1  0  0  0  0
 14 13  1  0  0  0  0
 14 23  1  0  0  0  0
 15  5  1  0  0  0  0
 17 10  1  0  0  0  0
 19 11  1  0  0  0  0
 24 14  1  0  0  0  0
 25 27  1  0  0  0  0
 25 32  1  0  0  0  0
 26 25  1  0  0  0  0
 28 34  1  0  0  0  0
 28 29  1  0  0  0  0
 29 35  1  0  0  0  0
 30 29  2  0  0  0  0
 31 30  1  0  0  0  0
 32 33  1  0  0  0  0
 32 31  2  0  0  0  0
 33 28  2  0  0  0  0
 36 44  1  6  0  0  0
 36 43  1  0  0  0  0
 37 30  1  6  0  0  0
 37 36  1  0  0  0  0
 38 37  1  0  0  0  0
 38 40  1  0  0  0  0
 39 38  1  0  0  0  0
 40 41  1  0  0  0  0
 41 42  1  0  0  0  0
 41 43  1  0  0  0  0
 43 46  1  1  0  0  0
 45 44  1  0  0  0  0
 46 47  1  0  0  0  0
M  END
>  <minimizedAffinity>
-6.62209272

$$$$

 OpenBabel03272506103D

 47 50  0  0  1  0  0  0  0  0999 V2000
   36.6290   27.6990   33.6200 C   0  0  0  0  0  0  0  0  0  0  0  0
   37.2360   28.5210   34.0520 H   0  0  0  0  0  0  0  0  0  0  0  0
   35.6900   27.6980   34.2280 H   0  0  0  0  0  0  0  0  0  0  0  0
   37.3480   26.3820   33.7900 C   0  0  0  0  0  0  0  0  0  0  0  0
   37.6710   25.5930   32.6290 C   0  0  0  0  0  0  0  0  0  0  0  0
   38.4770   24.2070   33.3720 S   0  0  0  0  0  0  0  0  0  0  0  0
   38.2810   24.8530   35.1370 C   0  0  0  0  0  0  0  0  0  0  0  0
   37.7150   25.8770   34.9240 N   0  0  0  0  0  0  0  0  0  0  0  0
   38.6910   24.2870   36.4060 N   0  0  0  0  0  0  0  0  0  0  0  0
   39.8630   23.4700   36.3910 C   0  0  0  0  0  0  0  0  0  0  0  0
   40.0200   22.5950   37.5880 C   0  0  0  0  0  0  0  0  0  0  0  0
   38.8530   22.6070   38.4750 N   0  0  0  0  0  0  0  0  0  0  0  0
   38.6090   24.0060   38.7790 C   0  0  0  0  0  0  0  0  0  0  0  0
   37.9070   24.5790   37.5790 C   0  0  0  0  0  0  0  0  0  0  0  0
   37.4620   25.8270   31.6260 H   0  0  0  0  0  0  0  0  0  0  0  0
   40.7910   24.0940   36.2420 H   0  0  0  0  0  0  0  0  0  0  0  0
   39.8150   22.8110   35.4970 H   0  0  0  0  0  0  0  0  0  0  0  0
   40.8790   22.9540   38.2270 H   0  0  0  0  0  0  0  0  0  0  0  0
   40.2570   21.5350   37.3600 H   0  0  0  0  0  0  0  0  0  0  0  0
   39.2030   22.1790   39.3770 H   0  0  0  0  0  0  0  0  0  0  0  0
   37.9060   24.1030   39.6410 H   0  0  0  0  0  0  0  0  0  0  0  0
   39.5450   24.5780   38.9580 H   0  0  0  0  0  0  0  0  0  0  0  0
   37.8530   25.6800   37.7150 H   0  0  0  0  0  0  0  0  0  0  0  0
   36.8930   24.1340   37.5390 H   0  0  0  0  0  0  0  0  0  0  0  0
   36.2680   27.9380   32.2070 C   0  0  0  0  0  0  0  0  0  0  0  0
   37.1220   27.6060   31.5520 H   0  0  0  0  0  0  0  0  0  0  0  0
   35.3520   27.4000   31.9040 H   0  0  0  0  0  0  0  0  0  0  0  0
   36.0830   31.2340   30.5190 C   0  0  0  0  0  0  0  0  0  0  0  0
   35.8620   32.1140   31.5650 C   0  0  0  0  0  0  0  0  0  0  0  0
   35.7790   31.5630   32.8440 C   0  0  0  0  0  0  0  0  0  0  0  0
   35.9120   30.2320   33.0240 N   0  0  0  0  0  0  0  0  0  0  0  0
   36.1290   29.4190   31.9450 C   0  0  0  0  0  0  0  0  0  0  0  0
   36.2120   29.9230   30.7110 N   0  0  0  0  0  0  0  0  0  0  0  0
   36.1480   31.6720   29.5170 H   0  0  0  0  0  0  0  0  0  0  0  0
   35.7470   33.1770   31.5000 H   0  0  0  0  0  0  0  0  0  0  0  0
   35.2290   31.5620   35.2810 C   0  0  2  0  0  3  0  0  0  0  0  0
   35.5450   32.3880   34.0580 C   0  0  1  0  0  3  0  0  0  0  0  0
   36.7150   33.2870   34.3960 C   0  0  0  0  0  3  0  0  0  0  0  0
   37.6740   32.8180   34.1850 H   0  0  0  0  0  0  0  0  0  0  0  0
   36.5980   33.7040   35.7160 O   0  0  0  0  0  0  0  0  0  0  0  0
   35.2750   33.8560   36.1070 C   0  0  0  0  0  3  0  0  0  0  0  0
   35.2490   34.3790   37.0710 H   0  0  0  0  0  0  0  0  0  0  0  0
   34.6000   32.5060   36.3080 C   0  0  2  0  0  3  0  0  0  0  0  0
   36.3430   31.0010   35.8530 O   0  0  0  0  0  0  0  0  0  0  0  0
   37.1430   31.2330   35.3530 H   0  0  0  0  0  0  0  0  0  0  0  0
   34.9330   32.0270   37.5710 O   0  0  0  0  0  0  0  0  0  0  0  0
   35.0720   31.0460   37.5090 H   0  0  0  0  0  0  0  0  0  0  0  0
  1  4  1  0  0  0  0
  1  2  1  0  0  0  0
  1  3  1  0  0  0  0
  4  8  1  0  0  0  0
  5  6  1  0  0  0  0
  5  4  2  0  0  0  0
  6  7  1  0  0  0  0
  7  9  1  0  0  0  0
  8  7  2  0  0  0  0
  9 14  1  0  0  0  0
 10  9  1  0  0  0  0
 10 11  1  0  0  0  0
 11 18  1  0  0  0  0
 11 12  1  0  0  0  0
 12 13  1  0  0  0  0
 12 20  1  0  0  0  0
 13 22  1  0  0  0  0
 13 21  1  0  0  0  0
 14 23  1  0  0  0  0
 14 13  1  0  0  0  0
 15  5  1  0  0  0  0
 16 10  1  0  0  0  0
 17 10  1  0  0  0  0
 19 11  1  0  0  0  0
 24 14  1  0  0  0  0
 25  1  1  0  0  0  0
 26 25  1  0  0  0  0
 27 25  1  0  0  0  0
 28 33  2  0  0  0  0
 28 29  1  0  0  0  0
 29 30  2  0  0  0  0
 30 31  1  0  0  0  0
 32 25  1  0  0  0  0
 32 31  2  0  0  0  0
 33 32  1  0  0  0  0
 34 28  1  0  0  0  0
 35 29  1  0  0  0  0
 36 44  1  1  0  0  0
 36 43  1  0  0  0  0
 37 30  1  6  0  0  0
 37 38  1  0  0  0  0
 37 36  1  0  0  0  0
 38 40  1  0  0  0  0
 39 38  1  0  0  0  0
 40 41  1  0  0  0  0
 41 43  1  0  0  0  0
 41 42  1  0  0  0  0
 43 46  1  1  0  0  0
 45 44  1  0  0  0  0
 47 46  1  0  0  0  0
M  END
>  <minimizedAffinity>
-6.56045437

$$$$

 OpenBabel03272506103D

 47 50  0  0  1  0  0  0  0  0999 V2000
   36.4580   28.0450   32.2580 C   0  0  0  0  0  0  0  0  0  0  0  0
   37.2900   28.0040   31.5250 H   0  0  0  0  0  0  0  0  0  0  0  0
   35.6900   27.3450   31.8450 H   0  0  0  0  0  0  0  0  0  0  0  0
   35.8930   29.4440   32.3200 C   0  0  0  0  0  0  0  0  0  0  0  0
   35.6720   30.1760   31.1000 C   0  0  0  0  0  0  0  0  0  0  0  0
   35.0260   31.6970   31.7270 S   0  0  0  0  0  0  0  0  0  0  0  0
   35.1320   31.1650   33.5370 C   0  0  0  0  0  0  0  0  0  0  0  0
   35.5780   30.0700   33.4080 N   0  0  0  0  0  0  0  0  0  0  0  0
   34.7800   31.8660   34.7550 N   0  0  0  0  0  0  0  0  0  0  0  0
   33.7090   32.8090   34.6610 C   0  0  0  0  0  0  0  0  0  0  0  0
   33.6440   33.7820   35.7890 C   0  0  0  0  0  0  0  0  0  0  0  0
   34.7960   33.7030   36.6940 N   0  0  0  0  0  0  0  0  0  0  0  0
   34.8750   32.3120   37.1020 C   0  0  0  0  0  0  0  0  0  0  0  0
   35.5160   31.5740   35.9580 C   0  0  0  0  0  0  0  0  0  0  0  0
   35.8610   29.8470   30.1200 H   0  0  0  0  0  0  0  0  0  0  0  0
   32.7170   32.2850   34.5430 H   0  0  0  0  0  0  0  0  0  0  0  0
   33.8400   33.3890   33.7230 H   0  0  0  0  0  0  0  0  0  0  0  0
   32.7450   33.5720   36.4380 H   0  0  0  0  0  0  0  0  0  0  0  0
   33.5330   34.8420   35.4800 H   0  0  0  0  0  0  0  0  0  0  0  0
   34.4900   34.2340   37.5560 H   0  0  0  0  0  0  0  0  0  0  0  0
   35.5550   32.1990   37.9800 H   0  0  0  0  0  0  0  0  0  0  0  0
   33.8780   31.8650   37.3070 H   0  0  0  0  0  0  0  0  0  0  0  0
   35.4420   30.4880   36.1740 H   0  0  0  0  0  0  0  0  0  0  0  0
   36.5750   31.8970   35.9020 H   0  0  0  0  0  0  0  0  0  0  0  0
   36.8540   27.5640   33.5970 C   0  0  0  0  0  0  0  0  0  0  0  0
   37.8060   28.0810   33.9030 H   0  0  0  0  0  0  0  0  0  0  0  0
   36.0810   27.7500   34.3640 H   0  0  0  0  0  0  0  0  0  0  0  0
   37.2270   24.0490   32.4750 C   0  0  0  0  0  0  0  0  0  0  0  0
   37.8920   23.4480   33.5310 C   0  0  0  0  0  0  0  0  0  0  0  0
   38.2060   24.2600   34.6220 C   0  0  0  0  0  0  0  0  0  0  0  0
   37.8650   25.5660   34.6200 N   0  0  0  0  0  0  0  0  0  0  0  0
   37.2090   26.0960   33.5430 C   0  0  0  0  0  0  0  0  0  0  0  0
   36.8980   25.3390   32.4880 N   0  0  0  0  0  0  0  0  0  0  0  0
   36.9830   23.4060   31.6230 H   0  0  0  0  0  0  0  0  0  0  0  0
   38.1930   22.4230   33.6040 H   0  0  0  0  0  0  0  0  0  0  0  0
   37.9900   23.4680   36.9800 C   0  0  2  0  0  3  0  0  0  0  0  0
   38.9170   23.7490   35.8230 C   0  0  1  0  0  3  0  0  0  0  0  0
   39.7110   22.4910   35.5490 C   0  0  0  0  0  3  0  0  0  0  0  0
   39.2140   21.8310   34.8410 H   0  0  0  0  0  0  0  0  0  0  0  0
   39.9990   21.8670   36.7560 O   0  0  0  0  0  0  0  0  0  0  0  0
   40.1840   22.7750   37.7900 C   0  0  0  0  0  3  0  0  0  0  0  0
   40.6080   22.2460   38.6530 H   0  0  0  0  0  0  0  0  0  0  0  0
   38.8600   23.3790   38.2370 C   0  0  2  0  0  3  0  0  0  0  0  0
   37.3150   22.2810   36.8520 O   0  0  0  0  0  0  0  0  0  0  0  0
   37.5510   21.8370   36.0220 H   0  0  0  0  0  0  0  0  0  0  0  0
   38.2380   22.4900   39.1090 O   0  0  0  0  0  0  0  0  0  0  0  0
   37.2620   22.5020   38.9270 H   0  0  0  0  0  0  0  0  0  0  0  0
  1  4  1  0  0  0  0
  1 25  1  0  0  0  0
  2  1  1  0  0  0  0
  3  1  1  0  0  0  0
  4  8  1  0  0  0  0
  5  6  1  0  0  0  0
  5  4  2  0  0  0  0
  6  7  1  0  0  0  0
  7  9  1  0  0  0  0
  8  7  2  0  0  0  0
  9 14  1  0  0  0  0
 10  9  1  0  0  0  0
 10 11  1  0  0  0  0
 11 18  1  0  0  0  0
 11 12  1  0  0  0  0
 12 13  1  0  0  0  0
 12 20  1  0  0  0  0
 13 22  1  0  0  0  0
 13 21  1  0  0  0  0
 14 23  1  0  0  0  0
 14 13  1  0  0  0  0
 15  5  1  0  0  0  0
 16 10  1  0  0  0  0
 17 10  1  0  0  0  0
 19 11  1  0  0  0  0
 24 14  1  0  0  0  0
 25 26  1  0  0  0  0
 25 27  1  0  0  0  0
 28 33  2  0  0  0  0
 28 29  1  0  0  0  0
 29 35  1  0  0  0  0
 29 30  2  0  0  0  0
 31 30  1  0  0  0  0
 32 25  1  0  0  0  0
 32 31  2  0  0  0  0
 33 32  1  0  0  0  0
 34 28  1  0  0  0  0
 36 44  1  6  0  0  0
 36 43  1  0  0  0  0
 37 30  1  6  0  0  0
 37 36  1  0  0  0  0
 38 37  1  0  0  0  0
 38 40  1  0  0  0  0
 39 38  1  0  0  0  0
 40 41  1  0  0  0  0
 41 43  1  0  0  0  0
 41 42  1  0  0  0  0
 43 46  1  1  0  0  0
 45 44  1  0  0  0  0
 47 46  1  0  0  0  0
M  END
>  <minimizedAffinity>
-6.52305174

$$$$

 OpenBabel03272506103D

 47 50  0  0  1  0  0  0  0  0999 V2000
   36.7050   28.1030   32.1210 C   0  0  0  0  0  0  0  0  0  0  0  0
   37.6090   28.5800   31.6910 H   0  0  0  0  0  0  0  0  0  0  0  0
   36.4970   27.2390   31.4410 H   0  0  0  0  0  0  0  0  0  0  0  0
   35.5460   29.0700   32.0880 C   0  0  0  0  0  0  0  0  0  0  0  0
   35.5270   30.1240   31.1070 C   0  0  0  0  0  0  0  0  0  0  0  0
   34.0050   30.9310   31.5010 S   0  0  0  0  0  0  0  0  0  0  0  0
   33.5850   29.7620   32.9250 C   0  0  0  0  0  0  0  0  0  0  0  0
   34.5300   29.0400   32.8900 N   0  0  0  0  0  0  0  0  0  0  0  0
   32.4490   29.7280   33.8230 N   0  0  0  0  0  0  0  0  0  0  0  0
   31.2080   30.2060   33.2970 C   0  0  0  0  0  0  0  0  0  0  0  0
   30.1870   30.5360   34.3330 C   0  0  0  0  0  0  0  0  0  0  0  0
   30.7060   30.4770   35.7030 N   0  0  0  0  0  0  0  0  0  0  0  0
   31.2970   29.1570   35.8380 C   0  0  0  0  0  0  0  0  0  0  0  0
   32.6370   29.2260   35.1590 C   0  0  0  0  0  0  0  0  0  0  0  0
   36.2530   30.3180   30.3710 H   0  0  0  0  0  0  0  0  0  0  0  0
   30.7790   29.4810   32.5480 H   0  0  0  0  0  0  0  0  0  0  0  0
   31.4100   31.1320   32.7180 H   0  0  0  0  0  0  0  0  0  0  0  0
   29.3430   29.7860   34.3050 H   0  0  0  0  0  0  0  0  0  0  0  0
   29.6970   31.5230   34.2020 H   0  0  0  0  0  0  0  0  0  0  0  0
   29.8410   30.4630   36.3120 H   0  0  0  0  0  0  0  0  0  0  0  0
   31.4910   28.9230   36.9130 H   0  0  0  0  0  0  0  0  0  0  0  0
   30.6890   28.3600   35.3580 H   0  0  0  0  0  0  0  0  0  0  0  0
   33.0410   28.1930   35.1050 H   0  0  0  0  0  0  0  0  0  0  0  0
   33.2920   29.8760   35.7730 H   0  0  0  0  0  0  0  0  0  0  0  0
   36.9310   27.5790   33.4840 C   0  0  0  0  0  0  0  0  0  0  0  0
   37.8580   28.0560   33.9080 H   0  0  0  0  0  0  0  0  0  0  0  0
   36.0820   27.7750   34.1630 H   0  0  0  0  0  0  0  0  0  0  0  0
   37.1730   24.0470   32.3810 C   0  0  0  0  0  0  0  0  0  0  0  0
   37.8470   23.4340   33.4240 C   0  0  0  0  0  0  0  0  0  0  0  0
   38.2120   24.2450   34.5000 C   0  0  0  0  0  0  0  0  0  0  0  0
   37.9090   25.5600   34.4970 N   0  0  0  0  0  0  0  0  0  0  0  0
   37.2410   26.1010   33.4320 C   0  0  0  0  0  0  0  0  0  0  0  0
   36.8820   25.3460   32.3910 N   0  0  0  0  0  0  0  0  0  0  0  0
   36.8900   23.4050   31.5390 H   0  0  0  0  0  0  0  0  0  0  0  0
   38.1200   22.4010   33.4970 H   0  0  0  0  0  0  0  0  0  0  0  0
   38.0340   23.4830   36.8720 C   0  0  2  0  0  3  0  0  0  0  0  0
   38.9380   23.7220   35.6870 C   0  0  1  0  0  3  0  0  0  0  0  0
   39.6830   22.4360   35.4050 C   0  0  0  0  0  3  0  0  0  0  0  0
   39.1450   21.7860   34.7170 H   0  0  0  0  0  0  0  0  0  0  0  0
   39.9820   21.8140   36.6110 O   0  0  0  0  0  0  0  0  0  0  0  0
   40.2250   22.7250   37.6290 C   0  0  0  0  0  3  0  0  0  0  0  0
   40.6550   22.1910   38.4860 H   0  0  0  0  0  0  0  0  0  0  0  0
   38.9340   23.3760   38.1060 C   0  0  2  0  0  3  0  0  0  0  0  0
   37.3170   22.3170   36.7740 O   0  0  0  0  0  0  0  0  0  0  0  0
   37.5160   21.8580   35.9420 H   0  0  0  0  0  0  0  0  0  0  0  0
   38.3070   22.5170   39.0030 O   0  0  0  0  0  0  0  0  0  0  0  0
   37.3280   22.5590   38.8470 H   0  0  0  0  0  0  0  0  0  0  0  0
  1 25  1  0  0  0  0
  2  1  1  0  0  0  0
  3  1  1  0  0  0  0
  4  1  1  0  0  0  0
  4  8  1  0  0  0  0
  5  6  1  0  0  0  0
  5  4  2  0  0  0  0
  6  7  1  0  0  0  0
  7  9  1  0  0  0  0
  8  7  2  0  0  0  0
  9 14  1  0  0  0  0
 10  9  1  0  0  0  0
 10 11  1  0  0  0  0
 11 12  1  0  0  0  0
 12 13  1  0  0  0  0
 12 20  1  0  0  0  0
 13 21  1  0  0  0  0
 14 24  1  0  0  0  0
 14 13  1  0  0  0  0
 15  5  1  0  0  0  0
 16 10  1  0  0  0  0
 17 10  1  0  0  0  0
 18 11  1  0  0  0  0
 19 11  1  0  0  0  0
 22 13  1  0  0  0  0
 23 14  1  0  0  0  0
 25 26  1  0  0  0  0
 25 27  1  0  0  0  0
 28 33  2  0  0  0  0
 28 29  1  0  0  0  0
 29 35  1  0  0  0  0
 29 30  2  0  0  0  0
 31 30  1  0  0  0  0
 32 25  1  0  0  0  0
 32 31  2  0  0  0  0
 33 32  1  0  0  0  0
 34 28  1  0  0  0  0
 36 44  1  6  0  0  0
 36 43  1  0  0  0  0
 37 30  1  6  0  0  0
 37 36  1  0  0  0  0
 38 37  1  0  0  0  0
 38 40  1  0  0  0  0
 39 38  1  0  0  0  0
 40 41  1  0  0  0  0
 41 43  1  0  0  0  0
 41 42  1  0  0  0  0
 43 46  1  1  0  0  0
 45 44  1  0  0  0  0
 47 46  1  0  0  0  0
M  END
>  <minimizedAffinity>
-6.49237299

$$$$

 OpenBabel03272506103D

 47 50  0  0  1  0  0  0  0  0999 V2000
   35.8670   28.1410   32.7770 C   0  0  0  0  0  0  0  0  0  0  0  0
   35.5060   27.2810   32.1760 H   0  0  0  0  0  0  0  0  0  0  0  0
   34.9640   28.4830   33.3420 H   0  0  0  0  0  0  0  0  0  0  0  0
   36.3450   29.2440   31.8630 C   0  0  0  0  0  0  0  0  0  0  0  0
   35.8750   30.5900   32.0660 C   0  0  0  0  0  0  0  0  0  0  0  0
   36.7170   31.4440   30.7680 S   0  0  0  0  0  0  0  0  0  0  0  0
   37.5890   29.9000   30.1170 C   0  0  0  0  0  0  0  0  0  0  0  0
   37.1680   29.0860   30.8760 N   0  0  0  0  0  0  0  0  0  0  0  0
   38.5100   29.7230   29.0130 N   0  0  0  0  0  0  0  0  0  0  0  0
   39.3480   30.8370   28.6990 C   0  0  0  0  0  0  0  0  0  0  0  0
   39.9710   30.7770   27.3450 C   0  0  0  0  0  0  0  0  0  0  0  0
   39.4680   29.6730   26.5210 N   0  0  0  0  0  0  0  0  0  0  0  0
   39.6490   28.4760   27.3220 C   0  0  0  0  0  0  0  0  0  0  0  0
   38.5220   28.4620   28.3180 C   0  0  0  0  0  0  0  0  0  0  0  0
   35.2080   30.9230   32.8070 H   0  0  0  0  0  0  0  0  0  0  0  0
   40.1430   30.9810   29.4850 H   0  0  0  0  0  0  0  0  0  0  0  0
   38.7310   31.7590   28.7430 H   0  0  0  0  0  0  0  0  0  0  0  0
   41.0820   30.5960   27.4320 H   0  0  0  0  0  0  0  0  0  0  0  0
   39.8780   31.7090   26.7500 H   0  0  0  0  0  0  0  0  0  0  0  0
   40.1670   29.5930   25.7310 H   0  0  0  0  0  0  0  0  0  0  0  0
   39.5340   27.5610   26.6920 H   0  0  0  0  0  0  0  0  0  0  0  0
   40.6160   28.4650   27.8700 H   0  0  0  0  0  0  0  0  0  0  0  0
   38.7250   27.6480   29.0450 H   0  0  0  0  0  0  0  0  0  0  0  0
   37.5840   28.2700   27.7600 H   0  0  0  0  0  0  0  0  0  0  0  0
   36.9080   27.7580   33.7520 C   0  0  0  0  0  0  0  0  0  0  0  0
   37.8630   28.2970   33.4950 H   0  0  0  0  0  0  0  0  0  0  0  0
   36.6280   27.9990   34.7920 H   0  0  0  0  0  0  0  0  0  0  0  0
   37.2100   24.3020   32.4410 C   0  0  0  0  0  0  0  0  0  0  0  0
   37.8840   23.6370   33.4530 C   0  0  0  0  0  0  0  0  0  0  0  0
   38.2280   24.3870   34.5780 C   0  0  0  0  0  0  0  0  0  0  0  0
   37.9070   25.6960   34.6510 N   0  0  0  0  0  0  0  0  0  0  0  0
   37.2400   26.2900   33.6150 C   0  0  0  0  0  0  0  0  0  0  0  0
   36.9000   25.5940   32.5270 N   0  0  0  0  0  0  0  0  0  0  0  0
   36.9430   23.7080   31.5610 H   0  0  0  0  0  0  0  0  0  0  0  0
   38.1710   22.6060   33.4660 H   0  0  0  0  0  0  0  0  0  0  0  0
   38.0550   23.5530   36.9260 C   0  0  2  0  0  3  0  0  0  0  0  0
   38.9510   23.8040   35.7390 C   0  0  1  0  0  3  0  0  0  0  0  0
   39.6540   22.5060   35.4060 C   0  0  0  0  0  3  0  0  0  0  0  0
   39.0890   21.8960   34.7040 H   0  0  0  0  0  0  0  0  0  0  0  0
   39.9480   21.8360   36.5860 O   0  0  0  0  0  0  0  0  0  0  0  0
   40.2300   22.7060   37.6310 C   0  0  0  0  0  3  0  0  0  0  0  0
   40.6540   22.1310   38.4650 H   0  0  0  0  0  0  0  0  0  0  0  0
   38.9650   23.3800   38.1450 C   0  0  2  0  0  3  0  0  0  0  0  0
   37.3010   22.4140   36.8000 O   0  0  0  0  0  0  0  0  0  0  0  0
   37.4760   21.9760   35.9510 H   0  0  0  0  0  0  0  0  0  0  0  0
   38.3230   22.5110   39.0210 O   0  0  0  0  0  0  0  0  0  0  0  0
   37.3440   22.5870   38.8790 H   0  0  0  0  0  0  0  0  0  0  0  0
  1  3  1  0  0  0  0
  1 25  1  0  0  0  0
  2  1  1  0  0  0  0
  4  5  2  0  0  0  0
  4  1  1  0  0  0  0
  5 15  1  0  0  0  0
  6  5  1  0  0  0  0
  7  6  1  0  0  0  0
  7  8  2  0  0  0  0
  8  4  1  0  0  0  0
  9  7  1  0  0  0  0
 10 17  1  0  0  0  0
 10  9  1  0  0  0  0
 10 16  1  0  0  0  0
 11 18  1  0  0  0  0
 11 10  1  0  0  0  0
 12 13  1  0  0  0  0
 12 11  1  0  0  0  0
 13 22  1  0  0  0  0
 13 14  1  0  0  0  0
 14  9  1  0  0  0  0
 14 23  1  0  0  0  0
 19 11  1  0  0  0  0
 20 12  1  0  0  0  0
 21 13  1  0  0  0  0
 24 14  1  0  0  0  0
 25 27  1  0  0  0  0
 26 25  1  0  0  0  0
 28 33  2  0  0  0  0
 28 29  1  0  0  0  0
 29 35  1  0  0  0  0
 29 30  2  0  0  0  0
 30 31  1  0  0  0  0
 32 25  1  0  0  0  0
 32 31  2  0  0  0  0
 33 32  1  0  0  0  0
 34 28  1  0  0  0  0
 36 44  1  6  0  0  0
 36 43  1  0  0  0  0
 37 30  1  6  0  0  0
 37 36  1  0  0  0  0
 38 37  1  0  0  0  0
 38 40  1  0  0  0  0
 39 38  1  0  0  0  0
 40 41  1  0  0  0  0
 41 43  1  0  0  0  0
 41 42  1  0  0  0  0
 43 46  1  1  0  0  0
 45 44  1  0  0  0  0
 47 46  1  0  0  0  0
M  END
>  <minimizedAffinity>
-6.26221418

$$$$

 OpenBabel03272506103D

 47 50  0  0  1  0  0  0  0  0999 V2000
   39.4680   26.3750   31.9030 C   0  0  0  0  0  0  0  0  0  0  0  0
   40.5180   26.7170   31.7930 H   0  0  0  0  0  0  0  0  0  0  0  0
   38.8670   27.1480   31.3630 H   0  0  0  0  0  0  0  0  0  0  0  0
   39.0820   26.3560   33.3630 C   0  0  0  0  0  0  0  0  0  0  0  0
   38.4940   27.5280   33.9580 C   0  0  0  0  0  0  0  0  0  0  0  0
   38.2480   26.9800   35.6200 S   0  0  0  0  0  0  0  0  0  0  0  0
   38.9610   25.2570   35.3130 C   0  0  0  0  0  0  0  0  0  0  0  0
   39.2390   25.3480   34.1600 N   0  0  0  0  0  0  0  0  0  0  0  0
   39.1360   24.1290   36.2040 N   0  0  0  0  0  0  0  0  0  0  0  0
   38.1860   24.0020   37.2650 C   0  0  0  0  0  0  0  0  0  0  0  0
   38.6170   23.1020   38.3730 C   0  0  0  0  0  0  0  0  0  0  0  0
   40.0090   22.6540   38.2520 N   0  0  0  0  0  0  0  0  0  0  0  0
   40.1150   22.0710   36.9270 C   0  0  0  0  0  0  0  0  0  0  0  0
   40.2330   23.2250   35.9690 C   0  0  0  0  0  0  0  0  0  0  0  0
   38.2850   28.4430   33.4840 H   0  0  0  0  0  0  0  0  0  0  0  0
   37.1800   23.6790   36.8720 H   0  0  0  0  0  0  0  0  0  0  0  0
   38.0140   25.0100   37.6990 H   0  0  0  0  0  0  0  0  0  0  0  0
   38.0020   22.1560   38.3720 H   0  0  0  0  0  0  0  0  0  0  0  0
   38.4890   23.5260   39.3910 H   0  0  0  0  0  0  0  0  0  0  0  0
   40.0820   21.8410   38.9250 H   0  0  0  0  0  0  0  0  0  0  0  0
   41.0570   21.4780   36.8340 H   0  0  0  0  0  0  0  0  0  0  0  0
   39.2280   21.4610   36.6500 H   0  0  0  0  0  0  0  0  0  0  0  0
   40.1530   22.8180   34.9390 H   0  0  0  0  0  0  0  0  0  0  0  0
   41.2210   23.6980   36.1330 H   0  0  0  0  0  0  0  0  0  0  0  0
   39.2260   25.0650   31.2640 C   0  0  0  0  0  0  0  0  0  0  0  0
   39.5410   25.1220   30.1850 H   0  0  0  0  0  0  0  0  0  0  0  0
   39.7730   24.2420   31.7570 H   0  0  0  0  0  0  0  0  0  0  0  0
   35.5450   25.4380   31.0100 C   0  0  0  0  0  0  0  0  0  0  0  0
   35.0840   24.1400   31.1560 C   0  0  0  0  0  0  0  0  0  0  0  0
   36.0470   23.1470   31.3410 C   0  0  0  0  0  0  0  0  0  0  0  0
   37.3580   23.4660   31.3720 N   0  0  0  0  0  0  0  0  0  0  0  0
   37.7450   24.7690   31.2210 C   0  0  0  0  0  0  0  0  0  0  0  0
   36.8420   25.7370   31.0420 N   0  0  0  0  0  0  0  0  0  0  0  0
   34.7850   26.2130   30.8650 H   0  0  0  0  0  0  0  0  0  0  0  0
   34.0640   23.8130   31.1420 H   0  0  0  0  0  0  0  0  0  0  0  0
   36.7690   20.7800   31.0070 C   0  0  2  0  0  3  0  0  0  0  0  0
   35.6960   21.7130   31.5120 C   0  0  1  0  0  3  0  0  0  0  0  0
   35.3990   21.3450   32.9490 C   0  0  0  0  0  3  0  0  0  0  0  0
   36.0330   21.8780   33.6540 H   0  0  0  0  0  0  0  0  0  0  0  0
   35.4810   19.9650   33.0880 O   0  0  0  0  0  0  0  0  0  0  0  0
   35.0760   19.2940   31.9420 C   0  0  0  0  0  3  0  0  0  0  0  0
   34.9630   18.2280   32.1780 H   0  0  0  0  0  0  0  0  0  0  0  0
   36.1210   19.4030   30.8400 C   0  0  2  0  0  3  0  0  0  0  0  0
   37.8190   20.6460   31.8800 O   0  0  0  0  0  0  0  0  0  0  0  0
   37.6830   21.1940   32.6710 H   0  0  0  0  0  0  0  0  0  0  0  0
   37.1080   18.4500   31.0680 O   0  0  0  0  0  0  0  0  0  0  0  0
   37.9890   18.8460   30.8360 H   0  0  0  0  0  0  0  0  0  0  0  0
  1  4  1  0  0  0  0
  2  1  1  0  0  0  0
  3  1  1  0  0  0  0
  4  5  2  0  0  0  0
  4  8  1  0  0  0  0
  5  6  1  0  0  0  0
  7  6  1  0  0  0  0
  7  9  1  0  0  0  0
  8  7  2  0  0  0  0
  9 10  1  0  0  0  0
 10 17  1  0  0  0  0
 10 11  1  0  0  0  0
 11 19  1  0  0  0  0
 12 11  1  0  0  0  0
 12 20  1  0  0  0  0
 13 12  1  0  0  0  0
 14 24  1  0  0  0  0
 14  9  1  0  0  0  0
 14 13  1  0  0  0  0
 15  5  1  0  0  0  0
 16 10  1  0  0  0  0
 18 11  1  0  0  0  0
 21 13  1  0  0  0  0
 22 13  1  0  0  0  0
 23 14  1  0  0  0  0
 25 27  1  0  0  0  0
 25  1  1  0  0  0  0
 26 25  1  0  0  0  0
 28 33  2  0  0  0  0
 28 29  1  0  0  0  0
 29 30  2  0  0  0  0
 30 31  1  0  0  0  0
 32 25  1  0  0  0  0
 32 31  2  0  0  0  0
 33 32  1  0  0  0  0
 34 28  1  0  0  0  0
 35 29  1  0  0  0  0
 36 37  1  0  0  0  0
 36 44  1  1  0  0  0
 37 30  1  1  0  0  0
 37 38  1  0  0  0  0
 38 40  1  0  0  0  0
 38 39  1  0  0  0  0
 41 42  1  0  0  0  0
 41 40  1  0  0  0  0
 43 36  1  0  0  0  0
 43 46  1  1  0  0  0
 43 41  1  0  0  0  0
 44 45  1  0  0  0  0
 47 46  1  0  0  0  0
M  END
>  <minimizedAffinity>
-6.14929819

$$$$

 OpenBabel03272506103D

 47 50  0  0  1  0  0  0  0  0999 V2000
   36.6500   27.8790   33.7810 C   0  0  0  0  0  0  0  0  0  0  0  0
   37.1910   28.6240   34.4010 H   0  0  0  0  0  0  0  0  0  0  0  0
   35.6250   27.8390   34.2270 H   0  0  0  0  0  0  0  0  0  0  0  0
   37.3130   26.5290   33.9010 C   0  0  0  0  0  0  0  0  0  0  0  0
   37.5550   25.7470   32.7160 C   0  0  0  0  0  0  0  0  0  0  0  0
   38.3220   24.3110   33.4050 S   0  0  0  0  0  0  0  0  0  0  0  0
   38.2220   24.9330   35.1860 C   0  0  0  0  0  0  0  0  0  0  0  0
   37.6970   25.9860   35.0120 N   0  0  0  0  0  0  0  0  0  0  0  0
   38.6520   24.3260   36.4290 N   0  0  0  0  0  0  0  0  0  0  0  0
   39.7830   23.4550   36.3550 C   0  0  0  0  0  0  0  0  0  0  0  0
   39.9440   22.5520   37.5310 C   0  0  0  0  0  0  0  0  0  0  0  0
   38.8110   22.6010   38.4620 N   0  0  0  0  0  0  0  0  0  0  0  0
   38.6450   24.0040   38.7980 C   0  0  0  0  0  0  0  0  0  0  0  0
   37.9270   24.6320   37.6350 C   0  0  0  0  0  0  0  0  0  0  0  0
   37.3190   26.0080   31.7250 H   0  0  0  0  0  0  0  0  0  0  0  0
   40.7330   24.0390   36.1820 H   0  0  0  0  0  0  0  0  0  0  0  0
   39.6710   22.8160   35.4540 H   0  0  0  0  0  0  0  0  0  0  0  0
   40.8410   22.8590   38.1430 H   0  0  0  0  0  0  0  0  0  0  0  0
   40.1220   21.4870   37.2760 H   0  0  0  0  0  0  0  0  0  0  0  0
   39.1750   22.1410   39.3430 H   0  0  0  0  0  0  0  0  0  0  0  0
   37.9800   24.1180   39.6880 H   0  0  0  0  0  0  0  0  0  0  0  0
   39.6130   24.5290   38.9510 H   0  0  0  0  0  0  0  0  0  0  0  0
   37.9290   25.7310   37.7920 H   0  0  0  0  0  0  0  0  0  0  0  0
   36.8920   24.2350   37.6260 H   0  0  0  0  0  0  0  0  0  0  0  0
   36.5270   28.2960   32.3690 C   0  0  0  0  0  0  0  0  0  0  0  0
   37.4280   28.9100   32.0900 H   0  0  0  0  0  0  0  0  0  0  0  0
   36.4470   27.4380   31.6770 H   0  0  0  0  0  0  0  0  0  0  0  0
   34.3210   31.0340   31.1920 C   0  0  0  0  0  0  0  0  0  0  0  0
   33.1770   30.8710   31.9560 C   0  0  0  0  0  0  0  0  0  0  0  0
   33.1770   29.8170   32.8710 C   0  0  0  0  0  0  0  0  0  0  0  0
   34.2540   29.0120   32.9850 N   0  0  0  0  0  0  0  0  0  0  0  0
   35.3510   29.2300   32.1980 C   0  0  0  0  0  0  0  0  0  0  0  0
   35.3750   30.2310   31.3140 N   0  0  0  0  0  0  0  0  0  0  0  0
   34.3150   31.8620   30.4750 H   0  0  0  0  0  0  0  0  0  0  0  0
   32.2880   31.4670   31.9220 H   0  0  0  0  0  0  0  0  0  0  0  0
   32.3110   29.7830   35.2130 C   0  0  2  0  0  3  0  0  0  0  0  0
   32.0190   29.5250   33.7560 C   0  0  1  0  0  3  0  0  0  0  0  0
   30.7790   30.3110   33.3860 C   0  0  0  0  0  3  0  0  0  0  0  0
   31.0120   31.3170   33.0420 H   0  0  0  0  0  0  0  0  0  0  0  0
   29.8990   30.2980   34.4610 O   0  0  0  0  0  0  0  0  0  0  0  0
   29.9660   29.1160   35.1850 C   0  0  0  0  0  3  0  0  0  0  0  0
   29.1170   29.0780   35.8800 H   0  0  0  0  0  0  0  0  0  0  0  0
   31.2360   29.0510   36.0210 C   0  0  2  0  0  3  0  0  0  0  0  0
   32.2540   31.1130   35.5460 O   0  0  0  0  0  0  0  0  0  0  0  0
   32.0440   31.6550   34.7690 H   0  0  0  0  0  0  0  0  0  0  0  0
   31.0340   29.7740   37.1930 O   0  0  0  0  0  0  0  0  0  0  0  0
   31.8730   30.2580   37.4130 H   0  0  0  0  0  0  0  0  0  0  0  0
  1  4  1  0  0  0  0
  1  3  1  0  0  0  0
  1  2  1  0  0  0  0
  4  8  1  0  0  0  0
  5  6  1  0  0  0  0
  5  4  2  0  0  0  0
  6  7  1  0  0  0  0
  7  9  1  0  0  0  0
  8  7  2  0  0  0  0
  9 14  1  0  0  0  0
 10  9  1  0  0  0  0
 10 11  1  0  0  0  0
 11 18  1  0  0  0  0
 11 12  1  0  0  0  0
 12 13  1  0  0  0  0
 12 20  1  0  0  0  0
 13 22  1  0  0  0  0
 13 21  1  0  0  0  0
 14 23  1  0  0  0  0
 14 13  1  0  0  0  0
 15  5  1  0  0  0  0
 16 10  1  0  0  0  0
 17 10  1  0  0  0  0
 19 11  1  0  0  0  0
 24 14  1  0  0  0  0
 25  1  1  0  0  0  0
 26 25  1  0  0  0  0
 27 25  1  0  0  0  0
 28 33  2  0  0  0  0
 28 29  1  0  0  0  0
 29 30  2  0  0  0  0
 30 31  1  0  0  0  0
 32 25  1  0  0  0  0
 32 31  2  0  0  0  0
 33 32  1  0  0  0  0
 34 28  1  0  0  0  0
 35 29  1  0  0  0  0
 36 44  1  6  0  0  0
 36 43  1  0  0  0  0
 37 30  1  6  0  0  0
 37 36  1  0  0  0  0
 38 37  1  0  0  0  0
 38 40  1  0  0  0  0
 39 38  1  0  0  0  0
 40 41  1  0  0  0  0
 41 42  1  0  0  0  0
 41 43  1  0  0  0  0
 43 46  1  1  0  0  0
 45 44  1  0  0  0  0
 46 47  1  0  0  0  0
M  END
>  <minimizedAffinity>
-6.13463736

$$$$

 OpenBabel03272506103D

 47 50  0  0  1  0  0  0  0  0999 V2000
   36.1660   28.3960   34.6770 C   0  0  0  0  0  0  0  0  0  0  0  0
   36.6810   29.0180   35.4370 H   0  0  0  0  0  0  0  0  0  0  0  0
   35.2310   28.0540   35.1850 H   0  0  0  0  0  0  0  0  0  0  0  0
   37.0200   27.2040   34.3200 C   0  0  0  0  0  0  0  0  0  0  0  0
   37.3300   26.9380   32.9390 C   0  0  0  0  0  0  0  0  0  0  0  0
   38.3190   25.4810   33.0850 S   0  0  0  0  0  0  0  0  0  0  0  0
   38.1950   25.4080   34.9690 C   0  0  0  0  0  0  0  0  0  0  0  0
   37.5180   26.3650   35.1720 N   0  0  0  0  0  0  0  0  0  0  0  0
   38.7520   24.4700   35.9220 N   0  0  0  0  0  0  0  0  0  0  0  0
   39.9930   23.8590   35.5630 C   0  0  0  0  0  0  0  0  0  0  0  0
   40.3240   22.6310   36.3440 C   0  0  0  0  0  0  0  0  0  0  0  0
   39.2300   22.1800   37.2100 N   0  0  0  0  0  0  0  0  0  0  0  0
   38.8760   23.3320   38.0210 C   0  0  0  0  0  0  0  0  0  0  0  0
   38.0330   24.2180   37.1450 C   0  0  0  0  0  0  0  0  0  0  0  0
   37.0240   27.4960   32.1020 H   0  0  0  0  0  0  0  0  0  0  0  0
   40.8420   24.5990   35.6270 H   0  0  0  0  0  0  0  0  0  0  0  0
   39.9420   23.5720   34.4920 H   0  0  0  0  0  0  0  0  0  0  0  0
   41.1890   22.8300   37.0410 H   0  0  0  0  0  0  0  0  0  0  0  0
   40.6440   21.7650   35.7290 H   0  0  0  0  0  0  0  0  0  0  0  0
   39.6870   21.4960   37.8760 H   0  0  0  0  0  0  0  0  0  0  0  0
   38.2340   23.0230   38.8810 H   0  0  0  0  0  0  0  0  0  0  0  0
   39.7630   23.9050   38.3680 H   0  0  0  0  0  0  0  0  0  0  0  0
   37.8840   25.1780   37.6820 H   0  0  0  0  0  0  0  0  0  0  0  0
   37.0670   23.7030   36.9760 H   0  0  0  0  0  0  0  0  0  0  0  0
   35.7860   29.1660   33.4740 C   0  0  0  0  0  0  0  0  0  0  0  0
   36.6020   29.9070   33.2430 H   0  0  0  0  0  0  0  0  0  0  0  0
   35.6220   28.5240   32.5910 H   0  0  0  0  0  0  0  0  0  0  0  0
   32.2970   30.4170   33.5900 C   0  0  0  0  0  0  0  0  0  0  0  0
   32.4060   31.5940   34.3130 C   0  0  0  0  0  0  0  0  0  0  0  0
   33.6830   31.9460   34.7540 C   0  0  0  0  0  0  0  0  0  0  0  0
   34.7420   31.1580   34.4740 N   0  0  0  0  0  0  0  0  0  0  0  0
   34.5640   30.0080   33.7550 C   0  0  0  0  0  0  0  0  0  0  0  0
   33.3520   29.6500   33.3230 N   0  0  0  0  0  0  0  0  0  0  0  0
   31.2930   30.1460   33.2480 H   0  0  0  0  0  0  0  0  0  0  0  0
   31.6150   32.2670   34.5720 H   0  0  0  0  0  0  0  0  0  0  0  0
   33.8220   32.9720   37.0270 C   0  0  2  0  0  3  0  0  0  0  0  0
   33.9470   33.1810   35.5380 C   0  0  1  0  0  3  0  0  0  0  0  0
   35.3140   33.7720   35.2660 C   0  0  0  0  0  3  0  0  0  0  0  0
   36.0720   33.0090   35.1060 H   0  0  0  0  0  0  0  0  0  0  0  0
   35.6390   34.6480   36.2940 O   0  0  0  0  0  0  0  0  0  0  0  0
   34.5240   35.2970   36.8080 C   0  0  0  0  0  3  0  0  0  0  0  0
   34.8600   36.1150   37.4580 H   0  0  0  0  0  0  0  0  0  0  0  0
   33.6840   34.3570   37.6630 C   0  0  2  0  0  3  0  0  0  0  0  0
   34.9210   32.3640   37.5790 O   0  0  0  0  0  0  0  0  0  0  0  0
   35.5840   32.1650   36.8980 H   0  0  0  0  0  0  0  0  0  0  0  0
   34.2490   34.2890   38.9320 O   0  0  0  0  0  0  0  0  0  0  0  0
   34.1760   33.3540   39.2590 H   0  0  0  0  0  0  0  0  0  0  0  0
  1  3  1  0  0  0  0
  1  2  1  0  0  0  0
  4  1  1  0  0  0  0
  4  8  1  0  0  0  0
  5  6  1  0  0  0  0
  5  4  2  0  0  0  0
  6  7  1  0  0  0  0
  7  8  2  0  0  0  0
  7  9  1  0  0  0  0
  9 14  1  0  0  0  0
 10 16  1  0  0  0  0
 10  9  1  0  0  0  0
 10 11  1  0  0  0  0
 11 18  1  0  0  0  0
 11 12  1  0  0  0  0
 12 20  1  0  0  0  0
 12 13  1  0  0  0  0
 13 22  1  0  0  0  0
 13 21  1  0  0  0  0
 14 23  1  0  0  0  0
 14 13  1  0  0  0  0
 15  5  1  0  0  0  0
 17 10  1  0  0  0  0
 19 11  1  0  0  0  0
 24 14  1  0  0  0  0
 25 32  1  0  0  0  0
 25  1  1  0  0  0  0
 26 25  1  0  0  0  0
 27 25  1  0  0  0  0
 28 29  1  0  0  0  0
 29 35  1  0  0  0  0
 29 30  2  0  0  0  0
 31 30  1  0  0  0  0
 32 31  2  0  0  0  0
 33 28  2  0  0  0  0
 33 32  1  0  0  0  0
 34 28  1  0  0  0  0
 36 44  1  1  0  0  0
 36 43  1  0  0  0  0
 37 30  1  6  0  0  0
 37 36  1  0  0  0  0
 38 37  1  0  0  0  0
 38 40  1  0  0  0  0
 39 38  1  0  0  0  0
 40 41  1  0  0  0  0
 41 42  1  0  0  0  0
 41 43  1  0  0  0  0
 43 46  1  1  0  0  0
 45 44  1  0  0  0  0
 46 47  1  0  0  0  0
M  END
>  <minimizedAffinity>
-6.1014657

$$$$

 OpenBabel03272506103D

 47 50  0  0  1  0  0  0  0  0999 V2000
   36.6470   26.4500   32.5910 C   0  0  0  0  0  0  0  0  0  0  0  0
   36.2090   26.9910   33.4550 H   0  0  0  0  0  0  0  0  0  0  0  0
   35.7610   26.0510   32.0360 H   0  0  0  0  0  0  0  0  0  0  0  0
   37.5030   25.3070   33.0780 C   0  0  0  0  0  0  0  0  0  0  0  0
   38.0820   24.3960   32.1250 C   0  0  0  0  0  0  0  0  0  0  0  0
   38.9540   23.2910   33.1940 S   0  0  0  0  0  0  0  0  0  0  0  0
   38.4370   24.1830   34.7780 C   0  0  0  0  0  0  0  0  0  0  0  0
   37.7750   25.0580   34.3190 N   0  0  0  0  0  0  0  0  0  0  0  0
   38.7410   23.9040   36.1660 N   0  0  0  0  0  0  0  0  0  0  0  0
   40.0020   23.2850   36.4310 C   0  0  0  0  0  0  0  0  0  0  0  0
   40.1090   22.6550   37.7780 C   0  0  0  0  0  0  0  0  0  0  0  0
   38.8400   22.6340   38.5130 N   0  0  0  0  0  0  0  0  0  0  0  0
   38.3760   24.0100   38.5260 C   0  0  0  0  0  0  0  0  0  0  0  0
   37.7740   24.2630   37.1710 C   0  0  0  0  0  0  0  0  0  0  0  0
   37.9820   24.4250   31.0790 H   0  0  0  0  0  0  0  0  0  0  0  0
   40.8510   24.0110   36.2740 H   0  0  0  0  0  0  0  0  0  0  0  0
   40.1630   22.4880   35.6730 H   0  0  0  0  0  0  0  0  0  0  0  0
   40.8180   23.2420   38.4310 H   0  0  0  0  0  0  0  0  0  0  0  0
   40.5120   21.6210   37.7750 H   0  0  0  0  0  0  0  0  0  0  0  0
   39.1180   22.4200   39.5120 H   0  0  0  0  0  0  0  0  0  0  0  0
   37.5550   24.1400   39.2730 H   0  0  0  0  0  0  0  0  0  0  0  0
   39.1950   24.7410   38.7000 H   0  0  0  0  0  0  0  0  0  0  0  0
   37.5580   25.3490   37.0960 H   0  0  0  0  0  0  0  0  0  0  0  0
   36.8420   23.6670   37.1020 H   0  0  0  0  0  0  0  0  0  0  0  0
   37.4010   27.3410   31.6850 C   0  0  0  0  0  0  0  0  0  0  0  0
   38.3760   27.6180   32.1750 H   0  0  0  0  0  0  0  0  0  0  0  0
   37.6080   26.8760   30.7050 H   0  0  0  0  0  0  0  0  0  0  0  0
   36.3330   30.6590   30.4200 C   0  0  0  0  0  0  0  0  0  0  0  0
   35.2860   30.9980   31.2630 C   0  0  0  0  0  0  0  0  0  0  0  0
   34.9580   30.0790   32.2600 C   0  0  0  0  0  0  0  0  0  0  0  0
   35.6460   28.9230   32.3750 N   0  0  0  0  0  0  0  0  0  0  0  0
   36.6680   28.6510   31.5090 C   0  0  0  0  0  0  0  0  0  0  0  0
   37.0010   29.5150   30.5450 N   0  0  0  0  0  0  0  0  0  0  0  0
   36.5850   31.3850   29.6390 H   0  0  0  0  0  0  0  0  0  0  0  0
   34.6990   31.8930   31.2330 H   0  0  0  0  0  0  0  0  0  0  0  0
   32.4980   29.9800   32.6760 C   0  0  2  0  0  3  0  0  0  0  0  0
   33.8600   30.3110   33.2340 C   0  0  1  0  0  3  0  0  0  0  0  0
   34.0360   29.5330   34.5200 C   0  0  0  0  0  3  0  0  0  0  0  0
   34.4700   28.5490   34.3550 H   0  0  0  0  0  0  0  0  0  0  0  0
   32.8180   29.4790   35.1860 O   0  0  0  0  0  0  0  0  0  0  0  0
   32.0560   30.6230   34.9870 C   0  0  0  0  0  3  0  0  0  0  0  0
   31.2150   30.6150   35.6930 H   0  0  0  0  0  0  0  0  0  0  0  0
   31.4670   30.6570   33.5840 C   0  0  2  0  0  3  0  0  0  0  0  0
   32.2320   28.6340   32.6700 O   0  0  0  0  0  0  0  0  0  0  0  0
   32.9850   28.1310   33.0200 H   0  0  0  0  0  0  0  0  0  0  0  0
   30.3190   29.8710   33.5650 O   0  0  0  0  0  0  0  0  0  0  0  0
   30.2840   29.3850   32.7000 H   0  0  0  0  0  0  0  0  0  0  0  0
  1  4  1  0  0  0  0
  1  2  1  0  0  0  0
  3  1  1  0  0  0  0
  4  8  1  0  0  0  0
  5  4  2  0  0  0  0
  5  6  1  0  0  0  0
  6  7  1  0  0  0  0
  7  9  1  0  0  0  0
  8  7  2  0  0  0  0
  9 10  1  0  0  0  0
  9 14  1  0  0  0  0
 10 11  1  0  0  0  0
 11 18  1  0  0  0  0
 11 12  1  0  0  0  0
 12 13  1  0  0  0  0
 12 20  1  0  0  0  0
 13 22  1  0  0  0  0
 13 21  1  0  0  0  0
 14 13  1  0  0  0  0
 15  5  1  0  0  0  0
 16 10  1  0  0  0  0
 17 10  1  0  0  0  0
 19 11  1  0  0  0  0
 23 14  1  0  0  0  0
 24 14  1  0  0  0  0
 25 26  1  0  0  0  0
 25  1  1  0  0  0  0
 27 25  1  0  0  0  0
 28 33  2  0  0  0  0
 28 29  1  0  0  0  0
 29 30  2  0  0  0  0
 30 31  1  0  0  0  0
 32 25  1  0  0  0  0
 32 31  2  0  0  0  0
 33 32  1  0  0  0  0
 34 28  1  0  0  0  0
 35 29  1  0  0  0  0
 36 44  1  1  0  0  0
 36 37  1  0  0  0  0
 36 43  1  0  0  0  0
 37 30  1  6  0  0  0
 37 38  1  0  0  0  0
 38 40  1  0  0  0  0
 39 38  1  0  0  0  0
 41 40  1  0  0  0  0
 41 42  1  0  0  0  0
 43 46  1  1  0  0  0
 43 41  1  0  0  0  0
 44 45  1  0  0  0  0
 47 46  1  0  0  0  0
M  END
>  <minimizedAffinity>
-6.0790267

$$$$
