REMARK  Name = 
REMARK  6 active torsions:
REMARK  status: ('A' for Active; 'I' for Inactive)
REMARK    1  A    between atoms: C_2  and  N_7
REMARK    2  A    between atoms: C_5  and  O_15
REMARK    3  A    between atoms: O_15  and  C_16
REMARK    4  A    between atoms: C_21  and  C_33
REMARK    5  A    between atoms: O_31  and  C_32
REMARK    6  A    between atoms: C_39  and  O_40
REMARK                            x       y       z     vdW  Elec       q    Type
REMARK                         _______ _______ _______ _____ _____    ______ ____
ROOT
ATOM      1  C   UNL     1      31.212  27.558  48.273  0.00  0.00    +0.000 A 
ATOM      2  C   UNL     1      30.768  27.729  49.568  0.00  0.00    +0.000 A 
ATOM      3  C   UNL     1      29.480  28.151  49.827  0.00  0.00    +0.000 A 
ATOM      4  C   UNL     1      28.624  28.408  48.767  0.00  0.00    +0.000 A 
ATOM      5  C   UNL     1      29.080  28.234  47.484  0.00  0.00    +0.000 A 
ATOM      6  C   UNL     1      30.352  27.816  47.234  0.00  0.00    +0.000 A 
ATOM      7  H   UNL     1      31.401  27.541  50.442  0.00  0.00    +0.000 HD
ATOM      8  H   UNL     1      29.154  28.278  50.857  0.00  0.00    +0.000 HD
ATOM      9  H   UNL     1      27.629  28.736  49.005  0.00  0.00    +0.000 HD
ATOM     10  H   UNL     1      28.368  28.450  46.700  0.00  0.00    +0.000 HD
ENDROOT
BRANCH   6  12
ATOM     11  C   UNL     1      30.803  28.900  45.046  0.00  0.00    +0.000 C 
ATOM     12  C   UNL     1      30.797  27.620  45.859  0.00  0.00    +0.000 C 
ATOM     13  C   UNL     1      32.149  26.980  45.690  0.00  0.00    +0.000 C 
ATOM     14  H   UNL     1      32.035  25.872  45.785  0.00  0.00    +0.000 HD
ATOM     15  O   UNL     1      32.564  27.180  44.370  0.00  0.00    +0.000 OA
ATOM     16  C   UNL     1      31.544  27.188  43.457  0.00  0.00    +0.000 C 
ATOM     17  H   UNL     1      32.036  27.116  42.450  0.00  0.00    +0.000 HD
ATOM     18  C   UNL     1      30.752  28.489  43.588  0.00  0.00    +0.000 C 
BRANCH  11  19
ATOM     19  O   UNL     1      32.009  29.548  45.306  0.00  0.00    +0.000 OA
ATOM     20  H   UNL     1      31.863  30.530  45.290  0.00  0.00    +0.000 HD
ENDBRANCH  11  19
BRANCH  18  21
ATOM     21  O   UNL     1      31.208  29.477  42.751  0.00  0.00    +0.000 OA
ATOM     22  H   UNL     1      30.496  29.687  42.096  0.00  0.00    +0.000 HD
ENDBRANCH  18  21
ENDBRANCH   6  12
BRANCH   1  23
ATOM     23  O   UNL     1      32.533  27.130  48.173  0.00  0.00    +0.000 OA
BRANCH  23  28
ATOM     24  C   UNL     1      35.500  28.917  49.146  0.00  0.00    +0.000 A 
ATOM     25  C   UNL     1      35.434  30.095  48.401  0.00  0.00    +0.000 A 
ATOM     26  C   UNL     1      34.327  30.255  47.547  0.00  0.00    +0.000 A 
ATOM     27  N   UNL     1      33.402  29.261  47.504  0.00  0.00    +0.000 NA
ATOM     28  C   UNL     1      33.493  28.146  48.229  0.00  0.00    +0.000 A 
ATOM     29  N   UNL     1      34.556  27.964  49.066  0.00  0.00    +0.000 NA
ATOM     30  H   UNL     1      36.327  28.704  49.840  0.00  0.00    +0.000 HD
ATOM     31  H   UNL     1      34.271  31.157  46.973  0.00  0.00    +0.000 HD
BRANCH  25  32
ATOM     32  N   UNL     1      36.467  31.048  48.541  0.00  0.00    +0.000 N 
ATOM     33  C   UNL     1      36.639  31.751  49.656  0.00  0.00    +0.000 A 
ATOM     34  C   UNL     1      37.673  32.680  49.733  0.00  0.00    +0.000 A 
ATOM     35  C   UNL     1      38.449  32.787  48.606  0.00  0.00    +0.000 A 
ATOM     36  O   UNL     1      39.386  33.628  48.670  0.00  0.00    +0.000 OA
ATOM     37  N   UNL     1      38.306  32.103  47.480  0.00  0.00    +0.000 N 
ATOM     38  C   UNL     1      37.283  31.206  47.447  0.00  0.00    +0.000 A 
ATOM     39  O   UNL     1      37.134  30.542  46.371  0.00  0.00    +0.000 OA
ATOM     40  H   UNL     1      35.999  31.627  50.514  0.00  0.00    +0.000 HD
ATOM     41  H   UNL     1      37.819  33.255  50.638  0.00  0.00    +0.000 HD
ATOM     42  H   UNL     1      38.927  32.229  46.660  0.00  0.00    +0.000 HD
ENDBRANCH  25  32
ENDBRANCH  23  28
ENDBRANCH   1  23
TORSDOF 6
