
 OpenBabel03272510263D

 48 52  0  0  1  0  0  0  0  0999 V2000
   39.3630   31.6420   41.8580 N   0  0  0  0  0  0  0  0  0  0  0  0
   39.2410   33.0700   41.8560 C   0  0  1  0  0  0  0  0  0  0  0  0
   37.9530   33.4890   41.3210 C   0  0  0  0  0  0  0  0  0  0  0  0
   37.8670   33.0710   39.9830 O   0  0  0  0  0  0  0  0  0  0  0  0
   38.0860   31.7360   39.7740 C   0  0  0  0  0  0  0  0  0  0  0  0
   39.2750   31.1900   40.4880 C   0  0  1  0  0  0  0  0  0  0  0  0
   38.7990   31.0790   42.4500 H   0  0  0  0  0  0  0  0  0  0  0  0
   40.0560   33.4940   41.2480 H   0  0  0  0  0  0  0  0  0  0  0  0
   37.9930   34.6170   41.2290 H   0  0  0  0  0  0  0  0  0  0  0  0
   37.0080   33.2570   41.7280 H   0  0  0  0  0  0  0  0  0  0  0  0
   38.1000   31.5560   38.7080 H   0  0  0  0  0  0  0  0  0  0  0  0
   37.1820   31.2060   40.1980 H   0  0  0  0  0  0  0  0  0  0  0  0
   39.0990   30.0740   40.5510 H   0  0  0  0  0  0  0  0  0  0  0  0
   41.4380   30.1120   40.0820 C   0  0  2  0  0  3  0  0  0  0  0  0
   40.5830   31.3180   39.7680 C   0  0  1  0  0  3  0  0  0  0  0  0
   40.4200   31.4090   38.2950 C   0  0  0  0  0  3  0  0  0  0  0  0
   41.4630   31.5010   37.8680 H   0  0  0  0  0  0  0  0  0  0  0  0
   39.9130   30.2480   37.7170 O   0  0  0  0  0  0  0  0  0  0  0  0
   40.9690   29.3120   37.8140 C   0  0  0  0  0  3  0  0  0  0  0  0
   41.9090   29.8570   37.5780 H   0  0  0  0  0  0  0  0  0  0  0  0
   41.0350   28.9060   39.2600 C   0  0  1  0  0  3  0  0  0  0  0  0
   41.4000   29.7470   41.4040 O   0  0  0  0  0  0  0  0  0  0  0  0
   41.6370   28.8180   41.5510 H   0  0  0  0  0  0  0  0  0  0  0  0
   42.0080   27.9320   39.4850 O   0  0  0  0  0  0  0  0  0  0  0  0
   42.8580   28.3090   39.8330 H   0  0  0  0  0  0  0  0  0  0  0  0
   39.3870   33.4950   43.2060 O   0  0  0  0  0  0  0  0  0  0  0  0
   36.1640   30.2100   46.8970 C   0  0  0  0  0  0  0  0  0  0  0  0
   37.0510   30.7370   47.8260 C   0  0  0  0  0  0  0  0  0  0  0  0
   38.0650   31.6200   47.4330 C   0  0  0  0  0  0  0  0  0  0  0  0
   38.1280   31.9310   46.0780 C   0  0  0  0  0  0  0  0  0  0  0  0
   39.0180   32.7630   45.4570 N   0  0  0  0  0  0  0  0  0  0  0  0
   38.6860   32.7510   44.1550 C   0  0  0  0  0  0  0  0  0  0  0  0
   37.6490   31.9600   43.9570 N   0  0  0  0  0  0  0  0  0  0  0  0
   37.2610   31.4230   45.1260 C   0  0  0  0  0  0  0  0  0  0  0  0
   36.2600   30.5430   45.5510 C   0  0  0  0  0  0  0  0  0  0  0  0
   35.3710   29.5280   47.1550 H   0  0  0  0  0  0  0  0  0  0  0  0
   38.7660   32.0420   48.1400 H   0  0  0  0  0  0  0  0  0  0  0  0
   39.8030   33.2960   45.9360 H   0  0  0  0  0  0  0  0  0  0  0  0
   35.5840   30.1470   44.8120 H   0  0  0  0  0  0  0  0  0  0  0  0
   37.5140   30.1640   51.5080 C   0  0  0  0  0  0  0  0  0  0  0  0
   37.8140   30.5990   50.2230 C   0  0  0  0  0  0  0  0  0  0  0  0
   36.9100   30.3590   49.2170 C   0  0  0  0  0  0  0  0  0  0  0  0
   35.7490   29.6960   49.5570 N   0  0  0  0  0  0  0  0  0  0  0  0
   35.4670   29.2780   50.8060 C   0  0  0  0  0  0  0  0  0  0  0  0
   36.3420   29.5120   51.7640 N   0  0  0  0  0  0  0  0  0  0  0  0
   38.2640   30.3790   52.2660 H   0  0  0  0  0  0  0  0  0  0  0  0
   38.7210   31.1200   49.9480 H   0  0  0  0  0  0  0  0  0  0  0  0
   34.5320   28.7660   50.9740 H   0  0  0  0  0  0  0  0  0  0  0  0
  1  7  1  0  0  0  0
  2  8  1  6  0  0  0
  2  1  1  0  0  0  0
  2 26  1  0  0  0  0
  3 10  1  0  0  0  0
  3  2  1  0  0  0  0
  4  3  1  0  0  0  0
  5  4  1  0  0  0  0
  5 12  1  0  0  0  0
  5  6  1  0  0  0  0
  6 13  1  1  0  0  0
  6  1  1  0  0  0  0
  9  3  1  0  0  0  0
 11  5  1  0  0  0  0
 14 22  1  1  0  0  0
 15 16  1  6  0  0  0
 15 14  1  0  0  0  0
 15  6  1  0  0  0  0
 17 16  1  0  0  0  0
 18 19  1  0  0  0  0
 18 16  1  0  0  0  0
 19 21  1  0  0  0  0
 20 19  1  0  0  0  0
 21 24  1  6  0  0  0
 21 14  1  0  0  0  0
 22 23  1  0  0  0  0
 24 25  1  0  0  0  0
 26 32  1  0  0  0  0
 27 36  1  0  0  0  0
 27 28  1  0  0  0  0
 28 42  1  0  0  0  0
 29 28  2  0  0  0  0
 29 37  1  0  0  0  0
 30 29  1  0  0  0  0
 31 38  1  0  0  0  0
 31 30  1  0  0  0  0
 32 31  1  0  0  0  0
 33 32  2  0  0  0  0
 33 34  1  0  0  0  0
 34 35  1  0  0  0  0
 34 30  2  0  0  0  0
 35 27  2  0  0  0  0
 39 35  1  0  0  0  0
 40 45  1  0  0  0  0
 40 46  1  0  0  0  0
 41 40  2  0  0  0  0
 42 43  2  0  0  0  0
 42 41  1  0  0  0  0
 43 44  1  0  0  0  0
 44 48  1  0  0  0  0
 44 45  2  0  0  0  0
 47 41  1  0  0  0  0
M  END
>  <minimizedAffinity>
-6.04264927

>  <minimizedRMSD>
2.03158665

$$$$
