
 OpenBabel03272502063D

 42 45  0  0  1  0  0  0  0  0999 V2000
   34.3930   30.4180   47.5000 F   0  0  0  0  0  0  0  0  0  0  0  0
   34.6820   29.8860   46.2680 C   0  0  0  0  0  0  0  0  0  0  0  0
   33.7340   29.2000   45.5230 C   0  0  0  0  0  0  0  0  0  0  0  0
   34.0920   28.7110   44.2850 C   0  0  0  0  0  0  0  0  0  0  0  0
   35.3850   28.9010   43.7870 C   0  0  0  0  0  0  0  0  0  0  0  0
   36.2790   29.5920   44.5810 C   0  0  0  0  0  0  0  0  0  0  0  0
   35.9770   30.0870   45.7940 C   0  0  0  0  0  0  0  0  0  0  0  0
   33.3270   28.1910   43.7510 H   0  0  0  0  0  0  0  0  0  0  0  0
   35.6290   28.5080   42.8210 H   0  0  0  0  0  0  0  0  0  0  0  0
   37.2550   29.6970   44.1280 H   0  0  0  0  0  0  0  0  0  0  0  0
   37.6880   32.2820   44.3600 Br  0  0  0  0  0  0  0  0  0  0  0  0
   37.8070   31.8050   46.2010 C   0  0  0  0  0  0  0  0  0  0  0  0
   36.9670   30.7910   46.5840 C   0  0  0  0  0  0  0  0  0  0  0  0
   37.0270   30.3580   47.9220 C   0  0  0  0  0  0  0  0  0  0  0  0
   37.8900   30.9310   48.8000 C   0  0  0  0  0  0  0  0  0  0  0  0
   38.7090   31.9500   48.3570 C   0  0  0  0  0  0  0  0  0  0  0  0
   38.6790   32.4070   47.0330 C   0  0  0  0  0  0  0  0  0  0  0  0
   36.4030   29.5640   48.3080 H   0  0  0  0  0  0  0  0  0  0  0  0
   37.9730   30.6320   49.8370 H   0  0  0  0  0  0  0  0  0  0  0  0
   39.4120   32.4360   49.0200 H   0  0  0  0  0  0  0  0  0  0  0  0
   39.4440   33.4030   46.5110 O   0  0  0  0  0  0  0  0  0  0  0  0
   40.3350   33.7220   46.8650 H   0  0  0  0  0  0  0  0  0  0  0  0
   32.3170   28.1560   47.1630 C   0  0  0  0  0  0  0  0  0  0  0  0
   32.4460   29.0750   46.1450 C   0  0  0  0  0  0  0  0  0  0  0  0
   31.3240   29.8320   45.7960 C   0  0  0  0  0  0  0  0  0  0  0  0
   30.1570   29.6400   46.4650 N   0  0  0  0  0  0  0  0  0  0  0  0
   30.0720   28.7440   47.4430 C   0  0  0  0  0  0  0  0  0  0  0  0
   31.1190   28.0120   47.7930 N   0  0  0  0  0  0  0  0  0  0  0  0
   33.1260   27.5140   47.5140 H   0  0  0  0  0  0  0  0  0  0  0  0
   31.4500   30.5390   45.0010 H   0  0  0  0  0  0  0  0  0  0  0  0
   28.1010   27.2390   47.7940 C   0  0  1  0  0  3  0  0  0  0  0  0
   28.8050   28.5210   48.1870 C   0  0  1  0  0  3  0  0  0  0  0  0
   29.0380   28.4290   49.6790 C   0  0  0  0  0  3  0  0  0  0  0  0
   29.9380   27.8370   49.9450 H   0  0  0  0  0  0  0  0  0  0  0  0
   27.9030   27.8650   50.2260 O   0  0  0  0  0  0  0  0  0  0  0  0
   26.7330   28.1640   49.5490 C   0  0  0  0  0  3  0  0  0  0  0  0
   25.9050   27.7450   50.1640 H   0  0  0  0  0  0  0  0  0  0  0  0
   26.6360   27.4090   48.2160 C   0  0  1  0  0  3  0  0  0  0  0  0
   28.2530   27.0370   46.4460 O   0  0  0  0  0  0  0  0  0  0  0  0
   29.0200   26.4170   46.2470 H   0  0  0  0  0  0  0  0  0  0  0  0
   26.0590   28.2010   47.2230 O   0  0  0  0  0  0  0  0  0  0  0  0
   26.5790   28.1810   46.3730 H   0  0  0  0  0  0  0  0  0  0  0  0
  2  1  1  0  0  0  0
  3 24  1  0  0  0  0
  3  2  2  0  0  0  0
  4  3  1  0  0  0  0
  5  4  2  0  0  0  0
  5  6  1  0  0  0  0
  6  7  2  0  0  0  0
  7  2  1  0  0  0  0
  7 13  1  0  0  0  0
  8  4  1  0  0  0  0
  9  5  1  0  0  0  0
 10  6  1  0  0  0  0
 11 12  1  0  0  0  0
 12 13  2  0  0  0  0
 12 17  1  0  0  0  0
 13 14  1  0  0  0  0
 14 18  1  0  0  0  0
 14 15  2  0  0  0  0
 15 19  1  0  0  0  0
 16 15  1  0  0  0  0
 16 20  1  0  0  0  0
 17 16  2  0  0  0  0
 21 22  1  0  0  0  0
 21 17  1  0  0  0  0
 23 29  1  0  0  0  0
 23 28  1  0  0  0  0
 24 23  2  0  0  0  0
 25 24  1  0  0  0  0
 25 26  2  0  0  0  0
 26 27  1  0  0  0  0
 27 28  2  0  0  0  0
 30 25  1  0  0  0  0
 31 39  1  6  0  0  0
 31 32  1  0  0  0  0
 31 38  1  0  0  0  0
 32 27  1  6  0  0  0
 32 33  1  0  0  0  0
 33 34  1  0  0  0  0
 33 35  1  0  0  0  0
 36 37  1  0  0  0  0
 36 35  1  0  0  0  0
 38 41  1  6  0  0  0
 38 36  1  0  0  0  0
 40 39  1  0  0  0  0
 42 41  1  0  0  0  0
M  END
>  <minimizedAffinity>
-7.09196615

>  <minimizedRMSD>
0.817703009

$$$$
