REMARK  Name = 
REMARK  6 active torsions:
REMARK  status: ('A' for Active; 'I' for Inactive)
REMARK    1  A    between atoms: C_1  and  C_2
REMARK    2  A    between atoms: C_1  and  C_13
REMARK    3  A    between atoms: C_13  and  C_18
REMARK    4  A    between atoms: C_16  and  C_38
REMARK    5  A    between atoms: O_36  and  C_37
REMARK    6  A    between atoms: C_44  and  O_45
REMARK                            x       y       z     vdW  Elec       q    Type
REMARK                         _______ _______ _______ _____ _____    ______ ____
ROOT
ATOM      1  C   UNL     1      34.818  28.370  49.423  0.00  0.00    +0.000 C 
ATOM      2  H   UNL     1      35.715  28.115  48.822  0.00  0.00    +0.000 HD
ATOM      3  H   UNL     1      34.767  27.567  50.200  0.00  0.00    +0.000 HD
ENDROOT
BRANCH   1   4
ATOM      4  C   UNL     1      33.584  28.320  48.555  0.00  0.00    +0.000 A 
ATOM      5  C   UNL     1      33.670  28.716  47.173  0.00  0.00    +0.000 A 
ATOM      6  S   UNL     1      32.001  28.474  46.644  0.00  0.00    +0.000 S 
ATOM      7  C   UNL     1      31.398  27.876  48.332  0.00  0.00    +0.000 A 
ATOM      8  N   UNL     1      32.411  27.942  48.952  0.00  0.00    +0.000 NA
ATOM      9  N   UNL     1      30.086  27.453  48.776  0.00  0.00    +0.000 N 
ATOM     10  C   UNL     1      29.248  26.839  47.794  0.00  0.00    +0.000 C 
ATOM     11  C   UNL     1      27.803  26.791  48.160  0.00  0.00    +0.000 C 
ATOM     12  N   UNL     1      27.486  27.541  49.380  0.00  0.00    +0.000 NA
ATOM     13  C   UNL     1      28.383  27.024  50.398  0.00  0.00    +0.000 C 
ATOM     14  C   UNL     1      29.717  27.673  50.151  0.00  0.00    +0.000 C 
ATOM     15  H   UNL     1      34.525  29.052  46.662  0.00  0.00    +0.000 HD
ATOM     16  H   UNL     1      29.617  25.805  47.536  0.00  0.00    +0.000 HD
ATOM     17  H   UNL     1      29.337  27.419  46.851  0.00  0.00    +0.000 HD
ATOM     18  H   UNL     1      27.488  25.729  48.377  0.00  0.00    +0.000 HD
ATOM     19  H   UNL     1      27.112  27.138  47.364  0.00  0.00    +0.000 HD
ATOM     20  H   UNL     1      26.522  27.202  49.654  0.00  0.00    +0.000 HD
ATOM     21  H   UNL     1      28.050  27.347  51.414  0.00  0.00    +0.000 HD
ATOM     22  H   UNL     1      28.503  25.920  50.348  0.00  0.00    +0.000 HD
ATOM     23  H   UNL     1      30.460  27.177  50.810  0.00  0.00    +0.000 HD
ATOM     24  H   UNL     1      29.619  28.748  50.402  0.00  0.00    +0.000 HD
ENDBRANCH   1   4
BRANCH   1  25
ATOM     25  C   UNL     1      34.943  29.673  50.108  0.00  0.00    +0.000 C 
ATOM     26  H   UNL     1      34.049  30.307  49.851  0.00  0.00    +0.000 HD
ATOM     27  H   UNL     1      35.010  29.573  51.206  0.00  0.00    +0.000 HD
BRANCH  25  32
ATOM     28  C   UNL     1      37.508  32.289  49.536  0.00  0.00    +0.000 A 
ATOM     29  C   UNL     1      38.297  31.746  48.535  0.00  0.00    +0.000 A 
ATOM     30  C   UNL     1      37.937  30.482  48.066  0.00  0.00    +0.000 A 
ATOM     31  N   UNL     1      36.866  29.843  48.581  0.00  0.00    +0.000 NA
ATOM     32  C   UNL     1      36.130  30.437  49.569  0.00  0.00    +0.000 A 
ATOM     33  N   UNL     1      36.455  31.646  50.035  0.00  0.00    +0.000 NA
ATOM     34  H   UNL     1      37.796  33.281  49.900  0.00  0.00    +0.000 HD
ATOM     35  H   UNL     1      39.157  32.192  48.079  0.00  0.00    +0.000 HD
BRANCH  30  37
ATOM     36  C   UNL     1      38.412  30.330  45.619  0.00  0.00    +0.000 C 
ATOM     37  C   UNL     1      38.692  29.780  46.995  0.00  0.00    +0.000 C 
ATOM     38  C   UNL     1      40.190  29.811  47.211  0.00  0.00    +0.000 C 
ATOM     39  H   UNL     1      40.528  30.751  47.645  0.00  0.00    +0.000 HD
ATOM     40  O   UNL     1      40.825  29.510  46.014  0.00  0.00    +0.000 OA
ATOM     41  C   UNL     1      40.101  28.611  45.243  0.00  0.00    +0.000 C 
ATOM     42  H   UNL     1      40.738  28.256  44.422  0.00  0.00    +0.000 HD
ATOM     43  C   UNL     1      38.886  29.279  44.612  0.00  0.00    +0.000 C 
BRANCH  36  44
ATOM     44  O   UNL     1      39.089  31.495  45.358  0.00  0.00    +0.000 OA
ATOM     45  H   UNL     1      39.623  31.763  46.123  0.00  0.00    +0.000 HD
ENDBRANCH  36  44
BRANCH  43  46
ATOM     46  O   UNL     1      39.295  29.955  43.467  0.00  0.00    +0.000 OA
ATOM     47  H   UNL     1      38.791  30.808  43.409  0.00  0.00    +0.000 HD
ENDBRANCH  43  46
ENDBRANCH  30  37
ENDBRANCH  25  32
ENDBRANCH   1  25
TORSDOF 6
