
 OpenBabel03262520523D

 51 55  0  0  1  0  0  0  0  0999 V2000
   36.0610   29.2530   32.6710 C   0  0  0  0  0  0  0  0  0  0  0  0
   35.4010   30.4640   32.5570 C   0  0  0  0  0  0  0  0  0  0  0  0
   35.5480   31.2190   31.4020 C   0  0  0  0  0  0  0  0  0  0  0  0
   36.3330   30.7940   30.3670 C   0  0  0  0  0  0  0  0  0  0  0  0
   36.6390   31.3190   29.1630 N   0  0  0  0  0  0  0  0  0  0  0  0
   37.4670   30.4570   28.5480 C   0  0  0  0  0  0  0  0  0  0  0  0
   37.7320   29.3370   29.3260 C   0  0  0  0  0  0  0  0  0  0  0  0
   36.9950   29.5850   30.4720 C   0  0  0  0  0  0  0  0  0  0  0  0
   36.8540   28.8230   31.6240 C   0  0  0  0  0  0  0  0  0  0  0  0
   36.0290   28.5830   33.4960 H   0  0  0  0  0  0  0  0  0  0  0  0
   35.0230   32.1740   31.3220 H   0  0  0  0  0  0  0  0  0  0  0  0
   36.3180   32.2170   28.7530 H   0  0  0  0  0  0  0  0  0  0  0  0
   37.8800   30.6230   27.5520 H   0  0  0  0  0  0  0  0  0  0  0  0
   38.3660   28.5020   29.0530 H   0  0  0  0  0  0  0  0  0  0  0  0
   36.8780   26.3960   31.0450 C   0  0  1  0  0  3  0  0  0  0  0  0
   37.5860   27.5260   31.6960 C   0  0  2  0  0  3  0  0  0  0  0  0
   38.0030   27.1740   33.1050 C   0  0  0  0  0  3  0  0  0  0  0  0
   39.0770   26.9380   33.2140 H   0  0  0  0  0  0  0  0  0  0  0  0
   37.3060   26.1260   33.6640 O   0  0  0  0  0  0  0  0  0  0  0  0
   37.3890   24.9420   32.9670 C   0  0  0  0  0  3  0  0  0  0  0  0
   36.4230   24.4100   33.0920 H   0  0  0  0  0  0  0  0  0  0  0  0
   37.5980   25.1300   31.4850 C   0  0  2  0  0  3  0  0  0  0  0  0
   35.5540   26.2470   31.3750 O   0  0  0  0  0  0  0  0  0  0  0  0
   35.3700   25.9610   32.2860 H   0  0  0  0  0  0  0  0  0  0  0  0
   38.9610   25.3420   31.2750 O   0  0  0  0  0  0  0  0  0  0  0  0
   39.5190   24.9190   31.9950 H   0  0  0  0  0  0  0  0  0  0  0  0
   34.5470   30.9160   33.7070 C   0  0  0  0  0  0  0  0  0  0  0  0
   33.9090   31.7560   33.3780 H   0  0  0  0  0  0  0  0  0  0  0  0
   33.9870   30.0690   34.1490 H   0  0  0  0  0  0  0  0  0  0  0  0
   35.4890   31.4100   34.8010 C   0  0  0  0  0  0  0  0  0  0  0  0
   36.4000   30.7870   34.6950 H   0  0  0  0  0  0  0  0  0  0  0  0
   35.6820   32.4900   34.5410 H   0  0  0  0  0  0  0  0  0  0  0  0
   33.5250   31.7450   36.3510 C   0  0  1  0  0  0  0  0  0  0  0  0
   34.6410   32.5390   36.9900 C   0  0  0  0  0  0  0  0  0  0  0  0
   34.9300   31.3440   36.1750 C   0  0  2  0  0  0  0  0  0  0  0  0
   32.9950   32.2730   35.5190 H   0  0  0  0  0  0  0  0  0  0  0  0
   34.7970   32.5290   38.0760 H   0  0  0  0  0  0  0  0  0  0  0  0
   34.9040   33.5440   36.5540 H   0  0  0  0  0  0  0  0  0  0  0  0
   35.2300   30.4460   36.7880 H   0  0  0  0  0  0  0  0  0  0  0  0
   32.6190   31.0380   37.3120 C   0  0  0  0  0  0  0  0  0  0  0  0
   31.9110   31.7240   37.8230 H   0  0  0  0  0  0  0  0  0  0  0  0
   33.2740   30.6160   38.1260 H   0  0  0  0  0  0  0  0  0  0  0  0
   30.8440   28.9600   34.7480 C   0  0  0  0  0  0  0  0  0  0  0  0
   31.4910   30.0590   35.3950 C   0  0  0  0  0  0  0  0  0  0  0  0
   31.9550   29.8780   36.6700 C   0  0  0  0  0  0  0  0  0  0  0  0
   31.7800   28.6850   37.2420 N   0  0  0  0  0  0  0  0  0  0  0  0
   31.1750   27.6560   36.6400 C   0  0  0  0  0  0  0  0  0  0  0  0
   30.7150   27.8140   35.3910 N   0  0  0  0  0  0  0  0  0  0  0  0
   30.5020   29.1820   33.7340 H   0  0  0  0  0  0  0  0  0  0  0  0
   31.5970   31.0030   34.8660 H   0  0  0  0  0  0  0  0  0  0  0  0
   31.0730   26.7180   37.1740 H   0  0  0  0  0  0  0  0  0  0  0  0
  1 10  1  0  0  0  0
  2  1  1  0  0  0  0
  2 27  1  0  0  0  0
  3  2  2  0  0  0  0
  4  8  2  0  0  0  0
  4  3  1  0  0  0  0
  5  4  1  0  0  0  0
  6  5  1  0  0  0  0
  6  7  2  0  0  0  0
  7  8  1  0  0  0  0
  8  9  1  0  0  0  0
  9  1  2  0  0  0  0
 11  3  1  0  0  0  0
 12  5  1  0  0  0  0
 13  6  1  0  0  0  0
 14  7  1  0  0  0  0
 15 23  1  1  0  0  0
 15 22  1  0  0  0  0
 15 16  1  0  0  0  0
 16  9  1  1  0  0  0
 16 17  1  0  0  0  0
 17 18  1  0  0  0  0
 17 19  1  0  0  0  0
 20 21  1  0  0  0  0
 20 19  1  0  0  0  0
 22 25  1  1  0  0  0
 22 20  1  0  0  0  0
 23 24  1  0  0  0  0
 25 26  1  0  0  0  0
 27 29  1  0  0  0  0
 27 30  1  0  0  0  0
 28 27  1  0  0  0  0
 30 35  1  0  0  0  0
 31 30  1  0  0  0  0
 32 30  1  0  0  0  0
 33 36  1  6  0  0  0
 33 34  1  0  0  0  0
 33 40  1  0  0  0  0
 34 37  1  0  0  0  0
 35 33  1  0  0  0  0
 35 39  1  1  0  0  0
 35 34  1  0  0  0  0
 38 34  1  0  0  0  0
 40 41  1  0  0  0  0
 40 42  1  0  0  0  0
 43 48  2  0  0  0  0
 43 44  1  0  0  0  0
 44 45  2  0  0  0  0
 45 46  1  0  0  0  0
 45 40  1  0  0  0  0
 47 51  1  0  0  0  0
 47 46  2  0  0  0  0
 48 47  1  0  0  0  0
 49 43  1  0  0  0  0
 50 44  1  0  0  0  0
M  END
>  <minimizedAffinity>
-6.0344367

$$$$

 OpenBabel03262520523D

 51 55  0  0  1  0  0  0  0  0999 V2000
   36.3970   28.2300   34.5180 C   0  0  0  0  0  0  0  0  0  0  0  0
   37.3880   27.2760   34.3590 C   0  0  0  0  0  0  0  0  0  0  0  0
   37.9420   27.0660   33.1050 C   0  0  0  0  0  0  0  0  0  0  0  0
   37.5330   27.7820   32.0140 C   0  0  0  0  0  0  0  0  0  0  0  0
   37.8970   27.7770   30.7160 N   0  0  0  0  0  0  0  0  0  0  0  0
   37.1520   28.7020   30.0870 C   0  0  0  0  0  0  0  0  0  0  0  0
   36.2740   29.3460   30.9500 C   0  0  0  0  0  0  0  0  0  0  0  0
   36.5450   28.7360   32.1640 C   0  0  0  0  0  0  0  0  0  0  0  0
   35.9830   28.9530   33.4150 C   0  0  0  0  0  0  0  0  0  0  0  0
   35.8970   28.4880   35.4200 H   0  0  0  0  0  0  0  0  0  0  0  0
   38.7230   26.3110   32.9900 H   0  0  0  0  0  0  0  0  0  0  0  0
   38.6120   27.1850   30.2510 H   0  0  0  0  0  0  0  0  0  0  0  0
   37.2320   28.9180   29.0200 H   0  0  0  0  0  0  0  0  0  0  0  0
   35.5720   30.1270   30.6850 H   0  0  0  0  0  0  0  0  0  0  0  0
   35.3190   31.1770   34.3320 C   0  0  1  0  0  3  0  0  0  0  0  0
   34.9200   29.9920   33.5320 C   0  0  2  0  0  3  0  0  0  0  0  0
   33.6050   29.4240   34.0110 C   0  0  0  0  0  3  0  0  0  0  0  0
   32.7420   29.6720   33.3660 H   0  0  0  0  0  0  0  0  0  0  0  0
   33.2600   29.7810   35.2950 O   0  0  0  0  0  0  0  0  0  0  0  0
   33.1540   31.1370   35.5060 C   0  0  0  0  0  3  0  0  0  0  0  0
   33.4750   31.3410   36.5490 H   0  0  0  0  0  0  0  0  0  0  0  0
   34.0420   31.9580   34.6050 C   0  0  2  0  0  3  0  0  0  0  0  0
   35.9020   30.9130   35.5460 O   0  0  0  0  0  0  0  0  0  0  0  0
   35.3200   30.5320   36.2260 H   0  0  0  0  0  0  0  0  0  0  0  0
   33.3830   32.1030   33.3830 O   0  0  0  0  0  0  0  0  0  0  0  0
   32.3860   32.0420   33.4870 H   0  0  0  0  0  0  0  0  0  0  0  0
   37.8210   26.4980   35.5680 C   0  0  0  0  0  0  0  0  0  0  0  0
   37.8470   27.1710   36.4430 H   0  0  0  0  0  0  0  0  0  0  0  0
   37.1950   25.5950   35.7110 H   0  0  0  0  0  0  0  0  0  0  0  0
   39.2330   25.9880   35.2940 C   0  0  0  0  0  0  0  0  0  0  0  0
   39.4760   26.3570   34.2770 H   0  0  0  0  0  0  0  0  0  0  0  0
   39.8690   26.4790   36.0850 H   0  0  0  0  0  0  0  0  0  0  0  0
   38.1830   23.6940   35.2320 C   0  0  1  0  0  0  0  0  0  0  0  0
   38.9110   23.7320   36.5560 C   0  0  0  0  0  0  0  0  0  0  0  0
   39.3910   24.5160   35.4020 C   0  0  2  0  0  0  0  0  0  0  0  0
   37.1770   24.1840   35.2380 H   0  0  0  0  0  0  0  0  0  0  0  0
   39.4760   22.8650   36.9190 H   0  0  0  0  0  0  0  0  0  0  0  0
   38.4420   24.2960   37.4110 H   0  0  0  0  0  0  0  0  0  0  0  0
   40.3130   24.0810   34.9180 H   0  0  0  0  0  0  0  0  0  0  0  0
   38.2220   22.3740   34.5240 C   0  0  0  0  0  0  0  0  0  0  0  0
   38.1230   21.5100   35.2160 H   0  0  0  0  0  0  0  0  0  0  0  0
   39.2470   22.2800   34.0670 H   0  0  0  0  0  0  0  0  0  0  0  0
   36.3640   23.4000   31.4360 C   0  0  0  0  0  0  0  0  0  0  0  0
   37.2810   23.4020   32.5340 C   0  0  0  0  0  0  0  0  0  0  0  0
   37.2600   22.3400   33.3970 C   0  0  0  0  0  0  0  0  0  0  0  0
   36.3850   21.3580   33.1690 N   0  0  0  0  0  0  0  0  0  0  0  0
   35.5260   21.3540   32.1430 C   0  0  0  0  0  0  0  0  0  0  0  0
   35.5330   22.3850   31.2880 N   0  0  0  0  0  0  0  0  0  0  0  0
   36.4420   24.2810   30.7930 H   0  0  0  0  0  0  0  0  0  0  0  0
   37.9650   24.2380   32.6570 H   0  0  0  0  0  0  0  0  0  0  0  0
   34.8470   20.5170   32.0280 H   0  0  0  0  0  0  0  0  0  0  0  0
  1 10  1  0  0  0  0
  2  1  1  0  0  0  0
  2 27  1  0  0  0  0
  3  2  2  0  0  0  0
  4  8  2  0  0  0  0
  4  3  1  0  0  0  0
  5  4  1  0  0  0  0
  6  5  1  0  0  0  0
  6  7  2  0  0  0  0
  7  8  1  0  0  0  0
  8  9  1  0  0  0  0
  9  1  2  0  0  0  0
 11  3  1  0  0  0  0
 12  5  1  0  0  0  0
 13  6  1  0  0  0  0
 14  7  1  0  0  0  0
 15 22  1  0  0  0  0
 15 23  1  1  0  0  0
 16  9  1  1  0  0  0
 16 17  1  0  0  0  0
 16 15  1  0  0  0  0
 17 19  1  0  0  0  0
 18 17  1  0  0  0  0
 19 20  1  0  0  0  0
 20 21  1  0  0  0  0
 22 25  1  6  0  0  0
 22 20  1  0  0  0  0
 23 24  1  0  0  0  0
 25 26  1  0  0  0  0
 27 29  1  0  0  0  0
 27 28  1  0  0  0  0
 30 35  1  0  0  0  0
 30 27  1  0  0  0  0
 30 32  1  0  0  0  0
 31 30  1  0  0  0  0
 33 36  1  6  0  0  0
 33 35  1  0  0  0  0
 33 34  1  0  0  0  0
 34 37  1  0  0  0  0
 34 38  1  0  0  0  0
 35 39  1  6  0  0  0
 35 34  1  0  0  0  0
 40 41  1  0  0  0  0
 40 33  1  0  0  0  0
 42 40  1  0  0  0  0
 43 44  1  0  0  0  0
 44 50  1  0  0  0  0
 44 45  2  0  0  0  0
 45 40  1  0  0  0  0
 46 45  1  0  0  0  0
 47 46  2  0  0  0  0
 48 43  2  0  0  0  0
 48 47  1  0  0  0  0
 49 43  1  0  0  0  0
 51 47  1  0  0  0  0
M  END
>  <minimizedAffinity>
-6.01643562

$$$$

 OpenBabel03262520523D

 51 55  0  0  1  0  0  0  0  0999 V2000
   40.6440   25.2590   33.0640 C   0  0  0  0  0  0  0  0  0  0  0  0
   41.4750   25.6490   34.1000 C   0  0  0  0  0  0  0  0  0  0  0  0
   40.9660   26.4260   35.1300 C   0  0  0  0  0  0  0  0  0  0  0  0
   39.6570   26.8190   35.1490 C   0  0  0  0  0  0  0  0  0  0  0  0
   38.9250   27.5560   36.0090 N   0  0  0  0  0  0  0  0  0  0  0  0
   37.6760   27.6220   35.5180 C   0  0  0  0  0  0  0  0  0  0  0  0
   37.5430   26.9300   34.3210 C   0  0  0  0  0  0  0  0  0  0  0  0
   38.8210   26.4340   34.1180 C   0  0  0  0  0  0  0  0  0  0  0  0
   39.3210   25.6560   33.0830 C   0  0  0  0  0  0  0  0  0  0  0  0
   40.9070   24.6640   32.2230 H   0  0  0  0  0  0  0  0  0  0  0  0
   41.6300   26.7290   35.9440 H   0  0  0  0  0  0  0  0  0  0  0  0
   39.2330   28.0060   36.8920 H   0  0  0  0  0  0  0  0  0  0  0  0
   36.8620   28.1580   36.0100 H   0  0  0  0  0  0  0  0  0  0  0  0
   36.6400   26.8340   33.7320 H   0  0  0  0  0  0  0  0  0  0  0  0
   37.6880   23.9730   32.2270 C   0  0  1  0  0  3  0  0  0  0  0  0
   38.3840   25.2630   31.9900 C   0  0  2  0  0  3  0  0  0  0  0  0
   39.0370   25.2930   30.6290 C   0  0  0  0  0  3  0  0  0  0  0  0
   38.4890   25.8890   29.8760 H   0  0  0  0  0  0  0  0  0  0  0  0
   39.2580   24.0530   30.0710 O   0  0  0  0  0  0  0  0  0  0  0  0
   38.1260   23.2890   29.9010 C   0  0  0  0  0  3  0  0  0  0  0  0
   38.4140   22.2260   30.0440 H   0  0  0  0  0  0  0  0  0  0  0  0
   37.0410   23.5880   30.9050 C   0  0  2  0  0  3  0  0  0  0  0  0
   38.4850   22.9230   32.6110 O   0  0  0  0  0  0  0  0  0  0  0  0
   39.0940   22.5790   31.9350 H   0  0  0  0  0  0  0  0  0  0  0  0
   36.3450   24.7090   30.4500 O   0  0  0  0  0  0  0  0  0  0  0  0
   36.3940   24.7990   29.4510 H   0  0  0  0  0  0  0  0  0  0  0  0
   42.9100   25.2100   34.0590 C   0  0  0  0  0  0  0  0  0  0  0  0
   43.0330   24.4390   33.2780 H   0  0  0  0  0  0  0  0  0  0  0  0
   43.5930   26.0760   33.9510 H   0  0  0  0  0  0  0  0  0  0  0  0
   43.2320   24.5930   35.4180 C   0  0  0  0  0  0  0  0  0  0  0  0
   44.3360   24.6560   35.5050 H   0  0  0  0  0  0  0  0  0  0  0  0
   42.7110   25.2620   36.1620 H   0  0  0  0  0  0  0  0  0  0  0  0
   42.2440   22.8350   36.9350 C   0  0  1  0  0  0  0  0  0  0  0  0
   43.4760   22.1760   36.3580 C   0  0  0  0  0  0  0  0  0  0  0  0
   42.7390   23.2050   35.5990 C   0  0  2  0  0  0  0  0  0  0  0  0
   42.4410   23.5130   37.8030 H   0  0  0  0  0  0  0  0  0  0  0  0
   43.4630   21.1270   36.0380 H   0  0  0  0  0  0  0  0  0  0  0  0
   44.4830   22.4590   36.7770 H   0  0  0  0  0  0  0  0  0  0  0  0
   42.1270   22.7830   34.7510 H   0  0  0  0  0  0  0  0  0  0  0  0
   41.0650   21.9280   37.1140 C   0  0  0  0  0  0  0  0  0  0  0  0
   41.2000   21.2030   37.9450 H   0  0  0  0  0  0  0  0  0  0  0  0
   40.9880   21.3060   36.1780 H   0  0  0  0  0  0  0  0  0  0  0  0
   37.8910   23.6390   36.0950 C   0  0  0  0  0  0  0  0  0  0  0  0
   39.1130   22.8970   36.0400 C   0  0  0  0  0  0  0  0  0  0  0  0
   39.8030   22.6990   37.2060 C   0  0  0  0  0  0  0  0  0  0  0  0
   39.3000   23.2100   38.3310 N   0  0  0  0  0  0  0  0  0  0  0  0
   38.1580   23.9040   38.3850 C   0  0  0  0  0  0  0  0  0  0  0  0
   37.4680   24.1070   37.2540 N   0  0  0  0  0  0  0  0  0  0  0  0
   37.3990   23.7530   35.1250 H   0  0  0  0  0  0  0  0  0  0  0  0
   39.4610   22.5110   35.0860 H   0  0  0  0  0  0  0  0  0  0  0  0
   37.8170   24.2850   39.3410 H   0  0  0  0  0  0  0  0  0  0  0  0
  1  9  2  0  0  0  0
  1  2  1  0  0  0  0
  2  3  2  0  0  0  0
  3  4  1  0  0  0  0
  3 11  1  0  0  0  0
  4  5  1  0  0  0  0
  5 12  1  0  0  0  0
  6  5  1  0  0  0  0
  6 13  1  0  0  0  0
  7  6  2  0  0  0  0
  8  7  1  0  0  0  0
  8  4  2  0  0  0  0
  9  8  1  0  0  0  0
 10  1  1  0  0  0  0
 14  7  1  0  0  0  0
 15 23  1  6  0  0  0
 16 15  1  0  0  0  0
 16  9  1  1  0  0  0
 17 16  1  0  0  0  0
 18 17  1  0  0  0  0
 19 17  1  0  0  0  0
 20 21  1  0  0  0  0
 20 19  1  0  0  0  0
 20 22  1  0  0  0  0
 22 25  1  6  0  0  0
 22 15  1  0  0  0  0
 24 23  1  0  0  0  0
 26 25  1  0  0  0  0
 27  2  1  0  0  0  0
 27 30  1  0  0  0  0
 28 27  1  0  0  0  0
 29 27  1  0  0  0  0
 30 31  1  0  0  0  0
 30 35  1  0  0  0  0
 30 32  1  0  0  0  0
 33 40  1  0  0  0  0
 33 36  1  1  0  0  0
 34 38  1  0  0  0  0
 34 33  1  0  0  0  0
 35 39  1  6  0  0  0
 35 34  1  0  0  0  0
 35 33  1  0  0  0  0
 37 34  1  0  0  0  0
 40 45  1  0  0  0  0
 40 41  1  0  0  0  0
 42 40  1  0  0  0  0
 43 48  1  0  0  0  0
 44 43  2  0  0  0  0
 44 45  1  0  0  0  0
 45 46  2  0  0  0  0
 46 47  1  0  0  0  0
 47 51  1  0  0  0  0
 48 47  2  0  0  0  0
 49 43  1  0  0  0  0
 50 44  1  0  0  0  0
M  END
>  <minimizedAffinity>
-6.01172209

$$$$

 OpenBabel03262520523D

 51 55  0  0  1  0  0  0  0  0999 V2000
   36.8860   27.9960   33.3940 C   0  0  0  0  0  0  0  0  0  0  0  0
   36.0670   28.7000   32.5280 C   0  0  0  0  0  0  0  0  0  0  0  0
   36.3750   28.7440   31.1760 C   0  0  0  0  0  0  0  0  0  0  0  0
   37.4730   28.1040   30.6730 C   0  0  0  0  0  0  0  0  0  0  0  0
   37.9870   27.9870   29.4320 N   0  0  0  0  0  0  0  0  0  0  0  0
   39.0950   27.2320   29.5270 C   0  0  0  0  0  0  0  0  0  0  0  0
   39.3470   26.8260   30.8310 C   0  0  0  0  0  0  0  0  0  0  0  0
   38.2960   27.3980   31.5300 C   0  0  0  0  0  0  0  0  0  0  0  0
   37.9970   27.3500   32.8850 C   0  0  0  0  0  0  0  0  0  0  0  0
   36.7600   27.8830   34.4430 H   0  0  0  0  0  0  0  0  0  0  0  0
   35.7220   29.3020   30.5010 H   0  0  0  0  0  0  0  0  0  0  0  0
   37.6260   28.3900   28.5470 H   0  0  0  0  0  0  0  0  0  0  0  0
   39.7210   26.9710   28.6720 H   0  0  0  0  0  0  0  0  0  0  0  0
   40.1750   26.2130   31.1640 H   0  0  0  0  0  0  0  0  0  0  0  0
   38.8070   25.1050   33.6160 C   0  0  1  0  0  3  0  0  0  0  0  0
   38.9110   26.5770   33.7750 C   0  0  2  0  0  3  0  0  0  0  0  0
   38.7880   26.9830   35.2250 C   0  0  0  0  0  3  0  0  0  0  0  0
   39.7480   27.2480   35.7040 H   0  0  0  0  0  0  0  0  0  0  0  0
   38.1830   26.0470   36.0330 O   0  0  0  0  0  0  0  0  0  0  0  0
   38.8100   24.8210   36.0630 C   0  0  0  0  0  3  0  0  0  0  0  0
   38.0260   24.0450   36.1870 H   0  0  0  0  0  0  0  0  0  0  0  0
   39.5540   24.4940   34.7920 C   0  0  2  0  0  3  0  0  0  0  0  0
   37.5350   24.5880   33.6290 O   0  0  0  0  0  0  0  0  0  0  0  0
   37.0680   24.6240   34.4810 H   0  0  0  0  0  0  0  0  0  0  0  0
   40.7970   25.1250   34.8580 O   0  0  0  0  0  0  0  0  0  0  0  0
   41.0950   25.2650   35.8070 H   0  0  0  0  0  0  0  0  0  0  0  0
   34.8670   29.4000   33.1010 C   0  0  0  0  0  0  0  0  0  0  0  0
   34.2250   29.7540   32.2750 H   0  0  0  0  0  0  0  0  0  0  0  0
   34.3440   28.7610   33.8390 H   0  0  0  0  0  0  0  0  0  0  0  0
   35.3790   30.6070   33.8820 C   0  0  0  0  0  0  0  0  0  0  0  0
   36.4820   30.5730   33.7670 H   0  0  0  0  0  0  0  0  0  0  0  0
   34.9260   31.4960   33.3570 H   0  0  0  0  0  0  0  0  0  0  0  0
   33.7200   31.3380   35.6370 C   0  0  1  0  0  0  0  0  0  0  0  0
   35.0480   31.8510   36.1460 C   0  0  0  0  0  0  0  0  0  0  0  0
   34.9720   30.6390   35.3090 C   0  0  2  0  0  0  0  0  0  0  0  0
   33.2340   31.9880   34.8660 H   0  0  0  0  0  0  0  0  0  0  0  0
   35.3130   31.7840   37.2080 H   0  0  0  0  0  0  0  0  0  0  0  0
   35.4790   32.7810   35.6800 H   0  0  0  0  0  0  0  0  0  0  0  0
   35.1280   29.6830   35.8890 H   0  0  0  0  0  0  0  0  0  0  0  0
   32.7880   30.8310   36.6940 C   0  0  0  0  0  0  0  0  0  0  0  0
   32.1390   31.6270   37.1170 H   0  0  0  0  0  0  0  0  0  0  0  0
   33.4290   30.4760   37.5500 H   0  0  0  0  0  0  0  0  0  0  0  0
   30.8000   28.5710   34.4630 C   0  0  0  0  0  0  0  0  0  0  0  0
   31.5330   29.6980   34.9490 C   0  0  0  0  0  0  0  0  0  0  0  0
   32.0340   29.6460   36.2220 C   0  0  0  0  0  0  0  0  0  0  0  0
   31.8090   28.5460   36.9430 N   0  0  0  0  0  0  0  0  0  0  0  0
   31.1230   27.4900   36.4910 C   0  0  0  0  0  0  0  0  0  0  0  0
   30.6270   27.5230   35.2470 N   0  0  0  0  0  0  0  0  0  0  0  0
   30.4340   28.6880   33.4390 H   0  0  0  0  0  0  0  0  0  0  0  0
   31.6760   30.5610   34.3030 H   0  0  0  0  0  0  0  0  0  0  0  0
   30.9850   26.6340   37.1420 H   0  0  0  0  0  0  0  0  0  0  0  0
  1 10  1  0  0  0  0
  2 27  1  0  0  0  0
  2  1  2  0  0  0  0
  3  2  1  0  0  0  0
  4  3  2  0  0  0  0
  4  8  1  0  0  0  0
  5  6  1  0  0  0  0
  5  4  1  0  0  0  0
  6  7  2  0  0  0  0
  7 14  1  0  0  0  0
  7  8  1  0  0  0  0
  8  9  2  0  0  0  0
  9  1  1  0  0  0  0
 11  3  1  0  0  0  0
 12  5  1  0  0  0  0
 13  6  1  0  0  0  0
 15 23  1  1  0  0  0
 15 16  1  0  0  0  0
 15 22  1  0  0  0  0
 16  9  1  6  0  0  0
 16 17  1  0  0  0  0
 17 18  1  0  0  0  0
 17 19  1  0  0  0  0
 19 20  1  0  0  0  0
 20 21  1  0  0  0  0
 22 25  1  1  0  0  0
 22 20  1  0  0  0  0
 23 24  1  0  0  0  0
 25 26  1  0  0  0  0
 27 29  1  0  0  0  0
 27 30  1  0  0  0  0
 28 27  1  0  0  0  0
 30 35  1  0  0  0  0
 31 30  1  0  0  0  0
 32 30  1  0  0  0  0
 33 36  1  6  0  0  0
 33 34  1  0  0  0  0
 33 40  1  0  0  0  0
 34 37  1  0  0  0  0
 35 33  1  0  0  0  0
 35 39  1  1  0  0  0
 35 34  1  0  0  0  0
 38 34  1  0  0  0  0
 40 41  1  0  0  0  0
 40 42  1  0  0  0  0
 43 44  2  0  0  0  0
 43 48  1  0  0  0  0
 44 45  1  0  0  0  0
 45 40  1  0  0  0  0
 45 46  2  0  0  0  0
 47 46  1  0  0  0  0
 47 51  1  0  0  0  0
 48 47  2  0  0  0  0
 49 43  1  0  0  0  0
 50 44  1  0  0  0  0
M  END
>  <minimizedAffinity>
-5.97627878

$$$$

 OpenBabel03262520523D

 51 55  0  0  1  0  0  0  0  0999 V2000
   34.4880   30.6820   34.7310 C   0  0  0  0  0  0  0  0  0  0  0  0
   34.7150   29.7350   33.7470 C   0  0  0  0  0  0  0  0  0  0  0  0
   33.6590   29.2950   32.9630 C   0  0  0  0  0  0  0  0  0  0  0  0
   32.3910   29.7770   33.1370 C   0  0  0  0  0  0  0  0  0  0  0  0
   31.2150   29.5260   32.5270 N   0  0  0  0  0  0  0  0  0  0  0  0
   30.2850   30.2960   33.1170 C   0  0  0  0  0  0  0  0  0  0  0  0
   30.8170   31.0790   34.1340 C   0  0  0  0  0  0  0  0  0  0  0  0
   32.1560   30.7220   34.1170 C   0  0  0  0  0  0  0  0  0  0  0  0
   33.2070   31.1680   34.9070 C   0  0  0  0  0  0  0  0  0  0  0  0
   35.2070   31.1020   35.3930 H   0  0  0  0  0  0  0  0  0  0  0  0
   33.8480   28.5480   32.1890 H   0  0  0  0  0  0  0  0  0  0  0  0
   31.0240   28.8690   31.7460 H   0  0  0  0  0  0  0  0  0  0  0  0
   29.2340   30.3020   32.8250 H   0  0  0  0  0  0  0  0  0  0  0  0
   30.2740   31.7790   34.7550 H   0  0  0  0  0  0  0  0  0  0  0  0
   32.9980   33.5910   35.4720 C   0  0  1  0  0  3  0  0  0  0  0  0
   32.9090   32.1890   35.9530 C   0  0  2  0  0  3  0  0  0  0  0  0
   33.7240   31.9870   37.2090 C   0  0  0  0  0  3  0  0  0  0  0  0
   33.1240   31.9400   38.1360 H   0  0  0  0  0  0  0  0  0  0  0  0
   34.7030   32.9320   37.4150 O   0  0  0  0  0  0  0  0  0  0  0  0
   34.2450   34.2280   37.4990 C   0  0  0  0  0  3  0  0  0  0  0  0
   35.0260   34.8890   37.0680 H   0  0  0  0  0  0  0  0  0  0  0  0
   32.9810   34.4710   36.7130 C   0  0  2  0  0  3  0  0  0  0  0  0
   34.1290   33.9100   34.7620 O   0  0  0  0  0  0  0  0  0  0  0  0
   34.9600   33.9310   35.2680 H   0  0  0  0  0  0  0  0  0  0  0  0
   31.9080   34.0470   37.4990 O   0  0  0  0  0  0  0  0  0  0  0  0
   32.1220   34.0930   38.4780 H   0  0  0  0  0  0  0  0  0  0  0  0
   36.1140   29.2160   33.5740 C   0  0  0  0  0  0  0  0  0  0  0  0
   36.2290   28.8180   32.5500 H   0  0  0  0  0  0  0  0  0  0  0  0
   36.8650   29.9830   33.8480 H   0  0  0  0  0  0  0  0  0  0  0  0
   36.2980   28.0760   34.5710 C   0  0  0  0  0  0  0  0  0  0  0  0
   36.4110   28.5750   35.5560 H   0  0  0  0  0  0  0  0  0  0  0  0
   35.3410   27.4840   34.5050 H   0  0  0  0  0  0  0  0  0  0  0  0
   37.7940   26.1780   35.2990 C   0  0  1  0  0  0  0  0  0  0  0  0
   38.7540   27.2860   34.9300 C   0  0  0  0  0  0  0  0  0  0  0  0
   37.4380   27.1720   34.2740 C   0  0  2  0  0  0  0  0  0  0  0  0
   37.3570   26.2630   36.3250 H   0  0  0  0  0  0  0  0  0  0  0  0
   39.6780   27.0770   34.3760 H   0  0  0  0  0  0  0  0  0  0  0  0
   38.9040   28.1320   35.6580 H   0  0  0  0  0  0  0  0  0  0  0  0
   37.4960   26.7820   33.2170 H   0  0  0  0  0  0  0  0  0  0  0  0
   38.2480   24.7980   34.9330 C   0  0  0  0  0  0  0  0  0  0  0  0
   38.9330   24.7860   34.0590 H   0  0  0  0  0  0  0  0  0  0  0  0
   37.3310   24.2300   34.6080 H   0  0  0  0  0  0  0  0  0  0  0  0
   40.4630   22.6310   37.0400 C   0  0  0  0  0  0  0  0  0  0  0  0
   39.9200   23.3380   35.9210 C   0  0  0  0  0  0  0  0  0  0  0  0
   38.7850   24.0790   36.1120 C   0  0  0  0  0  0  0  0  0  0  0  0
   38.2440   24.1010   37.3320 N   0  0  0  0  0  0  0  0  0  0  0  0
   38.7500   23.4400   38.3800 C   0  0  0  0  0  0  0  0  0  0  0  0
   39.8610   22.7110   38.2120 N   0  0  0  0  0  0  0  0  0  0  0  0
   41.3690   22.0650   36.8070 H   0  0  0  0  0  0  0  0  0  0  0  0
   40.4160   23.2720   34.9560 H   0  0  0  0  0  0  0  0  0  0  0  0
   38.2490   23.5110   39.3390 H   0  0  0  0  0  0  0  0  0  0  0  0
  1  9  1  0  0  0  0
  1 10  1  0  0  0  0
  2  1  2  0  0  0  0
  3  4  2  0  0  0  0
  3  2  1  0  0  0  0
  4  8  1  0  0  0  0
  5  6  1  0  0  0  0
  5  4  1  0  0  0  0
  6  7  2  0  0  0  0
  7 14  1  0  0  0  0
  8  7  1  0  0  0  0
  8  9  2  0  0  0  0
 11  3  1  0  0  0  0
 12  5  1  0  0  0  0
 13  6  1  0  0  0  0
 15 23  1  1  0  0  0
 15 16  1  0  0  0  0
 15 22  1  0  0  0  0
 16  9  1  6  0  0  0
 16 17  1  0  0  0  0
 17 19  1  0  0  0  0
 17 18  1  0  0  0  0
 19 20  1  0  0  0  0
 21 20  1  0  0  0  0
 22 25  1  1  0  0  0
 22 20  1  0  0  0  0
 23 24  1  0  0  0  0
 25 26  1  0  0  0  0
 27  2  1  0  0  0  0
 27 29  1  0  0  0  0
 27 30  1  0  0  0  0
 28 27  1  0  0  0  0
 30 31  1  0  0  0  0
 32 30  1  0  0  0  0
 33 36  1  1  0  0  0
 34 33  1  0  0  0  0
 34 38  1  0  0  0  0
 35 39  1  6  0  0  0
 35 30  1  0  0  0  0
 35 34  1  0  0  0  0
 35 33  1  0  0  0  0
 37 34  1  0  0  0  0
 40 33  1  0  0  0  0
 40 45  1  0  0  0  0
 41 40  1  0  0  0  0
 42 40  1  0  0  0  0
 43 48  1  0  0  0  0
 44 45  1  0  0  0  0
 44 43  2  0  0  0  0
 45 46  2  0  0  0  0
 46 47  1  0  0  0  0
 47 51  1  0  0  0  0
 48 47  2  0  0  0  0
 49 43  1  0  0  0  0
 50 44  1  0  0  0  0
M  END
>  <minimizedAffinity>
-5.91689301

$$$$

 OpenBabel03262520523D

 51 55  0  0  1  0  0  0  0  0999 V2000
   36.6260   28.1250   34.1870 C   0  0  0  0  0  0  0  0  0  0  0  0
   35.6650   28.9030   33.5650 C   0  0  0  0  0  0  0  0  0  0  0  0
   35.7630   29.1560   32.2050 C   0  0  0  0  0  0  0  0  0  0  0  0
   36.7910   28.6520   31.4570 C   0  0  0  0  0  0  0  0  0  0  0  0
   37.1140   28.7420   30.1510 N   0  0  0  0  0  0  0  0  0  0  0  0
   38.2450   28.0390   29.9690 C   0  0  0  0  0  0  0  0  0  0  0  0
   38.7030   27.4640   31.1480 C   0  0  0  0  0  0  0  0  0  0  0  0
   37.7540   27.8740   32.0700 C   0  0  0  0  0  0  0  0  0  0  0  0
   37.6650   27.6160   33.4310 C   0  0  0  0  0  0  0  0  0  0  0  0
   36.6640   27.8560   35.2150 H   0  0  0  0  0  0  0  0  0  0  0  0
   34.9990   29.7710   31.7230 H   0  0  0  0  0  0  0  0  0  0  0  0
   36.6110   29.2490   29.3980 H   0  0  0  0  0  0  0  0  0  0  0  0
   38.7420   27.9360   29.0030 H   0  0  0  0  0  0  0  0  0  0  0  0
   39.5900   26.8520   31.2610 H   0  0  0  0  0  0  0  0  0  0  0  0
   38.6950   25.3510   33.6250 C   0  0  1  0  0  3  0  0  0  0  0  0
   38.7260   26.7720   34.0530 C   0  0  2  0  0  3  0  0  0  0  0  0
   38.7540   26.8920   35.5580 C   0  0  0  0  0  3  0  0  0  0  0  0
   39.7470   27.1430   35.9740 H   0  0  0  0  0  0  0  0  0  0  0  0
   38.3100   25.7750   36.2310 O   0  0  0  0  0  0  0  0  0  0  0  0
   39.0100   24.6220   35.9570 C   0  0  0  0  0  3  0  0  0  0  0  0
   38.2960   23.7740   36.0130 H   0  0  0  0  0  0  0  0  0  0  0  0
   39.6150   24.5980   34.5750 C   0  0  2  0  0  3  0  0  0  0  0  0
   37.4680   24.7360   33.6740 O   0  0  0  0  0  0  0  0  0  0  0  0
   37.1050   24.5760   34.5620 H   0  0  0  0  0  0  0  0  0  0  0  0
   40.8150   25.3080   34.6280 O   0  0  0  0  0  0  0  0  0  0  0  0
   41.2160   25.2940   35.5480 H   0  0  0  0  0  0  0  0  0  0  0  0
   34.5460   29.4510   34.4050 C   0  0  0  0  0  0  0  0  0  0  0  0
   34.3780   28.7810   35.2670 H   0  0  0  0  0  0  0  0  0  0  0  0
   34.7310   30.5070   34.6810 H   0  0  0  0  0  0  0  0  0  0  0  0
   33.2930   29.4600   33.5340 C   0  0  0  0  0  0  0  0  0  0  0  0
   33.4630   30.2730   32.7990 H   0  0  0  0  0  0  0  0  0  0  0  0
   33.2810   28.4440   33.0450 H   0  0  0  0  0  0  0  0  0  0  0  0
   32.0760   29.5150   35.7440 C   0  0  1  0  0  0  0  0  0  0  0  0
   31.2860   28.5320   34.9110 C   0  0  0  0  0  0  0  0  0  0  0  0
   32.0230   29.6430   34.2790 C   0  0  2  0  0  0  0  0  0  0  0  0
   32.9910   29.0880   36.2270 H   0  0  0  0  0  0  0  0  0  0  0  0
   30.1900   28.5230   34.9290 H   0  0  0  0  0  0  0  0  0  0  0  0
   31.6960   27.4910   34.7760 H   0  0  0  0  0  0  0  0  0  0  0  0
   31.3520   30.4750   33.9170 H   0  0  0  0  0  0  0  0  0  0  0  0
   31.2550   30.3890   36.6420 C   0  0  0  0  0  0  0  0  0  0  0  0
   30.9410   29.8760   37.5760 H   0  0  0  0  0  0  0  0  0  0  0  0
   30.3020   30.6200   36.0870 H   0  0  0  0  0  0  0  0  0  0  0  0
   33.9340   32.8970   37.4020 C   0  0  0  0  0  0  0  0  0  0  0  0
   33.2610   31.6570   37.1650 C   0  0  0  0  0  0  0  0  0  0  0  0
   31.9220   31.6910   36.8810 C   0  0  0  0  0  0  0  0  0  0  0  0
   31.3160   32.8790   36.8400 N   0  0  0  0  0  0  0  0  0  0  0  0
   31.9430   34.0400   37.0620 C   0  0  0  0  0  0  0  0  0  0  0  0
   33.2530   34.0260   37.3400 N   0  0  0  0  0  0  0  0  0  0  0  0
   35.0000   32.7860   37.6210 H   0  0  0  0  0  0  0  0  0  0  0  0
   33.8210   30.7270   37.2160 H   0  0  0  0  0  0  0  0  0  0  0  0
   31.3770   34.9630   37.0100 H   0  0  0  0  0  0  0  0  0  0  0  0
  1 10  1  0  0  0  0
  2  1  1  0  0  0  0
  2 27  1  0  0  0  0
  3  2  2  0  0  0  0
  4  8  2  0  0  0  0
  4  3  1  0  0  0  0
  5  4  1  0  0  0  0
  6  5  1  0  0  0  0
  6  7  2  0  0  0  0
  7 14  1  0  0  0  0
  7  8  1  0  0  0  0
  8  9  1  0  0  0  0
  9  1  2  0  0  0  0
 11  3  1  0  0  0  0
 12  5  1  0  0  0  0
 13  6  1  0  0  0  0
 15 23  1  1  0  0  0
 15 16  1  0  0  0  0
 15 22  1  0  0  0  0
 16  9  1  1  0  0  0
 16 17  1  0  0  0  0
 17 18  1  0  0  0  0
 17 19  1  0  0  0  0
 20 21  1  0  0  0  0
 20 19  1  0  0  0  0
 22 25  1  1  0  0  0
 22 20  1  0  0  0  0
 23 24  1  0  0  0  0
 25 26  1  0  0  0  0
 27 29  1  0  0  0  0
 27 28  1  0  0  0  0
 30 35  1  0  0  0  0
 30 27  1  0  0  0  0
 31 30  1  0  0  0  0
 32 30  1  0  0  0  0
 33 36  1  1  0  0  0
 33 40  1  0  0  0  0
 34 37  1  0  0  0  0
 34 33  1  0  0  0  0
 35 39  1  6  0  0  0
 35 34  1  0  0  0  0
 35 33  1  0  0  0  0
 38 34  1  0  0  0  0
 40 45  1  0  0  0  0
 40 41  1  0  0  0  0
 42 40  1  0  0  0  0
 43 49  1  0  0  0  0
 44 50  1  0  0  0  0
 44 43  2  0  0  0  0
 45 44  1  0  0  0  0
 46 45  2  0  0  0  0
 46 47  1  0  0  0  0
 47 48  2  0  0  0  0
 48 43  1  0  0  0  0
 51 47  1  0  0  0  0
M  END
>  <minimizedAffinity>
-5.84155607

$$$$

 OpenBabel03262520523D

 51 55  0  0  1  0  0  0  0  0999 V2000
   39.2640   25.6530   34.5640 C   0  0  0  0  0  0  0  0  0  0  0  0
   38.1110   25.7170   35.3260 C   0  0  0  0  0  0  0  0  0  0  0  0
   37.9350   24.8330   36.3800 C   0  0  0  0  0  0  0  0  0  0  0  0
   38.8790   23.8930   36.6880 C   0  0  0  0  0  0  0  0  0  0  0  0
   38.9570   22.9380   37.6370 N   0  0  0  0  0  0  0  0  0  0  0  0
   40.1270   22.2990   37.4660 C   0  0  0  0  0  0  0  0  0  0  0  0
   40.8580   22.8120   36.4020 C   0  0  0  0  0  0  0  0  0  0  0  0
   40.0340   23.8220   35.9330 C   0  0  0  0  0  0  0  0  0  0  0  0
   40.2190   24.7030   34.8760 C   0  0  0  0  0  0  0  0  0  0  0  0
   39.5200   26.2710   33.7380 H   0  0  0  0  0  0  0  0  0  0  0  0
   37.0210   24.8920   36.9750 H   0  0  0  0  0  0  0  0  0  0  0  0
   38.2650   22.7080   38.3750 H   0  0  0  0  0  0  0  0  0  0  0  0
   40.4600   21.4720   38.0960 H   0  0  0  0  0  0  0  0  0  0  0  0
   41.8280   22.4690   36.0650 H   0  0  0  0  0  0  0  0  0  0  0  0
   42.5810   25.4530   34.5840 C   0  0  1  0  0  3  0  0  0  0  0  0
   41.4790   24.5920   34.0860 C   0  0  2  0  0  3  0  0  0  0  0  0
   41.2550   24.7890   32.6060 C   0  0  0  0  0  3  0  0  0  0  0  0
   41.6610   23.9770   31.9740 H   0  0  0  0  0  0  0  0  0  0  0  0
   41.7490   25.9710   32.1020 O   0  0  0  0  0  0  0  0  0  0  0  0
   43.1020   26.1500   32.2790 C   0  0  0  0  0  3  0  0  0  0  0  0
   43.2820   27.2370   32.4220 H   0  0  0  0  0  0  0  0  0  0  0  0
   43.6480   25.4510   33.4990 C   0  0  2  0  0  3  0  0  0  0  0  0
   42.2540   26.7640   34.8300 O   0  0  0  0  0  0  0  0  0  0  0  0
   42.0530   27.3090   34.0500 H   0  0  0  0  0  0  0  0  0  0  0  0
   43.8760   24.1180   33.1540 O   0  0  0  0  0  0  0  0  0  0  0  0
   44.0510   24.0120   32.1710 H   0  0  0  0  0  0  0  0  0  0  0  0
   37.0840   26.7540   34.9690 C   0  0  0  0  0  0  0  0  0  0  0  0
   36.0870   26.2800   34.9310 H   0  0  0  0  0  0  0  0  0  0  0  0
   37.1430   27.6290   35.6470 H   0  0  0  0  0  0  0  0  0  0  0  0
   37.4360   27.2780   33.5800 C   0  0  0  0  0  0  0  0  0  0  0  0
   37.4170   28.3820   33.6790 H   0  0  0  0  0  0  0  0  0  0  0  0
   38.4760   26.8880   33.3860 H   0  0  0  0  0  0  0  0  0  0  0  0
   37.0110   25.6720   31.6790 C   0  0  1  0  0  0  0  0  0  0  0  0
   36.8090   27.0380   31.0630 C   0  0  0  0  0  0  0  0  0  0  0  0
   36.5410   26.8040   32.4950 C   0  0  2  0  0  0  0  0  0  0  0  0
   38.0790   25.3470   31.7520 H   0  0  0  0  0  0  0  0  0  0  0  0
   35.9870   27.2290   30.3620 H   0  0  0  0  0  0  0  0  0  0  0  0
   37.7180   27.6460   30.7950 H   0  0  0  0  0  0  0  0  0  0  0  0
   35.4410   26.7630   32.7440 H   0  0  0  0  0  0  0  0  0  0  0  0
   36.0730   24.6110   31.1900 C   0  0  0  0  0  0  0  0  0  0  0  0
   36.1030   24.4830   30.0870 H   0  0  0  0  0  0  0  0  0  0  0  0
   35.0300   24.9640   31.4270 H   0  0  0  0  0  0  0  0  0  0  0  0
   37.6150   22.0170   33.4120 C   0  0  0  0  0  0  0  0  0  0  0  0
   37.4040   23.2280   32.6820 C   0  0  0  0  0  0  0  0  0  0  0  0
   36.2610   23.3440   31.9360 C   0  0  0  0  0  0  0  0  0  0  0  0
   35.4060   22.3190   31.9290 N   0  0  0  0  0  0  0  0  0  0  0  0
   35.6020   21.1850   32.6110 C   0  0  0  0  0  0  0  0  0  0  0  0
   36.7140   21.0550   33.3470 N   0  0  0  0  0  0  0  0  0  0  0  0
   38.5480   22.0010   33.9820 H   0  0  0  0  0  0  0  0  0  0  0  0
   38.1460   24.0200   32.7350 H   0  0  0  0  0  0  0  0  0  0  0  0
   34.8570   20.4000   32.5520 H   0  0  0  0  0  0  0  0  0  0  0  0
  1  9  2  0  0  0  0
  1  2  1  0  0  0  0
  2  3  2  0  0  0  0
  3  4  1  0  0  0  0
  3 11  1  0  0  0  0
  4  5  1  0  0  0  0
  5 12  1  0  0  0  0
  6  5  1  0  0  0  0
  6 13  1  0  0  0  0
  7  6  2  0  0  0  0
  8  7  1  0  0  0  0
  8  4  2  0  0  0  0
  9  8  1  0  0  0  0
 10  1  1  0  0  0  0
 14  7  1  0  0  0  0
 15 23  1  6  0  0  0
 16 15  1  0  0  0  0
 16  9  1  1  0  0  0
 17 16  1  0  0  0  0
 18 17  1  0  0  0  0
 19 20  1  0  0  0  0
 19 17  1  0  0  0  0
 20 21  1  0  0  0  0
 20 22  1  0  0  0  0
 22 25  1  6  0  0  0
 22 15  1  0  0  0  0
 24 23  1  0  0  0  0
 26 25  1  0  0  0  0
 27  2  1  0  0  0  0
 27 29  1  0  0  0  0
 28 27  1  0  0  0  0
 30 31  1  0  0  0  0
 30 27  1  0  0  0  0
 32 30  1  0  0  0  0
 33 36  1  1  0  0  0
 33 35  1  0  0  0  0
 34 33  1  0  0  0  0
 34 35  1  0  0  0  0
 35 39  1  1  0  0  0
 35 30  1  0  0  0  0
 37 34  1  0  0  0  0
 38 34  1  0  0  0  0
 40 42  1  0  0  0  0
 40 33  1  0  0  0  0
 40 45  1  0  0  0  0
 41 40  1  0  0  0  0
 43 49  1  0  0  0  0
 44 50  1  0  0  0  0
 44 43  2  0  0  0  0
 45 44  1  0  0  0  0
 46 45  2  0  0  0  0
 46 47  1  0  0  0  0
 47 48  2  0  0  0  0
 48 43  1  0  0  0  0
 51 47  1  0  0  0  0
M  END
>  <minimizedAffinity>
-5.75273132

$$$$

 OpenBabel03262520523D

 51 55  0  0  1  0  0  0  0  0999 V2000
   36.4290   26.8110   32.0080 C   0  0  0  0  0  0  0  0  0  0  0  0
   36.8050   25.4890   32.1740 C   0  0  0  0  0  0  0  0  0  0  0  0
   37.4460   25.1010   33.3420 C   0  0  0  0  0  0  0  0  0  0  0  0
   37.7170   25.9970   34.3390 C   0  0  0  0  0  0  0  0  0  0  0  0
   38.3120   25.8860   35.5440 N   0  0  0  0  0  0  0  0  0  0  0  0
   38.3050   27.1060   36.1080 C   0  0  0  0  0  0  0  0  0  0  0  0
   37.7060   28.0590   35.2940 C   0  0  0  0  0  0  0  0  0  0  0  0
   37.3440   27.3180   34.1810 C   0  0  0  0  0  0  0  0  0  0  0  0
   36.7030   27.7160   33.0150 C   0  0  0  0  0  0  0  0  0  0  0  0
   35.9320   27.2330   31.1680 H   0  0  0  0  0  0  0  0  0  0  0  0
   37.7390   24.0560   33.4640 H   0  0  0  0  0  0  0  0  0  0  0  0
   38.7130   25.0380   35.9870 H   0  0  0  0  0  0  0  0  0  0  0  0
   38.7240   27.3180   37.0930 H   0  0  0  0  0  0  0  0  0  0  0  0
   37.5770   29.1090   35.5230 H   0  0  0  0  0  0  0  0  0  0  0  0
   34.9180   29.4390   33.2830 C   0  0  1  0  0  3  0  0  0  0  0  0
   36.3190   29.1510   32.8850 C   0  0  2  0  0  3  0  0  0  0  0  0
   36.6270   29.7120   31.5170 C   0  0  0  0  0  3  0  0  0  0  0  0
   37.2260   30.6400   31.5320 H   0  0  0  0  0  0  0  0  0  0  0  0
   35.5200   29.9640   30.7380 O   0  0  0  0  0  0  0  0  0  0  0  0
   34.6200   30.8500   31.2860 C   0  0  0  0  0  3  0  0  0  0  0  0
   33.6050   30.5430   30.9590 H   0  0  0  0  0  0  0  0  0  0  0  0
   34.6160   30.8480   32.7940 C   0  0  2  0  0  3  0  0  0  0  0  0
   33.9600   28.6100   32.7530 O   0  0  0  0  0  0  0  0  0  0  0  0
   33.8050   28.6930   31.7960 H   0  0  0  0  0  0  0  0  0  0  0  0
   35.6670   31.6620   33.2190 O   0  0  0  0  0  0  0  0  0  0  0  0
   35.8950   32.3630   32.5390 H   0  0  0  0  0  0  0  0  0  0  0  0
   36.5020   24.5220   31.0660 C   0  0  0  0  0  0  0  0  0  0  0  0
   36.3120   25.0840   30.1350 H   0  0  0  0  0  0  0  0  0  0  0  0
   37.2940   23.7520   30.9760 H   0  0  0  0  0  0  0  0  0  0  0  0
   35.2330   23.7710   31.4580 C   0  0  0  0  0  0  0  0  0  0  0  0
   34.8430   24.3130   32.3430 H   0  0  0  0  0  0  0  0  0  0  0  0
   34.5540   23.8760   30.5640 H   0  0  0  0  0  0  0  0  0  0  0  0
   36.8110   21.8170   31.7120 C   0  0  1  0  0  0  0  0  0  0  0  0
   35.7940   21.3430   30.6990 C   0  0  0  0  0  0  0  0  0  0  0  0
   35.4300   22.3260   31.7370 C   0  0  2  0  0  0  0  0  0  0  0  0
   37.6260   22.4560   31.2890 H   0  0  0  0  0  0  0  0  0  0  0  0
   35.3950   20.3210   30.7290 H   0  0  0  0  0  0  0  0  0  0  0  0
   35.8790   21.7110   29.6380 H   0  0  0  0  0  0  0  0  0  0  0  0
   34.7970   21.8910   32.5640 H   0  0  0  0  0  0  0  0  0  0  0  0
   37.2820   20.7700   32.6750 C   0  0  0  0  0  0  0  0  0  0  0  0
   38.3510   20.5020   32.5330 H   0  0  0  0  0  0  0  0  0  0  0  0
   36.7010   19.8330   32.4460 H   0  0  0  0  0  0  0  0  0  0  0  0
   37.5130   22.3590   36.0610 C   0  0  0  0  0  0  0  0  0  0  0  0
   37.8080   21.9870   34.7110 C   0  0  0  0  0  0  0  0  0  0  0  0
   36.9470   21.1360   34.0710 C   0  0  0  0  0  0  0  0  0  0  0  0
   35.8790   20.6980   34.7410 N   0  0  0  0  0  0  0  0  0  0  0  0
   35.6020   21.0440   36.0030 C   0  0  0  0  0  0  0  0  0  0  0  0
   36.4320   21.8760   36.6450 N   0  0  0  0  0  0  0  0  0  0  0  0
   38.2460   23.0410   36.5020 H   0  0  0  0  0  0  0  0  0  0  0  0
   38.6980   22.3840   34.2300 H   0  0  0  0  0  0  0  0  0  0  0  0
   34.7120   20.6430   36.4760 H   0  0  0  0  0  0  0  0  0  0  0  0
  1  2  2  0  0  0  0
  1  9  1  0  0  0  0
  2  3  1  0  0  0  0
  3 11  1  0  0  0  0
  3  4  2  0  0  0  0
  4  5  1  0  0  0  0
  5 12  1  0  0  0  0
  5  6  1  0  0  0  0
  6 13  1  0  0  0  0
  7 14  1  0  0  0  0
  7  6  2  0  0  0  0
  8  4  1  0  0  0  0
  8  7  1  0  0  0  0
  9  8  2  0  0  0  0
 10  1  1  0  0  0  0
 15 23  1  6  0  0  0
 16  9  1  6  0  0  0
 16 15  1  0  0  0  0
 17 18  1  0  0  0  0
 17 16  1  0  0  0  0
 19 20  1  0  0  0  0
 19 17  1  0  0  0  0
 20 22  1  0  0  0  0
 21 20  1  0  0  0  0
 22 25  1  1  0  0  0
 22 15  1  0  0  0  0
 24 23  1  0  0  0  0
 26 25  1  0  0  0  0
 27 30  1  0  0  0  0
 27  2  1  0  0  0  0
 28 27  1  0  0  0  0
 29 27  1  0  0  0  0
 30 35  1  0  0  0  0
 30 31  1  0  0  0  0
 32 30  1  0  0  0  0
 33 36  1  6  0  0  0
 33 35  1  0  0  0  0
 33 40  1  0  0  0  0
 34 37  1  0  0  0  0
 34 33  1  0  0  0  0
 34 35  1  0  0  0  0
 35 39  1  1  0  0  0
 38 34  1  0  0  0  0
 40 45  1  0  0  0  0
 41 40  1  0  0  0  0
 42 40  1  0  0  0  0
 43 49  1  0  0  0  0
 43 48  1  0  0  0  0
 44 43  2  0  0  0  0
 45 44  1  0  0  0  0
 45 46  2  0  0  0  0
 46 47  1  0  0  0  0
 47 51  1  0  0  0  0
 47 48  2  0  0  0  0
 50 44  1  0  0  0  0
M  END
>  <minimizedAffinity>
-5.71884918

$$$$

 OpenBabel03262520523D

 51 55  0  0  1  0  0  0  0  0999 V2000
   40.9880   26.5360   32.9380 C   0  0  0  0  0  0  0  0  0  0  0  0
   41.0580   26.3840   34.3120 C   0  0  0  0  0  0  0  0  0  0  0  0
   39.9370   26.6420   35.0880 C   0  0  0  0  0  0  0  0  0  0  0  0
   38.7580   27.0440   34.5270 C   0  0  0  0  0  0  0  0  0  0  0  0
   37.5490   27.3530   35.0380 N   0  0  0  0  0  0  0  0  0  0  0  0
   36.7520   27.6880   34.0080 C   0  0  0  0  0  0  0  0  0  0  0  0
   37.4090   27.6110   32.7870 C   0  0  0  0  0  0  0  0  0  0  0  0
   38.6790   27.1990   33.1560 C   0  0  0  0  0  0  0  0  0  0  0  0
   39.7960   26.9440   32.3710 C   0  0  0  0  0  0  0  0  0  0  0  0
   41.7690   26.3690   32.2360 H   0  0  0  0  0  0  0  0  0  0  0  0
   40.0030   26.5180   36.1710 H   0  0  0  0  0  0  0  0  0  0  0  0
   37.2510   27.3460   36.0320 H   0  0  0  0  0  0  0  0  0  0  0  0
   35.7080   27.9850   34.1250 H   0  0  0  0  0  0  0  0  0  0  0  0
   36.9840   27.8290   31.8150 H   0  0  0  0  0  0  0  0  0  0  0  0
   39.4020   25.8640   30.1550 C   0  0  1  0  0  3  0  0  0  0  0  0
   39.6680   27.1230   30.8960 C   0  0  2  0  0  3  0  0  0  0  0  0
   40.8350   27.8750   30.3000 C   0  0  0  0  0  3  0  0  0  0  0  0
   40.5460   28.7470   29.6850 H   0  0  0  0  0  0  0  0  0  0  0  0
   41.6800   27.1060   29.5310 O   0  0  0  0  0  0  0  0  0  0  0  0
   41.0770   26.4860   28.4590 C   0  0  0  0  0  3  0  0  0  0  0  0
   41.5900   25.5140   28.3010 H   0  0  0  0  0  0  0  0  0  0  0  0
   39.6170   26.1810   28.6830 C   0  0  2  0  0  3  0  0  0  0  0  0
   40.2150   24.8030   30.4660 O   0  0  0  0  0  0  0  0  0  0  0  0
   41.1450   24.8800   30.1890 H   0  0  0  0  0  0  0  0  0  0  0  0
   38.8970   27.3450   28.4060 O   0  0  0  0  0  0  0  0  0  0  0  0
   39.3790   27.9350   27.7530 H   0  0  0  0  0  0  0  0  0  0  0  0
   42.3640   25.9440   34.9100 C   0  0  0  0  0  0  0  0  0  0  0  0
   43.0990   26.7640   34.8210 H   0  0  0  0  0  0  0  0  0  0  0  0
   42.2270   25.5690   35.9430 H   0  0  0  0  0  0  0  0  0  0  0  0
   42.8540   24.7510   34.0950 C   0  0  0  0  0  0  0  0  0  0  0  0
   42.2290   24.7570   33.1780 H   0  0  0  0  0  0  0  0  0  0  0  0
   43.9340   24.9850   33.8720 H   0  0  0  0  0  0  0  0  0  0  0  0
   42.3180   23.4630   36.1980 C   0  0  1  0  0  0  0  0  0  0  0  0
   43.7330   23.0520   35.8620 C   0  0  0  0  0  0  0  0  0  0  0  0
   42.7860   23.4480   34.8030 C   0  0  2  0  0  0  0  0  0  0  0  0
   42.2320   24.4370   36.7400 H   0  0  0  0  0  0  0  0  0  0  0  0
   44.0610   22.0090   35.9610 H   0  0  0  0  0  0  0  0  0  0  0  0
   44.5720   23.7630   36.1050 H   0  0  0  0  0  0  0  0  0  0  0  0
   42.3990   22.5770   34.1990 H   0  0  0  0  0  0  0  0  0  0  0  0
   41.4540   22.3700   36.7500 C   0  0  0  0  0  0  0  0  0  0  0  0
   41.9060   21.8650   37.6310 H   0  0  0  0  0  0  0  0  0  0  0  0
   41.3800   21.5790   35.9510 H   0  0  0  0  0  0  0  0  0  0  0  0
   37.9670   23.5690   36.0830 C   0  0  0  0  0  0  0  0  0  0  0  0
   39.3060   23.1050   35.8850 C   0  0  0  0  0  0  0  0  0  0  0  0
   40.0720   22.8480   36.9900 C   0  0  0  0  0  0  0  0  0  0  0  0
   39.5290   23.0430   38.1940 N   0  0  0  0  0  0  0  0  0  0  0  0
   38.2780   23.4770   38.3810 C   0  0  0  0  0  0  0  0  0  0  0  0
   37.5130   23.7340   37.3120 N   0  0  0  0  0  0  0  0  0  0  0  0
   37.4200   23.7510   35.1540 H   0  0  0  0  0  0  0  0  0  0  0  0
   39.6800   22.9700   34.8740 H   0  0  0  0  0  0  0  0  0  0  0  0
   37.9130   23.6100   39.3930 H   0  0  0  0  0  0  0  0  0  0  0  0
  1  2  1  0  0  0  0
  2 27  1  0  0  0  0
  2  3  2  0  0  0  0
  3 11  1  0  0  0  0
  4  5  1  0  0  0  0
  4  3  1  0  0  0  0
  5 12  1  0  0  0  0
  6 13  1  0  0  0  0
  6  5  1  0  0  0  0
  7  8  1  0  0  0  0
  7  6  2  0  0  0  0
  8  4  2  0  0  0  0
  9  1  2  0  0  0  0
  9  8  1  0  0  0  0
 10  1  1  0  0  0  0
 14  7  1  0  0  0  0
 15 23  1  1  0  0  0
 15 16  1  0  0  0  0
 16  9  1  1  0  0  0
 17 16  1  0  0  0  0
 18 17  1  0  0  0  0
 19 17  1  0  0  0  0
 20 22  1  0  0  0  0
 20 19  1  0  0  0  0
 21 20  1  0  0  0  0
 22 25  1  1  0  0  0
 22 15  1  0  0  0  0
 24 23  1  0  0  0  0
 26 25  1  0  0  0  0
 27 29  1  0  0  0  0
 28 27  1  0  0  0  0
 30 35  1  0  0  0  0
 30 27  1  0  0  0  0
 31 30  1  0  0  0  0
 32 30  1  0  0  0  0
 33 36  1  1  0  0  0
 33 40  1  0  0  0  0
 34 37  1  0  0  0  0
 34 38  1  0  0  0  0
 34 33  1  0  0  0  0
 35 39  1  6  0  0  0
 35 34  1  0  0  0  0
 35 33  1  0  0  0  0
 40 45  1  0  0  0  0
 40 41  1  0  0  0  0
 42 40  1  0  0  0  0
 43 48  1  0  0  0  0
 44 43  2  0  0  0  0
 44 45  1  0  0  0  0
 45 46  2  0  0  0  0
 46 47  1  0  0  0  0
 47 51  1  0  0  0  0
 48 47  2  0  0  0  0
 49 43  1  0  0  0  0
 50 44  1  0  0  0  0
M  END
>  <minimizedAffinity>
-5.65832043

$$$$
