
 OpenBabel03272502063D

 42 45  0  0  1  0  0  0  0  0999 V2000
   34.1750   30.3710   47.9030 F   0  0  0  0  0  0  0  0  0  0  0  0
   34.5740   29.9400   46.6620 C   0  0  0  0  0  0  0  0  0  0  0  0
   33.7030   29.3100   45.7870 C   0  0  0  0  0  0  0  0  0  0  0  0
   34.1720   28.9230   44.5490 C   0  0  0  0  0  0  0  0  0  0  0  0
   35.5010   29.1600   44.1820 C   0  0  0  0  0  0  0  0  0  0  0  0
   36.3140   29.7900   45.1020 C   0  0  0  0  0  0  0  0  0  0  0  0
   35.9030   30.1860   46.3190 C   0  0  0  0  0  0  0  0  0  0  0  0
   33.4630   28.4420   43.9120 H   0  0  0  0  0  0  0  0  0  0  0  0
   35.8310   28.8460   43.2130 H   0  0  0  0  0  0  0  0  0  0  0  0
   37.3240   29.9370   44.7440 H   0  0  0  0  0  0  0  0  0  0  0  0
   37.9150   32.2830   45.1560 Br  0  0  0  0  0  0  0  0  0  0  0  0
   37.7530   31.7970   46.9910 C   0  0  0  0  0  0  0  0  0  0  0  0
   36.8130   30.8310   47.2450 C   0  0  0  0  0  0  0  0  0  0  0  0
   36.6640   30.3920   48.5740 C   0  0  0  0  0  0  0  0  0  0  0  0
   37.4280   30.9130   49.5680 C   0  0  0  0  0  0  0  0  0  0  0  0
   38.3560   31.8850   49.2520 C   0  0  0  0  0  0  0  0  0  0  0  0
   38.5340   32.3460   47.9410 C   0  0  0  0  0  0  0  0  0  0  0  0
   35.9490   29.6340   48.8630 H   0  0  0  0  0  0  0  0  0  0  0  0
   37.3500   30.6070   50.6040 H   0  0  0  0  0  0  0  0  0  0  0  0
   38.9870   32.3290   50.0110 H   0  0  0  0  0  0  0  0  0  0  0  0
   39.4170   33.2980   47.5400 O   0  0  0  0  0  0  0  0  0  0  0  0
   40.2680   33.5660   48.0150 H   0  0  0  0  0  0  0  0  0  0  0  0
   32.1620   28.1240   47.2020 C   0  0  0  0  0  0  0  0  0  0  0  0
   32.3680   29.1290   46.2820 C   0  0  0  0  0  0  0  0  0  0  0  0
   31.2730   29.9110   45.9060 C   0  0  0  0  0  0  0  0  0  0  0  0
   30.0540   29.6590   46.4540 N   0  0  0  0  0  0  0  0  0  0  0  0
   29.8960   28.6810   47.3390 C   0  0  0  0  0  0  0  0  0  0  0  0
   30.9160   27.9240   47.7130 N   0  0  0  0  0  0  0  0  0  0  0  0
   32.9440   27.4550   47.5640 H   0  0  0  0  0  0  0  0  0  0  0  0
   31.4590   30.6850   45.1890 H   0  0  0  0  0  0  0  0  0  0  0  0
   28.3970   29.0140   49.3190 C   0  0  1  0  0  3  0  0  0  0  0  0
   28.5720   28.3910   47.9500 C   0  0  1  0  0  3  0  0  0  0  0  0
   27.4350   28.9170   47.1030 C   0  0  0  0  0  3  0  0  0  0  0  0
   27.6330   29.9250   46.6850 H   0  0  0  0  0  0  0  0  0  0  0  0
   26.3130   28.9340   47.9060 O   0  0  0  0  0  0  0  0  0  0  0  0
   26.2870   27.9420   48.8720 C   0  0  0  0  0  3  0  0  0  0  0  0
   25.2860   28.0080   49.3550 H   0  0  0  0  0  0  0  0  0  0  0  0
   27.2780   28.2250   50.0080 C   0  0  1  0  0  3  0  0  0  0  0  0
   29.5900   28.9580   49.9940 O   0  0  0  0  0  0  0  0  0  0  0  0
   30.1030   29.8180   49.9110 H   0  0  0  0  0  0  0  0  0  0  0  0
   27.8830   27.0500   50.4610 O   0  0  0  0  0  0  0  0  0  0  0  0
   28.8720   27.1420   50.5410 H   0  0  0  0  0  0  0  0  0  0  0  0
  2  1  1  0  0  0  0
  3 24  1  0  0  0  0
  3  2  2  0  0  0  0
  4  3  1  0  0  0  0
  5  4  2  0  0  0  0
  5  6  1  0  0  0  0
  6  7  2  0  0  0  0
  7  2  1  0  0  0  0
  7 13  1  0  0  0  0
  8  4  1  0  0  0  0
  9  5  1  0  0  0  0
 10  6  1  0  0  0  0
 11 12  1  0  0  0  0
 12 13  2  0  0  0  0
 12 17  1  0  0  0  0
 13 14  1  0  0  0  0
 14 18  1  0  0  0  0
 14 15  2  0  0  0  0
 15 19  1  0  0  0  0
 16 15  1  0  0  0  0
 16 20  1  0  0  0  0
 17 16  2  0  0  0  0
 21 17  1  0  0  0  0
 21 22  1  0  0  0  0
 23 29  1  0  0  0  0
 23 28  1  0  0  0  0
 24 23  2  0  0  0  0
 25 24  1  0  0  0  0
 25 26  2  0  0  0  0
 26 27  1  0  0  0  0
 27 28  2  0  0  0  0
 30 25  1  0  0  0  0
 31 39  1  1  0  0  0
 31 38  1  0  0  0  0
 32 27  1  6  0  0  0
 32 31  1  0  0  0  0
 33 35  1  0  0  0  0
 33 32  1  0  0  0  0
 34 33  1  0  0  0  0
 35 36  1  0  0  0  0
 36 37  1  0  0  0  0
 36 38  1  0  0  0  0
 38 41  1  6  0  0  0
 40 39  1  0  0  0  0
 41 42  1  0  0  0  0
M  END
>  <minimizedAffinity>
-7.71090603

>  <minimizedRMSD>
0.547766209

$$$$
