
 OpenBabel03272502063D

 42 45  0  0  1  0  0  0  0  0999 V2000
   34.3730   30.4320   47.5680 F   0  0  0  0  0  0  0  0  0  0  0  0
   34.7380   29.9580   46.3320 C   0  0  0  0  0  0  0  0  0  0  0  0
   33.8370   29.3190   45.4940 C   0  0  0  0  0  0  0  0  0  0  0  0
   34.2710   28.8880   44.2590 C   0  0  0  0  0  0  0  0  0  0  0  0
   35.5960   29.0900   43.8570 C   0  0  0  0  0  0  0  0  0  0  0  0
   36.4400   29.7320   44.7400 C   0  0  0  0  0  0  0  0  0  0  0  0
   36.0620   30.1690   45.9540 C   0  0  0  0  0  0  0  0  0  0  0  0
   33.5400   28.4020   43.6510 H   0  0  0  0  0  0  0  0  0  0  0  0
   35.8990   28.7420   42.8900 H   0  0  0  0  0  0  0  0  0  0  0  0
   37.4440   29.8500   44.3570 H   0  0  0  0  0  0  0  0  0  0  0  0
   37.9040   32.3890   44.7360 Br  0  0  0  0  0  0  0  0  0  0  0  0
   37.8840   31.8390   46.5600 C   0  0  0  0  0  0  0  0  0  0  0  0
   37.0030   30.8240   46.8400 C   0  0  0  0  0  0  0  0  0  0  0  0
   36.9610   30.3380   48.1600 C   0  0  0  0  0  0  0  0  0  0  0  0
   37.7660   30.8610   49.1210 C   0  0  0  0  0  0  0  0  0  0  0  0
   38.6300   31.8820   48.7790 C   0  0  0  0  0  0  0  0  0  0  0  0
   38.7020   32.3910   47.4760 C   0  0  0  0  0  0  0  0  0  0  0  0
   36.2990   29.5400   48.4690 H   0  0  0  0  0  0  0  0  0  0  0  0
   37.7700   30.5190   50.1480 H   0  0  0  0  0  0  0  0  0  0  0  0
   39.2910   32.3290   49.5100 H   0  0  0  0  0  0  0  0  0  0  0  0
   39.5170   33.3940   47.0510 O   0  0  0  0  0  0  0  0  0  0  0  0
   40.3850   33.6830   47.4800 H   0  0  0  0  0  0  0  0  0  0  0  0
   32.2780   28.1260   46.8860 C   0  0  0  0  0  0  0  0  0  0  0  0
   32.5100   29.1760   46.0230 C   0  0  0  0  0  0  0  0  0  0  0  0
   31.4480   30.0370   45.7350 C   0  0  0  0  0  0  0  0  0  0  0  0
   30.2350   29.8150   46.3080 N   0  0  0  0  0  0  0  0  0  0  0  0
   30.0510   28.7910   47.1350 C   0  0  0  0  0  0  0  0  0  0  0  0
   31.0400   27.9590   47.4250 N   0  0  0  0  0  0  0  0  0  0  0  0
   33.0340   27.3960   47.1780 H   0  0  0  0  0  0  0  0  0  0  0  0
   31.6530   30.8450   45.0620 H   0  0  0  0  0  0  0  0  0  0  0  0
   27.5640   29.0170   46.9430 C   0  0  1  0  0  3  0  0  0  0  0  0
   28.7340   28.5320   47.7730 C   0  0  1  0  0  3  0  0  0  0  0  0
   28.5020   27.0540   48.0000 C   0  0  0  0  0  3  0  0  0  0  0  0
   28.8260   26.4250   47.1470 H   0  0  0  0  0  0  0  0  0  0  0  0
   27.1500   26.8960   48.2360 O   0  0  0  0  0  0  0  0  0  0  0  0
   26.5480   27.9740   48.8630 C   0  0  0  0  0  3  0  0  0  0  0  0
   25.5050   27.6570   49.0890 H   0  0  0  0  0  0  0  0  0  0  0  0
   26.3850   29.1680   47.9130 C   0  0  1  0  0  3  0  0  0  0  0  0
   27.9080   30.1940   46.3270 O   0  0  0  0  0  0  0  0  0  0  0  0
   28.2260   30.0390   45.3850 H   0  0  0  0  0  0  0  0  0  0  0  0
   26.6050   30.3780   48.5730 O   0  0  0  0  0  0  0  0  0  0  0  0
   27.2180   30.9780   48.0650 H   0  0  0  0  0  0  0  0  0  0  0  0
  2  1  1  0  0  0  0
  3 24  1  0  0  0  0
  3  2  2  0  0  0  0
  4  3  1  0  0  0  0
  5  4  2  0  0  0  0
  5  6  1  0  0  0  0
  6  7  2  0  0  0  0
  7  2  1  0  0  0  0
  7 13  1  0  0  0  0
  8  4  1  0  0  0  0
  9  5  1  0  0  0  0
 10  6  1  0  0  0  0
 11 12  1  0  0  0  0
 12 13  2  0  0  0  0
 12 17  1  0  0  0  0
 13 14  1  0  0  0  0
 14 18  1  0  0  0  0
 14 15  2  0  0  0  0
 15 19  1  0  0  0  0
 16 15  1  0  0  0  0
 16 20  1  0  0  0  0
 17 16  2  0  0  0  0
 21 17  1  0  0  0  0
 21 22  1  0  0  0  0
 23 29  1  0  0  0  0
 23 28  1  0  0  0  0
 24 23  2  0  0  0  0
 25 24  1  0  0  0  0
 25 26  2  0  0  0  0
 26 27  1  0  0  0  0
 27 28  2  0  0  0  0
 30 25  1  0  0  0  0
 31 39  1  1  0  0  0
 31 32  1  0  0  0  0
 31 38  1  0  0  0  0
 32 27  1  6  0  0  0
 32 33  1  0  0  0  0
 33 35  1  0  0  0  0
 34 33  1  0  0  0  0
 35 36  1  0  0  0  0
 36 37  1  0  0  0  0
 38 41  1  1  0  0  0
 38 36  1  0  0  0  0
 40 39  1  0  0  0  0
 42 41  1  0  0  0  0
M  END
>  <minimizedAffinity>
-6.97356415

>  <minimizedRMSD>
0.541966438

$$$$
