
     RDKit          3D

 32 33  0  0  0  0  0  0  0  0999 V2000
   35.6445   30.4770   49.7440 C   0  0  0  0  0  0  0  0  0  0  0  0
   35.9696   29.4824   50.6757 C   0  0  0  0  0  0  0  0  0  0  0  0
   37.2273   29.5155   51.2562 C   0  0  0  0  0  0  0  0  0  0  0  0
   38.1008   30.4923   50.9161 N   0  0  0  0  0  0  0  0  0  0  0  0
   37.7570   31.4542   50.0007 C   0  0  0  0  0  0  0  0  0  0  0  0
   36.5283   31.4391   49.4202 N   0  0  0  0  0  0  0  0  0  0  0  0
   34.4339   30.5829   49.0779 O   0  0  0  0  0  0  0  0  0  0  0  0
   35.4992   30.1610   46.6404 O   0  0  0  0  0  0  0  0  0  0  0  0
   34.2277   30.0136   47.4662 P   0  0  0  0  0  0  0  0  0  0  0  0
   33.7612   28.3906   47.5777 O   0  0  0  0  0  0  0  0  0  0  0  0
   33.0523   30.9415   46.6819 O   0  0  0  0  0  0  0  0  0  0  0  0
   35.2079   28.7470   50.8817 H   0  0  0  0  0  0  0  0  0  0  0  0
   38.4543   32.2406   49.7240 H   0  0  0  0  0  0  0  0  0  0  0  0
   34.6303   27.8784   47.6122 H   0  0  0  0  0  0  0  0  0  0  0  0
   33.1771   30.8973   45.6963 H   0  0  0  0  0  0  0  0  0  0  0  0
   39.7256   27.9254   51.3494 O   0  0  0  0  0  0  0  0  0  0  0  0
   38.4636   27.3928   51.6098 C   0  0  2  0  0  0  0  0  0  0  0  0
   37.5865   28.4891   52.2293 C   0  0  1  0  0  0  0  0  0  0  0  0
   38.2929   28.9695   53.4532 C   0  0  1  0  0  0  0  0  0  0  0  0
   38.4566   30.0716   53.4439 H   0  0  0  0  0  0  0  0  0  0  0  0
   39.5557   28.4058   53.6349 O   0  0  0  0  0  0  0  0  0  0  0  0
   39.5433   27.0272   53.7394 C   0  0  1  0  0  0  0  0  0  0  0  0
   40.5707   26.6783   53.4928 H   0  0  0  0  0  0  0  0  0  0  0  0
   38.6298   26.3817   52.7272 C   0  0  2  0  0  0  0  0  0  0  0  0
   39.0468   25.1524   52.2789 O   0  0  0  0  0  0  0  0  0  0  0  0
   39.9853   27.8740   50.3933 H   0  0  0  0  0  0  0  0  0  0  0  0
   37.9786   26.9688   50.7097 H   0  0  0  0  0  0  0  0  0  0  0  0
   36.6655   27.9595   52.5670 H   0  0  0  0  0  0  0  0  0  0  0  0
   37.7065   28.7891   54.3986 H   0  0  0  0  0  0  0  0  0  0  0  0
   39.3097   26.6385   54.7372 H   0  0  0  0  0  0  0  0  0  0  0  0
   37.6219   26.2798   53.2184 H   0  0  0  0  0  0  0  0  0  0  0  0
   38.2096   24.6555   52.0153 H   0  0  0  0  0  0  0  0  0  0  0  0
  1  2  2  0
  2  3  1  0
  4  3  2  0
  5  4  1  0
  6  1  1  0
  6  5  2  0
  7  1  1  0
  8  9  2  0
  9 10  1  0
  9  7  1  0
 11  9  1  0
  2 12  1  0
  5 13  1  0
 10 14  1  0
 11 15  1  0
 16 17  1  0
 17 18  1  0
 18 19  1  0
 19 20  1  6
 19 21  1  0
 21 22  1  0
 22 23  1  6
 22 24  1  0
 24 25  1  0
 24 17  1  0
 16 26  1  0
 17 27  1  6
 18 28  1  1
 19 29  1  0
 22 30  1  0
 24 31  1  1
 25 32  1  0
  3 18  1  0
M  ISO  6  12  14  13  14  14   3  15   3  20   8  23   8
M  END
>  <DihAtoms>  (1) 
1,2,17,16

>  <DihDeg>  (1) 
115.72620298707838

$$$$
