
 OpenBabel03272502063D

 42 45  0  0  1  0  0  0  0  0999 V2000
   34.1130   30.3700   47.8920 F   0  0  0  0  0  0  0  0  0  0  0  0
   34.5250   29.9340   46.6570 C   0  0  0  0  0  0  0  0  0  0  0  0
   33.6580   29.3170   45.7690 C   0  0  0  0  0  0  0  0  0  0  0  0
   34.1400   28.9240   44.5380 C   0  0  0  0  0  0  0  0  0  0  0  0
   35.4770   29.1430   44.1910 C   0  0  0  0  0  0  0  0  0  0  0  0
   36.2850   29.7610   45.1230 C   0  0  0  0  0  0  0  0  0  0  0  0
   35.8620   30.1610   46.3350 C   0  0  0  0  0  0  0  0  0  0  0  0
   33.4340   28.4540   43.8900 H   0  0  0  0  0  0  0  0  0  0  0  0
   35.8170   28.8250   43.2260 H   0  0  0  0  0  0  0  0  0  0  0  0
   37.3030   29.8940   44.7810 H   0  0  0  0  0  0  0  0  0  0  0  0
   37.8940   32.2600   45.2090 Br  0  0  0  0  0  0  0  0  0  0  0  0
   37.7140   31.7560   47.0380 C   0  0  0  0  0  0  0  0  0  0  0  0
   36.7670   30.7920   47.2740 C   0  0  0  0  0  0  0  0  0  0  0  0
   36.6040   30.3410   48.5980 C   0  0  0  0  0  0  0  0  0  0  0  0
   37.3630   30.8490   49.6040 C   0  0  0  0  0  0  0  0  0  0  0  0
   38.2980   31.8190   49.3050 C   0  0  0  0  0  0  0  0  0  0  0  0
   38.4890   32.2920   48.0000 C   0  0  0  0  0  0  0  0  0  0  0  0
   35.8840   29.5830   48.8730 H   0  0  0  0  0  0  0  0  0  0  0  0
   37.2740   30.5330   50.6350 H   0  0  0  0  0  0  0  0  0  0  0  0
   38.9250   32.2530   50.0730 H   0  0  0  0  0  0  0  0  0  0  0  0
   39.3810   33.2450   47.6160 O   0  0  0  0  0  0  0  0  0  0  0  0
   40.2280   33.5030   48.1010 H   0  0  0  0  0  0  0  0  0  0  0  0
   32.0750   28.1340   47.1400 C   0  0  0  0  0  0  0  0  0  0  0  0
   32.3140   29.1530   46.2440 C   0  0  0  0  0  0  0  0  0  0  0  0
   31.2400   29.9660   45.8720 C   0  0  0  0  0  0  0  0  0  0  0  0
   30.0100   29.7300   46.3990 N   0  0  0  0  0  0  0  0  0  0  0  0
   29.8190   28.7370   47.2620 C   0  0  0  0  0  0  0  0  0  0  0  0
   30.8190   27.9510   47.6310 N   0  0  0  0  0  0  0  0  0  0  0  0
   32.8380   27.4420   47.4980 H   0  0  0  0  0  0  0  0  0  0  0  0
   31.4510   30.7510   45.1730 H   0  0  0  0  0  0  0  0  0  0  0  0
   28.3020   29.0670   49.2270 C   0  0  1  0  0  3  0  0  0  0  0  0
   28.4830   28.4630   47.8500 C   0  0  1  0  0  3  0  0  0  0  0  0
   27.3670   29.0240   46.9970 C   0  0  0  0  0  3  0  0  0  0  0  0
   27.5890   30.0340   46.5980 H   0  0  0  0  0  0  0  0  0  0  0  0
   26.2350   29.0500   47.7870 O   0  0  0  0  0  0  0  0  0  0  0  0
   26.1770   28.0430   48.7370 C   0  0  0  0  0  3  0  0  0  0  0  0
   25.1720   28.1220   49.2090 H   0  0  0  0  0  0  0  0  0  0  0  0
   27.1590   28.2890   49.8900 C   0  0  1  0  0  3  0  0  0  0  0  0
   29.4850   28.9780   49.9160 O   0  0  0  0  0  0  0  0  0  0  0  0
   30.0160   29.8300   49.8540 H   0  0  0  0  0  0  0  0  0  0  0  0
   27.7360   27.0960   50.3310 O   0  0  0  0  0  0  0  0  0  0  0  0
   28.7250   27.1680   50.4250 H   0  0  0  0  0  0  0  0  0  0  0  0
  2  1  1  0  0  0  0
  3 24  1  0  0  0  0
  3  2  2  0  0  0  0
  4  3  1  0  0  0  0
  5  4  2  0  0  0  0
  5  6  1  0  0  0  0
  6  7  2  0  0  0  0
  7  2  1  0  0  0  0
  7 13  1  0  0  0  0
  8  4  1  0  0  0  0
  9  5  1  0  0  0  0
 10  6  1  0  0  0  0
 11 12  1  0  0  0  0
 12 13  2  0  0  0  0
 12 17  1  0  0  0  0
 13 14  1  0  0  0  0
 14 18  1  0  0  0  0
 14 15  2  0  0  0  0
 15 19  1  0  0  0  0
 16 15  1  0  0  0  0
 16 20  1  0  0  0  0
 17 16  2  0  0  0  0
 21 17  1  0  0  0  0
 21 22  1  0  0  0  0
 23 29  1  0  0  0  0
 23 28  1  0  0  0  0
 24 23  2  0  0  0  0
 25 24  1  0  0  0  0
 25 26  2  0  0  0  0
 26 27  1  0  0  0  0
 27 28  2  0  0  0  0
 30 25  1  0  0  0  0
 31 38  1  0  0  0  0
 31 39  1  1  0  0  0
 32 27  1  6  0  0  0
 32 31  1  0  0  0  0
 33 35  1  0  0  0  0
 33 32  1  0  0  0  0
 34 33  1  0  0  0  0
 35 36  1  0  0  0  0
 36 37  1  0  0  0  0
 36 38  1  0  0  0  0
 38 41  1  6  0  0  0
 40 39  1  0  0  0  0
 41 42  1  0  0  0  0
M  END
>  <minimizedAffinity>
-7.68087482

>  <minimizedRMSD>
1.08580184

$$$$
