
 OpenBabel03272500073D

 42 45  0  0  1  0  0  0  0  0999 V2000
   31.2120   27.5150   48.2810 C   0  0  0  0  0  0  0  0  0  0  0  0
   30.8070   27.7740   49.5750 C   0  0  0  0  0  0  0  0  0  0  0  0
   29.5220   28.2000   49.8440 C   0  0  0  0  0  0  0  0  0  0  0  0
   28.6300   28.3720   48.7970 C   0  0  0  0  0  0  0  0  0  0  0  0
   29.0480   28.1110   47.5160 C   0  0  0  0  0  0  0  0  0  0  0  0
   30.3160   27.6890   47.2550 C   0  0  0  0  0  0  0  0  0  0  0  0
   31.4690   27.6560   50.4390 H   0  0  0  0  0  0  0  0  0  0  0  0
   29.2280   28.3980   50.8730 H   0  0  0  0  0  0  0  0  0  0  0  0
   27.6390   28.7060   49.0430 H   0  0  0  0  0  0  0  0  0  0  0  0
   28.3090   28.2630   46.7420 H   0  0  0  0  0  0  0  0  0  0  0  0
   30.7310   25.9170   45.5650 C   0  0  2  0  0  3  0  0  0  0  0  0
   30.7200   27.3990   45.8840 C   0  0  1  0  0  3  0  0  0  0  0  0
   29.9200   28.0790   44.8050 C   0  0  0  0  0  3  0  0  0  0  0  0
   30.3100   29.1190   44.6740 H   0  0  0  0  0  0  0  0  0  0  0  0
   30.1970   27.4440   43.5920 O   0  0  0  0  0  0  0  0  0  0  0  0
   31.4770   26.9720   43.4840 C   0  0  0  0  0  3  0  0  0  0  0  0
   31.6180   26.7150   42.4000 H   0  0  0  0  0  0  0  0  0  0  0  0
   31.6410   25.7360   44.3670 C   0  0  2  0  0  3  0  0  0  0  0  0
   29.4280   25.5600   45.2190 O   0  0  0  0  0  0  0  0  0  0  0  0
   29.2480   24.6350   45.5320 H   0  0  0  0  0  0  0  0  0  0  0  0
   31.3930   24.5650   43.6950 O   0  0  0  0  0  0  0  0  0  0  0  0
   32.2330   24.0410   43.6580 H   0  0  0  0  0  0  0  0  0  0  0  0
   32.5340   27.0940   48.1700 O   0  0  0  0  0  0  0  0  0  0  0  0
   35.4920   28.8910   49.1520 C   0  0  0  0  0  0  0  0  0  0  0  0
   35.4220   30.0710   48.4110 C   0  0  0  0  0  0  0  0  0  0  0  0
   34.3150   30.2290   47.5550 C   0  0  0  0  0  0  0  0  0  0  0  0
   33.3950   29.2310   47.5080 N   0  0  0  0  0  0  0  0  0  0  0  0
   33.4900   28.1140   48.2300 C   0  0  0  0  0  0  0  0  0  0  0  0
   34.5520   27.9340   49.0680 N   0  0  0  0  0  0  0  0  0  0  0  0
   36.3190   28.6800   49.8460 H   0  0  0  0  0  0  0  0  0  0  0  0
   34.2560   31.1330   46.9840 H   0  0  0  0  0  0  0  0  0  0  0  0
   36.4510   31.0280   48.5550 N   0  0  0  0  0  0  0  0  0  0  0  0
   36.6260   31.7200   49.6770 C   0  0  0  0  0  0  0  0  0  0  0  0
   37.6550   32.6540   49.7580 C   0  0  0  0  0  0  0  0  0  0  0  0
   38.4230   32.7780   48.6270 C   0  0  0  0  0  0  0  0  0  0  0  0
   39.3560   33.6230   48.6950 O   0  0  0  0  0  0  0  0  0  0  0  0
   38.2770   32.1050   47.4940 N   0  0  0  0  0  0  0  0  0  0  0  0
   37.2590   31.2030   47.4580 C   0  0  0  0  0  0  0  0  0  0  0  0
   37.1070   30.5500   46.3750 O   0  0  0  0  0  0  0  0  0  0  0  0
   35.9920   31.5830   50.5370 H   0  0  0  0  0  0  0  0  0  0  0  0
   37.8030   33.2190   50.6680 H   0  0  0  0  0  0  0  0  0  0  0  0
   38.8920   32.2440   46.6720 H   0  0  0  0  0  0  0  0  0  0  0  0
  1  2  1  0  0  0  0
  2  3  2  0  0  0  0
  2  7  1  0  0  0  0
  3  8  1  0  0  0  0
  4  9  1  0  0  0  0
  4  3  1  0  0  0  0
  5  4  2  0  0  0  0
  6  5  1  0  0  0  0
  6  1  2  0  0  0  0
 10  5  1  0  0  0  0
 11 19  1  6  0  0  0
 11 12  1  0  0  0  0
 12  6  1  1  0  0  0
 13 12  1  0  0  0  0
 14 13  1  0  0  0  0
 15 13  1  0  0  0  0
 16 15  1  0  0  0  0
 16 18  1  0  0  0  0
 17 16  1  0  0  0  0
 18 21  1  6  0  0  0
 18 11  1  0  0  0  0
 19 20  1  0  0  0  0
 22 21  1  0  0  0  0
 23 28  1  0  0  0  0
 23  1  1  0  0  0  0
 24 30  1  0  0  0  0
 25 32  1  0  0  0  0
 25 24  2  0  0  0  0
 26 25  1  0  0  0  0
 27 26  2  0  0  0  0
 27 28  1  0  0  0  0
 28 29  2  0  0  0  0
 29 24  1  0  0  0  0
 31 26  1  0  0  0  0
 32 33  1  0  0  0  0
 33 34  2  0  0  0  0
 33 40  1  0  0  0  0
 34 41  1  0  0  0  0
 35 36  2  0  0  0  0
 35 34  1  0  0  0  0
 37 35  1  0  0  0  0
 38 37  1  0  0  0  0
 38 32  1  0  0  0  0
 39 38  2  0  0  0  0
 42 37  1  0  0  0  0
M  END
>  <minimizedAffinity>
-5.89390564

>  <minimizedRMSD>
0.433383912

$$$$
