REMARK  Name = 
REMARK  6 active torsions:
REMARK  status: ('A' for Active; 'I' for Inactive)
REMARK    1  A    between atoms: C_2  and  C_12
REMARK    2  A    between atoms: C_6  and  O_16
REMARK    3  A    between atoms: O_16  and  C_18
REMARK    4  A    between atoms: C_22  and  C_39
REMARK    5  A    between atoms: O_37  and  C_38
REMARK    6  A    between atoms: C_45  and  O_46
REMARK                            x       y       z     vdW  Elec       q    Type
REMARK                         _______ _______ _______ _____ _____    ______ ____
ROOT
ATOM      1  N   UNL     1      39.582  31.868  41.719  0.00  0.00    +0.000 NA
ATOM      2  C   UNL     1      39.206  33.242  41.872  0.00  0.00    +0.000 C 
ATOM      3  C   UNL     1      37.811  33.451  41.511  0.00  0.00    +0.000 C 
ATOM      4  O   UNL     1      37.648  33.133  40.153  0.00  0.00    +0.000 OA
ATOM      5  C   UNL     1      38.078  31.885  39.791  0.00  0.00    +0.000 C 
ATOM      6  C   UNL     1      39.420  31.519  40.326  0.00  0.00    +0.000 C 
ATOM      7  H   UNL     1      39.201  31.163  42.305  0.00  0.00    +0.000 HD
ATOM      8  H   UNL     1      39.856  33.861  41.233  0.00  0.00    +0.000 HD
ATOM      9  H   UNL     1      37.636  34.570  41.529  0.00  0.00    +0.000 HD
ATOM     10  H   UNL     1      36.976  33.012  41.984  0.00  0.00    +0.000 HD
ATOM     11  H   UNL     1      38.001  31.797  38.716  0.00  0.00    +0.000 HD
ATOM     12  H   UNL     1      37.339  31.161  40.247  0.00  0.00    +0.000 HD
ATOM     13  H   UNL     1      39.456  30.388  40.294  0.00  0.00    +0.000 HD
ENDROOT
BRANCH   6  15
ATOM     14  C   UNL     1      41.834  31.934  40.357  0.00  0.00    +0.000 C 
ATOM     15  C   UNL     1      40.592  31.950  39.498  0.00  0.00    +0.000 C 
ATOM     16  C   UNL     1      40.820  31.067  38.325  0.00  0.00    +0.000 C 
ATOM     17  H   UNL     1      41.719  31.489  37.784  0.00  0.00    +0.000 HD
ATOM     18  O   UNL     1      41.200  29.772  38.667  0.00  0.00    +0.000 OA
ATOM     19  C   UNL     1      42.518  29.908  39.162  0.00  0.00    +0.000 C 
ATOM     20  H   UNL     1      43.038  30.638  38.505  0.00  0.00    +0.000 HD
ATOM     21  C   UNL     1      42.389  30.535  40.523  0.00  0.00    +0.000 C 
BRANCH  14  22
ATOM     22  O   UNL     1      41.635  32.455  41.611  0.00  0.00    +0.000 OA
ATOM     23  H   UNL     1      42.283  32.142  42.261  0.00  0.00    +0.000 HD
ENDBRANCH  14  22
BRANCH  21  24
ATOM     24  O   UNL     1      43.626  30.673  41.153  0.00  0.00    +0.000 OA
ATOM     25  H   UNL     1      44.004  31.587  41.065  0.00  0.00    +0.000 HD
ENDBRANCH  21  24
ENDBRANCH   6  15
BRANCH   2  26
ATOM     26  O   UNL     1      39.428  33.578  43.237  0.00  0.00    +0.000 OA
BRANCH  26  32
ATOM     27  C   UNL     1      36.228  30.193  46.858  0.00  0.00    +0.000 A 
ATOM     28  C   UNL     1      37.079  30.745  47.805  0.00  0.00    +0.000 A 
ATOM     29  C   UNL     1      38.074  31.659  47.434  0.00  0.00    +0.000 A 
ATOM     30  C   UNL     1      38.156  31.973  46.081  0.00  0.00    +0.000 A 
ATOM     31  N   UNL     1      39.034  32.832  45.479  0.00  0.00    +0.000 N 
ATOM     32  C   UNL     1      38.730  32.812  44.171  0.00  0.00    +0.000 A 
ATOM     33  N   UNL     1      37.721  31.991  43.950  0.00  0.00    +0.000 NA
ATOM     34  C   UNL     1      37.325  31.441  45.111  0.00  0.00    +0.000 A 
ATOM     35  C   UNL     1      36.342  30.531  45.514  0.00  0.00    +0.000 A 
ATOM     36  H   UNL     1      35.451  29.488  47.098  0.00  0.00    +0.000 HD
ATOM     37  H   UNL     1      38.747  32.101  48.156  0.00  0.00    +0.000 HD
ATOM     38  H   UNL     1      39.792  33.388  45.975  0.00  0.00    +0.000 HD
ATOM     39  H   UNL     1      35.694  30.116  44.761  0.00  0.00    +0.000 HD
BRANCH  28  42
ATOM     40  C   UNL     1      37.492  30.163  51.492  0.00  0.00    +0.000 A 
ATOM     41  C   UNL     1      37.808  30.604  50.213  0.00  0.00    +0.000 A 
ATOM     42  C   UNL     1      36.920  30.362  49.193  0.00  0.00    +0.000 A 
ATOM     43  N   UNL     1      35.759  29.689  49.513  0.00  0.00    +0.000 NA
ATOM     44  C   UNL     1      35.462  29.265  50.757  0.00  0.00    +0.000 A 
ATOM     45  N   UNL     1      36.321  29.502  51.728  0.00  0.00    +0.000 NA
ATOM     46  H   UNL     1      38.229  30.380  52.261  0.00  0.00    +0.000 HD
ATOM     47  H   UNL     1      38.715  31.133  49.953  0.00  0.00    +0.000 HD
ATOM     48  H   UNL     1      34.528  28.746  50.909  0.00  0.00    +0.000 HD
ENDBRANCH  28  42
ENDBRANCH  26  32
ENDBRANCH   2  26
TORSDOF 6
