
 OpenBabel03272506093D

 47 50  0  0  1  0  0  0  0  0999 V2000
   34.8130   28.4500   49.2050 C   0  0  0  0  0  0  0  0  0  0  0  0
   35.7040   28.2980   48.5630 H   0  0  0  0  0  0  0  0  0  0  0  0
   34.8530   27.6070   49.9390 H   0  0  0  0  0  0  0  0  0  0  0  0
   33.5560   28.3450   48.3760 C   0  0  0  0  0  0  0  0  0  0  0  0
   33.5980   28.6790   46.9750 C   0  0  0  0  0  0  0  0  0  0  0  0
   31.9180   28.3930   46.5050 S   0  0  0  0  0  0  0  0  0  0  0  0
   31.3700   27.8650   48.2350 C   0  0  0  0  0  0  0  0  0  0  0  0
   32.3990   27.9720   48.8230 N   0  0  0  0  0  0  0  0  0  0  0  0
   30.0770   27.4470   48.7350 N   0  0  0  0  0  0  0  0  0  0  0  0
   29.2200   26.7790   47.8060 C   0  0  0  0  0  0  0  0  0  0  0  0
   27.7870   26.7310   48.2150 C   0  0  0  0  0  0  0  0  0  0  0  0
   27.4940   27.5320   49.4080 N   0  0  0  0  0  0  0  0  0  0  0  0
   28.4260   27.0730   50.4230 C   0  0  0  0  0  0  0  0  0  0  0  0
   29.7440   27.7260   50.1090 C   0  0  0  0  0  0  0  0  0  0  0  0
   34.4340   29.0010   46.4250 H   0  0  0  0  0  0  0  0  0  0  0  0
   29.5960   25.7390   47.5850 H   0  0  0  0  0  0  0  0  0  0  0  0
   29.2750   27.3170   46.8360 H   0  0  0  0  0  0  0  0  0  0  0  0
   27.4920   25.6760   48.4890 H   0  0  0  0  0  0  0  0  0  0  0  0
   27.0690   27.0330   47.4240 H   0  0  0  0  0  0  0  0  0  0  0  0
   26.5430   27.1940   49.7250 H   0  0  0  0  0  0  0  0  0  0  0  0
   28.1170   27.4380   51.4320 H   0  0  0  0  0  0  0  0  0  0  0  0
   28.5590   25.9690   50.4190 H   0  0  0  0  0  0  0  0  0  0  0  0
   30.5110   27.2690   50.7680 H   0  0  0  0  0  0  0  0  0  0  0  0
   29.6380   28.8100   50.3130 H   0  0  0  0  0  0  0  0  0  0  0  0
   34.8600   29.7220   49.9550 C   0  0  0  0  0  0  0  0  0  0  0  0
   33.9270   30.3110   49.7330 H   0  0  0  0  0  0  0  0  0  0  0  0
   34.9400   29.5710   51.0460 H   0  0  0  0  0  0  0  0  0  0  0  0
   37.4400   32.3710   49.6740 C   0  0  0  0  0  0  0  0  0  0  0  0
   38.0520   32.0900   48.4630 C   0  0  0  0  0  0  0  0  0  0  0  0
   37.5690   30.9900   47.7540 C   0  0  0  0  0  0  0  0  0  0  0  0
   36.5530   30.2530   48.2480 N   0  0  0  0  0  0  0  0  0  0  0  0
   35.9940   30.5850   49.4510 C   0  0  0  0  0  0  0  0  0  0  0  0
   36.4390   31.6330   50.1490 N   0  0  0  0  0  0  0  0  0  0  0  0
   37.8240   33.2350   50.2260 H   0  0  0  0  0  0  0  0  0  0  0  0
   38.8590   32.6280   48.0090 H   0  0  0  0  0  0  0  0  0  0  0  0
   37.2390   30.9370   45.2780 C   0  0  2  0  0  3  0  0  0  0  0  0
   38.1300   30.5740   46.4410 C   0  0  1  0  0  3  0  0  0  0  0  0
   39.5010   31.1550   46.1740 C   0  0  0  0  0  3  0  0  0  0  0  0
   39.6060   32.1680   46.5590 H   0  0  0  0  0  0  0  0  0  0  0  0
   39.7730   31.0640   44.8150 O   0  0  0  0  0  0  0  0  0  0  0  0
   39.2060   29.9370   44.2370 C   0  0  0  0  0  3  0  0  0  0  0  0
   39.6220   29.8100   43.2290 H   0  0  0  0  0  0  0  0  0  0  0  0
   37.6980   30.0950   44.0850 C   0  0  2  0  0  3  0  0  0  0  0  0
   37.3340   32.2580   44.9200 O   0  0  0  0  0  0  0  0  0  0  0  0
   37.9570   32.7290   45.4980 H   0  0  0  0  0  0  0  0  0  0  0  0
   37.4440   30.8340   42.9340 O   0  0  0  0  0  0  0  0  0  0  0  0
   36.6800   31.4430   43.1140 H   0  0  0  0  0  0  0  0  0  0  0  0
  1  3  1  0  0  0  0
  1 25  1  0  0  0  0
  2  1  1  0  0  0  0
  4  8  1  0  0  0  0
  4  1  1  0  0  0  0
  5  4  2  0  0  0  0
  6  5  1  0  0  0  0
  6  7  1  0  0  0  0
  7  9  1  0  0  0  0
  7  8  2  0  0  0  0
  9 14  1  0  0  0  0
 10 11  1  0  0  0  0
 10  9  1  0  0  0  0
 11 18  1  0  0  0  0
 11 12  1  0  0  0  0
 12 20  1  0  0  0  0
 12 13  1  0  0  0  0
 13 21  1  0  0  0  0
 14 24  1  0  0  0  0
 14 13  1  0  0  0  0
 14 23  1  0  0  0  0
 15  5  1  0  0  0  0
 16 10  1  0  0  0  0
 17 10  1  0  0  0  0
 19 11  1  0  0  0  0
 22 13  1  0  0  0  0
 25 27  1  0  0  0  0
 26 25  1  0  0  0  0
 28 33  1  0  0  0  0
 28 34  1  0  0  0  0
 29 28  2  0  0  0  0
 30 31  2  0  0  0  0
 30 29  1  0  0  0  0
 31 32  1  0  0  0  0
 32 25  1  0  0  0  0
 32 33  2  0  0  0  0
 35 29  1  0  0  0  0
 36 44  1  6  0  0  0
 36 37  1  0  0  0  0
 37 30  1  1  0  0  0
 38 37  1  0  0  0  0
 38 39  1  0  0  0  0
 40 38  1  0  0  0  0
 41 40  1  0  0  0  0
 42 41  1  0  0  0  0
 43 46  1  6  0  0  0
 43 41  1  0  0  0  0
 43 36  1  0  0  0  0
 44 45  1  0  0  0  0
 46 47  1  0  0  0  0
M  END
>  <minimizedAffinity>
-7.06409597

>  <minimizedRMSD>
0.898321509

$$$$
