
 OpenBabel03272502063D

 42 45  0  0  1  0  0  0  0  0999 V2000
   34.3960   30.4190   47.4960 F   0  0  0  0  0  0  0  0  0  0  0  0
   34.6850   29.8870   46.2640 C   0  0  0  0  0  0  0  0  0  0  0  0
   33.7380   29.2000   45.5190 C   0  0  0  0  0  0  0  0  0  0  0  0
   34.0960   28.7110   44.2810 C   0  0  0  0  0  0  0  0  0  0  0  0
   35.3900   28.9020   43.7840 C   0  0  0  0  0  0  0  0  0  0  0  0
   36.2830   29.5930   44.5780 C   0  0  0  0  0  0  0  0  0  0  0  0
   35.9800   30.0880   45.7900 C   0  0  0  0  0  0  0  0  0  0  0  0
   33.3320   28.1900   43.7470 H   0  0  0  0  0  0  0  0  0  0  0  0
   35.6330   28.5080   42.8180 H   0  0  0  0  0  0  0  0  0  0  0  0
   37.2590   29.6980   44.1240 H   0  0  0  0  0  0  0  0  0  0  0  0
   37.6900   32.2830   44.3560 Br  0  0  0  0  0  0  0  0  0  0  0  0
   37.8100   31.8070   46.1970 C   0  0  0  0  0  0  0  0  0  0  0  0
   36.9700   30.7920   46.5800 C   0  0  0  0  0  0  0  0  0  0  0  0
   37.0300   30.3600   47.9180 C   0  0  0  0  0  0  0  0  0  0  0  0
   37.8920   30.9340   48.7970 C   0  0  0  0  0  0  0  0  0  0  0  0
   38.7110   31.9530   48.3530 C   0  0  0  0  0  0  0  0  0  0  0  0
   38.6810   32.4090   47.0300 C   0  0  0  0  0  0  0  0  0  0  0  0
   36.4060   29.5650   48.3050 H   0  0  0  0  0  0  0  0  0  0  0  0
   37.9750   30.6340   49.8340 H   0  0  0  0  0  0  0  0  0  0  0  0
   39.4140   32.4400   49.0170 H   0  0  0  0  0  0  0  0  0  0  0  0
   39.4450   33.4060   46.5080 O   0  0  0  0  0  0  0  0  0  0  0  0
   40.3360   33.7260   46.8610 H   0  0  0  0  0  0  0  0  0  0  0  0
   32.3210   28.1560   47.1590 C   0  0  0  0  0  0  0  0  0  0  0  0
   32.4500   29.0750   46.1400 C   0  0  0  0  0  0  0  0  0  0  0  0
   31.3280   29.8310   45.7910 C   0  0  0  0  0  0  0  0  0  0  0  0
   30.1600   29.6390   46.4600 N   0  0  0  0  0  0  0  0  0  0  0  0
   30.0760   28.7430   47.4380 C   0  0  0  0  0  0  0  0  0  0  0  0
   31.1230   28.0120   47.7890 N   0  0  0  0  0  0  0  0  0  0  0  0
   33.1300   27.5140   47.5100 H   0  0  0  0  0  0  0  0  0  0  0  0
   31.4530   30.5380   44.9960 H   0  0  0  0  0  0  0  0  0  0  0  0
   28.1040   27.2390   47.7890 C   0  0  1  0  0  3  0  0  0  0  0  0
   28.8090   28.5200   48.1820 C   0  0  1  0  0  3  0  0  0  0  0  0
   29.0430   28.4270   49.6740 C   0  0  0  0  0  3  0  0  0  0  0  0
   29.9410   27.8340   49.9380 H   0  0  0  0  0  0  0  0  0  0  0  0
   27.9070   27.8630   50.2200 O   0  0  0  0  0  0  0  0  0  0  0  0
   26.7370   28.1620   49.5440 C   0  0  0  0  0  3  0  0  0  0  0  0
   25.9090   27.7430   50.1590 H   0  0  0  0  0  0  0  0  0  0  0  0
   26.6400   27.4090   48.2110 C   0  0  1  0  0  3  0  0  0  0  0  0
   28.2550   27.0390   46.4390 O   0  0  0  0  0  0  0  0  0  0  0  0
   29.0210   26.4190   46.2400 H   0  0  0  0  0  0  0  0  0  0  0  0
   26.0610   28.2020   47.2190 O   0  0  0  0  0  0  0  0  0  0  0  0
   26.5820   28.1820   46.3690 H   0  0  0  0  0  0  0  0  0  0  0  0
  2  1  1  0  0  0  0
  3 24  1  0  0  0  0
  3  2  2  0  0  0  0
  4  3  1  0  0  0  0
  5  4  2  0  0  0  0
  5  6  1  0  0  0  0
  6  7  2  0  0  0  0
  7  2  1  0  0  0  0
  7 13  1  0  0  0  0
  8  4  1  0  0  0  0
  9  5  1  0  0  0  0
 10  6  1  0  0  0  0
 11 12  1  0  0  0  0
 12 13  2  0  0  0  0
 12 17  1  0  0  0  0
 13 14  1  0  0  0  0
 14 18  1  0  0  0  0
 14 15  2  0  0  0  0
 15 19  1  0  0  0  0
 16 15  1  0  0  0  0
 16 20  1  0  0  0  0
 17 16  2  0  0  0  0
 21 22  1  0  0  0  0
 21 17  1  0  0  0  0
 23 29  1  0  0  0  0
 23 28  1  0  0  0  0
 24 23  2  0  0  0  0
 25 24  1  0  0  0  0
 25 26  2  0  0  0  0
 26 27  1  0  0  0  0
 27 28  2  0  0  0  0
 30 25  1  0  0  0  0
 31 39  1  6  0  0  0
 31 32  1  0  0  0  0
 31 38  1  0  0  0  0
 32 27  1  6  0  0  0
 32 33  1  0  0  0  0
 33 34  1  0  0  0  0
 33 35  1  0  0  0  0
 36 37  1  0  0  0  0
 36 35  1  0  0  0  0
 38 41  1  6  0  0  0
 38 36  1  0  0  0  0
 40 39  1  0  0  0  0
 42 41  1  0  0  0  0
M  END
>  <minimizedAffinity>
-7.08806372

>  <minimizedRMSD>
0.702755034

$$$$
