
 OpenBabel03272506143D

 27 28  0  0  1  0  0  0  0  0999 V2000
   36.1470   29.9480   49.9370 C   0  0  0  0  0  0  0  0  0  0  0  0
   36.4600   28.6970   50.4880 C   0  0  0  0  0  0  0  0  0  0  0  0
   37.7050   28.5330   51.0720 C   0  0  0  0  0  0  0  0  0  0  0  0
   38.5790   29.5670   51.0990 N   0  0  0  0  0  0  0  0  0  0  0  0
   38.2470   30.7810   50.5530 C   0  0  0  0  0  0  0  0  0  0  0  0
   37.0300   30.9620   49.9740 N   0  0  0  0  0  0  0  0  0  0  0  0
   35.6990   27.9360   50.4180 H   0  0  0  0  0  0  0  0  0  0  0  0
   38.9440   31.6150   50.5710 H   0  0  0  0  0  0  0  0  0  0  0  0
   39.1100   26.5030   50.8190 C   0  0  2  0  0  3  0  0  0  0  0  0
   38.0520   27.2400   51.6510 C   0  0  1  0  0  3  0  0  0  0  0  0
   38.5500   27.2680   53.0580 C   0  0  0  0  0  3  0  0  0  0  0  0
   38.5950   28.3010   53.4730 H   0  0  0  0  0  0  0  0  0  0  0  0
   39.8340   26.7470   53.2140 O   0  0  0  0  0  0  0  0  0  0  0  0
   39.9560   25.4300   52.8100 C   0  0  0  0  0  3  0  0  0  0  0  0
   41.0380   25.2550   52.6130 H   0  0  0  0  0  0  0  0  0  0  0  0
   39.2470   25.1600   51.5070 C   0  0  2  0  0  3  0  0  0  0  0  0
   40.3300   27.1620   50.9630 O   0  0  0  0  0  0  0  0  0  0  0  0
   40.7070   27.4860   50.1040 H   0  0  0  0  0  0  0  0  0  0  0  0
   39.8440   24.2100   50.7140 O   0  0  0  0  0  0  0  0  0  0  0  0
   39.1030   23.8020   50.1650 H   0  0  0  0  0  0  0  0  0  0  0  0
   34.9490   30.2710   49.3200 O   0  0  0  0  0  0  0  0  0  0  0  0
   35.8550   30.3010   46.7830 O   0  0  0  0  0  0  0  0  0  0  0  0
   34.6620   29.9340   47.6560 P   0  0  0  0  0  0  0  0  0  0  0  0
   34.3140   28.2820   47.5460 O   0  0  0  0  0  0  0  0  0  0  0  0
   35.2160   27.8380   47.4450 H   0  0  0  0  0  0  0  0  0  0  0  0
   33.3710   30.8750   47.1000 O   0  0  0  0  0  0  0  0  0  0  0  0
   33.4250   30.9870   46.1130 H   0  0  0  0  0  0  0  0  0  0  0  0
  1  6  2  0  0  0  0
  1  2  1  0  0  0  0
  2  3  2  0  0  0  0
  3  4  1  0  0  0  0
  5  8  1  0  0  0  0
  5  4  2  0  0  0  0
  6  5  1  0  0  0  0
  7  2  1  0  0  0  0
  9 17  1  1  0  0  0
  9 16  1  0  0  0  0
  9 10  1  0  0  0  0
 10  3  1  6  0  0  0
 10 11  1  0  0  0  0
 11 13  1  0  0  0  0
 11 12  1  0  0  0  0
 14 13  1  0  0  0  0
 15 14  1  0  0  0  0
 16 19  1  6  0  0  0
 16 14  1  0  0  0  0
 18 17  1  0  0  0  0
 20 19  1  0  0  0  0
 21  1  1  0  0  0  0
 22 23  2  0  0  0  0
 23 21  1  0  0  0  0
 24 23  1  0  0  0  0
 25 24  1  0  0  0  0
 26 23  1  0  0  0  0
 27 26  1  0  0  0  0
M  END
>  <minimizedAffinity>
2.90646434

>  <minimizedRMSD>
1.23738813

$$$$
