
     RDKit          3D

 34 35  0  0  0  0  0  0  0  0999 V2000
   37.3984   30.1679   51.3924 C   0  0  0  0  0  0  0  0  0  0  0  0
   38.0341   30.6686   50.2441 C   0  0  0  0  0  0  0  0  0  0  0  0
   37.5136   30.3632   49.0045 C   0  0  0  0  0  0  0  0  0  0  0  0
   36.4009   29.5871   48.9203 N   0  0  0  0  0  0  0  0  0  0  0  0
   35.8100   29.1195   50.0346 C   0  0  0  0  0  0  0  0  0  0  0  0
   36.2936   29.3994   51.2671 N   0  0  0  0  0  0  0  0  0  0  0  0
   38.1510   30.8649   47.8245 C   0  0  0  0  0  0  0  0  0  0  0  0
   38.7257   32.0601   47.7968 C   0  0  0  0  0  0  0  0  0  0  0  0
   39.3913   32.5847   46.5743 C   0  0  0  0  0  0  0  0  0  0  0  0
   38.3803   32.1946   45.1135 S   0  0  0  0  0  0  0  0  0  0  0  0
   37.7570   30.3712   52.3859 H   0  0  0  0  0  0  0  0  0  0  0  0
   38.9137   31.2782   50.3852 H   0  0  0  0  0  0  0  0  0  0  0  0
   34.9245   28.5066   49.8776 H   0  0  0  0  0  0  0  0  0  0  0  0
   38.2050   30.3243   46.9112 H   0  0  0  0  0  0  0  0  0  0  0  0
   38.7170   32.6749   48.6794 H   0  0  0  0  0  0  0  0  0  0  0  0
   40.3347   31.9900   46.4910 H   0  0  0  0  0  0  0  0  0  0  0  0
   39.5785   33.6665   46.6724 H   0  0  0  0  0  0  0  0  0  0  0  0
   39.8091   35.0399   44.3075 O   0  0  0  0  0  0  0  0  0  0  0  0
   38.9613   34.3229   43.4514 C   0  0  2  0  0  0  0  0  0  0  0  0
   39.2102   32.8406   43.6526 C   0  0  1  0  0  0  0  0  0  0  0  0
   40.7188   32.6958   43.7815 C   0  0  1  0  0  0  0  0  0  0  0  0
   40.9720   33.1902   44.7653 H   0  0  0  0  0  0  0  0  0  0  0  0
   41.3950   33.3959   42.8080 O   0  0  0  0  0  0  0  0  0  0  0  0
   40.6266   33.7135   41.7070 C   0  0  1  0  0  0  0  0  0  0  0  0
   41.2931   34.3246   41.0337 H   0  0  0  0  0  0  0  0  0  0  0  0
   39.4455   34.6118   42.0294 C   0  0  2  0  0  0  0  0  0  0  0  0
   39.7585   35.9643   41.9047 O   0  0  0  0  0  0  0  0  0  0  0  0
   39.2976   35.7497   44.7784 H   0  0  0  0  0  0  0  0  0  0  0  0
   37.9150   34.6228   43.5661 H   0  0  0  0  0  0  0  0  0  0  0  0
   38.8346   32.3176   42.7412 H   0  0  0  0  0  0  0  0  0  0  0  0
   41.0168   31.6327   43.8760 H   0  0  0  0  0  0  0  0  0  0  0  0
   40.3145   32.8340   41.1187 H   0  0  0  0  0  0  0  0  0  0  0  0
   38.6350   34.4191   41.3091 H   0  0  0  0  0  0  0  0  0  0  0  0
   40.7359   36.1154   41.9546 H   0  0  0  0  0  0  0  0  0  0  0  0
  2  1  2  0
  3  2  1  0
  4  3  2  0
  4  5  1  0
  5  6  2  0
  6  1  1  0
  7  3  1  0
  8  7  2  0
  9  8  1  0
 10  9  1  0
  1 11  1  0
  2 12  1  0
  5 13  1  0
  7 14  1  0
  8 15  1  0
  9 16  1  0
  9 17  1  0
 18 19  1  0
 19 20  1  0
 20 21  1  0
 21 22  1  1
 21 23  1  0
 23 24  1  0
 24 25  1  6
 24 26  1  0
 26 27  1  0
 26 19  1  0
 18 28  1  0
 19 29  1  6
 20 30  1  6
 21 31  1  0
 24 32  1  0
 26 33  1  6
 27 34  1  0
 10 20  1  0
M  ISO  7  11  14  12  14  13  14  16   8  17   8  22   8  25   8
M  END
>  <DihAtoms>  (1) 
8,9,19,18

>  <DihDeg>  (1) 
-66.20926226079209

$$$$
