REMARK  Name = 
REMARK  9 active torsions:
REMARK  status: ('A' for Active; 'I' for Inactive)
REMARK    1  A    between atoms: C_1  and  C_2
REMARK    2  A    between atoms: C_1  and  C_13
REMARK    3  A    between atoms: C_2  and  O_3
REMARK    4  A    between atoms: O_3  and  C_4
REMARK    5  A    between atoms: C_13  and  S_14
REMARK    6  A    between atoms: S_14  and  C_16
REMARK    7  A    between atoms: C_23  and  C_41
REMARK    8  A    between atoms: O_39  and  C_40
REMARK    9  A    between atoms: C_47  and  O_48
REMARK                            x       y       z     vdW  Elec       q    Type
REMARK                         _______ _______ _______ _____ _____    ______ ____
ROOT
ATOM      1  C   UNL     1      40.365  25.106  53.397  0.00  0.00    +0.000 A 
ATOM      2  C   UNL     1      39.812  25.996  52.475  0.00  0.00    +0.000 A 
ATOM      3  C   UNL     1      40.193  25.798  51.139  0.00  0.00    +0.000 A 
ATOM      4  C   UNL     1      41.038  24.818  50.734  0.00  0.00    +0.000 A 
ATOM      5  N   UNL     1      41.557  24.403  49.600  0.00  0.00    +0.000 N 
ATOM      6  C   UNL     1      42.384  23.329  49.755  0.00  0.00    +0.000 A 
ATOM      7  C   UNL     1      42.379  23.051  51.107  0.00  0.00    +0.000 A 
ATOM      8  C   UNL     1      41.549  23.975  51.687  0.00  0.00    +0.000 A 
ATOM      9  C   UNL     1      41.231  24.095  53.020  0.00  0.00    +0.000 A 
ATOM     10  H   UNL     1      40.053  25.287  54.405  0.00  0.00    +0.000 HD
ATOM     11  H   UNL     1      39.806  26.449  50.356  0.00  0.00    +0.000 HD
ATOM     12  H   UNL     1      41.380  24.826  48.647  0.00  0.00    +0.000 HD
ATOM     13  H   UNL     1      42.916  22.828  48.952  0.00  0.00    +0.000 HD
ATOM     14  H   UNL     1      42.941  22.247  51.567  0.00  0.00    +0.000 HD
ENDROOT
BRANCH   9  16
ATOM     15  C   UNL     1      41.039  21.857  53.894  0.00  0.00    +0.000 C 
ATOM     16  C   UNL     1      41.782  23.185  54.043  0.00  0.00    +0.000 C 
ATOM     17  C   UNL     1      41.666  23.640  55.448  0.00  0.00    +0.000 C 
ATOM     18  H   UNL     1      40.630  23.890  55.757  0.00  0.00    +0.000 HD
ATOM     19  O   UNL     1      42.091  22.644  56.284  0.00  0.00    +0.000 OA
ATOM     20  C   UNL     1      42.680  21.556  55.700  0.00  0.00    +0.000 C 
ATOM     21  H   UNL     1      43.739  21.747  55.360  0.00  0.00    +0.000 HD
ATOM     22  C   UNL     1      41.884  20.858  54.649  0.00  0.00    +0.000 C 
BRANCH  15  23
ATOM     23  O   UNL     1      40.862  21.546  52.565  0.00  0.00    +0.000 OA
ATOM     24  H   UNL     1      41.063  20.589  52.412  0.00  0.00    +0.000 HD
ENDBRANCH  15  23
BRANCH  22  25
ATOM     25  O   UNL     1      41.063  19.858  55.110  0.00  0.00    +0.000 OA
ATOM     26  H   UNL     1      40.379  19.705  54.407  0.00  0.00    +0.000 HD
ENDBRANCH  22  25
ENDBRANCH   9  16
BRANCH   2  27
ATOM     27  S   UNL     1      38.697  27.333  52.790  0.00  0.00    +0.000 S 
BRANCH  27  28
ATOM     28  C   UNL     1      38.169  28.204  51.325  0.00  0.00    +0.000 C 
ATOM     29  H   UNL     1      39.062  28.672  50.860  0.00  0.00    +0.000 HD
ATOM     30  H   UNL     1      37.816  27.441  50.571  0.00  0.00    +0.000 HD
BRANCH  28  31
ATOM     31  C   UNL     1      37.144  29.281  51.575  0.00  0.00    +0.000 C 
ATOM     32  H   UNL     1      37.038  29.313  52.702  0.00  0.00    +0.000 HD
ATOM     33  H   UNL     1      36.165  28.860  51.258  0.00  0.00    +0.000 HD
BRANCH  31  34
ATOM     34  C   UNL     1      37.470  30.492  51.053  0.00  0.00    +0.000 C 
ATOM     35  H   UNL     1      38.494  30.869  51.315  0.00  0.00    +0.000 HD
ATOM     36  H   UNL     1      36.773  31.329  51.273  0.00  0.00    +0.000 HD
BRANCH  34  37
ATOM     37  O   UNL     1      37.434  30.151  49.728  0.00  0.00    +0.000 OA
BRANCH  37  38
ATOM     38  C   UNL     1      38.037  30.988  48.821  0.00  0.00    +0.000 A 
ATOM     39  C   UNL     1      38.342  32.218  49.349  0.00  0.00    +0.000 A 
ATOM     40  C   UNL     1      38.963  33.172  48.526  0.00  0.00    +0.000 A 
ATOM     41  N   UNL     1      39.229  32.816  47.240  0.00  0.00    +0.000 NA
ATOM     42  C   UNL     1      38.912  31.578  46.741  0.00  0.00    +0.000 A 
ATOM     43  N   UNL     1      38.322  30.699  47.555  0.00  0.00    +0.000 NA
ATOM     44  C   UNL     1      39.814  32.403  44.682  0.00  0.00    +0.000 C 
ATOM     45  O   UNL     1      40.055  33.551  45.164  0.00  0.00    +0.000 OA
ATOM     46  N   UNL     1      39.235  31.312  45.382  0.00  0.00    +0.000 N 
ATOM     47  H   UNL     1      38.186  32.630  50.348  0.00  0.00    +0.000 HD
ATOM     48  H   UNL     1      39.242  34.156  48.837  0.00  0.00    +0.000 HD
ATOM     49  H   UNL     1      40.077  32.240  43.636  0.00  0.00    +0.000 HD
ATOM     50  H   UNL     1      39.031  30.363  44.998  0.00  0.00    +0.000 HD
ENDBRANCH  37  38
ENDBRANCH  34  37
ENDBRANCH  31  34
ENDBRANCH  28  31
ENDBRANCH  27  28
ENDBRANCH   2  27
TORSDOF 9
