
     RDKit          3D

 34 35  0  0  0  0  0  0  0  0999 V2000
   37.3984   30.1679   51.3924 C   0  0  0  0  0  0  0  0  0  0  0  0
   38.0341   30.6686   50.2441 C   0  0  0  0  0  0  0  0  0  0  0  0
   37.5136   30.3632   49.0045 C   0  0  0  0  0  0  0  0  0  0  0  0
   36.4009   29.5871   48.9203 N   0  0  0  0  0  0  0  0  0  0  0  0
   35.8100   29.1195   50.0346 C   0  0  0  0  0  0  0  0  0  0  0  0
   36.2936   29.3994   51.2671 N   0  0  0  0  0  0  0  0  0  0  0  0
   38.1510   30.8649   47.8245 C   0  0  0  0  0  0  0  0  0  0  0  0
   38.7257   32.0601   47.7968 C   0  0  0  0  0  0  0  0  0  0  0  0
   39.3913   32.5847   46.5743 C   0  0  0  0  0  0  0  0  0  0  0  0
   38.3803   32.1946   45.1135 S   0  0  0  0  0  0  0  0  0  0  0  0
   37.7570   30.3712   52.3859 H   0  0  0  0  0  0  0  0  0  0  0  0
   38.9137   31.2782   50.3852 H   0  0  0  0  0  0  0  0  0  0  0  0
   34.9245   28.5066   49.8776 H   0  0  0  0  0  0  0  0  0  0  0  0
   38.2050   30.3243   46.9112 H   0  0  0  0  0  0  0  0  0  0  0  0
   38.7170   32.6749   48.6794 H   0  0  0  0  0  0  0  0  0  0  0  0
   40.3347   31.9900   46.4910 H   0  0  0  0  0  0  0  0  0  0  0  0
   39.5785   33.6665   46.6724 H   0  0  0  0  0  0  0  0  0  0  0  0
   37.5965   34.3130   42.7291 O   0  0  0  0  0  0  0  0  0  0  0  0
   38.2519   33.0940   42.5049 C   0  0  2  0  0  0  0  0  0  0  0  0
   39.2102   32.8406   43.6526 C   0  0  1  0  0  0  0  0  0  0  0  0
   39.8536   34.1865   43.9492 C   0  0  1  0  0  0  0  0  0  0  0  0
   39.0183   34.8169   44.3748 H   0  0  0  0  0  0  0  0  0  0  0  0
   40.2796   34.8242   42.8060 O   0  0  0  0  0  0  0  0  0  0  0  0
   40.4367   33.9875   41.7203 C   0  0  1  0  0  0  0  0  0  0  0  0
   40.7302   34.6537   40.8594 H   0  0  0  0  0  0  0  0  0  0  0  0
   39.1497   33.3089   41.2853 C   0  0  2  0  0  0  0  0  0  0  0  0
   38.4635   34.0432   40.3195 O   0  0  0  0  0  0  0  0  0  0  0  0
   36.6204   34.2088   42.5761 H   0  0  0  0  0  0  0  0  0  0  0  0
   37.5464   32.2780   42.3198 H   0  0  0  0  0  0  0  0  0  0  0  0
   39.9683   32.1057   43.2916 H   0  0  0  0  0  0  0  0  0  0  0  0
   40.6218   34.1017   44.7434 H   0  0  0  0  0  0  0  0  0  0  0  0
   41.2554   33.2580   41.8407 H   0  0  0  0  0  0  0  0  0  0  0  0
   39.3891   32.3407   40.8184 H   0  0  0  0  0  0  0  0  0  0  0  0
   38.7394   34.9943   40.3246 H   0  0  0  0  0  0  0  0  0  0  0  0
  2  1  2  0
  3  2  1  0
  4  3  2  0
  4  5  1  0
  5  6  2  0
  6  1  1  0
  7  3  1  0
  8  7  2  0
  9  8  1  0
 10  9  1  0
  1 11  1  0
  2 12  1  0
  5 13  1  0
  7 14  1  0
  8 15  1  0
  9 16  1  0
  9 17  1  0
 18 19  1  0
 19 20  1  0
 20 21  1  0
 21 22  1  1
 21 23  1  0
 23 24  1  0
 24 25  1  6
 24 26  1  0
 26 27  1  0
 26 19  1  0
 18 28  1  0
 19 29  1  6
 20 30  1  6
 21 31  1  0
 24 32  1  0
 26 33  1  6
 27 34  1  0
 10 20  1  0
M  ISO  7  11  14  12  14  13  14  16   8  17   8  22   8  25   8
M  END
>  <DihAtoms>  (1) 
8,9,19,18

>  <DihDeg>  (1) 
-66.20926226079209

$$$$
