REMARK  Name = 
REMARK  6 active torsions:
REMARK  status: ('A' for Active; 'I' for Inactive)
REMARK    1  A    between atoms: C_3  and  C_7
REMARK    2  A    between atoms: C_8  and  C_9
REMARK    3  A    between atoms: C_9  and  S_10
REMARK    4  A    between atoms: S_10  and  C_20
REMARK    5  A    between atoms: O_18  and  C_19
REMARK    6  A    between atoms: C_26  and  O_27
REMARK                            x       y       z     vdW  Elec       q    Type
REMARK                         _______ _______ _______ _____ _____    ______ ____
ROOT
ATOM      1  C   UNL     1      39.391  32.585  46.574  0.00  0.00    +0.000 C 
ATOM      2  H   UNL     1      40.335  31.990  46.491  0.00  0.00    +0.000 HD
ATOM      3  H   UNL     1      39.578  33.666  46.672  0.00  0.00    +0.000 HD
ENDROOT
BRANCH   1   5
ATOM      4  C   UNL     1      38.151  30.865  47.825  0.00  0.00    +0.000 C 
ATOM      5  C   UNL     1      38.726  32.060  47.797  0.00  0.00    +0.000 C 
BRANCH   4   8
ATOM      6  C   UNL     1      37.398  30.168  51.392  0.00  0.00    +0.000 A 
ATOM      7  C   UNL     1      38.034  30.669  50.244  0.00  0.00    +0.000 A 
ATOM      8  C   UNL     1      37.514  30.363  49.005  0.00  0.00    +0.000 A 
ATOM      9  N   UNL     1      36.401  29.587  48.920  0.00  0.00    +0.000 NA
ATOM     10  C   UNL     1      35.810  29.119  50.035  0.00  0.00    +0.000 A 
ATOM     11  N   UNL     1      36.294  29.399  51.267  0.00  0.00    +0.000 NA
ATOM     12  H   UNL     1      37.757  30.371  52.386  0.00  0.00    +0.000 HD
ATOM     13  H   UNL     1      38.914  31.278  50.385  0.00  0.00    +0.000 HD
ATOM     14  H   UNL     1      34.925  28.507  49.878  0.00  0.00    +0.000 HD
ENDBRANCH   4   8
ENDBRANCH   1   5
BRANCH   1  15
ATOM     15  S   UNL     1      38.380  32.195  45.114  0.00  0.00    +0.000 S 
BRANCH  15  17
ATOM     16  C   UNL     1      39.684  31.742  42.721  0.00  0.00    +0.000 C 
ATOM     17  C   UNL     1      39.210  32.841  43.653  0.00  0.00    +0.000 C 
ATOM     18  C   UNL     1      38.260  33.693  42.826  0.00  0.00    +0.000 C 
ATOM     19  H   UNL     1      37.363  33.030  42.644  0.00  0.00    +0.000 HD
ATOM     20  O   UNL     1      38.776  33.997  41.586  0.00  0.00    +0.000 OA
ATOM     21  C   UNL     1      40.146  33.859  41.498  0.00  0.00    +0.000 C 
ATOM     22  H   UNL     1      40.409  34.085  40.426  0.00  0.00    +0.000 HD
ATOM     23  C   UNL     1      40.630  32.440  41.742  0.00  0.00    +0.000 C 
BRANCH  16  24
ATOM     24  O   UNL     1      38.593  31.297  41.961  0.00  0.00    +0.000 OA
ATOM     25  H   UNL     1      38.565  30.304  41.954  0.00  0.00    +0.000 HD
ENDBRANCH  16  24
BRANCH  23  26
ATOM     26  O   UNL     1      40.718  31.700  40.564  0.00  0.00    +0.000 OA
ATOM     27  H   UNL     1      40.158  32.093  39.848  0.00  0.00    +0.000 HD
ENDBRANCH  23  26
ENDBRANCH  15  17
ENDBRANCH   1  15
TORSDOF 6
