
 OpenBabel03272500073D

 42 45  0  0  1  0  0  0  0  0999 V2000
   31.1500   27.5090   48.2870 C   0  0  0  0  0  0  0  0  0  0  0  0
   30.8020   27.7750   49.5950 C   0  0  0  0  0  0  0  0  0  0  0  0
   29.5300   28.2020   49.9180 C   0  0  0  0  0  0  0  0  0  0  0  0
   28.5920   28.3660   48.9100 C   0  0  0  0  0  0  0  0  0  0  0  0
   28.9530   28.0980   47.6130 C   0  0  0  0  0  0  0  0  0  0  0  0
   30.2090   27.6750   47.3000 C   0  0  0  0  0  0  0  0  0  0  0  0
   31.5020   27.6630   50.4300 H   0  0  0  0  0  0  0  0  0  0  0  0
   29.2810   28.4050   50.9570 H   0  0  0  0  0  0  0  0  0  0  0  0
   27.6130   28.7010   49.1980 H   0  0  0  0  0  0  0  0  0  0  0  0
   28.1800   28.2440   46.8720 H   0  0  0  0  0  0  0  0  0  0  0  0
   30.3890   25.9130   45.5600 C   0  0  2  0  0  3  0  0  0  0  0  0
   30.5530   27.3780   45.9140 C   0  0  1  0  0  3  0  0  0  0  0  0
   29.8160   28.1720   44.8690 C   0  0  0  0  0  3  0  0  0  0  0  0
   30.3170   29.1650   44.7540 H   0  0  0  0  0  0  0  0  0  0  0  0
   29.9960   27.5410   43.6340 O   0  0  0  0  0  0  0  0  0  0  0  0
   31.2130   26.9310   43.4880 C   0  0  0  0  0  3  0  0  0  0  0  0
   31.3020   26.6870   42.3960 H   0  0  0  0  0  0  0  0  0  0  0  0
   31.2500   25.6610   44.3390 C   0  0  2  0  0  3  0  0  0  0  0  0
   29.0480   25.7150   45.2330 O   0  0  0  0  0  0  0  0  0  0  0  0
   28.7700   24.8080   45.5280 H   0  0  0  0  0  0  0  0  0  0  0  0
   30.8590   24.5430   43.6450 O   0  0  0  0  0  0  0  0  0  0  0  0
   31.6320   23.9290   43.5760 H   0  0  0  0  0  0  0  0  0  0  0  0
   32.4660   27.0890   48.1190 O   0  0  0  0  0  0  0  0  0  0  0  0
   35.4260   28.8660   49.1310 C   0  0  0  0  0  0  0  0  0  0  0  0
   35.3700   30.0480   48.3900 C   0  0  0  0  0  0  0  0  0  0  0  0
   34.2720   30.2130   47.5250 C   0  0  0  0  0  0  0  0  0  0  0  0
   33.3460   29.2210   47.4680 N   0  0  0  0  0  0  0  0  0  0  0  0
   33.4270   28.1030   48.1890 C   0  0  0  0  0  0  0  0  0  0  0  0
   34.4810   27.9150   49.0370 N   0  0  0  0  0  0  0  0  0  0  0  0
   36.2450   28.6490   49.8320 H   0  0  0  0  0  0  0  0  0  0  0  0
   34.2230   31.1180   46.9550 H   0  0  0  0  0  0  0  0  0  0  0  0
   36.4030   30.9980   48.5450 N   0  0  0  0  0  0  0  0  0  0  0  0
   36.5760   31.6820   49.6720 C   0  0  0  0  0  0  0  0  0  0  0  0
   37.6100   32.6090   49.7630 C   0  0  0  0  0  0  0  0  0  0  0  0
   38.3850   32.7360   48.6370 C   0  0  0  0  0  0  0  0  0  0  0  0
   39.3220   33.5760   48.7140 O   0  0  0  0  0  0  0  0  0  0  0  0
   38.2400   32.0720   47.5000 N   0  0  0  0  0  0  0  0  0  0  0  0
   37.2170   31.1750   47.4530 C   0  0  0  0  0  0  0  0  0  0  0  0
   37.0660   30.5300   46.3650 O   0  0  0  0  0  0  0  0  0  0  0  0
   35.9380   31.5430   50.5290 H   0  0  0  0  0  0  0  0  0  0  0  0
   37.7580   33.1680   50.6780 H   0  0  0  0  0  0  0  0  0  0  0  0
   38.8590   32.2120   46.6810 H   0  0  0  0  0  0  0  0  0  0  0  0
  1  2  1  0  0  0  0
  2  3  2  0  0  0  0
  2  7  1  0  0  0  0
  3  8  1  0  0  0  0
  4  9  1  0  0  0  0
  4  3  1  0  0  0  0
  5  4  2  0  0  0  0
  6  5  1  0  0  0  0
  6  1  2  0  0  0  0
 10  5  1  0  0  0  0
 11 19  1  6  0  0  0
 11 12  1  0  0  0  0
 12  6  1  1  0  0  0
 13 12  1  0  0  0  0
 14 13  1  0  0  0  0
 15 13  1  0  0  0  0
 16 15  1  0  0  0  0
 16 18  1  0  0  0  0
 17 16  1  0  0  0  0
 18 21  1  6  0  0  0
 18 11  1  0  0  0  0
 19 20  1  0  0  0  0
 22 21  1  0  0  0  0
 23 28  1  0  0  0  0
 23  1  1  0  0  0  0
 24 30  1  0  0  0  0
 25 32  1  0  0  0  0
 25 24  2  0  0  0  0
 26 25  1  0  0  0  0
 27 26  2  0  0  0  0
 27 28  1  0  0  0  0
 28 29  2  0  0  0  0
 29 24  1  0  0  0  0
 31 26  1  0  0  0  0
 32 33  1  0  0  0  0
 33 34  2  0  0  0  0
 33 40  1  0  0  0  0
 34 41  1  0  0  0  0
 35 36  2  0  0  0  0
 35 34  1  0  0  0  0
 37 35  1  0  0  0  0
 38 37  1  0  0  0  0
 38 32  1  0  0  0  0
 39 38  2  0  0  0  0
 42 37  1  0  0  0  0
M  END
>  <minimizedAffinity>
-5.88897085

>  <minimizedRMSD>
0.456316948

$$$$
