
 OpenBabel03262521243D

 50 53  0  0  1  0  0  0  0  0999 V2000
   40.3890   25.2570   53.3780 C   0  0  0  0  0  0  0  0  0  0  0  0
   39.7730   26.0720   52.4280 C   0  0  0  0  0  0  0  0  0  0  0  0
   40.0990   25.7970   51.0910 C   0  0  0  0  0  0  0  0  0  0  0  0
   40.9510   24.8120   50.7110 C   0  0  0  0  0  0  0  0  0  0  0  0
   41.4300   24.3370   49.5830 N   0  0  0  0  0  0  0  0  0  0  0  0
   42.2910   23.2950   49.7680 C   0  0  0  0  0  0  0  0  0  0  0  0
   42.3520   23.1050   51.1340 C   0  0  0  0  0  0  0  0  0  0  0  0
   41.5250   24.0450   51.6910 C   0  0  0  0  0  0  0  0  0  0  0  0
   41.2630   24.2440   53.0270 C   0  0  0  0  0  0  0  0  0  0  0  0
   40.1170   25.4950   54.3860 H   0  0  0  0  0  0  0  0  0  0  0  0
   39.6620   26.3870   50.2870 H   0  0  0  0  0  0  0  0  0  0  0  0
   41.2000   24.6930   48.6140 H   0  0  0  0  0  0  0  0  0  0  0  0
   42.7990   22.7550   48.9750 H   0  0  0  0  0  0  0  0  0  0  0  0
   42.9550   22.3450   51.6180 H   0  0  0  0  0  0  0  0  0  0  0  0
   40.7470   22.6430   54.7540 C   0  0  2  0  0  3  0  0  0  0  0  0
   41.8820   23.4150   54.0800 C   0  0  2  0  0  3  0  0  0  0  0  0
   42.6440   24.1450   55.1190 C   0  0  0  0  0  3  0  0  0  0  0  0
   42.0610   24.9390   55.6290 H   0  0  0  0  0  0  0  0  0  0  0  0
   43.0400   23.2690   56.0920 O   0  0  0  0  0  0  0  0  0  0  0  0
   42.8340   21.9390   55.8470 C   0  0  0  0  0  3  0  0  0  0  0  0
   43.5750   21.4960   55.1210 H   0  0  0  0  0  0  0  0  0  0  0  0
   41.4350   21.5360   55.5170 C   0  0  1  0  0  3  0  0  0  0  0  0
   39.8410   22.1960   53.8180 O   0  0  0  0  0  0  0  0  0  0  0  0
   39.5860   21.2600   54.0150 H   0  0  0  0  0  0  0  0  0  0  0  0
   40.6560   21.2050   56.5970 O   0  0  0  0  0  0  0  0  0  0  0  0
   39.7110   21.2750   56.2990 H   0  0  0  0  0  0  0  0  0  0  0  0
   38.6380   27.4010   52.7070 S   0  0  0  0  0  0  0  0  0  0  0  0
   38.1180   28.2410   51.2220 C   0  0  0  0  0  0  0  0  0  0  0  0
   39.0170   28.6800   50.7400 H   0  0  0  0  0  0  0  0  0  0  0  0
   37.7460   27.4650   50.4910 H   0  0  0  0  0  0  0  0  0  0  0  0
   37.1150   29.3440   51.4490 C   0  0  0  0  0  0  0  0  0  0  0  0
   36.9910   29.3860   52.5730 H   0  0  0  0  0  0  0  0  0  0  0  0
   36.1310   28.9440   51.1180 H   0  0  0  0  0  0  0  0  0  0  0  0
   37.4770   30.5430   50.9240 C   0  0  0  0  0  0  0  0  0  0  0  0
   38.4980   30.9070   51.2160 H   0  0  0  0  0  0  0  0  0  0  0  0
   36.7870   31.3940   51.1110 H   0  0  0  0  0  0  0  0  0  0  0  0
   37.4800   30.1870   49.6030 O   0  0  0  0  0  0  0  0  0  0  0  0
   38.0930   31.0230   48.7020 C   0  0  0  0  0  0  0  0  0  0  0  0
   38.3800   32.2580   49.2280 C   0  0  0  0  0  0  0  0  0  0  0  0
   39.0080   33.2120   48.4110 C   0  0  0  0  0  0  0  0  0  0  0  0
   39.2990   32.8510   47.1310 N   0  0  0  0  0  0  0  0  0  0  0  0
   39.0000   31.6080   46.6340 C   0  0  0  0  0  0  0  0  0  0  0  0
   38.4020   30.7300   47.4420 N   0  0  0  0  0  0  0  0  0  0  0  0
   39.9320   32.4290   44.5860 C   0  0  0  0  0  0  0  0  0  0  0  0
   40.1560   33.5810   45.0660 O   0  0  0  0  0  0  0  0  0  0  0  0
   39.3480   31.3370   45.2820 N   0  0  0  0  0  0  0  0  0  0  0  0
   38.2040   32.6750   50.2220 H   0  0  0  0  0  0  0  0  0  0  0  0
   39.2750   34.2000   48.7210 H   0  0  0  0  0  0  0  0  0  0  0  0
   40.2140   32.2620   43.5460 H   0  0  0  0  0  0  0  0  0  0  0  0
   39.1580   30.3850   44.9000 H   0  0  0  0  0  0  0  0  0  0  0  0
  1 10  1  0  0  0  0
  2 27  1  0  0  0  0
  2  1  2  0  0  0  0
  3  2  1  0  0  0  0
  4  3  2  0  0  0  0
  4  8  1  0  0  0  0
  5  6  1  0  0  0  0
  5  4  1  0  0  0  0
  6  7  2  0  0  0  0
  7 14  1  0  0  0  0
  7  8  1  0  0  0  0
  8  9  2  0  0  0  0
  9  1  1  0  0  0  0
 11  3  1  0  0  0  0
 12  5  1  0  0  0  0
 13  6  1  0  0  0  0
 15 23  1  6  0  0  0
 15 22  1  0  0  0  0
 16  9  1  6  0  0  0
 16 15  1  0  0  0  0
 16 17  1  0  0  0  0
 17 18  1  0  0  0  0
 17 19  1  0  0  0  0
 20 19  1  0  0  0  0
 21 20  1  0  0  0  0
 22 20  1  0  0  0  0
 22 25  1  1  0  0  0
 23 24  1  0  0  0  0
 26 25  1  0  0  0  0
 28 31  1  0  0  0  0
 28 27  1  0  0  0  0
 29 28  1  0  0  0  0
 30 28  1  0  0  0  0
 31 32  1  0  0  0  0
 33 31  1  0  0  0  0
 34 36  1  0  0  0  0
 34 35  1  0  0  0  0
 34 31  1  0  0  0  0
 37 34  1  0  0  0  0
 38 39  1  0  0  0  0
 38 37  1  0  0  0  0
 39 47  1  0  0  0  0
 40 48  1  0  0  0  0
 40 39  2  0  0  0  0
 41 40  1  0  0  0  0
 42 41  2  0  0  0  0
 42 43  1  0  0  0  0
 43 38  2  0  0  0  0
 44 45  2  0  0  0  0
 44 46  1  0  0  0  0
 46 42  1  0  0  0  0
 49 44  1  0  0  0  0
 50 46  1  0  0  0  0
M  END
>  <minimizedAffinity>
-4.48274708

>  <minimizedRMSD>
0.828774631

$$$$
