
 OpenBabel03272502063D

 42 45  0  0  1  0  0  0  0  0999 V2000
   34.5680   30.4110   47.5380 F   0  0  0  0  0  0  0  0  0  0  0  0
   34.8990   29.9560   46.2850 C   0  0  0  0  0  0  0  0  0  0  0  0
   33.9870   29.2900   45.4800 C   0  0  0  0  0  0  0  0  0  0  0  0
   34.3860   28.8810   44.2260 C   0  0  0  0  0  0  0  0  0  0  0  0
   35.6860   29.1300   43.7720 C   0  0  0  0  0  0  0  0  0  0  0  0
   36.5420   29.7970   44.6250 C   0  0  0  0  0  0  0  0  0  0  0  0
   36.1990   30.2150   45.8560 C   0  0  0  0  0  0  0  0  0  0  0  0
   33.6490   28.3720   43.6450 H   0  0  0  0  0  0  0  0  0  0  0  0
   35.9620   28.7980   42.7920 H   0  0  0  0  0  0  0  0  0  0  0  0
   37.5260   29.9510   44.2030 H   0  0  0  0  0  0  0  0  0  0  0  0
   37.9860   32.4320   44.5540 Br  0  0  0  0  0  0  0  0  0  0  0  0
   38.0130   31.9160   46.3880 C   0  0  0  0  0  0  0  0  0  0  0  0
   37.1520   30.8980   46.7080 C   0  0  0  0  0  0  0  0  0  0  0  0
   37.1440   30.4370   48.0380 C   0  0  0  0  0  0  0  0  0  0  0  0
   37.9650   30.9870   48.9700 C   0  0  0  0  0  0  0  0  0  0  0  0
   38.8090   32.0110   48.5890 C   0  0  0  0  0  0  0  0  0  0  0  0
   38.8450   32.4960   47.2750 C   0  0  0  0  0  0  0  0  0  0  0  0
   36.5000   29.6370   48.3760 H   0  0  0  0  0  0  0  0  0  0  0  0
   37.9960   30.6650   50.0030 H   0  0  0  0  0  0  0  0  0  0  0  0
   39.4800   32.4800   49.2960 H   0  0  0  0  0  0  0  0  0  0  0  0
   39.6380   33.4990   46.8130 O   0  0  0  0  0  0  0  0  0  0  0  0
   40.5120   33.8070   47.2160 H   0  0  0  0  0  0  0  0  0  0  0  0
   32.5360   28.0570   46.9510 C   0  0  0  0  0  0  0  0  0  0  0  0
   32.6890   29.0980   46.0610 C   0  0  0  0  0  0  0  0  0  0  0  0
   31.5780   29.9050   45.7970 C   0  0  0  0  0  0  0  0  0  0  0  0
   30.3990   29.6400   46.4190 N   0  0  0  0  0  0  0  0  0  0  0  0
   30.2920   28.6260   47.2710 C   0  0  0  0  0  0  0  0  0  0  0  0
   31.3270   27.8450   47.5390 N   0  0  0  0  0  0  0  0  0  0  0  0
   33.3350   27.3670   47.2280 H   0  0  0  0  0  0  0  0  0  0  0  0
   31.7220   30.7070   45.1020 H   0  0  0  0  0  0  0  0  0  0  0  0
   28.0230   27.5780   47.0880 C   0  0  1  0  0  3  0  0  0  0  0  0
   29.0120   28.3210   47.9620 C   0  0  1  0  0  3  0  0  0  0  0  0
   29.2250   27.4520   49.1820 C   0  0  0  0  0  3  0  0  0  0  0  0
   29.9610   26.6390   49.0150 H   0  0  0  0  0  0  0  0  0  0  0  0
   27.9930   26.9320   49.5210 O   0  0  0  0  0  0  0  0  0  0  0  0
   26.9220   27.7570   49.2220 C   0  0  0  0  0  3  0  0  0  0  0  0
   26.0210   27.2630   49.6540 H   0  0  0  0  0  0  0  0  0  0  0  0
   26.6430   27.8060   47.7150 C   0  0  1  0  0  3  0  0  0  0  0  0
   28.1170   28.0530   45.8030 O   0  0  0  0  0  0  0  0  0  0  0  0
   28.7150   27.4740   45.2370 H   0  0  0  0  0  0  0  0  0  0  0  0
   26.2620   29.0860   47.3090 O   0  0  0  0  0  0  0  0  0  0  0  0
   26.7580   29.3880   46.4980 H   0  0  0  0  0  0  0  0  0  0  0  0
  2  1  1  0  0  0  0
  3 24  1  0  0  0  0
  3  2  2  0  0  0  0
  4  3  1  0  0  0  0
  5  4  2  0  0  0  0
  5  6  1  0  0  0  0
  6  7  2  0  0  0  0
  7  2  1  0  0  0  0
  7 13  1  0  0  0  0
  8  4  1  0  0  0  0
  9  5  1  0  0  0  0
 10  6  1  0  0  0  0
 11 12  1  0  0  0  0
 12 13  2  0  0  0  0
 12 17  1  0  0  0  0
 13 14  1  0  0  0  0
 14 18  1  0  0  0  0
 14 15  2  0  0  0  0
 15 19  1  0  0  0  0
 16 15  1  0  0  0  0
 16 20  1  0  0  0  0
 17 16  2  0  0  0  0
 21 22  1  0  0  0  0
 21 17  1  0  0  0  0
 23 29  1  0  0  0  0
 23 28  1  0  0  0  0
 24 23  2  0  0  0  0
 25 24  1  0  0  0  0
 25 26  2  0  0  0  0
 26 27  1  0  0  0  0
 27 28  2  0  0  0  0
 30 25  1  0  0  0  0
 31 39  1  6  0  0  0
 31 38  1  0  0  0  0
 31 32  1  0  0  0  0
 32 27  1  6  0  0  0
 32 33  1  0  0  0  0
 33 35  1  0  0  0  0
 34 33  1  0  0  0  0
 36 35  1  0  0  0  0
 36 37  1  0  0  0  0
 38 41  1  1  0  0  0
 38 36  1  0  0  0  0
 40 39  1  0  0  0  0
 42 41  1  0  0  0  0
M  END
>  <minimizedAffinity>
-6.88634348

>  <minimizedRMSD>
1.11942053

$$$$
