
 OpenBabel03272500073D

 42 45  0  0  1  0  0  0  0  0999 V2000
   31.0680   27.2860   48.2620 C   0  0  0  0  0  0  0  0  0  0  0  0
   30.8380   27.7640   49.5350 C   0  0  0  0  0  0  0  0  0  0  0  0
   29.5800   28.1790   49.9220 C   0  0  0  0  0  0  0  0  0  0  0  0
   28.5350   28.1140   49.0130 C   0  0  0  0  0  0  0  0  0  0  0  0
   28.7790   27.6360   47.7490 C   0  0  0  0  0  0  0  0  0  0  0  0
   30.0230   27.2270   47.3730 C   0  0  0  0  0  0  0  0  0  0  0  0
   31.6260   27.8380   50.2930 H   0  0  0  0  0  0  0  0  0  0  0  0
   29.4250   28.5520   50.9320 H   0  0  0  0  0  0  0  0  0  0  0  0
   27.5700   28.4450   49.3470 H   0  0  0  0  0  0  0  0  0  0  0  0
   27.9260   27.6090   47.0860 H   0  0  0  0  0  0  0  0  0  0  0  0
   30.6190   27.7760   45.0260 C   0  0  2  0  0  3  0  0  0  0  0  0
   30.2420   26.7040   46.0300 C   0  0  1  0  0  3  0  0  0  0  0  0
   31.2630   25.6050   45.9100 C   0  0  0  0  0  3  0  0  0  0  0  0
   30.7780   24.6340   46.1820 H   0  0  0  0  0  0  0  0  0  0  0  0
   31.5970   25.4650   44.5600 O   0  0  0  0  0  0  0  0  0  0  0  0
   30.5650   25.7170   43.6970 C   0  0  0  0  0  3  0  0  0  0  0  0
   30.9060   25.3410   42.6960 H   0  0  0  0  0  0  0  0  0  0  0  0
   30.2940   27.2210   43.6540 C   0  0  2  0  0  3  0  0  0  0  0  0
   31.9950   27.9760   45.1340 O   0  0  0  0  0  0  0  0  0  0  0  0
   32.2010   28.9340   44.9700 H   0  0  0  0  0  0  0  0  0  0  0  0
   30.9870   27.8600   42.6560 O   0  0  0  0  0  0  0  0  0  0  0  0
   30.3360   28.2230   42.0040 H   0  0  0  0  0  0  0  0  0  0  0  0
   32.3860   26.9080   48.0220 O   0  0  0  0  0  0  0  0  0  0  0  0
   35.3030   28.7090   49.1150 C   0  0  0  0  0  0  0  0  0  0  0  0
   35.2340   29.9090   48.4060 C   0  0  0  0  0  0  0  0  0  0  0  0
   34.1430   30.0790   47.5340 C   0  0  0  0  0  0  0  0  0  0  0  0
   33.2350   29.0730   47.4390 N   0  0  0  0  0  0  0  0  0  0  0  0
   33.3290   27.9370   48.1310 C   0  0  0  0  0  0  0  0  0  0  0  0
   34.3770   27.7440   48.9840 N   0  0  0  0  0  0  0  0  0  0  0  0
   36.1190   28.4870   49.8190 H   0  0  0  0  0  0  0  0  0  0  0  0
   34.0840   30.9980   46.9870 H   0  0  0  0  0  0  0  0  0  0  0  0
   36.2480   30.8730   48.5980 N   0  0  0  0  0  0  0  0  0  0  0  0
   36.3960   31.5300   49.7440 C   0  0  0  0  0  0  0  0  0  0  0  0
   37.4130   32.4720   49.8720 C   0  0  0  0  0  0  0  0  0  0  0  0
   38.1980   32.6410   48.7600 C   0  0  0  0  0  0  0  0  0  0  0  0
   39.1190   33.4950   48.8700 O   0  0  0  0  0  0  0  0  0  0  0  0
   38.0790   32.0040   47.6040 N   0  0  0  0  0  0  0  0  0  0  0  0
   37.0730   31.0920   47.5210 C   0  0  0  0  0  0  0  0  0  0  0  0
   36.9460   30.4730   46.4160 O   0  0  0  0  0  0  0  0  0  0  0  0
   35.7500   31.3570   50.5890 H   0  0  0  0  0  0  0  0  0  0  0  0
   37.5390   33.0100   50.8030 H   0  0  0  0  0  0  0  0  0  0  0  0
   38.7060   32.1760   46.7970 H   0  0  0  0  0  0  0  0  0  0  0  0
  1  2  1  0  0  0  0
  2  3  2  0  0  0  0
  2  7  1  0  0  0  0
  3  8  1  0  0  0  0
  4  9  1  0  0  0  0
  4  3  1  0  0  0  0
  5  4  2  0  0  0  0
  6  5  1  0  0  0  0
  6  1  2  0  0  0  0
 10  5  1  0  0  0  0
 11 19  1  6  0  0  0
 11 12  1  0  0  0  0
 12  6  1  1  0  0  0
 13 12  1  0  0  0  0
 13 14  1  0  0  0  0
 15 13  1  0  0  0  0
 16 15  1  0  0  0  0
 17 16  1  0  0  0  0
 18 21  1  6  0  0  0
 18 16  1  0  0  0  0
 18 11  1  0  0  0  0
 20 19  1  0  0  0  0
 22 21  1  0  0  0  0
 23 28  1  0  0  0  0
 23  1  1  0  0  0  0
 24 30  1  0  0  0  0
 25 32  1  0  0  0  0
 25 24  2  0  0  0  0
 26 25  1  0  0  0  0
 27 26  2  0  0  0  0
 27 28  1  0  0  0  0
 28 29  2  0  0  0  0
 29 24  1  0  0  0  0
 31 26  1  0  0  0  0
 32 33  1  0  0  0  0
 33 34  2  0  0  0  0
 33 40  1  0  0  0  0
 34 41  1  0  0  0  0
 35 36  2  0  0  0  0
 35 34  1  0  0  0  0
 37 35  1  0  0  0  0
 38 37  1  0  0  0  0
 38 32  1  0  0  0  0
 39 38  2  0  0  0  0
 42 37  1  0  0  0  0
M  END
>  <minimizedAffinity>
-5.74295568

>  <minimizedRMSD>
0.852325797

$$$$
