
 OpenBabel03262521233D

 50 53  0  0  1  0  0  0  0  0999 V2000
   40.3910   25.2550   53.3770 C   0  0  0  0  0  0  0  0  0  0  0  0
   39.7740   26.0710   52.4270 C   0  0  0  0  0  0  0  0  0  0  0  0
   40.1000   25.7950   51.0900 C   0  0  0  0  0  0  0  0  0  0  0  0
   40.9510   24.8100   50.7090 C   0  0  0  0  0  0  0  0  0  0  0  0
   41.4290   24.3340   49.5810 N   0  0  0  0  0  0  0  0  0  0  0  0
   42.2890   23.2910   49.7660 C   0  0  0  0  0  0  0  0  0  0  0  0
   42.3520   23.1020   51.1320 C   0  0  0  0  0  0  0  0  0  0  0  0
   41.5250   24.0420   51.6900 C   0  0  0  0  0  0  0  0  0  0  0  0
   41.2640   24.2410   53.0250 C   0  0  0  0  0  0  0  0  0  0  0  0
   40.1190   25.4940   54.3850 H   0  0  0  0  0  0  0  0  0  0  0  0
   39.6620   26.3850   50.2860 H   0  0  0  0  0  0  0  0  0  0  0  0
   41.1990   24.6900   48.6130 H   0  0  0  0  0  0  0  0  0  0  0  0
   42.7970   22.7510   48.9730 H   0  0  0  0  0  0  0  0  0  0  0  0
   42.9540   22.3420   51.6160 H   0  0  0  0  0  0  0  0  0  0  0  0
   40.7480   22.6410   54.7530 C   0  0  2  0  0  3  0  0  0  0  0  0
   41.8840   23.4120   54.0780 C   0  0  2  0  0  3  0  0  0  0  0  0
   42.6460   24.1430   55.1160 C   0  0  0  0  0  3  0  0  0  0  0  0
   42.0660   24.9380   55.6270 H   0  0  0  0  0  0  0  0  0  0  0  0
   43.0430   23.2670   56.0890 O   0  0  0  0  0  0  0  0  0  0  0  0
   42.8360   21.9380   55.8450 C   0  0  0  0  0  3  0  0  0  0  0  0
   43.5770   21.4930   55.1180 H   0  0  0  0  0  0  0  0  0  0  0  0
   41.4380   21.5350   55.5160 C   0  0  1  0  0  3  0  0  0  0  0  0
   39.8420   22.1960   53.8190 O   0  0  0  0  0  0  0  0  0  0  0  0
   39.5860   21.2590   54.0170 H   0  0  0  0  0  0  0  0  0  0  0  0
   40.6580   21.2050   56.5990 O   0  0  0  0  0  0  0  0  0  0  0  0
   39.7130   21.2760   56.3000 H   0  0  0  0  0  0  0  0  0  0  0  0
   38.6410   27.4000   52.7070 S   0  0  0  0  0  0  0  0  0  0  0  0
   38.1200   28.2410   51.2220 C   0  0  0  0  0  0  0  0  0  0  0  0
   39.0190   28.6800   50.7400 H   0  0  0  0  0  0  0  0  0  0  0  0
   37.7500   27.4650   50.4900 H   0  0  0  0  0  0  0  0  0  0  0  0
   37.1160   29.3420   51.4480 C   0  0  0  0  0  0  0  0  0  0  0  0
   36.9920   29.3840   52.5730 H   0  0  0  0  0  0  0  0  0  0  0  0
   36.1330   28.9410   51.1180 H   0  0  0  0  0  0  0  0  0  0  0  0
   37.4780   30.5420   50.9250 C   0  0  0  0  0  0  0  0  0  0  0  0
   38.4990   30.9060   51.2150 H   0  0  0  0  0  0  0  0  0  0  0  0
   36.7880   31.3930   51.1140 H   0  0  0  0  0  0  0  0  0  0  0  0
   37.4780   30.1880   49.6030 O   0  0  0  0  0  0  0  0  0  0  0  0
   38.0910   31.0240   48.7020 C   0  0  0  0  0  0  0  0  0  0  0  0
   38.3790   32.2590   49.2280 C   0  0  0  0  0  0  0  0  0  0  0  0
   39.0080   33.2120   48.4110 C   0  0  0  0  0  0  0  0  0  0  0  0
   39.2990   32.8510   47.1320 N   0  0  0  0  0  0  0  0  0  0  0  0
   38.9990   31.6080   46.6340 C   0  0  0  0  0  0  0  0  0  0  0  0
   38.4000   30.7300   47.4430 N   0  0  0  0  0  0  0  0  0  0  0  0
   39.9320   32.4270   44.5870 C   0  0  0  0  0  0  0  0  0  0  0  0
   40.1570   33.5800   45.0660 O   0  0  0  0  0  0  0  0  0  0  0  0
   39.3480   31.3370   45.2830 N   0  0  0  0  0  0  0  0  0  0  0  0
   38.2030   32.6750   50.2220 H   0  0  0  0  0  0  0  0  0  0  0  0
   39.2750   34.2000   48.7210 H   0  0  0  0  0  0  0  0  0  0  0  0
   40.2150   32.2600   43.5460 H   0  0  0  0  0  0  0  0  0  0  0  0
   39.1570   30.3840   44.9000 H   0  0  0  0  0  0  0  0  0  0  0  0
  1 10  1  0  0  0  0
  2 27  1  0  0  0  0
  2  1  2  0  0  0  0
  3  2  1  0  0  0  0
  4  3  2  0  0  0  0
  4  8  1  0  0  0  0
  5  6  1  0  0  0  0
  5  4  1  0  0  0  0
  6  7  2  0  0  0  0
  7 14  1  0  0  0  0
  7  8  1  0  0  0  0
  8  9  2  0  0  0  0
  9  1  1  0  0  0  0
 11  3  1  0  0  0  0
 12  5  1  0  0  0  0
 13  6  1  0  0  0  0
 15 23  1  6  0  0  0
 15 22  1  0  0  0  0
 16  9  1  6  0  0  0
 16 15  1  0  0  0  0
 16 17  1  0  0  0  0
 17 18  1  0  0  0  0
 17 19  1  0  0  0  0
 20 19  1  0  0  0  0
 21 20  1  0  0  0  0
 22 20  1  0  0  0  0
 22 25  1  1  0  0  0
 23 24  1  0  0  0  0
 26 25  1  0  0  0  0
 28 31  1  0  0  0  0
 28 27  1  0  0  0  0
 29 28  1  0  0  0  0
 30 28  1  0  0  0  0
 31 32  1  0  0  0  0
 33 31  1  0  0  0  0
 34 36  1  0  0  0  0
 34 35  1  0  0  0  0
 34 31  1  0  0  0  0
 37 34  1  0  0  0  0
 38 39  1  0  0  0  0
 38 37  1  0  0  0  0
 39 47  1  0  0  0  0
 40 48  1  0  0  0  0
 40 39  2  0  0  0  0
 41 40  1  0  0  0  0
 42 41  2  0  0  0  0
 42 43  1  0  0  0  0
 43 38  2  0  0  0  0
 44 45  2  0  0  0  0
 44 46  1  0  0  0  0
 46 42  1  0  0  0  0
 49 44  1  0  0  0  0
 50 46  1  0  0  0  0
M  END
>  <minimizedAffinity>
-4.48328018

>  <minimizedRMSD>
0.479627997

$$$$
