
 OpenBabel03272502063D

 42 45  0  0  1  0  0  0  0  0999 V2000
   34.5700   30.4100   47.5360 F   0  0  0  0  0  0  0  0  0  0  0  0
   34.9010   29.9560   46.2830 C   0  0  0  0  0  0  0  0  0  0  0  0
   33.9900   29.2900   45.4780 C   0  0  0  0  0  0  0  0  0  0  0  0
   34.3900   28.8810   44.2230 C   0  0  0  0  0  0  0  0  0  0  0  0
   35.6890   29.1320   43.7700 C   0  0  0  0  0  0  0  0  0  0  0  0
   36.5450   29.7980   44.6240 C   0  0  0  0  0  0  0  0  0  0  0  0
   36.2010   30.2160   45.8540 C   0  0  0  0  0  0  0  0  0  0  0  0
   33.6520   28.3730   43.6420 H   0  0  0  0  0  0  0  0  0  0  0  0
   35.9650   28.8000   42.7900 H   0  0  0  0  0  0  0  0  0  0  0  0
   37.5290   29.9530   44.2010 H   0  0  0  0  0  0  0  0  0  0  0  0
   37.9880   32.4330   44.5540 Br  0  0  0  0  0  0  0  0  0  0  0  0
   38.0150   31.9170   46.3880 C   0  0  0  0  0  0  0  0  0  0  0  0
   37.1540   30.8980   46.7070 C   0  0  0  0  0  0  0  0  0  0  0  0
   37.1460   30.4370   48.0370 C   0  0  0  0  0  0  0  0  0  0  0  0
   37.9660   30.9880   48.9690 C   0  0  0  0  0  0  0  0  0  0  0  0
   38.8100   32.0120   48.5880 C   0  0  0  0  0  0  0  0  0  0  0  0
   38.8460   32.4970   47.2750 C   0  0  0  0  0  0  0  0  0  0  0  0
   36.5010   29.6370   48.3750 H   0  0  0  0  0  0  0  0  0  0  0  0
   37.9970   30.6660   50.0020 H   0  0  0  0  0  0  0  0  0  0  0  0
   39.4810   32.4810   49.2960 H   0  0  0  0  0  0  0  0  0  0  0  0
   39.6390   33.5010   46.8130 O   0  0  0  0  0  0  0  0  0  0  0  0
   40.5130   33.8090   47.2170 H   0  0  0  0  0  0  0  0  0  0  0  0
   32.5390   28.0530   46.9450 C   0  0  0  0  0  0  0  0  0  0  0  0
   32.6910   29.0970   46.0590 C   0  0  0  0  0  0  0  0  0  0  0  0
   31.5820   29.9050   45.7970 C   0  0  0  0  0  0  0  0  0  0  0  0
   30.4020   29.6390   46.4180 N   0  0  0  0  0  0  0  0  0  0  0  0
   30.2950   28.6230   47.2680 C   0  0  0  0  0  0  0  0  0  0  0  0
   31.3300   27.8410   47.5330 N   0  0  0  0  0  0  0  0  0  0  0  0
   33.3360   27.3620   47.2200 H   0  0  0  0  0  0  0  0  0  0  0  0
   31.7250   30.7090   45.1040 H   0  0  0  0  0  0  0  0  0  0  0  0
   28.0240   27.5800   47.0800 C   0  0  1  0  0  3  0  0  0  0  0  0
   29.0140   28.3170   47.9580 C   0  0  1  0  0  3  0  0  0  0  0  0
   29.2270   27.4420   49.1740 C   0  0  0  0  0  3  0  0  0  0  0  0
   29.9620   26.6290   49.0030 H   0  0  0  0  0  0  0  0  0  0  0  0
   27.9940   26.9230   49.5110 O   0  0  0  0  0  0  0  0  0  0  0  0
   26.9240   27.7500   49.2160 C   0  0  0  0  0  3  0  0  0  0  0  0
   26.0230   27.2550   49.6460 H   0  0  0  0  0  0  0  0  0  0  0  0
   26.6440   27.8060   47.7090 C   0  0  1  0  0  3  0  0  0  0  0  0
   28.1180   28.0590   45.7980 O   0  0  0  0  0  0  0  0  0  0  0  0
   28.7140   27.4840   45.2290 H   0  0  0  0  0  0  0  0  0  0  0  0
   26.2650   29.0890   47.3090 O   0  0  0  0  0  0  0  0  0  0  0  0
   26.7620   29.3940   46.4990 H   0  0  0  0  0  0  0  0  0  0  0  0
  2  1  1  0  0  0  0
  3 24  1  0  0  0  0
  3  2  2  0  0  0  0
  4  3  1  0  0  0  0
  5  4  2  0  0  0  0
  5  6  1  0  0  0  0
  6  7  2  0  0  0  0
  7  2  1  0  0  0  0
  7 13  1  0  0  0  0
  8  4  1  0  0  0  0
  9  5  1  0  0  0  0
 10  6  1  0  0  0  0
 11 12  1  0  0  0  0
 12 13  2  0  0  0  0
 12 17  1  0  0  0  0
 13 14  1  0  0  0  0
 14 18  1  0  0  0  0
 14 15  2  0  0  0  0
 15 19  1  0  0  0  0
 16 15  1  0  0  0  0
 16 20  1  0  0  0  0
 17 16  2  0  0  0  0
 21 22  1  0  0  0  0
 21 17  1  0  0  0  0
 23 29  1  0  0  0  0
 23 28  1  0  0  0  0
 24 23  2  0  0  0  0
 25 24  1  0  0  0  0
 25 26  2  0  0  0  0
 26 27  1  0  0  0  0
 27 28  2  0  0  0  0
 30 25  1  0  0  0  0
 31 39  1  6  0  0  0
 31 38  1  0  0  0  0
 31 32  1  0  0  0  0
 32 27  1  6  0  0  0
 32 33  1  0  0  0  0
 33 35  1  0  0  0  0
 34 33  1  0  0  0  0
 36 35  1  0  0  0  0
 36 37  1  0  0  0  0
 38 41  1  1  0  0  0
 38 36  1  0  0  0  0
 40 39  1  0  0  0  0
 42 41  1  0  0  0  0
M  END
>  <minimizedAffinity>
-6.8868432

>  <minimizedRMSD>
0.845264435

$$$$
