
 OpenBabel03272509423D

 41 43  0  0  1  0  0  0  0  0999 V2000
   37.0370   30.9310   49.0600 C   0  0  0  0  0  0  0  0  0  0  0  0
   36.7190   31.8310   50.0800 C   0  0  0  0  0  0  0  0  0  0  0  0
   37.3020   33.0850   50.1550 C   0  0  0  0  0  0  0  0  0  0  0  0
   38.2350   33.4700   49.1870 C   0  0  0  0  0  0  0  0  0  0  0  0
   38.5380   32.5820   48.1950 C   0  0  0  0  0  0  0  0  0  0  0  0
   37.9340   31.3330   48.1520 C   0  0  0  0  0  0  0  0  0  0  0  0
   35.9940   31.5350   50.8340 H   0  0  0  0  0  0  0  0  0  0  0  0
   37.0030   33.7100   50.9660 H   0  0  0  0  0  0  0  0  0  0  0  0
   38.6340   34.4570   49.3230 H   0  0  0  0  0  0  0  0  0  0  0  0
   39.2750   33.0200   47.5230 H   0  0  0  0  0  0  0  0  0  0  0  0
   36.4560   29.6080   48.9990 C   0  0  2  0  0  0  0  0  0  0  0  0
   37.0130   29.0700   48.1390 H   0  0  0  0  0  0  0  0  0  0  0  0
   33.6470   30.0780   46.7430 C   0  0  0  0  0  0  0  0  0  0  0  0
   32.9750   28.8720   46.7890 C   0  0  0  0  0  0  0  0  0  0  0  0
   33.4450   27.8960   47.6490 C   0  0  0  0  0  0  0  0  0  0  0  0
   34.5560   28.1570   48.4200 N   0  0  0  0  0  0  0  0  0  0  0  0
   35.1550   29.3250   48.3290 C   0  0  0  0  0  0  0  0  0  0  0  0
   34.7080   30.2930   47.4960 N   0  0  0  0  0  0  0  0  0  0  0  0
   33.2450   30.8170   46.0570 H   0  0  0  0  0  0  0  0  0  0  0  0
   32.1000   28.6230   46.2020 H   0  0  0  0  0  0  0  0  0  0  0  0
   33.0190   26.9030   47.7910 H   0  0  0  0  0  0  0  0  0  0  0  0
   36.8690   28.8430   49.9490 O   0  0  0  0  0  0  0  0  0  0  0  0
   36.3220   28.5970   50.7100 H   0  0  0  0  0  0  0  0  0  0  0  0
   38.3660   30.4820   47.0670 C   0  0  0  0  0  3  0  0  0  0  0  0
   38.9850   30.9310   45.9690 C   0  0  0  0  0  3  0  0  0  0  0  0
   39.5090   30.1520   44.8230 C   0  0  0  0  0  0  0  0  0  0  0  0
   38.7800   29.3420   44.5920 H   0  0  0  0  0  0  0  0  0  0  0  0
   40.4820   29.7230   45.1120 H   0  0  0  0  0  0  0  0  0  0  0  0
   39.7840   31.2430   43.4240 S   0  0  0  0  0  0  0  0  0  0  0  0
   40.5910   29.2460   41.6840 C   0  0  1  0  0  3  0  0  0  0  0  0
   39.5040   30.2860   41.9030 C   0  0  1  0  0  3  0  0  0  0  0  0
   38.1360   29.6540   42.0230 C   0  0  0  0  0  3  0  0  0  0  0  0
   38.0900   29.0380   42.9290 H   0  0  0  0  0  0  0  0  0  0  0  0
   37.7600   28.9990   40.8550 O   0  0  0  0  0  0  0  0  0  0  0  0
   38.8590   28.6690   40.0650 C   0  0  0  0  0  3  0  0  0  0  0  0
   38.5500   27.8940   39.3370 H   0  0  0  0  0  0  0  0  0  0  0  0
   39.9130   28.0880   40.9750 C   0  0  1  0  0  3  0  0  0  0  0  0
   41.6430   29.7880   40.9800 O   0  0  0  0  0  0  0  0  0  0  0  0
   41.9420   29.2110   40.2320 H   0  0  0  0  0  0  0  0  0  0  0  0
   40.8330   27.3280   40.2700 O   0  0  0  0  0  0  0  0  0  0  0  0
   40.7190   26.3810   40.5350 H   0  0  0  0  0  0  0  0  0  0  0  0
  1  2  1  0  0  0  0
  2  3  2  0  0  0  0
  2  7  1  0  0  0  0
  3  8  1  0  0  0  0
  4  9  1  0  0  0  0
  4  3  1  0  0  0  0
  5  4  2  0  0  0  0
  6  5  1  0  0  0  0
  6  1  2  0  0  0  0
 10  5  1  0  0  0  0
 11 12  1  6  0  0  0
 11  1  1  0  0  0  0
 11 22  1  0  0  0  0
 13 14  2  0  0  0  0
 13 18  1  0  0  0  0
 14 15  1  0  0  0  0
 15 21  1  0  0  0  0
 15 16  2  0  0  0  0
 17 16  1  0  0  0  0
 17 11  1  0  0  0  0
 18 17  2  0  0  0  0
 19 13  1  0  0  0  0
 20 14  1  0  0  0  0
 22 23  1  0  0  0  0
 24  6  1  0  0  0  0
 25 24  2  0  0  0  0
 26 28  1  0  0  0  0
 26 25  1  0  0  0  0
 27 26  1  0  0  0  0
 29 26  1  0  0  0  0
 30 38  1  6  0  0  0
 30 31  1  0  0  0  0
 31 32  1  0  0  0  0
 31 29  1  1  0  0  0
 32 33  1  0  0  0  0
 34 32  1  0  0  0  0
 35 34  1  0  0  0  0
 35 37  1  0  0  0  0
 36 35  1  0  0  0  0
 37 40  1  6  0  0  0
 37 30  1  0  0  0  0
 39 38  1  0  0  0  0
 40 41  1  0  0  0  0
M  END
>  <minimizedAffinity>
-5.78354931

>  <minimizedRMSD>
0.680775702

$$$$
