
 OpenBabel03272509423D

 41 43  0  0  1  0  0  0  0  0999 V2000
   37.0940   30.9390   49.0520 C   0  0  0  0  0  0  0  0  0  0  0  0
   36.8180   31.9000   50.0280 C   0  0  0  0  0  0  0  0  0  0  0  0
   37.4210   33.1470   50.0160 C   0  0  0  0  0  0  0  0  0  0  0  0
   38.3320   33.4620   49.0020 C   0  0  0  0  0  0  0  0  0  0  0  0
   38.5940   32.5140   48.0540 C   0  0  0  0  0  0  0  0  0  0  0  0
   37.9700   31.2740   48.0990 C   0  0  0  0  0  0  0  0  0  0  0  0
   36.1100   31.6590   50.8170 H   0  0  0  0  0  0  0  0  0  0  0  0
   37.1540   33.8200   50.7980 H   0  0  0  0  0  0  0  0  0  0  0  0
   38.7490   34.4480   49.0720 H   0  0  0  0  0  0  0  0  0  0  0  0
   39.3180   32.9010   47.3380 H   0  0  0  0  0  0  0  0  0  0  0  0
   36.4910   29.6250   49.0820 C   0  0  2  0  0  0  0  0  0  0  0  0
   36.9900   29.0420   48.2150 H   0  0  0  0  0  0  0  0  0  0  0  0
   33.6370   29.9360   46.8550 C   0  0  0  0  0  0  0  0  0  0  0  0
   32.8870   28.8050   47.1110 C   0  0  0  0  0  0  0  0  0  0  0  0
   33.3220   27.9450   48.1020 C   0  0  0  0  0  0  0  0  0  0  0  0
   34.4770   28.2430   48.7920 N   0  0  0  0  0  0  0  0  0  0  0  0
   35.1490   29.3350   48.5000 C   0  0  0  0  0  0  0  0  0  0  0  0
   34.7380   30.1900   47.5350 N   0  0  0  0  0  0  0  0  0  0  0  0
   33.2610   30.5850   46.0710 H   0  0  0  0  0  0  0  0  0  0  0  0
   31.9770   28.5310   46.5940 H   0  0  0  0  0  0  0  0  0  0  0  0
   32.8360   27.0200   48.4130 H   0  0  0  0  0  0  0  0  0  0  0  0
   36.9470   28.8940   50.0380 O   0  0  0  0  0  0  0  0  0  0  0  0
   36.4420   28.6890   50.8400 H   0  0  0  0  0  0  0  0  0  0  0  0
   38.3590   30.3570   47.0520 C   0  0  0  0  0  3  0  0  0  0  0  0
   38.6620   30.7350   45.8050 C   0  0  0  0  0  3  0  0  0  0  0  0
   39.1120   29.8940   44.6710 C   0  0  0  0  0  0  0  0  0  0  0  0
   38.3830   29.0620   44.5450 H   0  0  0  0  0  0  0  0  0  0  0  0
   40.1120   29.4960   44.9120 H   0  0  0  0  0  0  0  0  0  0  0  0
   39.2640   30.9010   43.1930 S   0  0  0  0  0  0  0  0  0  0  0  0
   40.0440   28.6750   41.7410 C   0  0  1  0  0  3  0  0  0  0  0  0
   40.4630   30.0960   42.0860 C   0  0  1  0  0  3  0  0  0  0  0  0
   40.5790   30.9640   40.8540 C   0  0  0  0  0  3  0  0  0  0  0  0
   39.5920   31.0900   40.3940 H   0  0  0  0  0  0  0  0  0  0  0  0
   41.5690   30.5110   39.9890 O   0  0  0  0  0  0  0  0  0  0  0  0
   41.8700   29.1670   40.1980 C   0  0  0  0  0  3  0  0  0  0  0  0
   42.4050   28.7820   39.3090 H   0  0  0  0  0  0  0  0  0  0  0  0
   40.5630   28.4260   40.3360 C   0  0  1  0  0  3  0  0  0  0  0  0
   40.5290   27.7900   42.6770 O   0  0  0  0  0  0  0  0  0  0  0  0
   40.9590   26.9960   42.2680 H   0  0  0  0  0  0  0  0  0  0  0  0
   40.7180   27.0700   40.0970 O   0  0  0  0  0  0  0  0  0  0  0  0
   40.2410   26.8480   39.2570 H   0  0  0  0  0  0  0  0  0  0  0  0
  1 11  1  0  0  0  0
  1  2  1  0  0  0  0
  2  7  1  0  0  0  0
  3  2  2  0  0  0  0
  3  8  1  0  0  0  0
  4  9  1  0  0  0  0
  4  3  1  0  0  0  0
  5  6  1  0  0  0  0
  5  4  2  0  0  0  0
  6  1  2  0  0  0  0
 10  5  1  0  0  0  0
 11 12  1  6  0  0  0
 11 22  1  0  0  0  0
 13 14  2  0  0  0  0
 13 18  1  0  0  0  0
 14 15  1  0  0  0  0
 15 21  1  0  0  0  0
 15 16  2  0  0  0  0
 17 16  1  0  0  0  0
 17 11  1  0  0  0  0
 18 17  2  0  0  0  0
 19 13  1  0  0  0  0
 20 14  1  0  0  0  0
 22 23  1  0  0  0  0
 24  6  1  0  0  0  0
 25 24  2  0  0  0  0
 26 28  1  0  0  0  0
 26 25  1  0  0  0  0
 27 26  1  0  0  0  0
 29 26  1  0  0  0  0
 30 31  1  0  0  0  0
 30 38  1  1  0  0  0
 31 29  1  1  0  0  0
 32 31  1  0  0  0  0
 33 32  1  0  0  0  0
 34 35  1  0  0  0  0
 34 32  1  0  0  0  0
 35 37  1  0  0  0  0
 36 35  1  0  0  0  0
 37 40  1  1  0  0  0
 37 30  1  0  0  0  0
 39 38  1  0  0  0  0
 41 40  1  0  0  0  0
M  END
>  <minimizedAffinity>
-6.2647624

>  <minimizedRMSD>
0.794141889

$$$$
