
 OpenBabel03272509423D

 41 43  0  0  1  0  0  0  0  0999 V2000
   37.0240   30.9960   49.0710 C   0  0  0  0  0  0  0  0  0  0  0  0
   36.6420   31.8360   50.1200 C   0  0  0  0  0  0  0  0  0  0  0  0
   37.1750   33.1050   50.2710 C   0  0  0  0  0  0  0  0  0  0  0  0
   38.1220   33.5680   49.3520 C   0  0  0  0  0  0  0  0  0  0  0  0
   38.4880   32.7380   48.3300 C   0  0  0  0  0  0  0  0  0  0  0  0
   37.9320   31.4720   48.2120 C   0  0  0  0  0  0  0  0  0  0  0  0
   35.9060   31.4790   50.8360 H   0  0  0  0  0  0  0  0  0  0  0  0
   36.8280   33.6800   51.0990 H   0  0  0  0  0  0  0  0  0  0  0  0
   38.4790   34.5610   49.5460 H   0  0  0  0  0  0  0  0  0  0  0  0
   39.2280   33.2330   47.7030 H   0  0  0  0  0  0  0  0  0  0  0  0
   36.4940   29.6580   48.9310 C   0  0  2  0  0  0  0  0  0  0  0  0
   37.0380   29.2100   48.0130 H   0  0  0  0  0  0  0  0  0  0  0  0
   33.6480   30.1010   46.7170 C   0  0  0  0  0  0  0  0  0  0  0  0
   32.9700   28.9000   46.7980 C   0  0  0  0  0  0  0  0  0  0  0  0
   33.4500   27.9380   47.6670 C   0  0  0  0  0  0  0  0  0  0  0  0
   34.5770   28.2070   48.4140 N   0  0  0  0  0  0  0  0  0  0  0  0
   35.1800   29.3700   48.2900 C   0  0  0  0  0  0  0  0  0  0  0  0
   34.7230   30.3250   47.4470 N   0  0  0  0  0  0  0  0  0  0  0  0
   33.2380   30.8290   46.0240 H   0  0  0  0  0  0  0  0  0  0  0  0
   32.0840   28.6450   46.2320 H   0  0  0  0  0  0  0  0  0  0  0  0
   33.0220   26.9500   47.8360 H   0  0  0  0  0  0  0  0  0  0  0  0
   36.9750   28.8430   49.8040 O   0  0  0  0  0  0  0  0  0  0  0  0
   36.4690   28.5170   50.5640 H   0  0  0  0  0  0  0  0  0  0  0  0
   38.4280   30.6890   47.1030 C   0  0  0  0  0  3  0  0  0  0  0  0
   39.2640   31.1620   46.1720 C   0  0  0  0  0  3  0  0  0  0  0  0
   39.8680   30.4430   45.0250 C   0  0  0  0  0  0  0  0  0  0  0  0
   40.5850   29.6910   45.4260 H   0  0  0  0  0  0  0  0  0  0  0  0
   40.3930   31.1790   44.3940 H   0  0  0  0  0  0  0  0  0  0  0  0
   38.5740   29.6940   44.0310 S   0  0  0  0  0  0  0  0  0  0  0  0
   40.6510   29.7660   42.2000 C   0  0  1  0  0  3  0  0  0  0  0  0
   39.3340   29.0680   42.5010 C   0  0  1  0  0  3  0  0  0  0  0  0
   39.5150   27.5760   42.6760 C   0  0  0  0  0  3  0  0  0  0  0  0
   40.1230   27.3780   43.5670 H   0  0  0  0  0  0  0  0  0  0  0  0
   39.9740   26.9670   41.5130 O   0  0  0  0  0  0  0  0  0  0  0  0
   40.5950   27.8750   40.6580 C   0  0  0  0  0  3  0  0  0  0  0  0
   41.2060   27.3110   39.9280 H   0  0  0  0  0  0  0  0  0  0  0  0
   41.5110   28.7320   41.4970 C   0  0  1  0  0  3  0  0  0  0  0  0
   40.4320   30.9040   41.4570 O   0  0  0  0  0  0  0  0  0  0  0  0
   41.0430   30.9780   40.6800 H   0  0  0  0  0  0  0  0  0  0  0  0
   42.4890   29.3400   40.7260 O   0  0  0  0  0  0  0  0  0  0  0  0
   43.3650   28.9470   40.9720 H   0  0  0  0  0  0  0  0  0  0  0  0
  1  2  1  0  0  0  0
  2  3  2  0  0  0  0
  2  7  1  0  0  0  0
  3  8  1  0  0  0  0
  4  9  1  0  0  0  0
  4  3  1  0  0  0  0
  5  4  2  0  0  0  0
  6  5  1  0  0  0  0
  6  1  2  0  0  0  0
 10  5  1  0  0  0  0
 11 12  1  6  0  0  0
 11  1  1  0  0  0  0
 11 22  1  0  0  0  0
 13 14  2  0  0  0  0
 13 18  1  0  0  0  0
 14 15  1  0  0  0  0
 15 21  1  0  0  0  0
 15 16  2  0  0  0  0
 17 16  1  0  0  0  0
 17 11  1  0  0  0  0
 18 17  2  0  0  0  0
 19 13  1  0  0  0  0
 20 14  1  0  0  0  0
 22 23  1  0  0  0  0
 24  6  1  0  0  0  0
 25 24  2  0  0  0  0
 26 27  1  0  0  0  0
 26 25  1  0  0  0  0
 28 26  1  0  0  0  0
 29 26  1  0  0  0  0
 30 38  1  6  0  0  0
 30 31  1  0  0  0  0
 31 32  1  0  0  0  0
 31 29  1  1  0  0  0
 32 33  1  0  0  0  0
 34 32  1  0  0  0  0
 35 37  1  0  0  0  0
 35 34  1  0  0  0  0
 36 35  1  0  0  0  0
 37 40  1  6  0  0  0
 37 30  1  0  0  0  0
 39 38  1  0  0  0  0
 40 41  1  0  0  0  0
M  END
>  <minimizedAffinity>
-6.33790445

>  <minimizedRMSD>
0.720769644

$$$$
