
 OpenBabel03262520353D

 45 47  0  0  1  0  0  0  0  0999 V2000
   27.8510   28.2920   49.1240 C   0  0  0  0  0  0  0  0  0  0  0  0
   29.1650   27.8970   49.4260 C   0  0  0  0  0  0  0  0  0  0  0  0
   29.4680   27.2450   50.6000 C   0  0  0  0  0  0  0  0  0  0  0  0
   28.4650   26.9720   51.4970 C   0  0  0  0  0  0  0  0  0  0  0  0
   27.1890   27.3530   51.2110 C   0  0  0  0  0  0  0  0  0  0  0  0
   26.8310   28.0110   50.0450 C   0  0  0  0  0  0  0  0  0  0  0  0
   30.5080   26.9750   50.7540 H   0  0  0  0  0  0  0  0  0  0  0  0
   28.7960   26.4580   52.3890 H   0  0  0  0  0  0  0  0  0  0  0  0
   26.4250   27.1190   51.9470 H   0  0  0  0  0  0  0  0  0  0  0  0
   25.8040   28.2950   49.8580 H   0  0  0  0  0  0  0  0  0  0  0  0
   27.3950   29.1230   47.6560 S   0  0  0  0  0  0  0  0  0  0  0  0
   28.4720   30.0270   47.1950 O   0  0  0  0  0  0  0  0  0  0  0  0
   27.0690   28.0620   46.6010 O   0  0  0  0  0  0  0  0  0  0  0  0
   26.1380   31.2700   48.7460 C   0  0  2  0  0  3  0  0  0  0  0  0
   25.9230   30.0670   47.8870 C   0  0  1  0  0  3  0  0  0  0  0  0
   25.5300   30.5820   46.4960 C   0  0  0  0  0  3  0  0  0  0  0  0
   24.4950   30.9110   46.4330 H   0  0  0  0  0  0  0  0  0  0  0  0
   26.4880   31.4530   46.0440 O   0  0  0  0  0  0  0  0  0  0  0  0
   26.4940   32.6720   46.6810 C   0  0  0  0  0  3  0  0  0  0  0  0
   25.8870   33.3640   46.0410 H   0  0  0  0  0  0  0  0  0  0  0  0
   25.8180   32.5740   48.0100 C   0  0  1  0  0  3  0  0  0  0  0  0
   27.4320   31.3550   49.2420 O   0  0  0  0  0  0  0  0  0  0  0  0
   27.4650   31.4100   50.2290 H   0  0  0  0  0  0  0  0  0  0  0  0
   24.4340   32.6830   47.9570 O   0  0  0  0  0  0  0  0  0  0  0  0
   24.1410   33.5770   47.6860 H   0  0  0  0  0  0  0  0  0  0  0  0
   30.0500   28.2390   48.4310 O   0  0  0  0  0  0  0  0  0  0  0  0
   31.5040   26.0360   48.3910 O   0  0  0  0  0  0  0  0  0  0  0  0
   31.5490   27.5430   48.1190 P   0  0  1  0  0  0  0  0  0  0  0  0
   32.0460   27.8600   46.5170 O   0  0  0  0  0  0  0  0  0  0  0  0
   32.0960   27.0500   45.9800 H   0  0  0  0  0  0  0  0  0  0  0  0
   32.7400   28.1400   49.1750 O   0  0  0  0  0  0  0  0  0  0  0  0
   33.9820   27.5950   48.7880 C   0  0  0  0  0  0  0  0  0  0  0  0
   34.3280   26.9180   49.6200 H   0  0  0  0  0  0  0  0  0  0  0  0
   33.8340   27.0160   47.8640 H   0  0  0  0  0  0  0  0  0  0  0  0
   35.0400   29.7710   49.2790 C   0  0  0  0  0  3  0  0  0  0  0  0
   35.0180   28.6410   48.6210 C   0  0  0  0  0  3  0  0  0  0  0  0
   37.5210   32.4360   49.6160 C   0  0  0  0  0  0  0  0  0  0  0  0
   38.1640   32.3990   48.3600 C   0  0  0  0  0  0  0  0  0  0  0  0
   37.7250   31.4520   47.4170 C   0  0  0  0  0  0  0  0  0  0  0  0
   36.6950   30.6480   47.8350 N   0  0  0  0  0  0  0  0  0  0  0  0
   36.1170   30.7090   49.0170 C   0  0  0  0  0  0  0  0  0  0  0  0
   36.5370   31.6070   49.9020 N   0  0  0  0  0  0  0  0  0  0  0  0
   37.9190   33.1970   50.2870 H   0  0  0  0  0  0  0  0  0  0  0  0
   38.9690   33.0120   48.0050 H   0  0  0  0  0  0  0  0  0  0  0  0
   38.1710   31.3680   46.4370 H   0  0  0  0  0  0  0  0  0  0  0  0
  1  2  2  0  0  0  0
  1  6  1  0  0  0  0
  2  3  1  0  0  0  0
  3  7  1  0  0  0  0
  3  4  2  0  0  0  0
  4  8  1  0  0  0  0
  5  4  1  0  0  0  0
  5  9  1  0  0  0  0
  6  5  2  0  0  0  0
 10  6  1  0  0  0  0
 11  1  1  0  0  0  0
 12 11  2  0  0  0  0
 13 11  2  0  0  0  0
 14 22  1  6  0  0  0
 15 11  1  6  0  0  0
 15 14  1  0  0  0  0
 16 15  1  0  0  0  0
 17 16  1  0  0  0  0
 18 16  1  0  0  0  0
 18 19  1  0  0  0  0
 19 21  1  0  0  0  0
 20 19  1  0  0  0  0
 21 24  1  6  0  0  0
 21 14  1  0  0  0  0
 22 23  1  0  0  0  0
 25 24  1  0  0  0  0
 26  2  1  0  0  0  0
 28 27  2  1  0  0  0
 28 26  1  0  0  0  0
 28 31  1  0  0  0  0
 29 28  1  0  0  0  0
 30 29  1  0  0  0  0
 32 31  1  0  0  0  0
 32 33  1  0  0  0  0
 34 32  1  0  0  0  0
 36 32  1  0  0  0  0
 36 35  2  0  0  0  0
 37 42  1  0  0  0  0
 37 43  1  0  0  0  0
 38 37  2  0  0  0  0
 39 40  2  0  0  0  0
 39 38  1  0  0  0  0
 40 41  1  0  0  0  0
 41 35  1  0  0  0  0
 41 42  2  0  0  0  0
 44 38  1  0  0  0  0
 45 39  1  0  0  0  0
M  END
>  <minimizedAffinity>
-5.71176195

>  <minimizedRMSD>
1.62076819

$$$$
