REMARK  Name = 
REMARK  11 active torsions:
REMARK  status: ('A' for Active; 'I' for Inactive)
REMARK    1  A    between atoms: P_2  and  O_3
REMARK    2  A    between atoms: P_2  and  O_4
REMARK    3  A    between atoms: P_2  and  O_14
REMARK    4  A    between atoms: O_4  and  C_5
REMARK    5  A    between atoms: C_5  and  C_7
REMARK    6  A    between atoms: C_6  and  C_12
REMARK    7  A    between atoms: O_14  and  C_16
REMARK    8  A    between atoms: C_15  and  S_21
REMARK    9  A    between atoms: S_21  and  C_38
REMARK   10  A    between atoms: O_36  and  C_37
REMARK   11  A    between atoms: C_44  and  O_45
REMARK                            x       y       z     vdW  Elec       q    Type
REMARK                         _______ _______ _______ _____ _____    ______ ____
ROOT
ATOM      1  C   UNL     1      27.194  28.416  49.369  0.00  0.00    +0.000 A 
ATOM      2  C   UNL     1      28.549  28.050  49.435  0.00  0.00    +0.000 A 
ATOM      3  C   UNL     1      29.064  27.393  50.530  0.00  0.00    +0.000 A 
ATOM      4  C   UNL     1      28.237  27.087  51.582  0.00  0.00    +0.000 A 
ATOM      5  C   UNL     1      26.922  27.439  51.525  0.00  0.00    +0.000 A 
ATOM      6  C   UNL     1      26.355  28.100  50.448  0.00  0.00    +0.000 A 
ATOM      7  H   UNL     1      30.121  27.147  50.499  0.00  0.00    +0.000 HD
ATOM      8  H   UNL     1      28.728  26.572  52.397  0.00  0.00    +0.000 HD
ATOM      9  H   UNL     1      26.302  27.179  52.378  0.00  0.00    +0.000 HD
ATOM     10  H   UNL     1      25.305  28.361  50.444  0.00  0.00    +0.000 HD
ENDROOT
BRANCH   1  11
ATOM     11  S   UNL     1      26.474  29.250  48.014  0.00  0.00    +0.000 S 
ATOM     12  O   UNL     1      27.176  30.522  47.732  0.00  0.00    +0.000 OA
ATOM     13  O   UNL     1      26.522  28.309  46.807  0.00  0.00    +0.000 OA
BRANCH  11  15
ATOM     14  C   UNL     1      24.505  30.034  49.713  0.00  0.00    +0.000 C 
ATOM     15  C   UNL     1      24.770  29.598  48.309  0.00  0.00    +0.000 C 
ATOM     16  C   UNL     1      24.418  30.785  47.404  0.00  0.00    +0.000 C 
ATOM     17  H   UNL     1      23.349  30.909  47.248  0.00  0.00    +0.000 HD
ATOM     18  O   UNL     1      25.120  31.892  47.810  0.00  0.00    +0.000 OA
ATOM     19  C   UNL     1      24.681  32.443  48.990  0.00  0.00    +0.000 C 
ATOM     20  H   UNL     1      23.980  33.271  48.709  0.00  0.00    +0.000 HD
ATOM     21  C   UNL     1      23.903  31.440  49.781  0.00  0.00    +0.000 C 
BRANCH  14  22
ATOM     22  O   UNL     1      25.641  30.005  50.511  0.00  0.00    +0.000 OA
ATOM     23  H   UNL     1      25.532  29.447  51.319  0.00  0.00    +0.000 HD
ENDBRANCH  14  22
BRANCH  21  24
ATOM     24  O   UNL     1      22.569  31.331  49.410  0.00  0.00    +0.000 OA
ATOM     25  H   UNL     1      22.058  32.140  49.619  0.00  0.00    +0.000 HD
ENDBRANCH  21  24
ENDBRANCH  11  15
ENDBRANCH   1  11
BRANCH   2  26
ATOM     26  O   UNL     1      29.242  28.424  48.308  0.00  0.00    +0.000 OA
BRANCH  26  28
ATOM     27  O   UNL     1      30.366  26.195  47.448  0.00  0.00    +0.000 OA
ATOM     28  P   UNL     1      30.613  27.691  47.667  0.00  0.00    +0.000 P 
BRANCH  28  29
ATOM     29  O   UNL     1      31.086  28.451  46.213  0.00  0.00    +0.000 OA
ATOM     30  H   UNL     1      31.000  27.861  45.444  0.00  0.00    +0.000 HD
ENDBRANCH  28  29
BRANCH  28  31
ATOM     31  O   UNL     1      31.918  27.761  48.755  0.00  0.00    +0.000 OA
BRANCH  31  32
ATOM     32  C   UNL     1      33.075  27.322  48.080  0.00  0.00    +0.000 C 
ATOM     33  H   UNL     1      33.255  26.250  48.380  0.00  0.00    +0.000 HD
ATOM     34  H   UNL     1      32.891  27.387  46.997  0.00  0.00    +0.000 HD
BRANCH  32  36
ATOM     35  C   UNL     1      34.552  28.444  49.709  0.00  0.00    +0.000 C 
ATOM     36  C   UNL     1      34.276  28.092  48.480  0.00  0.00    +0.000 C 
BRANCH  35  41
ATOM     37  C   UNL     1      37.322  30.170  51.357  0.00  0.00    +0.000 A 
ATOM     38  C   UNL     1      38.079  30.628  50.258  0.00  0.00    +0.000 A 
ATOM     39  C   UNL     1      37.615  30.332  48.963  0.00  0.00    +0.000 A 
ATOM     40  N   UNL     1      36.448  29.611  48.913  0.00  0.00    +0.000 NA
ATOM     41  C   UNL     1      35.767  29.198  49.962  0.00  0.00    +0.000 A 
ATOM     42  N   UNL     1      36.212  29.483  51.181  0.00  0.00    +0.000 NA
ATOM     43  H   UNL     1      37.749  30.441  52.323  0.00  0.00    +0.000 HD
ATOM     44  H   UNL     1      38.991  31.192  50.264  0.00  0.00    +0.000 HD
ATOM     45  H   UNL     1      38.143  30.651  48.077  0.00  0.00    +0.000 HD
ENDBRANCH  35  41
ENDBRANCH  32  36
ENDBRANCH  31  32
ENDBRANCH  28  31
ENDBRANCH  26  28
ENDBRANCH   2  26
TORSDOF 11
