
 OpenBabel03262520363D

 45 47  0  0  1  0  0  0  0  0999 V2000
   37.5280   23.0960   32.8240 C   0  0  0  0  0  0  0  0  0  0  0  0
   36.5450   23.8530   32.1650 C   0  0  0  0  0  0  0  0  0  0  0  0
   35.6030   23.2590   31.3550 C   0  0  0  0  0  0  0  0  0  0  0  0
   35.6220   21.8970   31.1870 C   0  0  0  0  0  0  0  0  0  0  0  0
   36.5730   21.1560   31.8230 C   0  0  0  0  0  0  0  0  0  0  0  0
   37.5410   21.7040   32.6470 C   0  0  0  0  0  0  0  0  0  0  0  0
   34.8800   23.9170   30.8840 H   0  0  0  0  0  0  0  0  0  0  0  0
   34.8460   21.5190   30.5340 H   0  0  0  0  0  0  0  0  0  0  0  0
   36.5530   20.0820   31.6630 H   0  0  0  0  0  0  0  0  0  0  0  0
   38.2780   21.0790   33.1340 H   0  0  0  0  0  0  0  0  0  0  0  0
   38.7520   23.7810   33.8650 S   0  0  0  0  0  0  0  0  0  0  0  0
   39.8470   24.3900   33.0760 O   0  0  0  0  0  0  0  0  0  0  0  0
   38.0730   24.8170   34.7650 O   0  0  0  0  0  0  0  0  0  0  0  0
   40.4750   23.1170   35.8570 C   0  0  2  0  0  3  0  0  0  0  0  0
   39.4380   22.5600   34.9360 C   0  0  1  0  0  3  0  0  0  0  0  0
   38.2810   22.0720   35.8170 C   0  0  0  0  0  3  0  0  0  0  0  0
   38.4780   21.1190   36.3010 H   0  0  0  0  0  0  0  0  0  0  0  0
   37.8530   23.1000   36.6190 O   0  0  0  0  0  0  0  0  0  0  0  0
   38.7160   23.4240   37.6370 C   0  0  0  0  0  3  0  0  0  0  0  0
   38.3570   22.8700   38.5430 H   0  0  0  0  0  0  0  0  0  0  0  0
   40.0970   22.9410   37.3300 C   0  0  1  0  0  3  0  0  0  0  0  0
   40.7320   24.4620   35.6290 O   0  0  0  0  0  0  0  0  0  0  0  0
   41.6860   24.6470   35.4440 H   0  0  0  0  0  0  0  0  0  0  0  0
   40.3220   21.6090   37.6530 O   0  0  0  0  0  0  0  0  0  0  0  0
   40.3020   21.4510   38.6190 H   0  0  0  0  0  0  0  0  0  0  0  0
   36.6580   25.1960   32.4350 O   0  0  0  0  0  0  0  0  0  0  0  0
   38.1410   26.4470   30.6440 O   0  0  0  0  0  0  0  0  0  0  0  0
   36.7670   26.4510   31.3210 P   0  0  1  0  0  0  0  0  0  0  0  0
   35.5160   26.3490   30.1640 O   0  0  0  0  0  0  0  0  0  0  0  0
   35.8550   26.1690   29.2690 H   0  0  0  0  0  0  0  0  0  0  0  0
   36.6640   27.9670   32.0850 O   0  0  0  0  0  0  0  0  0  0  0  0
   36.9770   27.7920   33.4480 C   0  0  0  0  0  0  0  0  0  0  0  0
   36.8030   26.7070   33.6990 H   0  0  0  0  0  0  0  0  0  0  0  0
   38.0360   28.0510   33.5970 H   0  0  0  0  0  0  0  0  0  0  0  0
   35.9030   29.8780   34.2170 C   0  0  0  0  0  3  0  0  0  0  0  0
   36.0890   28.5880   34.3280 C   0  0  0  0  0  3  0  0  0  0  0  0
   32.9210   30.9110   36.0640 C   0  0  0  0  0  0  0  0  0  0  0  0
   33.4470   31.8610   36.9640 C   0  0  0  0  0  0  0  0  0  0  0  0
   34.8270   32.1290   36.9150 C   0  0  0  0  0  0  0  0  0  0  0  0
   35.5260   31.4170   35.9720 N   0  0  0  0  0  0  0  0  0  0  0  0
   35.0010   30.5340   35.1470 C   0  0  0  0  0  0  0  0  0  0  0  0
   33.6960   30.2880   35.2000 N   0  0  0  0  0  0  0  0  0  0  0  0
   31.8460   30.7620   36.1670 H   0  0  0  0  0  0  0  0  0  0  0  0
   32.9290   32.4330   37.7090 H   0  0  0  0  0  0  0  0  0  0  0  0
   35.2970   32.8440   37.5730 H   0  0  0  0  0  0  0  0  0  0  0  0
  1 11  1  0  0  0  0
  2 26  1  0  0  0  0
  2  1  2  0  0  0  0
  3  2  1  0  0  0  0
  4  3  2  0  0  0  0
  4  5  1  0  0  0  0
  5  6  2  0  0  0  0
  6  1  1  0  0  0  0
  6 10  1  0  0  0  0
  7  3  1  0  0  0  0
  8  4  1  0  0  0  0
  9  5  1  0  0  0  0
 11 13  2  0  0  0  0
 12 11  2  0  0  0  0
 14 22  1  6  0  0  0
 14 21  1  0  0  0  0
 15 11  1  6  0  0  0
 15 16  1  0  0  0  0
 15 14  1  0  0  0  0
 16 17  1  0  0  0  0
 16 18  1  0  0  0  0
 18 19  1  0  0  0  0
 19 20  1  0  0  0  0
 21 19  1  0  0  0  0
 21 24  1  6  0  0  0
 23 22  1  0  0  0  0
 24 25  1  0  0  0  0
 28 27  2  6  0  0  0
 28 31  1  0  0  0  0
 28 26  1  0  0  0  0
 29 28  1  0  0  0  0
 30 29  1  0  0  0  0
 31 32  1  0  0  0  0
 32 34  1  0  0  0  0
 32 33  1  0  0  0  0
 32 36  1  0  0  0  0
 35 36  2  0  0  0  0
 35 41  1  0  0  0  0
 37 43  1  0  0  0  0
 37 38  1  0  0  0  0
 38 44  1  0  0  0  0
 39 38  2  0  0  0  0
 39 45  1  0  0  0  0
 40 39  1  0  0  0  0
 41 42  1  0  0  0  0
 41 40  2  0  0  0  0
 42 37  2  0  0  0  0
M  END
>  <minimizedAffinity>
-6.44883347

$$$$

 OpenBabel03262520363D

 45 47  0  0  1  0  0  0  0  0999 V2000
   37.5410   22.4330   32.7230 C   0  0  0  0  0  0  0  0  0  0  0  0
   36.6330   23.3300   32.1360 C   0  0  0  0  0  0  0  0  0  0  0  0
   35.6210   22.8920   31.3110 C   0  0  0  0  0  0  0  0  0  0  0  0
   35.4940   21.5500   31.0560 C   0  0  0  0  0  0  0  0  0  0  0  0
   36.3720   20.6740   31.6210 C   0  0  0  0  0  0  0  0  0  0  0  0
   37.4060   21.0630   32.4570 C   0  0  0  0  0  0  0  0  0  0  0  0
   34.9630   23.6520   30.9000 H   0  0  0  0  0  0  0  0  0  0  0  0
   34.6730   21.2990   30.3980 H   0  0  0  0  0  0  0  0  0  0  0  0
   36.2380   19.6210   31.3930 H   0  0  0  0  0  0  0  0  0  0  0  0
   38.0810   20.3330   32.8850 H   0  0  0  0  0  0  0  0  0  0  0  0
   38.8470   22.9180   33.7760 S   0  0  0  0  0  0  0  0  0  0  0  0
   39.5890   21.7430   34.2860 O   0  0  0  0  0  0  0  0  0  0  0  0
   39.7640   23.8540   32.9840 O   0  0  0  0  0  0  0  0  0  0  0  0
   37.6800   22.9850   36.2280 C   0  0  2  0  0  3  0  0  0  0  0  0
   38.2490   23.8490   35.1500 C   0  0  1  0  0  3  0  0  0  0  0  0
   39.4730   24.5540   35.7480 C   0  0  0  0  0  3  0  0  0  0  0  0
   39.2180   25.3910   36.3930 H   0  0  0  0  0  0  0  0  0  0  0  0
   40.3360   23.6170   36.2560 O   0  0  0  0  0  0  0  0  0  0  0  0
   39.9050   23.0150   37.4140 C   0  0  0  0  0  3  0  0  0  0  0  0
   40.3800   23.5800   38.2580 H   0  0  0  0  0  0  0  0  0  0  0  0
   38.4230   23.1510   37.5570 C   0  0  1  0  0  3  0  0  0  0  0  0
   37.6770   21.6380   35.8950 O   0  0  0  0  0  0  0  0  0  0  0  0
   36.7770   21.2290   35.9480 H   0  0  0  0  0  0  0  0  0  0  0  0
   38.0100   24.3570   38.1080 O   0  0  0  0  0  0  0  0  0  0  0  0
   38.2760   24.4490   39.0460 H   0  0  0  0  0  0  0  0  0  0  0  0
   36.8910   24.6340   32.4890 O   0  0  0  0  0  0  0  0  0  0  0  0
   38.3470   25.6830   30.5530 O   0  0  0  0  0  0  0  0  0  0  0  0
   37.1360   25.9380   31.4560 P   0  0  1  0  0  0  0  0  0  0  0  0
   35.7380   26.2500   30.5270 O   0  0  0  0  0  0  0  0  0  0  0  0
   35.8820   26.0900   29.5780 H   0  0  0  0  0  0  0  0  0  0  0  0
   37.5280   27.3480   32.3210 O   0  0  0  0  0  0  0  0  0  0  0  0
   37.4650   27.0490   33.6970 C   0  0  0  0  0  0  0  0  0  0  0  0
   36.8870   26.0870   33.8080 H   0  0  0  0  0  0  0  0  0  0  0  0
   38.4910   26.9200   34.0730 H   0  0  0  0  0  0  0  0  0  0  0  0
   36.0090   29.0310   33.9090 C   0  0  0  0  0  3  0  0  0  0  0  0
   36.7290   28.0860   34.4570 C   0  0  0  0  0  3  0  0  0  0  0  0
   35.3230   31.7210   36.2890 C   0  0  0  0  0  0  0  0  0  0  0  0
   33.9130   31.7130   36.3430 C   0  0  0  0  0  0  0  0  0  0  0  0
   33.2230   30.7730   35.5550 C   0  0  0  0  0  0  0  0  0  0  0  0
   34.0200   29.9490   34.8010 N   0  0  0  0  0  0  0  0  0  0  0  0
   35.3370   29.9850   34.7730 C   0  0  0  0  0  0  0  0  0  0  0  0
   35.9800   30.8750   35.5220 N   0  0  0  0  0  0  0  0  0  0  0  0
   35.7790   32.4770   36.9280 H   0  0  0  0  0  0  0  0  0  0  0  0
   33.2630   32.3410   36.9210 H   0  0  0  0  0  0  0  0  0  0  0  0
   32.1450   30.7100   35.5480 H   0  0  0  0  0  0  0  0  0  0  0  0
  1 11  1  0  0  0  0
  2 26  1  0  0  0  0
  2  1  2  0  0  0  0
  3  2  1  0  0  0  0
  4  3  2  0  0  0  0
  4  5  1  0  0  0  0
  5  6  2  0  0  0  0
  6  1  1  0  0  0  0
  6 10  1  0  0  0  0
  7  3  1  0  0  0  0
  8  4  1  0  0  0  0
  9  5  1  0  0  0  0
 11 12  2  0  0  0  0
 13 11  2  0  0  0  0
 14 22  1  6  0  0  0
 14 21  1  0  0  0  0
 15 11  1  6  0  0  0
 15 16  1  0  0  0  0
 15 14  1  0  0  0  0
 16 18  1  0  0  0  0
 16 17  1  0  0  0  0
 18 19  1  0  0  0  0
 19 21  1  0  0  0  0
 19 20  1  0  0  0  0
 21 24  1  6  0  0  0
 22 23  1  0  0  0  0
 24 25  1  0  0  0  0
 28 27  2  6  0  0  0
 28 31  1  0  0  0  0
 28 26  1  0  0  0  0
 29 28  1  0  0  0  0
 30 29  1  0  0  0  0
 31 32  1  0  0  0  0
 32 33  1  0  0  0  0
 32 34  1  0  0  0  0
 32 36  1  0  0  0  0
 35 36  2  0  0  0  0
 35 41  1  0  0  0  0
 37 38  1  0  0  0  0
 37 43  1  0  0  0  0
 38 44  1  0  0  0  0
 39 38  2  0  0  0  0
 40 39  1  0  0  0  0
 41 40  2  0  0  0  0
 41 42  1  0  0  0  0
 42 37  2  0  0  0  0
 45 39  1  0  0  0  0
M  END
>  <minimizedAffinity>
-6.17894506

$$$$

 OpenBabel03262520363D

 45 47  0  0  1  0  0  0  0  0999 V2000
   33.4440   31.5390   35.7030 C   0  0  0  0  0  0  0  0  0  0  0  0
   34.6010   31.1510   35.0060 C   0  0  0  0  0  0  0  0  0  0  0  0
   35.8230   31.7310   35.2620 C   0  0  0  0  0  0  0  0  0  0  0  0
   35.9170   32.7090   36.2200 C   0  0  0  0  0  0  0  0  0  0  0  0
   34.8000   33.0900   36.9000 C   0  0  0  0  0  0  0  0  0  0  0  0
   33.5480   32.5400   36.6810 C   0  0  0  0  0  0  0  0  0  0  0  0
   36.6650   31.3720   34.6780 H   0  0  0  0  0  0  0  0  0  0  0  0
   36.9150   33.1060   36.3530 H   0  0  0  0  0  0  0  0  0  0  0  0
   34.9170   33.8680   37.6500 H   0  0  0  0  0  0  0  0  0  0  0  0
   32.6860   32.8720   37.2440 H   0  0  0  0  0  0  0  0  0  0  0  0
   31.8630   30.8490   35.4300 S   0  0  0  0  0  0  0  0  0  0  0  0
   30.8770   31.3640   36.4050 O   0  0  0  0  0  0  0  0  0  0  0  0
   31.4500   31.1800   33.9930 O   0  0  0  0  0  0  0  0  0  0  0  0
   31.8760   28.6020   36.9570 C   0  0  2  0  0  3  0  0  0  0  0  0
   31.9050   29.0890   35.5450 C   0  0  1  0  0  3  0  0  0  0  0  0
   30.6160   28.5910   34.8790 C   0  0  0  0  0  3  0  0  0  0  0  0
   30.6500   27.5410   34.6010 H   0  0  0  0  0  0  0  0  0  0  0  0
   29.5340   29.0060   35.6130 O   0  0  0  0  0  0  0  0  0  0  0  0
   29.3720   28.3480   36.8080 C   0  0  0  0  0  3  0  0  0  0  0  0
   28.6390   27.5220   36.6170 H   0  0  0  0  0  0  0  0  0  0  0  0
   30.6580   27.7190   37.2420 C   0  0  1  0  0  3  0  0  0  0  0  0
   31.8940   29.6350   37.8840 O   0  0  0  0  0  0  0  0  0  0  0  0
   32.6420   29.5640   38.5270 H   0  0  0  0  0  0  0  0  0  0  0  0
   30.9100   26.4800   36.6680 O   0  0  0  0  0  0  0  0  0  0  0  0
   30.2800   25.7940   36.9720 H   0  0  0  0  0  0  0  0  0  0  0  0
   34.3430   30.1640   34.0840 O   0  0  0  0  0  0  0  0  0  0  0  0
   33.5850   30.6160   31.5950 O   0  0  0  0  0  0  0  0  0  0  0  0
   34.7660   30.1570   32.4560 P   0  0  1  0  0  0  0  0  0  0  0  0
   36.1390   31.1350   32.1800 O   0  0  0  0  0  0  0  0  0  0  0  0
   35.9350   31.9090   31.6270 H   0  0  0  0  0  0  0  0  0  0  0  0
   35.1140   28.5830   31.9140 O   0  0  0  0  0  0  0  0  0  0  0  0
   36.5140   28.4300   31.8840 C   0  0  0  0  0  0  0  0  0  0  0  0
   36.7760   27.8950   30.9260 H   0  0  0  0  0  0  0  0  0  0  0  0
   36.9740   29.4290   31.8990 H   0  0  0  0  0  0  0  0  0  0  0  0
   37.1420   26.2860   32.9360 C   0  0  0  0  0  3  0  0  0  0  0  0
   37.0030   27.5850   32.9990 C   0  0  0  0  0  3  0  0  0  0  0  0
   38.1110   25.4220   36.3530 C   0  0  0  0  0  0  0  0  0  0  0  0
   38.5920   24.1050   36.1990 C   0  0  0  0  0  0  0  0  0  0  0  0
   38.5740   23.5380   34.9110 C   0  0  0  0  0  0  0  0  0  0  0  0
   38.0760   24.3520   33.9240 N   0  0  0  0  0  0  0  0  0  0  0  0
   37.6340   25.5790   34.1050 C   0  0  0  0  0  0  0  0  0  0  0  0
   37.6560   26.1070   35.3240 N   0  0  0  0  0  0  0  0  0  0  0  0
   38.1600   25.7860   37.3800 H   0  0  0  0  0  0  0  0  0  0  0  0
   38.9870   23.4460   36.9480 H   0  0  0  0  0  0  0  0  0  0  0  0
   38.9270   22.5360   34.7200 H   0  0  0  0  0  0  0  0  0  0  0  0
  1  6  1  0  0  0  0
  2  3  1  0  0  0  0
  2  1  2  0  0  0  0
  3  4  2  0  0  0  0
  4  8  1  0  0  0  0
  4  5  1  0  0  0  0
  5  9  1  0  0  0  0
  6  5  2  0  0  0  0
  6 10  1  0  0  0  0
  7  3  1  0  0  0  0
 11  1  1  0  0  0  0
 11 12  2  0  0  0  0
 13 11  2  0  0  0  0
 14 21  1  0  0  0  0
 14 22  1  1  0  0  0
 15 11  1  1  0  0  0
 15 14  1  0  0  0  0
 16 15  1  0  0  0  0
 16 18  1  0  0  0  0
 17 16  1  0  0  0  0
 18 19  1  0  0  0  0
 19 21  1  0  0  0  0
 20 19  1  0  0  0  0
 21 24  1  6  0  0  0
 22 23  1  0  0  0  0
 24 25  1  0  0  0  0
 26  2  1  0  0  0  0
 28 27  2  6  0  0  0
 28 26  1  0  0  0  0
 29 28  1  0  0  0  0
 30 29  1  0  0  0  0
 31 28  1  0  0  0  0
 32 34  1  0  0  0  0
 32 31  1  0  0  0  0
 32 36  1  0  0  0  0
 33 32  1  0  0  0  0
 35 36  2  0  0  0  0
 35 41  1  0  0  0  0
 37 43  1  0  0  0  0
 38 37  1  0  0  0  0
 38 44  1  0  0  0  0
 39 38  2  0  0  0  0
 40 41  2  0  0  0  0
 40 39  1  0  0  0  0
 41 42  1  0  0  0  0
 42 37  2  0  0  0  0
 45 39  1  0  0  0  0
M  END
>  <minimizedAffinity>
-5.70182943

$$$$

 OpenBabel03262520363D

 45 47  0  0  1  0  0  0  0  0999 V2000
   37.3410   22.3330   32.3930 C   0  0  0  0  0  0  0  0  0  0  0  0
   37.3140   21.8550   33.7140 C   0  0  0  0  0  0  0  0  0  0  0  0
   36.3180   21.0130   34.1540 C   0  0  0  0  0  0  0  0  0  0  0  0
   35.3280   20.6290   33.2850 C   0  0  0  0  0  0  0  0  0  0  0  0
   35.3470   21.0880   32.0020 C   0  0  0  0  0  0  0  0  0  0  0  0
   36.3260   21.9370   31.5100 C   0  0  0  0  0  0  0  0  0  0  0  0
   36.3740   20.6900   35.1890 H   0  0  0  0  0  0  0  0  0  0  0  0
   34.5890   19.9680   33.7170 H   0  0  0  0  0  0  0  0  0  0  0  0
   34.5450   20.7620   31.3460 H   0  0  0  0  0  0  0  0  0  0  0  0
   36.3030   22.2780   30.4840 H   0  0  0  0  0  0  0  0  0  0  0  0
   38.5720   23.4030   31.7680 S   0  0  0  0  0  0  0  0  0  0  0  0
   39.2700   24.1150   32.8610 O   0  0  0  0  0  0  0  0  0  0  0  0
   39.5470   22.5610   30.9410 O   0  0  0  0  0  0  0  0  0  0  0  0
   37.1180   25.6640   31.3770 C   0  0  2  0  0  3  0  0  0  0  0  0
   37.8830   24.5960   30.6660 C   0  0  1  0  0  3  0  0  0  0  0  0
   39.0740   25.2820   29.9860 C   0  0  0  0  0  3  0  0  0  0  0  0
   38.8080   25.8090   29.0740 H   0  0  0  0  0  0  0  0  0  0  0  0
   39.7910   25.9830   30.9230 O   0  0  0  0  0  0  0  0  0  0  0  0
   39.1740   27.1240   31.3750 C   0  0  0  0  0  3  0  0  0  0  0  0
   39.5830   27.9680   30.7620 H   0  0  0  0  0  0  0  0  0  0  0  0
   37.7010   27.0580   31.1280 C   0  0  1  0  0  3  0  0  0  0  0  0
   37.0500   25.4570   32.7480 O   0  0  0  0  0  0  0  0  0  0  0  0
   36.1220   25.4290   33.0880 H   0  0  0  0  0  0  0  0  0  0  0  0
   37.3180   27.4370   29.8480 O   0  0  0  0  0  0  0  0  0  0  0  0
   37.4730   28.3900   29.6800 H   0  0  0  0  0  0  0  0  0  0  0  0
   38.3710   22.3270   34.4570 O   0  0  0  0  0  0  0  0  0  0  0  0
   37.6860   24.5750   35.6620 O   0  0  0  0  0  0  0  0  0  0  0  0
   38.2950   23.1890   35.8990 P   0  0  1  0  0  0  0  0  0  0  0  0
   37.4110   22.3270   37.0780 O   0  0  0  0  0  0  0  0  0  0  0  0
   36.5860   22.7800   37.3240 H   0  0  0  0  0  0  0  0  0  0  0  0
   39.8490   23.4980   36.5170 O   0  0  0  0  0  0  0  0  0  0  0  0
   40.0600   22.6450   37.6190 C   0  0  0  0  0  0  0  0  0  0  0  0
   40.2990   23.2950   38.5090 H   0  0  0  0  0  0  0  0  0  0  0  0
   39.1340   22.0790   37.8020 H   0  0  0  0  0  0  0  0  0  0  0  0
   42.2410   22.0270   36.6430 C   0  0  0  0  0  3  0  0  0  0  0  0
   41.2210   21.7480   37.4120 C   0  0  0  0  0  3  0  0  0  0  0  0
   45.4180   20.3950   35.8580 C   0  0  0  0  0  0  0  0  0  0  0  0
   45.2330   19.1110   36.4110 C   0  0  0  0  0  0  0  0  0  0  0  0
   44.0090   18.8310   37.0460 C   0  0  0  0  0  0  0  0  0  0  0  0
   43.1080   19.8670   37.0570 N   0  0  0  0  0  0  0  0  0  0  0  0
   43.3150   21.0560   36.5310 C   0  0  0  0  0  0  0  0  0  0  0  0
   44.4740   21.3110   35.9320 N   0  0  0  0  0  0  0  0  0  0  0  0
   46.3910   20.5300   35.3850 H   0  0  0  0  0  0  0  0  0  0  0  0
   45.9140   18.2830   36.4190 H   0  0  0  0  0  0  0  0  0  0  0  0
   43.7990   17.8700   37.4910 H   0  0  0  0  0  0  0  0  0  0  0  0
  1  2  1  0  0  0  0
  2  3  2  0  0  0  0
  2 26  1  0  0  0  0
  3  7  1  0  0  0  0
  4  8  1  0  0  0  0
  4  3  1  0  0  0  0
  5  4  2  0  0  0  0
  6  5  1  0  0  0  0
  6  1  2  0  0  0  0
  9  5  1  0  0  0  0
 10  6  1  0  0  0  0
 11  1  1  0  0  0  0
 11 12  2  0  0  0  0
 13 11  2  0  0  0  0
 14 22  1  1  0  0  0
 15 14  1  0  0  0  0
 15 11  1  1  0  0  0
 16 15  1  0  0  0  0
 16 18  1  0  0  0  0
 17 16  1  0  0  0  0
 18 19  1  0  0  0  0
 20 19  1  0  0  0  0
 21 24  1  6  0  0  0
 21 19  1  0  0  0  0
 21 14  1  0  0  0  0
 22 23  1  0  0  0  0
 25 24  1  0  0  0  0
 26 28  1  0  0  0  0
 28 27  2  6  0  0  0
 28 31  1  0  0  0  0
 28 29  1  0  0  0  0
 29 30  1  0  0  0  0
 31 32  1  0  0  0  0
 32 34  1  0  0  0  0
 32 33  1  0  0  0  0
 35 36  2  0  0  0  0
 36 32  1  0  0  0  0
 37 42  2  0  0  0  0
 37 38  1  0  0  0  0
 38 44  1  0  0  0  0
 38 39  2  0  0  0  0
 39 40  1  0  0  0  0
 39 45  1  0  0  0  0
 41 35  1  0  0  0  0
 41 40  2  0  0  0  0
 42 41  1  0  0  0  0
 43 37  1  0  0  0  0
M  END
>  <minimizedAffinity>
-5.51296377

$$$$

 OpenBabel03262520363D

 45 47  0  0  1  0  0  0  0  0999 V2000
   38.7390   25.6260   33.5120 C   0  0  0  0  0  0  0  0  0  0  0  0
   37.6020   26.4350   33.6760 C   0  0  0  0  0  0  0  0  0  0  0  0
   37.4550   27.2570   34.7710 C   0  0  0  0  0  0  0  0  0  0  0  0
   38.4400   27.2890   35.7260 C   0  0  0  0  0  0  0  0  0  0  0  0
   39.5450   26.5060   35.5740 C   0  0  0  0  0  0  0  0  0  0  0  0
   39.7410   25.6640   34.4930 C   0  0  0  0  0  0  0  0  0  0  0  0
   36.5460   27.8490   34.8180 H   0  0  0  0  0  0  0  0  0  0  0  0
   38.2390   27.9610   36.5490 H   0  0  0  0  0  0  0  0  0  0  0  0
   40.3010   26.5600   36.3520 H   0  0  0  0  0  0  0  0  0  0  0  0
   40.6350   25.0590   34.4120 H   0  0  0  0  0  0  0  0  0  0  0  0
   38.9900   24.5610   32.1510 S   0  0  0  0  0  0  0  0  0  0  0  0
   39.1790   25.3270   30.8990 O   0  0  0  0  0  0  0  0  0  0  0  0
   40.2110   23.6900   32.4600 O   0  0  0  0  0  0  0  0  0  0  0  0
   37.8750   22.4350   30.8810 C   0  0  2  0  0  3  0  0  0  0  0  0
   37.6290   23.4590   31.9410 C   0  0  1  0  0  3  0  0  0  0  0  0
   37.4910   22.7000   33.2660 C   0  0  0  0  0  3  0  0  0  0  0  0
   36.5230   22.2220   33.3920 H   0  0  0  0  0  0  0  0  0  0  0  0
   38.6010   21.9180   33.4620 O   0  0  0  0  0  0  0  0  0  0  0  0
   38.6730   20.8170   32.6430 C   0  0  0  0  0  3  0  0  0  0  0  0
   38.2460   19.9610   33.2280 H   0  0  0  0  0  0  0  0  0  0  0  0
   37.8190   21.0070   31.4310 C   0  0  1  0  0  3  0  0  0  0  0  0
   39.0930   22.6070   30.2360 O   0  0  0  0  0  0  0  0  0  0  0  0
   39.0000   22.6990   29.2560 H   0  0  0  0  0  0  0  0  0  0  0  0
   36.4790   20.6960   31.6210 O   0  0  0  0  0  0  0  0  0  0  0  0
   36.3370   19.7390   31.7760 H   0  0  0  0  0  0  0  0  0  0  0  0
   36.7110   26.2920   32.6380 O   0  0  0  0  0  0  0  0  0  0  0  0
   37.5750   28.2720   31.1200 O   0  0  0  0  0  0  0  0  0  0  0  0
   36.3430   27.4240   31.4500 P   0  0  1  0  0  0  0  0  0  0  0  0
   35.7350   26.6600   30.0490 O   0  0  0  0  0  0  0  0  0  0  0  0
   36.3290   26.7640   29.2850 H   0  0  0  0  0  0  0  0  0  0  0  0
   35.1810   28.5390   31.9960 O   0  0  0  0  0  0  0  0  0  0  0  0
   35.8260   29.7750   32.2080 C   0  0  0  0  0  0  0  0  0  0  0  0
   36.8890   29.5530   32.5120 H   0  0  0  0  0  0  0  0  0  0  0  0
   35.8110   30.3410   31.2640 H   0  0  0  0  0  0  0  0  0  0  0  0
   35.4790   30.3530   34.5830 C   0  0  0  0  0  3  0  0  0  0  0  0
   35.2090   30.5390   33.3170 C   0  0  0  0  0  3  0  0  0  0  0  0
   34.7540   32.8160   37.1860 C   0  0  0  0  0  0  0  0  0  0  0  0
   33.3680   32.6400   37.3800 C   0  0  0  0  0  0  0  0  0  0  0  0
   32.7080   31.6680   36.6060 C   0  0  0  0  0  0  0  0  0  0  0  0
   33.5070   30.9830   35.7250 N   0  0  0  0  0  0  0  0  0  0  0  0
   34.8000   31.1750   35.5690 C   0  0  0  0  0  0  0  0  0  0  0  0
   35.4160   32.0940   36.3050 N   0  0  0  0  0  0  0  0  0  0  0  0
   35.1890   33.5860   37.8240 H   0  0  0  0  0  0  0  0  0  0  0  0
   32.7180   33.1560   38.0590 H   0  0  0  0  0  0  0  0  0  0  0  0
   31.6490   31.4790   36.7020 H   0  0  0  0  0  0  0  0  0  0  0  0
  1  2  2  0  0  0  0
  1  6  1  0  0  0  0
  2  3  1  0  0  0  0
  3  7  1  0  0  0  0
  3  4  2  0  0  0  0
  4  8  1  0  0  0  0
  5  4  1  0  0  0  0
  5  9  1  0  0  0  0
  6  5  2  0  0  0  0
 10  6  1  0  0  0  0
 11 13  2  0  0  0  0
 11  1  1  0  0  0  0
 12 11  2  0  0  0  0
 14 22  1  1  0  0  0
 14 21  1  0  0  0  0
 14 15  1  0  0  0  0
 15 11  1  1  0  0  0
 15 16  1  0  0  0  0
 16 17  1  0  0  0  0
 16 18  1  0  0  0  0
 19 20  1  0  0  0  0
 19 18  1  0  0  0  0
 21 24  1  1  0  0  0
 21 19  1  0  0  0  0
 23 22  1  0  0  0  0
 24 25  1  0  0  0  0
 26  2  1  0  0  0  0
 28 27  2  6  0  0  0
 28 31  1  0  0  0  0
 28 26  1  0  0  0  0
 29 28  1  0  0  0  0
 30 29  1  0  0  0  0
 31 32  1  0  0  0  0
 32 33  1  0  0  0  0
 32 36  1  0  0  0  0
 34 32  1  0  0  0  0
 35 41  1  0  0  0  0
 36 35  2  0  0  0  0
 37 38  1  0  0  0  0
 37 43  1  0  0  0  0
 38 44  1  0  0  0  0
 39 45  1  0  0  0  0
 39 38  2  0  0  0  0
 40 39  1  0  0  0  0
 41 40  2  0  0  0  0
 41 42  1  0  0  0  0
 42 37  2  0  0  0  0
M  END
>  <minimizedAffinity>
-5.49555492

$$$$

 OpenBabel03262520363D

 45 47  0  0  1  0  0  0  0  0999 V2000
   37.4830   23.3970   32.9290 C   0  0  0  0  0  0  0  0  0  0  0  0
   36.5970   24.1920   32.1820 C   0  0  0  0  0  0  0  0  0  0  0  0
   35.6730   23.6310   31.3300 C   0  0  0  0  0  0  0  0  0  0  0  0
   35.6130   22.2650   31.2060 C   0  0  0  0  0  0  0  0  0  0  0  0
   36.4690   21.4880   31.9270 C   0  0  0  0  0  0  0  0  0  0  0  0
   37.4160   22.0020   32.7970 C   0  0  0  0  0  0  0  0  0  0  0  0
   35.0270   24.3170   30.7910 H   0  0  0  0  0  0  0  0  0  0  0  0
   34.8570   21.9160   30.5140 H   0  0  0  0  0  0  0  0  0  0  0  0
   36.3890   20.4130   31.7990 H   0  0  0  0  0  0  0  0  0  0  0  0
   38.0770   21.3480   33.3510 H   0  0  0  0  0  0  0  0  0  0  0  0
   38.6800   24.0390   34.0270 S   0  0  0  0  0  0  0  0  0  0  0  0
   38.4920   25.4920   34.2370 O   0  0  0  0  0  0  0  0  0  0  0  0
   38.5670   23.2680   35.3450 O   0  0  0  0  0  0  0  0  0  0  0  0
   40.7600   24.8120   32.4610 C   0  0  2  0  0  3  0  0  0  0  0  0
   40.3150   23.7620   33.4250 C   0  0  1  0  0  3  0  0  0  0  0  0
   41.2380   23.8630   34.6460 C   0  0  0  0  0  3  0  0  0  0  0  0
   42.2160   23.4160   34.4880 H   0  0  0  0  0  0  0  0  0  0  0  0
   41.2120   25.1460   35.1320 O   0  0  0  0  0  0  0  0  0  0  0  0
   41.8670   26.0650   34.3480 C   0  0  0  0  0  3  0  0  0  0  0  0
   42.8980   26.1660   34.7750 H   0  0  0  0  0  0  0  0  0  0  0  0
   42.0050   25.5580   32.9480 C   0  0  1  0  0  3  0  0  0  0  0  0
   39.7700   25.7460   32.1860 O   0  0  0  0  0  0  0  0  0  0  0  0
   39.5690   25.8220   31.2200 H   0  0  0  0  0  0  0  0  0  0  0  0
   43.0900   24.7140   32.7500 O   0  0  0  0  0  0  0  0  0  0  0  0
   43.9460   25.1800   32.8430 H   0  0  0  0  0  0  0  0  0  0  0  0
   36.7820   25.5340   32.4170 O   0  0  0  0  0  0  0  0  0  0  0  0
   37.6350   27.5420   30.9310 O   0  0  0  0  0  0  0  0  0  0  0  0
   36.3740   26.8100   31.4000 P   0  0  1  0  0  0  0  0  0  0  0  0
   35.4580   26.2580   30.0700 O   0  0  0  0  0  0  0  0  0  0  0  0
   35.9300   26.3690   29.2260 H   0  0  0  0  0  0  0  0  0  0  0  0
   35.4670   27.9900   32.2220 O   0  0  0  0  0  0  0  0  0  0  0  0
   36.1980   28.3930   33.3570 C   0  0  0  0  0  0  0  0  0  0  0  0
   36.4920   27.4600   33.9190 H   0  0  0  0  0  0  0  0  0  0  0  0
   37.0970   28.9310   33.0190 H   0  0  0  0  0  0  0  0  0  0  0  0
   35.6980   30.4230   34.6690 C   0  0  0  0  0  3  0  0  0  0  0  0
   35.3810   29.2160   34.2800 C   0  0  0  0  0  3  0  0  0  0  0  0
   32.7560   31.4580   36.5790 C   0  0  0  0  0  0  0  0  0  0  0  0
   33.2600   32.5380   37.3330 C   0  0  0  0  0  0  0  0  0  0  0  0
   34.6120   32.8910   37.1660 C   0  0  0  0  0  0  0  0  0  0  0  0
   35.3070   32.1240   36.2650 N   0  0  0  0  0  0  0  0  0  0  0  0
   34.8030   31.1200   35.5770 C   0  0  0  0  0  0  0  0  0  0  0  0
   33.5260   30.7940   35.7410 N   0  0  0  0  0  0  0  0  0  0  0  0
   31.7020   31.2490   36.7660 H   0  0  0  0  0  0  0  0  0  0  0  0
   32.7440   33.1550   38.0430 H   0  0  0  0  0  0  0  0  0  0  0  0
   35.0640   33.7070   37.7100 H   0  0  0  0  0  0  0  0  0  0  0  0
  1 11  1  0  0  0  0
  2 26  1  0  0  0  0
  2  1  2  0  0  0  0
  3  2  1  0  0  0  0
  4  3  2  0  0  0  0
  4  5  1  0  0  0  0
  5  6  2  0  0  0  0
  6  1  1  0  0  0  0
  6 10  1  0  0  0  0
  7  3  1  0  0  0  0
  8  4  1  0  0  0  0
  9  5  1  0  0  0  0
 11 12  2  0  0  0  0
 11 13  2  0  0  0  0
 14 22  1  1  0  0  0
 14 21  1  0  0  0  0
 14 15  1  0  0  0  0
 15 11  1  1  0  0  0
 15 16  1  0  0  0  0
 16 18  1  0  0  0  0
 17 16  1  0  0  0  0
 19 20  1  0  0  0  0
 19 18  1  0  0  0  0
 21 24  1  1  0  0  0
 21 19  1  0  0  0  0
 23 22  1  0  0  0  0
 24 25  1  0  0  0  0
 28 27  2  6  0  0  0
 28 31  1  0  0  0  0
 28 26  1  0  0  0  0
 29 28  1  0  0  0  0
 30 29  1  0  0  0  0
 31 32  1  0  0  0  0
 32 33  1  0  0  0  0
 32 36  1  0  0  0  0
 34 32  1  0  0  0  0
 35 41  1  0  0  0  0
 36 35  2  0  0  0  0
 37 43  1  0  0  0  0
 37 38  1  0  0  0  0
 38 44  1  0  0  0  0
 39 38  2  0  0  0  0
 39 45  1  0  0  0  0
 40 39  1  0  0  0  0
 41 42  1  0  0  0  0
 41 40  2  0  0  0  0
 42 37  2  0  0  0  0
M  END
>  <minimizedAffinity>
-5.4627738

$$$$

 OpenBabel03262520363D

 45 47  0  0  1  0  0  0  0  0999 V2000
   40.0150   23.4090   36.1480 C   0  0  0  0  0  0  0  0  0  0  0  0
   39.0980   24.3970   35.7500 C   0  0  0  0  0  0  0  0  0  0  0  0
   38.0800   24.8100   36.5810 C   0  0  0  0  0  0  0  0  0  0  0  0
   37.9570   24.2470   37.8260 C   0  0  0  0  0  0  0  0  0  0  0  0
   38.8420   23.2880   38.2190 C   0  0  0  0  0  0  0  0  0  0  0  0
   39.8820   22.8380   37.4230 C   0  0  0  0  0  0  0  0  0  0  0  0
   37.4170   25.5780   36.1950 H   0  0  0  0  0  0  0  0  0  0  0  0
   37.1300   24.6320   38.4070 H   0  0  0  0  0  0  0  0  0  0  0  0
   38.7090   22.8680   39.2110 H   0  0  0  0  0  0  0  0  0  0  0  0
   40.5630   22.0740   37.7740 H   0  0  0  0  0  0  0  0  0  0  0  0
   41.3270   22.8380   35.1480 S   0  0  0  0  0  0  0  0  0  0  0  0
   42.1890   21.8870   35.8860 O   0  0  0  0  0  0  0  0  0  0  0  0
   40.7170   22.1850   33.9050 O   0  0  0  0  0  0  0  0  0  0  0  0
   43.3490   24.6020   35.5730 C   0  0  2  0  0  3  0  0  0  0  0  0
   42.3240   24.1750   34.5740 C   0  0  1  0  0  3  0  0  0  0  0  0
   43.0890   23.6400   33.3570 C   0  0  0  0  0  3  0  0  0  0  0  0
   43.4970   24.4230   32.7230 H   0  0  0  0  0  0  0  0  0  0  0  0
   43.9530   22.6530   33.7600 O   0  0  0  0  0  0  0  0  0  0  0  0
   45.0450   23.1040   34.4620 C   0  0  0  0  0  3  0  0  0  0  0  0
   45.8750   23.2130   33.7170 H   0  0  0  0  0  0  0  0  0  0  0  0
   44.7760   24.4570   35.0400 C   0  0  1  0  0  3  0  0  0  0  0  0
   43.2570   23.9060   36.7710 O   0  0  0  0  0  0  0  0  0  0  0  0
   43.1440   24.4990   37.5550 H   0  0  0  0  0  0  0  0  0  0  0  0
   44.9910   25.5080   34.1580 O   0  0  0  0  0  0  0  0  0  0  0  0
   45.9360   25.6120   33.9250 H   0  0  0  0  0  0  0  0  0  0  0  0
   39.3550   24.8620   34.4820 O   0  0  0  0  0  0  0  0  0  0  0  0
   38.5930   27.3850   34.6320 O   0  0  0  0  0  0  0  0  0  0  0  0
   38.6250   26.1630   33.7080 P   0  0  1  0  0  0  0  0  0  0  0  0
   39.4220   26.5260   32.2430 O   0  0  0  0  0  0  0  0  0  0  0  0
   39.8510   27.3990   32.2630 H   0  0  0  0  0  0  0  0  0  0  0  0
   36.9920   25.8400   33.3610 O   0  0  0  0  0  0  0  0  0  0  0  0
   36.9250   25.2400   32.0870 C   0  0  0  0  0  0  0  0  0  0  0  0
   35.9990   25.6310   31.5770 H   0  0  0  0  0  0  0  0  0  0  0  0
   37.8220   25.5300   31.5190 H   0  0  0  0  0  0  0  0  0  0  0  0
   35.7860   23.0900   31.6680 C   0  0  0  0  0  3  0  0  0  0  0  0
   36.7840   23.7680   32.1740 C   0  0  0  0  0  3  0  0  0  0  0  0
   35.9680   19.4970   31.0220 C   0  0  0  0  0  0  0  0  0  0  0  0
   35.7110   18.9540   32.2980 C   0  0  0  0  0  0  0  0  0  0  0  0
   35.4770   19.8440   33.3630 C   0  0  0  0  0  0  0  0  0  0  0  0
   35.5280   21.1750   33.0310 N   0  0  0  0  0  0  0  0  0  0  0  0
   35.7720   21.6470   31.8250 C   0  0  0  0  0  0  0  0  0  0  0  0
   35.9910   20.7990   30.8260 N   0  0  0  0  0  0  0  0  0  0  0  0
   36.1390   18.7410   30.2540 H   0  0  0  0  0  0  0  0  0  0  0  0
   35.6650   17.9230   32.5890 H   0  0  0  0  0  0  0  0  0  0  0  0
   35.2740   19.5000   34.3650 H   0  0  0  0  0  0  0  0  0  0  0  0
  1  6  1  0  0  0  0
  2  1  2  0  0  0  0
  2  3  1  0  0  0  0
  3  4  2  0  0  0  0
  4  5  1  0  0  0  0
  4  8  1  0  0  0  0
  5  9  1  0  0  0  0
  6 10  1  0  0  0  0
  6  5  2  0  0  0  0
  7  3  1  0  0  0  0
 11 12  2  0  0  0  0
 11  1  1  0  0  0  0
 13 11  2  0  0  0  0
 14 22  1  1  0  0  0
 15 11  1  1  0  0  0
 15 14  1  0  0  0  0
 16 18  1  0  0  0  0
 16 15  1  0  0  0  0
 17 16  1  0  0  0  0
 18 19  1  0  0  0  0
 19 21  1  0  0  0  0
 20 19  1  0  0  0  0
 21 24  1  6  0  0  0
 21 14  1  0  0  0  0
 22 23  1  0  0  0  0
 25 24  1  0  0  0  0
 26  2  1  0  0  0  0
 28 26  1  0  0  0  0
 28 27  2  1  0  0  0
 29 30  1  0  0  0  0
 29 28  1  0  0  0  0
 31 28  1  0  0  0  0
 32 36  1  0  0  0  0
 32 31  1  0  0  0  0
 33 32  1  0  0  0  0
 34 32  1  0  0  0  0
 35 41  1  0  0  0  0
 35 36  2  0  0  0  0
 37 38  1  0  0  0  0
 38 44  1  0  0  0  0
 38 39  2  0  0  0  0
 39 45  1  0  0  0  0
 40 39  1  0  0  0  0
 41 40  2  0  0  0  0
 42 37  2  0  0  0  0
 42 41  1  0  0  0  0
 43 37  1  0  0  0  0
M  END
>  <minimizedAffinity>
-5.4494915

$$$$

 OpenBabel03262520363D

 45 47  0  0  1  0  0  0  0  0999 V2000
   35.5990   30.1140   31.6630 C   0  0  0  0  0  0  0  0  0  0  0  0
   36.2370   29.2230   30.7840 C   0  0  0  0  0  0  0  0  0  0  0  0
   37.0200   29.6740   29.7450 C   0  0  0  0  0  0  0  0  0  0  0  0
   37.1830   31.0250   29.5620 C   0  0  0  0  0  0  0  0  0  0  0  0
   36.5670   31.8950   30.4110 C   0  0  0  0  0  0  0  0  0  0  0  0
   35.7700   31.4930   31.4700 C   0  0  0  0  0  0  0  0  0  0  0  0
   37.4770   28.9180   29.1130 H   0  0  0  0  0  0  0  0  0  0  0  0
   37.8130   31.2860   28.7220 H   0  0  0  0  0  0  0  0  0  0  0  0
   36.7210   32.9550   30.2310 H   0  0  0  0  0  0  0  0  0  0  0  0
   35.2990   32.2180   32.1200 H   0  0  0  0  0  0  0  0  0  0  0  0
   34.5920   29.6120   32.9990 S   0  0  0  0  0  0  0  0  0  0  0  0
   33.5930   28.6090   32.5710 O   0  0  0  0  0  0  0  0  0  0  0  0
   35.5090   29.0540   34.0910 O   0  0  0  0  0  0  0  0  0  0  0  0
   32.4430   31.2730   33.0390 C   0  0  2  0  0  3  0  0  0  0  0  0
   33.7450   30.9850   33.7120 C   0  0  1  0  0  3  0  0  0  0  0  0
   33.4170   30.5770   35.1540 C   0  0  0  0  0  3  0  0  0  0  0  0
   33.1790   31.4190   35.7990 H   0  0  0  0  0  0  0  0  0  0  0  0
   32.5280   29.5320   35.1410 O   0  0  0  0  0  0  0  0  0  0  0  0
   31.2520   29.8770   34.7680 C   0  0  0  0  0  3  0  0  0  0  0  0
   30.6820   30.0520   35.7170 H   0  0  0  0  0  0  0  0  0  0  0  0
   31.2560   31.1590   33.9990 C   0  0  1  0  0  3  0  0  0  0  0  0
   32.2050   30.4450   31.9500 O   0  0  0  0  0  0  0  0  0  0  0  0
   32.0400   30.9470   31.1130 H   0  0  0  0  0  0  0  0  0  0  0  0
   31.2610   32.3000   34.7910 O   0  0  0  0  0  0  0  0  0  0  0  0
   30.4270   32.4100   35.2920 H   0  0  0  0  0  0  0  0  0  0  0  0
   35.9780   27.9100   31.0980 O   0  0  0  0  0  0  0  0  0  0  0  0
   36.3730   25.5510   32.2170 O   0  0  0  0  0  0  0  0  0  0  0  0
   37.0900   26.7370   31.5630 P   0  0  1  0  0  0  0  0  0  0  0  0
   38.0260   26.2240   30.2300 O   0  0  0  0  0  0  0  0  0  0  0  0
   37.8640   25.2920   30.0020 H   0  0  0  0  0  0  0  0  0  0  0  0
   38.1430   27.3230   32.7620 O   0  0  0  0  0  0  0  0  0  0  0  0
   39.1580   26.3640   32.9600 C   0  0  0  0  0  0  0  0  0  0  0  0
   38.9720   25.5210   32.2350 H   0  0  0  0  0  0  0  0  0  0  0  0
   40.1290   26.8380   32.7510 H   0  0  0  0  0  0  0  0  0  0  0  0
   39.1150   24.5000   34.5780 C   0  0  0  0  0  3  0  0  0  0  0  0
   39.1130   25.7830   34.3220 C   0  0  0  0  0  3  0  0  0  0  0  0
   39.8410   22.8330   37.7500 C   0  0  0  0  0  0  0  0  0  0  0  0
   38.8410   23.3590   38.5950 C   0  0  0  0  0  0  0  0  0  0  0  0
   37.9300   24.2820   38.0500 C   0  0  0  0  0  0  0  0  0  0  0  0
   38.1220   24.5760   36.7230 N   0  0  0  0  0  0  0  0  0  0  0  0
   39.0690   24.0660   35.9630 C   0  0  0  0  0  0  0  0  0  0  0  0
   39.9240   23.1940   36.4860 N   0  0  0  0  0  0  0  0  0  0  0  0
   40.5040   22.1260   38.2490 H   0  0  0  0  0  0  0  0  0  0  0  0
   38.6640   23.1490   39.6320 H   0  0  0  0  0  0  0  0  0  0  0  0
   37.1390   24.7240   38.6370 H   0  0  0  0  0  0  0  0  0  0  0  0
  1 11  1  0  0  0  0
  2 26  1  0  0  0  0
  2  1  2  0  0  0  0
  3  2  1  0  0  0  0
  4  3  2  0  0  0  0
  4  5  1  0  0  0  0
  5  6  2  0  0  0  0
  6  1  1  0  0  0  0
  6 10  1  0  0  0  0
  7  3  1  0  0  0  0
  8  4  1  0  0  0  0
  9  5  1  0  0  0  0
 11 13  2  0  0  0  0
 12 11  2  0  0  0  0
 14 22  1  6  0  0  0
 14 15  1  0  0  0  0
 14 21  1  0  0  0  0
 15 11  1  6  0  0  0
 15 16  1  0  0  0  0
 16 17  1  0  0  0  0
 18 16  1  0  0  0  0
 19 18  1  0  0  0  0
 19 20  1  0  0  0  0
 21 19  1  0  0  0  0
 21 24  1  1  0  0  0
 23 22  1  0  0  0  0
 24 25  1  0  0  0  0
 26 28  1  0  0  0  0
 28 27  2  1  0  0  0
 28 31  1  0  0  0  0
 29 28  1  0  0  0  0
 30 29  1  0  0  0  0
 31 32  1  0  0  0  0
 32 36  1  0  0  0  0
 33 32  1  0  0  0  0
 34 32  1  0  0  0  0
 35 41  1  0  0  0  0
 36 35  2  0  0  0  0
 37 43  1  0  0  0  0
 37 38  1  0  0  0  0
 38 44  1  0  0  0  0
 39 38  2  0  0  0  0
 39 45  1  0  0  0  0
 40 39  1  0  0  0  0
 41 42  1  0  0  0  0
 41 40  2  0  0  0  0
 42 37  2  0  0  0  0
M  END
>  <minimizedAffinity>
-5.43408442

$$$$

 OpenBabel03262520363D

 45 47  0  0  1  0  0  0  0  0999 V2000
   39.5060   26.5410   33.6980 C   0  0  0  0  0  0  0  0  0  0  0  0
   38.3360   26.3990   32.9340 C   0  0  0  0  0  0  0  0  0  0  0  0
   37.0880   26.5740   33.4900 C   0  0  0  0  0  0  0  0  0  0  0  0
   36.9840   26.8960   34.8200 C   0  0  0  0  0  0  0  0  0  0  0  0
   38.1150   27.0350   35.5670 C   0  0  0  0  0  0  0  0  0  0  0  0
   39.3910   26.8700   35.0570 C   0  0  0  0  0  0  0  0  0  0  0  0
   36.2370   26.4460   32.8290 H   0  0  0  0  0  0  0  0  0  0  0  0
   35.9660   27.0140   35.1690 H   0  0  0  0  0  0  0  0  0  0  0  0
   37.9880   27.2900   36.6150 H   0  0  0  0  0  0  0  0  0  0  0  0
   40.2630   26.9900   35.6860 H   0  0  0  0  0  0  0  0  0  0  0  0
   41.1190   26.3320   33.0600 S   0  0  0  0  0  0  0  0  0  0  0  0
   41.3460   24.9370   32.6220 O   0  0  0  0  0  0  0  0  0  0  0  0
   41.2920   27.3150   31.8980 O   0  0  0  0  0  0  0  0  0  0  0  0
   42.7230   25.5990   35.1260 C   0  0  2  0  0  3  0  0  0  0  0  0
   42.3410   26.7550   34.2590 C   0  0  1  0  0  3  0  0  0  0  0  0
   43.5950   27.1450   33.4660 C   0  0  0  0  0  3  0  0  0  0  0  0
   44.3140   27.7160   34.0470 H   0  0  0  0  0  0  0  0  0  0  0  0
   44.0690   26.0470   32.7930 O   0  0  0  0  0  0  0  0  0  0  0  0
   44.6630   25.1020   33.5940 C   0  0  0  0  0  3  0  0  0  0  0  0
   45.7640   25.3120   33.5660 H   0  0  0  0  0  0  0  0  0  0  0  0
   44.2100   25.2540   35.0110 C   0  0  1  0  0  3  0  0  0  0  0  0
   41.9860   24.4540   34.8540 O   0  0  0  0  0  0  0  0  0  0  0  0
   41.5170   24.0990   35.6490 H   0  0  0  0  0  0  0  0  0  0  0  0
   44.9080   26.2110   35.7350 O   0  0  0  0  0  0  0  0  0  0  0  0
   45.8410   25.9570   35.8860 H   0  0  0  0  0  0  0  0  0  0  0  0
   38.6070   26.0770   31.6250 O   0  0  0  0  0  0  0  0  0  0  0  0
   36.6070   24.5660   30.7960 O   0  0  0  0  0  0  0  0  0  0  0  0
   38.1340   24.6910   30.7990 P   0  0  1  0  0  0  0  0  0  0  0  0
   38.7500   24.6920   29.2060 O   0  0  0  0  0  0  0  0  0  0  0  0
   38.0440   24.7480   28.5390 H   0  0  0  0  0  0  0  0  0  0  0  0
   38.6840   23.2860   31.5830 O   0  0  0  0  0  0  0  0  0  0  0  0
   37.5930   22.7100   32.2650 C   0  0  0  0  0  0  0  0  0  0  0  0
   36.6630   23.2600   31.9420 H   0  0  0  0  0  0  0  0  0  0  0  0
   37.5250   21.6490   31.9780 H   0  0  0  0  0  0  0  0  0  0  0  0
   38.8400   22.9490   34.3820 C   0  0  0  0  0  3  0  0  0  0  0  0
   37.7070   22.8750   33.7330 C   0  0  0  0  0  3  0  0  0  0  0  0
   37.7800   23.7230   37.7950 C   0  0  0  0  0  0  0  0  0  0  0  0
   38.9150   23.3520   38.5470 C   0  0  0  0  0  0  0  0  0  0  0  0
   40.0300   22.8420   37.8570 C   0  0  0  0  0  0  0  0  0  0  0  0
   39.8840   22.7580   36.4950 N   0  0  0  0  0  0  0  0  0  0  0  0
   38.8070   23.1130   35.8250 C   0  0  0  0  0  0  0  0  0  0  0  0
   37.7590   23.5950   36.4840 N   0  0  0  0  0  0  0  0  0  0  0  0
   36.9620   24.1090   38.4030 H   0  0  0  0  0  0  0  0  0  0  0  0
   39.0590   23.4060   39.6080 H   0  0  0  0  0  0  0  0  0  0  0  0
   40.9320   22.5390   38.3680 H   0  0  0  0  0  0  0  0  0  0  0  0
  1  6  1  0  0  0  0
  2  3  1  0  0  0  0
  2  1  2  0  0  0  0
  3  4  2  0  0  0  0
  4  8  1  0  0  0  0
  4  5  1  0  0  0  0
  5  9  1  0  0  0  0
  6  5  2  0  0  0  0
  6 10  1  0  0  0  0
  7  3  1  0  0  0  0
 11  1  1  0  0  0  0
 12 11  2  0  0  0  0
 13 11  2  0  0  0  0
 14 22  1  6  0  0  0
 15 11  1  6  0  0  0
 15 14  1  0  0  0  0
 16 17  1  0  0  0  0
 16 15  1  0  0  0  0
 18 16  1  0  0  0  0
 18 19  1  0  0  0  0
 19 21  1  0  0  0  0
 20 19  1  0  0  0  0
 21 14  1  0  0  0  0
 21 24  1  6  0  0  0
 22 23  1  0  0  0  0
 24 25  1  0  0  0  0
 26  2  1  0  0  0  0
 28 27  2  6  0  0  0
 28 31  1  0  0  0  0
 28 26  1  0  0  0  0
 29 28  1  0  0  0  0
 30 29  1  0  0  0  0
 31 32  1  0  0  0  0
 32 36  1  0  0  0  0
 33 32  1  0  0  0  0
 34 32  1  0  0  0  0
 35 41  1  0  0  0  0
 36 35  2  0  0  0  0
 37 43  1  0  0  0  0
 37 38  1  0  0  0  0
 38 44  1  0  0  0  0
 39 45  1  0  0  0  0
 39 38  2  0  0  0  0
 40 39  1  0  0  0  0
 41 42  1  0  0  0  0
 41 40  2  0  0  0  0
 42 37  2  0  0  0  0
M  END
>  <minimizedAffinity>
-5.35173368

$$$$
