REMARK  Name = 
REMARK  3 active torsions:
REMARK  status: ('A' for Active; 'I' for Inactive)
REMARK    1  A    between atoms: N_12  and  C_22
REMARK    2  A    between atoms: O_20  and  C_21
REMARK    3  A    between atoms: C_28  and  O_29
REMARK                            x       y       z     vdW  Elec       q    Type
REMARK                         _______ _______ _______ _____ _____    ______ ____
ROOT
ATOM      1  C   UNL     1      37.480  30.263  51.330  0.00  0.00    +0.000 A 
ATOM      2  C   UNL     1      38.137  30.973  50.301  0.00  0.00    +0.000 A 
ATOM      3  C   UNL     1      37.827  30.726  48.979  0.00  0.00    +0.000 A 
ATOM      4  N   UNL     1      36.879  29.786  48.722  0.00  0.00    +0.000 NA
ATOM      5  C   UNL     1      36.239  29.095  49.706  0.00  0.00    +0.000 A 
ATOM      6  N   UNL     1      36.544  29.339  51.004  0.00  0.00    +0.000 NA
ATOM      7  N   UNL     1      38.458  31.424  47.927  0.00  0.00    +0.000 N 
ATOM      8  C   UNL     1      38.676  30.840  46.735  0.00  0.00    +0.000 A 
ATOM      9  C   UNL     1      39.291  31.534  45.692  0.00  0.00    +0.000 A 
ATOM     10  C   UNL     1      39.673  32.839  45.910  0.00  0.00    +0.000 A 
ATOM     11  O   UNL     1      40.226  33.489  45.000  0.00  0.00    +0.000 OA
ATOM     12  N   UNL     1      39.449  33.408  47.106  0.00  0.00    +0.000 N 
ATOM     13  C   UNL     1      38.851  32.683  48.068  0.00  0.00    +0.000 A 
ATOM     14  O   UNL     1      38.648  33.234  49.186  0.00  0.00    +0.000 OA
ATOM     15  H   UNL     1      37.653  30.387  52.368  0.00  0.00    +0.000 HD
ATOM     16  H   UNL     1      38.856  31.654  50.707  0.00  0.00    +0.000 HD
ATOM     17  H   UNL     1      35.488  28.355  49.392  0.00  0.00    +0.000 HD
ATOM     18  H   UNL     1      38.348  29.795  46.624  0.00  0.00    +0.000 HD
ATOM     19  H   UNL     1      39.447  31.027  44.752  0.00  0.00    +0.000 HD
ENDROOT
BRANCH  12  21
ATOM     20  C   UNL     1      38.962  35.538  48.307  0.00  0.00    +0.000 C 
ATOM     21  C   UNL     1      39.832  34.776  47.382  0.00  0.00    +0.000 C 
ATOM     22  C   UNL     1      41.306  34.876  47.798  0.00  0.00    +0.000 C 
ATOM     23  H   UNL     1      41.858  34.432  46.925  0.00  0.00    +0.000 HD
ATOM     24  O   UNL     1      41.675  36.192  47.850  0.00  0.00    +0.000 OA
ATOM     25  C   UNL     1      40.859  37.008  48.623  0.00  0.00    +0.000 C 
ATOM     26  H   UNL     1      40.285  37.750  48.031  0.00  0.00    +0.000 HD
ATOM     27  C   UNL     1      39.856  36.137  49.390  0.00  0.00    +0.000 C 
BRANCH  20  28
ATOM     28  O   UNL     1      38.403  36.690  47.695  0.00  0.00    +0.000 OA
ATOM     29  H   UNL     1      38.857  36.889  46.855  0.00  0.00    +0.000 HD
ENDBRANCH  20  28
BRANCH  27  30
ATOM     30  O   UNL     1      39.166  36.896  50.301  0.00  0.00    +0.000 OA
ATOM     31  H   UNL     1      39.701  36.957  51.126  0.00  0.00    +0.000 HD
ENDBRANCH  27  30
ENDBRANCH  12  21
TORSDOF 3
