
     RDKit          3D

 27 28  0  0  0  0  0  0  0  0999 V2000
   37.3733   30.2151   51.3584 C   0  0  0  0  0  0  0  0  0  0  0  0
   38.0033   30.7022   50.2038 C   0  0  0  0  0  0  0  0  0  0  0  0
   37.4863   30.3503   48.9624 C   0  0  0  0  0  0  0  0  0  0  0  0
   36.3933   29.5499   48.9235 N   0  0  0  0  0  0  0  0  0  0  0  0
   35.8039   29.0933   50.0448 C   0  0  0  0  0  0  0  0  0  0  0  0
   36.2950   29.4270   51.2468 N   0  0  0  0  0  0  0  0  0  0  0  0
   38.1849   30.8963   47.4182 S   0  0  0  0  0  0  0  0  0  0  0  0
   37.8881   30.5732   52.2398 H   0  0  0  0  0  0  0  0  0  0  0  0
   38.8689   31.3383   50.1359 H   0  0  0  0  0  0  0  0  0  0  0  0
   34.9303   28.4527   50.0505 H   0  0  0  0  0  0  0  0  0  0  0  0
   41.7806   30.0123   47.0589 O   0  0  0  0  0  0  0  0  0  0  0  0
   40.6540   30.4740   46.3395 C   0  0  2  0  0  0  0  0  0  0  0  0
   39.4543   29.7265   46.8096 C   0  0  2  0  0  0  0  0  0  0  0  0
   38.8379   28.8281   45.7779 C   0  0  2  0  0  0  0  0  0  0  0  0
   37.9131   29.3174   45.3974 H   0  0  0  0  0  0  0  0  0  0  0  0
   39.6928   28.5124   44.7272 O   0  0  0  0  0  0  0  0  0  0  0  0
   39.9546   29.6961   44.0516 C   0  0  2  0  0  0  0  0  0  0  0  0
   39.0669   30.2597   43.7601 H   0  0  0  0  0  0  0  0  0  0  0  0
   40.9334   30.4721   44.8858 C   0  0  2  0  0  0  0  0  0  0  0  0
   42.2192   29.9771   44.6532 O   0  0  0  0  0  0  0  0  0  0  0  0
   41.6220   30.0970   48.0340 H   0  0  0  0  0  0  0  0  0  0  0  0
   40.5677   31.5449   46.6827 H   0  0  0  0  0  0  0  0  0  0  0  0
   39.6962   29.0889   47.6871 H   0  0  0  0  0  0  0  0  0  0  0  0
   38.5010   27.8605   46.2064 H   0  0  0  0  0  0  0  0  0  0  0  0
   40.4825   29.4289   43.0975 H   0  0  0  0  0  0  0  0  0  0  0  0
   40.9390   31.5123   44.4590 H   0  0  0  0  0  0  0  0  0  0  0  0
   42.8130   30.4266   45.3117 H   0  0  0  0  0  0  0  0  0  0  0  0
  2  1  2  0
  3  2  1  0
  4  3  2  0
  4  5  1  0
  5  6  2  0
  6  1  1  0
  7  3  1  0
  1  8  1  0
  2  9  1  0
  5 10  1  0
 11 12  1  0
 12 13  1  0
 13 14  1  0
 14 15  1  6
 14 16  1  0
 16 17  1  0
 17 18  1  6
 17 19  1  0
 19 20  1  0
 19 12  1  0
 11 21  1  0
 12 22  1  1
 13 23  1  1
 14 24  1  0
 17 25  1  0
 19 26  1  6
 20 27  1  0
  7 13  1  0
M  ISO  5   8  14   9  14  10  14  15   8  18   8
M  END
>  <DihAtoms>  (1) 
2,6,12,11

>  <DihDeg>  (1) 
-179.99983918682287

$$$$
