
     RDKit          3D

 36 38  0  0  0  0  0  0  0  0999 V2000
   37.4798   30.2629   51.3299 C   0  0  0  0  0  0  0  0  0  0  0  0
   38.1372   30.9728   50.3015 C   0  0  0  0  0  0  0  0  0  0  0  0
   37.8268   30.7263   48.9792 C   0  0  0  0  0  0  0  0  0  0  0  0
   36.8787   29.7861   48.7221 N   0  0  0  0  0  0  0  0  0  0  0  0
   36.2389   29.0950   49.7060 C   0  0  0  0  0  0  0  0  0  0  0  0
   36.5442   29.3389   51.0035 N   0  0  0  0  0  0  0  0  0  0  0  0
   38.4577   31.4244   47.9274 N   0  0  0  0  0  0  0  0  0  0  0  0
   38.6762   30.8404   46.7349 C   0  0  0  0  0  0  0  0  0  0  0  0
   39.2915   31.5344   45.6920 C   0  0  0  0  0  0  0  0  0  0  0  0
   39.6735   32.8394   45.9103 C   0  0  0  0  0  0  0  0  0  0  0  0
   40.2256   33.4888   45.0003 O   0  0  0  0  0  0  0  0  0  0  0  0
   39.4489   33.4084   47.1058 N   0  0  0  0  0  0  0  0  0  0  0  0
   38.8513   32.6832   48.0680 C   0  0  0  0  0  0  0  0  0  0  0  0
   38.6479   33.2341   49.1861 O   0  0  0  0  0  0  0  0  0  0  0  0
   37.6529   30.3869   52.3677 H   0  0  0  0  0  0  0  0  0  0  0  0
   38.8559   31.6538   50.7074 H   0  0  0  0  0  0  0  0  0  0  0  0
   35.4882   28.3554   49.3920 H   0  0  0  0  0  0  0  0  0  0  0  0
   38.3477   29.7953   46.6236 H   0  0  0  0  0  0  0  0  0  0  0  0
   39.4472   31.0266   44.7515 H   0  0  0  0  0  0  0  0  0  0  0  0
   38.4468   36.5804   48.1752 O   0  0  0  0  0  0  0  0  0  0  0  0
   39.1861   35.4265   48.5447 C   0  0  1  0  0  0  0  0  0  0  0  0
   39.8324   34.7756   47.3822 C   0  0  1  0  0  0  0  0  0  0  0  0
   41.3575   34.9347   47.4340 C   0  0  2  0  0  0  0  0  0  0  0  0
   41.6954   34.5792   46.4220 H   0  0  0  0  0  0  0  0  0  0  0  0
   41.6735   36.2641   47.4929 O   0  0  0  0  0  0  0  0  0  0  0  0
   41.0408   36.9815   48.4998 C   0  0  2  0  0  0  0  0  0  0  0  0
   40.3091   37.7250   48.1218 H   0  0  0  0  0  0  0  0  0  0  0  0
   40.2940   36.0079   49.4202 C   0  0  1  0  0  0  0  0  0  0  0  0
   39.8190   36.6677   50.5260 O   0  0  0  0  0  0  0  0  0  0  0  0
   38.6720   36.8577   47.2673 H   0  0  0  0  0  0  0  0  0  0  0  0
   38.4488   34.8395   49.1043 H   0  0  0  0  0  0  0  0  0  0  0  0
   39.5643   35.3861   46.4675 H   0  0  0  0  0  0  0  0  0  0  0  0
   41.8376   34.2742   48.1545 H   0  0  0  0  0  0  0  0  0  0  0  0
   41.7926   37.4815   49.1330 H   0  0  0  0  0  0  0  0  0  0  0  0
   41.0450   35.2902   49.7365 H   0  0  0  0  0  0  0  0  0  0  0  0
   40.5384   36.7081   51.1978 H   0  0  0  0  0  0  0  0  0  0  0  0
  2  1  2  0
  3  2  1  0
  4  3  2  0
  4  5  1  0
  5  6  2  0
  6  1  1  0
  7 13  1  0
  7  3  1  0
  8  7  1  0
  9 10  1  0
  9  8  2  0
 10 12  1  0
 11 10  2  0
 12 13  1  0
 13 14  2  0
  1 15  1  0
  2 16  1  0
  5 17  1  0
  8 18  1  0
  9 19  1  0
 20 21  1  0
 21 22  1  0
 22 23  1  0
 23 24  1  6
 23 25  1  0
 25 26  1  0
 26 27  1  6
 26 28  1  0
 28 29  1  0
 28 21  1  0
 20 30  1  0
 21 31  1  1
 22 32  1  6
 23 33  1  0
 26 34  1  0
 28 35  1  1
 29 36  1  0
 12 22  1  0
M  ISO  7  15  14  16  14  17  14  18  14  19  14  24   8  27   8
M  END
>  <DihAtoms>  (1) 
9,11,21,20

>  <DihDeg>  (1) 
131.78769189163137

$$$$
