
 OpenBabel03272505243D

 31 33  0  0  1  0  0  0  0  0999 V2000
   36.5440   29.2240   50.6820 C   0  0  0  0  0  0  0  0  0  0  0  0
   36.6660   29.3980   49.2860 C   0  0  0  0  0  0  0  0  0  0  0  0
   35.5590   29.7130   48.5250 C   0  0  0  0  0  0  0  0  0  0  0  0
   34.3710   29.8460   49.1710 N   0  0  0  0  0  0  0  0  0  0  0  0
   34.2400   29.6810   50.5170 C   0  0  0  0  0  0  0  0  0  0  0  0
   35.3280   29.3720   51.2640 N   0  0  0  0  0  0  0  0  0  0  0  0
   35.6490   29.9020   47.1290 N   0  0  0  0  0  0  0  0  0  0  0  0
   34.6250   29.5860   46.3160 C   0  0  0  0  0  0  0  0  0  0  0  0
   34.7110   29.7820   44.9370 C   0  0  0  0  0  0  0  0  0  0  0  0
   35.8740   30.3100   44.4220 C   0  0  0  0  0  0  0  0  0  0  0  0
   35.9850   30.4980   43.1930 O   0  0  0  0  0  0  0  0  0  0  0  0
   36.8870   30.6210   45.2470 N   0  0  0  0  0  0  0  0  0  0  0  0
   36.7390   30.4070   46.5660 C   0  0  0  0  0  0  0  0  0  0  0  0
   37.7010   30.7050   47.3270 O   0  0  0  0  0  0  0  0  0  0  0  0
   37.3360   28.9830   51.3420 H   0  0  0  0  0  0  0  0  0  0  0  0
   37.6760   29.2360   48.9690 H   0  0  0  0  0  0  0  0  0  0  0  0
   33.2340   29.8100   50.9430 H   0  0  0  0  0  0  0  0  0  0  0  0
   33.7230   29.1670   46.7880 H   0  0  0  0  0  0  0  0  0  0  0  0
   33.8660   29.5140   44.3210 H   0  0  0  0  0  0  0  0  0  0  0  0
   38.3100   32.6390   44.9090 C   0  0  1  0  0  3  0  0  0  0  0  0
   38.1280   31.1780   44.7530 C   0  0  1  0  0  3  0  0  0  0  0  0
   39.3430   30.4070   45.2840 C   0  0  0  0  0  3  0  0  0  0  0  0
   39.1640   29.3540   44.9330 H   0  0  0  0  0  0  0  0  0  0  0  0
   40.4700   30.8340   44.6370 O   0  0  0  0  0  0  0  0  0  0  0  0
   40.6770   32.2070   44.6500 C   0  0  0  0  0  3  0  0  0  0  0  0
   40.5770   32.6800   43.6510 H   0  0  0  0  0  0  0  0  0  0  0  0
   39.6590   32.8640   45.5890 C   0  0  1  0  0  3  0  0  0  0  0  0
   38.4800   33.2970   43.6620 O   0  0  0  0  0  0  0  0  0  0  0  0
   38.6610   32.6520   42.9530 H   0  0  0  0  0  0  0  0  0  0  0  0
   39.9600   34.1910   45.7660 O   0  0  0  0  0  0  0  0  0  0  0  0
   40.6290   34.2650   46.4850 H   0  0  0  0  0  0  0  0  0  0  0  0
  1  6  1  0  0  0  0
  1 15  1  0  0  0  0
  2  1  2  0  0  0  0
  3  4  2  0  0  0  0
  3  2  1  0  0  0  0
  4  5  1  0  0  0  0
  5 17  1  0  0  0  0
  5  6  2  0  0  0  0
  7  3  1  0  0  0  0
  8 18  1  0  0  0  0
  8  7  1  0  0  0  0
  9  8  2  0  0  0  0
 10  9  1  0  0  0  0
 10 12  1  0  0  0  0
 11 10  2  0  0  0  0
 12 13  1  0  0  0  0
 13  7  1  0  0  0  0
 13 14  2  0  0  0  0
 16  2  1  0  0  0  0
 19  9  1  0  0  0  0
 20 28  1  6  0  0  0
 20 27  1  0  0  0  0
 21 20  1  0  0  0  0
 21 12  1  1  0  0  0
 21 22  1  0  0  0  0
 23 22  1  0  0  0  0
 24 25  1  0  0  0  0
 24 22  1  0  0  0  0
 25 27  1  0  0  0  0
 26 25  1  0  0  0  0
 27 30  1  6  0  0  0
 29 28  1  0  0  0  0
 30 31  1  0  0  0  0
M  END
>  <minimizedAffinity>
-6.03005314

>  <minimizedRMSD>
4.28867006

$$$$
