
     RDKit          3D

 36 38  0  0  0  0  0  0  0  0999 V2000
   37.4798   30.2629   51.3299 C   0  0  0  0  0  0  0  0  0  0  0  0
   38.1372   30.9728   50.3015 C   0  0  0  0  0  0  0  0  0  0  0  0
   37.8268   30.7263   48.9792 C   0  0  0  0  0  0  0  0  0  0  0  0
   36.8787   29.7861   48.7221 N   0  0  0  0  0  0  0  0  0  0  0  0
   36.2389   29.0950   49.7060 C   0  0  0  0  0  0  0  0  0  0  0  0
   36.5442   29.3389   51.0035 N   0  0  0  0  0  0  0  0  0  0  0  0
   38.4577   31.4244   47.9274 N   0  0  0  0  0  0  0  0  0  0  0  0
   38.6762   30.8404   46.7349 C   0  0  0  0  0  0  0  0  0  0  0  0
   39.2915   31.5344   45.6920 C   0  0  0  0  0  0  0  0  0  0  0  0
   39.6735   32.8394   45.9103 C   0  0  0  0  0  0  0  0  0  0  0  0
   40.2256   33.4888   45.0003 O   0  0  0  0  0  0  0  0  0  0  0  0
   39.4489   33.4084   47.1058 N   0  0  0  0  0  0  0  0  0  0  0  0
   38.8513   32.6832   48.0680 C   0  0  0  0  0  0  0  0  0  0  0  0
   38.6479   33.2341   49.1861 O   0  0  0  0  0  0  0  0  0  0  0  0
   37.6529   30.3869   52.3677 H   0  0  0  0  0  0  0  0  0  0  0  0
   38.8559   31.6538   50.7074 H   0  0  0  0  0  0  0  0  0  0  0  0
   35.4882   28.3554   49.3920 H   0  0  0  0  0  0  0  0  0  0  0  0
   38.3477   29.7953   46.6236 H   0  0  0  0  0  0  0  0  0  0  0  0
   39.4472   31.0266   44.7515 H   0  0  0  0  0  0  0  0  0  0  0  0
   38.4027   36.6898   47.6951 O   0  0  0  0  0  0  0  0  0  0  0  0
   38.9620   35.5375   48.3067 C   0  0  1  0  0  0  0  0  0  0  0  0
   39.8324   34.7756   47.3822 C   0  0  1  0  0  0  0  0  0  0  0  0
   41.3059   34.8756   47.7981 C   0  0  2  0  0  0  0  0  0  0  0  0
   41.8582   34.4319   46.9247 H   0  0  0  0  0  0  0  0  0  0  0  0
   41.6746   36.1917   47.8499 O   0  0  0  0  0  0  0  0  0  0  0  0
   40.8590   37.0076   48.6230 C   0  0  2  0  0  0  0  0  0  0  0  0
   40.2854   37.7501   48.0308 H   0  0  0  0  0  0  0  0  0  0  0  0
   39.8558   36.1369   49.3900 C   0  0  1  0  0  0  0  0  0  0  0  0
   39.1656   36.8964   50.3014 O   0  0  0  0  0  0  0  0  0  0  0  0
   38.8574   36.8890   46.8552 H   0  0  0  0  0  0  0  0  0  0  0  0
   38.0780   35.0246   48.7030 H   0  0  0  0  0  0  0  0  0  0  0  0
   39.8304   35.3264   46.3933 H   0  0  0  0  0  0  0  0  0  0  0  0
   41.5574   34.2518   48.6544 H   0  0  0  0  0  0  0  0  0  0  0  0
   41.4622   37.5223   49.3894 H   0  0  0  0  0  0  0  0  0  0  0  0
   40.4646   35.4148   49.9258 H   0  0  0  0  0  0  0  0  0  0  0  0
   39.7013   36.9574   51.1258 H   0  0  0  0  0  0  0  0  0  0  0  0
  2  1  2  0
  3  2  1  0
  4  3  2  0
  4  5  1  0
  5  6  2  0
  6  1  1  0
  7 13  1  0
  7  3  1  0
  8  7  1  0
  9 10  1  0
  9  8  2  0
 10 12  1  0
 11 10  2  0
 12 13  1  0
 13 14  2  0
  1 15  1  0
  2 16  1  0
  5 17  1  0
  8 18  1  0
  9 19  1  0
 20 21  1  0
 21 22  1  0
 22 23  1  0
 23 24  1  6
 23 25  1  0
 25 26  1  0
 26 27  1  6
 26 28  1  0
 28 29  1  0
 28 21  1  0
 20 30  1  0
 21 31  1  1
 22 32  1  6
 23 33  1  0
 26 34  1  0
 28 35  1  1
 29 36  1  0
 12 22  1  0
M  ISO  7  15  14  16  14  17  14  18  14  19  14  24   8  27   8
M  END
>  <DihAtoms>  (1) 
9,11,21,20

>  <DihDeg>  (1) 
131.78769189163137

$$$$
