
 OpenBabel03262520573D

 22 23  0  0  1  0  0  0  0  0999 V2000
   39.8920   31.7420   46.1270 C   0  0  2  0  0  0  0  0  0  0  0  0
   38.6860   31.1630   46.7820 C   0  0  2  0  0  0  0  0  0  0  0  0
   37.4630   31.1290   45.9130 C   0  0  0  0  0  0  0  0  0  0  0  0
   36.7800   31.9450   46.2400 H   0  0  0  0  0  0  0  0  0  0  0  0
   37.7380   31.2350   44.5540 O   0  0  0  0  0  0  0  0  0  0  0  0
   38.2790   32.4960   44.3500 C   0  0  0  0  0  0  0  0  0  0  0  0
   37.6860   33.3170   44.7580 H   0  0  0  0  0  0  0  0  0  0  0  0
   39.6970   32.4530   44.8430 C   0  0  2  0  0  0  0  0  0  0  0  0
   40.8590   30.7200   45.9830 O   0  0  0  0  0  0  0  0  0  0  0  0
   41.0500   30.3040   46.8620 H   0  0  0  0  0  0  0  0  0  0  0  0
   40.5010   31.8750   43.8570 O   0  0  0  0  0  0  0  0  0  0  0  0
   41.3980   31.7500   44.2680 H   0  0  0  0  0  0  0  0  0  0  0  0
   38.3020   32.0830   48.3160 S   0  0  0  0  0  0  0  0  0  0  0  0
   37.2440   29.8490   51.5620 C   0  0  0  0  0  0  0  0  0  0  0  0
   38.0040   30.6600   50.7080 C   0  0  0  0  0  0  0  0  0  0  0  0
   37.4510   31.0550   49.4940 C   0  0  0  0  0  0  0  0  0  0  0  0
   36.1980   30.6360   49.1910 N   0  0  0  0  0  0  0  0  0  0  0  0
   35.4860   29.8560   50.0270 C   0  0  0  0  0  0  0  0  0  0  0  0
   36.0110   29.4700   51.1990 N   0  0  0  0  0  0  0  0  0  0  0  0
   37.8060   29.6280   52.4600 H   0  0  0  0  0  0  0  0  0  0  0  0
   38.9990   31.0400   50.8610 H   0  0  0  0  0  0  0  0  0  0  0  0
   34.4830   29.5030   49.8170 H   0  0  0  0  0  0  0  0  0  0  0  0
  1  9  1  6  0  0  0
  1  2  1  0  0  0  0
  2 13  1  1  0  0  0
  3  4  1  0  0  0  0
  3  2  1  0  0  0  0
  5  3  1  0  0  0  0
  6  5  1  0  0  0  0
  6  7  1  0  0  0  0
  6  8  1  0  0  0  0
  8 11  1  6  0  0  0
  8  1  1  0  0  0  0
  9 10  1  0  0  0  0
 11 12  1  0  0  0  0
 13 16  1  0  0  0  0
 14 20  1  0  0  0  0
 15 21  1  0  0  0  0
 15 14  2  0  0  0  0
 16 15  1  0  0  0  0
 17 16  2  0  0  0  0
 17 18  1  0  0  0  0
 18 19  2  0  0  0  0
 19 14  1  0  0  0  0
 22 18  1  0  0  0  0
M  END
>  <minimizedAffinity>
-5.27357531

>  <minimizedRMSD>
1.94610393

$$$$
