
 OpenBabel03272503513D

 40 42  0  0  1  0  0  0  0  0999 V2000
   37.5040   24.0470   32.1870 C   0  0  1  0  0  0  0  0  0  0  0  0
   37.0070   25.3810   32.7880 C   0  0  2  0  0  0  0  0  0  0  0  0
   36.4180   25.9970   31.7290 O   0  0  0  0  0  0  0  0  0  0  0  0
   35.6520   25.0130   31.1330 C   0  0  0  0  0  0  0  0  0  0  0  0
   36.3770   23.6960   31.2730 C   0  0  2  0  0  0  0  0  0  0  0  0
   37.6340   23.2870   32.9880 H   0  0  0  0  0  0  0  0  0  0  0  0
   36.3220   25.0760   33.6120 H   0  0  0  0  0  0  0  0  0  0  0  0
   34.6550   25.0090   31.6060 H   0  0  0  0  0  0  0  0  0  0  0  0
   35.6400   25.2550   30.0490 H   0  0  0  0  0  0  0  0  0  0  0  0
   36.7650   23.3140   30.3240 H   0  0  0  0  0  0  0  0  0  0  0  0
   38.7280   24.2210   31.5740 O   0  0  0  0  0  0  0  0  0  0  0  0
   38.7270   25.0190   30.9770 H   0  0  0  0  0  0  0  0  0  0  0  0
   38.1240   25.9660   33.3040 O   0  0  0  0  0  0  0  0  0  0  0  0
   39.1920   27.2610   35.3410 O   0  0  0  0  0  0  0  0  0  0  0  0
   37.9080   26.6160   34.8410 P   0  0  1  0  0  0  0  0  0  0  0  0
   36.7780   27.8770   34.7880 O   0  0  0  0  0  0  0  0  0  0  0  0
   35.8770   27.4640   34.6070 H   0  0  0  0  0  0  0  0  0  0  0  0
   37.3530   25.3470   35.8380 O   0  0  0  0  0  0  0  0  0  0  0  0
   38.2210   24.4740   36.4670 C   0  0  0  0  0  0  0  0  0  0  0  0
   39.3040   23.8330   35.8280 C   0  0  0  0  0  0  0  0  0  0  0  0
   40.0960   22.9800   36.5870 C   0  0  0  0  0  0  0  0  0  0  0  0
   39.7880   22.8030   37.9050 N   0  0  0  0  0  0  0  0  0  0  0  0
   38.7390   23.4330   38.4950 C   0  0  0  0  0  0  0  0  0  0  0  0
   37.9470   24.2770   37.7730 N   0  0  0  0  0  0  0  0  0  0  0  0
   39.4560   24.0450   34.7800 H   0  0  0  0  0  0  0  0  0  0  0  0
   40.9280   22.4840   36.1070 H   0  0  0  0  0  0  0  0  0  0  0  0
   38.5560   23.2460   39.5440 H   0  0  0  0  0  0  0  0  0  0  0  0
   35.5540   22.7450   31.8440 O   0  0  0  0  0  0  0  0  0  0  0  0
   36.4700   20.6950   31.0150 C   0  0  2  0  0  3  0  0  0  0  0  0
   36.2270   21.5780   32.2040 C   0  0  2  0  0  3  0  0  0  0  0  0
   35.4340   20.9510   33.2990 C   0  0  0  0  0  3  0  0  0  0  0  0
   35.7470   21.3830   34.2780 H   0  0  0  0  0  0  0  0  0  0  0  0
   35.5860   19.5820   33.4220 O   0  0  0  0  0  0  0  0  0  0  0  0
   35.1990   18.9820   32.2300 C   0  0  0  0  0  3  0  0  0  0  0  0
   35.0350   17.8820   32.3530 H   0  0  0  0  0  0  0  0  0  0  0  0
   36.3400   19.2320   31.2660 C   0  0  1  0  0  3  0  0  0  0  0  0
   37.7300   20.8870   30.4410 O   0  0  0  0  0  0  0  0  0  0  0  0
   37.6400   21.6670   29.8130 H   0  0  0  0  0  0  0  0  0  0  0  0
   36.0100   18.5840   30.0710 O   0  0  0  0  0  0  0  0  0  0  0  0
   35.6080   19.2640   29.4570 H   0  0  0  0  0  0  0  0  0  0  0  0
  1  2  1  0  0  0  0
  1  6  1  1  0  0  0
  2 13  1  0  0  0  0
  2  7  1  1  0  0  0
  3  2  1  0  0  0  0
  4  5  1  0  0  0  0
  4  8  1  0  0  0  0
  4  3  1  0  0  0  0
  5 10  1  6  0  0  0
  5 28  1  0  0  0  0
  5  1  1  0  0  0  0
  9  4  1  0  0  0  0
 11  1  1  0  0  0  0
 12 11  1  0  0  0  0
 13 15  1  0  0  0  0
 15 14  2  1  0  0  0
 15 18  1  0  0  0  0
 16 15  1  0  0  0  0
 17 16  1  0  0  0  0
 18 19  1  0  0  0  0
 19 24  1  0  0  0  0
 20 19  2  0  0  0  0
 20 21  1  0  0  0  0
 21 22  2  0  0  0  0
 22 23  1  0  0  0  0
 23 27  1  0  0  0  0
 24 23  2  0  0  0  0
 25 20  1  0  0  0  0
 26 21  1  0  0  0  0
 29 37  1  1  0  0  0
 29 36  1  0  0  0  0
 29 30  1  0  0  0  0
 30 28  1  6  0  0  0
 30 31  1  0  0  0  0
 31 33  1  0  0  0  0
 31 32  1  0  0  0  0
 34 35  1  0  0  0  0
 34 33  1  0  0  0  0
 36 39  1  6  0  0  0
 36 34  1  0  0  0  0
 38 37  1  0  0  0  0
 40 39  1  0  0  0  0
M  END
>  <minimizedAffinity>
-5.86707258

$$$$

 OpenBabel03272503513D

 40 42  0  0  1  0  0  0  0  0999 V2000
   38.6340   25.6750   33.5050 C   0  0  1  0  0  0  0  0  0  0  0  0
   37.3730   26.2120   32.7920 C   0  0  2  0  0  0  0  0  0  0  0  0
   37.1760   25.3110   31.7920 O   0  0  0  0  0  0  0  0  0  0  0  0
   37.3320   24.0780   32.3960 C   0  0  0  0  0  0  0  0  0  0  0  0
   38.3940   24.2030   33.4630 C   0  0  2  0  0  0  0  0  0  0  0  0
   38.6770   26.0530   34.5500 H   0  0  0  0  0  0  0  0  0  0  0  0
   36.5910   26.2310   33.5860 H   0  0  0  0  0  0  0  0  0  0  0  0
   36.3560   23.7560   32.7960 H   0  0  0  0  0  0  0  0  0  0  0  0
   37.7470   23.4090   31.6130 H   0  0  0  0  0  0  0  0  0  0  0  0
   39.3200   23.6750   33.2140 H   0  0  0  0  0  0  0  0  0  0  0  0
   39.7740   26.1060   32.8580 O   0  0  0  0  0  0  0  0  0  0  0  0
   39.7100   25.9640   31.8730 H   0  0  0  0  0  0  0  0  0  0  0  0
   37.6960   27.4840   32.4270 O   0  0  0  0  0  0  0  0  0  0  0  0
   37.0370   29.5890   30.9770 O   0  0  0  0  0  0  0  0  0  0  0  0
   36.5510   28.2240   31.4390 P   0  0  1  0  0  0  0  0  0  0  0  0
   36.3430   27.3290   30.0160 O   0  0  0  0  0  0  0  0  0  0  0  0
   35.8790   26.4710   30.2670 H   0  0  0  0  0  0  0  0  0  0  0  0
   35.0990   28.2870   32.3330 O   0  0  0  0  0  0  0  0  0  0  0  0
   34.8080   29.3330   33.1900 C   0  0  0  0  0  0  0  0  0  0  0  0
   35.5970   29.6880   34.3040 C   0  0  0  0  0  0  0  0  0  0  0  0
   35.1830   30.7660   35.0780 C   0  0  0  0  0  0  0  0  0  0  0  0
   34.0400   31.4230   34.7250 N   0  0  0  0  0  0  0  0  0  0  0  0
   33.2990   31.0590   33.6450 C   0  0  0  0  0  0  0  0  0  0  0  0
   33.6840   30.0060   32.8690 N   0  0  0  0  0  0  0  0  0  0  0  0
   36.4830   29.0990   34.4920 H   0  0  0  0  0  0  0  0  0  0  0  0
   35.7810   31.0460   35.9350 H   0  0  0  0  0  0  0  0  0  0  0  0
   32.4060   31.6260   33.4260 H   0  0  0  0  0  0  0  0  0  0  0  0
   37.9210   23.7420   34.6770 O   0  0  0  0  0  0  0  0  0  0  0  0
   39.6900   23.1510   36.1770 C   0  0  2  0  0  3  0  0  0  0  0  0
   38.6770   24.1790   35.7640 C   0  0  2  0  0  3  0  0  0  0  0  0
   37.7070   24.5670   36.8270 C   0  0  0  0  0  3  0  0  0  0  0  0
   37.3930   25.6250   36.6750 H   0  0  0  0  0  0  0  0  0  0  0  0
   38.1970   24.4970   38.1190 O   0  0  0  0  0  0  0  0  0  0  0  0
   38.5970   23.1920   38.3750 C   0  0  0  0  0  3  0  0  0  0  0  0
   38.7390   23.0080   39.4690 H   0  0  0  0  0  0  0  0  0  0  0  0
   39.9140   23.0250   37.6450 C   0  0  1  0  0  3  0  0  0  0  0  0
   40.9470   23.3620   35.6030 O   0  0  0  0  0  0  0  0  0  0  0  0
   40.9180   22.9340   34.6930 H   0  0  0  0  0  0  0  0  0  0  0  0
   40.3770   21.7380   37.9350 O   0  0  0  0  0  0  0  0  0  0  0  0
   40.1120   21.1410   37.1770 H   0  0  0  0  0  0  0  0  0  0  0  0
  1  6  1  1  0  0  0
  2  1  1  0  0  0  0
  2  7  1  1  0  0  0
  3  4  1  0  0  0  0
  3  2  1  0  0  0  0
  4  8  1  0  0  0  0
  4  5  1  0  0  0  0
  5 10  1  6  0  0  0
  5  1  1  0  0  0  0
  5 28  1  0  0  0  0
  9  4  1  0  0  0  0
 11  1  1  0  0  0  0
 12 11  1  0  0  0  0
 13  2  1  0  0  0  0
 15 14  2  6  0  0  0
 15 18  1  0  0  0  0
 15 13  1  0  0  0  0
 16 17  1  0  0  0  0
 16 15  1  0  0  0  0
 18 19  1  0  0  0  0
 19 20  1  0  0  0  0
 20 25  1  0  0  0  0
 20 21  2  0  0  0  0
 21 26  1  0  0  0  0
 22 21  1  0  0  0  0
 23 22  2  0  0  0  0
 24 19  2  0  0  0  0
 24 23  1  0  0  0  0
 27 23  1  0  0  0  0
 29 37  1  6  0  0  0
 29 36  1  0  0  0  0
 30 28  1  6  0  0  0
 30 29  1  0  0  0  0
 30 31  1  0  0  0  0
 31 33  1  0  0  0  0
 32 31  1  0  0  0  0
 33 34  1  0  0  0  0
 34 35  1  0  0  0  0
 36 39  1  6  0  0  0
 36 34  1  0  0  0  0
 38 37  1  0  0  0  0
 40 39  1  0  0  0  0
M  END
>  <minimizedAffinity>
-5.63079977

$$$$

 OpenBabel03272503513D

 40 42  0  0  1  0  0  0  0  0999 V2000
   37.6990   26.1660   34.4140 C   0  0  1  0  0  0  0  0  0  0  0  0
   37.6430   25.8290   32.9070 C   0  0  2  0  0  0  0  0  0  0  0  0
   38.3710   26.8290   32.3410 O   0  0  0  0  0  0  0  0  0  0  0  0
   39.4990   26.9320   33.1320 C   0  0  0  0  0  0  0  0  0  0  0  0
   39.1060   26.6400   34.5600 C   0  0  2  0  0  0  0  0  0  0  0  0
   37.5090   25.2530   35.0210 H   0  0  0  0  0  0  0  0  0  0  0  0
   38.0840   24.8090   32.8340 H   0  0  0  0  0  0  0  0  0  0  0  0
   40.2650   26.2380   32.7450 H   0  0  0  0  0  0  0  0  0  0  0  0
   39.7950   28.0020   33.0970 H   0  0  0  0  0  0  0  0  0  0  0  0
   39.1430   27.5220   35.2070 H   0  0  0  0  0  0  0  0  0  0  0  0
   36.7280   27.0920   34.7380 O   0  0  0  0  0  0  0  0  0  0  0  0
   36.7260   27.8560   34.0990 H   0  0  0  0  0  0  0  0  0  0  0  0
   36.3140   25.7850   32.6110 O   0  0  0  0  0  0  0  0  0  0  0  0
   34.8710   25.5580   30.4130 O   0  0  0  0  0  0  0  0  0  0  0  0
   35.9490   24.8760   31.2420 P   0  0  1  0  0  0  0  0  0  0  0  0
   37.2980   24.7920   30.2210 O   0  0  0  0  0  0  0  0  0  0  0  0
   37.9840   24.2150   30.6780 H   0  0  0  0  0  0  0  0  0  0  0  0
   35.5040   23.3220   31.7880 O   0  0  0  0  0  0  0  0  0  0  0  0
   36.2820   22.2060   31.5390 C   0  0  0  0  0  0  0  0  0  0  0  0
   35.7770   20.9800   31.0550 C   0  0  0  0  0  0  0  0  0  0  0  0
   36.6780   19.9410   30.8490 C   0  0  0  0  0  0  0  0  0  0  0  0
   37.9970   20.1560   31.1250 N   0  0  0  0  0  0  0  0  0  0  0  0
   38.4560   21.3480   31.5900 C   0  0  0  0  0  0  0  0  0  0  0  0
   37.5930   22.3840   31.8000 N   0  0  0  0  0  0  0  0  0  0  0  0
   34.7150   20.9200   30.8700 H   0  0  0  0  0  0  0  0  0  0  0  0
   36.3020   18.9980   30.4790 H   0  0  0  0  0  0  0  0  0  0  0  0
   39.5140   21.4460   31.7860 H   0  0  0  0  0  0  0  0  0  0  0  0
   39.9100   25.6510   35.0940 O   0  0  0  0  0  0  0  0  0  0  0  0
   39.1430   24.0670   36.7160 C   0  0  2  0  0  3  0  0  0  0  0  0
   39.2480   24.4350   35.2650 C   0  0  2  0  0  3  0  0  0  0  0  0
   39.9620   23.4400   34.4150 C   0  0  0  0  0  3  0  0  0  0  0  0
   39.5490   23.4710   33.3810 H   0  0  0  0  0  0  0  0  0  0  0  0
   39.8470   22.1260   34.8320 O   0  0  0  0  0  0  0  0  0  0  0  0
   40.3590   22.0200   36.1190 C   0  0  0  0  0  3  0  0  0  0  0  0
   40.5500   20.9550   36.4040 H   0  0  0  0  0  0  0  0  0  0  0  0
   39.3000   22.6170   37.0230 C   0  0  1  0  0  3  0  0  0  0  0  0
   37.9330   24.4630   37.2930 O   0  0  0  0  0  0  0  0  0  0  0  0
   38.0510   25.4230   37.5700 H   0  0  0  0  0  0  0  0  0  0  0  0
   39.7570   22.4680   38.3360 O   0  0  0  0  0  0  0  0  0  0  0  0
   40.1880   23.3280   38.6080 H   0  0  0  0  0  0  0  0  0  0  0  0
  1  5  1  0  0  0  0
  1 11  1  0  0  0  0
  1  6  1  1  0  0  0
  2  7  1  6  0  0  0
  2  1  1  0  0  0  0
  3  2  1  0  0  0  0
  3  4  1  0  0  0  0
  4  5  1  0  0  0  0
  5 28  1  0  0  0  0
  5 10  1  1  0  0  0
  8  4  1  0  0  0  0
  9  4  1  0  0  0  0
 12 11  1  0  0  0  0
 13  2  1  0  0  0  0
 15 14  2  6  0  0  0
 15 18  1  0  0  0  0
 15 13  1  0  0  0  0
 16 17  1  0  0  0  0
 16 15  1  0  0  0  0
 19 18  1  0  0  0  0
 19 24  1  0  0  0  0
 20 19  2  0  0  0  0
 21 20  1  0  0  0  0
 21 22  2  0  0  0  0
 22 23  1  0  0  0  0
 23 27  1  0  0  0  0
 23 24  2  0  0  0  0
 25 20  1  0  0  0  0
 26 21  1  0  0  0  0
 29 36  1  0  0  0  0
 29 37  1  6  0  0  0
 30 28  1  1  0  0  0
 30 29  1  0  0  0  0
 31 33  1  0  0  0  0
 31 30  1  0  0  0  0
 32 31  1  0  0  0  0
 33 34  1  0  0  0  0
 34 35  1  0  0  0  0
 34 36  1  0  0  0  0
 36 39  1  1  0  0  0
 37 38  1  0  0  0  0
 39 40  1  0  0  0  0
M  END
>  <minimizedAffinity>
-5.4241991

$$$$

 OpenBabel03272503513D

 40 42  0  0  1  0  0  0  0  0999 V2000
   38.0300   23.2180   35.4640 C   0  0  1  0  0  0  0  0  0  0  0  0
   39.1550   24.2490   35.2250 C   0  0  2  0  0  0  0  0  0  0  0  0
   40.2760   23.5770   35.6040 O   0  0  0  0  0  0  0  0  0  0  0  0
   40.1490   22.3300   35.0230 C   0  0  0  0  0  0  0  0  0  0  0  0
   38.6870   21.9540   35.0180 C   0  0  2  0  0  0  0  0  0  0  0  0
   37.1440   23.4610   34.8390 H   0  0  0  0  0  0  0  0  0  0  0  0
   39.0820   24.4940   34.1400 H   0  0  0  0  0  0  0  0  0  0  0  0
   40.5880   22.3670   34.0120 H   0  0  0  0  0  0  0  0  0  0  0  0
   40.6560   21.6230   35.7140 H   0  0  0  0  0  0  0  0  0  0  0  0
   38.4480   21.1400   35.7100 H   0  0  0  0  0  0  0  0  0  0  0  0
   37.6280   23.2400   36.7840 O   0  0  0  0  0  0  0  0  0  0  0  0
   38.4090   23.2170   37.4030 H   0  0  0  0  0  0  0  0  0  0  0  0
   38.7990   25.3310   35.9720 O   0  0  0  0  0  0  0  0  0  0  0  0
   38.1520   27.8910   35.9710 O   0  0  0  0  0  0  0  0  0  0  0  0
   38.4920   26.7160   35.0650 P   0  0  1  0  0  0  0  0  0  0  0  0
   39.8900   27.1930   34.2370 O   0  0  0  0  0  0  0  0  0  0  0  0
   40.0620   26.5070   33.5190 H   0  0  0  0  0  0  0  0  0  0  0  0
   37.2440   26.3210   33.9710 O   0  0  0  0  0  0  0  0  0  0  0  0
   37.1490   26.9070   32.7220 C   0  0  0  0  0  0  0  0  0  0  0  0
   36.1940   27.8870   32.3770 C   0  0  0  0  0  0  0  0  0  0  0  0
   36.2170   28.3890   31.0810 C   0  0  0  0  0  0  0  0  0  0  0  0
   37.1550   27.9130   30.2110 N   0  0  0  0  0  0  0  0  0  0  0  0
   38.0630   26.9690   30.5720 C   0  0  0  0  0  0  0  0  0  0  0  0
   38.0630   26.4600   31.8370 N   0  0  0  0  0  0  0  0  0  0  0  0
   35.4970   28.1910   33.1440 H   0  0  0  0  0  0  0  0  0  0  0  0
   35.4890   29.1400   30.8060 H   0  0  0  0  0  0  0  0  0  0  0  0
   38.7770   26.6390   29.8310 H   0  0  0  0  0  0  0  0  0  0  0  0
   38.2770   21.6040   33.7460 O   0  0  0  0  0  0  0  0  0  0  0  0
   36.0780   20.7160   33.4320 C   0  0  2  0  0  3  0  0  0  0  0  0
   36.9490   21.9370   33.4830 C   0  0  2  0  0  3  0  0  0  0  0  0
   36.9540   22.7570   32.2390 C   0  0  0  0  0  3  0  0  0  0  0  0
   37.1260   23.8270   32.5000 H   0  0  0  0  0  0  0  0  0  0  0  0
   35.7770   22.7270   31.5140 O   0  0  0  0  0  0  0  0  0  0  0  0
   35.5130   21.4130   31.1470 C   0  0  0  0  0  3  0  0  0  0  0  0
   34.7430   21.3550   30.3380 H   0  0  0  0  0  0  0  0  0  0  0  0
   34.9990   20.7410   32.4020 C   0  0  1  0  0  3  0  0  0  0  0  0
   35.4530   20.4390   34.6500 O   0  0  0  0  0  0  0  0  0  0  0  0
   36.1150   19.9140   35.1960 H   0  0  0  0  0  0  0  0  0  0  0  0
   34.6630   19.4300   32.0510 O   0  0  0  0  0  0  0  0  0  0  0  0
   35.4350   18.8420   32.2940 H   0  0  0  0  0  0  0  0  0  0  0  0
  1  6  1  6  0  0  0
  1 11  1  0  0  0  0
  2  7  1  6  0  0  0
  2  1  1  0  0  0  0
  2  3  1  0  0  0  0
  2 13  1  0  0  0  0
  4  3  1  0  0  0  0
  4  9  1  0  0  0  0
  5  4  1  0  0  0  0
  5  1  1  0  0  0  0
  5 10  1  1  0  0  0
  8  4  1  0  0  0  0
 11 12  1  0  0  0  0
 15 14  2  1  0  0  0
 15 13  1  0  0  0  0
 16 15  1  0  0  0  0
 17 16  1  0  0  0  0
 18 15  1  0  0  0  0
 19 18  1  0  0  0  0
 20 19  1  0  0  0  0
 20 25  1  0  0  0  0
 21 20  2  0  0  0  0
 22 23  2  0  0  0  0
 22 21  1  0  0  0  0
 23 24  1  0  0  0  0
 24 19  2  0  0  0  0
 26 21  1  0  0  0  0
 27 23  1  0  0  0  0
 28  5  1  0  0  0  0
 29 30  1  0  0  0  0
 29 37  1  1  0  0  0
 30 28  1  6  0  0  0
 31 32  1  0  0  0  0
 31 30  1  0  0  0  0
 33 31  1  0  0  0  0
 34 33  1  0  0  0  0
 34 36  1  0  0  0  0
 35 34  1  0  0  0  0
 36 39  1  6  0  0  0
 36 29  1  0  0  0  0
 37 38  1  0  0  0  0
 39 40  1  0  0  0  0
M  END
>  <minimizedAffinity>
-5.29549789

$$$$

 OpenBabel03272503513D

 40 42  0  0  1  0  0  0  0  0999 V2000
   37.6220   27.0470   32.5090 C   0  0  1  0  0  0  0  0  0  0  0  0
   36.2620   27.4980   31.9340 C   0  0  2  0  0  0  0  0  0  0  0  0
   36.1190   26.7180   30.8290 O   0  0  0  0  0  0  0  0  0  0  0  0
   36.4670   25.4480   31.2500 C   0  0  0  0  0  0  0  0  0  0  0  0
   37.5680   25.5740   32.2760 C   0  0  2  0  0  0  0  0  0  0  0  0
   37.6820   27.2870   33.5930 H   0  0  0  0  0  0  0  0  0  0  0  0
   35.5350   27.3090   32.7560 H   0  0  0  0  0  0  0  0  0  0  0  0
   35.5660   24.9490   31.6440 H   0  0  0  0  0  0  0  0  0  0  0  0
   36.9140   24.9490   30.3640 H   0  0  0  0  0  0  0  0  0  0  0  0
   38.5360   25.2120   31.9160 H   0  0  0  0  0  0  0  0  0  0  0  0
   38.6560   27.7070   31.8780 O   0  0  0  0  0  0  0  0  0  0  0  0
   38.5500   27.6870   30.8870 H   0  0  0  0  0  0  0  0  0  0  0  0
   36.3980   28.8390   31.7320 O   0  0  0  0  0  0  0  0  0  0  0  0
   35.0030   31.0780   31.8300 O   0  0  0  0  0  0  0  0  0  0  0  0
   35.2720   29.7730   32.5650 P   0  0  1  0  0  0  0  0  0  0  0  0
   33.7760   28.9810   32.6100 O   0  0  0  0  0  0  0  0  0  0  0  0
   33.8770   28.1840   33.2190 H   0  0  0  0  0  0  0  0  0  0  0  0
   35.8880   29.9970   34.1410 O   0  0  0  0  0  0  0  0  0  0  0  0
   35.1880   30.6880   35.1120 C   0  0  0  0  0  0  0  0  0  0  0  0
   35.7740   31.6000   36.0150 C   0  0  0  0  0  0  0  0  0  0  0  0
   34.9460   32.2250   36.9400 C   0  0  0  0  0  0  0  0  0  0  0  0
   33.6140   31.9270   36.9290 N   0  0  0  0  0  0  0  0  0  0  0  0
   33.0750   31.0450   36.0470 C   0  0  0  0  0  0  0  0  0  0  0  0
   33.8660   30.4190   35.1290 N   0  0  0  0  0  0  0  0  0  0  0  0
   36.8400   31.7600   35.9340 H   0  0  0  0  0  0  0  0  0  0  0  0
   35.3860   32.9250   37.6370 H   0  0  0  0  0  0  0  0  0  0  0  0
   32.0120   30.8590   36.0970 H   0  0  0  0  0  0  0  0  0  0  0  0
   37.2340   24.8990   33.4350 O   0  0  0  0  0  0  0  0  0  0  0  0
   38.7710   23.5750   34.7040 C   0  0  2  0  0  3  0  0  0  0  0  0
   38.2330   24.9440   34.4060 C   0  0  2  0  0  3  0  0  0  0  0  0
   37.6540   25.6600   35.5790 C   0  0  0  0  0  3  0  0  0  0  0  0
   37.7910   26.7580   35.4480 H   0  0  0  0  0  0  0  0  0  0  0  0
   38.2290   25.3470   36.7970 O   0  0  0  0  0  0  0  0  0  0  0  0
   38.0800   23.9840   37.0240 C   0  0  0  0  0  3  0  0  0  0  0  0
   38.2690   23.7180   38.0940 H   0  0  0  0  0  0  0  0  0  0  0  0
   39.1050   23.3140   36.1330 C   0  0  1  0  0  3  0  0  0  0  0  0
   39.9180   23.2670   33.9680 O   0  0  0  0  0  0  0  0  0  0  0  0
   39.6010   22.9230   33.0780 H   0  0  0  0  0  0  0  0  0  0  0  0
   39.0250   21.9420   36.3850 O   0  0  0  0  0  0  0  0  0  0  0  0
   38.4430   21.5360   35.6800 H   0  0  0  0  0  0  0  0  0  0  0  0
  1  6  1  1  0  0  0
  2  1  1  0  0  0  0
  2  7  1  1  0  0  0
  3  4  1  0  0  0  0
  3  2  1  0  0  0  0
  4  8  1  0  0  0  0
  4  5  1  0  0  0  0
  5 10  1  6  0  0  0
  5  1  1  0  0  0  0
  5 28  1  0  0  0  0
  9  4  1  0  0  0  0
 11  1  1  0  0  0  0
 12 11  1  0  0  0  0
 13  2  1  0  0  0  0
 13 15  1  0  0  0  0
 15 14  2  6  0  0  0
 15 16  1  0  0  0  0
 15 18  1  0  0  0  0
 16 17  1  0  0  0  0
 18 19  1  0  0  0  0
 19 24  2  0  0  0  0
 19 20  1  0  0  0  0
 20 21  2  0  0  0  0
 21 26  1  0  0  0  0
 22 21  1  0  0  0  0
 23 27  1  0  0  0  0
 23 22  2  0  0  0  0
 24 23  1  0  0  0  0
 25 20  1  0  0  0  0
 29 37  1  6  0  0  0
 29 36  1  0  0  0  0
 30 28  1  6  0  0  0
 30 29  1  0  0  0  0
 30 31  1  0  0  0  0
 31 33  1  0  0  0  0
 32 31  1  0  0  0  0
 33 34  1  0  0  0  0
 34 35  1  0  0  0  0
 36 39  1  6  0  0  0
 36 34  1  0  0  0  0
 38 37  1  0  0  0  0
 40 39  1  0  0  0  0
M  END
>  <minimizedAffinity>
-5.28614426

$$$$

 OpenBabel03272503513D

 40 42  0  0  1  0  0  0  0  0999 V2000
   35.6620   28.7170   33.2470 C   0  0  1  0  0  0  0  0  0  0  0  0
   36.5230   28.2240   34.4310 C   0  0  2  0  0  0  0  0  0  0  0  0
   36.8430   29.3750   35.0810 O   0  0  0  0  0  0  0  0  0  0  0  0
   35.6560   30.0800   35.1480 C   0  0  0  0  0  0  0  0  0  0  0  0
   34.8680   29.8040   33.8900 C   0  0  2  0  0  0  0  0  0  0  0  0
   35.0090   27.8970   32.8760 H   0  0  0  0  0  0  0  0  0  0  0  0
   35.8560   27.5250   34.9870 H   0  0  0  0  0  0  0  0  0  0  0  0
   35.1210   29.7830   36.0650 H   0  0  0  0  0  0  0  0  0  0  0  0
   35.9410   31.1540   35.1140 H   0  0  0  0  0  0  0  0  0  0  0  0
   34.8020   30.6700   33.2230 H   0  0  0  0  0  0  0  0  0  0  0  0
   36.4670   29.1150   32.1990 O   0  0  0  0  0  0  0  0  0  0  0  0
   37.2020   29.7130   32.5100 H   0  0  0  0  0  0  0  0  0  0  0  0
   37.5450   27.5330   33.8530 O   0  0  0  0  0  0  0  0  0  0  0  0
   40.0540   27.0090   34.4860 O   0  0  0  0  0  0  0  0  0  0  0  0
   38.6160   26.8470   34.9560 P   0  0  1  0  0  0  0  0  0  0  0  0
   38.5430   27.6740   36.4320 O   0  0  0  0  0  0  0  0  0  0  0  0
   37.6500   27.4640   36.8490 H   0  0  0  0  0  0  0  0  0  0  0  0
   38.1450   25.2180   35.1500 O   0  0  0  0  0  0  0  0  0  0  0  0
   38.6000   24.4420   36.2000 C   0  0  0  0  0  0  0  0  0  0  0  0
   38.0250   24.4350   37.4880 C   0  0  0  0  0  0  0  0  0  0  0  0
   38.5880   23.6020   38.4480 C   0  0  0  0  0  0  0  0  0  0  0  0
   39.6630   22.8360   38.0990 N   0  0  0  0  0  0  0  0  0  0  0  0
   40.1960   22.8630   36.8490 C   0  0  0  0  0  0  0  0  0  0  0  0
   39.6620   23.6710   35.8890 N   0  0  0  0  0  0  0  0  0  0  0  0
   37.1760   25.0820   37.6550 H   0  0  0  0  0  0  0  0  0  0  0  0
   38.1550   23.5890   39.4390 H   0  0  0  0  0  0  0  0  0  0  0  0
   41.0470   22.2290   36.6450 H   0  0  0  0  0  0  0  0  0  0  0  0
   33.5930   29.3700   34.1990 O   0  0  0  0  0  0  0  0  0  0  0  0
   32.1100   30.6090   35.6110 C   0  0  2  0  0  3  0  0  0  0  0  0
   32.6530   30.4000   34.2270 C   0  0  2  0  0  3  0  0  0  0  0  0
   31.6300   30.0690   33.1950 C   0  0  0  0  0  3  0  0  0  0  0  0
   31.9620   30.4580   32.2050 H   0  0  0  0  0  0  0  0  0  0  0  0
   30.3780   30.6140   33.4170 O   0  0  0  0  0  0  0  0  0  0  0  0
   29.9020   30.1560   34.6390 C   0  0  0  0  0  3  0  0  0  0  0  0
   28.8020   30.3300   34.7480 H   0  0  0  0  0  0  0  0  0  0  0  0
   30.6590   30.9440   35.6870 C   0  0  1  0  0  3  0  0  0  0  0  0
   32.7830   31.6110   36.3160 O   0  0  0  0  0  0  0  0  0  0  0  0
   33.5920   31.1760   36.7250 H   0  0  0  0  0  0  0  0  0  0  0  0
   30.1570   30.5520   36.9310 O   0  0  0  0  0  0  0  0  0  0  0  0
   30.7710   29.8540   37.3010 H   0  0  0  0  0  0  0  0  0  0  0  0
  1  6  1  6  0  0  0
  1  5  1  0  0  0  0
  1  2  1  0  0  0  0
  2  7  1  1  0  0  0
  2  3  1  0  0  0  0
  3  4  1  0  0  0  0
  4  8  1  0  0  0  0
  5 10  1  6  0  0  0
  5 28  1  0  0  0  0
  5  4  1  0  0  0  0
  9  4  1  0  0  0  0
 11 12  1  0  0  0  0
 11  1  1  0  0  0  0
 13  2  1  0  0  0  0
 13 15  1  0  0  0  0
 15 14  2  6  0  0  0
 15 18  1  0  0  0  0
 15 16  1  0  0  0  0
 16 17  1  0  0  0  0
 18 19  1  0  0  0  0
 19 20  1  0  0  0  0
 20 25  1  0  0  0  0
 20 21  2  0  0  0  0
 21 26  1  0  0  0  0
 22 21  1  0  0  0  0
 23 22  2  0  0  0  0
 24 19  2  0  0  0  0
 24 23  1  0  0  0  0
 27 23  1  0  0  0  0
 29 36  1  0  0  0  0
 29 37  1  6  0  0  0
 30 28  1  1  0  0  0
 30 29  1  0  0  0  0
 31 33  1  0  0  0  0
 31 30  1  0  0  0  0
 32 31  1  0  0  0  0
 33 34  1  0  0  0  0
 34 35  1  0  0  0  0
 34 36  1  0  0  0  0
 36 39  1  1  0  0  0
 37 38  1  0  0  0  0
 39 40  1  0  0  0  0
M  END
>  <minimizedAffinity>
-5.2619729

$$$$

 OpenBabel03272503513D

 40 42  0  0  1  0  0  0  0  0999 V2000
   38.2290   25.4380   34.3320 C   0  0  1  0  0  0  0  0  0  0  0  0
   38.7010   26.7260   33.6230 C   0  0  2  0  0  0  0  0  0  0  0  0
   39.6880   27.1840   34.4380 O   0  0  0  0  0  0  0  0  0  0  0  0
   40.4470   26.0660   34.7300 C   0  0  0  0  0  0  0  0  0  0  0  0
   39.5230   24.8740   34.8150 C   0  0  2  0  0  0  0  0  0  0  0  0
   37.7320   24.7570   33.6060 H   0  0  0  0  0  0  0  0  0  0  0  0
   39.0270   26.3850   32.6130 H   0  0  0  0  0  0  0  0  0  0  0  0
   41.2230   25.9550   33.9550 H   0  0  0  0  0  0  0  0  0  0  0  0
   40.8460   26.2310   35.7540 H   0  0  0  0  0  0  0  0  0  0  0  0
   39.4100   24.4870   35.8330 H   0  0  0  0  0  0  0  0  0  0  0  0
   37.3110   25.7390   35.3180 O   0  0  0  0  0  0  0  0  0  0  0  0
   37.6270   26.4880   35.8940 H   0  0  0  0  0  0  0  0  0  0  0  0
   37.5800   27.4940   33.5150 O   0  0  0  0  0  0  0  0  0  0  0  0
   36.7510   29.3840   31.8700 O   0  0  0  0  0  0  0  0  0  0  0  0
   37.2010   27.9320   31.9350 P   0  0  1  0  0  0  0  0  0  0  0  0
   38.5850   27.8600   30.9610 O   0  0  0  0  0  0  0  0  0  0  0  0
   38.8270   26.8880   30.8560 H   0  0  0  0  0  0  0  0  0  0  0  0
   36.0180   26.8300   31.3890 O   0  0  0  0  0  0  0  0  0  0  0  0
   36.2900   25.4850   31.2170 C   0  0  0  0  0  0  0  0  0  0  0  0
   35.3660   24.4490   31.4700 C   0  0  0  0  0  0  0  0  0  0  0  0
   35.7800   23.1400   31.2510 C   0  0  0  0  0  0  0  0  0  0  0  0
   37.0510   22.9220   30.8060 N   0  0  0  0  0  0  0  0  0  0  0  0
   37.9210   23.9400   30.5700 C   0  0  0  0  0  0  0  0  0  0  0  0
   37.5400   25.2330   30.7760 N   0  0  0  0  0  0  0  0  0  0  0  0
   34.3860   24.7360   31.8210 H   0  0  0  0  0  0  0  0  0  0  0  0
   35.0790   22.3390   31.4420 H   0  0  0  0  0  0  0  0  0  0  0  0
   38.9120   23.6920   30.2170 H   0  0  0  0  0  0  0  0  0  0  0  0
   39.9620   23.8580   33.9890 O   0  0  0  0  0  0  0  0  0  0  0  0
   39.5910   22.6080   35.9960 C   0  0  2  0  0  3  0  0  0  0  0  0
   40.3070   22.6970   34.6790 C   0  0  2  0  0  3  0  0  0  0  0  0
   41.7950   22.6840   34.7720 C   0  0  0  0  0  3  0  0  0  0  0  0
   42.2200   22.2140   33.8550 H   0  0  0  0  0  0  0  0  0  0  0  0
   42.3080   21.9700   35.8390 O   0  0  0  0  0  0  0  0  0  0  0  0
   41.8210   22.5180   37.0190 C   0  0  0  0  0  3  0  0  0  0  0  0
   42.4050   22.1740   37.9090 H   0  0  0  0  0  0  0  0  0  0  0  0
   40.3880   22.0410   37.1210 C   0  0  1  0  0  3  0  0  0  0  0  0
   38.4150   21.8570   35.9280 O   0  0  0  0  0  0  0  0  0  0  0  0
   37.6960   22.4830   35.6070 H   0  0  0  0  0  0  0  0  0  0  0  0
   39.8850   22.5240   38.3330 O   0  0  0  0  0  0  0  0  0  0  0  0
   39.3800   23.3650   38.1400 H   0  0  0  0  0  0  0  0  0  0  0  0
  1  6  1  6  0  0  0
  1  5  1  0  0  0  0
  1 11  1  0  0  0  0
  2  7  1  6  0  0  0
  2  1  1  0  0  0  0
  2  3  1  0  0  0  0
  3  4  1  0  0  0  0
  4  5  1  0  0  0  0
  4  9  1  0  0  0  0
  5 10  1  1  0  0  0
  8  4  1  0  0  0  0
 11 12  1  0  0  0  0
 13  2  1  0  0  0  0
 15 14  2  6  0  0  0
 15 13  1  0  0  0  0
 16 15  1  0  0  0  0
 17 16  1  0  0  0  0
 18 15  1  0  0  0  0
 19 18  1  0  0  0  0
 19 20  1  0  0  0  0
 20 25  1  0  0  0  0
 21 26  1  0  0  0  0
 21 20  2  0  0  0  0
 22 21  1  0  0  0  0
 23 24  1  0  0  0  0
 23 22  2  0  0  0  0
 24 19  2  0  0  0  0
 27 23  1  0  0  0  0
 28  5  1  0  0  0  0
 29 37  1  6  0  0  0
 29 36  1  0  0  0  0
 30 28  1  1  0  0  0
 30 31  1  0  0  0  0
 30 29  1  0  0  0  0
 31 33  1  0  0  0  0
 32 31  1  0  0  0  0
 33 34  1  0  0  0  0
 34 36  1  0  0  0  0
 34 35  1  0  0  0  0
 36 39  1  1  0  0  0
 38 37  1  0  0  0  0
 40 39  1  0  0  0  0
M  END
>  <minimizedAffinity>
-5.23530483

$$$$

 OpenBabel03272503513D

 40 42  0  0  1  0  0  0  0  0999 V2000
   38.5500   23.3390   32.6720 C   0  0  1  0  0  0  0  0  0  0  0  0
   37.3650   23.9020   31.8560 C   0  0  2  0  0  0  0  0  0  0  0  0
   36.7520   22.7820   31.3890 O   0  0  0  0  0  0  0  0  0  0  0  0
   36.6870   21.9370   32.4800 C   0  0  0  0  0  0  0  0  0  0  0  0
   37.9260   22.1480   33.3180 C   0  0  2  0  0  0  0  0  0  0  0  0
   38.8890   24.0830   33.4260 H   0  0  0  0  0  0  0  0  0  0  0  0
   36.7810   24.5010   32.5920 H   0  0  0  0  0  0  0  0  0  0  0  0
   35.7540   22.1440   33.0310 H   0  0  0  0  0  0  0  0  0  0  0  0
   36.7550   20.9070   32.0690 H   0  0  0  0  0  0  0  0  0  0  0  0
   38.6150   21.2980   33.2910 H   0  0  0  0  0  0  0  0  0  0  0  0
   39.6200   23.0680   31.8430 O   0  0  0  0  0  0  0  0  0  0  0  0
   39.3360   22.5560   31.0370 H   0  0  0  0  0  0  0  0  0  0  0  0
   37.9390   24.7260   30.9350 O   0  0  0  0  0  0  0  0  0  0  0  0
   39.2190   26.9200   31.6510 O   0  0  0  0  0  0  0  0  0  0  0  0
   37.8430   26.3600   31.3250 P   0  0  1  0  0  0  0  0  0  0  0  0
   37.3150   27.2500   29.9840 O   0  0  0  0  0  0  0  0  0  0  0  0
   36.3480   27.0150   29.8300 H   0  0  0  0  0  0  0  0  0  0  0  0
   36.7330   26.4930   32.6150 O   0  0  0  0  0  0  0  0  0  0  0  0
   36.1850   27.7060   32.9910 C   0  0  0  0  0  0  0  0  0  0  0  0
   36.3800   28.3070   34.2520 C   0  0  0  0  0  0  0  0  0  0  0  0
   35.7670   29.5320   34.4910 C   0  0  0  0  0  0  0  0  0  0  0  0
   35.0110   30.0880   33.5010 N   0  0  0  0  0  0  0  0  0  0  0  0
   34.8400   29.4860   32.2940 C   0  0  0  0  0  0  0  0  0  0  0  0
   35.4320   28.2850   32.0340 N   0  0  0  0  0  0  0  0  0  0  0  0
   36.9980   27.7780   34.9630 H   0  0  0  0  0  0  0  0  0  0  0  0
   35.9100   30.0010   35.4550 H   0  0  0  0  0  0  0  0  0  0  0  0
   34.2280   29.9860   31.5570 H   0  0  0  0  0  0  0  0  0  0  0  0
   37.5860   22.4160   34.6310 O   0  0  0  0  0  0  0  0  0  0  0  0
   39.5770   22.2660   35.9500 C   0  0  2  0  0  3  0  0  0  0  0  0
   38.5530   23.1570   35.3090 C   0  0  2  0  0  3  0  0  0  0  0  0
   37.8200   24.0500   36.2520 C   0  0  0  0  0  3  0  0  0  0  0  0
   37.5320   24.9880   35.7250 H   0  0  0  0  0  0  0  0  0  0  0  0
   38.5410   24.4430   37.3640 O   0  0  0  0  0  0  0  0  0  0  0  0
   38.9220   23.3110   38.0730 C   0  0  0  0  0  3  0  0  0  0  0  0
   39.2590   23.5630   39.1090 H   0  0  0  0  0  0  0  0  0  0  0  0
   40.0680   22.7110   37.2850 C   0  0  1  0  0  3  0  0  0  0  0  0
   40.7110   22.0790   35.1550 O   0  0  0  0  0  0  0  0  0  0  0  0
   40.4920   21.3300   34.5200 H   0  0  0  0  0  0  0  0  0  0  0  0
   40.5180   21.6010   38.0070 O   0  0  0  0  0  0  0  0  0  0  0  0
   40.0880   20.7880   37.6150 H   0  0  0  0  0  0  0  0  0  0  0  0
  1  5  1  0  0  0  0
  1  6  1  1  0  0  0
  2  7  1  1  0  0  0
  2  1  1  0  0  0  0
  3  2  1  0  0  0  0
  3  4  1  0  0  0  0
  4  8  1  0  0  0  0
  4  5  1  0  0  0  0
  5 10  1  6  0  0  0
  5 28  1  0  0  0  0
  9  4  1  0  0  0  0
 11  1  1  0  0  0  0
 12 11  1  0  0  0  0
 13 15  1  0  0  0  0
 13  2  1  0  0  0  0
 15 14  2  1  0  0  0
 15 18  1  0  0  0  0
 16 15  1  0  0  0  0
 17 16  1  0  0  0  0
 18 19  1  0  0  0  0
 19 20  1  0  0  0  0
 20 21  2  0  0  0  0
 20 25  1  0  0  0  0
 21 26  1  0  0  0  0
 22 21  1  0  0  0  0
 23 22  2  0  0  0  0
 24 23  1  0  0  0  0
 24 19  2  0  0  0  0
 27 23  1  0  0  0  0
 29 37  1  6  0  0  0
 29 36  1  0  0  0  0
 30 28  1  1  0  0  0
 30 29  1  0  0  0  0
 30 31  1  0  0  0  0
 31 33  1  0  0  0  0
 32 31  1  0  0  0  0
 33 34  1  0  0  0  0
 34 35  1  0  0  0  0
 36 39  1  1  0  0  0
 36 34  1  0  0  0  0
 38 37  1  0  0  0  0
 40 39  1  0  0  0  0
M  END
>  <minimizedAffinity>
-5.22092676

$$$$

 OpenBabel03272503513D

 40 42  0  0  1  0  0  0  0  0999 V2000
   36.0310   25.8750   31.4790 C   0  0  1  0  0  0  0  0  0  0  0  0
   37.1070   25.6190   32.5570 C   0  0  2  0  0  0  0  0  0  0  0  0
   38.2140   26.2120   32.0360 O   0  0  0  0  0  0  0  0  0  0  0  0
   37.7710   27.4370   31.5740 C   0  0  0  0  0  0  0  0  0  0  0  0
   36.3640   27.2660   31.0530 C   0  0  2  0  0  0  0  0  0  0  0  0
   35.0150   25.8160   31.9260 H   0  0  0  0  0  0  0  0  0  0  0  0
   36.6950   26.0910   33.4790 H   0  0  0  0  0  0  0  0  0  0  0  0
   37.8410   28.1690   32.3950 H   0  0  0  0  0  0  0  0  0  0  0  0
   38.4070   27.6760   30.6950 H   0  0  0  0  0  0  0  0  0  0  0  0
   36.2930   27.3560   29.9640 H   0  0  0  0  0  0  0  0  0  0  0  0
   36.1070   24.9200   30.4860 O   0  0  0  0  0  0  0  0  0  0  0  0
   37.0450   24.7910   30.1740 H   0  0  0  0  0  0  0  0  0  0  0  0
   37.1380   24.2650   32.7020 O   0  0  0  0  0  0  0  0  0  0  0  0
   39.4430   22.9820   32.5900 O   0  0  0  0  0  0  0  0  0  0  0  0
   38.4870   23.6960   33.5330 P   0  0  1  0  0  0  0  0  0  0  0  0
   39.3770   24.9950   34.1570 O   0  0  0  0  0  0  0  0  0  0  0  0
   38.8320   25.4040   34.8980 H   0  0  0  0  0  0  0  0  0  0  0  0
   37.9040   22.7010   34.7910 O   0  0  0  0  0  0  0  0  0  0  0  0
   38.2810   22.8860   36.1090 C   0  0  0  0  0  0  0  0  0  0  0  0
   37.4120   23.3310   37.1270 C   0  0  0  0  0  0  0  0  0  0  0  0
   37.9300   23.4710   38.4100 C   0  0  0  0  0  0  0  0  0  0  0  0
   39.2450   23.1750   38.6190 N   0  0  0  0  0  0  0  0  0  0  0  0
   40.0600   22.7480   37.6190 C   0  0  0  0  0  0  0  0  0  0  0  0
   39.5770   22.6010   36.3520 N   0  0  0  0  0  0  0  0  0  0  0  0
   36.3890   23.5370   36.8500 H   0  0  0  0  0  0  0  0  0  0  0  0
   37.2720   23.8120   39.1980 H   0  0  0  0  0  0  0  0  0  0  0  0
   41.0910   22.5310   37.8590 H   0  0  0  0  0  0  0  0  0  0  0  0
   35.5120   28.1820   31.6400 O   0  0  0  0  0  0  0  0  0  0  0  0
   35.6580   29.2540   33.7750 C   0  0  2  0  0  3  0  0  0  0  0  0
   36.1800   29.1650   32.3710 C   0  0  2  0  0  3  0  0  0  0  0  0
   36.0770   30.4250   31.5810 C   0  0  0  0  0  3  0  0  0  0  0  0
   36.9090   30.4690   30.8420 H   0  0  0  0  0  0  0  0  0  0  0  0
   36.1650   31.5890   32.3230 O   0  0  0  0  0  0  0  0  0  0  0  0
   35.1400   31.5980   33.2610 C   0  0  0  0  0  3  0  0  0  0  0  0
   34.9860   32.6160   33.6980 H   0  0  0  0  0  0  0  0  0  0  0  0
   35.5750   30.6310   34.3420 C   0  0  1  0  0  3  0  0  0  0  0  0
   36.4030   28.4980   34.6840 O   0  0  0  0  0  0  0  0  0  0  0  0
   36.0430   27.5600   34.6350 H   0  0  0  0  0  0  0  0  0  0  0  0
   34.5930   30.6640   35.3360 O   0  0  0  0  0  0  0  0  0  0  0  0
   33.9730   29.8950   35.1780 H   0  0  0  0  0  0  0  0  0  0  0  0
  1  6  1  1  0  0  0
  1  2  1  0  0  0  0
  2 13  1  0  0  0  0
  2  7  1  1  0  0  0
  3  2  1  0  0  0  0
  4  3  1  0  0  0  0
  4  8  1  0  0  0  0
  5 10  1  6  0  0  0
  5  1  1  0  0  0  0
  5  4  1  0  0  0  0
  5 28  1  0  0  0  0
  9  4  1  0  0  0  0
 11  1  1  0  0  0  0
 12 11  1  0  0  0  0
 13 15  1  0  0  0  0
 15 14  2  6  0  0  0
 15 16  1  0  0  0  0
 15 18  1  0  0  0  0
 16 17  1  0  0  0  0
 18 19  1  0  0  0  0
 19 24  2  0  0  0  0
 19 20  1  0  0  0  0
 20 21  2  0  0  0  0
 21 22  1  0  0  0  0
 21 26  1  0  0  0  0
 23 27  1  0  0  0  0
 23 22  2  0  0  0  0
 24 23  1  0  0  0  0
 25 20  1  0  0  0  0
 29 36  1  0  0  0  0
 29 37  1  1  0  0  0
 30 28  1  6  0  0  0
 30 29  1  0  0  0  0
 31 33  1  0  0  0  0
 31 30  1  0  0  0  0
 32 31  1  0  0  0  0
 33 34  1  0  0  0  0
 34 35  1  0  0  0  0
 34 36  1  0  0  0  0
 36 39  1  1  0  0  0
 38 37  1  0  0  0  0
 40 39  1  0  0  0  0
M  END
>  <minimizedAffinity>
-5.1815877

$$$$
