
 OpenBabel03262522273D

 49 52  0  0  1  0  0  0  0  0999 V2000
   34.7820   30.4500   49.8370 C   0  0  0  0  0  0  0  0  0  0  0  0
   34.1130   30.1440   50.6540 H   0  0  0  0  0  0  0  0  0  0  0  0
   34.7020   31.5470   49.6080 H   0  0  0  0  0  0  0  0  0  0  0  0
   34.5960   27.7060   49.8430 F   0  0  0  0  0  0  0  0  0  0  0  0
   34.4010   28.3750   48.6590 C   0  0  0  0  0  0  0  0  0  0  0  0
   34.4750   29.7590   48.5540 C   0  0  0  0  0  0  0  0  0  0  0  0
   34.2710   30.3870   47.3530 C   0  0  0  0  0  0  0  0  0  0  0  0
   33.9820   29.6210   46.2030 C   0  0  0  0  0  0  0  0  0  0  0  0
   33.9110   28.2510   46.3130 C   0  0  0  0  0  0  0  0  0  0  0  0
   34.1170   27.6350   47.5220 C   0  0  0  0  0  0  0  0  0  0  0  0
   34.3620   31.4610   47.4370 H   0  0  0  0  0  0  0  0  0  0  0  0
   33.8490   30.2410   45.3440 H   0  0  0  0  0  0  0  0  0  0  0  0
   33.6860   27.8630   45.3410 H   0  0  0  0  0  0  0  0  0  0  0  0
   34.0260   26.2680   47.5660 O   0  0  0  0  0  0  0  0  0  0  0  0
   32.5140   24.4640   47.0390 C   0  0  1  0  0  0  0  0  0  0  0  0
   33.5720   25.4700   46.5280 C   0  0  2  0  0  0  0  0  0  0  0  0
   34.7100   24.6860   45.8690 C   0  0  0  0  0  0  0  0  0  0  0  0
   35.6570   24.8650   46.4170 H   0  0  0  0  0  0  0  0  0  0  0  0
   34.3840   23.3330   45.8530 O   0  0  0  0  0  0  0  0  0  0  0  0
   34.4010   22.8770   47.1640 C   0  0  0  0  0  0  0  0  0  0  0  0
   35.3040   23.3080   47.6560 H   0  0  0  0  0  0  0  0  0  0  0  0
   33.1840   23.3910   47.8700 C   0  0  2  0  0  0  0  0  0  0  0  0
   31.5920   25.2150   47.7560 O   0  0  0  0  0  0  0  0  0  0  0  0
   32.0660   25.9540   48.2370 H   0  0  0  0  0  0  0  0  0  0  0  0
   32.2730   22.3530   48.0330 O   0  0  0  0  0  0  0  0  0  0  0  0
   31.3600   22.6700   47.8550 H   0  0  0  0  0  0  0  0  0  0  0  0
   36.4910   30.0230   50.2640 S   0  0  0  0  0  0  0  0  0  0  0  0
   38.6840   32.8340   48.3730 C   0  0  0  0  0  0  0  0  0  0  0  0
   38.9950   32.1820   47.1740 C   0  0  0  0  0  0  0  0  0  0  0  0
   38.5100   30.9110   47.0160 C   0  0  0  0  0  0  0  0  0  0  0  0
   37.7670   30.3660   48.0170 N   0  0  0  0  0  0  0  0  0  0  0  0
   37.4970   31.0010   49.1220 C   0  0  0  0  0  0  0  0  0  0  0  0
   37.9490   32.2830   49.3540 N   0  0  0  0  0  0  0  0  0  0  0  0
   39.0130   33.8370   48.6080 H   0  0  0  0  0  0  0  0  0  0  0  0
   38.7380   30.3880   46.0950 H   0  0  0  0  0  0  0  0  0  0  0  0
   39.7460   32.8430   46.2600 O   0  0  0  0  0  0  0  0  0  0  0  0
   39.9170   32.3030   44.9980 C   0  0  0  0  0  0  0  0  0  0  0  0
   40.6300   31.1820   44.6560 C   0  0  0  0  0  0  0  0  0  0  0  0
   40.6910   30.7930   43.3560 C   0  0  0  0  0  0  0  0  0  0  0  0
   40.0330   31.5420   42.4170 C   0  0  0  0  0  0  0  0  0  0  0  0
   39.3120   32.6800   42.7760 C   0  0  0  0  0  0  0  0  0  0  0  0
   39.2700   33.0420   44.0880 N   0  0  0  0  0  0  0  0  0  0  0  0
   41.0890   30.7100   45.5310 H   0  0  0  0  0  0  0  0  0  0  0  0
   41.2680   29.9020   43.1500 H   0  0  0  0  0  0  0  0  0  0  0  0
   40.0820   31.2330   41.3810 H   0  0  0  0  0  0  0  0  0  0  0  0
   38.5940   33.4900   41.7250 C   0  0  0  0  0  0  0  0  0  0  0  0
   38.5330   34.5480   42.0170 H   0  0  0  0  0  0  0  0  0  0  0  0
   39.0960   33.3090   40.7710 H   0  0  0  0  0  0  0  0  0  0  0  0
   37.5870   32.9980   41.6550 H   0  0  0  0  0  0  0  0  0  0  0  0
  1 27  1  0  0  0  0
  1  2  1  0  0  0  0
  3  1  1  0  0  0  0
  5  4  1  0  0  0  0
  6  5  1  0  0  0  0
  6  1  1  0  0  0  0
  7 11  1  0  0  0  0
  7  6  2  0  0  0  0
  8  9  2  0  0  0  0
  8  7  1  0  0  0  0
  9 10  1  0  0  0  0
 10 14  1  0  0  0  0
 10  5  2  0  0  0  0
 12  8  1  0  0  0  0
 13  9  1  0  0  0  0
 15 23  1  1  0  0  0
 15 22  1  0  0  0  0
 16 15  1  0  0  0  0
 16 14  1  1  0  0  0
 17 18  1  0  0  0  0
 17 16  1  0  0  0  0
 19 17  1  0  0  0  0
 19 20  1  0  0  0  0
 20 21  1  0  0  0  0
 20 22  1  0  0  0  0
 22 25  1  6  0  0  0
 23 24  1  0  0  0  0
 26 25  1  0  0  0  0
 28 34  1  0  0  0  0
 28 33  1  0  0  0  0
 29 28  2  0  0  0  0
 30 29  1  0  0  0  0
 30 31  2  0  0  0  0
 31 32  1  0  0  0  0
 32 33  2  0  0  0  0
 32 27  1  0  0  0  0
 35 30  1  0  0  0  0
 36 29  1  0  0  0  0
 37 36  1  0  0  0  0
 38 37  1  0  0  0  0
 38 43  1  0  0  0  0
 39 38  2  0  0  0  0
 40 41  2  0  0  0  0
 40 39  1  0  0  0  0
 41 42  1  0  0  0  0
 42 37  2  0  0  0  0
 44 39  1  0  0  0  0
 45 40  1  0  0  0  0
 46 47  1  0  0  0  0
 46 41  1  0  0  0  0
 48 46  1  0  0  0  0
 49 46  1  0  0  0  0
M  END
>  <minimizedAffinity>
-6.22858381

>  <minimizedRMSD>
0.477957368

$$$$
