
 OpenBabel03272508263D

 41 44  0  0  1  0  0  0  0  0999 V2000
   33.8380   28.8930   47.3200 C   0  0  2  0  0  0  0  0  0  0  0  0
   34.5890   28.1300   48.4020 C   0  0  2  0  0  0  0  0  0  0  0  0
   33.7240   28.0090   49.4440 O   0  0  0  0  0  0  0  0  0  0  0  0
   32.4360   28.0960   49.0090 C   0  0  0  0  0  0  0  0  0  0  0  0
   32.4540   28.2550   47.5000 C   0  0  1  0  0  0  0  0  0  0  0  0
   33.7260   29.9550   47.5930 H   0  0  0  0  0  0  0  0  0  0  0  0
   34.8330   27.1240   48.0190 H   0  0  0  0  0  0  0  0  0  0  0  0
   31.8550   27.1690   49.2380 H   0  0  0  0  0  0  0  0  0  0  0  0
   31.8720   28.9460   49.4680 H   0  0  0  0  0  0  0  0  0  0  0  0
   32.5490   27.2550   47.0530 H   0  0  0  0  0  0  0  0  0  0  0  0
   35.7280   30.3310   49.1460 C   0  0  1  0  0  0  0  0  0  0  0  0
   35.7930   28.9420   48.7600 C   0  0  1  0  0  0  0  0  0  0  0  0
   36.1230   29.2680   50.1790 C   0  0  0  0  0  0  0  0  0  0  0  0
   34.8540   30.8970   49.5120 H   0  0  0  0  0  0  0  0  0  0  0  0
   36.6900   28.6510   48.1430 H   0  0  0  0  0  0  0  0  0  0  0  0
   37.1870   29.2350   50.5220 H   0  0  0  0  0  0  0  0  0  0  0  0
   35.4330   29.0250   50.9950 H   0  0  0  0  0  0  0  0  0  0  0  0
   36.8750   31.2840   48.8460 C   0  0  0  0  0  0  0  0  0  0  0  0
   37.0810   32.3320   49.7430 C   0  0  0  0  0  0  0  0  0  0  0  0
   38.1240   33.1900   49.4010 C   0  0  0  0  0  0  0  0  0  0  0  0
   38.8610   32.9940   48.2720 N   0  0  0  0  0  0  0  0  0  0  0  0
   38.6220   31.9590   47.4330 C   0  0  0  0  0  0  0  0  0  0  0  0
   37.6170   31.0960   47.7240 N   0  0  0  0  0  0  0  0  0  0  0  0
   36.4680   32.4400   50.6200 H   0  0  0  0  0  0  0  0  0  0  0  0
   38.3430   34.0230   50.0450 H   0  0  0  0  0  0  0  0  0  0  0  0
   39.1880   31.7750   46.5300 H   0  0  0  0  0  0  0  0  0  0  0  0
   34.3220   28.6720   46.0450 O   0  0  0  0  0  0  0  0  0  0  0  0
   34.1280   29.4920   45.5270 H   0  0  0  0  0  0  0  0  0  0  0  0
   31.4610   29.0490   47.0140 O   0  0  0  0  0  0  0  0  0  0  0  0
   30.1310   27.0360   46.8920 C   0  0  2  0  0  3  0  0  0  0  0  0
   30.4270   28.4270   46.3800 C   0  0  1  0  0  3  0  0  0  0  0  0
   29.1270   29.1790   46.3990 C   0  0  0  0  0  3  0  0  0  0  0  0
   28.7600   29.3900   47.4200 H   0  0  0  0  0  0  0  0  0  0  0  0
   28.1580   28.4320   45.7690 O   0  0  0  0  0  0  0  0  0  0  0  0
   28.6390   27.3940   45.0040 C   0  0  0  0  0  3  0  0  0  0  0  0
   29.2100   27.7100   44.1020 H   0  0  0  0  0  0  0  0  0  0  0  0
   29.3660   26.3250   45.7930 C   0  0  2  0  0  3  0  0  0  0  0  0
   29.2230   27.1700   47.9600 O   0  0  0  0  0  0  0  0  0  0  0  0
   28.2840   27.0440   47.6720 H   0  0  0  0  0  0  0  0  0  0  0  0
   28.4820   25.3850   46.3230 O   0  0  0  0  0  0  0  0  0  0  0  0
   28.9330   24.8960   47.0570 H   0  0  0  0  0  0  0  0  0  0  0  0
  1  5  1  0  0  0  0
  1  6  1  1  0  0  0
  1  2  1  0  0  0  0
  2  7  1  6  0  0  0
  2 12  1  0  0  0  0
  2  3  1  0  0  0  0
  4  8  1  0  0  0  0
  4  3  1  0  0  0  0
  4  9  1  0  0  0  0
  5 10  1  6  0  0  0
  5  4  1  0  0  0  0
 11 14  1  1  0  0  0
 11 13  1  0  0  0  0
 12 15  1  6  0  0  0
 12 11  1  0  0  0  0
 12 13  1  0  0  0  0
 13 16  1  0  0  0  0
 13 17  1  0  0  0  0
 18 11  1  0  0  0  0
 18 19  1  0  0  0  0
 19 24  1  0  0  0  0
 20 19  2  0  0  0  0
 20 25  1  0  0  0  0
 21 20  1  0  0  0  0
 22 23  1  0  0  0  0
 22 21  2  0  0  0  0
 23 18  2  0  0  0  0
 26 22  1  0  0  0  0
 27  1  1  0  0  0  0
 28 27  1  0  0  0  0
 29  5  1  0  0  0  0
 30 38  1  1  0  0  0
 31 32  1  0  0  0  0
 31 30  1  0  0  0  0
 31 29  1  1  0  0  0
 32 33  1  0  0  0  0
 34 32  1  0  0  0  0
 35 34  1  0  0  0  0
 35 37  1  0  0  0  0
 36 35  1  0  0  0  0
 37 40  1  1  0  0  0
 37 30  1  0  0  0  0
 39 38  1  0  0  0  0
 40 41  1  0  0  0  0
M  END
>  <minimizedAffinity>
-5.30915117

>  <minimizedRMSD>
1.4610765

$$$$
