
 OpenBabel03272508273D

 41 44  0  0  1  0  0  0  0  0999 V2000
   33.8370   28.8930   47.3200 C   0  0  2  0  0  0  0  0  0  0  0  0
   34.5890   28.1300   48.4020 C   0  0  2  0  0  0  0  0  0  0  0  0
   33.7230   28.0090   49.4450 O   0  0  0  0  0  0  0  0  0  0  0  0
   32.4350   28.0970   49.0100 C   0  0  0  0  0  0  0  0  0  0  0  0
   32.4540   28.2550   47.5000 C   0  0  1  0  0  0  0  0  0  0  0  0
   33.7260   29.9550   47.5930 H   0  0  0  0  0  0  0  0  0  0  0  0
   34.8330   27.1240   48.0200 H   0  0  0  0  0  0  0  0  0  0  0  0
   31.8550   27.1700   49.2390 H   0  0  0  0  0  0  0  0  0  0  0  0
   31.8720   28.9460   49.4680 H   0  0  0  0  0  0  0  0  0  0  0  0
   32.5480   27.2550   47.0530 H   0  0  0  0  0  0  0  0  0  0  0  0
   35.7280   30.3310   49.1470 C   0  0  1  0  0  0  0  0  0  0  0  0
   35.7920   28.9420   48.7600 C   0  0  1  0  0  0  0  0  0  0  0  0
   36.1240   29.2680   50.1790 C   0  0  0  0  0  0  0  0  0  0  0  0
   34.8540   30.8970   49.5130 H   0  0  0  0  0  0  0  0  0  0  0  0
   36.6900   28.6510   48.1420 H   0  0  0  0  0  0  0  0  0  0  0  0
   37.1870   29.2340   50.5210 H   0  0  0  0  0  0  0  0  0  0  0  0
   35.4330   29.0240   50.9950 H   0  0  0  0  0  0  0  0  0  0  0  0
   36.8750   31.2830   48.8460 C   0  0  0  0  0  0  0  0  0  0  0  0
   37.0810   32.3320   49.7430 C   0  0  0  0  0  0  0  0  0  0  0  0
   38.1230   33.1910   49.4000 C   0  0  0  0  0  0  0  0  0  0  0  0
   38.8610   32.9940   48.2720 N   0  0  0  0  0  0  0  0  0  0  0  0
   38.6220   31.9580   47.4330 C   0  0  0  0  0  0  0  0  0  0  0  0
   37.6170   31.0960   47.7250 N   0  0  0  0  0  0  0  0  0  0  0  0
   36.4680   32.4410   50.6200 H   0  0  0  0  0  0  0  0  0  0  0  0
   38.3420   34.0230   50.0440 H   0  0  0  0  0  0  0  0  0  0  0  0
   39.1880   31.7740   46.5300 H   0  0  0  0  0  0  0  0  0  0  0  0
   34.3210   28.6710   46.0450 O   0  0  0  0  0  0  0  0  0  0  0  0
   34.1280   29.4920   45.5270 H   0  0  0  0  0  0  0  0  0  0  0  0
   31.4600   29.0500   47.0150 O   0  0  0  0  0  0  0  0  0  0  0  0
   30.1310   27.0360   46.8920 C   0  0  2  0  0  3  0  0  0  0  0  0
   30.4270   28.4280   46.3800 C   0  0  1  0  0  3  0  0  0  0  0  0
   29.1260   29.1800   46.4010 C   0  0  0  0  0  3  0  0  0  0  0  0
   28.7590   29.3900   47.4210 H   0  0  0  0  0  0  0  0  0  0  0  0
   28.1580   28.4320   45.7700 O   0  0  0  0  0  0  0  0  0  0  0  0
   28.6390   27.3940   45.0040 C   0  0  0  0  0  3  0  0  0  0  0  0
   29.2090   27.7100   44.1030 H   0  0  0  0  0  0  0  0  0  0  0  0
   29.3660   26.3250   45.7930 C   0  0  2  0  0  3  0  0  0  0  0  0
   29.2230   27.1700   47.9600 O   0  0  0  0  0  0  0  0  0  0  0  0
   28.2840   27.0440   47.6730 H   0  0  0  0  0  0  0  0  0  0  0  0
   28.4830   25.3860   46.3230 O   0  0  0  0  0  0  0  0  0  0  0  0
   28.9330   24.8960   47.0570 H   0  0  0  0  0  0  0  0  0  0  0  0
  1  5  1  0  0  0  0
  1  6  1  1  0  0  0
  1  2  1  0  0  0  0
  2  7  1  6  0  0  0
  2 12  1  0  0  0  0
  2  3  1  0  0  0  0
  4  8  1  0  0  0  0
  4  3  1  0  0  0  0
  4  9  1  0  0  0  0
  5 10  1  6  0  0  0
  5  4  1  0  0  0  0
 11 14  1  1  0  0  0
 11 13  1  0  0  0  0
 12 15  1  6  0  0  0
 12 11  1  0  0  0  0
 12 13  1  0  0  0  0
 13 16  1  0  0  0  0
 13 17  1  0  0  0  0
 18 11  1  0  0  0  0
 18 19  1  0  0  0  0
 19 24  1  0  0  0  0
 20 19  2  0  0  0  0
 20 25  1  0  0  0  0
 21 20  1  0  0  0  0
 22 23  1  0  0  0  0
 22 21  2  0  0  0  0
 23 18  2  0  0  0  0
 26 22  1  0  0  0  0
 27  1  1  0  0  0  0
 28 27  1  0  0  0  0
 29  5  1  0  0  0  0
 30 38  1  1  0  0  0
 31 32  1  0  0  0  0
 31 30  1  0  0  0  0
 31 29  1  1  0  0  0
 32 33  1  0  0  0  0
 34 32  1  0  0  0  0
 35 34  1  0  0  0  0
 35 37  1  0  0  0  0
 36 35  1  0  0  0  0
 37 40  1  1  0  0  0
 37 30  1  0  0  0  0
 39 38  1  0  0  0  0
 40 41  1  0  0  0  0
M  END
>  <minimizedAffinity>
-5.30880737

>  <minimizedRMSD>
1.11568618

$$$$
