
 OpenBabel03272508263D

 41 44  0  0  1  0  0  0  0  0999 V2000
   33.7450   28.8710   47.2120 C   0  0  2  0  0  0  0  0  0  0  0  0
   34.4590   28.0910   48.3070 C   0  0  2  0  0  0  0  0  0  0  0  0
   33.5370   27.8920   49.2880 O   0  0  0  0  0  0  0  0  0  0  0  0
   32.2760   27.9500   48.7770 C   0  0  0  0  0  0  0  0  0  0  0  0
   32.3790   28.1740   47.2800 C   0  0  1  0  0  0  0  0  0  0  0  0
   33.5740   29.9150   47.5210 H   0  0  0  0  0  0  0  0  0  0  0  0
   34.7660   27.1120   47.9000 H   0  0  0  0  0  0  0  0  0  0  0  0
   31.7200   26.9940   48.9320 H   0  0  0  0  0  0  0  0  0  0  0  0
   31.6520   28.7580   49.2340 H   0  0  0  0  0  0  0  0  0  0  0  0
   32.5410   27.1990   46.7990 H   0  0  0  0  0  0  0  0  0  0  0  0
   35.5250   30.3620   48.9400 C   0  0  1  0  0  0  0  0  0  0  0  0
   35.6050   28.9310   48.7720 C   0  0  1  0  0  0  0  0  0  0  0  0
   35.6760   29.4560   50.1680 C   0  0  0  0  0  0  0  0  0  0  0  0
   34.6210   30.9860   49.0470 H   0  0  0  0  0  0  0  0  0  0  0  0
   36.5910   28.5420   48.3860 H   0  0  0  0  0  0  0  0  0  0  0  0
   36.6530   29.4600   50.7100 H   0  0  0  0  0  0  0  0  0  0  0  0
   34.8350   29.3420   50.8620 H   0  0  0  0  0  0  0  0  0  0  0  0
   36.7450   31.2470   48.7340 C   0  0  0  0  0  0  0  0  0  0  0  0
   36.9980   32.2160   49.7050 C   0  0  0  0  0  0  0  0  0  0  0  0
   38.1080   33.0170   49.4490 C   0  0  0  0  0  0  0  0  0  0  0  0
   38.8640   32.8420   48.3290 N   0  0  0  0  0  0  0  0  0  0  0  0
   38.5780   31.8840   47.4150 C   0  0  0  0  0  0  0  0  0  0  0  0
   37.5060   31.0800   47.6220 N   0  0  0  0  0  0  0  0  0  0  0  0
   36.3670   32.3110   50.5710 H   0  0  0  0  0  0  0  0  0  0  0  0
   38.3660   33.7870   50.1540 H   0  0  0  0  0  0  0  0  0  0  0  0
   39.1570   31.7190   46.5180 H   0  0  0  0  0  0  0  0  0  0  0  0
   34.3140   28.7230   45.9620 O   0  0  0  0  0  0  0  0  0  0  0  0
   34.1190   29.5570   45.4660 H   0  0  0  0  0  0  0  0  0  0  0  0
   31.3860   28.9510   46.7660 O   0  0  0  0  0  0  0  0  0  0  0  0
   29.0180   29.2480   47.1460 C   0  0  2  0  0  3  0  0  0  0  0  0
   30.1540   28.3820   46.6520 C   0  0  1  0  0  3  0  0  0  0  0  0
   29.7860   27.9420   45.2630 C   0  0  0  0  0  3  0  0  0  0  0  0
   29.7970   28.7650   44.5260 H   0  0  0  0  0  0  0  0  0  0  0  0
   28.5110   27.4240   45.2700 O   0  0  0  0  0  0  0  0  0  0  0  0
   28.0210   27.1190   46.5200 C   0  0  0  0  0  3  0  0  0  0  0  0
   28.5390   26.2750   47.0260 H   0  0  0  0  0  0  0  0  0  0  0  0
   27.8560   28.3180   47.4320 C   0  0  2  0  0  3  0  0  0  0  0  0
   28.6030   30.0490   46.0630 O   0  0  0  0  0  0  0  0  0  0  0  0
   27.8300   29.6610   45.5850 H   0  0  0  0  0  0  0  0  0  0  0  0
   26.6370   28.9590   47.2250 O   0  0  0  0  0  0  0  0  0  0  0  0
   26.6850   29.8760   47.5990 H   0  0  0  0  0  0  0  0  0  0  0  0
  1  5  1  0  0  0  0
  1  6  1  1  0  0  0
  1  2  1  0  0  0  0
  2  7  1  6  0  0  0
  2 12  1  0  0  0  0
  2  3  1  0  0  0  0
  4  8  1  0  0  0  0
  4  9  1  0  0  0  0
  4  3  1  0  0  0  0
  5 10  1  6  0  0  0
  5  4  1  0  0  0  0
 11 14  1  6  0  0  0
 11 13  1  0  0  0  0
 12 15  1  6  0  0  0
 12 11  1  0  0  0  0
 12 13  1  0  0  0  0
 13 16  1  0  0  0  0
 13 17  1  0  0  0  0
 18 11  1  0  0  0  0
 18 19  1  0  0  0  0
 19 24  1  0  0  0  0
 20 19  2  0  0  0  0
 20 25  1  0  0  0  0
 21 20  1  0  0  0  0
 22 23  1  0  0  0  0
 22 21  2  0  0  0  0
 23 18  2  0  0  0  0
 26 22  1  0  0  0  0
 27  1  1  0  0  0  0
 28 27  1  0  0  0  0
 29  5  1  0  0  0  0
 30 38  1  6  0  0  0
 30 37  1  0  0  0  0
 31 29  1  6  0  0  0
 31 30  1  0  0  0  0
 32 34  1  0  0  0  0
 32 31  1  0  0  0  0
 33 32  1  0  0  0  0
 34 35  1  0  0  0  0
 35 36  1  0  0  0  0
 35 37  1  0  0  0  0
 37 40  1  6  0  0  0
 39 38  1  0  0  0  0
 40 41  1  0  0  0  0
M  END
>  <minimizedAffinity>
-5.63202381

>  <minimizedRMSD>
1.23273253

$$$$
