
     RDKit          3D

 46 49  0  0  0  0  0  0  0  0999 V2000
   35.8188   30.5422   49.0771 C   0  0  1  0  0  0  0  0  0  0  0  0
   35.9027   29.1213   48.8391 C   0  0  1  0  0  0  0  0  0  0  0  0
   36.0655   29.5838   50.2490 C   0  0  0  0  0  0  0  0  0  0  0  0
   37.0118   31.4523   48.8280 C   0  0  0  0  0  0  0  0  0  0  0  0
   37.1822   32.5291   49.6978 C   0  0  0  0  0  0  0  0  0  0  0  0
   38.2707   33.3458   49.4025 C   0  0  0  0  0  0  0  0  0  0  0  0
   39.0845   33.0855   48.3412 N   0  0  0  0  0  0  0  0  0  0  0  0
   38.8772   32.0254   47.5246 C   0  0  0  0  0  0  0  0  0  0  0  0
   37.8290   31.2014   47.7732 N   0  0  0  0  0  0  0  0  0  0  0  0
   33.9632   29.0866   47.3779 C   0  0  2  0  0  0  0  0  0  0  0  0
   34.7364   28.2874   48.4169 C   0  0  2  0  0  0  0  0  0  0  0  0
   33.8684   28.0636   49.4396 O   0  0  0  0  0  0  0  0  0  0  0  0
   32.5811   28.1280   48.9977 C   0  0  0  0  0  0  0  0  0  0  0  0
   32.6048   28.3841   47.5024 C   0  0  1  0  0  0  0  0  0  0  0  0
   34.4660   28.9680   46.0973 O   0  0  0  0  0  0  0  0  0  0  0  0
   31.5836   29.1684   47.0579 O   0  0  0  0  0  0  0  0  0  0  0  0
   34.9183   31.1485   49.2761 H   0  0  0  0  0  0  0  0  0  0  0  0
   36.8630   28.7642   48.3667 H   0  0  0  0  0  0  0  0  0  0  0  0
   37.0787   29.5772   50.7215 H   0  0  0  0  0  0  0  0  0  0  0  0
   35.2767   29.4272   50.9943 H   0  0  0  0  0  0  0  0  0  0  0  0
   36.5089   32.6880   50.5215 H   0  0  0  0  0  0  0  0  0  0  0  0
   38.4656   34.1969   50.0301 H   0  0  0  0  0  0  0  0  0  0  0  0
   39.5031   31.7913   46.6755 H   0  0  0  0  0  0  0  0  0  0  0  0
   33.8058   30.1236   47.7174 H   0  0  0  0  0  0  0  0  0  0  0  0
   35.0238   27.3183   47.9728 H   0  0  0  0  0  0  0  0  0  0  0  0
   32.0373   27.1655   49.1609 H   0  0  0  0  0  0  0  0  0  0  0  0
   31.9800   28.9233   49.5043 H   0  0  0  0  0  0  0  0  0  0  0  0
   32.7436   27.4198   46.9928 H   0  0  0  0  0  0  0  0  0  0  0  0
   34.2432   29.8122   45.6296 H   0  0  0  0  0  0  0  0  0  0  0  0
   31.8982   26.7704   45.1642 O   0  0  0  0  0  0  0  0  0  0  0  0
   31.6472   28.1266   44.8790 C   0  0  2  0  0  0  0  0  0  0  0  0
   30.8360   28.6819   46.0276 C   0  0  1  0  0  0  0  0  0  0  0  0
   29.8466   27.6185   46.4112 C   0  0  1  0  0  0  0  0  0  0  0  0
   30.3152   26.7323   46.8760 H   0  0  0  0  0  0  0  0  0  0  0  0
   29.1886   27.1806   45.2839 O   0  0  0  0  0  0  0  0  0  0  0  0
   29.3176   28.0015   44.1866 C   0  0  2  0  0  0  0  0  0  0  0  0
   28.8201   28.9914   44.2884 H   0  0  0  0  0  0  0  0  0  0  0  0
   30.7355   28.1260   43.6673 C   0  0  2  0  0  0  0  0  0  0  0  0
   31.0579   27.0863   42.7967 O   0  0  0  0  0  0  0  0  0  0  0  0
   31.2449   26.1683   44.7287 H   0  0  0  0  0  0  0  0  0  0  0  0
   32.5877   28.6817   44.7054 H   0  0  0  0  0  0  0  0  0  0  0  0
   30.2560   29.5421   45.6290 H   0  0  0  0  0  0  0  0  0  0  0  0
   29.1117   28.0163   47.1412 H   0  0  0  0  0  0  0  0  0  0  0  0
   28.7475   27.4905   43.3601 H   0  0  0  0  0  0  0  0  0  0  0  0
   30.8520   29.1159   43.1450 H   0  0  0  0  0  0  0  0  0  0  0  0
   32.0438   27.0243   42.7179 H   0  0  0  0  0  0  0  0  0  0  0  0
  1  3  1  0
  2  1  1  0
  2  3  1  0
  4  1  1  0
  4  5  2  0
  6  5  1  0
  7  6  2  0
  8  9  2  0
  8  7  1  0
  9  4  1  0
 10 15  1  0
 10 14  1  0
 10 11  1  0
 11  2  1  0
 11 12  1  0
 13 12  1  0
 14 16  1  0
 14 13  1  0
  1 17  1  1
  2 18  1  6
  3 19  1  0
  3 20  1  0
  5 21  1  0
  6 22  1  0
  8 23  1  0
 10 24  1  1
 11 25  1  6
 13 26  1  0
 13 27  1  0
 14 28  1  6
 15 29  1  0
 30 31  1  0
 31 32  1  0
 32 33  1  0
 33 34  1  1
 33 35  1  0
 35 36  1  0
 36 37  1  1
 36 38  1  0
 38 39  1  0
 38 31  1  0
 30 40  1  0
 31 41  1  6
 32 42  1  6
 33 43  1  0
 36 44  1  0
 38 45  1  6
 39 46  1  0
 16 32  1  0
M  ISO  8  17  13  18  13  19  13  20  13  21  14  22  14  23  14  24  13
M  ISO  7  25  13  26  13  27  13  28  13  29   3  34   8  37   8
M  END
>  <DihAtoms>  (1) 
13,15,31,30

>  <DihDeg>  (1) 
117.75017060757628

$$$$
