
 OpenBabel03272501063D

 33 35  0  0  1  0  0  0  0  0999 V2000
   38.4550   25.6920   34.3230 C   0  0  2  0  0  0  0  0  0  0  0  0
   38.5940   25.6320   32.7850 C   0  0  2  0  0  0  0  0  0  0  0  0
   39.2370   26.9290   32.5230 C   0  0  0  0  0  0  0  0  0  0  0  0
   40.1460   27.1310   33.5540 O   0  0  0  0  0  0  0  0  0  0  0  0
   39.8150   26.3370   34.6090 C   0  0  0  0  0  0  0  0  0  0  0  0
   37.6330   26.3700   34.6260 H   0  0  0  0  0  0  0  0  0  0  0  0
   39.3390   24.7930   32.6580 H   0  0  0  0  0  0  0  0  0  0  0  0
   39.7670   26.9390   31.5490 H   0  0  0  0  0  0  0  0  0  0  0  0
   38.4530   27.7360   32.5550 H   0  0  0  0  0  0  0  0  0  0  0  0
   39.7710   26.8490   35.5990 H   0  0  0  0  0  0  0  0  0  0  0  0
   40.5350   25.4840   34.6980 H   0  0  0  0  0  0  0  0  0  0  0  0
   35.6390   23.8940   31.1830 C   0  0  0  0  0  0  0  0  0  0  0  0
   36.8830   24.0650   31.8450 C   0  0  0  0  0  0  0  0  0  0  0  0
   37.3290   25.3800   32.1320 C   0  0  0  0  0  0  0  0  0  0  0  0
   36.5150   26.4150   31.7460 N   0  0  0  0  0  0  0  0  0  0  0  0
   35.3530   26.2260   31.1260 C   0  0  0  0  0  0  0  0  0  0  0  0
   34.9000   24.9740   30.8360 N   0  0  0  0  0  0  0  0  0  0  0  0
   35.2810   22.9010   30.9540 H   0  0  0  0  0  0  0  0  0  0  0  0
   37.4620   23.2000   32.1160 H   0  0  0  0  0  0  0  0  0  0  0  0
   34.7630   27.1080   30.8500 H   0  0  0  0  0  0  0  0  0  0  0  0
   38.3900   24.4270   34.8610 O   0  0  0  0  0  0  0  0  0  0  0  0
   39.4230   22.9140   36.3080 C   0  0  1  0  0  3  0  0  0  0  0  0
   38.9150   24.3520   36.1220 C   0  0  2  0  0  3  0  0  0  0  0  0
   37.9410   24.6410   37.2150 C   0  0  0  0  0  3  0  0  0  0  0  0
   36.9470   24.8510   36.7670 H   0  0  0  0  0  0  0  0  0  0  0  0
   37.7350   23.5790   38.0920 O   0  0  0  0  0  0  0  0  0  0  0  0
   38.9190   23.1850   38.7140 C   0  0  0  0  0  3  0  0  0  0  0  0
   38.6850   22.2510   39.2820 H   0  0  0  0  0  0  0  0  0  0  0  0
   39.9840   22.8440   37.7070 C   0  0  1  0  0  3  0  0  0  0  0  0
   38.4220   21.9920   36.0640 O   0  0  0  0  0  0  0  0  0  0  0  0
   37.6360   22.4220   35.6670 H   0  0  0  0  0  0  0  0  0  0  0  0
   40.5620   21.6130   37.9850 O   0  0  0  0  0  0  0  0  0  0  0  0
   40.1750   20.9210   37.4090 H   0  0  0  0  0  0  0  0  0  0  0  0
  1  5  1  0  0  0  0
  1  6  1  1  0  0  0
  1 21  1  0  0  0  0
  2  7  1  6  0  0  0
  2  1  1  0  0  0  0
  3  9  1  0  0  0  0
  3  2  1  0  0  0  0
  3  4  1  0  0  0  0
  4  5  1  0  0  0  0
  5 11  1  0  0  0  0
  5 10  1  0  0  0  0
  8  3  1  0  0  0  0
 12 13  1  0  0  0  0
 13 19  1  0  0  0  0
 13 14  2  0  0  0  0
 14  2  1  0  0  0  0
 15 14  1  0  0  0  0
 16 15  2  0  0  0  0
 17 16  1  0  0  0  0
 17 12  2  0  0  0  0
 18 12  1  0  0  0  0
 20 16  1  0  0  0  0
 22 30  1  1  0  0  0
 22 29  1  0  0  0  0
 23 21  1  6  0  0  0
 23 22  1  0  0  0  0
 23 24  1  0  0  0  0
 24 26  1  0  0  0  0
 25 24  1  0  0  0  0
 26 27  1  0  0  0  0
 27 28  1  0  0  0  0
 29 32  1  1  0  0  0
 29 27  1  0  0  0  0
 31 30  1  0  0  0  0
 33 32  1  0  0  0  0
M  END
>  <minimizedAffinity>
-5.60485506

$$$$

 OpenBabel03272501063D

 33 35  0  0  1  0  0  0  0  0999 V2000
   38.1500   25.4450   34.0660 C   0  0  2  0  0  0  0  0  0  0  0  0
   37.8880   25.1810   32.5660 C   0  0  2  0  0  0  0  0  0  0  0  0
   37.2070   26.4300   32.1900 C   0  0  0  0  0  0  0  0  0  0  0  0
   37.8510   27.4510   32.8800 O   0  0  0  0  0  0  0  0  0  0  0  0
   38.5320   26.9220   33.9340 C   0  0  0  0  0  0  0  0  0  0  0  0
   37.2220   25.3350   34.6620 H   0  0  0  0  0  0  0  0  0  0  0  0
   38.9390   25.1680   32.1520 H   0  0  0  0  0  0  0  0  0  0  0  0
   37.2660   26.6210   31.0990 H   0  0  0  0  0  0  0  0  0  0  0  0
   36.1340   26.3750   32.5240 H   0  0  0  0  0  0  0  0  0  0  0  0
   38.3640   27.4280   34.9140 H   0  0  0  0  0  0  0  0  0  0  0  0
   39.6330   26.9280   33.7310 H   0  0  0  0  0  0  0  0  0  0  0  0
   35.4930   22.5910   31.1970 C   0  0  0  0  0  0  0  0  0  0  0  0
   36.1730   23.8290   31.3430 C   0  0  0  0  0  0  0  0  0  0  0  0
   37.1690   23.9470   32.3460 C   0  0  0  0  0  0  0  0  0  0  0  0
   37.4120   22.8400   33.1190 N   0  0  0  0  0  0  0  0  0  0  0  0
   36.7590   21.6920   32.9610 C   0  0  0  0  0  0  0  0  0  0  0  0
   35.7970   21.5500   32.0060 N   0  0  0  0  0  0  0  0  0  0  0  0
   34.7310   22.4800   30.4390 H   0  0  0  0  0  0  0  0  0  0  0  0
   35.9240   24.6500   30.6950 H   0  0  0  0  0  0  0  0  0  0  0  0
   37.0140   20.8550   33.6220 H   0  0  0  0  0  0  0  0  0  0  0  0
   39.2170   24.7010   34.5170 O   0  0  0  0  0  0  0  0  0  0  0  0
   39.8040   23.1510   36.1610 C   0  0  1  0  0  3  0  0  0  0  0  0
   39.2280   24.5460   35.8760 C   0  0  2  0  0  3  0  0  0  0  0  0
   37.8830   24.6300   36.5190 C   0  0  0  0  0  3  0  0  0  0  0  0
   37.1160   24.7900   35.7310 H   0  0  0  0  0  0  0  0  0  0  0  0
   37.4940   23.4680   37.1820 O   0  0  0  0  0  0  0  0  0  0  0  0
   38.3920   23.1240   38.1920 C   0  0  0  0  0  3  0  0  0  0  0  0
   38.0790   22.1190   38.5680 H   0  0  0  0  0  0  0  0  0  0  0  0
   39.7940   22.9900   37.6610 C   0  0  1  0  0  3  0  0  0  0  0  0
   39.0950   22.1700   35.4930 O   0  0  0  0  0  0  0  0  0  0  0  0
   38.4720   22.5630   34.8470 H   0  0  0  0  0  0  0  0  0  0  0  0
   40.3730   21.7960   38.0690 O   0  0  0  0  0  0  0  0  0  0  0  0
   40.3240   21.1340   37.3490 H   0  0  0  0  0  0  0  0  0  0  0  0
  1 21  1  0  0  0  0
  1  6  1  1  0  0  0
  2  7  1  6  0  0  0
  2  1  1  0  0  0  0
  3  9  1  0  0  0  0
  3  2  1  0  0  0  0
  3  4  1  0  0  0  0
  4  5  1  0  0  0  0
  5  1  1  0  0  0  0
  5 10  1  0  0  0  0
  8  3  1  0  0  0  0
 11  5  1  0  0  0  0
 12 13  2  0  0  0  0
 12 17  1  0  0  0  0
 13 14  1  0  0  0  0
 14  2  1  0  0  0  0
 14 15  2  0  0  0  0
 16 15  1  0  0  0  0
 16 20  1  0  0  0  0
 17 16  2  0  0  0  0
 18 12  1  0  0  0  0
 19 13  1  0  0  0  0
 22 30  1  6  0  0  0
 22 29  1  0  0  0  0
 23 21  1  6  0  0  0
 23 22  1  0  0  0  0
 23 24  1  0  0  0  0
 24 26  1  0  0  0  0
 25 24  1  0  0  0  0
 26 27  1  0  0  0  0
 27 28  1  0  0  0  0
 29 32  1  6  0  0  0
 29 27  1  0  0  0  0
 31 30  1  0  0  0  0
 33 32  1  0  0  0  0
M  END
>  <minimizedAffinity>
-5.07600641

$$$$

 OpenBabel03272501063D

 33 35  0  0  1  0  0  0  0  0999 V2000
   37.7850   23.8510   33.2020 C   0  0  2  0  0  0  0  0  0  0  0  0
   37.3630   23.0500   31.9500 C   0  0  2  0  0  0  0  0  0  0  0  0
   36.5880   24.0710   31.2280 C   0  0  0  0  0  0  0  0  0  0  0  0
   37.2610   25.2740   31.4080 O   0  0  0  0  0  0  0  0  0  0  0  0
   38.0820   25.1730   32.4890 C   0  0  0  0  0  0  0  0  0  0  0  0
   36.9390   23.9710   33.9070 H   0  0  0  0  0  0  0  0  0  0  0  0
   38.3580   22.8830   31.4420 H   0  0  0  0  0  0  0  0  0  0  0  0
   36.5100   23.8440   30.1450 H   0  0  0  0  0  0  0  0  0  0  0  0
   35.5640   24.1450   31.6910 H   0  0  0  0  0  0  0  0  0  0  0  0
   38.0070   26.0070   33.2260 H   0  0  0  0  0  0  0  0  0  0  0  0
   39.1510   25.1010   32.1620 H   0  0  0  0  0  0  0  0  0  0  0  0
   35.6760   19.6710   31.7200 C   0  0  0  0  0  0  0  0  0  0  0  0
   36.3680   20.8430   31.3150 C   0  0  0  0  0  0  0  0  0  0  0  0
   36.6800   21.8230   32.2910 C   0  0  0  0  0  0  0  0  0  0  0  0
   36.2870   21.5680   33.5810 N   0  0  0  0  0  0  0  0  0  0  0  0
   35.6390   20.4610   33.9320 C   0  0  0  0  0  0  0  0  0  0  0  0
   35.3250   19.5020   33.0160 N   0  0  0  0  0  0  0  0  0  0  0  0
   35.4290   18.9120   30.9920 H   0  0  0  0  0  0  0  0  0  0  0  0
   36.6420   20.9670   30.2830 H   0  0  0  0  0  0  0  0  0  0  0  0
   35.3600   20.3350   34.9850 H   0  0  0  0  0  0  0  0  0  0  0  0
   38.9300   23.3260   33.7580 O   0  0  0  0  0  0  0  0  0  0  0  0
   39.4350   22.5100   35.8860 C   0  0  1  0  0  3  0  0  0  0  0  0
   39.1530   23.7580   35.0370 C   0  0  2  0  0  3  0  0  0  0  0  0
   38.0050   24.4850   35.6530 C   0  0  0  0  0  3  0  0  0  0  0  0
   37.1650   24.5140   34.9270 H   0  0  0  0  0  0  0  0  0  0  0  0
   37.4870   23.8730   36.7930 O   0  0  0  0  0  0  0  0  0  0  0  0
   38.4510   23.7410   37.7910 C   0  0  0  0  0  3  0  0  0  0  0  0
   37.9900   23.1230   38.6000 H   0  0  0  0  0  0  0  0  0  0  0  0
   39.6630   23.0010   37.2940 C   0  0  1  0  0  3  0  0  0  0  0  0
   38.4110   21.5880   35.7790 O   0  0  0  0  0  0  0  0  0  0  0  0
   37.7870   21.8350   35.0640 H   0  0  0  0  0  0  0  0  0  0  0  0
   40.0170   21.9770   38.1620 O   0  0  0  0  0  0  0  0  0  0  0  0
   39.6870   21.1190   37.8230 H   0  0  0  0  0  0  0  0  0  0  0  0
  1 21  1  0  0  0  0
  1  6  1  1  0  0  0
  2  7  1  6  0  0  0
  2 14  1  0  0  0  0
  2  1  1  0  0  0  0
  3  4  1  0  0  0  0
  3  9  1  0  0  0  0
  3  2  1  0  0  0  0
  4  5  1  0  0  0  0
  5  1  1  0  0  0  0
  5 10  1  0  0  0  0
  8  3  1  0  0  0  0
 11  5  1  0  0  0  0
 12 17  1  0  0  0  0
 13 12  2  0  0  0  0
 13 14  1  0  0  0  0
 14 15  2  0  0  0  0
 15 16  1  0  0  0  0
 16 20  1  0  0  0  0
 17 16  2  0  0  0  0
 18 12  1  0  0  0  0
 19 13  1  0  0  0  0
 22 30  1  1  0  0  0
 22 29  1  0  0  0  0
 23 21  1  6  0  0  0
 23 24  1  0  0  0  0
 23 22  1  0  0  0  0
 24 26  1  0  0  0  0
 25 24  1  0  0  0  0
 26 27  1  0  0  0  0
 27 28  1  0  0  0  0
 29 27  1  0  0  0  0
 29 32  1  1  0  0  0
 31 30  1  0  0  0  0
 33 32  1  0  0  0  0
M  END
>  <minimizedAffinity>
-5.06979275

$$$$

 OpenBabel03272501063D

 33 35  0  0  1  0  0  0  0  0999 V2000
   37.3770   25.3920   31.1640 C   0  0  2  0  0  0  0  0  0  0  0  0
   36.0920   26.1180   31.6230 C   0  0  2  0  0  0  0  0  0  0  0  0
   35.0790   25.3800   30.8530 C   0  0  0  0  0  0  0  0  0  0  0  0
   35.4740   24.0470   30.8610 O   0  0  0  0  0  0  0  0  0  0  0  0
   36.8000   23.9730   31.1600 C   0  0  0  0  0  0  0  0  0  0  0  0
   37.6670   25.6960   30.1390 H   0  0  0  0  0  0  0  0  0  0  0  0
   36.0450   25.8270   32.7130 H   0  0  0  0  0  0  0  0  0  0  0  0
   34.0680   25.4730   31.3030 H   0  0  0  0  0  0  0  0  0  0  0  0
   35.0760   25.7610   29.7950 H   0  0  0  0  0  0  0  0  0  0  0  0
   37.4100   23.3360   30.4770 H   0  0  0  0  0  0  0  0  0  0  0  0
   36.9440   23.5910   32.2030 H   0  0  0  0  0  0  0  0  0  0  0  0
   36.8090   29.5150   30.1190 C   0  0  0  0  0  0  0  0  0  0  0  0
   36.7520   28.1020   30.2470 C   0  0  0  0  0  0  0  0  0  0  0  0
   36.1670   27.5460   31.4130 C   0  0  0  0  0  0  0  0  0  0  0  0
   35.6890   28.4240   32.3530 N   0  0  0  0  0  0  0  0  0  0  0  0
   35.7560   29.7450   32.2060 C   0  0  0  0  0  0  0  0  0  0  0  0
   36.3130   30.3070   31.0970 N   0  0  0  0  0  0  0  0  0  0  0  0
   37.2500   29.9590   29.2380 H   0  0  0  0  0  0  0  0  0  0  0  0
   37.1490   27.4820   29.4640 H   0  0  0  0  0  0  0  0  0  0  0  0
   35.3500   30.3760   33.0050 H   0  0  0  0  0  0  0  0  0  0  0  0
   38.3730   25.5130   32.1060 O   0  0  0  0  0  0  0  0  0  0  0  0
   38.6010   26.7420   34.0780 C   0  0  1  0  0  3  0  0  0  0  0  0
   37.8960   25.5650   33.3880 C   0  0  2  0  0  3  0  0  0  0  0  0
   38.1550   24.3360   34.1940 C   0  0  0  0  0  3  0  0  0  0  0  0
   38.7180   23.6080   33.5710 H   0  0  0  0  0  0  0  0  0  0  0  0
   38.9470   24.5480   35.3210 O   0  0  0  0  0  0  0  0  0  0  0  0
   38.3710   25.4740   36.1890 C   0  0  0  0  0  3  0  0  0  0  0  0
   39.1310   25.6830   36.9820 H   0  0  0  0  0  0  0  0  0  0  0  0
   38.0770   26.7750   35.4930 C   0  0  1  0  0  3  0  0  0  0  0  0
   39.9760   26.6210   33.9990 O   0  0  0  0  0  0  0  0  0  0  0  0
   40.2310   25.9010   33.3850 H   0  0  0  0  0  0  0  0  0  0  0  0
   38.5690   27.8530   36.2150 O   0  0  0  0  0  0  0  0  0  0  0  0
   39.4210   28.1520   35.8350 H   0  0  0  0  0  0  0  0  0  0  0  0
  1  6  1  6  0  0  0
  1  2  1  0  0  0  0
  1 21  1  0  0  0  0
  2  7  1  1  0  0  0
  3  4  1  0  0  0  0
  3  8  1  0  0  0  0
  3  2  1  0  0  0  0
  4  5  1  0  0  0  0
  5  1  1  0  0  0  0
  5 11  1  0  0  0  0
  9  3  1  0  0  0  0
 10  5  1  0  0  0  0
 12 13  2  0  0  0  0
 12 17  1  0  0  0  0
 13 14  1  0  0  0  0
 14  2  1  0  0  0  0
 14 15  2  0  0  0  0
 16 15  1  0  0  0  0
 16 20  1  0  0  0  0
 17 16  2  0  0  0  0
 18 12  1  0  0  0  0
 19 13  1  0  0  0  0
 22 30  1  1  0  0  0
 22 29  1  0  0  0  0
 23 21  1  6  0  0  0
 23 22  1  0  0  0  0
 23 24  1  0  0  0  0
 24 26  1  0  0  0  0
 25 24  1  0  0  0  0
 26 27  1  0  0  0  0
 27 28  1  0  0  0  0
 29 27  1  0  0  0  0
 29 32  1  1  0  0  0
 31 30  1  0  0  0  0
 33 32  1  0  0  0  0
M  END
>  <minimizedAffinity>
-4.92624617

$$$$

 OpenBabel03272501063D

 33 35  0  0  1  0  0  0  0  0999 V2000
   37.3380   21.8530   32.6800 C   0  0  2  0  0  0  0  0  0  0  0  0
   36.0880   22.4490   31.9950 C   0  0  2  0  0  0  0  0  0  0  0  0
   35.8930   21.4820   30.9030 C   0  0  0  0  0  0  0  0  0  0  0  0
   36.1830   20.2300   31.4340 O   0  0  0  0  0  0  0  0  0  0  0  0
   36.9330   20.3800   32.5590 C   0  0  0  0  0  0  0  0  0  0  0  0
   38.2540   22.0530   32.0900 H   0  0  0  0  0  0  0  0  0  0  0  0
   35.3020   22.3040   32.7920 H   0  0  0  0  0  0  0  0  0  0  0  0
   34.8520   21.4940   30.5200 H   0  0  0  0  0  0  0  0  0  0  0  0
   36.6220   21.7130   30.0770 H   0  0  0  0  0  0  0  0  0  0  0  0
   37.8510   19.7470   32.6110 H   0  0  0  0  0  0  0  0  0  0  0  0
   36.3190   20.1650   33.4710 H   0  0  0  0  0  0  0  0  0  0  0  0
   35.4460   26.0430   30.9990 C   0  0  0  0  0  0  0  0  0  0  0  0
   35.1830   24.7010   31.3820 C   0  0  0  0  0  0  0  0  0  0  0  0
   36.2780   23.8330   31.6210 C   0  0  0  0  0  0  0  0  0  0  0  0
   37.5370   24.3560   31.4650 N   0  0  0  0  0  0  0  0  0  0  0  0
   37.7540   25.6180   31.1040 C   0  0  0  0  0  0  0  0  0  0  0  0
   36.7210   26.4750   30.8670 N   0  0  0  0  0  0  0  0  0  0  0  0
   34.6250   26.7210   30.8120 H   0  0  0  0  0  0  0  0  0  0  0  0
   34.1650   24.3690   31.4840 H   0  0  0  0  0  0  0  0  0  0  0  0
   38.7910   25.9560   31.0010 H   0  0  0  0  0  0  0  0  0  0  0  0
   37.4040   22.2360   34.0000 O   0  0  0  0  0  0  0  0  0  0  0  0
   38.5220   22.3130   36.0480 C   0  0  1  0  0  3  0  0  0  0  0  0
   38.6600   22.1180   34.5310 C   0  0  2  0  0  3  0  0  0  0  0  0
   39.6420   23.1210   34.0250 C   0  0  0  0  0  3  0  0  0  0  0  0
   39.1300   23.7960   33.3050 H   0  0  0  0  0  0  0  0  0  0  0  0
   40.1620   23.9590   35.0090 O   0  0  0  0  0  0  0  0  0  0  0  0
   40.8160   23.2370   36.0080 C   0  0  0  0  0  3  0  0  0  0  0  0
   41.0730   23.9680   36.8130 H   0  0  0  0  0  0  0  0  0  0  0  0
   39.9160   22.1960   36.6160 C   0  0  1  0  0  3  0  0  0  0  0  0
   37.9010   23.5110   36.3460 O   0  0  0  0  0  0  0  0  0  0  0  0
   37.5270   23.9240   35.5400 H   0  0  0  0  0  0  0  0  0  0  0  0
   39.9300   22.2670   38.0020 O   0  0  0  0  0  0  0  0  0  0  0  0
   39.1410   22.7500   38.3230 H   0  0  0  0  0  0  0  0  0  0  0  0
  1  6  1  6  0  0  0
  1 21  1  0  0  0  0
  2  1  1  0  0  0  0
  2  7  1  1  0  0  0
  3  4  1  0  0  0  0
  3  2  1  0  0  0  0
  4  5  1  0  0  0  0
  5 10  1  0  0  0  0
  5  1  1  0  0  0  0
  5 11  1  0  0  0  0
  8  3  1  0  0  0  0
  9  3  1  0  0  0  0
 12 13  1  0  0  0  0
 13 19  1  0  0  0  0
 13 14  2  0  0  0  0
 14  2  1  0  0  0  0
 15 14  1  0  0  0  0
 16 15  2  0  0  0  0
 17 12  2  0  0  0  0
 17 16  1  0  0  0  0
 18 12  1  0  0  0  0
 20 16  1  0  0  0  0
 22 30  1  6  0  0  0
 22 29  1  0  0  0  0
 23 21  1  6  0  0  0
 23 22  1  0  0  0  0
 24 23  1  0  0  0  0
 24 26  1  0  0  0  0
 25 24  1  0  0  0  0
 26 27  1  0  0  0  0
 27 29  1  0  0  0  0
 27 28  1  0  0  0  0
 29 32  1  1  0  0  0
 31 30  1  0  0  0  0
 32 33  1  0  0  0  0
M  END
>  <minimizedAffinity>
-4.90176868

$$$$

 OpenBabel03272501063D

 33 35  0  0  1  0  0  0  0  0999 V2000
   38.2360   22.3990   32.9040 C   0  0  2  0  0  0  0  0  0  0  0  0
   37.1800   22.4470   31.7770 C   0  0  2  0  0  0  0  0  0  0  0  0
   37.9160   21.7810   30.6910 C   0  0  0  0  0  0  0  0  0  0  0  0
   38.6330   20.7470   31.2810 O   0  0  0  0  0  0  0  0  0  0  0  0
   38.7540   20.9870   32.6160 C   0  0  0  0  0  0  0  0  0  0  0  0
   39.0360   23.1470   32.7380 H   0  0  0  0  0  0  0  0  0  0  0  0
   36.3810   21.7620   32.1870 H   0  0  0  0  0  0  0  0  0  0  0  0
   37.2330   21.3700   29.9190 H   0  0  0  0  0  0  0  0  0  0  0  0
   38.6330   22.5170   30.2330 H   0  0  0  0  0  0  0  0  0  0  0  0
   39.7860   20.8890   33.0280 H   0  0  0  0  0  0  0  0  0  0  0  0
   38.0870   20.3010   33.1980 H   0  0  0  0  0  0  0  0  0  0  0  0
   34.9920   25.3980   30.8700 C   0  0  0  0  0  0  0  0  0  0  0  0
   35.3770   24.0540   31.1180 C   0  0  0  0  0  0  0  0  0  0  0  0
   36.7090   23.7910   31.5270 C   0  0  0  0  0  0  0  0  0  0  0  0
   37.5480   24.8690   31.6580 N   0  0  0  0  0  0  0  0  0  0  0  0
   37.1600   26.1180   31.4190 C   0  0  0  0  0  0  0  0  0  0  0  0
   35.8870   26.4020   31.0240 N   0  0  0  0  0  0  0  0  0  0  0  0
   33.9810   25.6200   30.5580 H   0  0  0  0  0  0  0  0  0  0  0  0
   34.6580   23.2650   30.9930 H   0  0  0  0  0  0  0  0  0  0  0  0
   37.8930   26.9230   31.5460 H   0  0  0  0  0  0  0  0  0  0  0  0
   37.6370   22.4580   34.1420 O   0  0  0  0  0  0  0  0  0  0  0  0
   38.2670   22.4000   36.3890 C   0  0  1  0  0  3  0  0  0  0  0  0
   38.3680   23.1620   35.0590 C   0  0  2  0  0  3  0  0  0  0  0  0
   37.8910   24.5570   35.2900 C   0  0  0  0  0  3  0  0  0  0  0  0
   36.9950   24.7410   34.6590 H   0  0  0  0  0  0  0  0  0  0  0  0
   37.4800   24.8110   36.5970 O   0  0  0  0  0  0  0  0  0  0  0  0
   38.5070   24.5900   37.5140 C   0  0  0  0  0  3  0  0  0  0  0  0
   38.0520   24.6810   38.5310 H   0  0  0  0  0  0  0  0  0  0  0  0
   39.0640   23.1980   37.3920 C   0  0  1  0  0  3  0  0  0  0  0  0
   36.9490   22.2040   36.7570 O   0  0  0  0  0  0  0  0  0  0  0  0
   36.3400   22.4430   36.0270 H   0  0  0  0  0  0  0  0  0  0  0  0
   39.1310   22.5740   38.6310 O   0  0  0  0  0  0  0  0  0  0  0  0
   38.3690   21.9700   38.7460 H   0  0  0  0  0  0  0  0  0  0  0  0
  1  6  1  6  0  0  0
  1 21  1  0  0  0  0
  2  7  1  1  0  0  0
  2  1  1  0  0  0  0
  3  4  1  0  0  0  0
  3  2  1  0  0  0  0
  4  5  1  0  0  0  0
  5  1  1  0  0  0  0
  5 10  1  0  0  0  0
  5 11  1  0  0  0  0
  8  3  1  0  0  0  0
  9  3  1  0  0  0  0
 12 17  2  0  0  0  0
 12 13  1  0  0  0  0
 13 14  2  0  0  0  0
 14 15  1  0  0  0  0
 14  2  1  0  0  0  0
 16 20  1  0  0  0  0
 16 15  2  0  0  0  0
 17 16  1  0  0  0  0
 18 12  1  0  0  0  0
 19 13  1  0  0  0  0
 22 30  1  1  0  0  0
 22 29  1  0  0  0  0
 23 21  1  6  0  0  0
 23 24  1  0  0  0  0
 23 22  1  0  0  0  0
 24 26  1  0  0  0  0
 25 24  1  0  0  0  0
 26 27  1  0  0  0  0
 27 28  1  0  0  0  0
 29 27  1  0  0  0  0
 29 32  1  1  0  0  0
 31 30  1  0  0  0  0
 32 33  1  0  0  0  0
M  END
>  <minimizedAffinity>
-4.89542913

$$$$

 OpenBabel03272501063D

 33 35  0  0  1  0  0  0  0  0999 V2000
   38.0210   23.1050   33.5200 C   0  0  2  0  0  0  0  0  0  0  0  0
   38.2580   23.9750   34.7750 C   0  0  2  0  0  0  0  0  0  0  0  0
   38.7430   25.2170   34.1530 C   0  0  0  0  0  0  0  0  0  0  0  0
   37.9910   25.3950   32.9970 O   0  0  0  0  0  0  0  0  0  0  0  0
   37.4330   24.2080   32.6350 C   0  0  0  0  0  0  0  0  0  0  0  0
   38.9780   22.7380   33.0990 H   0  0  0  0  0  0  0  0  0  0  0  0
   37.2030   24.1130   35.1560 H   0  0  0  0  0  0  0  0  0  0  0  0
   38.6150   26.0930   34.8210 H   0  0  0  0  0  0  0  0  0  0  0  0
   39.8250   25.0860   33.8750 H   0  0  0  0  0  0  0  0  0  0  0  0
   37.5670   23.9230   31.5640 H   0  0  0  0  0  0  0  0  0  0  0  0
   36.3340   24.2090   32.8530 H   0  0  0  0  0  0  0  0  0  0  0  0
   41.0330   21.9130   36.3120 C   0  0  0  0  0  0  0  0  0  0  0  0
   40.2290   22.5310   35.3190 C   0  0  0  0  0  0  0  0  0  0  0  0
   39.1320   23.3310   35.7290 C   0  0  0  0  0  0  0  0  0  0  0  0
   38.9190   23.4570   37.0790 N   0  0  0  0  0  0  0  0  0  0  0  0
   39.6900   22.8660   37.9880 C   0  0  0  0  0  0  0  0  0  0  0  0
   40.7500   22.0900   37.6240 N   0  0  0  0  0  0  0  0  0  0  0  0
   41.8730   21.2990   36.0210 H   0  0  0  0  0  0  0  0  0  0  0  0
   40.4630   22.3830   34.2800 H   0  0  0  0  0  0  0  0  0  0  0  0
   39.4500   23.0160   39.0470 H   0  0  0  0  0  0  0  0  0  0  0  0
   37.0860   22.1260   33.7700 O   0  0  0  0  0  0  0  0  0  0  0  0
   35.4200   20.6920   32.9860 C   0  0  1  0  0  3  0  0  0  0  0  0
   36.7220   21.4330   32.6480 C   0  0  2  0  0  3  0  0  0  0  0  0
   37.7220   20.4240   32.1920 C   0  0  0  0  0  3  0  0  0  0  0  0
   38.5840   20.4290   32.8920 H   0  0  0  0  0  0  0  0  0  0  0  0
   37.2520   19.1120   32.1950 O   0  0  0  0  0  0  0  0  0  0  0  0
   36.1370   18.9620   31.3700 C   0  0  0  0  0  3  0  0  0  0  0  0
   35.7500   17.9270   31.5430 H   0  0  0  0  0  0  0  0  0  0  0  0
   35.0400   19.9210   31.7450 C   0  0  1  0  0  3  0  0  0  0  0  0
   35.5710   19.8980   34.1070 O   0  0  0  0  0  0  0  0  0  0  0  0
   36.4200   20.0840   34.5600 H   0  0  0  0  0  0  0  0  0  0  0  0
   33.8250   19.2650   31.8810 O   0  0  0  0  0  0  0  0  0  0  0  0
   33.6350   19.0980   32.8270 H   0  0  0  0  0  0  0  0  0  0  0  0
  1  6  1  6  0  0  0
  1 21  1  0  0  0  0
  1  2  1  0  0  0  0
  2  7  1  1  0  0  0
  2 14  1  0  0  0  0
  3  2  1  0  0  0  0
  3  8  1  0  0  0  0
  4  3  1  0  0  0  0
  5 11  1  0  0  0  0
  5  4  1  0  0  0  0
  5  1  1  0  0  0  0
  9  3  1  0  0  0  0
 10  5  1  0  0  0  0
 12 17  1  0  0  0  0
 13 14  1  0  0  0  0
 13 12  2  0  0  0  0
 14 15  2  0  0  0  0
 15 16  1  0  0  0  0
 16 20  1  0  0  0  0
 17 16  2  0  0  0  0
 18 12  1  0  0  0  0
 19 13  1  0  0  0  0
 22 30  1  1  0  0  0
 23 22  1  0  0  0  0
 23 21  1  1  0  0  0
 24 26  1  0  0  0  0
 24 23  1  0  0  0  0
 24 25  1  0  0  0  0
 27 28  1  0  0  0  0
 27 29  1  0  0  0  0
 27 26  1  0  0  0  0
 29 32  1  1  0  0  0
 29 22  1  0  0  0  0
 30 31  1  0  0  0  0
 32 33  1  0  0  0  0
M  END
>  <minimizedAffinity>
-4.85678101

$$$$

 OpenBabel03272501063D

 33 35  0  0  1  0  0  0  0  0999 V2000
   36.8100   24.2830   31.7630 C   0  0  2  0  0  0  0  0  0  0  0  0
   36.6780   25.5350   32.6600 C   0  0  2  0  0  0  0  0  0  0  0  0
   36.2100   26.5220   31.6740 C   0  0  0  0  0  0  0  0  0  0  0  0
   35.3250   25.8510   30.8380 O   0  0  0  0  0  0  0  0  0  0  0  0
   35.5430   24.5110   30.9340 C   0  0  0  0  0  0  0  0  0  0  0  0
   37.7110   24.3430   31.1210 H   0  0  0  0  0  0  0  0  0  0  0  0
   35.8310   25.2340   33.3450 H   0  0  0  0  0  0  0  0  0  0  0  0
   35.6920   27.3770   32.1570 H   0  0  0  0  0  0  0  0  0  0  0  0
   37.0900   26.8810   31.0730 H   0  0  0  0  0  0  0  0  0  0  0  0
   35.6440   23.9710   29.9630 H   0  0  0  0  0  0  0  0  0  0  0  0
   34.7170   24.0210   31.5120 H   0  0  0  0  0  0  0  0  0  0  0  0
   40.0620   26.9620   33.5690 C   0  0  0  0  0  0  0  0  0  0  0  0
   38.8710   26.7290   32.8330 C   0  0  0  0  0  0  0  0  0  0  0  0
   37.9040   25.8360   33.3620 C   0  0  0  0  0  0  0  0  0  0  0  0
   38.1900   25.2490   34.5690 N   0  0  0  0  0  0  0  0  0  0  0  0
   39.3160   25.4850   35.2370 C   0  0  0  0  0  0  0  0  0  0  0  0
   40.2630   26.3370   34.7530 N   0  0  0  0  0  0  0  0  0  0  0  0
   40.8110   27.6380   33.1830 H   0  0  0  0  0  0  0  0  0  0  0  0
   38.7220   27.2300   31.8930 H   0  0  0  0  0  0  0  0  0  0  0  0
   39.4670   24.9740   36.1950 H   0  0  0  0  0  0  0  0  0  0  0  0
   36.7070   23.1310   32.5100 O   0  0  0  0  0  0  0  0  0  0  0  0
   35.3730   21.2180   32.4140 C   0  0  1  0  0  3  0  0  0  0  0  0
   36.5050   22.0140   31.7470 C   0  0  2  0  0  3  0  0  0  0  0  0
   37.6940   21.1180   31.6340 C   0  0  0  0  0  3  0  0  0  0  0  0
   38.5270   21.5490   32.2290 H   0  0  0  0  0  0  0  0  0  0  0  0
   37.4960   19.8390   32.1490 O   0  0  0  0  0  0  0  0  0  0  0  0
   36.4460   19.1810   31.5090 C   0  0  0  0  0  3  0  0  0  0  0  0
   36.2720   18.2330   32.0740 H   0  0  0  0  0  0  0  0  0  0  0  0
   35.1740   19.9820   31.5700 C   0  0  1  0  0  3  0  0  0  0  0  0
   35.6640   20.9450   33.7380 O   0  0  0  0  0  0  0  0  0  0  0  0
   36.4520   21.4450   34.0360 H   0  0  0  0  0  0  0  0  0  0  0  0
   34.1130   19.2050   32.0130 O   0  0  0  0  0  0  0  0  0  0  0  0
   33.9460   19.3710   32.9640 H   0  0  0  0  0  0  0  0  0  0  0  0
  1  6  1  6  0  0  0
  1 21  1  0  0  0  0
  1  2  1  0  0  0  0
  2  7  1  1  0  0  0
  2 14  1  0  0  0  0
  3  8  1  0  0  0  0
  3  2  1  0  0  0  0
  4  5  1  0  0  0  0
  4  3  1  0  0  0  0
  5 11  1  0  0  0  0
  5  1  1  0  0  0  0
  9  3  1  0  0  0  0
 10  5  1  0  0  0  0
 12 17  1  0  0  0  0
 13 14  1  0  0  0  0
 13 12  2  0  0  0  0
 14 15  2  0  0  0  0
 15 16  1  0  0  0  0
 16 20  1  0  0  0  0
 17 16  2  0  0  0  0
 18 12  1  0  0  0  0
 19 13  1  0  0  0  0
 22 30  1  1  0  0  0
 23 22  1  0  0  0  0
 23 21  1  1  0  0  0
 24 23  1  0  0  0  0
 24 26  1  0  0  0  0
 24 25  1  0  0  0  0
 27 29  1  0  0  0  0
 27 28  1  0  0  0  0
 27 26  1  0  0  0  0
 29 32  1  1  0  0  0
 29 22  1  0  0  0  0
 30 31  1  0  0  0  0
 32 33  1  0  0  0  0
M  END
>  <minimizedAffinity>
-4.66676474

$$$$

 OpenBabel03272501063D

 33 35  0  0  1  0  0  0  0  0999 V2000
   37.9150   26.1510   33.9110 C   0  0  2  0  0  0  0  0  0  0  0  0
   37.9430   25.8130   35.4180 C   0  0  2  0  0  0  0  0  0  0  0  0
   38.1910   27.1470   35.9870 C   0  0  0  0  0  0  0  0  0  0  0  0
   37.4480   28.0420   35.2260 O   0  0  0  0  0  0  0  0  0  0  0  0
   37.1440   27.4700   34.0290 C   0  0  0  0  0  0  0  0  0  0  0  0
   38.9350   26.3320   33.5200 H   0  0  0  0  0  0  0  0  0  0  0  0
   36.8730   25.5020   35.6000 H   0  0  0  0  0  0  0  0  0  0  0  0
   37.8760   27.2090   37.0500 H   0  0  0  0  0  0  0  0  0  0  0  0
   39.2850   27.3890   35.8840 H   0  0  0  0  0  0  0  0  0  0  0  0
   37.3590   28.0960   33.1310 H   0  0  0  0  0  0  0  0  0  0  0  0
   36.0610   27.1850   33.9950 H   0  0  0  0  0  0  0  0  0  0  0  0
   39.5810   22.7180   36.8520 C   0  0  0  0  0  0  0  0  0  0  0  0
   38.5820   23.6880   36.5770 C   0  0  0  0  0  0  0  0  0  0  0  0
   38.9030   24.7770   35.7270 C   0  0  0  0  0  0  0  0  0  0  0  0
   40.1770   24.8200   35.2200 N   0  0  0  0  0  0  0  0  0  0  0  0
   41.0940   23.8970   35.4950 C   0  0  0  0  0  0  0  0  0  0  0  0
   40.8150   22.8400   36.3090 N   0  0  0  0  0  0  0  0  0  0  0  0
   39.3570   21.8800   37.4970 H   0  0  0  0  0  0  0  0  0  0  0  0
   37.6050   23.5810   37.0140 H   0  0  0  0  0  0  0  0  0  0  0  0
   42.0900   24.0060   35.0490 H   0  0  0  0  0  0  0  0  0  0  0  0
   37.1840   25.2180   33.2110 O   0  0  0  0  0  0  0  0  0  0  0  0
   37.8870   24.8350   31.0180 C   0  0  1  0  0  3  0  0  0  0  0  0
   37.9640   24.3650   32.4780 C   0  0  2  0  0  3  0  0  0  0  0  0
   37.5320   22.9370   32.5260 C   0  0  0  0  0  3  0  0  0  0  0  0
   36.6210   22.8570   33.1570 H   0  0  0  0  0  0  0  0  0  0  0  0
   37.1720   22.4080   31.2890 O   0  0  0  0  0  0  0  0  0  0  0  0
   38.2230   22.4710   30.3750 C   0  0  0  0  0  3  0  0  0  0  0  0
   37.8040   22.1590   29.3860 H   0  0  0  0  0  0  0  0  0  0  0  0
   38.7380   23.8760   30.2220 C   0  0  1  0  0  3  0  0  0  0  0  0
   36.5770   24.9080   30.5820 O   0  0  0  0  0  0  0  0  0  0  0  0
   35.9510   24.8030   31.3280 H   0  0  0  0  0  0  0  0  0  0  0  0
   38.8300   24.2340   28.8850 O   0  0  0  0  0  0  0  0  0  0  0  0
   38.0560   24.7770   28.6270 H   0  0  0  0  0  0  0  0  0  0  0  0
  1  6  1  6  0  0  0
  1  5  1  0  0  0  0
  1  2  1  0  0  0  0
  2  7  1  1  0  0  0
  2 14  1  0  0  0  0
  2  3  1  0  0  0  0
  3  8  1  0  0  0  0
  4  3  1  0  0  0  0
  5  4  1  0  0  0  0
  9  3  1  0  0  0  0
 10  5  1  0  0  0  0
 11  5  1  0  0  0  0
 12 18  1  0  0  0  0
 13 12  1  0  0  0  0
 13 19  1  0  0  0  0
 14 13  2  0  0  0  0
 15 16  2  0  0  0  0
 15 14  1  0  0  0  0
 16 17  1  0  0  0  0
 17 12  2  0  0  0  0
 20 16  1  0  0  0  0
 21  1  1  0  0  0  0
 22 30  1  6  0  0  0
 22 23  1  0  0  0  0
 23 24  1  0  0  0  0
 23 21  1  1  0  0  0
 24 25  1  0  0  0  0
 26 24  1  0  0  0  0
 27 26  1  0  0  0  0
 28 27  1  0  0  0  0
 29 32  1  6  0  0  0
 29 27  1  0  0  0  0
 29 22  1  0  0  0  0
 30 31  1  0  0  0  0
 33 32  1  0  0  0  0
M  END
>  <minimizedAffinity>
-4.64218855

$$$$
