
 OpenBabel03272508263D

 41 44  0  0  1  0  0  0  0  0999 V2000
   33.8110   28.8650   47.2840 C   0  0  2  0  0  0  0  0  0  0  0  0
   34.5560   28.1110   48.3770 C   0  0  2  0  0  0  0  0  0  0  0  0
   33.6490   27.8900   49.3650 O   0  0  0  0  0  0  0  0  0  0  0  0
   32.3820   27.9100   48.8650 C   0  0  0  0  0  0  0  0  0  0  0  0
   32.4670   28.1310   47.3650 C   0  0  1  0  0  0  0  0  0  0  0  0
   33.6130   29.9060   47.5900 H   0  0  0  0  0  0  0  0  0  0  0  0
   34.8880   27.1390   47.9700 H   0  0  0  0  0  0  0  0  0  0  0  0
   31.8550   26.9380   49.0280 H   0  0  0  0  0  0  0  0  0  0  0  0
   31.7390   28.7010   49.3240 H   0  0  0  0  0  0  0  0  0  0  0  0
   32.6530   27.1590   46.8870 H   0  0  0  0  0  0  0  0  0  0  0  0
   35.5730   30.4180   48.9580 C   0  0  1  0  0  0  0  0  0  0  0  0
   35.6820   28.9850   48.8290 C   0  0  1  0  0  0  0  0  0  0  0  0
   35.7300   29.5480   50.2110 C   0  0  0  0  0  0  0  0  0  0  0  0
   34.6560   31.0270   49.0410 H   0  0  0  0  0  0  0  0  0  0  0  0
   36.6780   28.6050   48.4610 H   0  0  0  0  0  0  0  0  0  0  0  0
   36.7020   29.5850   50.7610 H   0  0  0  0  0  0  0  0  0  0  0  0
   34.8850   29.4360   50.9000 H   0  0  0  0  0  0  0  0  0  0  0  0
   36.7770   31.3200   48.7390 C   0  0  0  0  0  0  0  0  0  0  0  0
   37.0390   32.2780   49.7190 C   0  0  0  0  0  0  0  0  0  0  0  0
   38.1340   33.0960   49.4520 C   0  0  0  0  0  0  0  0  0  0  0  0
   38.8680   32.9470   48.3130 N   0  0  0  0  0  0  0  0  0  0  0  0
   38.5730   32.0000   47.3910 C   0  0  0  0  0  0  0  0  0  0  0  0
   37.5160   31.1790   47.6090 N   0  0  0  0  0  0  0  0  0  0  0  0
   36.4270   32.3520   50.6000 H   0  0  0  0  0  0  0  0  0  0  0  0
   38.3980   33.8590   50.1620 H   0  0  0  0  0  0  0  0  0  0  0  0
   39.1350   31.8560   46.4790 H   0  0  0  0  0  0  0  0  0  0  0  0
   34.3740   28.7290   46.0300 O   0  0  0  0  0  0  0  0  0  0  0  0
   34.1520   29.5550   45.5330 H   0  0  0  0  0  0  0  0  0  0  0  0
   31.4480   28.8770   46.8570 O   0  0  0  0  0  0  0  0  0  0  0  0
   29.1080   29.4830   46.8320 C   0  0  2  0  0  3  0  0  0  0  0  0
   30.1800   28.4600   47.1320 C   0  0  1  0  0  3  0  0  0  0  0  0
   29.7690   27.1900   46.4420 C   0  0  0  0  0  3  0  0  0  0  0  0
   29.8230   27.2530   45.3410 H   0  0  0  0  0  0  0  0  0  0  0  0
   28.4630   26.8980   46.7650 O   0  0  0  0  0  0  0  0  0  0  0  0
   27.9700   27.5880   47.8490 C   0  0  0  0  0  3  0  0  0  0  0  0
   28.4390   27.3180   48.8210 H   0  0  0  0  0  0  0  0  0  0  0  0
   27.8930   29.0880   47.6480 C   0  0  2  0  0  3  0  0  0  0  0  0
   28.7320   29.3090   45.4860 O   0  0  0  0  0  0  0  0  0  0  0  0
   27.9310   28.7390   45.3910 H   0  0  0  0  0  0  0  0  0  0  0  0
   26.7140   29.4610   47.0060 O   0  0  0  0  0  0  0  0  0  0  0  0
   26.8250   30.3710   46.6280 H   0  0  0  0  0  0  0  0  0  0  0  0
  1  5  1  0  0  0  0
  1  6  1  1  0  0  0
  1  2  1  0  0  0  0
  2  7  1  6  0  0  0
  2 12  1  0  0  0  0
  2  3  1  0  0  0  0
  4  8  1  0  0  0  0
  4  9  1  0  0  0  0
  4  3  1  0  0  0  0
  5 10  1  6  0  0  0
  5  4  1  0  0  0  0
 11 14  1  6  0  0  0
 11 13  1  0  0  0  0
 12 15  1  6  0  0  0
 12 11  1  0  0  0  0
 12 13  1  0  0  0  0
 13 16  1  0  0  0  0
 13 17  1  0  0  0  0
 18 11  1  0  0  0  0
 18 19  1  0  0  0  0
 19 24  1  0  0  0  0
 20 19  2  0  0  0  0
 20 25  1  0  0  0  0
 21 20  1  0  0  0  0
 22 23  1  0  0  0  0
 22 21  2  0  0  0  0
 23 18  2  0  0  0  0
 26 22  1  0  0  0  0
 27  1  1  0  0  0  0
 28 27  1  0  0  0  0
 29  5  1  0  0  0  0
 30 38  1  6  0  0  0
 30 31  1  0  0  0  0
 30 37  1  0  0  0  0
 31 29  1  6  0  0  0
 32 34  1  0  0  0  0
 32 31  1  0  0  0  0
 33 32  1  0  0  0  0
 34 35  1  0  0  0  0
 35 36  1  0  0  0  0
 37 40  1  6  0  0  0
 37 35  1  0  0  0  0
 39 38  1  0  0  0  0
 41 40  1  0  0  0  0
M  END
>  <minimizedAffinity>
-5.68651485

>  <minimizedRMSD>
1.73156834

$$$$
