REMARK  Name = 
REMARK  5 active torsions:
REMARK  status: ('A' for Active; 'I' for Inactive)
REMARK    1  A    between atoms: N_1  and  C_10
REMARK    2  A    between atoms: C_13  and  O_15
REMARK    3  A    between atoms: O_15  and  C_23
REMARK    4  A    between atoms: O_21  and  C_22
REMARK    5  A    between atoms: C_29  and  O_30
REMARK                            x       y       z     vdW  Elec       q    Type
REMARK                         _______ _______ _______ _____ _____    ______ ____
ROOT
ATOM      1  C   UNL     1      36.164  29.247  49.300  0.00  0.00    +0.000 A 
ATOM      2  C   UNL     1      35.993  30.408  48.489  0.00  0.00    +0.000 A 
ATOM      3  C   UNL     1      34.873  30.448  47.686  0.00  0.00    +0.000 A 
ATOM      4  N   UNL     1      34.001  29.404  47.701  0.00  0.00    +0.000 NA
ATOM      5  C   UNL     1      34.178  28.329  48.465  0.00  0.00    +0.000 A 
ATOM      6  N   UNL     1      35.269  28.237  49.280  0.00  0.00    +0.000 NA
ATOM      7  H   UNL     1      37.034  29.179  49.947  0.00  0.00    +0.000 HD
ATOM      8  H   UNL     1      34.747  31.323  47.076  0.00  0.00    +0.000 HD
ENDROOT
BRANCH   2   9
ATOM      9  N   UNL     1      36.979  31.421  48.572  0.00  0.00    +0.000 N 
ATOM     10  C   UNL     1      37.158  32.166  49.664  0.00  0.00    +0.000 A 
ATOM     11  C   UNL     1      38.151  33.150  49.676  0.00  0.00    +0.000 A 
ATOM     12  C   UNL     1      38.869  33.253  48.516  0.00  0.00    +0.000 A 
ATOM     13  O   UNL     1      39.775  34.141  48.509  0.00  0.00    +0.000 OA
ATOM     14  N   UNL     1      38.719  32.531  47.413  0.00  0.00    +0.000 N 
ATOM     15  C   UNL     1      37.742  31.589  47.451  0.00  0.00    +0.000 A 
ATOM     16  O   UNL     1      37.584  30.884  46.397  0.00  0.00    +0.000 OA
ATOM     17  H   UNL     1      36.529  32.000  50.533  0.00  0.00    +0.000 HD
ATOM     18  H   UNL     1      38.322  33.771  50.546  0.00  0.00    +0.000 HD
ATOM     19  H   UNL     1      39.314  32.675  46.566  0.00  0.00    +0.000 HD
ENDBRANCH   2   9
BRANCH   5  20
ATOM     20  O   UNL     1      33.300  27.264  48.489  0.00  0.00    +0.000 OA
BRANCH  20  22
ATOM     21  C   UNL     1      30.904  27.669  48.433  0.00  0.00    +0.000 C 
ATOM     22  C   UNL     1      32.133  27.141  47.749  0.00  0.00    +0.000 C 
ATOM     23  C   UNL     1      32.230  27.845  46.396  0.00  0.00    +0.000 C 
ATOM     24  H   UNL     1      32.301  28.943  46.549  0.00  0.00    +0.000 HD
ATOM     25  O   UNL     1      31.178  27.468  45.587  0.00  0.00    +0.000 OA
ATOM     26  C   UNL     1      29.943  27.767  46.104  0.00  0.00    +0.000 C 
ATOM     27  H   UNL     1      29.239  26.903  46.099  0.00  0.00    +0.000 HD
ATOM     28  C   UNL     1      29.953  28.354  47.475  0.00  0.00    +0.000 C 
BRANCH  21  29
ATOM     29  O   UNL     1      30.198  26.614  49.026  0.00  0.00    +0.000 OA
ATOM     30  H   UNL     1      30.396  25.755  48.555  0.00  0.00    +0.000 HD
ENDBRANCH  21  29
BRANCH  28  31
ATOM     31  O   UNL     1      30.189  29.743  47.459  0.00  0.00    +0.000 OA
ATOM     32  H   UNL     1      30.583  30.069  48.302  0.00  0.00    +0.000 HD
ENDBRANCH  28  31
ENDBRANCH  20  22
ENDBRANCH   5  20
TORSDOF 5
