
 OpenBabel03272500043D

 32 34  0  0  1  0  0  0  0  0999 V2000
   35.8870   29.3210   49.2970 C   0  0  0  0  0  0  0  0  0  0  0  0
   35.8200   30.4500   48.4290 C   0  0  0  0  0  0  0  0  0  0  0  0
   34.7190   30.5370   47.6040 C   0  0  0  0  0  0  0  0  0  0  0  0
   33.7680   29.5660   47.6520 N   0  0  0  0  0  0  0  0  0  0  0  0
   33.8480   28.5190   48.4700 C   0  0  0  0  0  0  0  0  0  0  0  0
   34.9160   28.3830   49.3090 N   0  0  0  0  0  0  0  0  0  0  0  0
   36.7390   29.2170   49.9630 H   0  0  0  0  0  0  0  0  0  0  0  0
   34.6710   31.3880   46.9500 H   0  0  0  0  0  0  0  0  0  0  0  0
   36.8810   31.3860   48.4820 N   0  0  0  0  0  0  0  0  0  0  0  0
   37.2020   32.0510   49.5930 C   0  0  0  0  0  0  0  0  0  0  0  0
   38.2620   32.9620   49.5730 C   0  0  0  0  0  0  0  0  0  0  0  0
   38.8890   33.0850   48.3640 C   0  0  0  0  0  0  0  0  0  0  0  0
   39.8540   33.9080   48.3280 O   0  0  0  0  0  0  0  0  0  0  0  0
   38.5980   32.4420   47.2400 N   0  0  0  0  0  0  0  0  0  0  0  0
   37.5610   31.5680   47.3110 C   0  0  0  0  0  0  0  0  0  0  0  0
   37.2670   30.9400   46.2380 O   0  0  0  0  0  0  0  0  0  0  0  0
   36.6350   31.8770   50.5020 H   0  0  0  0  0  0  0  0  0  0  0  0
   38.5480   33.5170   50.4580 H   0  0  0  0  0  0  0  0  0  0  0  0
   39.1320   32.5950   46.3550 H   0  0  0  0  0  0  0  0  0  0  0  0
   32.8890   27.5280   48.5280 O   0  0  0  0  0  0  0  0  0  0  0  0
   30.9630   27.9260   47.0990 C   0  0  1  0  0  3  0  0  0  0  0  0
   31.5150   27.7070   48.4780 C   0  0  1  0  0  3  0  0  0  0  0  0
   30.7570   26.5230   49.0810 C   0  0  0  0  0  3  0  0  0  0  0  0
   30.9030   25.6230   48.4470 H   0  0  0  0  0  0  0  0  0  0  0  0
   29.4310   26.8540   49.2720 O   0  0  0  0  0  0  0  0  0  0  0  0
   28.7740   27.2040   48.1200 C   0  0  0  0  0  3  0  0  0  0  0  0
   28.2180   28.1660   48.2000 H   0  0  0  0  0  0  0  0  0  0  0  0
   29.6210   27.2550   46.8940 C   0  0  2  0  0  3  0  0  0  0  0  0
   30.7730   29.2960   46.8730 O   0  0  0  0  0  0  0  0  0  0  0  0
   30.6430   29.7770   47.7390 H   0  0  0  0  0  0  0  0  0  0  0  0
   29.7940   25.9840   46.3100 O   0  0  0  0  0  0  0  0  0  0  0  0
   30.6210   25.9210   45.7780 H   0  0  0  0  0  0  0  0  0  0  0  0
  1  6  1  0  0  0  0
  1  7  1  0  0  0  0
  2  9  1  0  0  0  0
  2  1  2  0  0  0  0
  3  4  2  0  0  0  0
  3  2  1  0  0  0  0
  4  5  1  0  0  0  0
  5 20  1  0  0  0  0
  5  6  2  0  0  0  0
  8  3  1  0  0  0  0
  9 10  1  0  0  0  0
 10 17  1  0  0  0  0
 11 10  2  0  0  0  0
 11 18  1  0  0  0  0
 12 11  1  0  0  0  0
 13 12  2  0  0  0  0
 14 15  1  0  0  0  0
 14 12  1  0  0  0  0
 15  9  1  0  0  0  0
 16 15  2  0  0  0  0
 19 14  1  0  0  0  0
 21 29  1  1  0  0  0
 21 22  1  0  0  0  0
 22 20  1  6  0  0  0
 22 23  1  0  0  0  0
 23 25  1  0  0  0  0
 24 23  1  0  0  0  0
 26 27  1  0  0  0  0
 26 25  1  0  0  0  0
 28 31  1  1  0  0  0
 28 21  1  0  0  0  0
 28 26  1  0  0  0  0
 29 30  1  0  0  0  0
 32 31  1  0  0  0  0
M  END
>  <minimizedAffinity>
-5.7116437

>  <minimizedRMSD>
1.33886421

$$$$
