
     RDKit          3D

 37 39  0  0  0  0  0  0  0  0999 V2000
   36.9790   31.4214   48.5718 N   0  0  0  0  0  0  0  0  0  0  0  0
   37.1581   32.1663   49.6638 C   0  0  0  0  0  0  0  0  0  0  0  0
   38.1510   33.1504   49.6765 C   0  0  0  0  0  0  0  0  0  0  0  0
   38.8688   33.2530   48.5163 C   0  0  0  0  0  0  0  0  0  0  0  0
   39.7748   34.1410   48.5089 O   0  0  0  0  0  0  0  0  0  0  0  0
   38.7187   32.5306   47.4128 N   0  0  0  0  0  0  0  0  0  0  0  0
   37.7417   31.5886   47.4508 C   0  0  0  0  0  0  0  0  0  0  0  0
   37.5839   30.8845   46.3969 O   0  0  0  0  0  0  0  0  0  0  0  0
   36.1639   29.2472   49.3004 C   0  0  0  0  0  0  0  0  0  0  0  0
   35.9927   30.4076   48.4894 C   0  0  0  0  0  0  0  0  0  0  0  0
   34.8731   30.4481   47.6856 C   0  0  0  0  0  0  0  0  0  0  0  0
   34.0011   29.4041   47.7008 N   0  0  0  0  0  0  0  0  0  0  0  0
   34.1780   28.3293   48.4648 C   0  0  0  0  0  0  0  0  0  0  0  0
   35.2689   28.2368   49.2796 N   0  0  0  0  0  0  0  0  0  0  0  0
   33.3004   27.2643   48.4886 O   0  0  0  0  0  0  0  0  0  0  0  0
   36.5293   32.0000   50.5331 H   0  0  0  0  0  0  0  0  0  0  0  0
   38.3217   33.7713   50.5463 H   0  0  0  0  0  0  0  0  0  0  0  0
   39.3136   32.6750   46.5655 H   0  0  0  0  0  0  0  0  0  0  0  0
   37.0344   29.1792   49.9472 H   0  0  0  0  0  0  0  0  0  0  0  0
   34.7472   31.3232   47.0762 H   0  0  0  0  0  0  0  0  0  0  0  0
   30.3370   26.0838   48.8938 O   0  0  0  0  0  0  0  0  0  0  0  0
   30.8713   27.3303   48.5414 C   0  0  1  0  0  0  0  0  0  0  0  0
   32.1327   27.1406   47.7492 C   0  0  1  0  0  0  0  0  0  0  0  0
   32.0820   28.1274   46.5825 C   0  0  1  0  0  0  0  0  0  0  0  0
   32.0092   29.1652   46.9726 H   0  0  0  0  0  0  0  0  0  0  0  0
   31.0599   27.7900   45.7185 O   0  0  0  0  0  0  0  0  0  0  0  0
   29.8166   27.7935   46.2982 C   0  0  2  0  0  0  0  0  0  0  0  0
   29.2365   26.8617   46.1093 H   0  0  0  0  0  0  0  0  0  0  0  0
   29.7993   28.0663   47.7648 C   0  0  2  0  0  0  0  0  0  0  0  0
   29.8447   29.4443   48.0522 O   0  0  0  0  0  0  0  0  0  0  0  0
   30.6315   25.3832   48.2450 H   0  0  0  0  0  0  0  0  0  0  0  0
   31.0330   27.9607   49.4626 H   0  0  0  0  0  0  0  0  0  0  0  0
   32.1133   26.1132   47.3327 H   0  0  0  0  0  0  0  0  0  0  0  0
   33.0343   28.0529   46.0323 H   0  0  0  0  0  0  0  0  0  0  0  0
   29.1966   28.6117   45.8310 H   0  0  0  0  0  0  0  0  0  0  0  0
   28.7948   27.7233   48.1470 H   0  0  0  0  0  0  0  0  0  0  0  0
   30.2230   29.6328   48.9431 H   0  0  0  0  0  0  0  0  0  0  0  0
  1  2  1  0
  2  3  2  0
  4  5  2  0
  4  3  1  0
  6  7  1  0
  6  4  1  0
  7  1  1  0
  8  7  2  0
 10  1  1  0
 10  9  2  0
 11 12  2  0
 11 10  1  0
 12 13  1  0
 13 15  1  0
 13 14  2  0
 14  9  1  0
  2 16  1  0
  3 17  1  0
  6 18  1  0
  9 19  1  0
 11 20  1  0
 21 22  1  0
 22 23  1  0
 23 24  1  0
 24 25  1  1
 24 26  1  0
 26 27  1  0
 27 28  1  1
 27 29  1  0
 29 30  1  0
 29 22  1  0
 21 31  1  0
 22 32  1  1
 23 33  1  6
 24 34  1  0
 27 35  1  0
 29 36  1  1
 30 37  1  0
 15 23  1  0
M  ISO  7  16  14  17  14  18   9  19  14  20  14  25   8  28   8
M  END
>  <DihAtoms>  (1) 
12,14,22,21

>  <DihDeg>  (1) 
119.19743833209883

$$$$
