
 OpenBabel03272500043D

 32 34  0  0  1  0  0  0  0  0999 V2000
   36.3910   29.2700   49.3110 C   0  0  0  0  0  0  0  0  0  0  0  0
   36.1130   30.4650   48.5820 C   0  0  0  0  0  0  0  0  0  0  0  0
   34.9060   30.5250   47.9200 C   0  0  0  0  0  0  0  0  0  0  0  0
   34.0520   29.4680   47.9880 N   0  0  0  0  0  0  0  0  0  0  0  0
   34.3290   28.3610   48.6730 C   0  0  0  0  0  0  0  0  0  0  0  0
   35.5100   28.2480   49.3480 N   0  0  0  0  0  0  0  0  0  0  0  0
   37.3320   29.1860   49.8460 H   0  0  0  0  0  0  0  0  0  0  0  0
   34.6990   31.4250   47.3720 H   0  0  0  0  0  0  0  0  0  0  0  0
   37.0920   31.4880   48.5970 N   0  0  0  0  0  0  0  0  0  0  0  0
   37.3020   32.2710   49.6570 C   0  0  0  0  0  0  0  0  0  0  0  0
   38.2860   33.2630   49.6020 C   0  0  0  0  0  0  0  0  0  0  0  0
   38.9610   33.3330   48.4140 C   0  0  0  0  0  0  0  0  0  0  0  0
   39.8580   34.2280   48.3460 O   0  0  0  0  0  0  0  0  0  0  0  0
   38.7800   32.5740   47.3410 N   0  0  0  0  0  0  0  0  0  0  0  0
   37.8140   31.6260   47.4450 C   0  0  0  0  0  0  0  0  0  0  0  0
   37.6250   30.8850   46.4210 O   0  0  0  0  0  0  0  0  0  0  0  0
   36.7060   32.1280   50.5530 H   0  0  0  0  0  0  0  0  0  0  0  0
   38.4810   33.9130   50.4440 H   0  0  0  0  0  0  0  0  0  0  0  0
   39.3430   32.6950   46.4700 H   0  0  0  0  0  0  0  0  0  0  0  0
   33.4710   27.2830   48.7490 O   0  0  0  0  0  0  0  0  0  0  0  0
   31.1260   27.7260   48.2860 C   0  0  1  0  0  3  0  0  0  0  0  0
   32.3980   27.0220   47.9080 C   0  0  1  0  0  3  0  0  0  0  0  0
   32.7000   27.3900   46.4560 C   0  0  0  0  0  3  0  0  0  0  0  0
   32.8130   28.4910   46.3640 H   0  0  0  0  0  0  0  0  0  0  0  0
   31.7350   26.8630   45.6210 O   0  0  0  0  0  0  0  0  0  0  0  0
   30.4650   27.3070   45.8890 C   0  0  0  0  0  3  0  0  0  0  0  0
   29.7190   26.4850   45.9870 H   0  0  0  0  0  0  0  0  0  0  0  0
   30.3390   28.1960   47.0810 C   0  0  2  0  0  3  0  0  0  0  0  0
   30.2950   26.8570   49.0040 O   0  0  0  0  0  0  0  0  0  0  0  0
   30.5000   25.9070   48.7710 H   0  0  0  0  0  0  0  0  0  0  0  0
   30.6540   29.5350   46.7820 O   0  0  0  0  0  0  0  0  0  0  0  0
   30.9590   30.0380   47.5730 H   0  0  0  0  0  0  0  0  0  0  0  0
  1  6  1  0  0  0  0
  1  7  1  0  0  0  0
  2  9  1  0  0  0  0
  2  1  2  0  0  0  0
  3  4  2  0  0  0  0
  3  2  1  0  0  0  0
  4  5  1  0  0  0  0
  5 20  1  0  0  0  0
  5  6  2  0  0  0  0
  8  3  1  0  0  0  0
  9 10  1  0  0  0  0
 10 17  1  0  0  0  0
 11 10  2  0  0  0  0
 11 18  1  0  0  0  0
 12 11  1  0  0  0  0
 13 12  2  0  0  0  0
 14 15  1  0  0  0  0
 14 12  1  0  0  0  0
 15  9  1  0  0  0  0
 16 15  2  0  0  0  0
 19 14  1  0  0  0  0
 21 29  1  6  0  0  0
 22 21  1  0  0  0  0
 22 20  1  1  0  0  0
 23 22  1  0  0  0  0
 24 23  1  0  0  0  0
 25 26  1  0  0  0  0
 25 23  1  0  0  0  0
 26 27  1  0  0  0  0
 26 28  1  0  0  0  0
 28 31  1  6  0  0  0
 28 21  1  0  0  0  0
 30 29  1  0  0  0  0
 31 32  1  0  0  0  0
M  END
>  <minimizedAffinity>
-5.72692728

>  <minimizedRMSD>
0.581589401

$$$$
