
 OpenBabel03262522153D

 48 51  0  0  1  0  0  0  0  0999 V2000
   39.6480   32.9010   44.1580 C   0  0  0  0  0  0  0  0  0  0  0  0
   39.8670   33.6160   43.3310 H   0  0  0  0  0  0  0  0  0  0  0  0
   38.5730   32.8100   44.2930 H   0  0  0  0  0  0  0  0  0  0  0  0
   39.5060   29.6530   42.7730 C   0  0  1  0  0  0  0  0  0  0  0  0
   39.8000   31.0980   42.4520 C   0  0  0  0  0  0  0  0  0  0  0  0
   40.3140   31.5910   43.7780 C   0  0  2  0  0  0  0  0  0  0  0  0
   40.1140   30.6120   44.7170 O   0  0  0  0  0  0  0  0  0  0  0  0
   39.1400   29.7560   44.2470 C   0  0  0  0  0  0  0  0  0  0  0  0
   40.4280   29.0510   42.7100 H   0  0  0  0  0  0  0  0  0  0  0  0
   38.8710   31.6490   42.2010 H   0  0  0  0  0  0  0  0  0  0  0  0
   40.5370   31.1860   41.6390 H   0  0  0  0  0  0  0  0  0  0  0  0
   41.4210   31.7070   43.6590 H   0  0  0  0  0  0  0  0  0  0  0  0
   38.1060   30.1280   44.3850 H   0  0  0  0  0  0  0  0  0  0  0  0
   39.2930   28.7760   44.7760 H   0  0  0  0  0  0  0  0  0  0  0  0
   38.4610   29.1490   42.0250 O   0  0  0  0  0  0  0  0  0  0  0  0
   37.3500   27.1360   41.7190 C   0  0  1  0  0  0  0  0  0  0  0  0
   38.6760   27.8550   41.5690 C   0  0  2  0  0  0  0  0  0  0  0  0
   39.7020   27.1150   42.3640 C   0  0  0  0  0  0  0  0  0  0  0  0
   40.6200   26.9400   41.7540 H   0  0  0  0  0  0  0  0  0  0  0  0
   39.2830   25.9230   42.9030 O   0  0  0  0  0  0  0  0  0  0  0  0
   38.6570   25.0910   41.9910 C   0  0  0  0  0  0  0  0  0  0  0  0
   39.3570   24.6330   41.2630 H   0  0  0  0  0  0  0  0  0  0  0  0
   37.4780   25.7040   41.3050 C   0  0  2  0  0  0  0  0  0  0  0  0
   36.7980   27.2800   42.9850 O   0  0  0  0  0  0  0  0  0  0  0  0
   37.4120   27.7090   43.6300 H   0  0  0  0  0  0  0  0  0  0  0  0
   37.6640   25.6790   39.9110 O   0  0  0  0  0  0  0  0  0  0  0  0
   36.7780   25.5620   39.4500 H   0  0  0  0  0  0  0  0  0  0  0  0
   40.5280   33.5610   45.6090 S   0  0  0  0  0  0  0  0  0  0  0  0
   37.7580   31.8960   47.9100 C   0  0  0  0  0  0  0  0  0  0  0  0
   37.8780   32.5790   49.1370 C   0  0  0  0  0  0  0  0  0  0  0  0
   38.8200   33.5790   49.2990 C   0  0  0  0  0  0  0  0  0  0  0  0
   39.6130   33.8570   48.2090 C   0  0  0  0  0  0  0  0  0  0  0  0
   39.4700   33.1790   47.0400 C   0  0  0  0  0  0  0  0  0  0  0  0
   38.5530   32.1970   46.8650 N   0  0  0  0  0  0  0  0  0  0  0  0
   37.2530   32.3480   49.9710 H   0  0  0  0  0  0  0  0  0  0  0  0
   38.9490   34.1300   50.2210 H   0  0  0  0  0  0  0  0  0  0  0  0
   40.3670   34.6360   48.2890 H   0  0  0  0  0  0  0  0  0  0  0  0
   36.7560   30.8680   47.8170 C   0  0  0  0  0  0  0  0  0  0  0  0
   36.3800   30.4450   46.7310 O   0  0  0  0  0  0  0  0  0  0  0  0
   36.9650   29.6180   49.9430 C   0  0  0  0  0  0  0  0  0  0  0  0
   36.1320   30.2720   49.0060 C   0  0  0  0  0  0  0  0  0  0  0  0
   34.7500   30.3270   49.2440 C   0  0  0  0  0  0  0  0  0  0  0  0
   34.2570   29.7460   50.3730 N   0  0  0  0  0  0  0  0  0  0  0  0
   35.0780   29.1280   51.2510 C   0  0  0  0  0  0  0  0  0  0  0  0
   36.4040   29.0650   51.0410 N   0  0  0  0  0  0  0  0  0  0  0  0
   38.0330   29.5540   49.7980 H   0  0  0  0  0  0  0  0  0  0  0  0
   34.1770   30.8340   48.5000 H   0  0  0  0  0  0  0  0  0  0  0  0
   34.5670   28.7000   52.1190 H   0  0  0  0  0  0  0  0  0  0  0  0
  1  3  1  0  0  0  0
  1 28  1  0  0  0  0
  2  1  1  0  0  0  0
  4  9  1  6  0  0  0
  4  8  1  0  0  0  0
  5  4  1  0  0  0  0
  5  6  1  0  0  0  0
  6 12  1  6  0  0  0
  6  1  1  0  0  0  0
  6  7  1  0  0  0  0
  8 13  1  0  0  0  0
  8  7  1  0  0  0  0
  8 14  1  0  0  0  0
 10  5  1  0  0  0  0
 11  5  1  0  0  0  0
 15  4  1  0  0  0  0
 16 24  1  1  0  0  0
 17 16  1  0  0  0  0
 17 15  1  1  0  0  0
 17 18  1  0  0  0  0
 18 20  1  0  0  0  0
 19 18  1  0  0  0  0
 21 20  1  0  0  0  0
 22 21  1  0  0  0  0
 23 26  1  6  0  0  0
 23 16  1  0  0  0  0
 23 21  1  0  0  0  0
 24 25  1  0  0  0  0
 27 26  1  0  0  0  0
 28 33  1  0  0  0  0
 29 30  1  0  0  0  0
 30 31  2  0  0  0  0
 30 35  1  0  0  0  0
 31 36  1  0  0  0  0
 32 37  1  0  0  0  0
 32 31  1  0  0  0  0
 33 32  2  0  0  0  0
 34 33  1  0  0  0  0
 34 29  2  0  0  0  0
 38 29  1  0  0  0  0
 38 41  1  0  0  0  0
 39 38  2  0  0  0  0
 40 45  1  0  0  0  0
 41 42  1  0  0  0  0
 41 40  2  0  0  0  0
 42 43  2  0  0  0  0
 43 44  1  0  0  0  0
 44 48  1  0  0  0  0
 45 44  2  0  0  0  0
 46 40  1  0  0  0  0
 47 42  1  0  0  0  0
M  END
>  <minimizedAffinity>
-5.61029625

>  <minimizedRMSD>
1.2292459

$$$$
