
 OpenBabel03262522173D

 48 51  0  0  1  0  0  0  0  0999 V2000
   35.9240   26.9850   31.3910 C   0  0  0  0  0  0  0  0  0  0  0  0
   35.0800   27.5780   30.9690 H   0  0  0  0  0  0  0  0  0  0  0  0
   35.7490   26.7920   32.4480 H   0  0  0  0  0  0  0  0  0  0  0  0
   35.9450   23.4610   31.1300 C   0  0  1  0  0  0  0  0  0  0  0  0
   35.0540   24.6780   31.0730 C   0  0  0  0  0  0  0  0  0  0  0  0
   36.0130   25.7170   30.5610 C   0  0  2  0  0  0  0  0  0  0  0  0
   37.2770   25.1830   30.5580 O   0  0  0  0  0  0  0  0  0  0  0  0
   37.2920   24.1060   31.4190 C   0  0  0  0  0  0  0  0  0  0  0  0
   36.0180   22.9930   30.1330 H   0  0  0  0  0  0  0  0  0  0  0  0
   34.7140   24.9720   32.0870 H   0  0  0  0  0  0  0  0  0  0  0  0
   34.1930   24.5130   30.4070 H   0  0  0  0  0  0  0  0  0  0  0  0
   35.7340   25.8990   29.4930 H   0  0  0  0  0  0  0  0  0  0  0  0
   37.3900   24.3830   32.4870 H   0  0  0  0  0  0  0  0  0  0  0  0
   38.1420   23.4470   31.0920 H   0  0  0  0  0  0  0  0  0  0  0  0
   35.5770   22.5830   32.1310 O   0  0  0  0  0  0  0  0  0  0  0  0
   35.2780   20.4430   32.9710 C   0  0  1  0  0  3  0  0  0  0  0  0
   35.5230   21.2590   31.7180 C   0  0  2  0  0  3  0  0  0  0  0  0
   36.7950   20.7860   31.0920 C   0  0  0  0  0  3  0  0  0  0  0  0
   36.6510   20.6020   30.0010 H   0  0  0  0  0  0  0  0  0  0  0  0
   37.3560   19.6730   31.6680 O   0  0  0  0  0  0  0  0  0  0  0  0
   36.4640   18.6290   31.8450 C   0  0  0  0  0  3  0  0  0  0  0  0
   36.1860   18.1250   30.8970 H   0  0  0  0  0  0  0  0  0  0  0  0
   35.2550   18.9810   32.6510 C   0  0  2  0  0  3  0  0  0  0  0  0
   36.1610   20.7520   33.9970 O   0  0  0  0  0  0  0  0  0  0  0  0
   36.8930   21.3520   33.7130 H   0  0  0  0  0  0  0  0  0  0  0  0
   34.0880   18.7260   31.9090 O   0  0  0  0  0  0  0  0  0  0  0  0
   33.3480   18.4360   32.5240 H   0  0  0  0  0  0  0  0  0  0  0  0
   37.4190   27.9670   31.0510 S   0  0  0  0  0  0  0  0  0  0  0  0
   38.9950   26.7390   34.4790 C   0  0  0  0  0  0  0  0  0  0  0  0
   40.3830   26.7470   34.2380 C   0  0  0  0  0  0  0  0  0  0  0  0
   40.8850   27.1310   33.0070 C   0  0  0  0  0  0  0  0  0  0  0  0
   39.9600   27.4980   32.0560 C   0  0  0  0  0  0  0  0  0  0  0  0
   38.6270   27.4790   32.3220 C   0  0  0  0  0  0  0  0  0  0  0  0
   38.1200   27.1050   33.5220 N   0  0  0  0  0  0  0  0  0  0  0  0
   41.0840   26.4580   34.9890 H   0  0  0  0  0  0  0  0  0  0  0  0
   41.9410   27.1530   32.7760 H   0  0  0  0  0  0  0  0  0  0  0  0
   40.3060   27.8080   31.0740 H   0  0  0  0  0  0  0  0  0  0  0  0
   38.5490   26.3270   35.7820 C   0  0  0  0  0  0  0  0  0  0  0  0
   38.4320   27.1320   36.6980 O   0  0  0  0  0  0  0  0  0  0  0  0
   37.9060   24.5960   37.4300 C   0  0  0  0  0  0  0  0  0  0  0  0
   38.2120   24.9300   36.0900 C   0  0  0  0  0  0  0  0  0  0  0  0
   38.1840   23.9240   35.1130 C   0  0  0  0  0  0  0  0  0  0  0  0
   37.8610   22.6550   35.4900 N   0  0  0  0  0  0  0  0  0  0  0  0
   37.5720   22.3650   36.7780 C   0  0  0  0  0  0  0  0  0  0  0  0
   37.5940   23.3150   37.7290 N   0  0  0  0  0  0  0  0  0  0  0  0
   37.9160   25.3390   38.2130 H   0  0  0  0  0  0  0  0  0  0  0  0
   38.4240   24.2400   34.1230 H   0  0  0  0  0  0  0  0  0  0  0  0
   37.3280   21.3140   36.9580 H   0  0  0  0  0  0  0  0  0  0  0  0
  1  3  1  0  0  0  0
  2  1  1  0  0  0  0
  4  9  1  6  0  0  0
  4  8  1  0  0  0  0
  4 15  1  0  0  0  0
  5  4  1  0  0  0  0
  5 10  1  0  0  0  0
  6 12  1  6  0  0  0
  6  5  1  0  0  0  0
  6  1  1  0  0  0  0
  7  6  1  0  0  0  0
  7  8  1  0  0  0  0
  8 13  1  0  0  0  0
 11  5  1  0  0  0  0
 14  8  1  0  0  0  0
 16 24  1  1  0  0  0
 17 15  1  1  0  0  0
 17 16  1  0  0  0  0
 18 20  1  0  0  0  0
 18 17  1  0  0  0  0
 19 18  1  0  0  0  0
 20 21  1  0  0  0  0
 21 23  1  0  0  0  0
 22 21  1  0  0  0  0
 23 26  1  6  0  0  0
 23 16  1  0  0  0  0
 25 24  1  0  0  0  0
 26 27  1  0  0  0  0
 28  1  1  0  0  0  0
 28 33  1  0  0  0  0
 29 38  1  0  0  0  0
 30 29  1  0  0  0  0
 30 35  1  0  0  0  0
 31 30  2  0  0  0  0
 32 33  2  0  0  0  0
 32 31  1  0  0  0  0
 33 34  1  0  0  0  0
 34 29  2  0  0  0  0
 36 31  1  0  0  0  0
 37 32  1  0  0  0  0
 38 41  1  0  0  0  0
 38 39  2  0  0  0  0
 40 45  1  0  0  0  0
 40 46  1  0  0  0  0
 41 40  2  0  0  0  0
 42 43  2  0  0  0  0
 42 41  1  0  0  0  0
 43 44  1  0  0  0  0
 44 48  1  0  0  0  0
 44 45  2  0  0  0  0
 47 42  1  0  0  0  0
M  END
>  <minimizedAffinity>
-5.92630672

$$$$

 OpenBabel03262522173D

 48 51  0  0  1  0  0  0  0  0999 V2000
   37.4600   27.9700   31.4610 C   0  0  0  0  0  0  0  0  0  0  0  0
   37.8570   27.8340   30.4280 H   0  0  0  0  0  0  0  0  0  0  0  0
   38.1960   28.4860   32.0750 H   0  0  0  0  0  0  0  0  0  0  0  0
   35.2100   30.4630   32.5620 C   0  0  1  0  0  0  0  0  0  0  0  0
   36.3630   30.1960   31.6260 C   0  0  0  0  0  0  0  0  0  0  0  0
   36.1580   28.7370   31.3210 C   0  0  2  0  0  0  0  0  0  0  0  0
   35.1740   28.2510   32.1450 O   0  0  0  0  0  0  0  0  0  0  0  0
   35.0580   29.1010   33.2250 C   0  0  0  0  0  0  0  0  0  0  0  0
   34.2860   30.6490   31.9890 H   0  0  0  0  0  0  0  0  0  0  0  0
   37.3360   30.3190   32.1440 H   0  0  0  0  0  0  0  0  0  0  0  0
   36.3130   30.8390   30.7340 H   0  0  0  0  0  0  0  0  0  0  0  0
   35.7590   28.6900   30.2760 H   0  0  0  0  0  0  0  0  0  0  0  0
   35.8230   28.9420   34.0100 H   0  0  0  0  0  0  0  0  0  0  0  0
   34.0210   28.9580   33.6340 H   0  0  0  0  0  0  0  0  0  0  0  0
   35.4990   31.4470   33.4870 O   0  0  0  0  0  0  0  0  0  0  0  0
   33.6880   32.0070   34.8230 C   0  0  1  0  0  3  0  0  0  0  0  0
   34.9690   31.2000   34.7460 C   0  0  2  0  0  3  0  0  0  0  0  0
   35.8660   31.6400   35.8580 C   0  0  0  0  0  3  0  0  0  0  0  0
   36.2670   30.7580   36.4110 H   0  0  0  0  0  0  0  0  0  0  0  0
   35.3080   32.5200   36.7520 O   0  0  0  0  0  0  0  0  0  0  0  0
   34.0740   32.1160   37.2330 C   0  0  0  0  0  3  0  0  0  0  0  0
   34.1380   31.2710   37.9470 H   0  0  0  0  0  0  0  0  0  0  0  0
   33.0530   31.8590   36.1710 C   0  0  2  0  0  3  0  0  0  0  0  0
   33.8640   33.3350   34.4570 O   0  0  0  0  0  0  0  0  0  0  0  0
   34.8130   33.5820   34.3350 H   0  0  0  0  0  0  0  0  0  0  0  0
   32.5710   30.5420   36.2720 O   0  0  0  0  0  0  0  0  0  0  0  0
   31.6050   30.5090   35.9950 H   0  0  0  0  0  0  0  0  0  0  0  0
   37.0480   26.2940   32.0430 S   0  0  0  0  0  0  0  0  0  0  0  0
   38.1170   24.9090   35.6040 C   0  0  0  0  0  0  0  0  0  0  0  0
   38.4440   26.0680   36.3370 C   0  0  0  0  0  0  0  0  0  0  0  0
   38.3460   27.3210   35.7570 C   0  0  0  0  0  0  0  0  0  0  0  0
   37.9190   27.3600   34.4490 C   0  0  0  0  0  0  0  0  0  0  0  0
   37.6120   26.2230   33.7720 C   0  0  0  0  0  0  0  0  0  0  0  0
   37.7020   24.9880   34.3250 N   0  0  0  0  0  0  0  0  0  0  0  0
   38.7730   26.0160   37.3500 H   0  0  0  0  0  0  0  0  0  0  0  0
   38.5860   28.2380   36.2790 H   0  0  0  0  0  0  0  0  0  0  0  0
   37.8270   28.3220   33.9520 H   0  0  0  0  0  0  0  0  0  0  0  0
   38.2430   23.6430   36.2730 C   0  0  0  0  0  0  0  0  0  0  0  0
   37.2970   23.1420   36.8680 O   0  0  0  0  0  0  0  0  0  0  0  0
   40.0550   22.5220   37.5330 C   0  0  0  0  0  0  0  0  0  0  0  0
   39.5010   22.8830   36.2830 C   0  0  0  0  0  0  0  0  0  0  0  0
   40.1670   22.5060   35.1070 C   0  0  0  0  0  0  0  0  0  0  0  0
   41.3290   21.8030   35.2120 N   0  0  0  0  0  0  0  0  0  0  0  0
   41.8350   21.4710   36.4200 C   0  0  0  0  0  0  0  0  0  0  0  0
   41.2120   21.8240   37.5580 N   0  0  0  0  0  0  0  0  0  0  0  0
   39.5740   22.7930   38.4610 H   0  0  0  0  0  0  0  0  0  0  0  0
   39.6990   22.8080   34.1980 H   0  0  0  0  0  0  0  0  0  0  0  0
   42.7710   20.9070   36.3770 H   0  0  0  0  0  0  0  0  0  0  0  0
  1 28  1  0  0  0  0
  1  3  1  0  0  0  0
  2  1  1  0  0  0  0
  4  9  1  6  0  0  0
  4  8  1  0  0  0  0
  4 15  1  0  0  0  0
  5 10  1  0  0  0  0
  5  4  1  0  0  0  0
  6 12  1  6  0  0  0
  6  1  1  0  0  0  0
  6  5  1  0  0  0  0
  6  7  1  0  0  0  0
  7  8  1  0  0  0  0
  8 14  1  0  0  0  0
  8 13  1  0  0  0  0
 11  5  1  0  0  0  0
 16 24  1  1  0  0  0
 16 23  1  0  0  0  0
 17 15  1  6  0  0  0
 17 16  1  0  0  0  0
 17 18  1  0  0  0  0
 18 19  1  0  0  0  0
 18 20  1  0  0  0  0
 20 21  1  0  0  0  0
 21 22  1  0  0  0  0
 23 26  1  1  0  0  0
 23 21  1  0  0  0  0
 25 24  1  0  0  0  0
 27 26  1  0  0  0  0
 28 33  1  0  0  0  0
 29 38  1  0  0  0  0
 29 30  1  0  0  0  0
 30 35  1  0  0  0  0
 31 36  1  0  0  0  0
 31 30  2  0  0  0  0
 32 31  1  0  0  0  0
 33 34  1  0  0  0  0
 33 32  2  0  0  0  0
 34 29  2  0  0  0  0
 37 32  1  0  0  0  0
 38 41  1  0  0  0  0
 38 39  2  0  0  0  0
 40 45  1  0  0  0  0
 40 46  1  0  0  0  0
 41 40  2  0  0  0  0
 42 43  2  0  0  0  0
 42 41  1  0  0  0  0
 43 44  1  0  0  0  0
 44 45  2  0  0  0  0
 47 42  1  0  0  0  0
 48 44  1  0  0  0  0
M  END
>  <minimizedAffinity>
-5.87971115

$$$$

 OpenBabel03262522173D

 48 51  0  0  1  0  0  0  0  0999 V2000
   37.0110   27.4310   30.8660 C   0  0  0  0  0  0  0  0  0  0  0  0
   36.7680   27.8620   29.8660 H   0  0  0  0  0  0  0  0  0  0  0  0
   37.9910   26.9580   30.8360 H   0  0  0  0  0  0  0  0  0  0  0  0
   35.1390   29.6650   32.8630 C   0  0  1  0  0  0  0  0  0  0  0  0
   35.8490   28.3330   32.8700 C   0  0  0  0  0  0  0  0  0  0  0  0
   36.9340   28.5780   31.8570 C   0  0  2  0  0  0  0  0  0  0  0  0
   36.6990   29.7820   31.2440 O   0  0  0  0  0  0  0  0  0  0  0  0
   35.3700   30.1050   31.4250 C   0  0  0  0  0  0  0  0  0  0  0  0
   35.6670   30.3850   33.5110 H   0  0  0  0  0  0  0  0  0  0  0  0
   35.1870   27.5250   32.4980 H   0  0  0  0  0  0  0  0  0  0  0  0
   36.2350   28.0900   33.8720 H   0  0  0  0  0  0  0  0  0  0  0  0
   37.8840   28.6890   32.4390 H   0  0  0  0  0  0  0  0  0  0  0  0
   34.6810   29.5910   30.7260 H   0  0  0  0  0  0  0  0  0  0  0  0
   35.2950   31.2220   31.3210 H   0  0  0  0  0  0  0  0  0  0  0  0
   33.7920   29.5460   33.1470 O   0  0  0  0  0  0  0  0  0  0  0  0
   32.0240   29.1940   34.6050 C   0  0  1  0  0  3  0  0  0  0  0  0
   33.5180   29.4280   34.5030 C   0  0  2  0  0  3  0  0  0  0  0  0
   33.8520   30.6610   35.2790 C   0  0  0  0  0  3  0  0  0  0  0  0
   34.7190   30.4760   35.9570 H   0  0  0  0  0  0  0  0  0  0  0  0
   32.8170   31.1980   36.0050 O   0  0  0  0  0  0  0  0  0  0  0  0
   32.1520   30.2740   36.7920 C   0  0  0  0  0  3  0  0  0  0  0  0
   32.7380   29.9470   37.6750 H   0  0  0  0  0  0  0  0  0  0  0  0
   31.6030   29.1050   36.0380 C   0  0  2  0  0  3  0  0  0  0  0  0
   31.2810   30.1190   33.8850 O   0  0  0  0  0  0  0  0  0  0  0  0
   31.8260   30.8640   33.5310 H   0  0  0  0  0  0  0  0  0  0  0  0
   32.1200   27.9060   36.5610 O   0  0  0  0  0  0  0  0  0  0  0  0
   31.4330   27.1760   36.4850 H   0  0  0  0  0  0  0  0  0  0  0  0
   35.6430   26.2890   31.2420 S   0  0  0  0  0  0  0  0  0  0  0  0
   38.0160   23.9770   33.4240 C   0  0  0  0  0  0  0  0  0  0  0  0
   37.6030   22.6670   33.1060 C   0  0  0  0  0  0  0  0  0  0  0  0
   36.5740   22.4500   32.2060 C   0  0  0  0  0  0  0  0  0  0  0  0
   35.9960   23.5710   31.6540 C   0  0  0  0  0  0  0  0  0  0  0  0
   36.4200   24.8200   31.9830 C   0  0  0  0  0  0  0  0  0  0  0  0
   37.4250   25.0490   32.8620 N   0  0  0  0  0  0  0  0  0  0  0  0
   38.0640   21.8110   33.5450 H   0  0  0  0  0  0  0  0  0  0  0  0
   36.2220   21.4650   31.9310 H   0  0  0  0  0  0  0  0  0  0  0  0
   35.1850   23.4500   30.9410 H   0  0  0  0  0  0  0  0  0  0  0  0
   39.0910   24.1230   34.3680 C   0  0  0  0  0  0  0  0  0  0  0  0
   40.2150   24.4490   34.0060 O   0  0  0  0  0  0  0  0  0  0  0  0
   39.8530   23.0860   36.4820 C   0  0  0  0  0  0  0  0  0  0  0  0
   38.9070   23.8920   35.8070 C   0  0  0  0  0  0  0  0  0  0  0  0
   37.8360   24.4370   36.5320 C   0  0  0  0  0  0  0  0  0  0  0  0
   37.7440   24.1690   37.8640 N   0  0  0  0  0  0  0  0  0  0  0  0
   38.6630   23.3960   38.4820 C   0  0  0  0  0  0  0  0  0  0  0  0
   39.6960   22.8640   37.8060 N   0  0  0  0  0  0  0  0  0  0  0  0
   40.6910   22.6470   35.9620 H   0  0  0  0  0  0  0  0  0  0  0  0
   37.1580   25.0350   35.9660 H   0  0  0  0  0  0  0  0  0  0  0  0
   38.4840   23.2520   39.5520 H   0  0  0  0  0  0  0  0  0  0  0  0
  1 28  1  0  0  0  0
  1  6  1  0  0  0  0
  2  1  1  0  0  0  0
  3  1  1  0  0  0  0
  4  5  1  0  0  0  0
  4 15  1  0  0  0  0
  4  9  1  1  0  0  0
  5 11  1  0  0  0  0
  6 12  1  1  0  0  0
  6  5  1  0  0  0  0
  7  8  1  0  0  0  0
  7  6  1  0  0  0  0
  8  4  1  0  0  0  0
 10  5  1  0  0  0  0
 13  8  1  0  0  0  0
 14  8  1  0  0  0  0
 16 24  1  1  0  0  0
 16 23  1  0  0  0  0
 17 15  1  6  0  0  0
 17 16  1  0  0  0  0
 17 18  1  0  0  0  0
 18 19  1  0  0  0  0
 18 20  1  0  0  0  0
 20 21  1  0  0  0  0
 21 22  1  0  0  0  0
 23 26  1  1  0  0  0
 23 21  1  0  0  0  0
 25 24  1  0  0  0  0
 27 26  1  0  0  0  0
 28 33  1  0  0  0  0
 29 38  1  0  0  0  0
 30 29  1  0  0  0  0
 30 35  1  0  0  0  0
 31 30  2  0  0  0  0
 32 33  2  0  0  0  0
 32 31  1  0  0  0  0
 33 34  1  0  0  0  0
 34 29  2  0  0  0  0
 36 31  1  0  0  0  0
 37 32  1  0  0  0  0
 38 41  1  0  0  0  0
 39 38  2  0  0  0  0
 40 45  1  0  0  0  0
 41 40  2  0  0  0  0
 41 42  1  0  0  0  0
 42 43  2  0  0  0  0
 43 44  1  0  0  0  0
 44 48  1  0  0  0  0
 45 44  2  0  0  0  0
 46 40  1  0  0  0  0
 47 42  1  0  0  0  0
M  END
>  <minimizedAffinity>
-5.85045433

$$$$

 OpenBabel03262522173D

 48 51  0  0  1  0  0  0  0  0999 V2000
   38.2840   26.4890   31.2440 C   0  0  0  0  0  0  0  0  0  0  0  0
   39.1760   26.3730   31.9030 H   0  0  0  0  0  0  0  0  0  0  0  0
   38.4230   27.3400   30.5790 H   0  0  0  0  0  0  0  0  0  0  0  0
   37.2400   23.1150   31.1330 C   0  0  1  0  0  0  0  0  0  0  0  0
   36.8070   24.5310   30.8390 C   0  0  0  0  0  0  0  0  0  0  0  0
   38.1250   25.1740   30.5040 C   0  0  2  0  0  0  0  0  0  0  0  0
   39.1310   24.2880   30.7920 O   0  0  0  0  0  0  0  0  0  0  0  0
   38.6410   23.3530   31.6790 C   0  0  0  0  0  0  0  0  0  0  0  0
   37.3500   22.5450   30.1960 H   0  0  0  0  0  0  0  0  0  0  0  0
   36.3900   25.0180   31.7440 H   0  0  0  0  0  0  0  0  0  0  0  0
   36.0820   24.5640   30.0110 H   0  0  0  0  0  0  0  0  0  0  0  0
   38.1270   25.3190   29.3940 H   0  0  0  0  0  0  0  0  0  0  0  0
   38.6150   23.6970   32.7310 H   0  0  0  0  0  0  0  0  0  0  0  0
   39.2850   22.4380   31.5670 H   0  0  0  0  0  0  0  0  0  0  0  0
   36.4300   22.4990   32.0670 O   0  0  0  0  0  0  0  0  0  0  0  0
   35.5090   20.5790   32.9850 C   0  0  1  0  0  3  0  0  0  0  0  0
   36.0710   21.2030   31.7230 C   0  0  2  0  0  3  0  0  0  0  0  0
   37.2280   20.3740   31.2660 C   0  0  0  0  0  3  0  0  0  0  0  0
   37.1430   20.1450   30.1780 H   0  0  0  0  0  0  0  0  0  0  0  0
   37.4260   19.2060   31.9600 O   0  0  0  0  0  0  0  0  0  0  0  0
   36.2820   18.4390   32.0950 C   0  0  0  0  0  3  0  0  0  0  0  0
   35.9710   17.9470   31.1510 H   0  0  0  0  0  0  0  0  0  0  0  0
   35.1370   19.1490   32.7430 C   0  0  2  0  0  3  0  0  0  0  0  0
   36.3440   20.7360   34.0830 O   0  0  0  0  0  0  0  0  0  0  0  0
   37.2300   21.1070   33.8480 H   0  0  0  0  0  0  0  0  0  0  0  0
   34.0170   19.1380   31.8930 O   0  0  0  0  0  0  0  0  0  0  0  0
   33.1730   19.0950   32.4380 H   0  0  0  0  0  0  0  0  0  0  0  0
   36.8680   26.6550   32.3770 S   0  0  0  0  0  0  0  0  0  0  0  0
   38.1350   24.6920   35.5840 C   0  0  0  0  0  0  0  0  0  0  0  0
   38.4880   25.7120   36.4900 C   0  0  0  0  0  0  0  0  0  0  0  0
   38.3490   27.0450   36.1430 C   0  0  0  0  0  0  0  0  0  0  0  0
   37.8530   27.3020   34.8860 C   0  0  0  0  0  0  0  0  0  0  0  0
   37.5220   26.2940   34.0360 C   0  0  0  0  0  0  0  0  0  0  0  0
   37.6530   24.9850   34.3600 N   0  0  0  0  0  0  0  0  0  0  0  0
   38.8710   25.4910   37.4610 H   0  0  0  0  0  0  0  0  0  0  0  0
   38.6070   27.8610   36.8050 H   0  0  0  0  0  0  0  0  0  0  0  0
   37.7260   28.3340   34.5690 H   0  0  0  0  0  0  0  0  0  0  0  0
   38.3080   23.3320   36.0140 C   0  0  0  0  0  0  0  0  0  0  0  0
   37.3460   22.6260   36.2940 O   0  0  0  0  0  0  0  0  0  0  0  0
   40.4000   22.5170   34.9720 C   0  0  0  0  0  0  0  0  0  0  0  0
   39.6350   22.7140   36.1450 C   0  0  0  0  0  0  0  0  0  0  0  0
   40.1660   22.3130   37.3800 C   0  0  0  0  0  0  0  0  0  0  0  0
   41.4050   21.7480   37.4070 N   0  0  0  0  0  0  0  0  0  0  0  0
   42.1130   21.5730   36.2690 C   0  0  0  0  0  0  0  0  0  0  0  0
   41.6220   21.9490   35.0760 N   0  0  0  0  0  0  0  0  0  0  0  0
   40.0280   22.8100   34.0010 H   0  0  0  0  0  0  0  0  0  0  0  0
   39.5410   22.4890   38.2260 H   0  0  0  0  0  0  0  0  0  0  0  0
   43.0940   21.1090   36.4170 H   0  0  0  0  0  0  0  0  0  0  0  0
  1  2  1  0  0  0  0
  1 28  1  0  0  0  0
  3  1  1  0  0  0  0
  4  9  1  6  0  0  0
  4  8  1  0  0  0  0
  4 15  1  0  0  0  0
  5  4  1  0  0  0  0
  5 10  1  0  0  0  0
  6 12  1  6  0  0  0
  6  7  1  0  0  0  0
  6  5  1  0  0  0  0
  6  1  1  0  0  0  0
  7  8  1  0  0  0  0
  8 13  1  0  0  0  0
 11  5  1  0  0  0  0
 14  8  1  0  0  0  0
 16 24  1  1  0  0  0
 17 15  1  1  0  0  0
 17 16  1  0  0  0  0
 18 17  1  0  0  0  0
 18 20  1  0  0  0  0
 19 18  1  0  0  0  0
 20 21  1  0  0  0  0
 21 23  1  0  0  0  0
 22 21  1  0  0  0  0
 23 26  1  6  0  0  0
 23 16  1  0  0  0  0
 25 24  1  0  0  0  0
 26 27  1  0  0  0  0
 28 33  1  0  0  0  0
 29 38  1  0  0  0  0
 29 30  1  0  0  0  0
 30 35  1  0  0  0  0
 31 30  2  0  0  0  0
 31 36  1  0  0  0  0
 32 31  1  0  0  0  0
 33 34  1  0  0  0  0
 33 32  2  0  0  0  0
 34 29  2  0  0  0  0
 37 32  1  0  0  0  0
 38 41  1  0  0  0  0
 38 39  2  0  0  0  0
 40 45  2  0  0  0  0
 40 41  1  0  0  0  0
 41 42  2  0  0  0  0
 42 43  1  0  0  0  0
 42 47  1  0  0  0  0
 44 48  1  0  0  0  0
 44 43  2  0  0  0  0
 45 44  1  0  0  0  0
 46 40  1  0  0  0  0
M  END
>  <minimizedAffinity>
-5.80710745

$$$$

 OpenBabel03262522173D

 48 51  0  0  1  0  0  0  0  0999 V2000
   40.4750   27.2010   34.1140 C   0  0  0  0  0  0  0  0  0  0  0  0
   41.0670   27.6340   34.9550 H   0  0  0  0  0  0  0  0  0  0  0  0
   40.3470   27.9460   33.3310 H   0  0  0  0  0  0  0  0  0  0  0  0
   41.4510   23.8310   34.5360 C   0  0  1  0  0  0  0  0  0  0  0  0
   40.4230   24.7260   33.8870 C   0  0  0  0  0  0  0  0  0  0  0  0
   41.2320   25.9710   33.6470 C   0  0  2  0  0  0  0  0  0  0  0  0
   42.4440   25.8340   34.2750 O   0  0  0  0  0  0  0  0  0  0  0  0
   42.3190   24.8610   35.2440 C   0  0  0  0  0  0  0  0  0  0  0  0
   42.0790   23.3500   33.7690 H   0  0  0  0  0  0  0  0  0  0  0  0
   39.5990   24.9640   34.5900 H   0  0  0  0  0  0  0  0  0  0  0  0
   40.0290   24.2780   32.9620 H   0  0  0  0  0  0  0  0  0  0  0  0
   41.4380   26.0020   32.5470 H   0  0  0  0  0  0  0  0  0  0  0  0
   41.8500   25.2140   36.1830 H   0  0  0  0  0  0  0  0  0  0  0  0
   43.3540   24.4630   35.4330 H   0  0  0  0  0  0  0  0  0  0  0  0
   40.8870   22.9430   35.4310 O   0  0  0  0  0  0  0  0  0  0  0  0
   39.6000   23.0750   37.3550 C   0  0  1  0  0  3  0  0  0  0  0  0
   39.6190   23.3120   35.8580 C   0  0  2  0  0  3  0  0  0  0  0  0
   38.5290   22.4960   35.2410 C   0  0  0  0  0  3  0  0  0  0  0  0
   37.9210   23.1170   34.5410 H   0  0  0  0  0  0  0  0  0  0  0  0
   37.6930   21.8630   36.1280 O   0  0  0  0  0  0  0  0  0  0  0  0
   37.1980   22.6960   37.1160 C   0  0  0  0  0  3  0  0  0  0  0  0
   36.4340   23.4090   36.7460 H   0  0  0  0  0  0  0  0  0  0  0  0
   38.2500   23.3910   37.9200 C   0  0  2  0  0  3  0  0  0  0  0  0
   40.0430   21.8080   37.7060 O   0  0  0  0  0  0  0  0  0  0  0  0
   40.1730   21.2120   36.9290 H   0  0  0  0  0  0  0  0  0  0  0  0
   38.0730   24.7840   37.8460 O   0  0  0  0  0  0  0  0  0  0  0  0
   38.3550   25.2110   38.7120 H   0  0  0  0  0  0  0  0  0  0  0  0
   38.9170   26.6330   34.8640 S   0  0  0  0  0  0  0  0  0  0  0  0
   36.2570   26.1240   31.9650 C   0  0  0  0  0  0  0  0  0  0  0  0
   35.7110   27.4100   31.7730 C   0  0  0  0  0  0  0  0  0  0  0  0
   36.1450   28.4820   32.5340 C   0  0  0  0  0  0  0  0  0  0  0  0
   37.1210   28.2160   33.4660 C   0  0  0  0  0  0  0  0  0  0  0  0
   37.6260   26.9640   33.6250 C   0  0  0  0  0  0  0  0  0  0  0  0
   37.2110   25.9040   32.8890 N   0  0  0  0  0  0  0  0  0  0  0  0
   34.9540   27.5950   31.0440 H   0  0  0  0  0  0  0  0  0  0  0  0
   35.7560   29.4850   32.4230 H   0  0  0  0  0  0  0  0  0  0  0  0
   37.4940   29.0270   34.0870 H   0  0  0  0  0  0  0  0  0  0  0  0
   35.7560   25.0600   31.1380 C   0  0  0  0  0  0  0  0  0  0  0  0
   34.7270   25.1930   30.4870 O   0  0  0  0  0  0  0  0  0  0  0  0
   35.7770   22.6140   31.5180 C   0  0  0  0  0  0  0  0  0  0  0  0
   36.4390   23.7650   31.0280 C   0  0  0  0  0  0  0  0  0  0  0  0
   37.7150   23.6270   30.4600 C   0  0  0  0  0  0  0  0  0  0  0  0
   38.2730   22.3860   30.3990 N   0  0  0  0  0  0  0  0  0  0  0  0
   37.6170   21.3050   30.8750 C   0  0  0  0  0  0  0  0  0  0  0  0
   36.3950   21.4160   31.4230 N   0  0  0  0  0  0  0  0  0  0  0  0
   34.7960   22.6760   31.9620 H   0  0  0  0  0  0  0  0  0  0  0  0
   38.1600   24.5300   30.1100 H   0  0  0  0  0  0  0  0  0  0  0  0
   38.1660   20.3640   30.7710 H   0  0  0  0  0  0  0  0  0  0  0  0
  1 28  1  0  0  0  0
  1  2  1  0  0  0  0
  3  1  1  0  0  0  0
  4  9  1  6  0  0  0
  4  8  1  0  0  0  0
  4 15  1  0  0  0  0
  5  4  1  0  0  0  0
  5 10  1  0  0  0  0
  6 12  1  6  0  0  0
  6  5  1  0  0  0  0
  6  1  1  0  0  0  0
  6  7  1  0  0  0  0
  7  8  1  0  0  0  0
  8 14  1  0  0  0  0
  8 13  1  0  0  0  0
 11  5  1  0  0  0  0
 16 24  1  6  0  0  0
 16 23  1  0  0  0  0
 17 15  1  6  0  0  0
 17 16  1  0  0  0  0
 18 17  1  0  0  0  0
 18 20  1  0  0  0  0
 19 18  1  0  0  0  0
 20 21  1  0  0  0  0
 21 23  1  0  0  0  0
 22 21  1  0  0  0  0
 23 26  1  6  0  0  0
 25 24  1  0  0  0  0
 26 27  1  0  0  0  0
 29 34  1  0  0  0  0
 30 29  2  0  0  0  0
 30 31  1  0  0  0  0
 31 32  2  0  0  0  0
 32 33  1  0  0  0  0
 32 37  1  0  0  0  0
 33 28  1  0  0  0  0
 34 33  2  0  0  0  0
 35 30  1  0  0  0  0
 36 31  1  0  0  0  0
 38 29  1  0  0  0  0
 39 38  2  0  0  0  0
 40 46  1  0  0  0  0
 41 38  1  0  0  0  0
 41 40  2  0  0  0  0
 42 41  1  0  0  0  0
 43 42  2  0  0  0  0
 43 44  1  0  0  0  0
 44 45  2  0  0  0  0
 45 40  1  0  0  0  0
 47 42  1  0  0  0  0
 48 44  1  0  0  0  0
M  END
>  <minimizedAffinity>
-5.75858116

$$$$

 OpenBabel03262522173D

 48 51  0  0  1  0  0  0  0  0999 V2000
   37.8170   25.6620   36.1530 C   0  0  0  0  0  0  0  0  0  0  0  0
   36.8450   25.4600   35.6450 H   0  0  0  0  0  0  0  0  0  0  0  0
   37.6860   25.6170   37.2330 H   0  0  0  0  0  0  0  0  0  0  0  0
   38.5260   22.4350   34.9010 C   0  0  1  0  0  0  0  0  0  0  0  0
   38.1920   23.8500   34.4930 C   0  0  0  0  0  0  0  0  0  0  0  0
   38.7970   24.6290   35.6290 C   0  0  2  0  0  0  0  0  0  0  0  0
   39.1980   23.7490   36.6010 O   0  0  0  0  0  0  0  0  0  0  0  0
   38.5160   22.5640   36.4170 C   0  0  0  0  0  0  0  0  0  0  0  0
   39.5590   22.1850   34.6040 H   0  0  0  0  0  0  0  0  0  0  0  0
   37.0950   24.0160   34.4890 H   0  0  0  0  0  0  0  0  0  0  0  0
   38.6270   24.0980   33.5130 H   0  0  0  0  0  0  0  0  0  0  0  0
   39.7240   25.1060   35.2200 H   0  0  0  0  0  0  0  0  0  0  0  0
   37.4830   22.5700   36.8180 H   0  0  0  0  0  0  0  0  0  0  0  0
   39.1350   21.7600   36.9000 H   0  0  0  0  0  0  0  0  0  0  0  0
   37.5850   21.5240   34.4620 O   0  0  0  0  0  0  0  0  0  0  0  0
   35.8690   21.2720   32.9230 C   0  0  1  0  0  3  0  0  0  0  0  0
   37.3410   21.5890   33.0970 C   0  0  2  0  0  3  0  0  0  0  0  0
   38.1300   20.5930   32.3110 C   0  0  0  0  0  3  0  0  0  0  0  0
   38.8980   21.1060   31.6840 H   0  0  0  0  0  0  0  0  0  0  0  0
   37.3910   19.7480   31.5200 O   0  0  0  0  0  0  0  0  0  0  0  0
   36.4680   20.4000   30.7220 C   0  0  0  0  0  3  0  0  0  0  0  0
   36.9300   20.9510   29.8780 H   0  0  0  0  0  0  0  0  0  0  0  0
   35.5020   21.2600   31.4720 C   0  0  2  0  0  3  0  0  0  0  0  0
   35.4850   20.1130   33.5820 O   0  0  0  0  0  0  0  0  0  0  0  0
   36.2480   19.6010   33.9470 H   0  0  0  0  0  0  0  0  0  0  0  0
   35.5700   22.5840   31.0050 O   0  0  0  0  0  0  0  0  0  0  0  0
   34.6620   23.0140   31.0620 H   0  0  0  0  0  0  0  0  0  0  0  0
   38.3530   27.2890   35.5350 S   0  0  0  0  0  0  0  0  0  0  0  0
   35.4550   29.1600   33.5750 C   0  0  0  0  0  0  0  0  0  0  0  0
   35.3560   28.4550   32.3590 C   0  0  0  0  0  0  0  0  0  0  0  0
   36.1810   27.3750   32.0990 C   0  0  0  0  0  0  0  0  0  0  0  0
   37.0840   27.0430   33.0830 C   0  0  0  0  0  0  0  0  0  0  0  0
   37.1530   27.7440   34.2450 C   0  0  0  0  0  0  0  0  0  0  0  0
   36.3520   28.8040   34.5150 N   0  0  0  0  0  0  0  0  0  0  0  0
   34.6490   28.7290   31.6080 H   0  0  0  0  0  0  0  0  0  0  0  0
   36.1420   26.8040   31.1810 H   0  0  0  0  0  0  0  0  0  0  0  0
   37.7530   26.2010   32.9250 H   0  0  0  0  0  0  0  0  0  0  0  0
   34.5650   30.2710   33.7730 C   0  0  0  0  0  0  0  0  0  0  0  0
   34.3570   31.0850   32.8820 O   0  0  0  0  0  0  0  0  0  0  0  0
   32.7600   29.6590   35.3530 C   0  0  0  0  0  0  0  0  0  0  0  0
   33.8590   30.4940   35.0420 C   0  0  0  0  0  0  0  0  0  0  0  0
   34.2320   31.4960   35.9510 C   0  0  0  0  0  0  0  0  0  0  0  0
   33.5190   31.6320   37.1040 N   0  0  0  0  0  0  0  0  0  0  0  0
   32.4740   30.8190   37.3740 C   0  0  0  0  0  0  0  0  0  0  0  0
   32.1010   29.8530   36.5170 N   0  0  0  0  0  0  0  0  0  0  0  0
   32.4400   28.8770   34.6820 H   0  0  0  0  0  0  0  0  0  0  0  0
   35.0680   32.0910   35.6590 H   0  0  0  0  0  0  0  0  0  0  0  0
   31.9810   31.0230   38.3290 H   0  0  0  0  0  0  0  0  0  0  0  0
  1  3  1  0  0  0  0
  2  1  1  0  0  0  0
  4  9  1  6  0  0  0
  4  8  1  0  0  0  0
  5  4  1  0  0  0  0
  5  6  1  0  0  0  0
  6 12  1  6  0  0  0
  6  1  1  0  0  0  0
  6  7  1  0  0  0  0
  8  7  1  0  0  0  0
  8 13  1  0  0  0  0
  8 14  1  0  0  0  0
 10  5  1  0  0  0  0
 11  5  1  0  0  0  0
 15  4  1  0  0  0  0
 16 17  1  0  0  0  0
 16 24  1  6  0  0  0
 17 15  1  1  0  0  0
 18 17  1  0  0  0  0
 19 18  1  0  0  0  0
 20 18  1  0  0  0  0
 21 23  1  0  0  0  0
 21 20  1  0  0  0  0
 22 21  1  0  0  0  0
 23 26  1  6  0  0  0
 23 16  1  0  0  0  0
 24 25  1  0  0  0  0
 26 27  1  0  0  0  0
 28  1  1  0  0  0  0
 29 38  1  0  0  0  0
 29 34  1  0  0  0  0
 30 29  2  0  0  0  0
 31 30  1  0  0  0  0
 31 32  2  0  0  0  0
 32 33  1  0  0  0  0
 33 34  2  0  0  0  0
 33 28  1  0  0  0  0
 35 30  1  0  0  0  0
 36 31  1  0  0  0  0
 37 32  1  0  0  0  0
 38 41  1  0  0  0  0
 39 38  2  0  0  0  0
 40 45  1  0  0  0  0
 41 40  2  0  0  0  0
 41 42  1  0  0  0  0
 42 43  2  0  0  0  0
 43 44  1  0  0  0  0
 44 48  1  0  0  0  0
 45 44  2  0  0  0  0
 46 40  1  0  0  0  0
 47 42  1  0  0  0  0
M  END
>  <minimizedAffinity>
-5.72966146

$$$$

 OpenBabel03262522173D

 48 51  0  0  1  0  0  0  0  0999 V2000
   38.4120   27.1900   31.4120 C   0  0  0  0  0  0  0  0  0  0  0  0
   38.8290   27.8420   32.2160 H   0  0  0  0  0  0  0  0  0  0  0  0
   38.6920   27.5840   30.4370 H   0  0  0  0  0  0  0  0  0  0  0  0
   38.7630   24.3490   33.4830 C   0  0  1  0  0  0  0  0  0  0  0  0
   37.9280   24.9520   32.3790 C   0  0  0  0  0  0  0  0  0  0  0  0
   38.9510   25.7950   31.6690 C   0  0  2  0  0  0  0  0  0  0  0  0
   40.1020   25.8090   32.4150 O   0  0  0  0  0  0  0  0  0  0  0  0
   39.7810   25.4570   33.7090 C   0  0  0  0  0  0  0  0  0  0  0  0
   39.3170   23.4710   33.1090 H   0  0  0  0  0  0  0  0  0  0  0  0
   37.1410   25.6150   32.7910 H   0  0  0  0  0  0  0  0  0  0  0  0
   37.4860   24.1730   31.7400 H   0  0  0  0  0  0  0  0  0  0  0  0
   39.1890   25.2590   30.7150 H   0  0  0  0  0  0  0  0  0  0  0  0
   39.3560   26.2840   34.3110 H   0  0  0  0  0  0  0  0  0  0  0  0
   40.7240   25.0590   34.1750 H   0  0  0  0  0  0  0  0  0  0  0  0
   38.0270   24.0960   34.6240 O   0  0  0  0  0  0  0  0  0  0  0  0
   39.0910   22.6110   36.0510 C   0  0  1  0  0  3  0  0  0  0  0  0
   38.7880   24.0720   35.7840 C   0  0  2  0  0  3  0  0  0  0  0  0
   38.0680   24.6250   36.9710 C   0  0  0  0  0  3  0  0  0  0  0  0
   38.5270   25.5900   37.2940 H   0  0  0  0  0  0  0  0  0  0  0  0
   37.9780   23.7820   38.0510 O   0  0  0  0  0  0  0  0  0  0  0  0
   39.1870   23.2160   38.4160 C   0  0  0  0  0  3  0  0  0  0  0  0
   39.8770   23.9340   38.9040 H   0  0  0  0  0  0  0  0  0  0  0  0
   39.8690   22.4600   37.3210 C   0  0  2  0  0  3  0  0  0  0  0  0
   37.9580   21.8100   36.0190 O   0  0  0  0  0  0  0  0  0  0  0  0
   37.1180   22.3270   35.9630 H   0  0  0  0  0  0  0  0  0  0  0  0
   41.1540   22.9850   37.0990 O   0  0  0  0  0  0  0  0  0  0  0  0
   41.7810   22.2500   36.8200 H   0  0  0  0  0  0  0  0  0  0  0  0
   36.6170   27.1470   31.7110 S   0  0  0  0  0  0  0  0  0  0  0  0
   35.5810   30.4020   33.7290 C   0  0  0  0  0  0  0  0  0  0  0  0
   35.4360   31.3890   32.7330 C   0  0  0  0  0  0  0  0  0  0  0  0
   35.6540   31.0850   31.4000 C   0  0  0  0  0  0  0  0  0  0  0  0
   36.0120   29.7870   31.1190 C   0  0  0  0  0  0  0  0  0  0  0  0
   36.1430   28.8600   32.1040 C   0  0  0  0  0  0  0  0  0  0  0  0
   35.9330   29.1410   33.4130 N   0  0  0  0  0  0  0  0  0  0  0  0
   35.1580   32.3910   32.9730 H   0  0  0  0  0  0  0  0  0  0  0  0
   35.5550   31.8080   30.6020 H   0  0  0  0  0  0  0  0  0  0  0  0
   36.1930   29.5010   30.0860 H   0  0  0  0  0  0  0  0  0  0  0  0
   35.3390   30.7930   35.0910 C   0  0  0  0  0  0  0  0  0  0  0  0
   36.2640   31.0470   35.8530 O   0  0  0  0  0  0  0  0  0  0  0  0
   32.9660   30.0860   35.1030 C   0  0  0  0  0  0  0  0  0  0  0  0
   33.9820   30.9080   35.6450 C   0  0  0  0  0  0  0  0  0  0  0  0
   33.6600   31.7960   36.6820 C   0  0  0  0  0  0  0  0  0  0  0  0
   32.3750   31.8360   37.1330 N   0  0  0  0  0  0  0  0  0  0  0  0
   31.4250   31.0380   36.5960 C   0  0  0  0  0  0  0  0  0  0  0  0
   31.7140   30.1810   35.6020 N   0  0  0  0  0  0  0  0  0  0  0  0
   33.1720   29.3900   34.3040 H   0  0  0  0  0  0  0  0  0  0  0  0
   34.4700   32.3870   37.0470 H   0  0  0  0  0  0  0  0  0  0  0  0
   30.4330   31.1600   37.0410 H   0  0  0  0  0  0  0  0  0  0  0  0
  1  6  1  0  0  0  0
  1 28  1  0  0  0  0
  1  2  1  0  0  0  0
  3  1  1  0  0  0  0
  4  9  1  6  0  0  0
  4  8  1  0  0  0  0
  4 15  1  0  0  0  0
  5 10  1  0  0  0  0
  5  4  1  0  0  0  0
  6 12  1  6  0  0  0
  6  5  1  0  0  0  0
  6  7  1  0  0  0  0
  7  8  1  0  0  0  0
  8 14  1  0  0  0  0
  8 13  1  0  0  0  0
 11  5  1  0  0  0  0
 16 24  1  1  0  0  0
 16 23  1  0  0  0  0
 17 15  1  6  0  0  0
 17 16  1  0  0  0  0
 17 18  1  0  0  0  0
 18 19  1  0  0  0  0
 18 20  1  0  0  0  0
 20 21  1  0  0  0  0
 21 22  1  0  0  0  0
 23 26  1  6  0  0  0
 23 21  1  0  0  0  0
 25 24  1  0  0  0  0
 27 26  1  0  0  0  0
 28 33  1  0  0  0  0
 29 38  1  0  0  0  0
 30 35  1  0  0  0  0
 30 29  2  0  0  0  0
 31 30  1  0  0  0  0
 32 31  2  0  0  0  0
 32 33  1  0  0  0  0
 33 34  2  0  0  0  0
 34 29  1  0  0  0  0
 36 31  1  0  0  0  0
 37 32  1  0  0  0  0
 38 41  1  0  0  0  0
 38 39  2  0  0  0  0
 40 45  2  0  0  0  0
 40 41  1  0  0  0  0
 41 42  2  0  0  0  0
 42 47  1  0  0  0  0
 42 43  1  0  0  0  0
 44 48  1  0  0  0  0
 44 43  2  0  0  0  0
 45 44  1  0  0  0  0
 46 40  1  0  0  0  0
M  END
>  <minimizedAffinity>
-5.72221994

$$$$

 OpenBabel03262522173D

 48 51  0  0  1  0  0  0  0  0999 V2000
   37.1220   27.2770   34.6860 C   0  0  0  0  0  0  0  0  0  0  0  0
   36.3590   26.4630   34.7090 H   0  0  0  0  0  0  0  0  0  0  0  0
   36.6610   28.2230   34.9610 H   0  0  0  0  0  0  0  0  0  0  0  0
   39.7710   25.1130   35.5720 C   0  0  1  0  0  0  0  0  0  0  0  0
   39.4440   26.4090   34.8710 C   0  0  0  0  0  0  0  0  0  0  0  0
   38.2280   26.8540   35.6350 C   0  0  2  0  0  0  0  0  0  0  0  0
   37.8390   25.8380   36.4710 O   0  0  0  0  0  0  0  0  0  0  0  0
   38.3820   24.6610   36.0000 C   0  0  0  0  0  0  0  0  0  0  0  0
   40.3450   25.3100   36.4930 H   0  0  0  0  0  0  0  0  0  0  0  0
   39.1580   26.2310   33.8140 H   0  0  0  0  0  0  0  0  0  0  0  0
   40.2820   27.1200   34.9320 H   0  0  0  0  0  0  0  0  0  0  0  0
   38.5620   27.7010   36.2870 H   0  0  0  0  0  0  0  0  0  0  0  0
   37.8230   24.2100   35.1570 H   0  0  0  0  0  0  0  0  0  0  0  0
   38.4320   23.9590   36.8760 H   0  0  0  0  0  0  0  0  0  0  0  0
   40.3670   24.1940   34.7320 O   0  0  0  0  0  0  0  0  0  0  0  0
   41.6470   23.1290   36.3460 C   0  0  1  0  0  3  0  0  0  0  0  0
   40.5530   22.9470   35.3120 C   0  0  2  0  0  3  0  0  0  0  0  0
   40.9990   21.9050   34.3380 C   0  0  0  0  0  3  0  0  0  0  0  0
   40.1960   21.1480   34.1770 H   0  0  0  0  0  0  0  0  0  0  0  0
   42.1700   21.2620   34.6580 O   0  0  0  0  0  0  0  0  0  0  0  0
   42.2040   20.7830   35.9560 C   0  0  0  0  0  3  0  0  0  0  0  0
   41.5550   19.8980   36.1130 H   0  0  0  0  0  0  0  0  0  0  0  0
   41.9710   21.8250   37.0040 C   0  0  2  0  0  3  0  0  0  0  0  0
   42.7700   23.7660   35.8370 O   0  0  0  0  0  0  0  0  0  0  0  0
   42.7410   23.8800   34.8550 H   0  0  0  0  0  0  0  0  0  0  0  0
   40.8730   21.4670   37.8060 O   0  0  0  0  0  0  0  0  0  0  0  0
   41.0170   21.7900   38.7470 H   0  0  0  0  0  0  0  0  0  0  0  0
   37.8070   27.2450   32.9990 S   0  0  0  0  0  0  0  0  0  0  0  0
   36.8190   23.7340   31.4380 C   0  0  0  0  0  0  0  0  0  0  0  0
   35.5700   23.9700   30.8290 C   0  0  0  0  0  0  0  0  0  0  0  0
   34.9860   25.2240   30.8800 C   0  0  0  0  0  0  0  0  0  0  0  0
   35.6890   26.2010   31.5460 C   0  0  0  0  0  0  0  0  0  0  0  0
   36.8920   25.9390   32.1220 C   0  0  0  0  0  0  0  0  0  0  0  0
   37.4770   24.7170   32.0820 N   0  0  0  0  0  0  0  0  0  0  0  0
   35.0410   23.1980   30.3170 H   0  0  0  0  0  0  0  0  0  0  0  0
   34.0300   25.4530   30.4280 H   0  0  0  0  0  0  0  0  0  0  0  0
   35.2700   27.2020   31.6110 H   0  0  0  0  0  0  0  0  0  0  0  0
   37.3630   22.4060   31.3440 C   0  0  0  0  0  0  0  0  0  0  0  0
   38.4670   22.2050   30.8540 O   0  0  0  0  0  0  0  0  0  0  0  0
   36.2340   21.1920   33.1820 C   0  0  0  0  0  0  0  0  0  0  0  0
   36.6340   21.2250   31.8250 C   0  0  0  0  0  0  0  0  0  0  0  0
   36.3220   20.1370   30.9960 C   0  0  0  0  0  0  0  0  0  0  0  0
   35.6430   19.0820   31.5280 N   0  0  0  0  0  0  0  0  0  0  0  0
   35.2730   19.0790   32.8280 C   0  0  0  0  0  0  0  0  0  0  0  0
   35.5630   20.1110   33.6390 N   0  0  0  0  0  0  0  0  0  0  0  0
   36.4530   22.0080   33.8540 H   0  0  0  0  0  0  0  0  0  0  0  0
   36.6510   20.2230   29.9850 H   0  0  0  0  0  0  0  0  0  0  0  0
   34.7340   18.1790   33.1390 H   0  0  0  0  0  0  0  0  0  0  0  0
  1  2  1  0  0  0  0
  1  3  1  0  0  0  0
  1  6  1  0  0  0  0
  4  8  1  0  0  0  0
  4  9  1  1  0  0  0
  5 11  1  0  0  0  0
  5  4  1  0  0  0  0
  5  6  1  0  0  0  0
  6 12  1  1  0  0  0
  6  7  1  0  0  0  0
  8  7  1  0  0  0  0
  8 14  1  0  0  0  0
 10  5  1  0  0  0  0
 13  8  1  0  0  0  0
 15  4  1  0  0  0  0
 16 24  1  6  0  0  0
 16 23  1  0  0  0  0
 17 15  1  6  0  0  0
 17 16  1  0  0  0  0
 18 20  1  0  0  0  0
 18 17  1  0  0  0  0
 19 18  1  0  0  0  0
 20 21  1  0  0  0  0
 21 22  1  0  0  0  0
 21 23  1  0  0  0  0
 23 26  1  1  0  0  0
 25 24  1  0  0  0  0
 26 27  1  0  0  0  0
 28  1  1  0  0  0  0
 29 34  1  0  0  0  0
 30 31  1  0  0  0  0
 30 29  2  0  0  0  0
 31 32  2  0  0  0  0
 32 37  1  0  0  0  0
 32 33  1  0  0  0  0
 33 28  1  0  0  0  0
 34 33  2  0  0  0  0
 35 30  1  0  0  0  0
 36 31  1  0  0  0  0
 38 29  1  0  0  0  0
 38 41  1  0  0  0  0
 39 38  2  0  0  0  0
 40 45  1  0  0  0  0
 40 46  1  0  0  0  0
 41 40  2  0  0  0  0
 42 43  2  0  0  0  0
 42 41  1  0  0  0  0
 43 44  1  0  0  0  0
 44 48  1  0  0  0  0
 44 45  2  0  0  0  0
 47 42  1  0  0  0  0
M  END
>  <minimizedAffinity>
-5.71755838

$$$$

 OpenBabel03262522173D

 48 51  0  0  1  0  0  0  0  0999 V2000
   37.6800   24.4290   30.4220 C   0  0  0  0  0  0  0  0  0  0  0  0
   38.2170   25.2900   29.9600 H   0  0  0  0  0  0  0  0  0  0  0  0
   37.3550   23.7380   29.6470 H   0  0  0  0  0  0  0  0  0  0  0  0
   38.7520   23.8320   33.7360 C   0  0  1  0  0  0  0  0  0  0  0  0
   37.9110   23.2760   32.6130 C   0  0  0  0  0  0  0  0  0  0  0  0
   38.6460   23.8020   31.4110 C   0  0  2  0  0  0  0  0  0  0  0  0
   39.6050   24.6870   31.8360 O   0  0  0  0  0  0  0  0  0  0  0  0
   39.2630   25.1170   33.1010 C   0  0  0  0  0  0  0  0  0  0  0  0
   39.6300   23.1870   33.9130 H   0  0  0  0  0  0  0  0  0  0  0  0
   36.8900   23.7090   32.6260 H   0  0  0  0  0  0  0  0  0  0  0  0
   37.8680   22.1770   32.6510 H   0  0  0  0  0  0  0  0  0  0  0  0
   39.1860   22.9270   30.9680 H   0  0  0  0  0  0  0  0  0  0  0  0
   38.4930   25.9130   33.1150 H   0  0  0  0  0  0  0  0  0  0  0  0
   40.2150   25.4650   33.5880 H   0  0  0  0  0  0  0  0  0  0  0  0
   38.0120   24.0880   34.8730 O   0  0  0  0  0  0  0  0  0  0  0  0
   39.0240   22.6050   36.3410 C   0  0  1  0  0  3  0  0  0  0  0  0
   38.7610   24.0670   36.0420 C   0  0  2  0  0  3  0  0  0  0  0  0
   38.0440   24.6620   37.2100 C   0  0  0  0  0  3  0  0  0  0  0  0
   38.5240   25.6210   37.5200 H   0  0  0  0  0  0  0  0  0  0  0  0
   37.9220   23.8430   38.3060 O   0  0  0  0  0  0  0  0  0  0  0  0
   39.1120   23.2540   38.6940 C   0  0  0  0  0  3  0  0  0  0  0  0
   39.8160   23.9630   39.1740 H   0  0  0  0  0  0  0  0  0  0  0  0
   39.7860   22.4590   37.6210 C   0  0  2  0  0  3  0  0  0  0  0  0
   37.8710   21.8320   36.3130 O   0  0  0  0  0  0  0  0  0  0  0  0
   37.0450   22.3690   36.2380 H   0  0  0  0  0  0  0  0  0  0  0  0
   41.0860   22.9470   37.4020 O   0  0  0  0  0  0  0  0  0  0  0  0
   41.6960   22.1900   37.1430 H   0  0  0  0  0  0  0  0  0  0  0  0
   36.3190   25.1680   31.3800 S   0  0  0  0  0  0  0  0  0  0  0  0
   35.7980   29.0760   31.8260 C   0  0  0  0  0  0  0  0  0  0  0  0
   36.8210   29.6480   31.0440 C   0  0  0  0  0  0  0  0  0  0  0  0
   37.7110   28.8470   30.3490 C   0  0  0  0  0  0  0  0  0  0  0  0
   37.5350   27.4870   30.4700 C   0  0  0  0  0  0  0  0  0  0  0  0
   36.5370   26.9690   31.2330 C   0  0  0  0  0  0  0  0  0  0  0  0
   35.6580   27.7390   31.9190 N   0  0  0  0  0  0  0  0  0  0  0  0
   36.9410   30.7050   30.9640 H   0  0  0  0  0  0  0  0  0  0  0  0
   38.5120   29.2400   29.7370 H   0  0  0  0  0  0  0  0  0  0  0  0
   38.2090   26.8180   29.9420 H   0  0  0  0  0  0  0  0  0  0  0  0
   34.9130   29.9710   32.5190 C   0  0  0  0  0  0  0  0  0  0  0  0
   33.7270   30.0490   32.2220 O   0  0  0  0  0  0  0  0  0  0  0  0
   35.5080   32.2230   33.3580 C   0  0  0  0  0  0  0  0  0  0  0  0
   35.3720   30.8380   33.6130 C   0  0  0  0  0  0  0  0  0  0  0  0
   35.6790   30.3470   34.8910 C   0  0  0  0  0  0  0  0  0  0  0  0
   36.0990   31.2250   35.8450 N   0  0  0  0  0  0  0  0  0  0  0  0
   36.2190   32.5430   35.5720 C   0  0  0  0  0  0  0  0  0  0  0  0
   35.9300   33.0320   34.3540 N   0  0  0  0  0  0  0  0  0  0  0  0
   35.2830   32.6410   32.3890 H   0  0  0  0  0  0  0  0  0  0  0  0
   35.5560   29.2960   35.0190 H   0  0  0  0  0  0  0  0  0  0  0  0
   36.5640   33.1470   36.4170 H   0  0  0  0  0  0  0  0  0  0  0  0
  1 28  1  0  0  0  0
  1  6  1  0  0  0  0
  2  1  1  0  0  0  0
  3  1  1  0  0  0  0
  4  9  1  1  0  0  0
  4 15  1  0  0  0  0
  5 10  1  0  0  0  0
  5 11  1  0  0  0  0
  5  4  1  0  0  0  0
  6 12  1  6  0  0  0
  6  7  1  0  0  0  0
  6  5  1  0  0  0  0
  7  8  1  0  0  0  0
  8 13  1  0  0  0  0
  8 14  1  0  0  0  0
  8  4  1  0  0  0  0
 16 24  1  1  0  0  0
 16 23  1  0  0  0  0
 17 15  1  6  0  0  0
 17 16  1  0  0  0  0
 17 18  1  0  0  0  0
 18 19  1  0  0  0  0
 18 20  1  0  0  0  0
 20 21  1  0  0  0  0
 21 22  1  0  0  0  0
 23 26  1  6  0  0  0
 23 21  1  0  0  0  0
 25 24  1  0  0  0  0
 27 26  1  0  0  0  0
 29 34  1  0  0  0  0
 29 38  1  0  0  0  0
 30 29  2  0  0  0  0
 31 32  2  0  0  0  0
 31 30  1  0  0  0  0
 32 33  1  0  0  0  0
 33 28  1  0  0  0  0
 33 34  2  0  0  0  0
 35 30  1  0  0  0  0
 36 31  1  0  0  0  0
 37 32  1  0  0  0  0
 38 41  1  0  0  0  0
 39 38  2  0  0  0  0
 40 41  2  0  0  0  0
 40 45  1  0  0  0  0
 41 42  1  0  0  0  0
 42 47  1  0  0  0  0
 42 43  2  0  0  0  0
 44 43  1  0  0  0  0
 44 48  1  0  0  0  0
 45 44  2  0  0  0  0
 46 40  1  0  0  0  0
M  END
>  <minimizedAffinity>
-5.65689707

$$$$
