
 OpenBabel03272509573D

 45 48  0  0  0  0  0  0  0  0999 V2000
   34.4450   28.6380   48.1860 C   0  0  0  0  0  0  0  0  0  0  0  0
   33.9460   29.6250   48.1550 H   0  0  0  0  0  0  0  0  0  0  0  0
   35.3280   28.7250   47.5050 H   0  0  0  0  0  0  0  0  0  0  0  0
   33.5590   27.5310   47.7230 C   0  0  0  0  0  0  0  0  0  0  0  0
   33.7690   27.3330   46.6380 H   0  0  0  0  0  0  0  0  0  0  0  0
   33.7180   26.6060   48.2880 H   0  0  0  0  0  0  0  0  0  0  0  0
   32.1130   27.8820   47.7730 C   0  0  0  0  0  0  0  0  0  0  0  0
   31.3910   27.4720   48.8800 C   0  0  0  0  0  0  0  0  0  0  0  0
   30.0570   27.7450   49.0200 C   0  0  0  0  0  0  0  0  0  0  0  0
   29.4370   28.4230   48.0660 N   0  0  0  0  0  0  0  0  0  0  0  0
   30.1430   28.8300   46.9720 C   0  0  0  0  0  0  0  0  0  0  0  0
   31.4570   28.5740   46.8110 N   0  0  0  0  0  0  0  0  0  0  0  0
   31.8810   26.9140   49.6750 H   0  0  0  0  0  0  0  0  0  0  0  0
   29.4710   27.4430   49.8630 H   0  0  0  0  0  0  0  0  0  0  0  0
   29.4320   29.5900   45.9100 C   0  0  0  0  0  0  0  0  0  0  0  0
   30.1370   30.0010   45.1550 H   0  0  0  0  0  0  0  0  0  0  0  0
   28.9790   30.4810   46.3930 H   0  0  0  0  0  0  0  0  0  0  0  0
   28.3510   28.7960   45.3020 C   0  0  0  0  0  0  0  0  0  0  0  0
   28.8110   27.7340   44.5150 C   0  0  0  0  0  0  0  0  0  0  0  0
   29.8430   27.5080   44.3590 H   0  0  0  0  0  0  0  0  0  0  0  0
   27.8470   26.9290   43.9020 C   0  0  0  0  0  0  0  0  0  0  0  0
   28.1510   26.0830   43.2720 H   0  0  0  0  0  0  0  0  0  0  0  0
   26.4890   27.1390   44.0400 C   0  0  0  0  0  3  0  0  0  0  0  0
   26.1100   28.2200   44.8430 C   0  0  0  0  0  3  0  0  0  0  0  0
   27.0340   29.0000   45.4380 N   0  0  0  0  0  0  0  0  0  0  0  0
   34.9910   28.3630   49.4590 O   0  0  0  0  0  0  0  0  0  0  0  0
   37.3320   30.1750   51.5200 C   0  0  0  0  0  0  0  0  0  0  0  0
   38.0640   30.8660   50.5310 C   0  0  0  0  0  0  0  0  0  0  0  0
   37.6930   30.6540   49.2050 C   0  0  0  0  0  0  0  0  0  0  0  0
   36.6540   29.7970   48.9940 N   0  0  0  0  0  0  0  0  0  0  0  0
   35.9770   29.1570   49.9410 C   0  0  0  0  0  0  0  0  0  0  0  0
   36.3330   29.3580   51.2290 N   0  0  0  0  0  0  0  0  0  0  0  0
   37.6600   30.3730   52.5410 H   0  0  0  0  0  0  0  0  0  0  0  0
   38.8810   31.5390   50.7140 H   0  0  0  0  0  0  0  0  0  0  0  0
   38.9450   33.2660   49.0310 F   0  0  0  0  0  0  0  0  0  0  0  0
   38.9050   32.4730   47.9590 C   0  0  0  0  0  0  0  0  0  0  0  0
   38.3230   31.2710   48.0580 C   0  0  0  0  0  0  0  0  0  0  0  0
   38.3350   30.5220   46.8800 C   0  0  0  0  0  0  0  0  0  0  0  0
   38.9030   30.9920   45.7180 C   0  0  0  0  0  0  0  0  0  0  0  0
   39.4910   32.2380   45.6680 C   0  0  0  0  0  0  0  0  0  0  0  0
   39.4810   32.9710   46.8120 C   0  0  0  0  0  0  0  0  0  0  0  0
   37.8990   29.5290   46.8160 H   0  0  0  0  0  0  0  0  0  0  0  0
   38.9020   30.3960   44.8150 H   0  0  0  0  0  0  0  0  0  0  0  0
   39.9290   32.5780   44.7330 H   0  0  0  0  0  0  0  0  0  0  0  0
   39.9390   33.9510   46.7860 H   0  0  0  0  0  0  0  0  0  0  0  0
  1 26  1  0  0  0  0
  2  1  1  0  0  0  0
  3  1  1  0  0  0  0
  4  7  1  0  0  0  0
  4  1  1  0  0  0  0
  4  6  1  0  0  0  0
  5  4  1  0  0  0  0
  7  8  1  0  0  0  0
  8  9  2  0  0  0  0
  8 13  1  0  0  0  0
  9 14  1  0  0  0  0
 10  9  1  0  0  0  0
 11 10  2  0  0  0  0
 12 11  1  0  0  0  0
 12  7  2  0  0  0  0
 15 17  1  0  0  0  0
 15 11  1  0  0  0  0
 16 15  1  0  0  0  0
 18 25  1  0  0  0  0
 18 15  1  0  0  0  0
 19 18  2  0  0  0  0
 20 19  1  0  0  0  0
 21 23  2  0  0  0  0
 21 19  1  0  0  0  0
 22 21  1  0  0  0  0
 23 24  1  0  0  0  0
 24 25  2  0  0  0  0
 26 31  1  0  0  0  0
 27 33  1  0  0  0  0
 28 34  1  0  0  0  0
 28 27  2  0  0  0  0
 29 28  1  0  0  0  0
 30 29  2  0  0  0  0
 30 31  1  0  0  0  0
 31 32  2  0  0  0  0
 32 27  1  0  0  0  0
 36 37  1  0  0  0  0
 36 35  1  0  0  0  0
 37 29  1  0  0  0  0
 38 37  2  0  0  0  0
 39 38  1  0  0  0  0
 40 39  2  0  0  0  0
 40 41  1  0  0  0  0
 41 36  2  0  0  0  0
 42 38  1  0  0  0  0
 43 39  1  0  0  0  0
 44 40  1  0  0  0  0
 45 41  1  0  0  0  0
M  END
>  <minimizedAffinity>
-6.57668638

>  <minimizedRMSD>
0.68786341

$$$$
