
 OpenBabel03272503513D

 36 38  0  0  1  0  0  0  0  0999 V2000
   37.4060   24.1700   32.2870 C   0  0  1  0  0  0  0  0  0  0  0  0
   37.0270   25.5770   32.8050 C   0  0  2  0  0  0  0  0  0  0  0  0
   36.5560   26.2000   31.6930 O   0  0  0  0  0  0  0  0  0  0  0  0
   35.7080   25.2800   31.1090 C   0  0  0  0  0  0  0  0  0  0  0  0
   36.2950   23.9100   31.3200 C   0  0  2  0  0  0  0  0  0  0  0  0
   37.4070   23.4760   33.1450 H   0  0  0  0  0  0  0  0  0  0  0  0
   36.2750   25.4010   33.6080 H   0  0  0  0  0  0  0  0  0  0  0  0
   35.6980   25.4740   30.0160 H   0  0  0  0  0  0  0  0  0  0  0  0
   34.7170   25.4120   31.5880 H   0  0  0  0  0  0  0  0  0  0  0  0
   36.6660   23.4520   30.3910 H   0  0  0  0  0  0  0  0  0  0  0  0
   38.6710   24.1850   31.7310 O   0  0  0  0  0  0  0  0  0  0  0  0
   38.6920   24.8610   31.0230 H   0  0  0  0  0  0  0  0  0  0  0  0
   38.1780   26.0630   33.3510 O   0  0  0  0  0  0  0  0  0  0  0  0
   39.3330   27.1390   35.4680 O   0  0  0  0  0  0  0  0  0  0  0  0
   37.9990   26.6490   34.9200 P   0  0  1  0  0  0  0  0  0  0  0  0
   36.9930   28.0110   34.9220 O   0  0  0  0  0  0  0  0  0  0  0  0
   37.4620   28.8520   35.0350 H   0  0  0  0  0  0  0  0  0  0  0  0
   37.3120   25.4040   35.8580 O   0  0  0  0  0  0  0  0  0  0  0  0
   38.0820   24.5380   36.6150 C   0  0  0  0  0  0  0  0  0  0  0  0
   37.9800   24.3670   38.0120 C   0  0  0  0  0  0  0  0  0  0  0  0
   38.8320   23.4530   38.6180 C   0  0  0  0  0  0  0  0  0  0  0  0
   39.7230   22.7680   37.8340 N   0  0  0  0  0  0  0  0  0  0  0  0
   39.7970   22.9560   36.4900 C   0  0  0  0  0  0  0  0  0  0  0  0
   38.9710   23.8460   35.8770 N   0  0  0  0  0  0  0  0  0  0  0  0
   37.2420   24.9680   38.4860 H   0  0  0  0  0  0  0  0  0  0  0  0
   38.7470   23.3320   39.6700 H   0  0  0  0  0  0  0  0  0  0  0  0
   40.5330   22.3680   35.9580 H   0  0  0  0  0  0  0  0  0  0  0  0
   35.3530   23.0570   31.8930 O   0  0  0  0  0  0  0  0  0  0  0  0
   35.5850   21.6830   31.8830 C   0  0  0  0  0  0  0  0  0  0  0  0
   35.3220   20.9630   33.0260 C   0  0  0  0  0  0  0  0  0  0  0  0
   34.9390   21.4850   33.9130 H   0  0  0  0  0  0  0  0  0  0  0  0
   35.5440   19.5950   33.0410 C   0  0  0  0  0  0  0  0  0  0  0  0
   35.3370   19.0200   33.9470 H   0  0  0  0  0  0  0  0  0  0  0  0
   36.0270   18.9610   31.9100 C   0  0  0  0  0  3  0  0  0  0  0  0
   36.2750   19.7220   30.7900 C   0  0  0  0  0  3  0  0  0  0  0  0
   36.0610   21.0660   30.7640 N   0  0  0  0  0  0  0  0  0  0  0  0
  1  2  1  0  0  0  0
  1  6  1  1  0  0  0
  2 13  1  0  0  0  0
  2  7  1  1  0  0  0
  3  2  1  0  0  0  0
  4  5  1  0  0  0  0
  4  9  1  0  0  0  0
  4  3  1  0  0  0  0
  5 10  1  6  0  0  0
  5 28  1  0  0  0  0
  5  1  1  0  0  0  0
  8  4  1  0  0  0  0
 11  1  1  0  0  0  0
 12 11  1  0  0  0  0
 13 15  1  0  0  0  0
 15 16  1  0  0  0  0
 15 14  2  1  0  0  0
 15 18  1  0  0  0  0
 16 17  1  0  0  0  0
 18 19  1  0  0  0  0
 19 20  1  0  0  0  0
 20 25  1  0  0  0  0
 20 21  2  0  0  0  0
 21 26  1  0  0  0  0
 22 21  1  0  0  0  0
 23 22  2  0  0  0  0
 24 23  1  0  0  0  0
 24 19  2  0  0  0  0
 27 23  1  0  0  0  0
 29 28  1  0  0  0  0
 29 30  1  0  0  0  0
 30 32  2  0  0  0  0
 30 31  1  0  0  0  0
 32 33  1  0  0  0  0
 34 32  1  0  0  0  0
 35 34  2  0  0  0  0
 36 35  1  0  0  0  0
 36 29  2  0  0  0  0
M  END
>  <minimizedAffinity>
-5.67872524

$$$$

 OpenBabel03272503513D

 36 38  0  0  1  0  0  0  0  0999 V2000
   37.7020   27.0290   35.4100 C   0  0  1  0  0  0  0  0  0  0  0  0
   36.8940   27.4540   34.1620 C   0  0  2  0  0  0  0  0  0  0  0  0
   37.8470   27.5750   33.2020 O   0  0  0  0  0  0  0  0  0  0  0  0
   38.6250   26.4420   33.3350 C   0  0  0  0  0  0  0  0  0  0  0  0
   38.7120   26.1090   34.8010 C   0  0  2  0  0  0  0  0  0  0  0  0
   37.0160   26.5200   36.1090 H   0  0  0  0  0  0  0  0  0  0  0  0
   36.1550   26.6360   33.9990 H   0  0  0  0  0  0  0  0  0  0  0  0
   39.6500   26.6900   32.9880 H   0  0  0  0  0  0  0  0  0  0  0  0
   38.1370   25.6480   32.7330 H   0  0  0  0  0  0  0  0  0  0  0  0
   39.7150   26.2740   35.2210 H   0  0  0  0  0  0  0  0  0  0  0  0
   38.2310   28.1380   36.0420 O   0  0  0  0  0  0  0  0  0  0  0  0
   38.7750   28.6360   35.3970 H   0  0  0  0  0  0  0  0  0  0  0  0
   36.2450   28.5910   34.5430 O   0  0  0  0  0  0  0  0  0  0  0  0
   35.9860   30.5950   32.8430 O   0  0  0  0  0  0  0  0  0  0  0  0
   35.3330   29.3030   33.3200 P   0  0  1  0  0  0  0  0  0  0  0  0
   35.2980   28.2970   31.9580 O   0  0  0  0  0  0  0  0  0  0  0  0
   35.8650   28.5940   31.2290 H   0  0  0  0  0  0  0  0  0  0  0  0
   33.7570   29.5380   33.9230 O   0  0  0  0  0  0  0  0  0  0  0  0
   33.5140   30.1740   35.1280 C   0  0  0  0  0  0  0  0  0  0  0  0
   34.2690   31.2440   35.6510 C   0  0  0  0  0  0  0  0  0  0  0  0
   33.8880   31.7690   36.8790 C   0  0  0  0  0  0  0  0  0  0  0  0
   32.8030   31.2240   37.5160 N   0  0  0  0  0  0  0  0  0  0  0  0
   32.0960   30.1920   36.9850 C   0  0  0  0  0  0  0  0  0  0  0  0
   32.4540   29.6640   35.7840 N   0  0  0  0  0  0  0  0  0  0  0  0
   35.0820   31.5600   35.0430 H   0  0  0  0  0  0  0  0  0  0  0  0
   34.4630   32.5750   37.2630 H   0  0  0  0  0  0  0  0  0  0  0  0
   31.2570   29.8310   37.5650 H   0  0  0  0  0  0  0  0  0  0  0  0
   38.3460   24.7830   35.0240 O   0  0  0  0  0  0  0  0  0  0  0  0
   39.0900   24.0130   35.9160 C   0  0  0  0  0  0  0  0  0  0  0  0
   38.5800   23.7860   37.1730 C   0  0  0  0  0  0  0  0  0  0  0  0
   37.6050   24.2130   37.4420 H   0  0  0  0  0  0  0  0  0  0  0  0
   39.3010   23.0230   38.0790 C   0  0  0  0  0  0  0  0  0  0  0  0
   38.9000   22.8400   39.0780 H   0  0  0  0  0  0  0  0  0  0  0  0
   40.5270   22.4950   37.7150 C   0  0  0  0  0  3  0  0  0  0  0  0
   40.9980   22.7500   36.4460 C   0  0  0  0  0  3  0  0  0  0  0  0
   40.2980   23.4980   35.5490 N   0  0  0  0  0  0  0  0  0  0  0  0
  1 11  1  0  0  0  0
  1  6  1  1  0  0  0
  2  7  1  6  0  0  0
  2 13  1  0  0  0  0
  2  1  1  0  0  0  0
  3  4  1  0  0  0  0
  3  2  1  0  0  0  0
  4  5  1  0  0  0  0
  5 28  1  0  0  0  0
  5 10  1  1  0  0  0
  5  1  1  0  0  0  0
  8  4  1  0  0  0  0
  9  4  1  0  0  0  0
 12 11  1  0  0  0  0
 15 14  2  6  0  0  0
 15 18  1  0  0  0  0
 15 13  1  0  0  0  0
 16 15  1  0  0  0  0
 17 16  1  0  0  0  0
 18 19  1  0  0  0  0
 19 20  2  0  0  0  0
 19 24  1  0  0  0  0
 20 21  1  0  0  0  0
 21 26  1  0  0  0  0
 21 22  2  0  0  0  0
 23 22  1  0  0  0  0
 23 27  1  0  0  0  0
 24 23  2  0  0  0  0
 25 20  1  0  0  0  0
 28 29  1  0  0  0  0
 29 30  1  0  0  0  0
 30 31  1  0  0  0  0
 30 32  2  0  0  0  0
 32 33  1  0  0  0  0
 34 32  1  0  0  0  0
 35 34  2  0  0  0  0
 36 29  2  0  0  0  0
 36 35  1  0  0  0  0
M  END
>  <minimizedAffinity>
-5.46196175

$$$$

 OpenBabel03272503513D

 36 38  0  0  1  0  0  0  0  0999 V2000
   37.6220   24.1960   30.9720 C   0  0  1  0  0  0  0  0  0  0  0  0
   37.2430   25.6150   31.4570 C   0  0  2  0  0  0  0  0  0  0  0  0
   36.0030   25.8020   30.9330 O   0  0  0  0  0  0  0  0  0  0  0  0
   35.3280   24.6290   31.2060 C   0  0  0  0  0  0  0  0  0  0  0  0
   36.3070   23.4910   31.0890 C   0  0  2  0  0  0  0  0  0  0  0  0
   38.3920   23.7940   31.6520 H   0  0  0  0  0  0  0  0  0  0  0  0
   37.2880   25.5660   32.5690 H   0  0  0  0  0  0  0  0  0  0  0  0
   34.5590   24.4890   30.4180 H   0  0  0  0  0  0  0  0  0  0  0  0
   34.9000   24.7370   32.2230 H   0  0  0  0  0  0  0  0  0  0  0  0
   36.1160   22.8460   30.2190 H   0  0  0  0  0  0  0  0  0  0  0  0
   38.1440   24.2460   29.6940 O   0  0  0  0  0  0  0  0  0  0  0  0
   37.4910   24.6800   29.1070 H   0  0  0  0  0  0  0  0  0  0  0  0
   38.2440   26.4160   30.9910 O   0  0  0  0  0  0  0  0  0  0  0  0
   38.8990   28.7670   29.9840 O   0  0  0  0  0  0  0  0  0  0  0  0
   37.7430   27.9680   30.5720 P   0  0  1  0  0  0  0  0  0  0  0  0
   36.5860   27.8920   29.3380 O   0  0  0  0  0  0  0  0  0  0  0  0
   36.9200   28.1410   28.4620 H   0  0  0  0  0  0  0  0  0  0  0  0
   37.0770   28.6870   31.9650 O   0  0  0  0  0  0  0  0  0  0  0  0
   35.8850   29.3890   31.9370 C   0  0  0  0  0  0  0  0  0  0  0  0
   35.6620   30.5880   31.2280 C   0  0  0  0  0  0  0  0  0  0  0  0
   34.4020   31.1650   31.3080 C   0  0  0  0  0  0  0  0  0  0  0  0
   33.4440   30.5450   32.0670 N   0  0  0  0  0  0  0  0  0  0  0  0
   33.6910   29.3900   32.7400 C   0  0  0  0  0  0  0  0  0  0  0  0
   34.9190   28.8090   32.6740 N   0  0  0  0  0  0  0  0  0  0  0  0
   36.5000   30.9500   30.6820 H   0  0  0  0  0  0  0  0  0  0  0  0
   34.2450   32.0670   30.7700 H   0  0  0  0  0  0  0  0  0  0  0  0
   32.8710   28.9780   33.3120 H   0  0  0  0  0  0  0  0  0  0  0  0
   36.2860   22.7080   32.2410 O   0  0  0  0  0  0  0  0  0  0  0  0
   36.0870   21.3330   32.1250 C   0  0  0  0  0  0  0  0  0  0  0  0
   35.6120   20.6430   33.2160 C   0  0  0  0  0  0  0  0  0  0  0  0
   35.4020   21.1870   34.1460 H   0  0  0  0  0  0  0  0  0  0  0  0
   35.4050   19.2750   33.1250 C   0  0  0  0  0  0  0  0  0  0  0  0
   35.0280   18.7230   33.9890 H   0  0  0  0  0  0  0  0  0  0  0  0
   35.6770   18.6120   31.9420 C   0  0  0  0  0  3  0  0  0  0  0  0
   36.1520   19.3450   30.8760 C   0  0  0  0  0  3  0  0  0  0  0  0
   36.3580   20.6880   30.9540 N   0  0  0  0  0  0  0  0  0  0  0  0
  1  5  1  0  0  0  0
  1  2  1  0  0  0  0
  1  6  1  1  0  0  0
  2  7  1  1  0  0  0
  3  4  1  0  0  0  0
  3  2  1  0  0  0  0
  4  9  1  0  0  0  0
  5 10  1  6  0  0  0
  5  4  1  0  0  0  0
  5 28  1  0  0  0  0
  8  4  1  0  0  0  0
 11  1  1  0  0  0  0
 12 11  1  0  0  0  0
 13  2  1  0  0  0  0
 15 14  2  6  0  0  0
 15 13  1  0  0  0  0
 15 18  1  0  0  0  0
 16 15  1  0  0  0  0
 17 16  1  0  0  0  0
 19 18  1  0  0  0  0
 19 24  1  0  0  0  0
 20 21  1  0  0  0  0
 20 19  2  0  0  0  0
 21 22  2  0  0  0  0
 22 23  1  0  0  0  0
 23 27  1  0  0  0  0
 24 23  2  0  0  0  0
 25 20  1  0  0  0  0
 26 21  1  0  0  0  0
 29 28  1  0  0  0  0
 29 30  1  0  0  0  0
 30 31  1  0  0  0  0
 32 30  2  0  0  0  0
 32 33  1  0  0  0  0
 34 32  1  0  0  0  0
 35 36  1  0  0  0  0
 35 34  2  0  0  0  0
 36 29  2  0  0  0  0
M  END
>  <minimizedAffinity>
-5.34792566

$$$$

 OpenBabel03272503513D

 36 38  0  0  1  0  0  0  0  0999 V2000
   38.8120   23.5900   35.9190 C   0  0  1  0  0  0  0  0  0  0  0  0
   38.2670   24.8110   36.6960 C   0  0  2  0  0  0  0  0  0  0  0  0
   37.7910   24.2620   37.8430 O   0  0  0  0  0  0  0  0  0  0  0  0
   38.7840   23.3970   38.2570 C   0  0  0  0  0  0  0  0  0  0  0  0
   39.4040   22.7820   37.0310 C   0  0  2  0  0  0  0  0  0  0  0  0
   39.5630   23.9490   35.1950 H   0  0  0  0  0  0  0  0  0  0  0  0
   39.1410   25.4920   36.8200 H   0  0  0  0  0  0  0  0  0  0  0  0
   38.3050   22.5790   38.8340 H   0  0  0  0  0  0  0  0  0  0  0  0
   39.4990   23.9970   38.8560 H   0  0  0  0  0  0  0  0  0  0  0  0
   39.1730   21.7130   36.9210 H   0  0  0  0  0  0  0  0  0  0  0  0
   37.7930   22.9660   35.2250 O   0  0  0  0  0  0  0  0  0  0  0  0
   37.0880   22.7210   35.8590 H   0  0  0  0  0  0  0  0  0  0  0  0
   37.3590   25.3780   35.8520 O   0  0  0  0  0  0  0  0  0  0  0  0
   36.9890   27.8530   35.0090 O   0  0  0  0  0  0  0  0  0  0  0  0
   37.9600   26.6790   34.9690 P   0  0  1  0  0  0  0  0  0  0  0  0
   39.3830   27.2580   35.6810 O   0  0  0  0  0  0  0  0  0  0  0  0
   39.2750   28.0900   36.1690 H   0  0  0  0  0  0  0  0  0  0  0  0
   38.2710   26.1280   33.3870 O   0  0  0  0  0  0  0  0  0  0  0  0
   37.2800   25.5960   32.5810 C   0  0  0  0  0  0  0  0  0  0  0  0
   36.3510   26.3460   31.8300 C   0  0  0  0  0  0  0  0  0  0  0  0
   35.4180   25.6530   31.0710 C   0  0  0  0  0  0  0  0  0  0  0  0
   35.4460   24.2820   31.0890 N   0  0  0  0  0  0  0  0  0  0  0  0
   36.3550   23.5880   31.8250 C   0  0  0  0  0  0  0  0  0  0  0  0
   37.2770   24.2490   32.5750 N   0  0  0  0  0  0  0  0  0  0  0  0
   36.4520   27.4020   31.9140 H   0  0  0  0  0  0  0  0  0  0  0  0
   34.7240   26.2270   30.5090 H   0  0  0  0  0  0  0  0  0  0  0  0
   36.2960   22.5090   31.7750 H   0  0  0  0  0  0  0  0  0  0  0  0
   40.7890   22.9400   37.0500 O   0  0  0  0  0  0  0  0  0  0  0  0
   41.5980   21.9070   36.5810 C   0  0  0  0  0  0  0  0  0  0  0  0
   42.1200   21.0160   37.4890 C   0  0  0  0  0  0  0  0  0  0  0  0
   41.8890   21.1390   38.5560 H   0  0  0  0  0  0  0  0  0  0  0  0
   42.9280   19.9800   37.0480 C   0  0  0  0  0  0  0  0  0  0  0  0
   43.3450   19.2700   37.7660 H   0  0  0  0  0  0  0  0  0  0  0  0
   43.2040   19.8460   35.6980 C   0  0  0  0  0  3  0  0  0  0  0  0
   42.6590   20.7620   34.8260 C   0  0  0  0  0  3  0  0  0  0  0  0
   41.8650   21.7840   35.2500 N   0  0  0  0  0  0  0  0  0  0  0  0
  1  6  1  6  0  0  0
  1  2  1  0  0  0  0
  1  5  1  0  0  0  0
  2  7  1  1  0  0  0
  2  3  1  0  0  0  0
  3  4  1  0  0  0  0
  4  8  1  0  0  0  0
  4  9  1  0  0  0  0
  5 10  1  6  0  0  0
  5 28  1  0  0  0  0
  5  4  1  0  0  0  0
 11 12  1  0  0  0  0
 11  1  1  0  0  0  0
 13  2  1  0  0  0  0
 15 14  2  6  0  0  0
 15 16  1  0  0  0  0
 15 13  1  0  0  0  0
 16 17  1  0  0  0  0
 18 15  1  0  0  0  0
 19 18  1  0  0  0  0
 20 25  1  0  0  0  0
 20 19  2  0  0  0  0
 21 22  2  0  0  0  0
 21 20  1  0  0  0  0
 22 23  1  0  0  0  0
 23 24  2  0  0  0  0
 24 19  1  0  0  0  0
 26 21  1  0  0  0  0
 27 23  1  0  0  0  0
 29 28  1  0  0  0  0
 29 30  1  0  0  0  0
 30 31  1  0  0  0  0
 32 30  2  0  0  0  0
 32 33  1  0  0  0  0
 34 32  1  0  0  0  0
 35 36  1  0  0  0  0
 35 34  2  0  0  0  0
 36 29  2  0  0  0  0
M  END
>  <minimizedAffinity>
-5.24174166

$$$$

 OpenBabel03272503513D

 36 38  0  0  1  0  0  0  0  0999 V2000
   36.0760   28.4050   32.4070 C   0  0  1  0  0  0  0  0  0  0  0  0
   36.6170   27.8720   33.7540 C   0  0  2  0  0  0  0  0  0  0  0  0
   36.5210   28.9500   34.5760 O   0  0  0  0  0  0  0  0  0  0  0  0
   35.2610   29.4600   34.3370 C   0  0  0  0  0  0  0  0  0  0  0  0
   34.9570   29.2830   32.8730 C   0  0  2  0  0  0  0  0  0  0  0  0
   35.7320   27.5430   31.8090 H   0  0  0  0  0  0  0  0  0  0  0  0
   35.9580   27.0130   34.0160 H   0  0  0  0  0  0  0  0  0  0  0  0
   35.2920   30.5510   34.5410 H   0  0  0  0  0  0  0  0  0  0  0  0
   34.5630   28.9090   35.0000 H   0  0  0  0  0  0  0  0  0  0  0  0
   34.9320   30.2330   32.3200 H   0  0  0  0  0  0  0  0  0  0  0  0
   37.0740   29.0550   31.7090 O   0  0  0  0  0  0  0  0  0  0  0  0
   37.4370   29.7690   32.2740 H   0  0  0  0  0  0  0  0  0  0  0  0
   37.8700   27.4180   33.4660 O   0  0  0  0  0  0  0  0  0  0  0  0
   40.2080   27.0570   34.6390 O   0  0  0  0  0  0  0  0  0  0  0  0
   38.7110   26.8270   34.7990 P   0  0  1  0  0  0  0  0  0  0  0  0
   38.2780   27.6900   36.1900 O   0  0  0  0  0  0  0  0  0  0  0  0
   38.9470   28.3250   36.4900 H   0  0  0  0  0  0  0  0  0  0  0  0
   38.3060   25.1810   34.9730 O   0  0  0  0  0  0  0  0  0  0  0  0
   38.5950   24.4660   36.1220 C   0  0  0  0  0  0  0  0  0  0  0  0
   39.5770   23.4590   36.2290 C   0  0  0  0  0  0  0  0  0  0  0  0
   39.7390   22.8380   37.4610 C   0  0  0  0  0  0  0  0  0  0  0  0
   38.9410   23.2310   38.5030 N   0  0  0  0  0  0  0  0  0  0  0  0
   38.0020   24.2050   38.3670 C   0  0  0  0  0  0  0  0  0  0  0  0
   37.8290   24.8260   37.1690 N   0  0  0  0  0  0  0  0  0  0  0  0
   40.1190   23.2620   35.3360 H   0  0  0  0  0  0  0  0  0  0  0  0
   40.4810   22.0820   37.5300 H   0  0  0  0  0  0  0  0  0  0  0  0
   37.4220   24.4450   39.2480 H   0  0  0  0  0  0  0  0  0  0  0  0
   33.7370   28.6330   32.7020 O   0  0  0  0  0  0  0  0  0  0  0  0
   32.5550   29.3250   32.9610 C   0  0  0  0  0  0  0  0  0  0  0  0
   32.3080   30.4870   32.2670 C   0  0  0  0  0  0  0  0  0  0  0  0
   33.0440   30.8390   31.5310 H   0  0  0  0  0  0  0  0  0  0  0  0
   31.1410   31.1940   32.5060 C   0  0  0  0  0  0  0  0  0  0  0  0
   30.9410   32.1170   31.9580 H   0  0  0  0  0  0  0  0  0  0  0  0
   30.2300   30.7280   33.4380 C   0  0  0  0  0  3  0  0  0  0  0  0
   30.5200   29.5610   34.1080 C   0  0  0  0  0  3  0  0  0  0  0  0
   31.6640   28.8590   33.8810 N   0  0  0  0  0  0  0  0  0  0  0  0
  1  6  1  6  0  0  0
  1  5  1  0  0  0  0
  1  2  1  0  0  0  0
  2  7  1  1  0  0  0
  2  3  1  0  0  0  0
  4  8  1  0  0  0  0
  4  3  1  0  0  0  0
  4  9  1  0  0  0  0
  5 10  1  6  0  0  0
  5  4  1  0  0  0  0
 11 12  1  0  0  0  0
 11  1  1  0  0  0  0
 13  2  1  0  0  0  0
 13 15  1  0  0  0  0
 15 14  2  6  0  0  0
 15 18  1  0  0  0  0
 15 16  1  0  0  0  0
 16 17  1  0  0  0  0
 18 19  1  0  0  0  0
 19 20  2  0  0  0  0
 19 24  1  0  0  0  0
 20 21  1  0  0  0  0
 21 26  1  0  0  0  0
 21 22  2  0  0  0  0
 23 22  1  0  0  0  0
 23 27  1  0  0  0  0
 24 23  2  0  0  0  0
 25 20  1  0  0  0  0
 28  5  1  0  0  0  0
 28 29  1  0  0  0  0
 29 36  1  0  0  0  0
 30 32  1  0  0  0  0
 30 29  2  0  0  0  0
 31 30  1  0  0  0  0
 32 34  2  0  0  0  0
 33 32  1  0  0  0  0
 34 35  1  0  0  0  0
 36 35  2  0  0  0  0
M  END
>  <minimizedAffinity>
-5.21393156

$$$$

 OpenBabel03272503513D

 36 38  0  0  1  0  0  0  0  0999 V2000
   38.1950   26.2470   34.0100 C   0  0  1  0  0  0  0  0  0  0  0  0
   37.3710   26.4420   32.7160 C   0  0  2  0  0  0  0  0  0  0  0  0
   38.1280   25.8270   31.7700 O   0  0  0  0  0  0  0  0  0  0  0  0
   38.4940   24.6250   32.3410 C   0  0  0  0  0  0  0  0  0  0  0  0
   38.7190   24.8590   33.8110 C   0  0  2  0  0  0  0  0  0  0  0  0
   37.5100   26.3340   34.8710 H   0  0  0  0  0  0  0  0  0  0  0  0
   36.3850   25.9650   32.9210 H   0  0  0  0  0  0  0  0  0  0  0  0
   39.4670   24.3210   31.9000 H   0  0  0  0  0  0  0  0  0  0  0  0
   37.6740   23.9090   32.1310 H   0  0  0  0  0  0  0  0  0  0  0  0
   39.7760   24.7810   34.1040 H   0  0  0  0  0  0  0  0  0  0  0  0
   39.1640   27.2250   34.1160 O   0  0  0  0  0  0  0  0  0  0  0  0
   39.7220   27.2010   33.3120 H   0  0  0  0  0  0  0  0  0  0  0  0
   37.2150   27.7920   32.6080 O   0  0  0  0  0  0  0  0  0  0  0  0
   38.0230   28.7440   30.2820 O   0  0  0  0  0  0  0  0  0  0  0  0
   36.7890   28.3130   31.0640 P   0  0  1  0  0  0  0  0  0  0  0  0
   36.1300   27.0300   30.1780 O   0  0  0  0  0  0  0  0  0  0  0  0
   36.7260   26.6600   29.5090 H   0  0  0  0  0  0  0  0  0  0  0  0
   35.6440   29.5620   31.2410 O   0  0  0  0  0  0  0  0  0  0  0  0
   35.1120   29.9100   32.4700 C   0  0  0  0  0  0  0  0  0  0  0  0
   35.6380   30.8890   33.3380 C   0  0  0  0  0  0  0  0  0  0  0  0
   34.9790   31.1150   34.5390 C   0  0  0  0  0  0  0  0  0  0  0  0
   33.8570   30.3790   34.8190 N   0  0  0  0  0  0  0  0  0  0  0  0
   33.3750   29.4410   33.9610 C   0  0  0  0  0  0  0  0  0  0  0  0
   34.0060   29.2060   32.7800 N   0  0  0  0  0  0  0  0  0  0  0  0
   36.5140   31.3790   32.9860 H   0  0  0  0  0  0  0  0  0  0  0  0
   35.3840   31.8540   35.1850 H   0  0  0  0  0  0  0  0  0  0  0  0
   32.4840   28.9120   34.2720 H   0  0  0  0  0  0  0  0  0  0  0  0
   37.9760   23.9560   34.5700 O   0  0  0  0  0  0  0  0  0  0  0  0
   38.3080   23.7590   35.9090 C   0  0  0  0  0  0  0  0  0  0  0  0
   39.4650   23.0770   36.2070 C   0  0  0  0  0  0  0  0  0  0  0  0
   40.0960   22.7070   35.3880 H   0  0  0  0  0  0  0  0  0  0  0  0
   39.8170   22.8680   37.5310 C   0  0  0  0  0  0  0  0  0  0  0  0
   40.7350   22.3280   37.7720 H   0  0  0  0  0  0  0  0  0  0  0  0
   39.0040   23.3450   38.5450 C   0  0  0  0  0  3  0  0  0  0  0  0
   37.8560   24.0210   38.1990 C   0  0  0  0  0  3  0  0  0  0  0  0
   37.5010   24.2320   36.9010 N   0  0  0  0  0  0  0  0  0  0  0  0
  1 11  1  0  0  0  0
  1  6  1  1  0  0  0
  2  7  1  1  0  0  0
  2  1  1  0  0  0  0
  3  4  1  0  0  0  0
  3  2  1  0  0  0  0
  4  5  1  0  0  0  0
  5  1  1  0  0  0  0
  5 10  1  1  0  0  0
  5 28  1  0  0  0  0
  8  4  1  0  0  0  0
  9  4  1  0  0  0  0
 12 11  1  0  0  0  0
 13  2  1  0  0  0  0
 15 14  2  6  0  0  0
 15 18  1  0  0  0  0
 15 13  1  0  0  0  0
 16 15  1  0  0  0  0
 17 16  1  0  0  0  0
 18 19  1  0  0  0  0
 19 24  2  0  0  0  0
 19 20  1  0  0  0  0
 20 21  2  0  0  0  0
 21 22  1  0  0  0  0
 21 26  1  0  0  0  0
 23 27  1  0  0  0  0
 23 22  2  0  0  0  0
 24 23  1  0  0  0  0
 25 20  1  0  0  0  0
 28 29  1  0  0  0  0
 29 30  2  0  0  0  0
 29 36  1  0  0  0  0
 30 32  1  0  0  0  0
 31 30  1  0  0  0  0
 32 33  1  0  0  0  0
 32 34  2  0  0  0  0
 35 34  1  0  0  0  0
 36 35  2  0  0  0  0
M  END
>  <minimizedAffinity>
-5.14342546

$$$$

 OpenBabel03272503513D

 36 38  0  0  1  0  0  0  0  0999 V2000
   37.6360   27.1630   35.3790 C   0  0  1  0  0  0  0  0  0  0  0  0
   36.6900   27.6870   34.2740 C   0  0  2  0  0  0  0  0  0  0  0  0
   37.4940   27.7500   33.1810 O   0  0  0  0  0  0  0  0  0  0  0  0
   38.1800   26.5520   33.1800 C   0  0  0  0  0  0  0  0  0  0  0  0
   38.4580   26.1760   34.6110 C   0  0  2  0  0  0  0  0  0  0  0  0
   37.0210   26.6960   36.1670 H   0  0  0  0  0  0  0  0  0  0  0  0
   35.8650   26.9390   34.2160 H   0  0  0  0  0  0  0  0  0  0  0  0
   39.1590   26.7210   32.6840 H   0  0  0  0  0  0  0  0  0  0  0  0
   37.5390   25.8190   32.6500 H   0  0  0  0  0  0  0  0  0  0  0  0
   39.5230   26.2430   34.8760 H   0  0  0  0  0  0  0  0  0  0  0  0
   38.3500   28.2050   35.9370 O   0  0  0  0  0  0  0  0  0  0  0  0
   38.8320   28.6710   35.2230 H   0  0  0  0  0  0  0  0  0  0  0  0
   36.2090   28.8650   34.7630 O   0  0  0  0  0  0  0  0  0  0  0  0
   35.9370   30.8420   33.0350 O   0  0  0  0  0  0  0  0  0  0  0  0
   35.1960   29.6880   33.6990 P   0  0  1  0  0  0  0  0  0  0  0  0
   34.7350   28.6690   32.4290 O   0  0  0  0  0  0  0  0  0  0  0  0
   35.1850   28.8490   31.5890 H   0  0  0  0  0  0  0  0  0  0  0  0
   33.8280   30.1940   34.5790 O   0  0  0  0  0  0  0  0  0  0  0  0
   32.7420   29.3660   34.7990 C   0  0  0  0  0  0  0  0  0  0  0  0
   32.3290   28.8810   36.0570 C   0  0  0  0  0  0  0  0  0  0  0  0
   31.2120   28.0560   36.1010 C   0  0  0  0  0  0  0  0  0  0  0  0
   30.5720   27.7570   34.9260 N   0  0  0  0  0  0  0  0  0  0  0  0
   30.9950   28.2410   33.7290 C   0  0  0  0  0  0  0  0  0  0  0  0
   32.0870   29.0510   33.6650 N   0  0  0  0  0  0  0  0  0  0  0  0
   32.9240   29.1980   36.8790 H   0  0  0  0  0  0  0  0  0  0  0  0
   30.9100   27.6960   37.0530 H   0  0  0  0  0  0  0  0  0  0  0  0
   30.4240   27.9490   32.8580 H   0  0  0  0  0  0  0  0  0  0  0  0
   38.0140   24.8810   34.8710 O   0  0  0  0  0  0  0  0  0  0  0  0
   38.5600   24.1770   35.9440 C   0  0  0  0  0  0  0  0  0  0  0  0
   39.7970   23.5950   35.7870 C   0  0  0  0  0  0  0  0  0  0  0  0
   40.3210   23.6990   34.8280 H   0  0  0  0  0  0  0  0  0  0  0  0
   40.3610   22.8910   36.8380 C   0  0  0  0  0  0  0  0  0  0  0  0
   41.3430   22.4270   36.7180 H   0  0  0  0  0  0  0  0  0  0  0  0
   39.6800   22.7750   38.0370 C   0  0  0  0  0  3  0  0  0  0  0  0
   38.4450   23.3730   38.1470 C   0  0  0  0  0  3  0  0  0  0  0  0
   37.8810   24.0680   37.1210 N   0  0  0  0  0  0  0  0  0  0  0  0
  1 11  1  0  0  0  0
  1  6  1  1  0  0  0
  2  7  1  6  0  0  0
  2 13  1  0  0  0  0
  2  1  1  0  0  0  0
  3  2  1  0  0  0  0
  4  3  1  0  0  0  0
  4  5  1  0  0  0  0
  5 28  1  0  0  0  0
  5 10  1  1  0  0  0
  5  1  1  0  0  0  0
  8  4  1  0  0  0  0
  9  4  1  0  0  0  0
 12 11  1  0  0  0  0
 15 14  2  6  0  0  0
 15 18  1  0  0  0  0
 15 13  1  0  0  0  0
 16 15  1  0  0  0  0
 17 16  1  0  0  0  0
 18 19  1  0  0  0  0
 19 20  1  0  0  0  0
 20 21  2  0  0  0  0
 20 25  1  0  0  0  0
 21 26  1  0  0  0  0
 22 21  1  0  0  0  0
 23 22  2  0  0  0  0
 24 23  1  0  0  0  0
 24 19  2  0  0  0  0
 27 23  1  0  0  0  0
 28 29  1  0  0  0  0
 29 36  1  0  0  0  0
 30 29  2  0  0  0  0
 30 32  1  0  0  0  0
 31 30  1  0  0  0  0
 32 34  2  0  0  0  0
 33 32  1  0  0  0  0
 34 35  1  0  0  0  0
 36 35  2  0  0  0  0
M  END
>  <minimizedAffinity>
-5.09834003

$$$$

 OpenBabel03272503513D

 36 38  0  0  1  0  0  0  0  0999 V2000
   39.0540   23.7630   35.7670 C   0  0  1  0  0  0  0  0  0  0  0  0
   38.1150   24.8780   36.2810 C   0  0  2  0  0  0  0  0  0  0  0  0
   37.2420   24.2070   37.0770 O   0  0  0  0  0  0  0  0  0  0  0  0
   38.0350   23.3770   37.8440 C   0  0  0  0  0  0  0  0  0  0  0  0
   39.1800   22.9060   36.9870 C   0  0  2  0  0  0  0  0  0  0  0  0
   40.0080   24.2280   35.4620 H   0  0  0  0  0  0  0  0  0  0  0  0
   38.7800   25.6020   36.8070 H   0  0  0  0  0  0  0  0  0  0  0  0
   37.4320   22.4850   38.1150 H   0  0  0  0  0  0  0  0  0  0  0  0
   38.3610   23.9700   38.7230 H   0  0  0  0  0  0  0  0  0  0  0  0
   39.1200   21.8370   36.7380 H   0  0  0  0  0  0  0  0  0  0  0  0
   38.5000   23.1340   34.6690 O   0  0  0  0  0  0  0  0  0  0  0  0
   37.6160   22.7930   34.9170 H   0  0  0  0  0  0  0  0  0  0  0  0
   37.6130   25.4530   35.1520 O   0  0  0  0  0  0  0  0  0  0  0  0
   36.7570   27.9270   34.8090 O   0  0  0  0  0  0  0  0  0  0  0  0
   38.0120   27.0790   34.9720 P   0  0  1  0  0  0  0  0  0  0  0  0
   38.7540   27.6550   36.3810 O   0  0  0  0  0  0  0  0  0  0  0  0
   38.1850   28.2160   36.9310 H   0  0  0  0  0  0  0  0  0  0  0  0
   39.0770   27.2040   33.6480 O   0  0  0  0  0  0  0  0  0  0  0  0
   40.2530   26.4790   33.5740 C   0  0  0  0  0  0  0  0  0  0  0  0
   41.4750   26.8450   34.1760 C   0  0  0  0  0  0  0  0  0  0  0  0
   42.5640   26.0010   34.0020 C   0  0  0  0  0  0  0  0  0  0  0  0
   42.3970   24.8610   33.2590 N   0  0  0  0  0  0  0  0  0  0  0  0
   41.2060   24.5360   32.6910 C   0  0  0  0  0  0  0  0  0  0  0  0
   40.1280   25.3500   32.8500 N   0  0  0  0  0  0  0  0  0  0  0  0
   41.4520   27.7580   34.7220 H   0  0  0  0  0  0  0  0  0  0  0  0
   43.4790   26.2870   34.4600 H   0  0  0  0  0  0  0  0  0  0  0  0
   41.1740   23.6170   32.1230 H   0  0  0  0  0  0  0  0  0  0  0  0
   40.3980   23.1510   37.6190 O   0  0  0  0  0  0  0  0  0  0  0  0
   41.5570   22.5670   37.1100 C   0  0  0  0  0  0  0  0  0  0  0  0
   41.7190   21.2070   37.2370 C   0  0  0  0  0  0  0  0  0  0  0  0
   40.9360   20.6170   37.7320 H   0  0  0  0  0  0  0  0  0  0  0  0
   42.8620   20.6030   36.7390 C   0  0  0  0  0  0  0  0  0  0  0  0
   42.9950   19.5230   36.8370 H   0  0  0  0  0  0  0  0  0  0  0  0
   43.8340   21.3680   36.1190 C   0  0  0  0  0  3  0  0  0  0  0  0
   43.6290   22.7260   36.0160 C   0  0  0  0  0  3  0  0  0  0  0  0
   42.5090   23.3300   36.5010 N   0  0  0  0  0  0  0  0  0  0  0  0
  1  6  1  6  0  0  0
  1  2  1  0  0  0  0
  1  5  1  0  0  0  0
  2  7  1  1  0  0  0
  2  3  1  0  0  0  0
  3  4  1  0  0  0  0
  4  8  1  0  0  0  0
  4  9  1  0  0  0  0
  5 10  1  6  0  0  0
  5 28  1  0  0  0  0
  5  4  1  0  0  0  0
 11 12  1  0  0  0  0
 11  1  1  0  0  0  0
 13  2  1  0  0  0  0
 15 14  2  6  0  0  0
 15 13  1  0  0  0  0
 15 16  1  0  0  0  0
 16 17  1  0  0  0  0
 18 15  1  0  0  0  0
 19 18  1  0  0  0  0
 19 20  1  0  0  0  0
 20 25  1  0  0  0  0
 21 20  2  0  0  0  0
 21 26  1  0  0  0  0
 22 21  1  0  0  0  0
 23 24  1  0  0  0  0
 23 22  2  0  0  0  0
 24 19  2  0  0  0  0
 27 23  1  0  0  0  0
 29 30  1  0  0  0  0
 29 28  1  0  0  0  0
 30 31  1  0  0  0  0
 32 33  1  0  0  0  0
 32 30  2  0  0  0  0
 34 32  1  0  0  0  0
 35 34  2  0  0  0  0
 35 36  1  0  0  0  0
 36 29  2  0  0  0  0
M  END
>  <minimizedAffinity>
-5.07071304

$$$$

 OpenBabel03272503513D

 36 38  0  0  1  0  0  0  0  0999 V2000
   37.5010   23.7340   30.8690 C   0  0  1  0  0  0  0  0  0  0  0  0
   37.1000   25.1580   31.3170 C   0  0  2  0  0  0  0  0  0  0  0  0
   35.8580   25.3120   30.7880 O   0  0  0  0  0  0  0  0  0  0  0  0
   35.2010   24.1370   31.0890 C   0  0  0  0  0  0  0  0  0  0  0  0
   36.1970   23.0120   31.0020 C   0  0  2  0  0  0  0  0  0  0  0  0
   38.2770   23.3610   31.5590 H   0  0  0  0  0  0  0  0  0  0  0  0
   37.1440   25.1380   32.4310 H   0  0  0  0  0  0  0  0  0  0  0  0
   34.4350   23.9650   30.3040 H   0  0  0  0  0  0  0  0  0  0  0  0
   34.7690   24.2640   32.1030 H   0  0  0  0  0  0  0  0  0  0  0  0
   36.0170   22.3420   30.1490 H   0  0  0  0  0  0  0  0  0  0  0  0
   38.0240   23.7600   29.5910 O   0  0  0  0  0  0  0  0  0  0  0  0
   37.3650   24.1680   28.9920 H   0  0  0  0  0  0  0  0  0  0  0  0
   38.0880   25.9630   30.8320 O   0  0  0  0  0  0  0  0  0  0  0  0
   38.9330   28.4390   30.4800 O   0  0  0  0  0  0  0  0  0  0  0  0
   37.7210   27.6050   30.8780 P   0  0  1  0  0  0  0  0  0  0  0  0
   36.5370   27.9690   29.7250 O   0  0  0  0  0  0  0  0  0  0  0  0
   36.8730   28.4240   28.9370 H   0  0  0  0  0  0  0  0  0  0  0  0
   37.1540   27.9620   32.4440 O   0  0  0  0  0  0  0  0  0  0  0  0
   37.8710   27.6380   33.5820 C   0  0  0  0  0  0  0  0  0  0  0  0
   37.3560   27.6330   34.8960 C   0  0  0  0  0  0  0  0  0  0  0  0
   38.2150   27.2820   35.9290 C   0  0  0  0  0  0  0  0  0  0  0  0
   39.5120   26.9590   35.6220 N   0  0  0  0  0  0  0  0  0  0  0  0
   39.9780   26.9740   34.3460 C   0  0  0  0  0  0  0  0  0  0  0  0
   39.1520   27.3150   33.3200 N   0  0  0  0  0  0  0  0  0  0  0  0
   36.3320   27.9060   34.9780 H   0  0  0  0  0  0  0  0  0  0  0  0
   37.8170   27.2810   36.9130 H   0  0  0  0  0  0  0  0  0  0  0  0
   41.0160   26.7040   34.2050 H   0  0  0  0  0  0  0  0  0  0  0  0
   36.1870   22.2570   32.1730 O   0  0  0  0  0  0  0  0  0  0  0  0
   36.0520   20.8720   32.0890 C   0  0  0  0  0  0  0  0  0  0  0  0
   36.4590   20.2400   30.9370 C   0  0  0  0  0  0  0  0  0  0  0  0
   36.8780   20.8380   30.1170 H   0  0  0  0  0  0  0  0  0  0  0  0
   36.3350   18.8640   30.8290 C   0  0  0  0  0  0  0  0  0  0  0  0
   36.6570   18.3580   29.9160 H   0  0  0  0  0  0  0  0  0  0  0  0
   35.8040   18.1340   31.8780 C   0  0  0  0  0  3  0  0  0  0  0  0
   35.4100   18.8100   33.0110 C   0  0  0  0  0  3  0  0  0  0  0  0
   35.5270   20.1610   33.1270 N   0  0  0  0  0  0  0  0  0  0  0  0
  1  5  1  0  0  0  0
  1  2  1  0  0  0  0
  1  6  1  1  0  0  0
  2  7  1  1  0  0  0
  3  4  1  0  0  0  0
  3  2  1  0  0  0  0
  4  9  1  0  0  0  0
  5 10  1  6  0  0  0
  5  4  1  0  0  0  0
  5 28  1  0  0  0  0
  8  4  1  0  0  0  0
 11  1  1  0  0  0  0
 12 11  1  0  0  0  0
 13 15  1  0  0  0  0
 13  2  1  0  0  0  0
 15 14  2  6  0  0  0
 15 18  1  0  0  0  0
 16 15  1  0  0  0  0
 17 16  1  0  0  0  0
 18 19  1  0  0  0  0
 19 20  1  0  0  0  0
 20 25  1  0  0  0  0
 20 21  2  0  0  0  0
 21 26  1  0  0  0  0
 22 21  1  0  0  0  0
 23 22  2  0  0  0  0
 24 19  2  0  0  0  0
 24 23  1  0  0  0  0
 27 23  1  0  0  0  0
 29 28  1  0  0  0  0
 29 36  1  0  0  0  0
 30 29  2  0  0  0  0
 31 30  1  0  0  0  0
 32 30  1  0  0  0  0
 32 34  2  0  0  0  0
 33 32  1  0  0  0  0
 34 35  1  0  0  0  0
 35 36  2  0  0  0  0
M  END
>  <minimizedAffinity>
-5.04060745

$$$$
