
 OpenBabel03262520343D

 28 29  0  0  0  0  0  0  0  0999 V2000
   33.3640   27.9120   47.3820 C   0  0  0  0  0  0  0  0  0  0  0  0
   33.8380   27.3220   46.5480 H   0  0  0  0  0  0  0  0  0  0  0  0
   32.7150   28.6470   46.9030 H   0  0  0  0  0  0  0  0  0  0  0  0
   34.8740   28.4120   49.2820 C   0  0  0  0  0  0  0  0  0  0  0  0
   34.4790   28.6230   48.0540 C   0  0  0  0  0  0  0  0  0  0  0  0
   37.2390   30.1280   51.4770 C   0  0  0  0  0  0  0  0  0  0  0  0
   38.1220   30.7320   50.5630 C   0  0  0  0  0  0  0  0  0  0  0  0
   37.8700   30.5250   49.2100 C   0  0  0  0  0  0  0  0  0  0  0  0
   36.7920   29.7560   48.8610 N   0  0  0  0  0  0  0  0  0  0  0  0
   35.9890   29.2090   49.7670 C   0  0  0  0  0  0  0  0  0  0  0  0
   36.2160   29.3970   51.0700 N   0  0  0  0  0  0  0  0  0  0  0  0
   37.3810   30.2510   52.5360 H   0  0  0  0  0  0  0  0  0  0  0  0
   38.9570   31.3280   50.9240 H   0  0  0  0  0  0  0  0  0  0  0  0
   38.5050   30.9570   48.4730 H   0  0  0  0  0  0  0  0  0  0  0  0
   32.6940   27.0530   48.2550 O   0  0  0  0  0  0  0  0  0  0  0  0
   30.3300   26.3150   47.6370 O   0  0  0  0  0  0  0  0  0  0  0  0
   31.0420   27.5040   48.2890 P   0  0  2  0  0  0  0  0  0  0  0  0
   30.8690   28.8870   47.3370 O   0  0  0  0  0  0  0  0  0  0  0  0
   29.9320   29.0680   47.0920 H   0  0  0  0  0  0  0  0  0  0  0  0
   30.5080   27.7550   49.8680 O   0  0  0  0  0  0  0  0  0  0  0  0
   29.1590   27.9350   50.1130 C   0  0  0  0  0  0  0  0  0  0  0  0
   28.6110   27.1170   51.0860 C   0  0  0  0  0  0  0  0  0  0  0  0
   29.1300   26.3550   51.6710 H   0  0  0  0  0  0  0  0  0  0  0  0
   27.2740   27.2020   51.4200 C   0  0  0  0  0  0  0  0  0  0  0  0
   26.7550   26.6090   52.1640 H   0  0  0  0  0  0  0  0  0  0  0  0
   26.4900   28.1390   50.7470 C   0  0  0  0  0  0  0  0  0  0  0  0
   27.0460   28.9360   49.7920 C   0  0  0  0  0  0  0  0  0  0  0  0
   28.3600   28.8330   49.4830 N   0  0  0  0  0  0  0  0  0  0  0  0
  1  5  1  0  0  0  0
  1 15  1  0  0  0  0
  2  1  1  0  0  0  0
  3  1  1  0  0  0  0
  4 10  1  0  0  0  0
  5  4  2  0  0  0  0
  6 12  1  0  0  0  0
  7 13  1  0  0  0  0
  7  6  2  0  0  0  0
  8  7  1  0  0  0  0
  9  8  2  0  0  0  0
  9 10  1  0  0  0  0
 10 11  2  0  0  0  0
 11  6  1  0  0  0  0
 14  8  1  0  0  0  0
 15 17  1  0  0  0  0
 17 16  2  6  0  0  0
 17 20  1  0  0  0  0
 18 17  1  0  0  0  0
 19 18  1  0  0  0  0
 20 21  1  0  0  0  0
 21 22  1  0  0  0  0
 22 24  2  0  0  0  0
 22 23  1  0  0  0  0
 24 25  1  0  0  0  0
 26 24  1  0  0  0  0
 27 26  2  0  0  0  0
 28 27  1  0  0  0  0
 28 21  2  0  0  0  0
M  END
>  <minimizedAffinity>
-6.05570555

>  <minimizedRMSD>
1.54887176

$$$$
