
     RDKit          3D

 47 50  0  0  0  0  0  0  0  0999 V2000
   37.3397   30.1689   51.5109 C   0  0  0  0  0  0  0  0  0  0  0  0
   38.0718   30.8603   50.5220 C   0  0  0  0  0  0  0  0  0  0  0  0
   37.7006   30.6502   49.1961 C   0  0  0  0  0  0  0  0  0  0  0  0
   36.6621   29.7934   48.9849 N   0  0  0  0  0  0  0  0  0  0  0  0
   35.9853   29.1517   49.9312 C   0  0  0  0  0  0  0  0  0  0  0  0
   36.3412   29.3519   51.2191 N   0  0  0  0  0  0  0  0  0  0  0  0
   38.9355   33.2702   49.0185 F   0  0  0  0  0  0  0  0  0  0  0  0
   38.9051   32.4733   47.9489 C   0  0  0  0  0  0  0  0  0  0  0  0
   38.3310   31.2682   48.0505 C   0  0  0  0  0  0  0  0  0  0  0  0
   38.3534   30.5154   46.8738 C   0  0  0  0  0  0  0  0  0  0  0  0
   38.9218   30.9851   45.7126 C   0  0  0  0  0  0  0  0  0  0  0  0
   39.5006   32.2351   45.6613 C   0  0  0  0  0  0  0  0  0  0  0  0
   39.4817   32.9716   46.8028 C   0  0  0  0  0  0  0  0  0  0  0  0
   34.9981   28.3590   49.4480 O   0  0  0  0  0  0  0  0  0  0  0  0
   34.4441   28.6417   48.1813 C   0  0  0  0  0  0  0  0  0  0  0  0
   33.5570   27.5373   47.7146 C   0  0  0  0  0  0  0  0  0  0  0  0
   32.1131   27.8967   47.7475 C   0  0  0  0  0  0  0  0  0  0  0  0
   31.3748   27.4910   48.8470 C   0  0  0  0  0  0  0  0  0  0  0  0
   30.0407   27.7716   48.9719 C   0  0  0  0  0  0  0  0  0  0  0  0
   29.4369   28.4530   48.0102 N   0  0  0  0  0  0  0  0  0  0  0  0
   30.1576   28.8564   46.9237 C   0  0  0  0  0  0  0  0  0  0  0  0
   31.4722   28.5918   46.7787 N   0  0  0  0  0  0  0  0  0  0  0  0
   29.4627   29.6201   45.8541 C   0  0  0  0  0  0  0  0  0  0  0  0
   37.6681   30.3664   52.5321 H   0  0  0  0  0  0  0  0  0  0  0  0
   38.8891   31.5333   50.7055 H   0  0  0  0  0  0  0  0  0  0  0  0
   37.9236   29.5191   46.8120 H   0  0  0  0  0  0  0  0  0  0  0  0
   38.9289   30.3866   44.8120 H   0  0  0  0  0  0  0  0  0  0  0  0
   39.9411   32.5754   44.7265 H   0  0  0  0  0  0  0  0  0  0  0  0
   39.9329   33.9549   46.7760 H   0  0  0  0  0  0  0  0  0  0  0  0
   33.9441   29.6288   48.1588 H   0  0  0  0  0  0  0  0  0  0  0  0
   35.3230   28.7346   47.4955 H   0  0  0  0  0  0  0  0  0  0  0  0
   33.7772   27.3319   46.6337 H   0  0  0  0  0  0  0  0  0  0  0  0
   33.7052   26.6147   48.2871 H   0  0  0  0  0  0  0  0  0  0  0  0
   31.8534   26.9299   49.6476 H   0  0  0  0  0  0  0  0  0  0  0  0
   29.4435   27.4726   49.8076 H   0  0  0  0  0  0  0  0  0  0  0  0
   30.1144   30.4123   45.4246 H   0  0  0  0  0  0  0  0  0  0  0  0
   28.6256   30.1672   46.3344 H   0  0  0  0  0  0  0  0  0  0  0  0
   28.9021   28.7293   44.8255 C   0  0  0  0  0  0  0  0  0  0  0  0
   29.1389   27.3717   45.0693 C   0  0  0  0  0  0  0  0  0  0  0  0
   29.6736   27.0009   45.9162 H   0  0  0  0  0  0  0  0  0  0  0  0
   28.6389   26.4575   44.1387 C   0  0  0  0  0  0  0  0  0  0  0  0
   28.7954   25.3804   44.2801 H   0  0  0  0  0  0  0  0  0  0  0  0
   27.9349   26.8361   43.0115 C   0  0  0  0  0  0  0  0  0  0  0  0
   27.7395   28.2103   42.8384 C   0  0  0  0  0  0  0  0  0  0  0  0
   28.2194   29.0972   43.7326 N   0  0  0  0  0  0  0  0  0  0  0  0
   27.5731   26.0750   42.3274 H   0  0  0  0  0  0  0  0  0  0  0  0
   27.1911   28.5344   41.9637 H   0  0  0  0  0  0  0  0  0  0  0  0
  2  1  2  0
  3  2  1  0
  4  3  2  0
  4  5  1  0
  5  6  2  0
  6  1  1  0
  8  9  2  0
  8  7  1  0
  9  3  1  0
 10  9  1  0
 11 10  2  0
 12 11  1  0
 12 13  2  0
 13  8  1  0
 14  5  1  0
 15 14  1  0
 16 17  1  0
 16 15  1  0
 17 18  2  0
 18 19  1  0
 20 19  2  0
 21 20  1  0
 22 21  2  0
 22 17  1  0
 23 21  1  0
  1 24  1  0
  2 25  1  0
 10 26  1  0
 11 27  1  0
 12 28  1  0
 13 29  1  0
 15 30  1  0
 15 31  1  0
 16 32  1  0
 16 33  1  0
 18 34  1  0
 19 35  1  0
 23 36  1  0
 23 37  1  0
 38 39  2  0
 39 40  1  0
 39 41  1  0
 41 42  1  0
 41 43  2  0
 43 44  1  0
 44 45  2  0
 45 38  1  0
 43 46  1  0
 44 47  1  0
 23 38  1  0
M  ISO  8  24  14  25  14  26  14  27  14  28  14  29  14  30   8  31   8
M  ISO  8  32   8  33   8  34  14  35  14  36   8  37   8  40  15  42  16
M  END
>  <DihAtoms>  (1) 
20,22,37,38

>  <DihDeg>  (1) 
-90.0002635294063

$$$$
