
 OpenBabel03272509573D

 45 48  0  0  0  0  0  0  0  0999 V2000
   34.4450   28.6700   48.1560 C   0  0  0  0  0  0  0  0  0  0  0  0
   33.9440   29.6570   48.1540 H   0  0  0  0  0  0  0  0  0  0  0  0
   35.3300   28.7810   47.4810 H   0  0  0  0  0  0  0  0  0  0  0  0
   33.5630   27.5770   47.6530 C   0  0  0  0  0  0  0  0  0  0  0  0
   33.7520   27.4410   46.5550 H   0  0  0  0  0  0  0  0  0  0  0  0
   33.7470   26.6260   48.1630 H   0  0  0  0  0  0  0  0  0  0  0  0
   32.1150   27.9050   47.7530 C   0  0  0  0  0  0  0  0  0  0  0  0
   31.4290   27.4490   48.8660 C   0  0  0  0  0  0  0  0  0  0  0  0
   30.0960   27.6980   49.0520 C   0  0  0  0  0  0  0  0  0  0  0  0
   29.4410   28.3950   48.1360 N   0  0  0  0  0  0  0  0  0  0  0  0
   30.1100   28.8470   47.0360 C   0  0  0  0  0  0  0  0  0  0  0  0
   31.4220   28.6160   46.8320 N   0  0  0  0  0  0  0  0  0  0  0  0
   31.9490   26.8740   49.6300 H   0  0  0  0  0  0  0  0  0  0  0  0
   29.5380   27.3600   49.9000 H   0  0  0  0  0  0  0  0  0  0  0  0
   29.3580   29.6290   46.0190 C   0  0  0  0  0  0  0  0  0  0  0  0
   30.0390   30.1050   45.2800 H   0  0  0  0  0  0  0  0  0  0  0  0
   28.8750   30.4740   46.5480 H   0  0  0  0  0  0  0  0  0  0  0  0
   28.3060   28.8210   45.3800 C   0  0  0  0  0  0  0  0  0  0  0  0
   28.8000   27.8280   44.5290 C   0  0  0  0  0  0  0  0  0  0  0  0
   29.8390   27.6570   44.3490 H   0  0  0  0  0  0  0  0  0  0  0  0
   27.8650   27.0150   43.8820 C   0  0  0  0  0  0  0  0  0  0  0  0
   28.1970   26.2200   43.2030 H   0  0  0  0  0  0  0  0  0  0  0  0
   26.5010   27.1550   44.0490 C   0  0  0  0  0  3  0  0  0  0  0  0
   26.0860   28.1710   44.9150 C   0  0  0  0  0  3  0  0  0  0  0  0
   26.9830   28.9580   45.5420 N   0  0  0  0  0  0  0  0  0  0  0  0
   34.9870   28.3550   49.4200 O   0  0  0  0  0  0  0  0  0  0  0  0
   37.2810   30.1310   51.5640 C   0  0  0  0  0  0  0  0  0  0  0  0
   38.0260   30.8480   50.6040 C   0  0  0  0  0  0  0  0  0  0  0  0
   37.6800   30.6660   49.2670 C   0  0  0  0  0  0  0  0  0  0  0  0
   36.6500   29.8080   49.0190 N   0  0  0  0  0  0  0  0  0  0  0  0
   35.9600   29.1420   49.9380 C   0  0  0  0  0  0  0  0  0  0  0  0
   36.2920   29.3150   51.2370 N   0  0  0  0  0  0  0  0  0  0  0  0
   37.5900   30.3070   52.5950 H   0  0  0  0  0  0  0  0  0  0  0  0
   38.8360   31.5210   50.8180 H   0  0  0  0  0  0  0  0  0  0  0  0
   38.8730   33.3080   49.1620 F   0  0  0  0  0  0  0  0  0  0  0  0
   38.8820   32.5280   48.0790 C   0  0  0  0  0  0  0  0  0  0  0  0
   38.3270   31.3120   48.1470 C   0  0  0  0  0  0  0  0  0  0  0  0
   38.3900   30.5790   46.9600 C   0  0  0  0  0  0  0  0  0  0  0  0
   38.9780   31.0770   45.8210 C   0  0  0  0  0  0  0  0  0  0  0  0
   39.5370   32.3370   45.8020 C   0  0  0  0  0  0  0  0  0  0  0  0
   39.4780   33.0550   46.9550 C   0  0  0  0  0  0  0  0  0  0  0  0
   37.9790   29.5770   46.8720 H   0  0  0  0  0  0  0  0  0  0  0  0
   39.0170   30.4940   44.9110 H   0  0  0  0  0  0  0  0  0  0  0  0
   39.9930   32.7000   44.8850 H   0  0  0  0  0  0  0  0  0  0  0  0
   39.9120   34.0460   46.9540 H   0  0  0  0  0  0  0  0  0  0  0  0
  1 26  1  0  0  0  0
  2  1  1  0  0  0  0
  3  1  1  0  0  0  0
  4  7  1  0  0  0  0
  4  1  1  0  0  0  0
  4  6  1  0  0  0  0
  5  4  1  0  0  0  0
  7  8  1  0  0  0  0
  8  9  2  0  0  0  0
  8 13  1  0  0  0  0
  9 14  1  0  0  0  0
 10  9  1  0  0  0  0
 11 10  2  0  0  0  0
 12 11  1  0  0  0  0
 12  7  2  0  0  0  0
 15 17  1  0  0  0  0
 15 11  1  0  0  0  0
 16 15  1  0  0  0  0
 18 25  1  0  0  0  0
 18 15  1  0  0  0  0
 19 18  2  0  0  0  0
 20 19  1  0  0  0  0
 21 23  2  0  0  0  0
 21 19  1  0  0  0  0
 22 21  1  0  0  0  0
 23 24  1  0  0  0  0
 24 25  2  0  0  0  0
 26 31  1  0  0  0  0
 27 33  1  0  0  0  0
 28 34  1  0  0  0  0
 28 27  2  0  0  0  0
 29 28  1  0  0  0  0
 30 29  2  0  0  0  0
 30 31  1  0  0  0  0
 31 32  2  0  0  0  0
 32 27  1  0  0  0  0
 36 37  1  0  0  0  0
 36 35  1  0  0  0  0
 37 29  1  0  0  0  0
 38 37  2  0  0  0  0
 39 38  1  0  0  0  0
 40 39  2  0  0  0  0
 40 41  1  0  0  0  0
 41 36  2  0  0  0  0
 42 38  1  0  0  0  0
 43 39  1  0  0  0  0
 44 40  1  0  0  0  0
 45 41  1  0  0  0  0
M  END
>  <minimizedAffinity>
-6.58526278

>  <minimizedRMSD>
0.697394013

$$$$
