
 OpenBabel03262520463D

 33 35  0  0  1  0  0  0  0  0999 V2000
   38.7010   32.2140   46.8870 C   0  0  1  0  0  0  0  0  0  0  0  0
   39.8590   32.9740   46.2570 C   0  0  0  0  0  0  0  0  0  0  0  0
   39.8510   31.5000   46.3030 C   0  0  2  0  0  0  0  0  0  0  0  0
   37.7290   32.2060   46.3730 H   0  0  0  0  0  0  0  0  0  0  0  0
   39.7020   33.4220   45.2380 H   0  0  0  0  0  0  0  0  0  0  0  0
   40.5270   33.5580   46.8930 H   0  0  0  0  0  0  0  0  0  0  0  0
   40.5750   31.0670   47.0440 H   0  0  0  0  0  0  0  0  0  0  0  0
   38.5720   32.3870   48.3830 C   0  0  0  0  0  0  0  0  0  0  0  0
   38.0000   33.3160   48.5720 H   0  0  0  0  0  0  0  0  0  0  0  0
   39.5890   32.5270   48.8180 H   0  0  0  0  0  0  0  0  0  0  0  0
   37.4380   29.9370   50.9620 C   0  0  0  0  0  0  0  0  0  0  0  0
   38.1150   31.0080   50.3250 C   0  0  0  0  0  0  0  0  0  0  0  0
   37.8440   31.2630   49.0060 C   0  0  0  0  0  0  0  0  0  0  0  0
   36.9500   30.4890   48.3690 N   0  0  0  0  0  0  0  0  0  0  0  0
   36.3170   29.4790   48.9880 C   0  0  0  0  0  0  0  0  0  0  0  0
   36.5660   29.2130   50.2720 N   0  0  0  0  0  0  0  0  0  0  0  0
   37.6230   29.7020   52.0030 H   0  0  0  0  0  0  0  0  0  0  0  0
   38.8060   31.5360   50.9730 H   0  0  0  0  0  0  0  0  0  0  0  0
   35.6370   28.9880   48.2780 H   0  0  0  0  0  0  0  0  0  0  0  0
   39.5430   30.6460   45.1050 C   0  0  0  0  0  0  0  0  0  0  0  0
   38.4680   30.6300   44.8350 H   0  0  0  0  0  0  0  0  0  0  0  0
   39.8080   29.5900   45.3630 H   0  0  0  0  0  0  0  0  0  0  0  0
   40.4020   30.9950   43.8960 C   0  0  0  0  0  0  0  0  0  0  0  0
   39.9290   31.8630   43.4080 H   0  0  0  0  0  0  0  0  0  0  0  0
   41.3940   31.3170   44.2400 H   0  0  0  0  0  0  0  0  0  0  0  0
   40.4700   29.8730   42.9330 C   0  0  0  0  0  0  0  0  0  0  0  0
   39.4450   28.9610   43.0200 C   0  0  0  0  0  0  0  0  0  0  0  0
   38.6320   29.0560   43.7510 H   0  0  0  0  0  0  0  0  0  0  0  0
   39.3100   27.8440   42.2250 C   0  0  0  0  0  0  0  0  0  0  0  0
   38.5230   27.1300   42.2790 H   0  0  0  0  0  0  0  0  0  0  0  0
   40.3020   27.6400   41.2600 C   0  0  0  0  0  0  0  0  0  0  0  0
   41.3330   28.5850   41.1950 C   0  0  0  0  0  0  0  0  0  0  0  0
   41.4170   29.6740   42.0100 N   0  0  0  0  0  0  0  0  0  0  0  0
  1  4  1  6  0  0  0
  1  8  1  0  0  0  0
  2  3  1  0  0  0  0
  2  1  1  0  0  0  0
  2  6  1  0  0  0  0
  3  1  1  0  0  0  0
  3  7  1  1  0  0  0
  5  2  1  0  0  0  0
  8  9  1  0  0  0  0
  8 10  1  0  0  0  0
  8 13  1  0  0  0  0
 11 17  1  0  0  0  0
 12 11  1  0  0  0  0
 12 18  1  0  0  0  0
 13 12  2  0  0  0  0
 14 15  2  0  0  0  0
 14 13  1  0  0  0  0
 15 16  1  0  0  0  0
 16 11  2  0  0  0  0
 19 15  1  0  0  0  0
 20 22  1  0  0  0  0
 20  3  1  0  0  0  0
 21 20  1  0  0  0  0
 23 25  1  0  0  0  0
 23 20  1  0  0  0  0
 24 23  1  0  0  0  0
 26 27  1  0  0  0  0
 26 23  1  0  0  0  0
 27 28  1  0  0  0  0
 29 30  1  0  0  0  0
 29 27  2  0  0  0  0
 31 29  1  0  0  0  0
 32 31  2  0  0  0  0
 32 33  1  0  0  0  0
 33 26  2  0  0  0  0
M  END
>  <minimizedAffinity>
-5.23085976

>  <minimizedRMSD>
0.985282362

$$$$
