
 OpenBabel03262523413D

 37 39  0  0  1  0  0  0  0  0999 V2000
   37.0550   29.2070   50.6660 C   0  0  0  0  0  0  0  0  0  0  0  0
   36.6150   29.0940   49.3500 C   0  0  0  0  0  0  0  0  0  0  0  0
   35.2830   29.1900   49.0050 C   0  0  0  0  0  0  0  0  0  0  0  0
   34.4580   29.4000   50.0510 N   0  0  0  0  0  0  0  0  0  0  0  0
   34.8370   29.5150   51.3330 C   0  0  0  0  0  0  0  0  0  0  0  0
   36.1540   29.4150   51.6260 N   0  0  0  0  0  0  0  0  0  0  0  0
   34.8440   29.0810   47.6830 N   0  0  0  0  0  0  0  0  0  0  0  0
   34.1660   27.8620   47.3360 C   0  0  0  0  0  0  0  0  0  0  0  0
   33.7160   27.7610   45.9200 C   0  0  0  0  0  0  0  0  0  0  0  0
   33.7150   28.9310   45.1610 N   0  0  0  0  0  0  0  0  0  0  0  0
   34.7760   29.8500   45.3490 C   0  0  0  0  0  0  0  0  0  0  0  0
   35.0850   30.1720   46.7790 C   0  0  2  0  0  0  0  0  0  0  0  0
   38.0770   29.1400   50.9840 H   0  0  0  0  0  0  0  0  0  0  0  0
   37.4410   28.9180   48.6820 H   0  0  0  0  0  0  0  0  0  0  0  0
   34.1560   29.6820   52.1410 H   0  0  0  0  0  0  0  0  0  0  0  0
   34.8690   27.0190   47.6090 H   0  0  0  0  0  0  0  0  0  0  0  0
   33.3140   27.7520   48.0410 H   0  0  0  0  0  0  0  0  0  0  0  0
   34.3620   27.0050   45.4100 H   0  0  0  0  0  0  0  0  0  0  0  0
   32.6910   27.3200   45.9160 H   0  0  0  0  0  0  0  0  0  0  0  0
   33.6220   28.7170   44.1580 H   0  0  0  0  0  0  0  0  0  0  0  0
   34.5150   30.7550   44.7890 H   0  0  0  0  0  0  0  0  0  0  0  0
   35.6790   29.3450   44.8890 H   0  0  0  0  0  0  0  0  0  0  0  0
   34.4350   31.0110   47.1100 H   0  0  0  0  0  0  0  0  0  0  0  0
   36.5040   30.6700   46.7980 C   0  0  0  0  0  0  0  0  0  0  0  0
   37.1220   29.8690   47.2740 H   0  0  0  0  0  0  0  0  0  0  0  0
   36.5470   31.6360   47.3090 H   0  0  0  0  0  0  0  0  0  0  0  0
   36.9620   30.7410   45.3470 C   0  0  0  0  0  0  0  0  0  0  0  0
   36.3890   31.4420   44.7360 H   0  0  0  0  0  0  0  0  0  0  0  0
   37.0820   29.7250   44.9380 H   0  0  0  0  0  0  0  0  0  0  0  0
   38.3760   31.2860   45.2930 C   0  0  0  0  0  0  0  0  0  0  0  0
   39.5180   30.6180   45.6620 C   0  0  0  0  0  0  0  0  0  0  0  0
   39.3720   29.6140   46.0200 H   0  0  0  0  0  0  0  0  0  0  0  0
   40.7270   31.2770   45.5440 C   0  0  0  0  0  0  0  0  0  0  0  0
   41.6180   30.7270   45.8420 H   0  0  0  0  0  0  0  0  0  0  0  0
   40.7620   32.5870   45.0590 C   0  0  0  0  0  0  0  0  0  0  0  0
   39.5870   33.2270   44.6960 C   0  0  0  0  0  0  0  0  0  0  0  0
   38.4430   32.5630   44.8240 N   0  0  0  0  0  0  0  0  0  0  0  0
  1 13  1  0  0  0  0
  1  6  1  0  0  0  0
  2  1  2  0  0  0  0
  3  2  1  0  0  0  0
  3  4  2  0  0  0  0
  4  5  1  0  0  0  0
  5  6  2  0  0  0  0
  5 15  1  0  0  0  0
  7  3  1  0  0  0  0
  8 16  1  0  0  0  0
  8  7  1  0  0  0  0
  8 17  1  0  0  0  0
  9  8  1  0  0  0  0
 10 11  1  0  0  0  0
 10  9  1  0  0  0  0
 11 12  1  0  0  0  0
 12 24  1  0  0  0  0
 12 23  1  1  0  0  0
 12  7  1  0  0  0  0
 14  2  1  0  0  0  0
 18  9  1  0  0  0  0
 19  9  1  0  0  0  0
 20 10  1  0  0  0  0
 21 11  1  0  0  0  0
 22 11  1  0  0  0  0
 24 25  1  0  0  0  0
 24 26  1  0  0  0  0
 27 24  1  0  0  0  0
 28 27  1  0  0  0  0
 29 27  1  0  0  0  0
 30 27  1  0  0  0  0
 30 31  1  0  0  0  0
 31 32  1  0  0  0  0
 33 31  2  0  0  0  0
 33 34  1  0  0  0  0
 35 33  1  0  0  0  0
 36 37  1  0  0  0  0
 36 35  2  0  0  0  0
 37 30  2  0  0  0  0
M  END
>  <minimizedAffinity>
-5.0189085

>  <minimizedRMSD>
5.48643541

$$$$
