
 OpenBabel03272509593D

 45 48  0  0  0  0  0  0  0  0999 V2000
   38.4030   27.1270   34.5890 C   0  0  0  0  0  0  0  0  0  0  0  0
   39.2070   26.6290   34.0150 H   0  0  0  0  0  0  0  0  0  0  0  0
   38.6390   28.2200   34.5520 H   0  0  0  0  0  0  0  0  0  0  0  0
   38.3430   26.6720   36.0090 C   0  0  0  0  0  0  0  0  0  0  0  0
   39.3110   26.9380   36.5110 H   0  0  0  0  0  0  0  0  0  0  0  0
   37.5190   27.1370   36.5600 H   0  0  0  0  0  0  0  0  0  0  0  0
   38.2390   25.1930   36.1420 C   0  0  0  0  0  0  0  0  0  0  0  0
   37.8900   24.6840   37.3810 C   0  0  0  0  0  0  0  0  0  0  0  0
   37.7680   23.3390   37.6070 C   0  0  0  0  0  0  0  0  0  0  0  0
   37.9920   22.4990   36.6080 N   0  0  0  0  0  0  0  0  0  0  0  0
   38.3360   22.9940   35.3840 C   0  0  0  0  0  0  0  0  0  0  0  0
   38.4620   24.3140   35.1370 N   0  0  0  0  0  0  0  0  0  0  0  0
   37.7030   25.3580   38.2150 H   0  0  0  0  0  0  0  0  0  0  0  0
   37.5000   22.9140   38.5520 H   0  0  0  0  0  0  0  0  0  0  0  0
   38.5830   22.0360   34.2740 C   0  0  0  0  0  0  0  0  0  0  0  0
   38.8640   21.0300   34.6540 H   0  0  0  0  0  0  0  0  0  0  0  0
   39.4770   22.3950   33.7250 H   0  0  0  0  0  0  0  0  0  0  0  0
   37.4520   21.9900   33.3320 C   0  0  0  0  0  0  0  0  0  0  0  0
   36.4610   21.0680   33.6910 C   0  0  0  0  0  0  0  0  0  0  0  0
   36.5060   20.4500   34.5610 H   0  0  0  0  0  0  0  0  0  0  0  0
   35.3510   20.9620   32.8480 C   0  0  0  0  0  0  0  0  0  0  0  0
   34.5440   20.2570   33.0810 H   0  0  0  0  0  0  0  0  0  0  0  0
   35.2000   21.7170   31.7010 C   0  0  0  0  0  3  0  0  0  0  0  0
   36.2320   22.6150   31.4120 C   0  0  0  0  0  3  0  0  0  0  0  0
   37.3050   22.7220   32.2200 N   0  0  0  0  0  0  0  0  0  0  0  0
   37.1470   27.0030   33.9550 O   0  0  0  0  0  0  0  0  0  0  0  0
   35.8740   29.5980   31.7960 C   0  0  0  0  0  0  0  0  0  0  0  0
   35.2600   30.4430   32.7450 C   0  0  0  0  0  0  0  0  0  0  0  0
   35.3290   30.0520   34.0800 C   0  0  0  0  0  0  0  0  0  0  0  0
   35.9880   28.8870   34.3380 N   0  0  0  0  0  0  0  0  0  0  0  0
   36.5600   28.1050   33.4290 C   0  0  0  0  0  0  0  0  0  0  0  0
   36.4950   28.4790   32.1330 N   0  0  0  0  0  0  0  0  0  0  0  0
   35.7930   29.9460   30.7660 H   0  0  0  0  0  0  0  0  0  0  0  0
   34.7450   31.3600   32.5240 H   0  0  0  0  0  0  0  0  0  0  0  0
   36.6750   31.8360   35.9310 F   0  0  0  0  0  0  0  0  0  0  0  0
   35.3650   31.6120   36.0530 C   0  0  0  0  0  0  0  0  0  0  0  0
   34.7620   30.7860   35.1900 C   0  0  0  0  0  0  0  0  0  0  0  0
   33.3920   30.6210   35.4060 C   0  0  0  0  0  0  0  0  0  0  0  0
   32.7280   31.2620   36.4270 C   0  0  0  0  0  0  0  0  0  0  0  0
   33.3960   32.1040   37.2900 C   0  0  0  0  0  0  0  0  0  0  0  0
   34.7300   32.2680   37.0840 C   0  0  0  0  0  0  0  0  0  0  0  0
   32.7770   29.9800   34.7820 H   0  0  0  0  0  0  0  0  0  0  0  0
   31.6670   31.1210   36.5780 H   0  0  0  0  0  0  0  0  0  0  0  0
   32.8410   32.5940   38.0860 H   0  0  0  0  0  0  0  0  0  0  0  0
   35.2660   32.9260   37.7540 H   0  0  0  0  0  0  0  0  0  0  0  0
  1  4  1  0  0  0  0
  2  1  1  0  0  0  0
  3  1  1  0  0  0  0
  4  7  1  0  0  0  0
  4  5  1  0  0  0  0
  4  6  1  0  0  0  0
  7  8  1  0  0  0  0
  8  9  2  0  0  0  0
  8 13  1  0  0  0  0
  9 14  1  0  0  0  0
 10  9  1  0  0  0  0
 11 10  2  0  0  0  0
 12 11  1  0  0  0  0
 12  7  2  0  0  0  0
 15 16  1  0  0  0  0
 15 11  1  0  0  0  0
 17 15  1  0  0  0  0
 18 19  1  0  0  0  0
 18 15  1  0  0  0  0
 19 20  1  0  0  0  0
 21 22  1  0  0  0  0
 21 19  2  0  0  0  0
 23 21  1  0  0  0  0
 24 23  2  0  0  0  0
 24 25  1  0  0  0  0
 25 18  2  0  0  0  0
 26  1  1  0  0  0  0
 27 32  2  0  0  0  0
 27 28  1  0  0  0  0
 28 29  2  0  0  0  0
 29 30  1  0  0  0  0
 29 37  1  0  0  0  0
 31 26  1  0  0  0  0
 31 30  2  0  0  0  0
 32 31  1  0  0  0  0
 33 27  1  0  0  0  0
 34 28  1  0  0  0  0
 35 36  1  0  0  0  0
 36 41  1  0  0  0  0
 37 38  1  0  0  0  0
 37 36  2  0  0  0  0
 38 39  2  0  0  0  0
 39 43  1  0  0  0  0
 39 40  1  0  0  0  0
 40 44  1  0  0  0  0
 41 40  2  0  0  0  0
 41 45  1  0  0  0  0
 42 38  1  0  0  0  0
M  END
>  <minimizedAffinity>
-6.64582348

$$$$

 OpenBabel03272509593D

 45 48  0  0  0  0  0  0  0  0999 V2000
   35.9950   26.6760   31.0220 C   0  0  0  0  0  0  0  0  0  0  0  0
   35.7620   27.3090   30.1450 H   0  0  0  0  0  0  0  0  0  0  0  0
   37.0900   26.4550   30.9510 H   0  0  0  0  0  0  0  0  0  0  0  0
   35.2240   25.4000   31.0330 C   0  0  0  0  0  0  0  0  0  0  0  0
   34.3590   25.5090   31.7400 H   0  0  0  0  0  0  0  0  0  0  0  0
   34.8390   25.1380   30.0420 H   0  0  0  0  0  0  0  0  0  0  0  0
   36.0070   24.2510   31.5640 C   0  0  0  0  0  0  0  0  0  0  0  0
   35.7050   22.9890   31.0800 C   0  0  0  0  0  0  0  0  0  0  0  0
   36.3680   21.8690   31.5050 C   0  0  0  0  0  0  0  0  0  0  0  0
   37.3270   21.9960   32.4090 N   0  0  0  0  0  0  0  0  0  0  0  0
   37.6300   23.2370   32.8900 C   0  0  0  0  0  0  0  0  0  0  0  0
   36.9920   24.3540   32.4870 N   0  0  0  0  0  0  0  0  0  0  0  0
   34.9200   22.8640   30.3370 H   0  0  0  0  0  0  0  0  0  0  0  0
   36.1580   20.8820   31.1500 H   0  0  0  0  0  0  0  0  0  0  0  0
   38.7100   23.3600   33.9050 C   0  0  0  0  0  0  0  0  0  0  0  0
   39.6800   22.9750   33.5220 H   0  0  0  0  0  0  0  0  0  0  0  0
   38.4480   22.6870   34.7460 H   0  0  0  0  0  0  0  0  0  0  0  0
   38.8130   24.7330   34.4270 C   0  0  0  0  0  0  0  0  0  0  0  0
   38.1370   24.9230   35.6370 C   0  0  0  0  0  0  0  0  0  0  0  0
   37.5940   24.1580   36.1470 H   0  0  0  0  0  0  0  0  0  0  0  0
   38.1850   26.2010   36.2020 C   0  0  0  0  0  0  0  0  0  0  0  0
   37.6730   26.4070   37.1500 H   0  0  0  0  0  0  0  0  0  0  0  0
   38.8600   27.2580   35.6220 C   0  0  0  0  0  3  0  0  0  0  0  0
   39.5100   26.9870   34.4140 C   0  0  0  0  0  3  0  0  0  0  0  0
   39.4670   25.7570   33.8640 N   0  0  0  0  0  0  0  0  0  0  0  0
   35.8440   27.3810   32.2360 O   0  0  0  0  0  0  0  0  0  0  0  0
   36.3410   30.8580   31.4130 C   0  0  0  0  0  0  0  0  0  0  0  0
   35.8430   31.4720   32.5830 C   0  0  0  0  0  0  0  0  0  0  0  0
   35.3650   30.6320   33.5850 C   0  0  0  0  0  0  0  0  0  0  0  0
   35.4260   29.2930   33.3350 N   0  0  0  0  0  0  0  0  0  0  0  0
   35.8990   28.7350   32.2270 C   0  0  0  0  0  0  0  0  0  0  0  0
   36.3640   29.5450   31.2510 N   0  0  0  0  0  0  0  0  0  0  0  0
   36.7040   31.5570   30.6590 H   0  0  0  0  0  0  0  0  0  0  0  0
   35.8030   32.5300   32.7630 H   0  0  0  0  0  0  0  0  0  0  0  0
   36.7220   32.0230   35.7400 F   0  0  0  0  0  0  0  0  0  0  0  0
   35.4270   31.7170   35.8540 C   0  0  0  0  0  0  0  0  0  0  0  0
   34.8190   31.0750   34.8490 C   0  0  0  0  0  0  0  0  0  0  0  0
   33.4670   30.8030   35.0690 C   0  0  0  0  0  0  0  0  0  0  0  0
   32.8240   31.1720   36.2290 C   0  0  0  0  0  0  0  0  0  0  0  0
   33.4970   31.8320   37.2350 C   0  0  0  0  0  0  0  0  0  0  0  0
   34.8130   32.0990   37.0250 C   0  0  0  0  0  0  0  0  0  0  0  0
   32.8500   30.2890   34.3390 H   0  0  0  0  0  0  0  0  0  0  0  0
   31.7760   30.9520   36.3810 H   0  0  0  0  0  0  0  0  0  0  0  0
   32.9590   32.1080   38.1380 H   0  0  0  0  0  0  0  0  0  0  0  0
   35.3530   32.6160   37.8070 H   0  0  0  0  0  0  0  0  0  0  0  0
  1  4  1  0  0  0  0
  1 26  1  0  0  0  0
  2  1  1  0  0  0  0
  3  1  1  0  0  0  0
  4  7  1  0  0  0  0
  4  5  1  0  0  0  0
  6  4  1  0  0  0  0
  7 12  1  0  0  0  0
  8  9  1  0  0  0  0
  8  7  2  0  0  0  0
  9 10  2  0  0  0  0
 10 11  1  0  0  0  0
 11 15  1  0  0  0  0
 12 11  2  0  0  0  0
 13  8  1  0  0  0  0
 14  9  1  0  0  0  0
 15 18  1  0  0  0  0
 15 17  1  0  0  0  0
 16 15  1  0  0  0  0
 18 19  1  0  0  0  0
 19 20  1  0  0  0  0
 19 21  2  0  0  0  0
 21 22  1  0  0  0  0
 23 21  1  0  0  0  0
 24 23  2  0  0  0  0
 25 24  1  0  0  0  0
 25 18  2  0  0  0  0
 27 28  1  0  0  0  0
 28 34  1  0  0  0  0
 28 29  2  0  0  0  0
 29 37  1  0  0  0  0
 30 29  1  0  0  0  0
 31 26  1  0  0  0  0
 31 30  2  0  0  0  0
 32 27  2  0  0  0  0
 32 31  1  0  0  0  0
 33 27  1  0  0  0  0
 35 36  1  0  0  0  0
 36 41  1  0  0  0  0
 37 38  1  0  0  0  0
 37 36  2  0  0  0  0
 38 39  2  0  0  0  0
 39 43  1  0  0  0  0
 39 40  1  0  0  0  0
 40 44  1  0  0  0  0
 41 40  2  0  0  0  0
 41 45  1  0  0  0  0
 42 38  1  0  0  0  0
M  END
>  <minimizedAffinity>
-6.3897028

$$$$

 OpenBabel03272509593D

 45 48  0  0  0  0  0  0  0  0999 V2000
   36.4010   21.6780   32.1740 C   0  0  0  0  0  0  0  0  0  0  0  0
   35.4000   21.2260   32.0400 H   0  0  0  0  0  0  0  0  0  0  0  0
   36.3050   22.3670   33.0500 H   0  0  0  0  0  0  0  0  0  0  0  0
   36.8510   22.4460   30.9770 C   0  0  0  0  0  0  0  0  0  0  0  0
   37.9710   22.4190   30.9330 H   0  0  0  0  0  0  0  0  0  0  0  0
   36.4510   22.0350   30.0440 H   0  0  0  0  0  0  0  0  0  0  0  0
   36.5070   23.8930   31.0510 C   0  0  0  0  0  0  0  0  0  0  0  0
   35.1860   24.2500   30.8450 C   0  0  0  0  0  0  0  0  0  0  0  0
   34.7680   25.5530   30.8920 C   0  0  0  0  0  0  0  0  0  0  0  0
   35.6580   26.5020   31.1420 N   0  0  0  0  0  0  0  0  0  0  0  0
   36.9620   26.1570   31.3460 C   0  0  0  0  0  0  0  0  0  0  0  0
   37.3960   24.8820   31.3050 N   0  0  0  0  0  0  0  0  0  0  0  0
   34.4390   23.4850   30.6380 H   0  0  0  0  0  0  0  0  0  0  0  0
   33.7550   25.8620   30.7380 H   0  0  0  0  0  0  0  0  0  0  0  0
   37.9460   27.2360   31.6260 C   0  0  0  0  0  0  0  0  0  0  0  0
   37.5670   28.2310   31.3090 H   0  0  0  0  0  0  0  0  0  0  0  0
   38.8290   27.0480   30.9820 H   0  0  0  0  0  0  0  0  0  0  0  0
   38.3880   27.2190   33.0300 C   0  0  0  0  0  0  0  0  0  0  0  0
   37.3540   27.4410   33.9460 C   0  0  0  0  0  0  0  0  0  0  0  0
   36.3360   27.6070   33.6700 H   0  0  0  0  0  0  0  0  0  0  0  0
   37.6890   27.4410   35.3030 C   0  0  0  0  0  0  0  0  0  0  0  0
   36.9180   27.6090   36.0650 H   0  0  0  0  0  0  0  0  0  0  0  0
   38.9770   27.2350   35.7610 C   0  0  0  0  0  3  0  0  0  0  0  0
   39.9530   27.0210   34.7840 C   0  0  0  0  0  3  0  0  0  0  0  0
   39.6360   27.0200   33.4750 N   0  0  0  0  0  0  0  0  0  0  0  0
   37.3640   20.7230   32.5650 O   0  0  0  0  0  0  0  0  0  0  0  0
   40.8080   21.5010   33.3040 C   0  0  0  0  0  0  0  0  0  0  0  0
   40.6640   22.1370   34.5560 C   0  0  0  0  0  0  0  0  0  0  0  0
   39.3720   22.2540   35.0630 C   0  0  0  0  0  0  0  0  0  0  0  0
   38.3700   21.7390   34.2950 N   0  0  0  0  0  0  0  0  0  0  0  0
   38.5270   21.1430   33.1180 C   0  0  0  0  0  0  0  0  0  0  0  0
   39.7780   21.0270   32.6220 N   0  0  0  0  0  0  0  0  0  0  0  0
   41.8370   21.4340   32.9500 H   0  0  0  0  0  0  0  0  0  0  0  0
   41.4660   22.5370   35.1490 H   0  0  0  0  0  0  0  0  0  0  0  0
   40.5970   21.8370   37.6600 F   0  0  0  0  0  0  0  0  0  0  0  0
   39.5810   22.6930   37.5310 C   0  0  0  0  0  0  0  0  0  0  0  0
   39.0290   22.8720   36.3250 C   0  0  0  0  0  0  0  0  0  0  0  0
   37.9740   23.7870   36.2990 C   0  0  0  0  0  0  0  0  0  0  0  0
   37.5480   24.4450   37.4290 C   0  0  0  0  0  0  0  0  0  0  0  0
   38.1510   24.2260   38.6500 C   0  0  0  0  0  0  0  0  0  0  0  0
   39.1770   23.3360   38.6800 C   0  0  0  0  0  0  0  0  0  0  0  0
   37.4350   24.0290   35.3880 H   0  0  0  0  0  0  0  0  0  0  0  0
   36.7290   25.1510   37.3900 H   0  0  0  0  0  0  0  0  0  0  0  0
   37.7880   24.7630   39.5220 H   0  0  0  0  0  0  0  0  0  0  0  0
   39.6590   23.1540   39.6310 H   0  0  0  0  0  0  0  0  0  0  0  0
  1 26  1  0  0  0  0
  1  3  1  0  0  0  0
  2  1  1  0  0  0  0
  4  7  1  0  0  0  0
  4  1  1  0  0  0  0
  5  4  1  0  0  0  0
  6  4  1  0  0  0  0
  7 12  1  0  0  0  0
  8  9  1  0  0  0  0
  8  7  2  0  0  0  0
  9 10  2  0  0  0  0
 10 11  1  0  0  0  0
 11 15  1  0  0  0  0
 12 11  2  0  0  0  0
 13  8  1  0  0  0  0
 14  9  1  0  0  0  0
 15 18  1  0  0  0  0
 16 15  1  0  0  0  0
 17 15  1  0  0  0  0
 18 25  2  0  0  0  0
 18 19  1  0  0  0  0
 19 21  2  0  0  0  0
 20 19  1  0  0  0  0
 21 23  1  0  0  0  0
 21 22  1  0  0  0  0
 24 23  2  0  0  0  0
 25 24  1  0  0  0  0
 26 31  1  0  0  0  0
 27 28  1  0  0  0  0
 28 29  2  0  0  0  0
 28 34  1  0  0  0  0
 29 37  1  0  0  0  0
 30 29  1  0  0  0  0
 31 30  2  0  0  0  0
 32 31  1  0  0  0  0
 32 27  2  0  0  0  0
 33 27  1  0  0  0  0
 36 35  1  0  0  0  0
 36 41  1  0  0  0  0
 37 36  2  0  0  0  0
 38 37  1  0  0  0  0
 38 39  2  0  0  0  0
 39 40  1  0  0  0  0
 40 41  2  0  0  0  0
 40 44  1  0  0  0  0
 41 45  1  0  0  0  0
 42 38  1  0  0  0  0
 43 39  1  0  0  0  0
M  END
>  <minimizedAffinity>
-6.31524515

$$$$

 OpenBabel03272509593D

 45 48  0  0  0  0  0  0  0  0999 V2000
   38.4630   26.2120   34.6470 C   0  0  0  0  0  0  0  0  0  0  0  0
   39.5360   26.2610   34.9160 H   0  0  0  0  0  0  0  0  0  0  0  0
   38.4330   26.2360   33.5290 H   0  0  0  0  0  0  0  0  0  0  0  0
   37.6790   27.3560   35.1970 C   0  0  0  0  0  0  0  0  0  0  0  0
   37.0260   26.9770   36.0260 H   0  0  0  0  0  0  0  0  0  0  0  0
   38.3220   28.1520   35.5880 H   0  0  0  0  0  0  0  0  0  0  0  0
   36.7350   27.9430   34.2070 C   0  0  0  0  0  0  0  0  0  0  0  0
   36.7070   27.3870   32.9380 C   0  0  0  0  0  0  0  0  0  0  0  0
   35.8750   27.8550   31.9570 C   0  0  0  0  0  0  0  0  0  0  0  0
   35.0710   28.8720   32.2300 N   0  0  0  0  0  0  0  0  0  0  0  0
   35.0940   29.4240   33.4770 C   0  0  0  0  0  0  0  0  0  0  0  0
   35.9040   28.9810   34.4590 N   0  0  0  0  0  0  0  0  0  0  0  0
   37.3600   26.5510   32.6950 H   0  0  0  0  0  0  0  0  0  0  0  0
   35.8300   27.4470   30.9690 H   0  0  0  0  0  0  0  0  0  0  0  0
   34.1840   30.5650   33.7650 C   0  0  0  0  0  0  0  0  0  0  0  0
   33.5880   30.8510   32.8720 H   0  0  0  0  0  0  0  0  0  0  0  0
   34.8230   31.4470   33.9760 H   0  0  0  0  0  0  0  0  0  0  0  0
   33.3460   30.3080   34.9470 C   0  0  0  0  0  0  0  0  0  0  0  0
   33.5110   31.2530   35.9670 C   0  0  0  0  0  0  0  0  0  0  0  0
   34.1770   32.0860   35.9090 H   0  0  0  0  0  0  0  0  0  0  0  0
   32.7500   31.0810   37.1270 C   0  0  0  0  0  0  0  0  0  0  0  0
   32.8380   31.7920   37.9580 H   0  0  0  0  0  0  0  0  0  0  0  0
   31.8610   30.0370   37.2990 C   0  0  0  0  0  3  0  0  0  0  0  0
   31.7530   29.1370   36.2340 C   0  0  0  0  0  3  0  0  0  0  0  0
   32.4840   29.2970   35.1140 N   0  0  0  0  0  0  0  0  0  0  0  0
   37.8870   24.9740   35.0020 O   0  0  0  0  0  0  0  0  0  0  0  0
   38.1890   23.6010   38.3250 C   0  0  0  0  0  0  0  0  0  0  0  0
   39.4630   23.0000   38.2390 C   0  0  0  0  0  0  0  0  0  0  0  0
   40.1370   23.1130   37.0250 C   0  0  0  0  0  0  0  0  0  0  0  0
   39.4940   23.7960   36.0360 N   0  0  0  0  0  0  0  0  0  0  0  0
   38.2930   24.3550   36.1370 C   0  0  0  0  0  0  0  0  0  0  0  0
   37.6350   24.2480   37.3120 N   0  0  0  0  0  0  0  0  0  0  0  0
   37.7020   23.4850   39.2930 H   0  0  0  0  0  0  0  0  0  0  0  0
   39.9550   22.4660   39.0300 H   0  0  0  0  0  0  0  0  0  0  0  0
   42.4500   24.4640   35.9110 F   0  0  0  0  0  0  0  0  0  0  0  0
   42.5250   23.1720   36.2370 C   0  0  0  0  0  0  0  0  0  0  0  0
   41.4470   22.5660   36.7490 C   0  0  0  0  0  0  0  0  0  0  0  0
   41.6310   21.2160   37.0550 C   0  0  0  0  0  0  0  0  0  0  0  0
   42.8290   20.5730   36.8420 C   0  0  0  0  0  0  0  0  0  0  0  0
   43.9100   21.2430   36.3110 C   0  0  0  0  0  0  0  0  0  0  0  0
   43.7360   22.5570   36.0120 C   0  0  0  0  0  0  0  0  0  0  0  0
   40.8410   20.6010   37.4770 H   0  0  0  0  0  0  0  0  0  0  0  0
   42.9520   19.5260   37.0850 H   0  0  0  0  0  0  0  0  0  0  0  0
   44.8410   20.7030   36.1560 H   0  0  0  0  0  0  0  0  0  0  0  0
   44.5770   23.0950   35.5940 H   0  0  0  0  0  0  0  0  0  0  0  0
  1  2  1  0  0  0  0
  1 26  1  0  0  0  0
  1  4  1  0  0  0  0
  3  1  1  0  0  0  0
  4  6  1  0  0  0  0
  4  5  1  0  0  0  0
  7 12  1  0  0  0  0
  7  4  1  0  0  0  0
  8  7  2  0  0  0  0
  9 10  2  0  0  0  0
  9  8  1  0  0  0  0
 10 11  1  0  0  0  0
 11 15  1  0  0  0  0
 11 12  2  0  0  0  0
 13  8  1  0  0  0  0
 14  9  1  0  0  0  0
 15 17  1  0  0  0  0
 15 18  1  0  0  0  0
 16 15  1  0  0  0  0
 18 25  2  0  0  0  0
 18 19  1  0  0  0  0
 19 21  2  0  0  0  0
 20 19  1  0  0  0  0
 21 23  1  0  0  0  0
 21 22  1  0  0  0  0
 24 23  2  0  0  0  0
 25 24  1  0  0  0  0
 26 31  1  0  0  0  0
 27 33  1  0  0  0  0
 28 27  1  0  0  0  0
 28 34  1  0  0  0  0
 29 28  2  0  0  0  0
 30 31  2  0  0  0  0
 30 29  1  0  0  0  0
 31 32  1  0  0  0  0
 32 27  2  0  0  0  0
 35 36  1  0  0  0  0
 36 37  1  0  0  0  0
 37 29  1  0  0  0  0
 37 38  2  0  0  0  0
 38 42  1  0  0  0  0
 39 38  1  0  0  0  0
 39 43  1  0  0  0  0
 40 39  2  0  0  0  0
 41 36  2  0  0  0  0
 41 40  1  0  0  0  0
 44 40  1  0  0  0  0
 45 41  1  0  0  0  0
M  END
>  <minimizedAffinity>
-6.25783587

$$$$

 OpenBabel03272509593D

 45 48  0  0  0  0  0  0  0  0999 V2000
   36.2550   24.6120   31.2830 C   0  0  0  0  0  0  0  0  0  0  0  0
   35.5670   24.6250   30.4160 H   0  0  0  0  0  0  0  0  0  0  0  0
   35.5980   24.6360   32.1880 H   0  0  0  0  0  0  0  0  0  0  0  0
   37.1800   25.7820   31.3010 C   0  0  0  0  0  0  0  0  0  0  0  0
   38.2230   25.4110   31.4870 H   0  0  0  0  0  0  0  0  0  0  0  0
   37.1660   26.3390   30.3580 H   0  0  0  0  0  0  0  0  0  0  0  0
   36.9050   26.7240   32.4210 C   0  0  0  0  0  0  0  0  0  0  0  0
   37.1900   26.2940   33.7060 C   0  0  0  0  0  0  0  0  0  0  0  0
   36.9720   27.0850   34.8020 C   0  0  0  0  0  0  0  0  0  0  0  0
   36.4730   28.2990   34.6280 N   0  0  0  0  0  0  0  0  0  0  0  0
   36.1910   28.7290   33.3640 C   0  0  0  0  0  0  0  0  0  0  0  0
   36.3960   27.9690   32.2690 N   0  0  0  0  0  0  0  0  0  0  0  0
   37.6000   25.2990   33.8700 H   0  0  0  0  0  0  0  0  0  0  0  0
   37.1820   26.7820   35.8070 H   0  0  0  0  0  0  0  0  0  0  0  0
   35.6310   30.0950   33.1870 C   0  0  0  0  0  0  0  0  0  0  0  0
   34.9570   30.1530   32.3050 H   0  0  0  0  0  0  0  0  0  0  0  0
   36.4790   30.7670   32.9430 H   0  0  0  0  0  0  0  0  0  0  0  0
   34.9940   30.5860   34.4200 C   0  0  0  0  0  0  0  0  0  0  0  0
   35.8170   31.4230   35.1810 C   0  0  0  0  0  0  0  0  0  0  0  0
   36.8150   31.6910   34.9090 H   0  0  0  0  0  0  0  0  0  0  0  0
   35.2870   31.9340   36.3690 C   0  0  0  0  0  0  0  0  0  0  0  0
   35.8870   32.5950   37.0050 H   0  0  0  0  0  0  0  0  0  0  0  0
   34.0080   31.6480   36.8090 C   0  0  0  0  0  3  0  0  0  0  0  0
   33.2480   30.8050   35.9920 C   0  0  0  0  0  3  0  0  0  0  0  0
   33.7540   30.3100   34.8460 N   0  0  0  0  0  0  0  0  0  0  0  0
   36.9620   23.3940   31.3770 O   0  0  0  0  0  0  0  0  0  0  0  0
   35.5990   20.7600   33.4330 C   0  0  0  0  0  0  0  0  0  0  0  0
   36.3200   20.9690   34.6280 C   0  0  0  0  0  0  0  0  0  0  0  0
   37.2370   22.0160   34.6400 C   0  0  0  0  0  0  0  0  0  0  0  0
   37.3480   22.7400   33.4900 N   0  0  0  0  0  0  0  0  0  0  0  0
   36.6580   22.5280   32.3750 C   0  0  0  0  0  0  0  0  0  0  0  0
   35.7670   21.5130   32.3570 N   0  0  0  0  0  0  0  0  0  0  0  0
   34.8940   19.9290   33.4720 H   0  0  0  0  0  0  0  0  0  0  0  0
   36.2200   20.3880   35.5260 H   0  0  0  0  0  0  0  0  0  0  0  0
   40.1140   21.7570   34.9190 F   0  0  0  0  0  0  0  0  0  0  0  0
   39.3900   22.2700   35.9160 C   0  0  0  0  0  0  0  0  0  0  0  0
   38.0650   22.3820   35.7690 C   0  0  0  0  0  0  0  0  0  0  0  0
   37.4030   22.9300   36.8700 C   0  0  0  0  0  0  0  0  0  0  0  0
   38.0720   23.3210   38.0070 C   0  0  0  0  0  0  0  0  0  0  0  0
   39.4400   23.1850   38.1090 C   0  0  0  0  0  0  0  0  0  0  0  0
   40.0880   22.6510   37.0400 C   0  0  0  0  0  0  0  0  0  0  0  0
   36.3280   23.0790   36.8880 H   0  0  0  0  0  0  0  0  0  0  0  0
   37.5420   23.7440   38.8500 H   0  0  0  0  0  0  0  0  0  0  0  0
   39.9360   23.5030   39.0220 H   0  0  0  0  0  0  0  0  0  0  0  0
   41.1620   22.5390   37.1060 H   0  0  0  0  0  0  0  0  0  0  0  0
  1  4  1  0  0  0  0
  1 26  1  0  0  0  0
  1  3  1  0  0  0  0
  2  1  1  0  0  0  0
  4  5  1  0  0  0  0
  4  7  1  0  0  0  0
  6  4  1  0  0  0  0
  7  8  1  0  0  0  0
  8 13  1  0  0  0  0
  8  9  2  0  0  0  0
  9 14  1  0  0  0  0
 10  9  1  0  0  0  0
 11 10  2  0  0  0  0
 12  7  2  0  0  0  0
 12 11  1  0  0  0  0
 15 11  1  0  0  0  0
 15 18  1  0  0  0  0
 16 15  1  0  0  0  0
 17 15  1  0  0  0  0
 18 25  2  0  0  0  0
 18 19  1  0  0  0  0
 19 21  2  0  0  0  0
 20 19  1  0  0  0  0
 21 23  1  0  0  0  0
 21 22  1  0  0  0  0
 24 23  2  0  0  0  0
 25 24  1  0  0  0  0
 26 31  1  0  0  0  0
 27 33  1  0  0  0  0
 27 28  1  0  0  0  0
 28 29  2  0  0  0  0
 28 34  1  0  0  0  0
 29 37  1  0  0  0  0
 30 29  1  0  0  0  0
 31 30  2  0  0  0  0
 32 31  1  0  0  0  0
 32 27  2  0  0  0  0
 35 36  1  0  0  0  0
 36 41  1  0  0  0  0
 37 36  2  0  0  0  0
 37 38  1  0  0  0  0
 38 42  1  0  0  0  0
 38 39  2  0  0  0  0
 39 40  1  0  0  0  0
 39 43  1  0  0  0  0
 40 44  1  0  0  0  0
 41 45  1  0  0  0  0
 41 40  2  0  0  0  0
M  END
>  <minimizedAffinity>
-6.22226191

$$$$

 OpenBabel03272509593D

 45 48  0  0  0  0  0  0  0  0999 V2000
   37.2950   26.0180   31.1430 C   0  0  0  0  0  0  0  0  0  0  0  0
   37.3390   26.2010   30.0520 H   0  0  0  0  0  0  0  0  0  0  0  0
   38.2500   25.4950   31.3990 H   0  0  0  0  0  0  0  0  0  0  0  0
   36.1350   25.1680   31.5370 C   0  0  0  0  0  0  0  0  0  0  0  0
   35.5680   25.6900   32.3520 H   0  0  0  0  0  0  0  0  0  0  0  0
   35.4550   24.9760   30.7000 H   0  0  0  0  0  0  0  0  0  0  0  0
   36.5440   23.8660   32.1320 C   0  0  0  0  0  0  0  0  0  0  0  0
   35.7360   22.7680   31.8910 C   0  0  0  0  0  0  0  0  0  0  0  0
   36.0240   21.5270   32.3930 C   0  0  0  0  0  0  0  0  0  0  0  0
   37.1110   21.3730   33.1340 N   0  0  0  0  0  0  0  0  0  0  0  0
   37.9120   22.4510   33.3760 C   0  0  0  0  0  0  0  0  0  0  0  0
   37.6480   23.6820   32.8920 N   0  0  0  0  0  0  0  0  0  0  0  0
   34.8380   22.8730   31.2840 H   0  0  0  0  0  0  0  0  0  0  0  0
   35.4210   20.6600   32.2240 H   0  0  0  0  0  0  0  0  0  0  0  0
   39.1280   22.2590   34.2100 C   0  0  0  0  0  0  0  0  0  0  0  0
   40.0200   22.7390   33.7530 H   0  0  0  0  0  0  0  0  0  0  0  0
   39.3560   21.1740   34.2110 H   0  0  0  0  0  0  0  0  0  0  0  0
   38.9060   22.6850   35.6020 C   0  0  0  0  0  0  0  0  0  0  0  0
   39.9760   22.3910   36.4550 C   0  0  0  0  0  0  0  0  0  0  0  0
   40.8740   21.9040   36.1430 H   0  0  0  0  0  0  0  0  0  0  0  0
   39.8460   22.7630   37.7960 C   0  0  0  0  0  0  0  0  0  0  0  0
   40.6530   22.5570   38.5090 H   0  0  0  0  0  0  0  0  0  0  0  0
   38.7250   23.3970   38.2980 C   0  0  0  0  0  3  0  0  0  0  0  0
   37.7010   23.6560   37.3820 C   0  0  0  0  0  3  0  0  0  0  0  0
   37.8200   23.3000   36.0880 N   0  0  0  0  0  0  0  0  0  0  0  0
   37.3270   27.2210   31.8810 O   0  0  0  0  0  0  0  0  0  0  0  0
   37.7010   27.3750   35.4660 C   0  0  0  0  0  0  0  0  0  0  0  0
   39.0730   27.0670   35.5940 C   0  0  0  0  0  0  0  0  0  0  0  0
   39.7810   26.8260   34.4190 C   0  0  0  0  0  0  0  0  0  0  0  0
   39.0740   26.9110   33.2560 N   0  0  0  0  0  0  0  0  0  0  0  0
   37.7820   27.2020   33.1570 C   0  0  0  0  0  0  0  0  0  0  0  0
   37.0900   27.4370   34.2940 N   0  0  0  0  0  0  0  0  0  0  0  0
   37.1920   27.5550   36.4130 H   0  0  0  0  0  0  0  0  0  0  0  0
   39.6150   27.0050   36.5190 H   0  0  0  0  0  0  0  0  0  0  0  0
   41.8870   28.2320   33.0030 F   0  0  0  0  0  0  0  0  0  0  0  0
   42.1730   27.1330   33.7040 C   0  0  0  0  0  0  0  0  0  0  0  0
   41.1880   26.4970   34.3500 C   0  0  0  0  0  0  0  0  0  0  0  0
   41.5930   25.3600   35.0520 C   0  0  0  0  0  0  0  0  0  0  0  0
   42.9030   24.9380   35.0700 C   0  0  0  0  0  0  0  0  0  0  0  0
   43.8810   25.6280   34.3870 C   0  0  0  0  0  0  0  0  0  0  0  0
   43.4910   26.7360   33.7020 C   0  0  0  0  0  0  0  0  0  0  0  0
   40.9000   24.7480   35.6210 H   0  0  0  0  0  0  0  0  0  0  0  0
   43.1980   24.0540   35.6190 H   0  0  0  0  0  0  0  0  0  0  0  0
   44.9060   25.2670   34.4220 H   0  0  0  0  0  0  0  0  0  0  0  0
   44.2490   27.2870   33.1620 H   0  0  0  0  0  0  0  0  0  0  0  0
  1  3  1  0  0  0  0
  1  4  1  0  0  0  0
  1 26  1  0  0  0  0
  2  1  1  0  0  0  0
  4  7  1  0  0  0  0
  4  5  1  0  0  0  0
  6  4  1  0  0  0  0
  7 12  1  0  0  0  0
  8  7  2  0  0  0  0
  8  9  1  0  0  0  0
  9 10  2  0  0  0  0
 10 11  1  0  0  0  0
 11 15  1  0  0  0  0
 12 11  2  0  0  0  0
 13  8  1  0  0  0  0
 14  9  1  0  0  0  0
 15 17  1  0  0  0  0
 15 18  1  0  0  0  0
 16 15  1  0  0  0  0
 18 25  2  0  0  0  0
 18 19  1  0  0  0  0
 19 21  2  0  0  0  0
 20 19  1  0  0  0  0
 21 23  1  0  0  0  0
 21 22  1  0  0  0  0
 24 23  2  0  0  0  0
 25 24  1  0  0  0  0
 26 31  1  0  0  0  0
 27 28  1  0  0  0  0
 27 33  1  0  0  0  0
 28 34  1  0  0  0  0
 29 28  2  0  0  0  0
 30 29  1  0  0  0  0
 31 30  2  0  0  0  0
 31 32  1  0  0  0  0
 32 27  2  0  0  0  0
 35 36  1  0  0  0  0
 36 37  1  0  0  0  0
 37 29  1  0  0  0  0
 37 38  2  0  0  0  0
 38 39  1  0  0  0  0
 38 42  1  0  0  0  0
 39 43  1  0  0  0  0
 40 44  1  0  0  0  0
 40 39  2  0  0  0  0
 41 36  2  0  0  0  0
 41 40  1  0  0  0  0
 45 41  1  0  0  0  0
M  END
>  <minimizedAffinity>
-6.10387373

$$$$

 OpenBabel03272509593D

 45 48  0  0  0  0  0  0  0  0999 V2000
   36.2090   22.8750   31.1960 C   0  0  0  0  0  0  0  0  0  0  0  0
   35.1930   22.6920   30.7980 H   0  0  0  0  0  0  0  0  0  0  0  0
   36.8070   23.2540   30.3290 H   0  0  0  0  0  0  0  0  0  0  0  0
   36.8440   21.6420   31.7450 C   0  0  0  0  0  0  0  0  0  0  0  0
   36.2230   20.7560   31.4470 H   0  0  0  0  0  0  0  0  0  0  0  0
   37.8650   21.4990   31.3740 H   0  0  0  0  0  0  0  0  0  0  0  0
   36.8640   21.6110   33.2330 C   0  0  0  0  0  0  0  0  0  0  0  0
   35.8210   20.9660   33.8750 C   0  0  0  0  0  0  0  0  0  0  0  0
   35.7470   20.8820   35.2400 C   0  0  0  0  0  0  0  0  0  0  0  0
   36.7040   21.4370   35.9680 N   0  0  0  0  0  0  0  0  0  0  0  0
   37.7350   22.0740   35.3420 C   0  0  0  0  0  0  0  0  0  0  0  0
   37.8300   22.1690   34.0000 N   0  0  0  0  0  0  0  0  0  0  0  0
   35.0240   20.5040   33.2940 H   0  0  0  0  0  0  0  0  0  0  0  0
   34.9550   20.3910   35.7650 H   0  0  0  0  0  0  0  0  0  0  0  0
   38.8010   22.6900   36.1760 C   0  0  0  0  0  0  0  0  0  0  0  0
   39.7390   22.0950   36.1500 H   0  0  0  0  0  0  0  0  0  0  0  0
   38.4600   22.6410   37.2300 H   0  0  0  0  0  0  0  0  0  0  0  0
   39.0170   24.1040   35.8260 C   0  0  0  0  0  0  0  0  0  0  0  0
   38.0110   24.9570   36.2920 C   0  0  0  0  0  0  0  0  0  0  0  0
   37.1600   24.6310   36.8490 H   0  0  0  0  0  0  0  0  0  0  0  0
   38.1410   26.3180   36.0020 C   0  0  0  0  0  0  0  0  0  0  0  0
   37.3820   27.0320   36.3430 H   0  0  0  0  0  0  0  0  0  0  0  0
   39.2030   26.8390   35.2880 C   0  0  0  0  0  3  0  0  0  0  0  0
   40.1670   25.9220   34.8580 C   0  0  0  0  0  3  0  0  0  0  0  0
   40.0470   24.6090   35.1340 N   0  0  0  0  0  0  0  0  0  0  0  0
   36.2250   23.9260   32.1380 O   0  0  0  0  0  0  0  0  0  0  0  0
   39.0020   26.0900   31.3470 C   0  0  0  0  0  0  0  0  0  0  0  0
   38.4570   27.3440   31.6940 C   0  0  0  0  0  0  0  0  0  0  0  0
   37.1520   27.3550   32.1830 C   0  0  0  0  0  0  0  0  0  0  0  0
   36.5300   26.1460   32.2770 N   0  0  0  0  0  0  0  0  0  0  0  0
   37.0610   24.9750   31.9460 C   0  0  0  0  0  0  0  0  0  0  0  0
   38.3260   24.9590   31.4710 N   0  0  0  0  0  0  0  0  0  0  0  0
   40.0240   26.1330   30.9700 H   0  0  0  0  0  0  0  0  0  0  0  0
   38.9620   28.2890   31.6130 H   0  0  0  0  0  0  0  0  0  0  0  0
   36.1380   29.5020   30.5150 F   0  0  0  0  0  0  0  0  0  0  0  0
   35.9530   29.5390   31.8360 C   0  0  0  0  0  0  0  0  0  0  0  0
   36.4280   28.5390   32.5890 C   0  0  0  0  0  0  0  0  0  0  0  0
   36.1810   28.6760   33.9570 C   0  0  0  0  0  0  0  0  0  0  0  0
   35.5020   29.7540   34.4750 C   0  0  0  0  0  0  0  0  0  0  0  0
   35.0320   30.7580   33.6560 C   0  0  0  0  0  0  0  0  0  0  0  0
   35.2710   30.6310   32.3240 C   0  0  0  0  0  0  0  0  0  0  0  0
   36.5090   27.9390   34.6840 H   0  0  0  0  0  0  0  0  0  0  0  0
   35.3200   29.8420   35.5370 H   0  0  0  0  0  0  0  0  0  0  0  0
   34.5000   31.5960   34.0990 H   0  0  0  0  0  0  0  0  0  0  0  0
   34.9070   31.4120   31.6690 H   0  0  0  0  0  0  0  0  0  0  0  0
  1  4  1  0  0  0  0
  1 26  1  0  0  0  0
  2  1  1  0  0  0  0
  3  1  1  0  0  0  0
  4  7  1  0  0  0  0
  5  4  1  0  0  0  0
  6  4  1  0  0  0  0
  7  8  2  0  0  0  0
  7 12  1  0  0  0  0
  8  9  1  0  0  0  0
  9 14  1  0  0  0  0
  9 10  2  0  0  0  0
 11 10  1  0  0  0  0
 11 15  1  0  0  0  0
 12 11  2  0  0  0  0
 13  8  1  0  0  0  0
 15 17  1  0  0  0  0
 16 15  1  0  0  0  0
 18 15  1  0  0  0  0
 18 19  1  0  0  0  0
 19 20  1  0  0  0  0
 21 19  2  0  0  0  0
 21 22  1  0  0  0  0
 23 21  1  0  0  0  0
 24 25  1  0  0  0  0
 24 23  2  0  0  0  0
 25 18  2  0  0  0  0
 27 32  2  0  0  0  0
 27 28  1  0  0  0  0
 28 29  2  0  0  0  0
 29 30  1  0  0  0  0
 29 37  1  0  0  0  0
 31 26  1  0  0  0  0
 31 30  2  0  0  0  0
 32 31  1  0  0  0  0
 33 27  1  0  0  0  0
 34 28  1  0  0  0  0
 35 36  1  0  0  0  0
 36 41  2  0  0  0  0
 36 37  1  0  0  0  0
 37 38  2  0  0  0  0
 38 39  1  0  0  0  0
 38 42  1  0  0  0  0
 39 43  1  0  0  0  0
 40 44  1  0  0  0  0
 40 39  2  0  0  0  0
 41 40  1  0  0  0  0
 45 41  1  0  0  0  0
M  END
>  <minimizedAffinity>
-6.06923532

$$$$

 OpenBabel03272509593D

 45 48  0  0  0  0  0  0  0  0999 V2000
   39.1110   26.5240   35.2720 C   0  0  0  0  0  0  0  0  0  0  0  0
   40.0910   27.0130   35.4290 H   0  0  0  0  0  0  0  0  0  0  0  0
   39.0580   26.3000   34.1770 H   0  0  0  0  0  0  0  0  0  0  0  0
   37.9640   27.3930   35.6640 C   0  0  0  0  0  0  0  0  0  0  0  0
   37.2890   26.8120   36.3460 H   0  0  0  0  0  0  0  0  0  0  0  0
   38.2880   28.3030   36.1800 H   0  0  0  0  0  0  0  0  0  0  0  0
   37.1030   27.7750   34.5110 C   0  0  0  0  0  0  0  0  0  0  0  0
   37.2870   27.0940   33.3190 C   0  0  0  0  0  0  0  0  0  0  0  0
   36.5460   27.3700   32.2010 C   0  0  0  0  0  0  0  0  0  0  0  0
   35.6250   28.3200   32.2620 N   0  0  0  0  0  0  0  0  0  0  0  0
   35.4390   28.9950   33.4330 C   0  0  0  0  0  0  0  0  0  0  0  0
   36.1550   28.7410   34.5460 N   0  0  0  0  0  0  0  0  0  0  0  0
   38.0390   26.3100   33.2490 H   0  0  0  0  0  0  0  0  0  0  0  0
   36.6640   26.8620   31.2670 H   0  0  0  0  0  0  0  0  0  0  0  0
   34.4000   30.0580   33.4820 C   0  0  0  0  0  0  0  0  0  0  0  0
   33.3800   29.6430   33.3320 H   0  0  0  0  0  0  0  0  0  0  0  0
   34.5690   30.7210   32.6090 H   0  0  0  0  0  0  0  0  0  0  0  0
   34.5070   30.8690   34.7060 C   0  0  0  0  0  0  0  0  0  0  0  0
   35.6160   31.7220   34.7170 C   0  0  0  0  0  0  0  0  0  0  0  0
   36.3270   31.7920   33.9220 H   0  0  0  0  0  0  0  0  0  0  0  0
   35.7920   32.5280   35.8450 C   0  0  0  0  0  0  0  0  0  0  0  0
   36.6440   33.2160   35.9080 H   0  0  0  0  0  0  0  0  0  0  0  0
   34.9300   32.5130   36.9250 C   0  0  0  0  0  3  0  0  0  0  0  0
   33.8460   31.6340   36.8370 C   0  0  0  0  0  3  0  0  0  0  0  0
   33.6710   30.8540   35.7520 N   0  0  0  0  0  0  0  0  0  0  0  0
   39.0430   25.2640   35.9060 O   0  0  0  0  0  0  0  0  0  0  0  0
   40.7770   22.4850   34.3950 C   0  0  0  0  0  0  0  0  0  0  0  0
   39.7190   21.8770   33.6870 C   0  0  0  0  0  0  0  0  0  0  0  0
   38.4650   22.4760   33.7820 C   0  0  0  0  0  0  0  0  0  0  0  0
   38.3860   23.5970   34.5540 N   0  0  0  0  0  0  0  0  0  0  0  0
   39.3950   24.1550   35.2130 C   0  0  0  0  0  0  0  0  0  0  0  0
   40.6130   23.5770   35.1240 N   0  0  0  0  0  0  0  0  0  0  0  0
   41.7370   21.9790   34.2890 H   0  0  0  0  0  0  0  0  0  0  0  0
   39.7990   20.9930   33.0820 H   0  0  0  0  0  0  0  0  0  0  0  0
   37.3980   23.2470   31.1960 F   0  0  0  0  0  0  0  0  0  0  0  0
   36.7580   22.3420   31.9390 C   0  0  0  0  0  0  0  0  0  0  0  0
   37.2650   21.9990   33.1300 C   0  0  0  0  0  0  0  0  0  0  0  0
   36.5190   21.0460   33.8260 C   0  0  0  0  0  0  0  0  0  0  0  0
   35.3580   20.5100   33.3180 C   0  0  0  0  0  0  0  0  0  0  0  0
   34.8770   20.8970   32.0850 C   0  0  0  0  0  0  0  0  0  0  0  0
   35.6000   21.8250   31.4040 C   0  0  0  0  0  0  0  0  0  0  0  0
   36.8140   20.6760   34.8030 H   0  0  0  0  0  0  0  0  0  0  0  0
   34.7930   19.7730   33.8720 H   0  0  0  0  0  0  0  0  0  0  0  0
   33.9560   20.4540   31.7140 H   0  0  0  0  0  0  0  0  0  0  0  0
   35.2330   22.1380   30.4350 H   0  0  0  0  0  0  0  0  0  0  0  0
  1  2  1  0  0  0  0
  1  4  1  0  0  0  0
  1 26  1  0  0  0  0
  3  1  1  0  0  0  0
  4  6  1  0  0  0  0
  4  5  1  0  0  0  0
  7 12  1  0  0  0  0
  7  4  1  0  0  0  0
  8  7  2  0  0  0  0
  9 10  2  0  0  0  0
  9  8  1  0  0  0  0
 10 11  1  0  0  0  0
 11 15  1  0  0  0  0
 11 12  2  0  0  0  0
 13  8  1  0  0  0  0
 14  9  1  0  0  0  0
 15 18  1  0  0  0  0
 16 15  1  0  0  0  0
 17 15  1  0  0  0  0
 18 19  2  0  0  0  0
 18 25  1  0  0  0  0
 19 21  1  0  0  0  0
 20 19  1  0  0  0  0
 21 22  1  0  0  0  0
 21 23  2  0  0  0  0
 24 23  1  0  0  0  0
 25 24  2  0  0  0  0
 27 32  1  0  0  0  0
 28 29  1  0  0  0  0
 28 27  2  0  0  0  0
 29 30  2  0  0  0  0
 30 31  1  0  0  0  0
 31 26  1  0  0  0  0
 32 31  2  0  0  0  0
 33 27  1  0  0  0  0
 34 28  1  0  0  0  0
 35 36  1  0  0  0  0
 36 37  1  0  0  0  0
 37 29  1  0  0  0  0
 37 38  2  0  0  0  0
 38 42  1  0  0  0  0
 39 38  1  0  0  0  0
 39 43  1  0  0  0  0
 40 39  2  0  0  0  0
 41 36  2  0  0  0  0
 41 40  1  0  0  0  0
 44 40  1  0  0  0  0
 45 41  1  0  0  0  0
M  END
>  <minimizedAffinity>
-6.03264427

$$$$

 OpenBabel03272509593D

 45 48  0  0  0  0  0  0  0  0999 V2000
   42.5890   22.4540   36.1940 C   0  0  0  0  0  0  0  0  0  0  0  0
   42.3760   22.3910   35.1090 H   0  0  0  0  0  0  0  0  0  0  0  0
   43.4440   21.7550   36.3720 H   0  0  0  0  0  0  0  0  0  0  0  0
   41.4240   22.0480   37.0330 C   0  0  0  0  0  0  0  0  0  0  0  0
   41.2800   20.9400   36.9350 H   0  0  0  0  0  0  0  0  0  0  0  0
   41.5670   22.2950   38.0900 H   0  0  0  0  0  0  0  0  0  0  0  0
   40.1390   22.6410   36.5710 C   0  0  0  0  0  0  0  0  0  0  0  0
   39.2830   23.1490   37.5330 C   0  0  0  0  0  0  0  0  0  0  0  0
   38.0790   23.7140   37.2110 C   0  0  0  0  0  0  0  0  0  0  0  0
   37.7210   23.7770   35.9370 N   0  0  0  0  0  0  0  0  0  0  0  0
   38.5600   23.2790   34.9830 C   0  0  0  0  0  0  0  0  0  0  0  0
   39.7500   22.7180   35.2760 N   0  0  0  0  0  0  0  0  0  0  0  0
   39.5590   23.1060   38.5860 H   0  0  0  0  0  0  0  0  0  0  0  0
   37.3960   24.1150   37.9310 H   0  0  0  0  0  0  0  0  0  0  0  0
   38.1410   23.3580   33.5590 C   0  0  0  0  0  0  0  0  0  0  0  0
   39.0110   23.2840   32.8700 H   0  0  0  0  0  0  0  0  0  0  0  0
   37.7320   24.3760   33.3940 H   0  0  0  0  0  0  0  0  0  0  0  0
   37.0860   22.3810   33.2450 C   0  0  0  0  0  0  0  0  0  0  0  0
   36.3950   22.6620   32.0620 C   0  0  0  0  0  0  0  0  0  0  0  0
   36.6000   23.5010   31.4340 H   0  0  0  0  0  0  0  0  0  0  0  0
   35.3750   21.7810   31.6920 C   0  0  0  0  0  0  0  0  0  0  0  0
   34.8000   21.9530   30.7730 H   0  0  0  0  0  0  0  0  0  0  0  0
   35.0330   20.6680   32.4350 C   0  0  0  0  0  3  0  0  0  0  0  0
   35.7700   20.4550   33.6040 C   0  0  0  0  0  3  0  0  0  0  0  0
   36.7550   21.3010   33.9660 N   0  0  0  0  0  0  0  0  0  0  0  0
   43.0730   23.7270   36.5640 O   0  0  0  0  0  0  0  0  0  0  0  0
   43.9290   26.2500   34.1320 C   0  0  0  0  0  0  0  0  0  0  0  0
   42.6510   26.7750   33.8460 C   0  0  0  0  0  0  0  0  0  0  0  0
   41.5700   26.2140   34.5210 C   0  0  0  0  0  0  0  0  0  0  0  0
   41.8560   25.2080   35.3960 N   0  0  0  0  0  0  0  0  0  0  0  0
   43.0680   24.7280   35.6510 C   0  0  0  0  0  0  0  0  0  0  0  0
   44.1200   25.2690   34.9980 N   0  0  0  0  0  0  0  0  0  0  0  0
   44.7420   26.7210   33.5780 H   0  0  0  0  0  0  0  0  0  0  0  0
   42.4420   27.5690   33.1530 H   0  0  0  0  0  0  0  0  0  0  0  0
   40.0520   26.4920   32.0640 F   0  0  0  0  0  0  0  0  0  0  0  0
   39.4740   26.7520   33.2380 C   0  0  0  0  0  0  0  0  0  0  0  0
   40.1900   26.6180   34.3610 C   0  0  0  0  0  0  0  0  0  0  0  0
   39.4910   26.9150   35.5330 C   0  0  0  0  0  0  0  0  0  0  0  0
   38.1740   27.3110   35.5210 C   0  0  0  0  0  0  0  0  0  0  0  0
   37.4800   27.4330   34.3370 C   0  0  0  0  0  0  0  0  0  0  0  0
   38.1560   27.1460   33.1930 C   0  0  0  0  0  0  0  0  0  0  0  0
   39.9480   26.8490   36.5170 H   0  0  0  0  0  0  0  0  0  0  0  0
   37.6500   27.5370   36.4400 H   0  0  0  0  0  0  0  0  0  0  0  0
   36.4400   27.7490   34.3640 H   0  0  0  0  0  0  0  0  0  0  0  0
   37.6230   27.2380   32.2560 H   0  0  0  0  0  0  0  0  0  0  0  0
  1  3  1  0  0  0  0
  1 26  1  0  0  0  0
  1  4  1  0  0  0  0
  2  1  1  0  0  0  0
  4  6  1  0  0  0  0
  5  4  1  0  0  0  0
  7  4  1  0  0  0  0
  7  8  1  0  0  0  0
  8 13  1  0  0  0  0
  9  8  2  0  0  0  0
  9 14  1  0  0  0  0
 10  9  1  0  0  0  0
 11 12  1  0  0  0  0
 11 10  2  0  0  0  0
 12  7  2  0  0  0  0
 15 11  1  0  0  0  0
 16 15  1  0  0  0  0
 17 15  1  0  0  0  0
 18 15  1  0  0  0  0
 18 25  1  0  0  0  0
 19 18  2  0  0  0  0
 20 19  1  0  0  0  0
 21 19  1  0  0  0  0
 21 23  2  0  0  0  0
 22 21  1  0  0  0  0
 23 24  1  0  0  0  0
 24 25  2  0  0  0  0
 27 32  1  0  0  0  0
 28 27  2  0  0  0  0
 28 29  1  0  0  0  0
 29 30  2  0  0  0  0
 30 31  1  0  0  0  0
 31 26  1  0  0  0  0
 32 31  2  0  0  0  0
 33 27  1  0  0  0  0
 34 28  1  0  0  0  0
 35 36  1  0  0  0  0
 36 37  1  0  0  0  0
 37 29  1  0  0  0  0
 37 38  2  0  0  0  0
 38 42  1  0  0  0  0
 39 38  1  0  0  0  0
 39 43  1  0  0  0  0
 40 44  1  0  0  0  0
 40 39  2  0  0  0  0
 41 36  2  0  0  0  0
 41 40  1  0  0  0  0
 45 41  1  0  0  0  0
M  END
>  <minimizedAffinity>
-6.00140524

$$$$
