
 OpenBabel03272509573D

 45 48  0  0  0  0  0  0  0  0999 V2000
   34.3880   28.6770   48.1240 C   0  0  0  0  0  0  0  0  0  0  0  0
   33.8920   29.6660   48.1340 H   0  0  0  0  0  0  0  0  0  0  0  0
   35.2780   28.7940   47.4550 H   0  0  0  0  0  0  0  0  0  0  0  0
   33.5040   27.5960   47.6000 C   0  0  0  0  0  0  0  0  0  0  0  0
   33.6570   27.5130   46.4910 H   0  0  0  0  0  0  0  0  0  0  0  0
   33.7170   26.6250   48.0600 H   0  0  0  0  0  0  0  0  0  0  0  0
   32.0560   27.8980   47.7630 C   0  0  0  0  0  0  0  0  0  0  0  0
   31.4340   27.4570   48.9180 C   0  0  0  0  0  0  0  0  0  0  0  0
   30.1060   27.6840   49.1630 C   0  0  0  0  0  0  0  0  0  0  0  0
   29.3940   28.3460   48.2640 N   0  0  0  0  0  0  0  0  0  0  0  0
   30.0000   28.7840   47.1230 C   0  0  0  0  0  0  0  0  0  0  0  0
   31.3060   28.5730   46.8600 N   0  0  0  0  0  0  0  0  0  0  0  0
   32.0020   26.9100   49.6690 H   0  0  0  0  0  0  0  0  0  0  0  0
   29.5970   27.3570   50.0450 H   0  0  0  0  0  0  0  0  0  0  0  0
   29.1850   29.5270   46.1250 C   0  0  0  0  0  0  0  0  0  0  0  0
   29.8110   30.1980   45.4990 H   0  0  0  0  0  0  0  0  0  0  0  0
   28.5150   30.2060   46.6910 H   0  0  0  0  0  0  0  0  0  0  0  0
   28.3490   28.6190   45.3210 C   0  0  0  0  0  0  0  0  0  0  0  0
   26.9760   28.8330   45.4800 C   0  0  0  0  0  0  0  0  0  0  0  0
   26.5570   29.5790   46.1200 H   0  0  0  0  0  0  0  0  0  0  0  0
   26.1110   28.0130   44.7510 C   0  0  0  0  0  0  0  0  0  0  0  0
   25.0250   28.1360   44.8370 H   0  0  0  0  0  0  0  0  0  0  0  0
   26.5540   27.0200   43.8980 C   0  0  0  0  0  3  0  0  0  0  0  0
   27.9410   26.8690   43.7930 C   0  0  0  0  0  3  0  0  0  0  0  0
   28.7800   27.6570   44.4930 N   0  0  0  0  0  0  0  0  0  0  0  0
   34.9210   28.3410   49.3860 O   0  0  0  0  0  0  0  0  0  0  0  0
   37.2060   30.0800   51.5710 C   0  0  0  0  0  0  0  0  0  0  0  0
   37.9650   30.8020   50.6250 C   0  0  0  0  0  0  0  0  0  0  0  0
   37.6310   30.6360   49.2830 C   0  0  0  0  0  0  0  0  0  0  0  0
   36.5980   29.7870   49.0160 N   0  0  0  0  0  0  0  0  0  0  0  0
   35.8950   29.1170   49.9220 C   0  0  0  0  0  0  0  0  0  0  0  0
   36.2150   29.2740   51.2250 N   0  0  0  0  0  0  0  0  0  0  0  0
   37.5060   30.2440   52.6060 H   0  0  0  0  0  0  0  0  0  0  0  0
   38.7770   31.4680   50.8530 H   0  0  0  0  0  0  0  0  0  0  0  0
   38.8270   33.2780   49.2110 F   0  0  0  0  0  0  0  0  0  0  0  0
   38.8490   32.5060   48.1230 C   0  0  0  0  0  0  0  0  0  0  0  0
   38.2920   31.2900   48.1760 C   0  0  0  0  0  0  0  0  0  0  0  0
   38.3700   30.5650   46.9850 C   0  0  0  0  0  0  0  0  0  0  0  0
   38.9730   31.0700   45.8560 C   0  0  0  0  0  0  0  0  0  0  0  0
   39.5330   32.3300   45.8540 C   0  0  0  0  0  0  0  0  0  0  0  0
   39.4600   33.0400   47.0110 C   0  0  0  0  0  0  0  0  0  0  0  0
   37.9600   29.5640   46.8840 H   0  0  0  0  0  0  0  0  0  0  0  0
   39.0230   30.4940   44.9430 H   0  0  0  0  0  0  0  0  0  0  0  0
   40.0010   32.6990   44.9450 H   0  0  0  0  0  0  0  0  0  0  0  0
   39.8950   34.0310   47.0230 H   0  0  0  0  0  0  0  0  0  0  0  0
  1  2  1  0  0  0  0
  1 26  1  0  0  0  0
  3  1  1  0  0  0  0
  4  7  1  0  0  0  0
  4  6  1  0  0  0  0
  4  1  1  0  0  0  0
  5  4  1  0  0  0  0
  7  8  1  0  0  0  0
  8  9  2  0  0  0  0
  8 13  1  0  0  0  0
  9 14  1  0  0  0  0
 10  9  1  0  0  0  0
 11 10  2  0  0  0  0
 12 11  1  0  0  0  0
 12  7  2  0  0  0  0
 15 17  1  0  0  0  0
 15 11  1  0  0  0  0
 16 15  1  0  0  0  0
 18 19  1  0  0  0  0
 18 15  1  0  0  0  0
 19 20  1  0  0  0  0
 21 22  1  0  0  0  0
 21 19  2  0  0  0  0
 23 21  1  0  0  0  0
 24 23  2  0  0  0  0
 24 25  1  0  0  0  0
 25 18  2  0  0  0  0
 26 31  1  0  0  0  0
 27 33  1  0  0  0  0
 28 34  1  0  0  0  0
 28 27  2  0  0  0  0
 29 28  1  0  0  0  0
 30 29  2  0  0  0  0
 30 31  1  0  0  0  0
 31 32  2  0  0  0  0
 32 27  1  0  0  0  0
 36 37  1  0  0  0  0
 36 35  1  0  0  0  0
 37 29  1  0  0  0  0
 38 37  2  0  0  0  0
 39 38  1  0  0  0  0
 40 39  2  0  0  0  0
 40 41  1  0  0  0  0
 41 45  1  0  0  0  0
 41 36  2  0  0  0  0
 42 38  1  0  0  0  0
 43 39  1  0  0  0  0
 44 40  1  0  0  0  0
M  END
>  <minimizedAffinity>
-6.59679556

>  <minimizedRMSD>
0.566995144

$$$$
