
 OpenBabel03272509573D

 45 48  0  0  0  0  0  0  0  0999 V2000
   34.3340   29.0310   48.0450 C   0  0  0  0  0  0  0  0  0  0  0  0
   33.7290   29.9430   48.2090 H   0  0  0  0  0  0  0  0  0  0  0  0
   35.1950   29.3520   47.4060 H   0  0  0  0  0  0  0  0  0  0  0  0
   33.5720   27.9510   47.3540 C   0  0  0  0  0  0  0  0  0  0  0  0
   33.7500   28.0360   46.2490 H   0  0  0  0  0  0  0  0  0  0  0  0
   33.8730   26.9510   47.6850 H   0  0  0  0  0  0  0  0  0  0  0  0
   32.0980   28.0860   47.5130 C   0  0  0  0  0  0  0  0  0  0  0  0
   31.5020   27.4180   48.5700 C   0  0  0  0  0  0  0  0  0  0  0  0
   30.1550   27.4790   48.8020 C   0  0  0  0  0  0  0  0  0  0  0  0
   29.3960   28.1990   47.9890 N   0  0  0  0  0  0  0  0  0  0  0  0
   29.9770   28.8590   46.9460 C   0  0  0  0  0  0  0  0  0  0  0  0
   31.3010   28.8150   46.6970 N   0  0  0  0  0  0  0  0  0  0  0  0
   32.1080   26.8210   49.2490 H   0  0  0  0  0  0  0  0  0  0  0  0
   29.6650   26.9750   49.6090 H   0  0  0  0  0  0  0  0  0  0  0  0
   29.1090   29.6630   46.0440 C   0  0  0  0  0  0  0  0  0  0  0  0
   29.7080   30.2950   45.3530 H   0  0  0  0  0  0  0  0  0  0  0  0
   28.5540   30.3820   46.6790 H   0  0  0  0  0  0  0  0  0  0  0  0
   28.1300   28.8210   45.3360 C   0  0  0  0  0  0  0  0  0  0  0  0
   28.7120   27.9100   44.4490 C   0  0  0  0  0  0  0  0  0  0  0  0
   29.7650   27.8200   44.2880 H   0  0  0  0  0  0  0  0  0  0  0  0
   27.8520   27.0710   43.7360 C   0  0  0  0  0  0  0  0  0  0  0  0
   28.2540   26.3370   43.0260 H   0  0  0  0  0  0  0  0  0  0  0  0
   26.4770   27.1090   43.8730 C   0  0  0  0  0  3  0  0  0  0  0  0
   25.9720   28.0460   44.7800 C   0  0  0  0  0  3  0  0  0  0  0  0
   26.7980   28.8570   45.4700 N   0  0  0  0  0  0  0  0  0  0  0  0
   34.9210   28.5640   49.2410 O   0  0  0  0  0  0  0  0  0  0  0  0
   37.2760   30.1110   51.4940 C   0  0  0  0  0  0  0  0  0  0  0  0
   38.0600   30.8460   50.5800 C   0  0  0  0  0  0  0  0  0  0  0  0
   37.7160   30.7560   49.2330 C   0  0  0  0  0  0  0  0  0  0  0  0
   36.6510   29.9610   48.9310 N   0  0  0  0  0  0  0  0  0  0  0  0
   35.9250   29.2760   49.8080 C   0  0  0  0  0  0  0  0  0  0  0  0
   36.2540   29.3600   51.1150 N   0  0  0  0  0  0  0  0  0  0  0  0
   37.5850   30.2140   52.5350 H   0  0  0  0  0  0  0  0  0  0  0  0
   38.8970   31.4690   50.8360 H   0  0  0  0  0  0  0  0  0  0  0  0
   38.8270   33.4360   49.2160 F   0  0  0  0  0  0  0  0  0  0  0  0
   38.9180   32.6690   48.1280 C   0  0  0  0  0  0  0  0  0  0  0  0
   38.3990   31.4360   48.1550 C   0  0  0  0  0  0  0  0  0  0  0  0
   38.5480   30.7180   46.9660 C   0  0  0  0  0  0  0  0  0  0  0  0
   39.1790   31.2470   45.8640 C   0  0  0  0  0  0  0  0  0  0  0  0
   39.6970   32.5250   45.8870 C   0  0  0  0  0  0  0  0  0  0  0  0
   39.5550   33.2270   47.0420 C   0  0  0  0  0  0  0  0  0  0  0  0
   38.1750   29.7050   46.8470 H   0  0  0  0  0  0  0  0  0  0  0  0
   39.2840   30.6760   44.9520 H   0  0  0  0  0  0  0  0  0  0  0  0
   40.1890   32.9120   44.9980 H   0  0  0  0  0  0  0  0  0  0  0  0
   39.9570   34.2310   47.0740 H   0  0  0  0  0  0  0  0  0  0  0  0
  1  2  1  0  0  0  0
  1 26  1  0  0  0  0
  3  1  1  0  0  0  0
  4  7  1  0  0  0  0
  4  6  1  0  0  0  0
  4  1  1  0  0  0  0
  5  4  1  0  0  0  0
  7  8  1  0  0  0  0
  8  9  2  0  0  0  0
  8 13  1  0  0  0  0
  9 14  1  0  0  0  0
 10  9  1  0  0  0  0
 11 10  2  0  0  0  0
 12 11  1  0  0  0  0
 12  7  2  0  0  0  0
 15 17  1  0  0  0  0
 15 11  1  0  0  0  0
 16 15  1  0  0  0  0
 18 25  1  0  0  0  0
 18 15  1  0  0  0  0
 19 18  2  0  0  0  0
 20 19  1  0  0  0  0
 21 23  2  0  0  0  0
 21 19  1  0  0  0  0
 22 21  1  0  0  0  0
 23 24  1  0  0  0  0
 24 25  2  0  0  0  0
 26 31  1  0  0  0  0
 27 33  1  0  0  0  0
 28 34  1  0  0  0  0
 28 27  2  0  0  0  0
 29 28  1  0  0  0  0
 30 29  2  0  0  0  0
 30 31  1  0  0  0  0
 31 32  2  0  0  0  0
 32 27  1  0  0  0  0
 36 37  1  0  0  0  0
 36 35  1  0  0  0  0
 37 29  1  0  0  0  0
 38 37  2  0  0  0  0
 39 40  2  0  0  0  0
 39 38  1  0  0  0  0
 40 41  1  0  0  0  0
 41 45  1  0  0  0  0
 41 36  2  0  0  0  0
 42 38  1  0  0  0  0
 43 39  1  0  0  0  0
 44 40  1  0  0  0  0
M  END
>  <minimizedAffinity>
-6.51669073

>  <minimizedRMSD>
0.828899264

$$$$
