
 OpenBabel03272509573D

 45 48  0  0  0  0  0  0  0  0999 V2000
   34.3900   28.6720   48.1240 C   0  0  0  0  0  0  0  0  0  0  0  0
   33.8980   29.6630   48.1230 H   0  0  0  0  0  0  0  0  0  0  0  0
   35.2850   28.7790   47.4620 H   0  0  0  0  0  0  0  0  0  0  0  0
   33.5050   27.5900   47.6020 C   0  0  0  0  0  0  0  0  0  0  0  0
   33.6580   27.5050   46.4940 H   0  0  0  0  0  0  0  0  0  0  0  0
   33.7160   26.6200   48.0630 H   0  0  0  0  0  0  0  0  0  0  0  0
   32.0570   27.8950   47.7640 C   0  0  0  0  0  0  0  0  0  0  0  0
   31.4330   27.4540   48.9190 C   0  0  0  0  0  0  0  0  0  0  0  0
   30.1060   27.6830   49.1620 C   0  0  0  0  0  0  0  0  0  0  0  0
   29.3950   28.3460   48.2630 N   0  0  0  0  0  0  0  0  0  0  0  0
   30.0030   28.7830   47.1220 C   0  0  0  0  0  0  0  0  0  0  0  0
   31.3080   28.5710   46.8610 N   0  0  0  0  0  0  0  0  0  0  0  0
   32.0000   26.9070   49.6700 H   0  0  0  0  0  0  0  0  0  0  0  0
   29.5960   27.3570   50.0440 H   0  0  0  0  0  0  0  0  0  0  0  0
   29.1880   29.5270   46.1240 C   0  0  0  0  0  0  0  0  0  0  0  0
   29.8170   30.1960   45.4980 H   0  0  0  0  0  0  0  0  0  0  0  0
   28.5200   30.2080   46.6890 H   0  0  0  0  0  0  0  0  0  0  0  0
   28.3510   28.6210   45.3210 C   0  0  0  0  0  0  0  0  0  0  0  0
   26.9780   28.8360   45.4820 C   0  0  0  0  0  0  0  0  0  0  0  0
   26.5600   29.5800   46.1230 H   0  0  0  0  0  0  0  0  0  0  0  0
   26.1120   28.0160   44.7530 C   0  0  0  0  0  0  0  0  0  0  0  0
   25.0250   28.1400   44.8420 H   0  0  0  0  0  0  0  0  0  0  0  0
   26.5530   27.0240   43.8980 C   0  0  0  0  0  3  0  0  0  0  0  0
   27.9390   26.8720   43.7910 C   0  0  0  0  0  3  0  0  0  0  0  0
   28.7790   27.6590   44.4920 N   0  0  0  0  0  0  0  0  0  0  0  0
   34.9120   28.3430   49.3930 O   0  0  0  0  0  0  0  0  0  0  0  0
   37.2010   30.0760   51.5770 C   0  0  0  0  0  0  0  0  0  0  0  0
   37.9610   30.7980   50.6320 C   0  0  0  0  0  0  0  0  0  0  0  0
   37.6250   30.6330   49.2900 C   0  0  0  0  0  0  0  0  0  0  0  0
   36.5900   29.7860   49.0230 N   0  0  0  0  0  0  0  0  0  0  0  0
   35.8870   29.1160   49.9290 C   0  0  0  0  0  0  0  0  0  0  0  0
   36.2090   29.2720   51.2320 N   0  0  0  0  0  0  0  0  0  0  0  0
   37.5020   30.2380   52.6130 H   0  0  0  0  0  0  0  0  0  0  0  0
   38.7740   31.4620   50.8600 H   0  0  0  0  0  0  0  0  0  0  0  0
   38.8230   33.2740   49.2190 F   0  0  0  0  0  0  0  0  0  0  0  0
   38.8450   32.5020   48.1310 C   0  0  0  0  0  0  0  0  0  0  0  0
   38.2870   31.2870   48.1830 C   0  0  0  0  0  0  0  0  0  0  0  0
   38.3640   30.5620   46.9910 C   0  0  0  0  0  0  0  0  0  0  0  0
   38.9670   31.0680   45.8630 C   0  0  0  0  0  0  0  0  0  0  0  0
   39.5280   32.3270   45.8610 C   0  0  0  0  0  0  0  0  0  0  0  0
   39.4560   33.0370   47.0180 C   0  0  0  0  0  0  0  0  0  0  0  0
   37.9530   29.5620   46.8910 H   0  0  0  0  0  0  0  0  0  0  0  0
   39.0170   30.4910   44.9500 H   0  0  0  0  0  0  0  0  0  0  0  0
   39.9970   32.6950   44.9520 H   0  0  0  0  0  0  0  0  0  0  0  0
   39.8920   34.0260   47.0310 H   0  0  0  0  0  0  0  0  0  0  0  0
  1 26  1  0  0  0  0
  2  1  1  0  0  0  0
  3  1  1  0  0  0  0
  4  7  1  0  0  0  0
  4  6  1  0  0  0  0
  4  1  1  0  0  0  0
  5  4  1  0  0  0  0
  7  8  1  0  0  0  0
  8  9  2  0  0  0  0
  8 13  1  0  0  0  0
  9 14  1  0  0  0  0
 10  9  1  0  0  0  0
 11 10  2  0  0  0  0
 12 11  1  0  0  0  0
 12  7  2  0  0  0  0
 15 17  1  0  0  0  0
 15 11  1  0  0  0  0
 16 15  1  0  0  0  0
 18 19  1  0  0  0  0
 18 15  1  0  0  0  0
 19 20  1  0  0  0  0
 21 22  1  0  0  0  0
 21 19  2  0  0  0  0
 23 21  1  0  0  0  0
 24 23  2  0  0  0  0
 24 25  1  0  0  0  0
 25 18  2  0  0  0  0
 26 31  1  0  0  0  0
 27 33  1  0  0  0  0
 28 34  1  0  0  0  0
 28 27  2  0  0  0  0
 29 28  1  0  0  0  0
 30 29  2  0  0  0  0
 30 31  1  0  0  0  0
 31 32  2  0  0  0  0
 32 27  1  0  0  0  0
 36 37  1  0  0  0  0
 36 35  1  0  0  0  0
 37 29  1  0  0  0  0
 38 37  2  0  0  0  0
 39 38  1  0  0  0  0
 40 39  2  0  0  0  0
 40 41  1  0  0  0  0
 41 45  1  0  0  0  0
 41 36  2  0  0  0  0
 42 38  1  0  0  0  0
 43 39  1  0  0  0  0
 44 40  1  0  0  0  0
M  END
>  <minimizedAffinity>
-6.59453726

>  <minimizedRMSD>
0.540127099

$$$$
