
     RDKit          3D

 26 27  0  0  0  0  0  0  0  0999 V2000
   37.3217   30.2253   51.4190 C   0  0  0  0  0  0  0  0  0  0  0  0
   38.0427   30.6674   50.3007 C   0  0  0  0  0  0  0  0  0  0  0  0
   37.6165   30.2819   49.0357 C   0  0  0  0  0  0  0  0  0  0  0  0
   36.5053   29.4860   48.9823 N   0  0  0  0  0  0  0  0  0  0  0  0
   35.8290   29.0740   50.0728 C   0  0  0  0  0  0  0  0  0  0  0  0
   36.2577   29.4577   51.2837 N   0  0  0  0  0  0  0  0  0  0  0  0
   34.7555   28.2868   49.7391 O   0  0  0  0  0  0  0  0  0  0  0  0
   34.2002   28.4080   48.4530 C   0  0  0  0  0  0  0  0  0  0  0  0
   33.8266   27.0438   47.9157 C   0  0  0  0  0  0  0  0  0  0  0  0
   37.6928   30.5513   52.3715 H   0  0  0  0  0  0  0  0  0  0  0  0
   38.9335   31.3034   50.3101 H   0  0  0  0  0  0  0  0  0  0  0  0
   38.1290   30.5890   48.1283 H   0  0  0  0  0  0  0  0  0  0  0  0
   34.8718   28.9496   47.7564 H   0  0  0  0  0  0  0  0  0  0  0  0
   33.2891   29.0466   48.5572 H   0  0  0  0  0  0  0  0  0  0  0  0
   34.7479   26.4006   48.0014 H   0  0  0  0  0  0  0  0  0  0  0  0
   33.5248   27.0635   46.8682 H   0  0  0  0  0  0  0  0  0  0  0  0
   32.8304   26.4374   48.8381 C   0  0  0  0  0  0  0  0  0  0  0  0
   33.0694   25.1091   49.1530 C   0  0  0  0  0  0  0  0  0  0  0  0
   33.9112   24.5364   48.7682 H   0  0  0  0  0  0  0  0  0  0  0  0
   32.1574   24.5015   50.0165 C   0  0  0  0  0  0  0  0  0  0  0  0
   32.3506   23.4494   50.2632 H   0  0  0  0  0  0  0  0  0  0  0  0
   31.0610   25.1652   50.5474 C   0  0  0  0  0  0  0  0  0  0  0  0
   30.8894   26.5024   50.1819 C   0  0  0  0  0  0  0  0  0  0  0  0
   31.7691   27.0986   49.3453 N   0  0  0  0  0  0  0  0  0  0  0  0
   30.3893   24.6252   51.2170 H   0  0  0  0  0  0  0  0  0  0  0  0
   30.0406   27.0340   50.5864 H   0  0  0  0  0  0  0  0  0  0  0  0
  2  1  2  0
  3  2  1  0
  4  3  2  0
  4  5  1  0
  5  6  2  0
  6  1  1  0
  7  5  1  0
  8  7  1  0
  9  8  1  0
  1 10  1  0
  2 11  1  0
  3 12  1  0
  8 13  1  0
  8 14  1  0
  9 15  1  0
  9 16  1  0
 17 18  2  0
 18 19  1  0
 18 20  1  0
 20 21  1  0
 20 22  2  0
 22 23  1  0
 23 24  2  0
 24 17  1  0
 22 25  1  0
 23 26  1  0
  9 17  1  0
M  ISO  8  10  14  11  14  12  14  13   8  14   8  15   8  16   8  19  15
M  ISO  1  21  16
M  END
>  <DihAtoms>  (1) 
7,8,16,17

>  <DihDeg>  (1) 
89.99951538518576

$$$$
