
 OpenBabel03272503003D

 33 35  0  0  1  0  0  0  0  0999 V2000
   38.1870   22.8080   35.9630 N   0  0  0  0  0  0  0  0  0  0  0  0
   39.5890   22.6170   36.2690 C   0  0  0  0  0  0  0  0  0  0  0  0
   39.9870   22.6210   37.6730 C   0  0  0  0  0  0  0  0  0  0  0  0
   39.1750   23.3970   38.6310 C   0  0  0  0  0  0  0  0  0  0  0  0
   37.7450   23.5850   38.1960 C   0  0  0  0  0  0  0  0  0  0  0  0
   37.7210   23.9460   36.7090 C   0  0  1  0  0  0  0  0  0  0  0  0
   40.1320   23.4280   35.7360 H   0  0  0  0  0  0  0  0  0  0  0  0
   39.9640   21.6760   35.7890 H   0  0  0  0  0  0  0  0  0  0  0  0
   40.0020   21.5580   38.0420 H   0  0  0  0  0  0  0  0  0  0  0  0
   41.0510   22.9420   37.7470 H   0  0  0  0  0  0  0  0  0  0  0  0
   39.6180   24.4320   38.7070 H   0  0  0  0  0  0  0  0  0  0  0  0
   39.2080   23.0050   39.6620 H   0  0  0  0  0  0  0  0  0  0  0  0
   37.1940   22.6410   38.3230 H   0  0  0  0  0  0  0  0  0  0  0  0
   37.2640   24.4150   38.7590 H   0  0  0  0  0  0  0  0  0  0  0  0
   36.6830   24.2120   36.4880 H   0  0  0  0  0  0  0  0  0  0  0  0
   37.4230   22.0010   35.0760 C   0  0  0  0  0  0  0  0  0  0  0  0
   36.3130   21.2470   35.4640 C   0  0  0  0  0  0  0  0  0  0  0  0
   35.6580   20.5030   34.4960 C   0  0  0  0  0  0  0  0  0  0  0  0
   36.1190   20.5400   33.2240 N   0  0  0  0  0  0  0  0  0  0  0  0
   37.2000   21.2850   32.8860 C   0  0  0  0  0  0  0  0  0  0  0  0
   37.8440   22.0080   33.8110 N   0  0  0  0  0  0  0  0  0  0  0  0
   36.0200   21.2750   36.4820 H   0  0  0  0  0  0  0  0  0  0  0  0
   34.7940   19.9100   34.7760 H   0  0  0  0  0  0  0  0  0  0  0  0
   37.5310   21.2780   31.8440 H   0  0  0  0  0  0  0  0  0  0  0  0
   38.6090   25.0400   36.5890 O   0  0  0  0  0  0  0  0  0  0  0  0
   38.5210   25.7560   35.4010 C   0  0  0  0  0  0  0  0  0  0  0  0
   39.6510   26.3260   34.8540 C   0  0  0  0  0  0  0  0  0  0  0  0
   40.5880   26.1770   35.4040 H   0  0  0  0  0  0  0  0  0  0  0  0
   39.7230   27.0640   33.6850 C   0  0  0  0  0  0  0  0  0  0  0  0
   40.6590   27.4610   33.3510 H   0  0  0  0  0  0  0  0  0  0  0  0
   38.5080   27.2140   33.0420 C   0  0  0  0  0  3  0  0  0  0  0  0
   37.3520   26.6590   33.5570 C   0  0  0  0  0  3  0  0  0  0  0  0
   37.3800   25.9540   34.7050 N   0  0  0  0  0  0  0  0  0  0  0  0
  1  2  1  0  0  0  0
  1  6  1  0  0  0  0
  2  3  1  0  0  0  0
  3 10  1  0  0  0  0
  3  9  1  0  0  0  0
  3  4  1  0  0  0  0
  4 11  1  0  0  0  0
  4 12  1  0  0  0  0
  5 13  1  0  0  0  0
  5  4  1  0  0  0  0
  5 14  1  0  0  0  0
  6 15  1  6  0  0  0
  6  5  1  0  0  0  0
  7  2  1  0  0  0  0
  8  2  1  0  0  0  0
 16 17  1  0  0  0  0
 16  1  1  0  0  0  0
 17 22  1  0  0  0  0
 18 23  1  0  0  0  0
 18 17  2  0  0  0  0
 19 18  1  0  0  0  0
 20 19  2  0  0  0  0
 20 21  1  0  0  0  0
 21 16  2  0  0  0  0
 24 20  1  0  0  0  0
 25  6  1  0  0  0  0
 26 25  1  0  0  0  0
 27 26  1  0  0  0  0
 27 28  1  0  0  0  0
 29 27  2  0  0  0  0
 30 29  1  0  0  0  0
 31 32  2  0  0  0  0
 31 29  1  0  0  0  0
 32 33  1  0  0  0  0
 33 26  2  0  0  0  0
M  END
>  <minimizedAffinity>
-5.20249796

$$$$

 OpenBabel03272503003D

 33 35  0  0  1  0  0  0  0  0999 V2000
   38.3290   24.3060   36.0560 N   0  0  0  0  0  0  0  0  0  0  0  0
   37.8760   23.8610   37.3560 C   0  0  0  0  0  0  0  0  0  0  0  0
   38.8730   23.3270   38.2790 C   0  0  0  0  0  0  0  0  0  0  0  0
   40.0800   22.6900   37.7180 C   0  0  0  0  0  0  0  0  0  0  0  0
   40.4370   23.1840   36.3400 C   0  0  0  0  0  0  0  0  0  0  0  0
   39.1630   23.2750   35.4990 C   0  0  1  0  0  0  0  0  0  0  0  0
   37.1080   23.0810   37.1610 H   0  0  0  0  0  0  0  0  0  0  0  0
   37.3100   24.6800   37.8700 H   0  0  0  0  0  0  0  0  0  0  0  0
   39.2240   24.1610   38.9470 H   0  0  0  0  0  0  0  0  0  0  0  0
   38.3750   22.6180   38.9810 H   0  0  0  0  0  0  0  0  0  0  0  0
   39.8750   21.5850   37.6110 H   0  0  0  0  0  0  0  0  0  0  0  0
   40.9620   22.7450   38.3800 H   0  0  0  0  0  0  0  0  0  0  0  0
   40.8680   24.1940   36.4110 H   0  0  0  0  0  0  0  0  0  0  0  0
   41.1340   22.4800   35.8340 H   0  0  0  0  0  0  0  0  0  0  0  0
   39.4990   23.4940   34.4810 H   0  0  0  0  0  0  0  0  0  0  0  0
   37.9970   25.5500   35.4530 C   0  0  0  0  0  0  0  0  0  0  0  0
   38.1530   26.7900   36.0770 C   0  0  0  0  0  0  0  0  0  0  0  0
   37.7890   27.9270   35.3740 C   0  0  0  0  0  0  0  0  0  0  0  0
   37.3020   27.7870   34.1190 N   0  0  0  0  0  0  0  0  0  0  0  0
   37.1660   26.5660   33.5450 C   0  0  0  0  0  0  0  0  0  0  0  0
   37.5130   25.4580   34.2140 N   0  0  0  0  0  0  0  0  0  0  0  0
   38.5420   26.8080   37.0630 H   0  0  0  0  0  0  0  0  0  0  0  0
   37.9030   28.8990   35.8410 H   0  0  0  0  0  0  0  0  0  0  0  0
   36.7670   26.5100   32.5290 H   0  0  0  0  0  0  0  0  0  0  0  0
   38.5580   22.0020   35.6200 O   0  0  0  0  0  0  0  0  0  0  0  0
   37.6140   21.6920   34.6480 C   0  0  0  0  0  0  0  0  0  0  0  0
   36.4810   20.9850   34.9900 C   0  0  0  0  0  0  0  0  0  0  0  0
   36.3830   20.6980   36.0440 H   0  0  0  0  0  0  0  0  0  0  0  0
   35.4560   20.6030   34.1400 C   0  0  0  0  0  0  0  0  0  0  0  0
   34.6180   20.0540   34.5140 H   0  0  0  0  0  0  0  0  0  0  0  0
   35.6420   20.9960   32.8270 C   0  0  0  0  0  3  0  0  0  0  0  0
   36.7640   21.7060   32.4440 C   0  0  0  0  0  3  0  0  0  0  0  0
   37.7110   22.0340   33.3450 N   0  0  0  0  0  0  0  0  0  0  0  0
  1  2  1  0  0  0  0
  2  8  1  0  0  0  0
  2  3  1  0  0  0  0
  3  9  1  0  0  0  0
  3 10  1  0  0  0  0
  4  3  1  0  0  0  0
  4 12  1  0  0  0  0
  5 13  1  0  0  0  0
  5  4  1  0  0  0  0
  6 15  1  6  0  0  0
  6 25  1  0  0  0  0
  6  1  1  0  0  0  0
  6  5  1  0  0  0  0
  7  2  1  0  0  0  0
 11  4  1  0  0  0  0
 14  5  1  0  0  0  0
 16  1  1  0  0  0  0
 16 17  1  0  0  0  0
 17 22  1  0  0  0  0
 18 23  1  0  0  0  0
 18 17  2  0  0  0  0
 19 18  1  0  0  0  0
 20 19  2  0  0  0  0
 20 21  1  0  0  0  0
 21 16  2  0  0  0  0
 24 20  1  0  0  0  0
 26 27  1  0  0  0  0
 26 25  1  0  0  0  0
 27 28  1  0  0  0  0
 29 30  1  0  0  0  0
 29 27  2  0  0  0  0
 31 29  1  0  0  0  0
 32 31  2  0  0  0  0
 32 33  1  0  0  0  0
 33 26  2  0  0  0  0
M  END
>  <minimizedAffinity>
-5.18105412

$$$$

 OpenBabel03272503003D

 33 35  0  0  1  0  0  0  0  0999 V2000
   39.5330   24.8860   34.8520 N   0  0  0  0  0  0  0  0  0  0  0  0
   40.7860   24.6800   34.1570 C   0  0  0  0  0  0  0  0  0  0  0  0
   41.4730   25.8530   33.6280 C   0  0  0  0  0  0  0  0  0  0  0  0
   40.6660   27.0310   33.2540 C   0  0  0  0  0  0  0  0  0  0  0  0
   39.3590   27.1270   33.9960 C   0  0  0  0  0  0  0  0  0  0  0  0
   38.7100   25.7420   34.0400 C   0  0  1  0  0  0  0  0  0  0  0  0
   40.5580   23.9850   33.3190 H   0  0  0  0  0  0  0  0  0  0  0  0
   41.4970   24.1040   34.8040 H   0  0  0  0  0  0  0  0  0  0  0  0
   42.2240   26.2000   34.3910 H   0  0  0  0  0  0  0  0  0  0  0  0
   42.1010   25.5460   32.7610 H   0  0  0  0  0  0  0  0  0  0  0  0
   40.4000   26.9400   32.1610 H   0  0  0  0  0  0  0  0  0  0  0  0
   41.2130   27.9870   33.3270 H   0  0  0  0  0  0  0  0  0  0  0  0
   39.5460   27.4460   35.0330 H   0  0  0  0  0  0  0  0  0  0  0  0
   38.6580   27.8180   33.4790 H   0  0  0  0  0  0  0  0  0  0  0  0
   37.7100   25.9000   34.4560 H   0  0  0  0  0  0  0  0  0  0  0  0
   39.1960   24.3310   36.1170 C   0  0  0  0  0  0  0  0  0  0  0  0
   38.1010   24.7370   36.8840 C   0  0  0  0  0  0  0  0  0  0  0  0
   37.8870   24.1110   38.1010 C   0  0  0  0  0  0  0  0  0  0  0  0
   38.7430   23.1370   38.4910 N   0  0  0  0  0  0  0  0  0  0  0  0
   39.7940   22.7680   37.7180 C   0  0  0  0  0  0  0  0  0  0  0  0
   40.0140   23.3660   36.5390 N   0  0  0  0  0  0  0  0  0  0  0  0
   37.4830   25.5090   36.5030 H   0  0  0  0  0  0  0  0  0  0  0  0
   37.0430   24.4120   38.7120 H   0  0  0  0  0  0  0  0  0  0  0  0
   40.4540   21.9760   38.0810 H   0  0  0  0  0  0  0  0  0  0  0  0
   38.6880   25.3100   32.6950 O   0  0  0  0  0  0  0  0  0  0  0  0
   37.4350   25.2820   32.0940 C   0  0  0  0  0  0  0  0  0  0  0  0
   36.7520   24.0900   31.9790 C   0  0  0  0  0  0  0  0  0  0  0  0
   37.2510   23.2000   32.3830 H   0  0  0  0  0  0  0  0  0  0  0  0
   35.5040   23.9030   31.4100 C   0  0  0  0  0  0  0  0  0  0  0  0
   35.0650   22.9280   31.3750 H   0  0  0  0  0  0  0  0  0  0  0  0
   34.9310   25.0630   30.9220 C   0  0  0  0  0  3  0  0  0  0  0  0
   35.5830   26.2780   31.0180 C   0  0  0  0  0  3  0  0  0  0  0  0
   36.8000   26.3620   31.5910 N   0  0  0  0  0  0  0  0  0  0  0  0
  1 16  1  0  0  0  0
  2  8  1  0  0  0  0
  2  1  1  0  0  0  0
  3  2  1  0  0  0  0
  3  9  1  0  0  0  0
  4 12  1  0  0  0  0
  4  3  1  0  0  0  0
  4  5  1  0  0  0  0
  5  6  1  0  0  0  0
  5 13  1  0  0  0  0
  6 15  1  1  0  0  0
  6  1  1  0  0  0  0
  7  2  1  0  0  0  0
 10  3  1  0  0  0  0
 11  4  1  0  0  0  0
 14  5  1  0  0  0  0
 16 21  2  0  0  0  0
 16 17  1  0  0  0  0
 17 18  2  0  0  0  0
 18 19  1  0  0  0  0
 18 23  1  0  0  0  0
 20 24  1  0  0  0  0
 20 19  2  0  0  0  0
 21 20  1  0  0  0  0
 22 17  1  0  0  0  0
 25  6  1  0  0  0  0
 26 25  1  0  0  0  0
 27 26  1  0  0  0  0
 27 28  1  0  0  0  0
 29 27  2  0  0  0  0
 30 29  1  0  0  0  0
 31 32  2  0  0  0  0
 31 29  1  0  0  0  0
 32 33  1  0  0  0  0
 33 26  2  0  0  0  0
M  END
>  <minimizedAffinity>
-5.00308609

$$$$

 OpenBabel03272503003D

 33 35  0  0  1  0  0  0  0  0999 V2000
   37.3120   27.5790   33.5090 N   0  0  0  0  0  0  0  0  0  0  0  0
   37.2260   27.4330   34.9470 C   0  0  0  0  0  0  0  0  0  0  0  0
   38.4740   27.3690   35.7010 C   0  0  0  0  0  0  0  0  0  0  0  0
   39.6750   26.8370   35.0280 C   0  0  0  0  0  0  0  0  0  0  0  0
   39.6430   26.9900   33.5300 C   0  0  0  0  0  0  0  0  0  0  0  0
   38.2520   26.6070   33.0200 C   0  0  1  0  0  0  0  0  0  0  0  0
   36.6460   26.5010   35.1250 H   0  0  0  0  0  0  0  0  0  0  0  0
   36.5830   28.2430   35.3800 H   0  0  0  0  0  0  0  0  0  0  0  0
   38.7290   28.4050   36.0570 H   0  0  0  0  0  0  0  0  0  0  0  0
   38.2980   26.8010   36.6440 H   0  0  0  0  0  0  0  0  0  0  0  0
   39.7260   25.7270   35.2290 H   0  0  0  0  0  0  0  0  0  0  0  0
   40.6230   27.2350   35.4290 H   0  0  0  0  0  0  0  0  0  0  0  0
   39.8240   28.0420   33.2620 H   0  0  0  0  0  0  0  0  0  0  0  0
   40.3840   26.3150   33.0450 H   0  0  0  0  0  0  0  0  0  0  0  0
   38.3330   26.5950   31.9290 H   0  0  0  0  0  0  0  0  0  0  0  0
   36.5850   28.5250   32.7360 C   0  0  0  0  0  0  0  0  0  0  0  0
   35.6270   29.3970   33.2600 C   0  0  0  0  0  0  0  0  0  0  0  0
   34.9920   30.2690   32.3920 C   0  0  0  0  0  0  0  0  0  0  0  0
   35.3260   30.2410   31.0810 N   0  0  0  0  0  0  0  0  0  0  0  0
   36.2620   29.3800   30.6080 C   0  0  0  0  0  0  0  0  0  0  0  0
   36.8830   28.5300   31.4360 N   0  0  0  0  0  0  0  0  0  0  0  0
   35.4270   29.3510   34.3000 H   0  0  0  0  0  0  0  0  0  0  0  0
   34.2460   30.9540   32.7800 H   0  0  0  0  0  0  0  0  0  0  0  0
   36.4930   29.3980   29.5400 H   0  0  0  0  0  0  0  0  0  0  0  0
   38.0050   25.3280   33.5700 O   0  0  0  0  0  0  0  0  0  0  0  0
   37.2610   24.4660   32.7730 C   0  0  0  0  0  0  0  0  0  0  0  0
   37.5190   23.1120   32.7950 C   0  0  0  0  0  0  0  0  0  0  0  0
   38.3220   22.7790   33.4630 H   0  0  0  0  0  0  0  0  0  0  0  0
   36.8670   22.1330   32.0640 C   0  0  0  0  0  0  0  0  0  0  0  0
   37.1500   21.1060   32.1600 H   0  0  0  0  0  0  0  0  0  0  0  0
   35.8660   22.6210   31.2430 C   0  0  0  0  0  3  0  0  0  0  0  0
   35.5770   23.9710   31.1920 C   0  0  0  0  0  3  0  0  0  0  0  0
   36.2660   24.8510   31.9440 N   0  0  0  0  0  0  0  0  0  0  0  0
  1  2  1  0  0  0  0
  2  7  1  0  0  0  0
  2  8  1  0  0  0  0
  2  3  1  0  0  0  0
  3  9  1  0  0  0  0
  3 10  1  0  0  0  0
  4 11  1  0  0  0  0
  4 12  1  0  0  0  0
  4  3  1  0  0  0  0
  5  4  1  0  0  0  0
  6 15  1  6  0  0  0
  6  1  1  0  0  0  0
  6  5  1  0  0  0  0
  6 25  1  0  0  0  0
 13  5  1  0  0  0  0
 14  5  1  0  0  0  0
 16 17  1  0  0  0  0
 16  1  1  0  0  0  0
 17 22  1  0  0  0  0
 18 23  1  0  0  0  0
 18 17  2  0  0  0  0
 19 18  1  0  0  0  0
 20 19  2  0  0  0  0
 20 21  1  0  0  0  0
 21 16  2  0  0  0  0
 24 20  1  0  0  0  0
 26 27  1  0  0  0  0
 26 25  1  0  0  0  0
 27 28  1  0  0  0  0
 29 30  1  0  0  0  0
 29 27  2  0  0  0  0
 31 29  1  0  0  0  0
 32 31  2  0  0  0  0
 32 33  1  0  0  0  0
 33 26  2  0  0  0  0
M  END
>  <minimizedAffinity>
-4.94436979

$$$$

 OpenBabel03272503003D

 33 35  0  0  1  0  0  0  0  0999 V2000
   38.3030   26.3040   33.0710 N   0  0  0  0  0  0  0  0  0  0  0  0
   37.0270   26.7940   33.5460 C   0  0  0  0  0  0  0  0  0  0  0  0
   37.0230   27.6690   34.7140 C   0  0  0  0  0  0  0  0  0  0  0  0
   38.1140   27.5310   35.6980 C   0  0  0  0  0  0  0  0  0  0  0  0
   39.3830   26.9640   35.1160 C   0  0  0  0  0  0  0  0  0  0  0  0
   39.0290   25.7900   34.2010 C   0  0  1  0  0  0  0  0  0  0  0  0
   36.4170   25.8910   33.7680 H   0  0  0  0  0  0  0  0  0  0  0  0
   36.4730   27.3000   32.7130 H   0  0  0  0  0  0  0  0  0  0  0  0
   37.0360   28.7370   34.3590 H   0  0  0  0  0  0  0  0  0  0  0  0
   36.0430   27.5760   35.2340 H   0  0  0  0  0  0  0  0  0  0  0  0
   37.7800   26.8010   36.4910 H   0  0  0  0  0  0  0  0  0  0  0  0
   38.3350   28.4600   36.2520 H   0  0  0  0  0  0  0  0  0  0  0  0
   39.8830   27.7310   34.5050 H   0  0  0  0  0  0  0  0  0  0  0  0
   40.0540   26.5850   35.9190 H   0  0  0  0  0  0  0  0  0  0  0  0
   39.9860   25.3330   33.9290 H   0  0  0  0  0  0  0  0  0  0  0  0
   38.7430   26.3360   31.7190 C   0  0  0  0  0  0  0  0  0  0  0  0
   38.8630   27.5040   30.9610 C   0  0  0  0  0  0  0  0  0  0  0  0
   39.3040   27.3910   29.6540 C   0  0  0  0  0  0  0  0  0  0  0  0
   39.6010   26.1620   29.1700 N   0  0  0  0  0  0  0  0  0  0  0  0
   39.4740   25.0510   29.9370 C   0  0  0  0  0  0  0  0  0  0  0  0
   39.0460   25.1450   31.2030 N   0  0  0  0  0  0  0  0  0  0  0  0
   38.6080   28.4250   31.4200 H   0  0  0  0  0  0  0  0  0  0  0  0
   39.4040   28.2860   29.0480 H   0  0  0  0  0  0  0  0  0  0  0  0
   39.7260   24.0830   29.4960 H   0  0  0  0  0  0  0  0  0  0  0  0
   38.2190   24.9460   34.9940 O   0  0  0  0  0  0  0  0  0  0  0  0
   38.8980   24.1390   35.8990 C   0  0  0  0  0  0  0  0  0  0  0  0
   38.4480   24.0310   37.1980 C   0  0  0  0  0  0  0  0  0  0  0  0
   37.5490   24.6060   37.4530 H   0  0  0  0  0  0  0  0  0  0  0  0
   39.0130   23.2720   38.2090 C   0  0  0  0  0  0  0  0  0  0  0  0
   38.5780   23.2620   39.1860 H   0  0  0  0  0  0  0  0  0  0  0  0
   40.1410   22.5730   37.8210 C   0  0  0  0  0  3  0  0  0  0  0  0
   40.6240   22.6550   36.5280 C   0  0  0  0  0  3  0  0  0  0  0  0
   40.0040   23.4210   35.6100 N   0  0  0  0  0  0  0  0  0  0  0  0
  1  2  1  0  0  0  0
  1  6  1  0  0  0  0
  2  7  1  0  0  0  0
  2  3  1  0  0  0  0
  3 10  1  0  0  0  0
  3  4  1  0  0  0  0
  4 12  1  0  0  0  0
  4 11  1  0  0  0  0
  5  4  1  0  0  0  0
  5 14  1  0  0  0  0
  6 15  1  6  0  0  0
  6 25  1  0  0  0  0
  6  5  1  0  0  0  0
  8  2  1  0  0  0  0
  9  3  1  0  0  0  0
 13  5  1  0  0  0  0
 16  1  1  0  0  0  0
 17 22  1  0  0  0  0
 17 16  2  0  0  0  0
 18 17  1  0  0  0  0
 19 18  2  0  0  0  0
 19 20  1  0  0  0  0
 20 21  2  0  0  0  0
 21 16  1  0  0  0  0
 23 18  1  0  0  0  0
 24 20  1  0  0  0  0
 25 26  1  0  0  0  0
 26 27  1  0  0  0  0
 27 28  1  0  0  0  0
 27 29  2  0  0  0  0
 29 30  1  0  0  0  0
 31 29  1  0  0  0  0
 32 31  2  0  0  0  0
 33 26  2  0  0  0  0
 33 32  1  0  0  0  0
M  END
>  <minimizedAffinity>
-4.93974876

$$$$

 OpenBabel03272503003D

 33 35  0  0  1  0  0  0  0  0999 V2000
   39.9180   24.4550   35.1140 N   0  0  0  0  0  0  0  0  0  0  0  0
   40.6030   25.6160   34.5880 C   0  0  0  0  0  0  0  0  0  0  0  0
   40.1110   26.9330   34.9790 C   0  0  0  0  0  0  0  0  0  0  0  0
   38.6830   27.0760   35.3210 C   0  0  0  0  0  0  0  0  0  0  0  0
   38.0490   25.8000   35.8090 C   0  0  0  0  0  0  0  0  0  0  0  0
   38.5060   24.6450   34.9150 C   0  0  1  0  0  0  0  0  0  0  0  0
   40.5540   25.5240   33.4810 H   0  0  0  0  0  0  0  0  0  0  0  0
   41.6980   25.5550   34.8190 H   0  0  0  0  0  0  0  0  0  0  0  0
   40.6990   27.2820   35.8720 H   0  0  0  0  0  0  0  0  0  0  0  0
   40.3760   27.6690   34.1850 H   0  0  0  0  0  0  0  0  0  0  0  0
   38.1250   27.3640   34.3830 H   0  0  0  0  0  0  0  0  0  0  0  0
   38.4750   27.8960   36.0300 H   0  0  0  0  0  0  0  0  0  0  0  0
   38.3880   25.5880   36.8340 H   0  0  0  0  0  0  0  0  0  0  0  0
   36.9390   25.8600   35.7520 H   0  0  0  0  0  0  0  0  0  0  0  0
   37.9060   23.7820   35.2220 H   0  0  0  0  0  0  0  0  0  0  0  0
   40.5480   23.3330   35.7190 C   0  0  0  0  0  0  0  0  0  0  0  0
   40.2960   22.9000   37.0230 C   0  0  0  0  0  0  0  0  0  0  0  0
   40.9820   21.7900   37.4880 C   0  0  0  0  0  0  0  0  0  0  0  0
   41.8610   21.1750   36.6620 N   0  0  0  0  0  0  0  0  0  0  0  0
   42.0790   21.6240   35.4010 C   0  0  0  0  0  0  0  0  0  0  0  0
   41.4230   22.6970   34.9390 N   0  0  0  0  0  0  0  0  0  0  0  0
   39.5920   23.4410   37.6010 H   0  0  0  0  0  0  0  0  0  0  0  0
   40.8000   21.4390   38.4980 H   0  0  0  0  0  0  0  0  0  0  0  0
   42.8000   21.0910   34.7770 H   0  0  0  0  0  0  0  0  0  0  0  0
   38.2240   25.0730   33.5980 O   0  0  0  0  0  0  0  0  0  0  0  0
   37.4050   24.2320   32.8560 C   0  0  0  0  0  0  0  0  0  0  0  0
   36.4770   24.7650   31.9850 C   0  0  0  0  0  0  0  0  0  0  0  0
   36.4370   25.8590   31.9240 H   0  0  0  0  0  0  0  0  0  0  0  0
   35.5960   24.0610   31.1820 C   0  0  0  0  0  0  0  0  0  0  0  0
   34.9150   24.5800   30.5400 H   0  0  0  0  0  0  0  0  0  0  0  0
   35.6990   22.6880   31.3070 C   0  0  0  0  0  3  0  0  0  0  0  0
   36.6150   22.1140   32.1680 C   0  0  0  0  0  3  0  0  0  0  0  0
   37.4350   22.8830   32.9120 N   0  0  0  0  0  0  0  0  0  0  0  0
  1 16  1  0  0  0  0
  2  8  1  0  0  0  0
  2  3  1  0  0  0  0
  2  1  1  0  0  0  0
  3  4  1  0  0  0  0
  3  9  1  0  0  0  0
  4  5  1  0  0  0  0
  4 12  1  0  0  0  0
  5 13  1  0  0  0  0
  6  1  1  0  0  0  0
  6 15  1  1  0  0  0
  6  5  1  0  0  0  0
  7  2  1  0  0  0  0
 10  3  1  0  0  0  0
 11  4  1  0  0  0  0
 14  5  1  0  0  0  0
 16 17  1  0  0  0  0
 17 18  2  0  0  0  0
 17 22  1  0  0  0  0
 18 23  1  0  0  0  0
 19 18  1  0  0  0  0
 20 19  2  0  0  0  0
 21 20  1  0  0  0  0
 21 16  2  0  0  0  0
 24 20  1  0  0  0  0
 25  6  1  0  0  0  0
 26 33  1  0  0  0  0
 26 25  1  0  0  0  0
 27 26  2  0  0  0  0
 28 27  1  0  0  0  0
 29 31  2  0  0  0  0
 29 27  1  0  0  0  0
 30 29  1  0  0  0  0
 31 32  1  0  0  0  0
 32 33  2  0  0  0  0
M  END
>  <minimizedAffinity>
-4.85857677

$$$$

 OpenBabel03272503003D

 33 35  0  0  1  0  0  0  0  0999 V2000
   37.6720   24.4730   32.9250 N   0  0  0  0  0  0  0  0  0  0  0  0
   36.9920   25.7510   32.9110 C   0  0  0  0  0  0  0  0  0  0  0  0
   37.7360   26.9140   32.4370 C   0  0  0  0  0  0  0  0  0  0  0  0
   39.2040   26.9200   32.5900 C   0  0  0  0  0  0  0  0  0  0  0  0
   39.8090   25.5410   32.6460 C   0  0  0  0  0  0  0  0  0  0  0  0
   38.9520   24.6580   33.5550 C   0  0  1  0  0  0  0  0  0  0  0  0
   36.6630   25.9330   33.9580 H   0  0  0  0  0  0  0  0  0  0  0  0
   36.0350   25.6730   32.3340 H   0  0  0  0  0  0  0  0  0  0  0  0
   37.5200   27.0520   31.3420 H   0  0  0  0  0  0  0  0  0  0  0  0
   37.3120   27.8310   32.9080 H   0  0  0  0  0  0  0  0  0  0  0  0
   39.4510   27.4110   33.5760 H   0  0  0  0  0  0  0  0  0  0  0  0
   39.7280   27.5330   31.8360 H   0  0  0  0  0  0  0  0  0  0  0  0
   39.8050   25.0960   31.6400 H   0  0  0  0  0  0  0  0  0  0  0  0
   40.8370   25.5760   33.0710 H   0  0  0  0  0  0  0  0  0  0  0  0
   39.5140   23.7270   33.6730 H   0  0  0  0  0  0  0  0  0  0  0  0
   37.1490   23.2600   32.4010 C   0  0  0  0  0  0  0  0  0  0  0  0
   35.9950   23.1770   31.6180 C   0  0  0  0  0  0  0  0  0  0  0  0
   35.5960   21.9280   31.1710 C   0  0  0  0  0  0  0  0  0  0  0  0
   36.3380   20.8480   31.5100 N   0  0  0  0  0  0  0  0  0  0  0  0
   37.4540   20.9680   32.2710 C   0  0  0  0  0  0  0  0  0  0  0  0
   37.8510   22.1690   32.7110 N   0  0  0  0  0  0  0  0  0  0  0  0
   35.4740   24.0740   31.4010 H   0  0  0  0  0  0  0  0  0  0  0  0
   34.7020   21.8430   30.5620 H   0  0  0  0  0  0  0  0  0  0  0  0
   38.0160   20.0630   32.5160 H   0  0  0  0  0  0  0  0  0  0  0  0
   38.8320   25.3880   34.7600 O   0  0  0  0  0  0  0  0  0  0  0  0
   38.8810   24.6340   35.9260 C   0  0  0  0  0  0  0  0  0  0  0  0
   38.0320   24.9260   36.9720 C   0  0  0  0  0  0  0  0  0  0  0  0
   37.3410   25.7650   36.8210 H   0  0  0  0  0  0  0  0  0  0  0  0
   37.9610   24.2700   38.1890 C   0  0  0  0  0  0  0  0  0  0  0  0
   37.2600   24.5820   38.9340 H   0  0  0  0  0  0  0  0  0  0  0  0
   38.8570   23.2240   38.3140 C   0  0  0  0  0  3  0  0  0  0  0  0
   39.7250   22.8990   37.2890 C   0  0  0  0  0  3  0  0  0  0  0  0
   39.7200   23.5960   36.1360 N   0  0  0  0  0  0  0  0  0  0  0  0
  1  6  1  0  0  0  0
  2  1  1  0  0  0  0
  2  7  1  0  0  0  0
  3  4  1  0  0  0  0
  3 10  1  0  0  0  0
  3  2  1  0  0  0  0
  4  5  1  0  0  0  0
  4 11  1  0  0  0  0
  5 14  1  0  0  0  0
  5  6  1  0  0  0  0
  6 15  1  1  0  0  0
  6 25  1  0  0  0  0
  8  2  1  0  0  0  0
  9  3  1  0  0  0  0
 12  4  1  0  0  0  0
 13  5  1  0  0  0  0
 16 21  1  0  0  0  0
 16  1  1  0  0  0  0
 17 16  2  0  0  0  0
 18 19  2  0  0  0  0
 18 17  1  0  0  0  0
 19 20  1  0  0  0  0
 20 24  1  0  0  0  0
 20 21  2  0  0  0  0
 22 17  1  0  0  0  0
 23 18  1  0  0  0  0
 25 26  1  0  0  0  0
 26 33  2  0  0  0  0
 26 27  1  0  0  0  0
 27 29  2  0  0  0  0
 28 27  1  0  0  0  0
 29 31  1  0  0  0  0
 29 30  1  0  0  0  0
 32 31  2  0  0  0  0
 33 32  1  0  0  0  0
M  END
>  <minimizedAffinity>
-4.81796741

$$$$

 OpenBabel03272503003D

 33 35  0  0  1  0  0  0  0  0999 V2000
   39.2310   24.9780   34.7890 N   0  0  0  0  0  0  0  0  0  0  0  0
   39.6990   24.2650   33.6190 C   0  0  0  0  0  0  0  0  0  0  0  0
   40.7780   24.8650   32.8410 C   0  0  0  0  0  0  0  0  0  0  0  0
   40.9170   26.3340   32.8500 C   0  0  0  0  0  0  0  0  0  0  0  0
   40.3530   26.9860   34.0850 C   0  0  0  0  0  0  0  0  0  0  0  0
   39.0020   26.3470   34.4110 C   0  0  1  0  0  0  0  0  0  0  0  0
   38.8090   24.1340   32.9650 H   0  0  0  0  0  0  0  0  0  0  0  0
   39.9910   23.2190   33.8950 H   0  0  0  0  0  0  0  0  0  0  0  0
   41.7560   24.4410   33.2010 H   0  0  0  0  0  0  0  0  0  0  0  0
   40.7070   24.5080   31.7880 H   0  0  0  0  0  0  0  0  0  0  0  0
   40.3270   26.7470   31.9810 H   0  0  0  0  0  0  0  0  0  0  0  0
   41.9500   26.6850   32.6750 H   0  0  0  0  0  0  0  0  0  0  0  0
   41.0270   26.8050   34.9370 H   0  0  0  0  0  0  0  0  0  0  0  0
   40.1880   28.0740   33.9210 H   0  0  0  0  0  0  0  0  0  0  0  0
   38.5790   26.9520   35.2190 H   0  0  0  0  0  0  0  0  0  0  0  0
   39.0400   24.4060   36.0760 C   0  0  0  0  0  0  0  0  0  0  0  0
   38.0420   24.8040   36.9700 C   0  0  0  0  0  0  0  0  0  0  0  0
   37.9670   24.1610   38.1940 C   0  0  0  0  0  0  0  0  0  0  0  0
   38.8590   23.1810   38.4710 N   0  0  0  0  0  0  0  0  0  0  0  0
   39.8140   22.8220   37.5770 C   0  0  0  0  0  0  0  0  0  0  0  0
   39.8980   23.4350   36.3890 N   0  0  0  0  0  0  0  0  0  0  0  0
   37.3860   25.5810   36.6720 H   0  0  0  0  0  0  0  0  0  0  0  0
   37.2000   24.4550   38.9020 H   0  0  0  0  0  0  0  0  0  0  0  0
   40.5090   22.0240   37.8510 H   0  0  0  0  0  0  0  0  0  0  0  0
   38.2620   26.4330   33.2100 O   0  0  0  0  0  0  0  0  0  0  0  0
   37.4040   27.5210   33.1110 C   0  0  0  0  0  0  0  0  0  0  0  0
   36.6940   27.9430   34.2160 C   0  0  0  0  0  0  0  0  0  0  0  0
   36.8520   27.3780   35.1420 H   0  0  0  0  0  0  0  0  0  0  0  0
   35.8070   29.0040   34.2740 C   0  0  0  0  0  0  0  0  0  0  0  0
   35.3090   29.2440   35.1890 H   0  0  0  0  0  0  0  0  0  0  0  0
   35.6540   29.6730   33.0730 C   0  0  0  0  0  3  0  0  0  0  0  0
   36.3470   29.2820   31.9430 C   0  0  0  0  0  3  0  0  0  0  0  0
   37.1930   28.2340   31.9830 N   0  0  0  0  0  0  0  0  0  0  0  0
  1 16  1  0  0  0  0
  2  8  1  0  0  0  0
  2  1  1  0  0  0  0
  3  4  1  0  0  0  0
  3  9  1  0  0  0  0
  3  2  1  0  0  0  0
  4  5  1  0  0  0  0
  5  6  1  0  0  0  0
  5 13  1  0  0  0  0
  6  1  1  0  0  0  0
  6 15  1  1  0  0  0
  7  2  1  0  0  0  0
 10  3  1  0  0  0  0
 11  4  1  0  0  0  0
 12  4  1  0  0  0  0
 14  5  1  0  0  0  0
 16 21  2  0  0  0  0
 16 17  1  0  0  0  0
 17 18  2  0  0  0  0
 18 19  1  0  0  0  0
 18 23  1  0  0  0  0
 20 24  1  0  0  0  0
 20 19  2  0  0  0  0
 21 20  1  0  0  0  0
 22 17  1  0  0  0  0
 25  6  1  0  0  0  0
 26 25  1  0  0  0  0
 26 27  1  0  0  0  0
 27 29  2  0  0  0  0
 27 28  1  0  0  0  0
 29 30  1  0  0  0  0
 31 29  1  0  0  0  0
 32 33  1  0  0  0  0
 32 31  2  0  0  0  0
 33 26  2  0  0  0  0
M  END
>  <minimizedAffinity>
-4.81348372

$$$$

 OpenBabel03272503003D

 33 35  0  0  1  0  0  0  0  0999 V2000
   38.9010   24.8850   34.7840 N   0  0  0  0  0  0  0  0  0  0  0  0
   40.0970   25.3140   34.0900 C   0  0  0  0  0  0  0  0  0  0  0  0
   40.0750   26.6200   33.4400 C   0  0  0  0  0  0  0  0  0  0  0  0
   38.7800   27.1490   32.9690 C   0  0  0  0  0  0  0  0  0  0  0  0
   37.5960   26.6020   33.7210 C   0  0  0  0  0  0  0  0  0  0  0  0
   37.7800   25.0940   33.9090 C   0  0  1  0  0  0  0  0  0  0  0  0
   40.3030   24.5320   33.3260 H   0  0  0  0  0  0  0  0  0  0  0  0
   40.9810   25.2660   34.7760 H   0  0  0  0  0  0  0  0  0  0  0  0
   40.4990   27.3800   34.1530 H   0  0  0  0  0  0  0  0  0  0  0  0
   40.8010   26.6170   32.5940 H   0  0  0  0  0  0  0  0  0  0  0  0
   38.6430   26.8330   31.8940 H   0  0  0  0  0  0  0  0  0  0  0  0
   38.7330   28.2520   32.9410 H   0  0  0  0  0  0  0  0  0  0  0  0
   37.5470   27.0630   34.7190 H   0  0  0  0  0  0  0  0  0  0  0  0
   36.6530   26.7650   33.1520 H   0  0  0  0  0  0  0  0  0  0  0  0
   36.8340   24.7330   34.3240 H   0  0  0  0  0  0  0  0  0  0  0  0
   38.8640   24.3520   36.1020 C   0  0  0  0  0  0  0  0  0  0  0  0
   37.9560   24.7540   37.0850 C   0  0  0  0  0  0  0  0  0  0  0  0
   38.0310   24.1510   38.3290 C   0  0  0  0  0  0  0  0  0  0  0  0
   38.9750   23.2020   38.5380 N   0  0  0  0  0  0  0  0  0  0  0  0
   39.8380   22.8380   37.5580 C   0  0  0  0  0  0  0  0  0  0  0  0
   39.7790   23.4130   36.3500 N   0  0  0  0  0  0  0  0  0  0  0  0
   37.2510   25.5040   36.8360 H   0  0  0  0  0  0  0  0  0  0  0  0
   37.3350   24.4490   39.1060 H   0  0  0  0  0  0  0  0  0  0  0  0
   40.5810   22.0670   37.7810 H   0  0  0  0  0  0  0  0  0  0  0  0
   38.0390   24.5970   32.6110 O   0  0  0  0  0  0  0  0  0  0  0  0
   37.4560   23.3720   32.3100 C   0  0  0  0  0  0  0  0  0  0  0  0
   36.2910   23.3260   31.5720 C   0  0  0  0  0  0  0  0  0  0  0  0
   35.8770   24.2900   31.2530 H   0  0  0  0  0  0  0  0  0  0  0  0
   35.5960   22.1900   31.1940 C   0  0  0  0  0  0  0  0  0  0  0  0
   34.6980   22.2710   30.6180 H   0  0  0  0  0  0  0  0  0  0  0  0
   36.1720   21.0100   31.6290 C   0  0  0  0  0  3  0  0  0  0  0  0
   37.3380   21.0140   32.3700 C   0  0  0  0  0  3  0  0  0  0  0  0
   37.9460   22.1730   32.6900 N   0  0  0  0  0  0  0  0  0  0  0  0
  1 16  1  0  0  0  0
  2  8  1  0  0  0  0
  2  1  1  0  0  0  0
  3  2  1  0  0  0  0
  3  9  1  0  0  0  0
  4  3  1  0  0  0  0
  4  5  1  0  0  0  0
  5  6  1  0  0  0  0
  5 13  1  0  0  0  0
  6 15  1  1  0  0  0
  6  1  1  0  0  0  0
  7  2  1  0  0  0  0
 10  3  1  0  0  0  0
 11  4  1  0  0  0  0
 12  4  1  0  0  0  0
 14  5  1  0  0  0  0
 16 21  2  0  0  0  0
 16 17  1  0  0  0  0
 17 18  2  0  0  0  0
 18 19  1  0  0  0  0
 18 23  1  0  0  0  0
 20 24  1  0  0  0  0
 20 19  2  0  0  0  0
 21 20  1  0  0  0  0
 22 17  1  0  0  0  0
 25  6  1  0  0  0  0
 26 25  1  0  0  0  0
 26 33  1  0  0  0  0
 27 26  2  0  0  0  0
 28 27  1  0  0  0  0
 29 27  1  0  0  0  0
 29 31  2  0  0  0  0
 30 29  1  0  0  0  0
 31 32  1  0  0  0  0
 32 33  2  0  0  0  0
M  END
>  <minimizedAffinity>
-4.7973094

$$$$
