
 OpenBabel03272509463D

 24 25  0  0  0  0  0  0  0  0999 V2000
   34.6460   29.8320   47.4170 C   0  0  0  0  0  0  0  0  0  0  0  0
   34.5940   28.7390   47.6010 H   0  0  0  0  0  0  0  0  0  0  0  0
   34.0070   30.3040   48.2020 H   0  0  0  0  0  0  0  0  0  0  0  0
   36.0660   30.3440   47.5160 C   0  0  0  0  0  0  0  0  0  0  0  0
   36.0280   31.4470   47.2920 H   0  0  0  0  0  0  0  0  0  0  0  0
   36.7410   29.8770   46.7980 H   0  0  0  0  0  0  0  0  0  0  0  0
   36.5010   30.2400   48.9350 C   0  0  0  0  0  0  0  0  0  0  0  0
   37.6810   30.9050   49.2280 C   0  0  0  0  0  0  0  0  0  0  0  0
   38.2590   31.4640   48.4960 H   0  0  0  0  0  0  0  0  0  0  0  0
   38.1230   30.8320   50.5490 C   0  0  0  0  0  0  0  0  0  0  0  0
   39.0580   31.3610   50.7770 H   0  0  0  0  0  0  0  0  0  0  0  0
   37.4390   30.1400   51.5380 C   0  0  0  0  0  3  0  0  0  0  0  0
   36.2590   29.4960   51.1640 C   0  0  0  0  0  3  0  0  0  0  0  0
   35.8230   29.5610   49.8840 N   0  0  0  0  0  0  0  0  0  0  0  0
   34.0890   30.1880   46.1760 O   0  0  0  0  0  0  0  0  0  0  0  0
   30.6030   30.6870   45.2990 C   0  0  0  0  0  0  0  0  0  0  0  0
   30.0450   29.5700   45.9350 C   0  0  0  0  0  0  0  0  0  0  0  0
   30.8850   28.7070   46.6290 C   0  0  0  0  0  0  0  0  0  0  0  0
   32.2160   29.0240   46.6350 N   0  0  0  0  0  0  0  0  0  0  0  0
   32.7280   30.1050   46.0140 C   0  0  0  0  0  0  0  0  0  0  0  0
   31.8990   30.9240   45.3510 N   0  0  0  0  0  0  0  0  0  0  0  0
   29.9120   31.3200   44.7780 H   0  0  0  0  0  0  0  0  0  0  0  0
   28.9870   29.2890   45.9500 H   0  0  0  0  0  0  0  0  0  0  0  0
   30.5180   27.8240   47.1450 H   0  0  0  0  0  0  0  0  0  0  0  0
  1  4  1  0  0  0  0
  1  2  1  0  0  0  0
  1  3  1  0  0  0  0
  4  7  1  0  0  0  0
  5  4  1  0  0  0  0
  6  4  1  0  0  0  0
  7  8  2  0  0  0  0
  7 14  1  0  0  0  0
  8 10  1  0  0  0  0
  9  8  1  0  0  0  0
 10 11  1  0  0  0  0
 10 12  2  0  0  0  0
 13 12  1  0  0  0  0
 14 13  2  0  0  0  0
 15  1  1  0  0  0  0
 16 21  2  0  0  0  0
 16 17  1  0  0  0  0
 17 23  1  0  0  0  0
 17 18  2  0  0  0  0
 18 19  1  0  0  0  0
 18 24  1  0  0  0  0
 20 15  1  0  0  0  0
 20 19  2  0  0  0  0
 21 20  1  0  0  0  0
 22 16  1  0  0  0  0
M  END
>  <minimizedAffinity>
-4.07974577

>  <minimizedRMSD>
6.61964083

$$$$
