
 OpenBabel03272507543D

 22 23  0  0  0  0  0  0  0  0999 V2000
   36.2680   31.0150   49.4880 C   0  0  0  0  0  0  0  0  0  0  0  0
   37.2100   31.4080   48.4940 C   0  0  0  0  0  0  0  0  0  0  0  0
   36.9860   31.0020   47.1880 C   0  0  0  0  0  0  0  0  0  0  0  0
   35.8790   30.2450   46.9160 N   0  0  0  0  0  0  0  0  0  0  0  0
   35.0050   29.8930   47.9030 C   0  0  0  0  0  0  0  0  0  0  0  0
   35.1920   30.2690   49.1720 N   0  0  0  0  0  0  0  0  0  0  0  0
   33.9320   29.1100   47.3800 N   0  0  0  0  0  0  0  0  0  0  0  0
   36.4250   31.3230   50.5170 H   0  0  0  0  0  0  0  0  0  0  0  0
   33.0800   29.6090   47.0580 H   0  0  0  0  0  0  0  0  0  0  0  0
   34.3020   28.1280   47.4560 H   0  0  0  0  0  0  0  0  0  0  0  0
   37.9270   31.3860   46.1400 C   0  0  0  0  0  0  0  0  0  0  0  0
   38.7940   30.3510   45.7980 C   0  0  0  0  0  0  0  0  0  0  0  0
   38.8210   29.3460   46.2220 H   0  0  0  0  0  0  0  0  0  0  0  0
   39.7510   30.5560   44.8180 C   0  0  0  0  0  0  0  0  0  0  0  0
   40.4840   29.8500   44.4530 H   0  0  0  0  0  0  0  0  0  0  0  0
   39.8380   31.7810   44.1900 C   0  0  0  0  0  3  0  0  0  0  0  0
   38.9640   32.7920   44.5510 C   0  0  0  0  0  3  0  0  0  0  0  0
   38.0430   32.5670   45.5060 N   0  0  0  0  0  0  0  0  0  0  0  0
   38.3780   32.2300   48.9020 C   0  0  0  0  0  0  0  0  0  0  0  0
   39.4760   31.9890   48.0840 F   0  0  0  0  0  0  0  0  0  0  0  0
   38.0360   33.5520   48.7940 F   0  0  0  0  0  0  0  0  0  0  0  0
   38.7750   31.9910   50.2040 F   0  0  0  0  0  0  0  0  0  0  0  0
  1  8  1  0  0  0  0
  2 19  1  0  0  0  0
  2  1  2  0  0  0  0
  3  2  1  0  0  0  0
  4  3  2  0  0  0  0
  4  5  1  0  0  0  0
  5  6  2  0  0  0  0
  6  1  1  0  0  0  0
  7 10  1  0  0  0  0
  7  5  1  0  0  0  0
  9  7  1  0  0  0  0
 11  3  1  0  0  0  0
 12 11  1  0  0  0  0
 12 13  1  0  0  0  0
 14 12  2  0  0  0  0
 15 14  1  0  0  0  0
 16 17  2  0  0  0  0
 16 14  1  0  0  0  0
 17 18  1  0  0  0  0
 18 11  2  0  0  0  0
 19 22  1  0  0  0  0
 20 19  1  0  0  0  0
 21 19  1  0  0  0  0
M  END
>  <minimizedAffinity>
-5.39741659

>  <minimizedRMSD>
2.49896383

$$$$
