
 OpenBabel03272501433D

 33 36  0  0  0  0  0  0  0  0999 V2000
   34.2660   29.1580   49.4600 C   0  0  0  0  0  0  0  0  0  0  0  0
   34.8790   29.6050   48.2490 C   0  0  0  0  0  0  0  0  0  0  0  0
   34.4090   29.0920   47.0450 C   0  0  0  0  0  0  0  0  0  0  0  0
   33.3980   28.1970   47.0760 N   0  0  0  0  0  0  0  0  0  0  0  0
   32.8240   27.7820   48.2390 C   0  0  0  0  0  0  0  0  0  0  0  0
   33.2640   28.2660   49.4170 N   0  0  0  0  0  0  0  0  0  0  0  0
   34.4940   29.4360   50.4690 H   0  0  0  0  0  0  0  0  0  0  0  0
   34.8970   29.4530   46.1670 H   0  0  0  0  0  0  0  0  0  0  0  0
   36.0870   31.1210   49.7180 C   0  0  0  0  0  0  0  0  0  0  0  0
   35.9420   30.5730   48.4430 C   0  0  0  0  0  0  0  0  0  0  0  0
   36.8200   30.9910   47.4660 C   0  0  0  0  0  0  0  0  0  0  0  0
   37.8030   31.9310   47.7910 C   0  0  0  0  0  0  0  0  0  0  0  0
   38.7760   32.5170   47.0720 N   0  0  0  0  0  0  0  0  0  0  0  0
   39.4670   33.3570   47.8410 C   0  0  0  0  0  0  0  0  0  0  0  0
   38.9350   33.3250   49.0980 N   0  0  0  0  0  0  0  0  0  0  0  0
   37.9230   32.4540   49.0520 C   0  0  0  0  0  0  0  0  0  0  0  0
   37.0590   32.0470   50.0300 C   0  0  0  0  0  0  0  0  0  0  0  0
   35.4550   30.8830   50.5920 H   0  0  0  0  0  0  0  0  0  0  0  0
   36.7220   30.5840   46.4920 H   0  0  0  0  0  0  0  0  0  0  0  0
   38.9290   32.3080   46.0570 H   0  0  0  0  0  0  0  0  0  0  0  0
   40.3000   33.9770   47.5810 H   0  0  0  0  0  0  0  0  0  0  0  0
   37.1730   32.4770   51.0280 H   0  0  0  0  0  0  0  0  0  0  0  0
   31.7080   26.7980   48.2080 C   0  0  0  0  0  0  0  0  0  0  0  0
   31.8510   26.0290   48.9970 H   0  0  0  0  0  0  0  0  0  0  0  0
   31.6070   26.3440   47.2020 H   0  0  0  0  0  0  0  0  0  0  0  0
   30.4760   27.5770   48.5550 C   0  0  0  0  0  0  0  0  0  0  0  0
   29.8660   27.5740   49.7920 C   0  0  0  0  0  0  0  0  0  0  0  0
   30.3190   26.9600   50.5590 H   0  0  0  0  0  0  0  0  0  0  0  0
   28.7300   28.3260   50.0160 C   0  0  0  0  0  0  0  0  0  0  0  0
   28.2630   28.3190   50.9750 H   0  0  0  0  0  0  0  0  0  0  0  0
   28.1820   29.1000   49.0030 C   0  0  0  0  0  0  0  0  0  0  0  0
   28.8110   29.0880   47.7740 C   0  0  0  0  0  0  0  0  0  0  0  0
   29.9120   28.3430   47.5970 N   0  0  0  0  0  0  0  0  0  0  0  0
  1  7  1  0  0  0  0
  2 10  1  0  0  0  0
  2  1  2  0  0  0  0
  3  4  2  0  0  0  0
  3  2  1  0  0  0  0
  4  5  1  0  0  0  0
  5  6  2  0  0  0  0
  6  1  1  0  0  0  0
  8  3  1  0  0  0  0
  9 17  1  0  0  0  0
  9 18  1  0  0  0  0
 10  9  2  0  0  0  0
 11 12  2  0  0  0  0
 11 10  1  0  0  0  0
 12 16  1  0  0  0  0
 13 12  1  0  0  0  0
 13 14  1  0  0  0  0
 14 15  2  0  0  0  0
 16 15  1  0  0  0  0
 16 17  2  0  0  0  0
 17 22  1  0  0  0  0
 19 11  1  0  0  0  0
 20 13  1  0  0  0  0
 21 14  1  0  0  0  0
 23  5  1  0  0  0  0
 23 26  1  0  0  0  0
 23 24  1  0  0  0  0
 25 23  1  0  0  0  0
 26 27  1  0  0  0  0
 27 29  2  0  0  0  0
 27 28  1  0  0  0  0
 29 30  1  0  0  0  0
 31 29  1  0  0  0  0
 32 31  2  0  0  0  0
 33 32  1  0  0  0  0
 33 26  2  0  0  0  0
M  END
>  <minimizedAffinity>
-6.5850749

>  <minimizedRMSD>
1.92360985

$$$$
