
     RDKit          3D

 26 27  0  0  0  0  0  0  0  0999 V2000
   37.3217   30.2253   51.4190 C   0  0  0  0  0  0  0  0  0  0  0  0
   38.0427   30.6674   50.3007 C   0  0  0  0  0  0  0  0  0  0  0  0
   37.6165   30.2819   49.0357 C   0  0  0  0  0  0  0  0  0  0  0  0
   36.5053   29.4860   48.9823 N   0  0  0  0  0  0  0  0  0  0  0  0
   35.8290   29.0740   50.0728 C   0  0  0  0  0  0  0  0  0  0  0  0
   36.2577   29.4577   51.2837 N   0  0  0  0  0  0  0  0  0  0  0  0
   34.7555   28.2868   49.7391 O   0  0  0  0  0  0  0  0  0  0  0  0
   34.2002   28.4080   48.4530 C   0  0  0  0  0  0  0  0  0  0  0  0
   33.8266   27.0438   47.9157 C   0  0  0  0  0  0  0  0  0  0  0  0
   37.6928   30.5513   52.3715 H   0  0  0  0  0  0  0  0  0  0  0  0
   38.9335   31.3034   50.3101 H   0  0  0  0  0  0  0  0  0  0  0  0
   38.1290   30.5890   48.1283 H   0  0  0  0  0  0  0  0  0  0  0  0
   34.8718   28.9496   47.7564 H   0  0  0  0  0  0  0  0  0  0  0  0
   33.2891   29.0466   48.5572 H   0  0  0  0  0  0  0  0  0  0  0  0
   34.7479   26.4006   48.0014 H   0  0  0  0  0  0  0  0  0  0  0  0
   33.5248   27.0635   46.8682 H   0  0  0  0  0  0  0  0  0  0  0  0
   32.8304   26.4374   48.8381 C   0  0  0  0  0  0  0  0  0  0  0  0
   31.6596   27.1649   48.9819 C   0  0  0  0  0  0  0  0  0  0  0  0
   31.4635   28.1059   48.4714 H   0  0  0  0  0  0  0  0  0  0  0  0
   30.6975   26.6305   49.8394 C   0  0  0  0  0  0  0  0  0  0  0  0
   29.7718   27.2100   49.9504 H   0  0  0  0  0  0  0  0  0  0  0  0
   30.8743   25.4374   50.5248 C   0  0  0  0  0  0  0  0  0  0  0  0
   32.0817   24.7636   50.3265 C   0  0  0  0  0  0  0  0  0  0  0  0
   33.0195   25.2751   49.4968 N   0  0  0  0  0  0  0  0  0  0  0  0
   30.0773   25.0804   51.1792 H   0  0  0  0  0  0  0  0  0  0  0  0
   32.2357   23.8329   50.8527 H   0  0  0  0  0  0  0  0  0  0  0  0
  2  1  2  0
  3  2  1  0
  4  3  2  0
  4  5  1  0
  5  6  2  0
  6  1  1  0
  7  5  1  0
  8  7  1  0
  9  8  1  0
  1 10  1  0
  2 11  1  0
  3 12  1  0
  8 13  1  0
  8 14  1  0
  9 15  1  0
  9 16  1  0
 17 18  2  0
 18 19  1  0
 18 20  1  0
 20 21  1  0
 20 22  2  0
 22 23  1  0
 23 24  2  0
 24 17  1  0
 22 25  1  0
 23 26  1  0
  9 17  1  0
M  ISO  8  10  14  11  14  12  14  13   8  14   8  15   8  16   8  19  15
M  ISO  1  21  16
M  END
>  <DihAtoms>  (1) 
7,8,16,17

>  <DihDeg>  (1) 
89.99951538518576

$$$$
