
 OpenBabel03272509463D

 24 25  0  0  0  0  0  0  0  0999 V2000
   34.2460   29.8580   47.8470 C   0  0  0  0  0  0  0  0  0  0  0  0
   34.5370   30.9010   47.6070 H   0  0  0  0  0  0  0  0  0  0  0  0
   33.4120   29.9360   48.5870 H   0  0  0  0  0  0  0  0  0  0  0  0
   33.7850   29.1130   46.6140 C   0  0  0  0  0  0  0  0  0  0  0  0
   34.7140   28.8280   46.0430 H   0  0  0  0  0  0  0  0  0  0  0  0
   33.1580   29.7170   45.9580 H   0  0  0  0  0  0  0  0  0  0  0  0
   33.1740   27.8280   47.0470 C   0  0  0  0  0  0  0  0  0  0  0  0
   32.0030   27.9630   47.7750 C   0  0  0  0  0  0  0  0  0  0  0  0
   31.5480   28.9220   48.0210 H   0  0  0  0  0  0  0  0  0  0  0  0
   31.3960   26.7820   48.2020 C   0  0  0  0  0  0  0  0  0  0  0  0
   30.4690   26.8940   48.7780 H   0  0  0  0  0  0  0  0  0  0  0  0
   31.9150   25.5250   47.9280 C   0  0  0  0  0  3  0  0  0  0  0  0
   33.0990   25.4720   47.1890 C   0  0  0  0  0  3  0  0  0  0  0  0
   33.6930   26.6130   46.7720 N   0  0  0  0  0  0  0  0  0  0  0  0
   35.2820   29.1500   48.4820 O   0  0  0  0  0  0  0  0  0  0  0  0
   37.9130   30.4170   50.6360 C   0  0  0  0  0  0  0  0  0  0  0  0
   38.3080   31.5310   49.8820 C   0  0  0  0  0  0  0  0  0  0  0  0
   37.6590   31.7910   48.6820 C   0  0  0  0  0  0  0  0  0  0  0  0
   36.6640   30.9210   48.3250 N   0  0  0  0  0  0  0  0  0  0  0  0
   36.3030   29.8560   49.0680 C   0  0  0  0  0  0  0  0  0  0  0  0
   36.9440   29.6240   50.2230 N   0  0  0  0  0  0  0  0  0  0  0  0
   38.4460   30.2620   51.5530 H   0  0  0  0  0  0  0  0  0  0  0  0
   39.0980   32.2450   50.1400 H   0  0  0  0  0  0  0  0  0  0  0  0
   37.9150   32.6370   48.0500 H   0  0  0  0  0  0  0  0  0  0  0  0
  1 15  1  0  0  0  0
  1  3  1  0  0  0  0
  2  1  1  0  0  0  0
  4  7  1  0  0  0  0
  4  1  1  0  0  0  0
  5  4  1  0  0  0  0
  6  4  1  0  0  0  0
  7  8  1  0  0  0  0
  8  9  1  0  0  0  0
  8 10  2  0  0  0  0
 10 11  1  0  0  0  0
 12 10  1  0  0  0  0
 13 12  2  0  0  0  0
 14  7  2  0  0  0  0
 14 13  1  0  0  0  0
 15 20  1  0  0  0  0
 16 22  1  0  0  0  0
 17 23  1  0  0  0  0
 17 16  2  0  0  0  0
 18 17  1  0  0  0  0
 19 18  2  0  0  0  0
 19 20  1  0  0  0  0
 20 21  2  0  0  0  0
 21 16  1  0  0  0  0
 24 18  1  0  0  0  0
M  END
>  <minimizedAffinity>
-3.6115253

>  <minimizedRMSD>
2.03571844

$$$$
