
     RDKit          3D

 24 25  0  0  0  0  0  0  0  0999 V2000
   35.6222   29.0076   50.1768 C   0  0  0  0  0  0  0  0  0  0  0  0
   36.2897   30.1524   49.6529 C   0  0  0  0  0  0  0  0  0  0  0  0
   36.0374   30.5083   48.3365 C   0  0  0  0  0  0  0  0  0  0  0  0
   35.1642   29.7475   47.6071 N   0  0  0  0  0  0  0  0  0  0  0  0
   34.5489   28.6588   48.1545 C   0  0  0  0  0  0  0  0  0  0  0  0
   34.7708   28.2900   49.4192 N   0  0  0  0  0  0  0  0  0  0  0  0
   33.6865   28.0303   47.2062 N   0  0  0  0  0  0  0  0  0  0  0  0
   37.2178   30.9052   50.5354 C   0  0  0  0  0  0  0  0  0  0  0  0
   38.5333   30.7904   50.0996 F   0  0  0  0  0  0  0  0  0  0  0  0
   36.8632   32.2283   50.5080 F   0  0  0  0  0  0  0  0  0  0  0  0
   37.1790   30.4742   51.8478 F   0  0  0  0  0  0  0  0  0  0  0  0
   35.8061   28.7126   51.2046 H   0  0  0  0  0  0  0  0  0  0  0  0
   32.6965   28.3413   47.1696 H   0  0  0  0  0  0  0  0  0  0  0  0
   34.3255   27.3408   46.7320 H   0  0  0  0  0  0  0  0  0  0  0  0
   36.6995   31.6751   47.7637 C   0  0  0  0  0  0  0  0  0  0  0  0
   38.0881   31.5561   47.7740 C   0  0  0  0  0  0  0  0  0  0  0  0
   38.6750   30.7178   48.1495 H   0  0  0  0  0  0  0  0  0  0  0  0
   38.8659   32.5830   47.2643 C   0  0  0  0  0  0  0  0  0  0  0  0
   39.9446   32.6292   47.2069 H   0  0  0  0  0  0  0  0  0  0  0  0
   38.2610   33.7124   46.7521 C   0  0  0  0  0  0  0  0  0  0  0  0
   36.8794   33.8021   46.7555 C   0  0  0  0  0  0  0  0  0  0  0  0
   36.1468   32.7916   47.2559 N   0  0  0  0  0  0  0  0  0  0  0  0
   38.7421   34.5837   46.3256 H   0  0  0  0  0  0  0  0  0  0  0  0
   36.2283   34.5962   46.4028 H   0  0  0  0  0  0  0  0  0  0  0  0
  2  1  2  0
  2  8  1  0
  3  2  1  0
  4  5  1  0
  4  3  2  0
  5  6  2  0
  6  1  1  0
  7  5  1  0
  8 11  1  0
  9  8  1  0
 10  8  1  0
  1 12  1  0
  7 13  1  0
  7 14  1  0
 15 16  2  0
 16 17  1  0
 16 18  1  0
 18 19  1  0
 18 20  2  0
 20 21  1  0
 21 22  2  0
 22 15  1  0
 20 23  1  0
 21 24  1  0
  3 15  1  0
M  ISO  3  12  14  17  15  19  16
M  END
>  <DihAtoms>  (1) 
1,2,14,15

>  <DihDeg>  (1) 
-134.7835887486954

$$$$
