
 OpenBabel03272501453D

 33 36  0  0  0  0  0  0  0  0999 V2000
   37.7040   27.2390   35.4620 C   0  0  0  0  0  0  0  0  0  0  0  0
   37.8260   25.9890   34.7800 C   0  0  0  0  0  0  0  0  0  0  0  0
   37.2780   25.8770   33.5070 C   0  0  0  0  0  0  0  0  0  0  0  0
   36.6590   26.9520   32.9740 N   0  0  0  0  0  0  0  0  0  0  0  0
   36.5510   28.1370   33.6370 C   0  0  0  0  0  0  0  0  0  0  0  0
   37.0750   28.2680   34.8720 N   0  0  0  0  0  0  0  0  0  0  0  0
   38.0550   27.5090   36.4370 H   0  0  0  0  0  0  0  0  0  0  0  0
   37.3930   24.9250   33.0380 H   0  0  0  0  0  0  0  0  0  0  0  0
   38.0030   24.5950   36.7660 C   0  0  0  0  0  0  0  0  0  0  0  0
   38.5350   24.9700   35.5310 C   0  0  0  0  0  0  0  0  0  0  0  0
   39.6920   24.3440   35.1190 C   0  0  0  0  0  0  0  0  0  0  0  0
   40.2710   23.3740   35.9430 C   0  0  0  0  0  0  0  0  0  0  0  0
   41.3710   22.6110   35.8170 N   0  0  0  0  0  0  0  0  0  0  0  0
   41.5060   21.8270   36.8850 C   0  0  0  0  0  0  0  0  0  0  0  0
   40.4700   22.0800   37.7370 N   0  0  0  0  0  0  0  0  0  0  0  0
   39.7280   23.0240   37.1510 C   0  0  0  0  0  0  0  0  0  0  0  0
   38.5800   23.6380   37.5710 C   0  0  0  0  0  0  0  0  0  0  0  0
   37.0890   25.0140   37.2210 H   0  0  0  0  0  0  0  0  0  0  0  0
   40.1080   24.6190   34.1840 H   0  0  0  0  0  0  0  0  0  0  0  0
   41.9980   22.6620   34.9790 H   0  0  0  0  0  0  0  0  0  0  0  0
   42.2670   21.1060   37.0990 H   0  0  0  0  0  0  0  0  0  0  0  0
   38.1650   23.3430   38.5380 H   0  0  0  0  0  0  0  0  0  0  0  0
   35.8610   29.2880   32.9950 C   0  0  0  0  0  0  0  0  0  0  0  0
   35.1440   28.9300   32.2260 H   0  0  0  0  0  0  0  0  0  0  0  0
   36.5950   30.0050   32.5730 H   0  0  0  0  0  0  0  0  0  0  0  0
   35.0660   29.9390   34.0860 C   0  0  0  0  0  0  0  0  0  0  0  0
   35.4810   31.0330   34.8170 C   0  0  0  0  0  0  0  0  0  0  0  0
   36.4540   31.4400   34.5770 H   0  0  0  0  0  0  0  0  0  0  0  0
   34.6770   31.5630   35.8060 C   0  0  0  0  0  0  0  0  0  0  0  0
   35.0050   32.4080   36.3670 H   0  0  0  0  0  0  0  0  0  0  0  0
   33.4350   31.0070   36.0810 C   0  0  0  0  0  3  0  0  0  0  0  0
   33.0400   29.9140   35.3360 C   0  0  0  0  0  3  0  0  0  0  0  0
   33.8520   29.4290   34.3850 N   0  0  0  0  0  0  0  0  0  0  0  0
  1  7  1  0  0  0  0
  2  1  2  0  0  0  0
  2 10  1  0  0  0  0
  3  2  1  0  0  0  0
  4  3  2  0  0  0  0
  4  5  1  0  0  0  0
  5  6  2  0  0  0  0
  6  1  1  0  0  0  0
  8  3  1  0  0  0  0
  9 18  1  0  0  0  0
  9 17  1  0  0  0  0
 10  9  2  0  0  0  0
 11 10  1  0  0  0  0
 11 12  2  0  0  0  0
 12 16  1  0  0  0  0
 13 12  1  0  0  0  0
 13 14  1  0  0  0  0
 14 21  1  0  0  0  0
 14 15  2  0  0  0  0
 16 17  2  0  0  0  0
 16 15  1  0  0  0  0
 17 22  1  0  0  0  0
 19 11  1  0  0  0  0
 20 13  1  0  0  0  0
 23  5  1  0  0  0  0
 23 26  1  0  0  0  0
 24 23  1  0  0  0  0
 25 23  1  0  0  0  0
 26 33  2  0  0  0  0
 26 27  1  0  0  0  0
 27 29  2  0  0  0  0
 28 27  1  0  0  0  0
 29 31  1  0  0  0  0
 29 30  1  0  0  0  0
 32 31  2  0  0  0  0
 33 32  1  0  0  0  0
M  END
>  <minimizedAffinity>
-5.60955381

$$$$

 OpenBabel03272501453D

 33 36  0  0  0  0  0  0  0  0999 V2000
   36.5820   27.9400   34.5080 C   0  0  0  0  0  0  0  0  0  0  0  0
   36.0080   29.0400   33.7990 C   0  0  0  0  0  0  0  0  0  0  0  0
   36.2390   29.1330   32.4300 C   0  0  0  0  0  0  0  0  0  0  0  0
   36.9910   28.1810   31.8370 N   0  0  0  0  0  0  0  0  0  0  0  0
   37.5300   27.1380   32.5270 C   0  0  0  0  0  0  0  0  0  0  0  0
   37.3200   27.0290   33.8540 N   0  0  0  0  0  0  0  0  0  0  0  0
   36.5170   27.7070   35.5520 H   0  0  0  0  0  0  0  0  0  0  0  0
   35.7920   29.9700   31.9430 H   0  0  0  0  0  0  0  0  0  0  0  0
   33.8410   29.8800   34.5150 C   0  0  0  0  0  0  0  0  0  0  0  0
   35.2310   29.9410   34.6280 C   0  0  0  0  0  0  0  0  0  0  0  0
   35.7590   30.8520   35.5180 C   0  0  0  0  0  0  0  0  0  0  0  0
   34.8910   31.6600   36.2590 C   0  0  0  0  0  0  0  0  0  0  0  0
   35.1010   32.6170   37.1800 N   0  0  0  0  0  0  0  0  0  0  0  0
   33.9370   33.1050   37.6030 C   0  0  0  0  0  0  0  0  0  0  0  0
   32.9330   32.4550   36.9440 N   0  0  0  0  0  0  0  0  0  0  0  0
   33.5300   31.5800   36.1290 C   0  0  0  0  0  0  0  0  0  0  0  0
   32.9930   30.6800   35.2490 C   0  0  0  0  0  0  0  0  0  0  0  0
   33.2830   29.2050   33.8420 H   0  0  0  0  0  0  0  0  0  0  0  0
   36.8120   30.9100   35.6140 H   0  0  0  0  0  0  0  0  0  0  0  0
   36.0620   32.9000   37.4880 H   0  0  0  0  0  0  0  0  0  0  0  0
   33.7510   33.8700   38.3280 H   0  0  0  0  0  0  0  0  0  0  0  0
   31.9050   30.6330   35.1620 H   0  0  0  0  0  0  0  0  0  0  0  0
   38.3460   26.1170   31.8160 C   0  0  0  0  0  0  0  0  0  0  0  0
   39.2750   25.9010   32.3840 H   0  0  0  0  0  0  0  0  0  0  0  0
   38.5620   26.4370   30.7760 H   0  0  0  0  0  0  0  0  0  0  0  0
   37.5160   24.8690   31.8150 C   0  0  0  0  0  0  0  0  0  0  0  0
   36.3250   24.7170   31.1350 C   0  0  0  0  0  0  0  0  0  0  0  0
   35.9750   25.5680   30.5650 H   0  0  0  0  0  0  0  0  0  0  0  0
   35.6290   23.5270   31.1950 C   0  0  0  0  0  0  0  0  0  0  0  0
   34.7090   23.4160   30.6680 H   0  0  0  0  0  0  0  0  0  0  0  0
   36.1150   22.4610   31.9390 C   0  0  0  0  0  3  0  0  0  0  0  0
   37.3090   22.6360   32.6100 C   0  0  0  0  0  3  0  0  0  0  0  0
   37.9540   23.8090   32.5260 N   0  0  0  0  0  0  0  0  0  0  0  0
  1  7  1  0  0  0  0
  2  1  2  0  0  0  0
  2 10  1  0  0  0  0
  3  2  1  0  0  0  0
  4  3  2  0  0  0  0
  4  5  1  0  0  0  0
  5  6  2  0  0  0  0
  6  1  1  0  0  0  0
  8  3  1  0  0  0  0
  9 10  2  0  0  0  0
  9 17  1  0  0  0  0
 10 11  1  0  0  0  0
 11 19  1  0  0  0  0
 11 12  2  0  0  0  0
 12 13  1  0  0  0  0
 13 20  1  0  0  0  0
 13 14  1  0  0  0  0
 14 21  1  0  0  0  0
 15 14  2  0  0  0  0
 16 12  1  0  0  0  0
 16 15  1  0  0  0  0
 17 16  2  0  0  0  0
 18  9  1  0  0  0  0
 22 17  1  0  0  0  0
 23 24  1  0  0  0  0
 23  5  1  0  0  0  0
 25 23  1  0  0  0  0
 26 23  1  0  0  0  0
 26 33  1  0  0  0  0
 27 29  1  0  0  0  0
 27 26  2  0  0  0  0
 28 27  1  0  0  0  0
 29 31  2  0  0  0  0
 30 29  1  0  0  0  0
 31 32  1  0  0  0  0
 33 32  2  0  0  0  0
M  END
>  <minimizedAffinity>
-5.53386927

$$$$

 OpenBabel03272501453D

 33 36  0  0  0  0  0  0  0  0999 V2000
   37.8700   26.3160   35.6220 C   0  0  0  0  0  0  0  0  0  0  0  0
   37.7240   25.9720   34.2430 C   0  0  0  0  0  0  0  0  0  0  0  0
   37.9700   24.6570   33.8630 C   0  0  0  0  0  0  0  0  0  0  0  0
   38.3320   23.7680   34.8130 N   0  0  0  0  0  0  0  0  0  0  0  0
   38.4660   24.1120   36.1240 C   0  0  0  0  0  0  0  0  0  0  0  0
   38.2330   25.3810   36.5140 N   0  0  0  0  0  0  0  0  0  0  0  0
   37.7290   27.2670   36.0950 H   0  0  0  0  0  0  0  0  0  0  0  0
   37.8500   24.4470   32.8240 H   0  0  0  0  0  0  0  0  0  0  0  0
   36.4440   28.0180   33.9380 C   0  0  0  0  0  0  0  0  0  0  0  0
   37.3210   27.0770   33.3940 C   0  0  0  0  0  0  0  0  0  0  0  0
   37.7360   27.2700   32.0940 C   0  0  0  0  0  0  0  0  0  0  0  0
   37.2700   28.3830   31.3880 C   0  0  0  0  0  0  0  0  0  0  0  0
   37.4910   28.8280   30.1390 N   0  0  0  0  0  0  0  0  0  0  0  0
   36.8080   29.9510   29.9280 C   0  0  0  0  0  0  0  0  0  0  0  0
   36.1190   30.2560   31.0670 N   0  0  0  0  0  0  0  0  0  0  0  0
   36.4100   29.2920   31.9460 C   0  0  0  0  0  0  0  0  0  0  0  0
   35.9900   29.1130   33.2350 C   0  0  0  0  0  0  0  0  0  0  0  0
   36.0280   27.9880   34.9600 H   0  0  0  0  0  0  0  0  0  0  0  0
   38.4020   26.5640   31.6680 H   0  0  0  0  0  0  0  0  0  0  0  0
   38.1190   28.3260   29.4670 H   0  0  0  0  0  0  0  0  0  0  0  0
   36.7640   30.5570   29.0470 H   0  0  0  0  0  0  0  0  0  0  0  0
   35.3040   29.8500   33.6590 H   0  0  0  0  0  0  0  0  0  0  0  0
   38.8630   23.0860   37.1260 C   0  0  0  0  0  0  0  0  0  0  0  0
   38.2950   22.1460   36.9620 H   0  0  0  0  0  0  0  0  0  0  0  0
   38.7360   23.4710   38.1580 H   0  0  0  0  0  0  0  0  0  0  0  0
   40.3070   22.7950   36.8520 C   0  0  0  0  0  0  0  0  0  0  0  0
   41.1450   23.6000   36.1080 C   0  0  0  0  0  0  0  0  0  0  0  0
   40.7150   24.5040   35.6970 H   0  0  0  0  0  0  0  0  0  0  0  0
   42.4640   23.2470   35.9090 C   0  0  0  0  0  0  0  0  0  0  0  0
   43.1050   23.8730   35.3320 H   0  0  0  0  0  0  0  0  0  0  0  0
   42.9730   22.0770   36.4550 C   0  0  0  0  0  3  0  0  0  0  0  0
   42.1170   21.2880   37.1970 C   0  0  0  0  0  3  0  0  0  0  0  0
   40.8410   21.6660   37.3660 N   0  0  0  0  0  0  0  0  0  0  0  0
  1  7  1  0  0  0  0
  1  6  1  0  0  0  0
  2  1  2  0  0  0  0
  3  2  1  0  0  0  0
  3  4  2  0  0  0  0
  4  5  1  0  0  0  0
  5  6  2  0  0  0  0
  5 23  1  0  0  0  0
  8  3  1  0  0  0  0
  9 18  1  0  0  0  0
 10  9  1  0  0  0  0
 10  2  1  0  0  0  0
 11 10  2  0  0  0  0
 12 16  2  0  0  0  0
 12 11  1  0  0  0  0
 13 12  1  0  0  0  0
 14 13  1  0  0  0  0
 14 15  2  0  0  0  0
 15 16  1  0  0  0  0
 16 17  1  0  0  0  0
 17 22  1  0  0  0  0
 17  9  2  0  0  0  0
 19 11  1  0  0  0  0
 20 13  1  0  0  0  0
 21 14  1  0  0  0  0
 23 25  1  0  0  0  0
 24 23  1  0  0  0  0
 26 23  1  0  0  0  0
 26 33  1  0  0  0  0
 27 26  2  0  0  0  0
 28 27  1  0  0  0  0
 29 27  1  0  0  0  0
 29 31  2  0  0  0  0
 30 29  1  0  0  0  0
 31 32  1  0  0  0  0
 32 33  2  0  0  0  0
M  END
>  <minimizedAffinity>
-5.40423203

$$$$

 OpenBabel03272501453D

 33 36  0  0  0  0  0  0  0  0999 V2000
   37.4820   27.4580   35.0440 C   0  0  0  0  0  0  0  0  0  0  0  0
   38.3220   27.1110   33.9410 C   0  0  0  0  0  0  0  0  0  0  0  0
   37.9650   27.5600   32.6740 C   0  0  0  0  0  0  0  0  0  0  0  0
   36.8440   28.3030   32.5450 N   0  0  0  0  0  0  0  0  0  0  0  0
   36.0540   28.6250   33.6060 C   0  0  0  0  0  0  0  0  0  0  0  0
   36.3810   28.2000   34.8430 N   0  0  0  0  0  0  0  0  0  0  0  0
   37.5920   27.2020   36.0780 H   0  0  0  0  0  0  0  0  0  0  0  0
   38.6210   27.2770   31.8820 H   0  0  0  0  0  0  0  0  0  0  0  0
   39.2720   24.9530   34.5380 C   0  0  0  0  0  0  0  0  0  0  0  0
   39.4780   26.3130   34.3030 C   0  0  0  0  0  0  0  0  0  0  0  0
   40.7640   26.7950   34.4320 C   0  0  0  0  0  0  0  0  0  0  0  0
   41.7880   25.9120   34.7860 C   0  0  0  0  0  0  0  0  0  0  0  0
   43.1080   26.0810   34.9830 N   0  0  0  0  0  0  0  0  0  0  0  0
   43.6710   24.9190   35.3110 C   0  0  0  0  0  0  0  0  0  0  0  0
   42.6990   23.9610   35.3310 N   0  0  0  0  0  0  0  0  0  0  0  0
   41.5590   24.5800   35.0100 C   0  0  0  0  0  0  0  0  0  0  0  0
   40.2890   24.0900   34.8860 C   0  0  0  0  0  0  0  0  0  0  0  0
   38.3000   24.4340   34.4760 H   0  0  0  0  0  0  0  0  0  0  0  0
   40.9350   27.8260   34.2570 H   0  0  0  0  0  0  0  0  0  0  0  0
   43.5770   27.0120   34.8800 H   0  0  0  0  0  0  0  0  0  0  0  0
   44.6960   24.7070   35.5320 H   0  0  0  0  0  0  0  0  0  0  0  0
   40.1290   23.0250   35.0700 H   0  0  0  0  0  0  0  0  0  0  0  0
   34.8340   29.4520   33.4020 C   0  0  0  0  0  0  0  0  0  0  0  0
   33.9260   28.8150   33.4400 H   0  0  0  0  0  0  0  0  0  0  0  0
   34.8980   30.0250   32.4550 H   0  0  0  0  0  0  0  0  0  0  0  0
   34.7810   30.3860   34.5740 C   0  0  0  0  0  0  0  0  0  0  0  0
   35.8040   31.2300   34.9530 C   0  0  0  0  0  0  0  0  0  0  0  0
   36.7040   31.2070   34.3550 H   0  0  0  0  0  0  0  0  0  0  0  0
   35.6620   32.0550   36.0500 C   0  0  0  0  0  0  0  0  0  0  0  0
   36.4560   32.7050   36.3380 H   0  0  0  0  0  0  0  0  0  0  0  0
   34.4870   32.0530   36.7900 C   0  0  0  0  0  3  0  0  0  0  0  0
   33.4780   31.2000   36.3910 C   0  0  0  0  0  3  0  0  0  0  0  0
   33.6560   30.4130   35.3190 N   0  0  0  0  0  0  0  0  0  0  0  0
  1  7  1  0  0  0  0
  2 10  1  0  0  0  0
  2  1  2  0  0  0  0
  3  2  1  0  0  0  0
  4  3  2  0  0  0  0
  4  5  1  0  0  0  0
  5  6  2  0  0  0  0
  6  1  1  0  0  0  0
  8  3  1  0  0  0  0
  9 17  1  0  0  0  0
 10 11  1  0  0  0  0
 10  9  2  0  0  0  0
 11 12  2  0  0  0  0
 12 13  1  0  0  0  0
 12 16  1  0  0  0  0
 13 14  1  0  0  0  0
 14 15  2  0  0  0  0
 14 21  1  0  0  0  0
 16 15  1  0  0  0  0
 17 16  2  0  0  0  0
 17 22  1  0  0  0  0
 18  9  1  0  0  0  0
 19 11  1  0  0  0  0
 20 13  1  0  0  0  0
 23 24  1  0  0  0  0
 23  5  1  0  0  0  0
 23 26  1  0  0  0  0
 25 23  1  0  0  0  0
 26 27  2  0  0  0  0
 26 33  1  0  0  0  0
 27 29  1  0  0  0  0
 28 27  1  0  0  0  0
 29 30  1  0  0  0  0
 29 31  2  0  0  0  0
 32 31  1  0  0  0  0
 33 32  2  0  0  0  0
M  END
>  <minimizedAffinity>
-5.39553928

$$$$

 OpenBabel03272501453D

 33 36  0  0  0  0  0  0  0  0999 V2000
   35.4100   24.6560   31.1380 C   0  0  0  0  0  0  0  0  0  0  0  0
   36.6770   23.9940   31.1360 C   0  0  0  0  0  0  0  0  0  0  0  0
   37.8240   24.7690   31.0020 C   0  0  0  0  0  0  0  0  0  0  0  0
   37.6880   26.1080   30.8820 N   0  0  0  0  0  0  0  0  0  0  0  0
   36.4730   26.7230   30.8860 C   0  0  0  0  0  0  0  0  0  0  0  0
   35.3480   25.9910   31.0140 N   0  0  0  0  0  0  0  0  0  0  0  0
   34.4310   24.2300   31.2250 H   0  0  0  0  0  0  0  0  0  0  0  0
   38.7460   24.2330   31.0050 H   0  0  0  0  0  0  0  0  0  0  0  0
   37.6880   21.8000   30.8510 C   0  0  0  0  0  0  0  0  0  0  0  0
   36.5950   22.5540   31.2840 C   0  0  0  0  0  0  0  0  0  0  0  0
   35.5230   21.8720   31.8200 C   0  0  0  0  0  0  0  0  0  0  0  0
   35.5770   20.4780   31.9060 C   0  0  0  0  0  0  0  0  0  0  0  0
   34.7100   19.5590   32.3680 N   0  0  0  0  0  0  0  0  0  0  0  0
   35.2260   18.3390   32.2330 C   0  0  0  0  0  0  0  0  0  0  0  0
   36.4630   18.4550   31.6680 N   0  0  0  0  0  0  0  0  0  0  0  0
   36.6630   19.7620   31.4740 C   0  0  0  0  0  0  0  0  0  0  0  0
   37.7330   20.4260   30.9410 C   0  0  0  0  0  0  0  0  0  0  0  0
   38.6080   22.2100   30.4000 H   0  0  0  0  0  0  0  0  0  0  0  0
   34.6860   22.4310   32.1520 H   0  0  0  0  0  0  0  0  0  0  0  0
   33.7770   19.8180   32.7680 H   0  0  0  0  0  0  0  0  0  0  0  0
   34.7990   17.3940   32.5000 H   0  0  0  0  0  0  0  0  0  0  0  0
   38.5870   19.8350   30.6030 H   0  0  0  0  0  0  0  0  0  0  0  0
   36.3870   28.2020   30.7550 C   0  0  0  0  0  0  0  0  0  0  0  0
   35.6470   28.4790   29.9760 H   0  0  0  0  0  0  0  0  0  0  0  0
   37.3850   28.6410   30.5510 H   0  0  0  0  0  0  0  0  0  0  0  0
   35.8630   28.6920   32.0710 C   0  0  0  0  0  0  0  0  0  0  0  0
   36.4610   28.4580   33.2920 C   0  0  0  0  0  0  0  0  0  0  0  0
   37.3740   27.8780   33.2870 H   0  0  0  0  0  0  0  0  0  0  0  0
   35.9010   28.9510   34.4530 C   0  0  0  0  0  0  0  0  0  0  0  0
   36.3680   28.7660   35.3940 H   0  0  0  0  0  0  0  0  0  0  0  0
   34.7280   29.6920   34.4150 C   0  0  0  0  0  3  0  0  0  0  0  0
   34.1480   29.9130   33.1810 C   0  0  0  0  0  3  0  0  0  0  0  0
   34.7230   29.4170   32.0760 N   0  0  0  0  0  0  0  0  0  0  0  0
  1  7  1  0  0  0  0
  2  1  1  0  0  0  0
  2 10  1  0  0  0  0
  3  8  1  0  0  0  0
  3  2  2  0  0  0  0
  4  5  2  0  0  0  0
  4  3  1  0  0  0  0
  5  6  1  0  0  0  0
  6  1  2  0  0  0  0
  9 17  2  0  0  0  0
  9 10  1  0  0  0  0
 10 11  2  0  0  0  0
 11 12  1  0  0  0  0
 11 19  1  0  0  0  0
 12 13  1  0  0  0  0
 13 20  1  0  0  0  0
 14 13  1  0  0  0  0
 14 21  1  0  0  0  0
 15 14  2  0  0  0  0
 16 15  1  0  0  0  0
 16 12  2  0  0  0  0
 17 16  1  0  0  0  0
 18  9  1  0  0  0  0
 22 17  1  0  0  0  0
 23  5  1  0  0  0  0
 23 26  1  0  0  0  0
 24 23  1  0  0  0  0
 25 23  1  0  0  0  0
 26 33  2  0  0  0  0
 26 27  1  0  0  0  0
 27 29  2  0  0  0  0
 28 27  1  0  0  0  0
 29 30  1  0  0  0  0
 31 29  1  0  0  0  0
 32 31  2  0  0  0  0
 33 32  1  0  0  0  0
M  END
>  <minimizedAffinity>
-5.38280869

$$$$

 OpenBabel03272501453D

 33 36  0  0  0  0  0  0  0  0999 V2000
   38.1350   27.1130   34.0830 C   0  0  0  0  0  0  0  0  0  0  0  0
   37.0600   27.0540   33.1440 C   0  0  0  0  0  0  0  0  0  0  0  0
   36.7280   25.8180   32.6000 C   0  0  0  0  0  0  0  0  0  0  0  0
   37.4340   24.7330   32.9850 N   0  0  0  0  0  0  0  0  0  0  0  0
   38.4560   24.8060   33.8820 C   0  0  0  0  0  0  0  0  0  0  0  0
   38.7950   25.9940   34.4220 N   0  0  0  0  0  0  0  0  0  0  0  0
   38.5310   27.9650   34.5970 H   0  0  0  0  0  0  0  0  0  0  0  0
   35.9200   25.8220   31.9030 H   0  0  0  0  0  0  0  0  0  0  0  0
   35.9330   29.0440   33.9700 C   0  0  0  0  0  0  0  0  0  0  0  0
   36.4330   28.3340   32.8770 C   0  0  0  0  0  0  0  0  0  0  0  0
   36.2940   28.9030   31.6290 C   0  0  0  0  0  0  0  0  0  0  0  0
   35.6690   30.1490   31.5150 C   0  0  0  0  0  0  0  0  0  0  0  0
   35.3930   30.9360   30.4610 N   0  0  0  0  0  0  0  0  0  0  0  0
   34.7750   32.0430   30.8690 C   0  0  0  0  0  0  0  0  0  0  0  0
   34.6390   31.9840   32.2260 N   0  0  0  0  0  0  0  0  0  0  0  0
   35.1870   30.8250   32.6040 C   0  0  0  0  0  0  0  0  0  0  0  0
   35.3180   30.2720   33.8480 C   0  0  0  0  0  0  0  0  0  0  0  0
   35.9700   28.7100   35.0210 H   0  0  0  0  0  0  0  0  0  0  0  0
   36.6690   28.3750   30.7900 H   0  0  0  0  0  0  0  0  0  0  0  0
   35.6500   30.6730   29.4800 H   0  0  0  0  0  0  0  0  0  0  0  0
   34.4220   32.8700   30.2880 H   0  0  0  0  0  0  0  0  0  0  0  0
   34.9260   30.8290   34.7020 H   0  0  0  0  0  0  0  0  0  0  0  0
   39.1940   23.5740   34.2720 C   0  0  0  0  0  0  0  0  0  0  0  0
   40.2780   23.6910   34.0630 H   0  0  0  0  0  0  0  0  0  0  0  0
   38.7700   22.6820   33.7680 H   0  0  0  0  0  0  0  0  0  0  0  0
   39.0300   23.4610   35.7580 C   0  0  0  0  0  0  0  0  0  0  0  0
   37.8830   23.7890   36.4500 C   0  0  0  0  0  0  0  0  0  0  0  0
   37.0480   24.1550   35.8670 H   0  0  0  0  0  0  0  0  0  0  0  0
   37.8270   23.6520   37.8220 C   0  0  0  0  0  0  0  0  0  0  0  0
   36.9380   23.9080   38.3500 H   0  0  0  0  0  0  0  0  0  0  0  0
   38.9230   23.1790   38.5300 C   0  0  0  0  0  3  0  0  0  0  0  0
   40.0600   22.8550   37.8160 C   0  0  0  0  0  3  0  0  0  0  0  0
   40.0730   23.0040   36.4840 N   0  0  0  0  0  0  0  0  0  0  0  0
  1  6  1  0  0  0  0
  1  7  1  0  0  0  0
  2  1  2  0  0  0  0
  3  4  2  0  0  0  0
  3  2  1  0  0  0  0
  4  5  1  0  0  0  0
  5 23  1  0  0  0  0
  5  6  2  0  0  0  0
  8  3  1  0  0  0  0
  9 18  1  0  0  0  0
 10  2  1  0  0  0  0
 10  9  2  0  0  0  0
 11 10  1  0  0  0  0
 12 11  2  0  0  0  0
 12 16  1  0  0  0  0
 13 14  1  0  0  0  0
 13 12  1  0  0  0  0
 14 15  2  0  0  0  0
 15 16  1  0  0  0  0
 16 17  2  0  0  0  0
 17  9  1  0  0  0  0
 17 22  1  0  0  0  0
 19 11  1  0  0  0  0
 20 13  1  0  0  0  0
 21 14  1  0  0  0  0
 23 26  1  0  0  0  0
 24 23  1  0  0  0  0
 25 23  1  0  0  0  0
 26 27  2  0  0  0  0
 26 33  1  0  0  0  0
 27 29  1  0  0  0  0
 28 27  1  0  0  0  0
 29 30  1  0  0  0  0
 29 31  2  0  0  0  0
 32 31  1  0  0  0  0
 33 32  2  0  0  0  0
M  END
>  <minimizedAffinity>
-5.38205528

$$$$

 OpenBabel03272501453D

 33 36  0  0  0  0  0  0  0  0999 V2000
   37.4690   27.6660   35.2140 C   0  0  0  0  0  0  0  0  0  0  0  0
   37.6710   26.5350   34.3630 C   0  0  0  0  0  0  0  0  0  0  0  0
   37.0440   26.5240   33.1220 C   0  0  0  0  0  0  0  0  0  0  0  0
   36.2770   27.5810   32.7780 N   0  0  0  0  0  0  0  0  0  0  0  0
   36.0950   28.6520   33.5990 C   0  0  0  0  0  0  0  0  0  0  0  0
   36.6930   28.6830   34.8070 N   0  0  0  0  0  0  0  0  0  0  0  0
   37.8620   27.8470   36.1930 H   0  0  0  0  0  0  0  0  0  0  0  0
   37.2220   25.6600   32.5220 H   0  0  0  0  0  0  0  0  0  0  0  0
   39.7880   25.3380   34.3330 C   0  0  0  0  0  0  0  0  0  0  0  0
   38.5370   25.5160   34.9250 C   0  0  0  0  0  0  0  0  0  0  0  0
   38.2200   24.7110   35.9990 C   0  0  0  0  0  0  0  0  0  0  0  0
   39.1520   23.7670   36.4400 C   0  0  0  0  0  0  0  0  0  0  0  0
   39.1310   22.8630   37.4360 N   0  0  0  0  0  0  0  0  0  0  0  0
   40.2760   22.1840   37.4570 C   0  0  0  0  0  0  0  0  0  0  0  0
   41.0730   22.6510   36.4510 N   0  0  0  0  0  0  0  0  0  0  0  0
   40.3740   23.6140   35.8410 C   0  0  0  0  0  0  0  0  0  0  0  0
   40.7010   24.4060   34.7750 C   0  0  0  0  0  0  0  0  0  0  0  0
   40.1720   25.9060   33.4670 H   0  0  0  0  0  0  0  0  0  0  0  0
   37.2730   24.8340   36.4590 H   0  0  0  0  0  0  0  0  0  0  0  0
   38.3090   22.7500   38.0750 H   0  0  0  0  0  0  0  0  0  0  0  0
   40.5820   21.4000   38.1180 H   0  0  0  0  0  0  0  0  0  0  0  0
   41.6810   24.2650   34.3130 H   0  0  0  0  0  0  0  0  0  0  0  0
   35.2420   29.7900   33.1620 C   0  0  0  0  0  0  0  0  0  0  0  0
   35.1680   29.8130   32.0540 H   0  0  0  0  0  0  0  0  0  0  0  0
   35.6200   30.7480   33.5710 H   0  0  0  0  0  0  0  0  0  0  0  0
   33.8740   29.4970   33.7010 C   0  0  0  0  0  0  0  0  0  0  0  0
   33.4900   29.6820   35.0130 C   0  0  0  0  0  0  0  0  0  0  0  0
   34.2390   30.0670   35.6920 H   0  0  0  0  0  0  0  0  0  0  0  0
   32.2050   29.3820   35.4160 C   0  0  0  0  0  0  0  0  0  0  0  0
   31.9140   29.5280   36.4310 H   0  0  0  0  0  0  0  0  0  0  0  0
   31.2750   28.8910   34.5100 C   0  0  0  0  0  3  0  0  0  0  0  0
   31.6830   28.7140   33.2030 C   0  0  0  0  0  3  0  0  0  0  0  0
   32.9410   29.0170   32.8510 N   0  0  0  0  0  0  0  0  0  0  0  0
  1  7  1  0  0  0  0
  2 10  1  0  0  0  0
  2  1  2  0  0  0  0
  3  2  1  0  0  0  0
  4  3  2  0  0  0  0
  4  5  1  0  0  0  0
  5  6  2  0  0  0  0
  6  1  1  0  0  0  0
  8  3  1  0  0  0  0
  9 17  2  0  0  0  0
  9 10  1  0  0  0  0
 10 11  2  0  0  0  0
 11 12  1  0  0  0  0
 11 19  1  0  0  0  0
 12 13  1  0  0  0  0
 13 14  1  0  0  0  0
 13 20  1  0  0  0  0
 14 21  1  0  0  0  0
 15 14  2  0  0  0  0
 16 12  2  0  0  0  0
 16 15  1  0  0  0  0
 17 16  1  0  0  0  0
 18  9  1  0  0  0  0
 22 17  1  0  0  0  0
 23 25  1  0  0  0  0
 23  5  1  0  0  0  0
 23 26  1  0  0  0  0
 24 23  1  0  0  0  0
 26 27  1  0  0  0  0
 27 29  2  0  0  0  0
 27 28  1  0  0  0  0
 29 30  1  0  0  0  0
 31 29  1  0  0  0  0
 32 31  2  0  0  0  0
 33 32  1  0  0  0  0
 33 26  2  0  0  0  0
M  END
>  <minimizedAffinity>
-5.33558035

$$$$

 OpenBabel03272501453D

 33 36  0  0  0  0  0  0  0  0999 V2000
   37.1440   26.6960   34.8410 C   0  0  0  0  0  0  0  0  0  0  0  0
   37.0180   26.9930   33.4490 C   0  0  0  0  0  0  0  0  0  0  0  0
   37.4940   26.0630   32.5320 C   0  0  0  0  0  0  0  0  0  0  0  0
   38.0520   24.9240   32.9980 N   0  0  0  0  0  0  0  0  0  0  0  0
   38.1640   24.6560   34.3280 C   0  0  0  0  0  0  0  0  0  0  0  0
   37.7090   25.5440   35.2350 N   0  0  0  0  0  0  0  0  0  0  0  0
   36.8420   27.2860   35.6830 H   0  0  0  0  0  0  0  0  0  0  0  0
   37.3800   26.3270   31.5050 H   0  0  0  0  0  0  0  0  0  0  0  0
   35.9810   29.0390   34.2600 C   0  0  0  0  0  0  0  0  0  0  0  0
   36.3820   28.2660   33.1680 C   0  0  0  0  0  0  0  0  0  0  0  0
   36.1440   28.7720   31.9080 C   0  0  0  0  0  0  0  0  0  0  0  0
   35.5230   30.0180   31.7810 C   0  0  0  0  0  0  0  0  0  0  0  0
   35.1680   30.7540   30.7130 N   0  0  0  0  0  0  0  0  0  0  0  0
   34.5960   31.8880   31.1120 C   0  0  0  0  0  0  0  0  0  0  0  0
   34.5730   31.9020   32.4770 N   0  0  0  0  0  0  0  0  0  0  0  0
   35.1400   30.7570   32.8690 C   0  0  0  0  0  0  0  0  0  0  0  0
   35.3700   30.2670   34.1250 C   0  0  0  0  0  0  0  0  0  0  0  0
   36.1030   28.7590   35.3200 H   0  0  0  0  0  0  0  0  0  0  0  0
   36.4430   28.1960   31.0690 H   0  0  0  0  0  0  0  0  0  0  0  0
   35.3400   30.4360   29.7290 H   0  0  0  0  0  0  0  0  0  0  0  0
   34.2030   32.6890   30.5190 H   0  0  0  0  0  0  0  0  0  0  0  0
   35.0560   30.8720   34.9780 H   0  0  0  0  0  0  0  0  0  0  0  0
   38.7830   23.3810   34.7810 C   0  0  0  0  0  0  0  0  0  0  0  0
   39.1310   23.4730   35.8320 H   0  0  0  0  0  0  0  0  0  0  0  0
   39.6030   23.0750   34.1000 H   0  0  0  0  0  0  0  0  0  0  0  0
   37.6800   22.3680   34.7560 C   0  0  0  0  0  0  0  0  0  0  0  0
   37.0300   21.8850   35.8740 C   0  0  0  0  0  0  0  0  0  0  0  0
   37.3510   22.2730   36.8310 H   0  0  0  0  0  0  0  0  0  0  0  0
   36.0240   20.9490   35.7510 C   0  0  0  0  0  0  0  0  0  0  0  0
   35.5260   20.5790   36.6180 H   0  0  0  0  0  0  0  0  0  0  0  0
   35.6440   20.4780   34.5010 C   0  0  0  0  0  3  0  0  0  0  0  0
   36.3080   20.9760   33.3980 C   0  0  0  0  0  3  0  0  0  0  0  0
   37.2810   21.8840   33.5600 N   0  0  0  0  0  0  0  0  0  0  0  0
  1  6  1  0  0  0  0
  1  7  1  0  0  0  0
  2  1  2  0  0  0  0
  3  4  2  0  0  0  0
  3  2  1  0  0  0  0
  4  5  1  0  0  0  0
  5 23  1  0  0  0  0
  5  6  2  0  0  0  0
  8  3  1  0  0  0  0
  9 18  1  0  0  0  0
 10  2  1  0  0  0  0
 10  9  2  0  0  0  0
 11 10  1  0  0  0  0
 12 11  2  0  0  0  0
 12 16  1  0  0  0  0
 13 14  1  0  0  0  0
 13 12  1  0  0  0  0
 14 15  2  0  0  0  0
 15 16  1  0  0  0  0
 16 17  2  0  0  0  0
 17  9  1  0  0  0  0
 17 22  1  0  0  0  0
 19 11  1  0  0  0  0
 20 13  1  0  0  0  0
 21 14  1  0  0  0  0
 23 24  1  0  0  0  0
 25 23  1  0  0  0  0
 26 23  1  0  0  0  0
 26 27  1  0  0  0  0
 27 28  1  0  0  0  0
 29 27  2  0  0  0  0
 29 30  1  0  0  0  0
 31 29  1  0  0  0  0
 32 33  1  0  0  0  0
 32 31  2  0  0  0  0
 33 26  2  0  0  0  0
M  END
>  <minimizedAffinity>
-5.32326078

$$$$

 OpenBabel03272501453D

 33 36  0  0  0  0  0  0  0  0999 V2000
   35.7730   26.4230   31.4220 C   0  0  0  0  0  0  0  0  0  0  0  0
   36.7490   27.1460   32.1750 C   0  0  0  0  0  0  0  0  0  0  0  0
   37.9720   26.5350   32.4250 C   0  0  0  0  0  0  0  0  0  0  0  0
   38.1820   25.2900   31.9450 N   0  0  0  0  0  0  0  0  0  0  0  0
   37.2410   24.6140   31.2290 C   0  0  0  0  0  0  0  0  0  0  0  0
   36.0480   25.1880   30.9750 N   0  0  0  0  0  0  0  0  0  0  0  0
   34.7850   26.7260   31.1370 H   0  0  0  0  0  0  0  0  0  0  0  0
   38.6690   27.1110   32.9910 H   0  0  0  0  0  0  0  0  0  0  0  0
   36.3540   29.4830   31.6270 C   0  0  0  0  0  0  0  0  0  0  0  0
   36.3210   28.4700   32.5870 C   0  0  0  0  0  0  0  0  0  0  0  0
   35.8830   28.8030   33.8510 C   0  0  0  0  0  0  0  0  0  0  0  0
   35.4970   30.1200   34.1120 C   0  0  0  0  0  0  0  0  0  0  0  0
   35.0380   30.7330   35.2180 N   0  0  0  0  0  0  0  0  0  0  0  0
   34.8060   32.0190   34.9620 C   0  0  0  0  0  0  0  0  0  0  0  0
   35.1190   32.2610   33.6560 N   0  0  0  0  0  0  0  0  0  0  0  0
   35.5380   31.0970   33.1520 C   0  0  0  0  0  0  0  0  0  0  0  0
   35.9700   30.7800   31.8940 C   0  0  0  0  0  0  0  0  0  0  0  0
   36.6850   29.3630   30.5810 H   0  0  0  0  0  0  0  0  0  0  0  0
   35.8530   28.0430   34.5900 H   0  0  0  0  0  0  0  0  0  0  0  0
   34.9000   30.2270   36.1250 H   0  0  0  0  0  0  0  0  0  0  0  0
   34.4390   32.7810   35.6190 H   0  0  0  0  0  0  0  0  0  0  0  0
   35.9960   31.5740   31.1440 H   0  0  0  0  0  0  0  0  0  0  0  0
   37.5320   23.2460   30.7220 C   0  0  0  0  0  0  0  0  0  0  0  0
   38.6100   23.0100   30.8460 H   0  0  0  0  0  0  0  0  0  0  0  0
   37.2030   23.1350   29.6690 H   0  0  0  0  0  0  0  0  0  0  0  0
   36.7610   22.3160   31.6090 C   0  0  0  0  0  0  0  0  0  0  0  0
   35.6080   21.6550   31.2420 C   0  0  0  0  0  0  0  0  0  0  0  0
   35.2430   21.8280   30.2380 H   0  0  0  0  0  0  0  0  0  0  0  0
   34.9660   20.8170   32.1310 C   0  0  0  0  0  0  0  0  0  0  0  0
   34.0750   20.3090   31.8400 H   0  0  0  0  0  0  0  0  0  0  0  0
   35.4690   20.6220   33.4100 C   0  0  0  0  0  3  0  0  0  0  0  0
   36.6250   21.2940   33.7540 C   0  0  0  0  0  3  0  0  0  0  0  0
   37.2180   22.1000   32.8610 N   0  0  0  0  0  0  0  0  0  0  0  0
  1  2  1  0  0  0  0
  2  3  2  0  0  0  0
  2 10  1  0  0  0  0
  3  8  1  0  0  0  0
  4  3  1  0  0  0  0
  5  4  2  0  0  0  0
  6  5  1  0  0  0  0
  6  1  2  0  0  0  0
  7  1  1  0  0  0  0
  9 17  2  0  0  0  0
  9 10  1  0  0  0  0
 10 11  2  0  0  0  0
 11 12  1  0  0  0  0
 11 19  1  0  0  0  0
 12 13  1  0  0  0  0
 13 20  1  0  0  0  0
 14 13  1  0  0  0  0
 14 21  1  0  0  0  0
 15 14  2  0  0  0  0
 16 15  1  0  0  0  0
 16 12  2  0  0  0  0
 17 16  1  0  0  0  0
 18  9  1  0  0  0  0
 22 17  1  0  0  0  0
 23 24  1  0  0  0  0
 23  5  1  0  0  0  0
 23 26  1  0  0  0  0
 25 23  1  0  0  0  0
 26 33  1  0  0  0  0
 27 26  2  0  0  0  0
 27 29  1  0  0  0  0
 28 27  1  0  0  0  0
 29 31  2  0  0  0  0
 30 29  1  0  0  0  0
 31 32  1  0  0  0  0
 33 32  2  0  0  0  0
M  END
>  <minimizedAffinity>
-5.27968168

$$$$
