
 OpenBabel03272505263D

 30 32  0  0  0  0  0  0  0  0999 V2000
   37.3720   31.0610   47.1440 N   0  0  0  0  0  0  0  0  0  0  0  0
   36.7770   30.7220   45.9680 C   0  0  0  0  0  0  0  0  0  0  0  0
   37.2420   31.1970   44.7510 C   0  0  0  0  0  0  0  0  0  0  0  0
   38.3550   32.0460   44.7680 C   0  0  0  0  0  0  0  0  0  0  0  0
   38.8100   32.5000   43.6910 O   0  0  0  0  0  0  0  0  0  0  0  0
   38.9500   32.3850   45.9600 N   0  0  0  0  0  0  0  0  0  0  0  0
   38.4120   31.8660   47.0570 C   0  0  0  0  0  0  0  0  0  0  0  0
   38.9820   32.2000   48.1210 O   0  0  0  0  0  0  0  0  0  0  0  0
   35.9210   30.0640   45.9850 H   0  0  0  0  0  0  0  0  0  0  0  0
   37.2490   29.4790   50.5050 C   0  0  0  0  0  0  0  0  0  0  0  0
   37.7370   29.9580   49.2770 C   0  0  0  0  0  0  0  0  0  0  0  0
   36.8930   30.5720   48.3630 C   0  0  0  0  0  0  0  0  0  0  0  0
   35.5930   30.6870   48.7020 N   0  0  0  0  0  0  0  0  0  0  0  0
   35.0930   30.2310   49.8830 C   0  0  0  0  0  0  0  0  0  0  0  0
   35.9410   29.6290   50.7740 N   0  0  0  0  0  0  0  0  0  0  0  0
   37.8580   28.9940   51.2530 H   0  0  0  0  0  0  0  0  0  0  0  0
   38.7820   29.7660   49.1840 H   0  0  0  0  0  0  0  0  0  0  0  0
   34.0330   30.3780   50.0480 H   0  0  0  0  0  0  0  0  0  0  0  0
   36.6480   30.8700   43.4720 C   0  0  0  0  0  0  0  0  0  0  0  0
   37.0040   29.7650   42.7330 C   0  0  0  0  0  0  0  0  0  0  0  0
   37.7560   29.0860   43.0850 H   0  0  0  0  0  0  0  0  0  0  0  0
   36.4660   29.4160   41.5120 C   0  0  0  0  0  0  0  0  0  0  0  0
   36.7720   28.5390   40.9600 H   0  0  0  0  0  0  0  0  0  0  0  0
   35.4760   30.2430   40.9720 C   0  0  0  0  0  0  0  0  0  0  0  0
   35.1410   31.3500   41.7470 C   0  0  0  0  0  0  0  0  0  0  0  0
   35.7020   31.6340   42.9240 N   0  0  0  0  0  0  0  0  0  0  0  0
   40.0940   33.2590   45.9660 C   0  0  0  0  0  0  0  0  0  0  0  0
   39.9630   34.2330   45.0310 F   0  0  0  0  0  0  0  0  0  0  0  0
   41.2870   32.6100   45.6880 F   0  0  0  0  0  0  0  0  0  0  0  0
   40.1740   33.8780   47.2180 F   0  0  0  0  0  0  0  0  0  0  0  0
  1 12  1  0  0  0  0
  2  9  1  0  0  0  0
  2  1  1  0  0  0  0
  3  4  1  0  0  0  0
  3  2  2  0  0  0  0
  4  6  1  0  0  0  0
  5  4  2  0  0  0  0
  6 27  1  0  0  0  0
  6  7  1  0  0  0  0
  7  1  1  0  0  0  0
  7  8  2  0  0  0  0
 10 15  1  0  0  0  0
 10 16  1  0  0  0  0
 11 10  2  0  0  0  0
 12 13  2  0  0  0  0
 12 11  1  0  0  0  0
 13 14  1  0  0  0  0
 14 18  1  0  0  0  0
 14 15  2  0  0  0  0
 17 11  1  0  0  0  0
 19  3  1  0  0  0  0
 20 21  1  0  0  0  0
 20 19  2  0  0  0  0
 22 20  1  0  0  0  0
 23 22  1  0  0  0  0
 24 22  2  0  0  0  0
 24 25  1  0  0  0  0
 25 26  2  0  0  0  0
 26 19  1  0  0  0  0
 27 30  1  0  0  0  0
 28 27  1  0  0  0  0
 29 27  1  0  0  0  0
M  END
>  <minimizedAffinity>
-6.05976057

>  <minimizedRMSD>
0.223483577

$$$$
