REMARK  Name = 
REMARK  5 active torsions:
REMARK  status: ('A' for Active; 'I' for Inactive)
REMARK    1  A    between atoms: C_1  and  S_17
REMARK    2  A    between atoms: C_2  and  C_9
REMARK    3  A    between atoms: C_11  and  C_13
REMARK    4  A    between atoms: S_17  and  C_20
REMARK    5  A    between atoms: C_20  and  C_29
REMARK                            x       y       z     vdW  Elec       q    Type
REMARK                         _______ _______ _______ _____ _____    ______ ____
ROOT
ATOM      1  C   UNL     1      38.162  31.245  44.915  0.00  0.00    +0.000 A 
ATOM      2  C   UNL     1      37.332  30.953  45.973  0.00  0.00    +0.000 A 
ATOM      3  C   UNL     1      36.103  30.362  45.727  0.00  0.00    +0.000 A 
ATOM      4  C   UNL     1      35.661  30.047  44.458  0.00  0.00    +0.000 A 
ATOM      5  C   UNL     1      36.469  30.330  43.386  0.00  0.00    +0.000 A 
ATOM      6  C   UNL     1      37.681  30.914  43.649  0.00  0.00    +0.000 A 
ATOM      7  H   UNL     1      35.460  30.138  46.587  0.00  0.00    +0.000 HD
ATOM      8  H   UNL     1      34.686  29.587  44.383  0.00  0.00    +0.000 HD
ATOM      9  H   UNL     1      36.092  30.071  42.409  0.00  0.00    +0.000 HD
ATOM     10  H   UNL     1      38.230  31.093  42.718  0.00  0.00    +0.000 HD
ENDROOT
BRANCH   2  13
ATOM     11  C   UNL     1      38.692  32.775  48.861  0.00  0.00    +0.000 A 
ATOM     12  C   UNL     1      38.310  32.445  47.565  0.00  0.00    +0.000 A 
ATOM     13  C   UNL     1      37.697  31.267  47.312  0.00  0.00    +0.000 A 
ATOM     14  N   UNL     1      37.470  30.436  48.374  0.00  0.00    +0.000 NA
ATOM     15  C   UNL     1      37.832  30.751  49.624  0.00  0.00    +0.000 A 
ATOM     16  N   UNL     1      38.442  31.917  49.857  0.00  0.00    +0.000 NA
ATOM     17  H   UNL     1      39.183  33.655  49.229  0.00  0.00    +0.000 HD
ATOM     18  H   UNL     1      38.586  33.296  46.991  0.00  0.00    +0.000 HD
BRANCH  15  19
ATOM     19  C   UNL     1      37.466  29.785  50.694  0.00  0.00    +0.000 C 
ATOM     20  F   UNL     1      37.727  30.290  51.957  0.00  0.00    +0.000 F 
ATOM     21  F   UNL     1      36.027  29.637  50.702  0.00  0.00    +0.000 F 
ATOM     22  F   UNL     1      37.899  28.551  50.569  0.00  0.00    +0.000 F 
ENDBRANCH  15  19
ENDBRANCH   2  13
BRANCH   1  23
ATOM     23  S   UNL     1      39.733  31.936  45.101  0.00  0.00    +0.000 S 
ATOM     24  O   UNL     1      39.683  33.400  44.877  0.00  0.00    +0.000 OA
ATOM     25  O   UNL     1      40.284  31.568  43.748  0.00  0.00    +0.000 OA
BRANCH  23  26
ATOM     26  C   UNL     1      41.127  31.248  45.758  0.00  0.00    +0.000 C 
ATOM     27  H   UNL     1      41.872  32.075  45.826  0.00  0.00    +0.000 HD
ATOM     28  H   UNL     1      40.900  31.085  46.862  0.00  0.00    +0.000 HD
BRANCH  26  29
ATOM     29  C   UNL     1      41.847  30.080  45.347  0.00  0.00    +0.000 A 
ATOM     30  C   UNL     1      42.779  29.511  46.198  0.00  0.00    +0.000 A 
ATOM     31  H   UNL     1      42.938  29.983  47.179  0.00  0.00    +0.000 HD
ATOM     32  C   UNL     1      43.549  28.381  45.935  0.00  0.00    +0.000 A 
ATOM     33  H   UNL     1      44.247  28.030  46.682  0.00  0.00    +0.000 HD
ATOM     34  C   UNL     1      43.331  27.800  44.687  0.00  0.00    +0.000 A 
ATOM     35  C   UNL     1      42.406  28.351  43.823  0.00  0.00    +0.000 A 
ATOM     36  N   UNL     1      41.699  29.447  44.151  0.00  0.00    +0.000 NA
ENDBRANCH  26  29
ENDBRANCH  23  26
ENDBRANCH   1  23
TORSDOF 5
