
 OpenBabel03272509243D

 23 24  0  0  0  0  0  0  0  0999 V2000
   37.7040   30.4640   47.7840 C   0  0  0  0  0  0  0  0  0  0  0  0
   38.2180   29.5210   47.4440 H   0  0  0  0  0  0  0  0  0  0  0  0
   36.8580   30.6820   47.1100 H   0  0  0  0  0  0  0  0  0  0  0  0
   37.2480   30.0780   51.5120 C   0  0  0  0  0  0  0  0  0  0  0  0
   37.8660   30.4640   50.3000 C   0  0  0  0  0  0  0  0  0  0  0  0
   37.1950   30.1350   49.1350 C   0  0  0  0  0  0  0  0  0  0  0  0
   36.0100   29.4760   49.2260 N   0  0  0  0  0  0  0  0  0  0  0  0
   35.4470   29.1220   50.3910 C   0  0  0  0  0  0  0  0  0  0  0  0
   36.0750   29.4270   51.5500 N   0  0  0  0  0  0  0  0  0  0  0  0
   37.7780   30.3370   52.4360 H   0  0  0  0  0  0  0  0  0  0  0  0
   38.8080   30.9850   50.2690 H   0  0  0  0  0  0  0  0  0  0  0  0
   34.5050   28.6040   50.3010 H   0  0  0  0  0  0  0  0  0  0  0  0
   38.6950   31.6070   47.8550 C   0  0  0  0  0  0  0  0  0  0  0  0
   38.2800   32.5120   48.2910 H   0  0  0  0  0  0  0  0  0  0  0  0
   39.5360   31.2720   48.5300 H   0  0  0  0  0  0  0  0  0  0  0  0
   39.3280   31.8430   46.5060 C   0  0  0  0  0  0  0  0  0  0  0  0
   39.6060   30.7570   45.6880 C   0  0  0  0  0  0  0  0  0  0  0  0
   39.3470   29.7750   46.0760 H   0  0  0  0  0  0  0  0  0  0  0  0
   40.1870   31.0000   44.4520 C   0  0  0  0  0  0  0  0  0  0  0  0
   40.3810   30.0980   43.8580 H   0  0  0  0  0  0  0  0  0  0  0  0
   40.4770   32.2990   44.0540 C   0  0  0  0  0  3  0  0  0  0  0  0
   40.1810   33.3410   44.9020 C   0  0  0  0  0  3  0  0  0  0  0  0
   39.6160   33.1160   46.1070 N   0  0  0  0  0  0  0  0  0  0  0  0
  1 13  1  0  0  0  0
  1  6  1  0  0  0  0
  2  1  1  0  0  0  0
  3  1  1  0  0  0  0
  4  9  1  0  0  0  0
  4 10  1  0  0  0  0
  5  4  2  0  0  0  0
  6  7  2  0  0  0  0
  6  5  1  0  0  0  0
  7  8  1  0  0  0  0
  8  9  2  0  0  0  0
 11  5  1  0  0  0  0
 12  8  1  0  0  0  0
 13 14  1  0  0  0  0
 13 15  1  0  0  0  0
 16 13  1  0  0  0  0
 17 18  1  0  0  0  0
 17 16  2  0  0  0  0
 19 17  1  0  0  0  0
 20 19  1  0  0  0  0
 21 19  2  0  0  0  0
 21 22  1  0  0  0  0
 22 23  2  0  0  0  0
 23 16  1  0  0  0  0
M  END
>  <minimizedAffinity>
-4.90828466

>  <minimizedRMSD>
1.40677679

$$$$
