
 OpenBabel03272509243D

 23 24  0  0  0  0  0  0  0  0999 V2000
   37.9750   30.5380   47.7130 C   0  0  0  0  0  0  0  0  0  0  0  0
   38.9200   29.9270   47.6520 H   0  0  0  0  0  0  0  0  0  0  0  0
   37.2810   30.2200   46.9160 H   0  0  0  0  0  0  0  0  0  0  0  0
   37.3110   30.1890   51.4130 C   0  0  0  0  0  0  0  0  0  0  0  0
   37.9750   30.5970   50.2340 C   0  0  0  0  0  0  0  0  0  0  0  0
   37.4060   30.1960   49.0370 C   0  0  0  0  0  0  0  0  0  0  0  0
   36.2700   29.4520   49.0700 N   0  0  0  0  0  0  0  0  0  0  0  0
   35.6620   29.0780   50.2050 C   0  0  0  0  0  0  0  0  0  0  0  0
   36.1890   29.4510   51.3930 N   0  0  0  0  0  0  0  0  0  0  0  0
   37.7600   30.5040   52.3630 H   0  0  0  0  0  0  0  0  0  0  0  0
   38.8750   31.1880   50.2500 H   0  0  0  0  0  0  0  0  0  0  0  0
   34.7680   28.4880   50.0690 H   0  0  0  0  0  0  0  0  0  0  0  0
   38.3000   32.0160   47.6420 C   0  0  0  0  0  0  0  0  0  0  0  0
   37.5090   32.6510   48.0330 H   0  0  0  0  0  0  0  0  0  0  0  0
   39.2100   32.1850   48.2880 H   0  0  0  0  0  0  0  0  0  0  0  0
   38.7200   32.3970   46.2440 C   0  0  0  0  0  0  0  0  0  0  0  0
   39.9900   32.9170   46.0350 C   0  0  0  0  0  0  0  0  0  0  0  0
   40.6240   33.0220   46.9120 H   0  0  0  0  0  0  0  0  0  0  0  0
   40.3530   33.2610   44.7420 C   0  0  0  0  0  0  0  0  0  0  0  0
   41.3680   33.6640   44.6480 H   0  0  0  0  0  0  0  0  0  0  0  0
   39.4600   33.0850   43.6890 C   0  0  0  0  0  3  0  0  0  0  0  0
   38.2130   32.5660   43.9500 C   0  0  0  0  0  3  0  0  0  0  0  0
   37.8510   32.2280   45.2060 N   0  0  0  0  0  0  0  0  0  0  0  0
  1  6  1  0  0  0  0
  2  1  1  0  0  0  0
  3  1  1  0  0  0  0
  4 10  1  0  0  0  0
  5 11  1  0  0  0  0
  5  4  2  0  0  0  0
  6  7  2  0  0  0  0
  6  5  1  0  0  0  0
  7  8  1  0  0  0  0
  8  9  2  0  0  0  0
  9  4  1  0  0  0  0
 12  8  1  0  0  0  0
 13  1  1  0  0  0  0
 13 14  1  0  0  0  0
 13 15  1  0  0  0  0
 16 13  1  0  0  0  0
 17 16  1  0  0  0  0
 17 18  1  0  0  0  0
 19 17  2  0  0  0  0
 20 19  1  0  0  0  0
 21 22  2  0  0  0  0
 21 19  1  0  0  0  0
 22 23  1  0  0  0  0
 23 16  2  0  0  0  0
M  END
>  <minimizedAffinity>
-5.22059107

>  <minimizedRMSD>
1.21632648

$$$$
