
 OpenBabel03272509243D

 23 24  0  0  0  0  0  0  0  0999 V2000
   37.5980   30.4230   47.7510 C   0  0  0  0  0  0  0  0  0  0  0  0
   38.0530   29.4580   47.3870 H   0  0  0  0  0  0  0  0  0  0  0  0
   36.7320   30.6810   47.1170 H   0  0  0  0  0  0  0  0  0  0  0  0
   37.2800   30.0840   51.4970 C   0  0  0  0  0  0  0  0  0  0  0  0
   37.8550   30.4500   50.2590 C   0  0  0  0  0  0  0  0  0  0  0  0
   37.1380   30.1140   49.1240 C   0  0  0  0  0  0  0  0  0  0  0  0
   35.9510   29.4660   49.2680 N   0  0  0  0  0  0  0  0  0  0  0  0
   35.4300   29.1310   50.4570 C   0  0  0  0  0  0  0  0  0  0  0  0
   36.1030   29.4430   51.5870 N   0  0  0  0  0  0  0  0  0  0  0  0
   37.8470   30.3490   52.3980 H   0  0  0  0  0  0  0  0  0  0  0  0
   38.7990   30.9630   50.1870 H   0  0  0  0  0  0  0  0  0  0  0  0
   34.4810   28.6200   50.4090 H   0  0  0  0  0  0  0  0  0  0  0  0
   38.6430   31.5190   47.7770 C   0  0  0  0  0  0  0  0  0  0  0  0
   38.2720   32.4600   48.1780 H   0  0  0  0  0  0  0  0  0  0  0  0
   39.4690   31.1720   48.4630 H   0  0  0  0  0  0  0  0  0  0  0  0
   39.2810   31.6730   46.4190 C   0  0  0  0  0  0  0  0  0  0  0  0
   39.8440   32.8930   46.0680 C   0  0  0  0  0  0  0  0  0  0  0  0
   39.7920   33.6850   46.8100 H   0  0  0  0  0  0  0  0  0  0  0  0
   40.4250   33.0090   44.8150 C   0  0  0  0  0  0  0  0  0  0  0  0
   40.8510   33.9990   44.6030 H   0  0  0  0  0  0  0  0  0  0  0  0
   40.4370   31.9290   43.9410 C   0  0  0  0  0  3  0  0  0  0  0  0
   39.8660   30.7430   44.3360 C   0  0  0  0  0  3  0  0  0  0  0  0
   39.2980   30.6180   45.5550 N   0  0  0  0  0  0  0  0  0  0  0  0
  1 13  1  0  0  0  0
  1  6  1  0  0  0  0
  2  1  1  0  0  0  0
  3  1  1  0  0  0  0
  4  9  1  0  0  0  0
  4 10  1  0  0  0  0
  5  4  2  0  0  0  0
  6  7  2  0  0  0  0
  6  5  1  0  0  0  0
  7  8  1  0  0  0  0
  8  9  2  0  0  0  0
 11  5  1  0  0  0  0
 12  8  1  0  0  0  0
 13 14  1  0  0  0  0
 13 15  1  0  0  0  0
 16 13  1  0  0  0  0
 17 16  1  0  0  0  0
 17 18  1  0  0  0  0
 19 17  2  0  0  0  0
 20 19  1  0  0  0  0
 21 22  2  0  0  0  0
 21 19  1  0  0  0  0
 22 23  1  0  0  0  0
 23 16  2  0  0  0  0
M  END
>  <minimizedAffinity>
-4.97892809

>  <minimizedRMSD>
1.64571035

$$$$
