
 OpenBabel03272510053D

 36 38  0  0  0  0  0  0  0  0999 V2000
   36.7610   25.7500   32.3620 C   0  0  0  0  0  0  0  0  0  0  0  0
   37.3420   26.2740   33.4930 C   0  0  0  0  0  0  0  0  0  0  0  0
   37.0930   27.5940   33.8340 C   0  0  0  0  0  0  0  0  0  0  0  0
   36.2810   28.4230   33.0860 C   0  0  0  0  0  0  0  0  0  0  0  0
   35.6910   27.9250   31.9520 C   0  0  0  0  0  0  0  0  0  0  0  0
   35.9490   26.6170   31.6320 C   0  0  0  0  0  0  0  0  0  0  0  0
   37.5670   27.9890   34.7410 H   0  0  0  0  0  0  0  0  0  0  0  0
   36.1560   29.4340   33.4460 H   0  0  0  0  0  0  0  0  0  0  0  0
   35.0630   28.6000   31.3920 H   0  0  0  0  0  0  0  0  0  0  0  0
   35.4270   26.3390   30.7100 H   0  0  0  0  0  0  0  0  0  0  0  0
   40.3340   24.4680   34.6320 C   0  0  0  0  0  0  0  0  0  0  0  0
   39.4630   25.2350   33.8650 C   0  0  0  0  0  0  0  0  0  0  0  0
   38.2140   25.4990   34.3080 C   0  0  0  0  0  0  0  0  0  0  0  0
   37.8580   24.9890   35.5260 N   0  0  0  0  0  0  0  0  0  0  0  0
   38.6940   24.2530   36.2700 C   0  0  0  0  0  0  0  0  0  0  0  0
   39.9250   23.9970   35.8150 N   0  0  0  0  0  0  0  0  0  0  0  0
   41.3440   24.1680   34.4300 H   0  0  0  0  0  0  0  0  0  0  0  0
   40.0400   25.5050   33.0140 H   0  0  0  0  0  0  0  0  0  0  0  0
   38.2010   23.8170   37.6030 C   0  0  0  0  0  0  0  0  0  0  0  0
   37.1690   22.9000   37.4970 F   0  0  0  0  0  0  0  0  0  0  0  0
   39.2450   23.0480   38.2460 F   0  0  0  0  0  0  0  0  0  0  0  0
   37.9270   24.7530   38.4830 F   0  0  0  0  0  0  0  0  0  0  0  0
   36.9580   24.1090   31.8640 S   0  0  0  0  0  0  0  0  0  0  0  0
   37.4840   24.0490   30.4800 O   0  0  0  0  0  0  0  0  0  0  0  0
   35.5200   23.8210   31.5200 O   0  0  0  0  0  0  0  0  0  0  0  0
   36.9250   22.7030   32.7960 C   0  0  0  0  0  0  0  0  0  0  0  0
   37.9310   22.6290   33.2720 H   0  0  0  0  0  0  0  0  0  0  0  0
   36.2850   22.9500   33.7050 H   0  0  0  0  0  0  0  0  0  0  0  0
   36.5490   21.3720   32.4240 C   0  0  0  0  0  0  0  0  0  0  0  0
   35.8160   20.5930   33.3030 C   0  0  0  0  0  0  0  0  0  0  0  0
   35.5420   21.0300   34.2750 H   0  0  0  0  0  0  0  0  0  0  0  0
   35.3810   19.2890   33.0780 C   0  0  0  0  0  0  0  0  0  0  0  0
   34.8130   18.7810   33.8440 H   0  0  0  0  0  0  0  0  0  0  0  0
   35.7390   18.7560   31.8410 C   0  0  0  0  0  3  0  0  0  0  0  0
   36.4700   19.5160   30.9490 C   0  0  0  0  0  3  0  0  0  0  0  0
   36.8530   20.7720   31.2410 N   0  0  0  0  0  0  0  0  0  0  0  0
  1  2  1  0  0  0  0
  2  3  2  0  0  0  0
  2 13  1  0  0  0  0
  3  7  1  0  0  0  0
  4  8  1  0  0  0  0
  4  3  1  0  0  0  0
  5  4  2  0  0  0  0
  6  5  1  0  0  0  0
  6  1  2  0  0  0  0
  9  5  1  0  0  0  0
 10  6  1  0  0  0  0
 11 16  1  0  0  0  0
 12 13  1  0  0  0  0
 12 11  2  0  0  0  0
 13 14  2  0  0  0  0
 14 15  1  0  0  0  0
 15 19  1  0  0  0  0
 16 15  2  0  0  0  0
 17 11  1  0  0  0  0
 18 12  1  0  0  0  0
 19 21  1  0  0  0  0
 19 22  1  0  0  0  0
 20 19  1  0  0  0  0
 23  1  1  0  0  0  0
 23 26  1  0  0  0  0
 24 23  2  0  0  0  0
 25 23  2  0  0  0  0
 26 27  1  0  0  0  0
 26 28  1  0  0  0  0
 29 26  1  0  0  0  0
 29 30  1  0  0  0  0
 30 31  1  0  0  0  0
 32 30  2  0  0  0  0
 32 33  1  0  0  0  0
 34 32  1  0  0  0  0
 35 36  1  0  0  0  0
 35 34  2  0  0  0  0
 36 29  2  0  0  0  0
M  END
>  <minimizedAffinity>
-6.30253506

$$$$

 OpenBabel03272510053D

 36 38  0  0  0  0  0  0  0  0999 V2000
   36.2180   22.2000   32.4060 C   0  0  0  0  0  0  0  0  0  0  0  0
   36.8130   21.3930   33.3480 C   0  0  0  0  0  0  0  0  0  0  0  0
   36.3580   20.0940   33.5120 C   0  0  0  0  0  0  0  0  0  0  0  0
   35.3240   19.5610   32.7700 C   0  0  0  0  0  0  0  0  0  0  0  0
   34.7120   20.3460   31.8260 C   0  0  0  0  0  0  0  0  0  0  0  0
   35.1760   21.6280   31.6780 C   0  0  0  0  0  0  0  0  0  0  0  0
   36.8500   19.4700   34.2680 H   0  0  0  0  0  0  0  0  0  0  0  0
   35.0520   18.5360   32.9810 H   0  0  0  0  0  0  0  0  0  0  0  0
   33.9070   19.8980   31.2660 H   0  0  0  0  0  0  0  0  0  0  0  0
   34.6090   22.1530   30.9010 H   0  0  0  0  0  0  0  0  0  0  0  0
   40.2000   22.2010   34.5270 C   0  0  0  0  0  0  0  0  0  0  0  0
   39.1440   21.7580   33.7370 C   0  0  0  0  0  0  0  0  0  0  0  0
   37.8700   21.8690   34.1740 C   0  0  0  0  0  0  0  0  0  0  0  0
   37.6740   22.4340   35.4030 N   0  0  0  0  0  0  0  0  0  0  0  0
   38.6860   22.8660   36.1660 C   0  0  0  0  0  0  0  0  0  0  0  0
   39.9410   22.7440   35.7220 N   0  0  0  0  0  0  0  0  0  0  0  0
   41.2550   22.1860   34.3350 H   0  0  0  0  0  0  0  0  0  0  0  0
   39.6150   21.4150   32.8480 H   0  0  0  0  0  0  0  0  0  0  0  0
   38.3280   23.5200   37.4530 C   0  0  0  0  0  0  0  0  0  0  0  0
   37.2440   22.9060   38.0590 F   0  0  0  0  0  0  0  0  0  0  0  0
   39.3970   23.2830   38.3980 F   0  0  0  0  0  0  0  0  0  0  0  0
   38.2040   24.8270   37.4540 F   0  0  0  0  0  0  0  0  0  0  0  0
   36.7290   23.8160   32.0780 S   0  0  0  0  0  0  0  0  0  0  0  0
   35.5900   24.6300   31.5920 O   0  0  0  0  0  0  0  0  0  0  0  0
   37.3570   23.5670   30.7320 O   0  0  0  0  0  0  0  0  0  0  0  0
   38.1690   24.5850   32.5090 C   0  0  0  0  0  0  0  0  0  0  0  0
   38.9270   23.7740   32.6170 H   0  0  0  0  0  0  0  0  0  0  0  0
   38.5440   25.0920   31.5610 H   0  0  0  0  0  0  0  0  0  0  0  0
   38.4200   25.5240   33.5610 C   0  0  0  0  0  0  0  0  0  0  0  0
   37.3640   26.2000   34.1470 C   0  0  0  0  0  0  0  0  0  0  0  0
   36.3490   25.9900   33.7790 H   0  0  0  0  0  0  0  0  0  0  0  0
   37.4570   27.1360   35.1740 C   0  0  0  0  0  0  0  0  0  0  0  0
   36.5570   27.6000   35.5510 H   0  0  0  0  0  0  0  0  0  0  0  0
   38.7520   27.3860   35.6250 C   0  0  0  0  0  3  0  0  0  0  0  0
   39.8200   26.7220   35.0550 C   0  0  0  0  0  3  0  0  0  0  0  0
   39.6480   25.8290   34.0630 N   0  0  0  0  0  0  0  0  0  0  0  0
  1  2  1  0  0  0  0
  2  3  2  0  0  0  0
  2 13  1  0  0  0  0
  3  7  1  0  0  0  0
  4  8  1  0  0  0  0
  4  3  1  0  0  0  0
  5  4  2  0  0  0  0
  6  5  1  0  0  0  0
  6  1  2  0  0  0  0
  9  5  1  0  0  0  0
 10  6  1  0  0  0  0
 11 16  1  0  0  0  0
 12 13  1  0  0  0  0
 12 11  2  0  0  0  0
 13 14  2  0  0  0  0
 14 15  1  0  0  0  0
 15 19  1  0  0  0  0
 16 15  2  0  0  0  0
 17 11  1  0  0  0  0
 18 12  1  0  0  0  0
 19 22  1  0  0  0  0
 19 20  1  0  0  0  0
 19 21  1  0  0  0  0
 23  1  1  0  0  0  0
 23 26  1  0  0  0  0
 24 23  2  0  0  0  0
 25 23  2  0  0  0  0
 26 27  1  0  0  0  0
 26 29  1  0  0  0  0
 28 26  1  0  0  0  0
 29 36  2  0  0  0  0
 29 30  1  0  0  0  0
 30 32  2  0  0  0  0
 31 30  1  0  0  0  0
 32 33  1  0  0  0  0
 32 34  1  0  0  0  0
 35 34  2  0  0  0  0
 36 35  1  0  0  0  0
M  END
>  <minimizedAffinity>
-6.235394

$$$$

 OpenBabel03272510053D

 36 38  0  0  0  0  0  0  0  0999 V2000
   39.0560   26.7390   33.4650 C   0  0  0  0  0  0  0  0  0  0  0  0
   38.8420   26.2080   32.2130 C   0  0  0  0  0  0  0  0  0  0  0  0
   39.8710   26.2240   31.2860 C   0  0  0  0  0  0  0  0  0  0  0  0
   41.1170   26.7520   31.5550 C   0  0  0  0  0  0  0  0  0  0  0  0
   41.3560   27.2890   32.7940 C   0  0  0  0  0  0  0  0  0  0  0  0
   40.3260   27.2640   33.6990 C   0  0  0  0  0  0  0  0  0  0  0  0
   39.6760   25.7940   30.2960 H   0  0  0  0  0  0  0  0  0  0  0  0
   41.8460   26.7100   30.7570 H   0  0  0  0  0  0  0  0  0  0  0  0
   42.3400   27.6940   32.9700 H   0  0  0  0  0  0  0  0  0  0  0  0
   40.6360   27.7220   34.6450 H   0  0  0  0  0  0  0  0  0  0  0  0
   35.4040   25.9850   30.9320 C   0  0  0  0  0  0  0  0  0  0  0  0
   36.6520   26.4820   31.2930 C   0  0  0  0  0  0  0  0  0  0  0  0
   37.5800   25.6660   31.8430 C   0  0  0  0  0  0  0  0  0  0  0  0
   37.2380   24.3540   32.0170 N   0  0  0  0  0  0  0  0  0  0  0  0
   36.0390   23.8700   31.6680 C   0  0  0  0  0  0  0  0  0  0  0  0
   35.1310   24.6900   31.1310 N   0  0  0  0  0  0  0  0  0  0  0  0
   34.5650   26.4890   30.4930 H   0  0  0  0  0  0  0  0  0  0  0  0
   36.6170   27.5030   30.9990 H   0  0  0  0  0  0  0  0  0  0  0  0
   35.8230   22.4100   31.8530 C   0  0  0  0  0  0  0  0  0  0  0  0
   35.9250   21.7180   30.6580 F   0  0  0  0  0  0  0  0  0  0  0  0
   36.9260   21.8800   32.6230 F   0  0  0  0  0  0  0  0  0  0  0  0
   34.7650   22.0370   32.5380 F   0  0  0  0  0  0  0  0  0  0  0  0
   37.8670   26.7320   34.7170 S   0  0  0  0  0  0  0  0  0  0  0  0
   36.9240   27.8610   34.5390 O   0  0  0  0  0  0  0  0  0  0  0  0
   38.7010   27.3670   35.7990 O   0  0  0  0  0  0  0  0  0  0  0  0
   37.5020   25.5190   35.8320 C   0  0  0  0  0  0  0  0  0  0  0  0
   36.9330   26.0180   36.6500 H   0  0  0  0  0  0  0  0  0  0  0  0
   36.6740   24.9000   35.3540 H   0  0  0  0  0  0  0  0  0  0  0  0
   38.3700   24.5660   36.4570 C   0  0  0  0  0  0  0  0  0  0  0  0
   38.1460   24.1890   37.7700 C   0  0  0  0  0  0  0  0  0  0  0  0
   37.2940   24.6420   38.2990 H   0  0  0  0  0  0  0  0  0  0  0  0
   38.9020   23.2780   38.5030 C   0  0  0  0  0  0  0  0  0  0  0  0
   38.6270   23.0640   39.5270 H   0  0  0  0  0  0  0  0  0  0  0  0
   39.9750   22.7170   37.8140 C   0  0  0  0  0  3  0  0  0  0  0  0
   40.2160   23.0780   36.5030 C   0  0  0  0  0  3  0  0  0  0  0  0
   39.4380   23.9680   35.8620 N   0  0  0  0  0  0  0  0  0  0  0  0
  1  6  1  0  0  0  0
  1 23  1  0  0  0  0
  2  1  2  0  0  0  0
  3  4  2  0  0  0  0
  3  2  1  0  0  0  0
  4  5  1  0  0  0  0
  5  9  1  0  0  0  0
  5  6  2  0  0  0  0
  6 10  1  0  0  0  0
  7  3  1  0  0  0  0
  8  4  1  0  0  0  0
 11 16  2  0  0  0  0
 11 12  1  0  0  0  0
 12 13  2  0  0  0  0
 13 14  1  0  0  0  0
 13  2  1  0  0  0  0
 15 19  1  0  0  0  0
 15 14  2  0  0  0  0
 16 15  1  0  0  0  0
 17 11  1  0  0  0  0
 18 12  1  0  0  0  0
 19 22  1  0  0  0  0
 19 21  1  0  0  0  0
 20 19  1  0  0  0  0
 23 25  2  0  0  0  0
 23 26  1  0  0  0  0
 24 23  2  0  0  0  0
 26 29  1  0  0  0  0
 26 27  1  0  0  0  0
 28 26  1  0  0  0  0
 29 30  1  0  0  0  0
 30 31  1  0  0  0  0
 30 32  2  0  0  0  0
 32 33  1  0  0  0  0
 34 32  1  0  0  0  0
 35 34  2  0  0  0  0
 36 29  2  0  0  0  0
 36 35  1  0  0  0  0
M  END
>  <minimizedAffinity>
-6.23136473

$$$$

 OpenBabel03272510053D

 36 38  0  0  0  0  0  0  0  0999 V2000
   37.8740   25.1470   33.9590 C   0  0  0  0  0  0  0  0  0  0  0  0
   38.0840   25.5010   35.2720 C   0  0  0  0  0  0  0  0  0  0  0  0
   37.8370   26.8050   35.6700 C   0  0  0  0  0  0  0  0  0  0  0  0
   37.3870   27.7820   34.8050 C   0  0  0  0  0  0  0  0  0  0  0  0
   37.1730   27.4550   33.4900 C   0  0  0  0  0  0  0  0  0  0  0  0
   37.4210   26.1600   33.1150 C   0  0  0  0  0  0  0  0  0  0  0  0
   38.0100   27.0620   36.7220 H   0  0  0  0  0  0  0  0  0  0  0  0
   37.2270   28.7650   35.2230 H   0  0  0  0  0  0  0  0  0  0  0  0
   36.8210   28.2430   32.8420 H   0  0  0  0  0  0  0  0  0  0  0  0
   37.2180   26.0240   32.0480 H   0  0  0  0  0  0  0  0  0  0  0  0
   38.3000   23.4240   38.2970 C   0  0  0  0  0  0  0  0  0  0  0  0
   37.8440   24.3230   37.3390 C   0  0  0  0  0  0  0  0  0  0  0  0
   38.5710   24.5630   36.2250 C   0  0  0  0  0  0  0  0  0  0  0  0
   39.7510   23.8860   36.0870 N   0  0  0  0  0  0  0  0  0  0  0  0
   40.1920   23.0150   37.0040 C   0  0  0  0  0  0  0  0  0  0  0  0
   39.4640   22.7930   38.1020 N   0  0  0  0  0  0  0  0  0  0  0  0
   37.8540   23.1240   39.2250 H   0  0  0  0  0  0  0  0  0  0  0  0
   36.9030   24.6440   37.7150 H   0  0  0  0  0  0  0  0  0  0  0  0
   41.4590   22.2990   36.6960 C   0  0  0  0  0  0  0  0  0  0  0  0
   42.5590   23.1350   36.7860 F   0  0  0  0  0  0  0  0  0  0  0  0
   41.7050   21.3360   37.7470 F   0  0  0  0  0  0  0  0  0  0  0  0
   41.4930   21.5720   35.6030 F   0  0  0  0  0  0  0  0  0  0  0  0
   38.1010   23.5440   33.3580 S   0  0  0  0  0  0  0  0  0  0  0  0
   39.2830   23.4890   32.4670 O   0  0  0  0  0  0  0  0  0  0  0  0
   37.0590   23.5810   32.2700 O   0  0  0  0  0  0  0  0  0  0  0  0
   37.3860   22.1040   33.8720 C   0  0  0  0  0  0  0  0  0  0  0  0
   38.0550   21.6980   34.6660 H   0  0  0  0  0  0  0  0  0  0  0  0
   36.4870   22.4130   34.5000 H   0  0  0  0  0  0  0  0  0  0  0  0
   36.9370   20.9840   33.1010 C   0  0  0  0  0  0  0  0  0  0  0  0
   35.6230   20.5610   33.2000 C   0  0  0  0  0  0  0  0  0  0  0  0
   34.9540   21.1100   33.8800 H   0  0  0  0  0  0  0  0  0  0  0  0
   35.0490   19.4940   32.5140 C   0  0  0  0  0  0  0  0  0  0  0  0
   34.0070   19.2590   32.6760 H   0  0  0  0  0  0  0  0  0  0  0  0
   35.9140   18.8130   31.6590 C   0  0  0  0  0  3  0  0  0  0  0  0
   37.2290   19.2180   31.5450 C   0  0  0  0  0  3  0  0  0  0  0  0
   37.7090   20.2620   32.2430 N   0  0  0  0  0  0  0  0  0  0  0  0
  1  2  1  0  0  0  0
  2  3  2  0  0  0  0
  2 13  1  0  0  0  0
  3  7  1  0  0  0  0
  4  8  1  0  0  0  0
  4  3  1  0  0  0  0
  5  4  2  0  0  0  0
  6  5  1  0  0  0  0
  6  1  2  0  0  0  0
  9  5  1  0  0  0  0
 10  6  1  0  0  0  0
 11 17  1  0  0  0  0
 12 18  1  0  0  0  0
 12 11  2  0  0  0  0
 13 12  1  0  0  0  0
 14 13  2  0  0  0  0
 14 15  1  0  0  0  0
 15 16  2  0  0  0  0
 16 11  1  0  0  0  0
 19 20  1  0  0  0  0
 19 15  1  0  0  0  0
 19 21  1  0  0  0  0
 22 19  1  0  0  0  0
 23 26  1  0  0  0  0
 23  1  1  0  0  0  0
 24 23  2  0  0  0  0
 25 23  2  0  0  0  0
 26 28  1  0  0  0  0
 26 27  1  0  0  0  0
 29 30  1  0  0  0  0
 29 26  1  0  0  0  0
 30 31  1  0  0  0  0
 32 33  1  0  0  0  0
 32 30  2  0  0  0  0
 34 32  1  0  0  0  0
 35 34  2  0  0  0  0
 35 36  1  0  0  0  0
 36 29  2  0  0  0  0
M  END
>  <minimizedAffinity>
-6.15260458

$$$$

 OpenBabel03272510053D

 36 38  0  0  0  0  0  0  0  0999 V2000
   38.3310   24.8730   35.9580 C   0  0  0  0  0  0  0  0  0  0  0  0
   38.3870   24.6900   34.5950 C   0  0  0  0  0  0  0  0  0  0  0  0
   38.4010   25.7980   33.7630 C   0  0  0  0  0  0  0  0  0  0  0  0
   38.3600   27.0940   34.2370 C   0  0  0  0  0  0  0  0  0  0  0  0
   38.3010   27.3030   35.5910 C   0  0  0  0  0  0  0  0  0  0  0  0
   38.2890   26.1950   36.3980 C   0  0  0  0  0  0  0  0  0  0  0  0
   38.4480   25.6270   32.6810 H   0  0  0  0  0  0  0  0  0  0  0  0
   38.3770   27.8830   33.4980 H   0  0  0  0  0  0  0  0  0  0  0  0
   38.2690   28.3280   35.9260 H   0  0  0  0  0  0  0  0  0  0  0  0
   38.2370   26.4890   37.4520 H   0  0  0  0  0  0  0  0  0  0  0  0
   39.6350   21.6110   33.0240 C   0  0  0  0  0  0  0  0  0  0  0  0
   39.5850   22.8740   33.6040 C   0  0  0  0  0  0  0  0  0  0  0  0
   38.4070   23.3890   34.0200 C   0  0  0  0  0  0  0  0  0  0  0  0
   37.2900   22.6170   33.8530 N   0  0  0  0  0  0  0  0  0  0  0  0
   37.3340   21.3990   33.3000 C   0  0  0  0  0  0  0  0  0  0  0  0
   38.5060   20.9060   32.8880 N   0  0  0  0  0  0  0  0  0  0  0  0
   40.4760   21.0630   32.6430 H   0  0  0  0  0  0  0  0  0  0  0  0
   40.6000   23.1880   33.6240 H   0  0  0  0  0  0  0  0  0  0  0  0
   36.0550   20.6420   33.2380 C   0  0  0  0  0  0  0  0  0  0  0  0
   36.2320   19.3710   32.7160 F   0  0  0  0  0  0  0  0  0  0  0  0
   35.6190   20.3720   34.5910 F   0  0  0  0  0  0  0  0  0  0  0  0
   35.0200   21.2450   32.6990 F   0  0  0  0  0  0  0  0  0  0  0  0
   38.3560   23.5720   37.0930 S   0  0  0  0  0  0  0  0  0  0  0  0
   37.0480   22.8770   37.1120 O   0  0  0  0  0  0  0  0  0  0  0  0
   38.1440   24.3840   38.3450 O   0  0  0  0  0  0  0  0  0  0  0  0
   39.6750   22.8710   37.8780 C   0  0  0  0  0  0  0  0  0  0  0  0
   39.9290   23.5570   38.7200 H   0  0  0  0  0  0  0  0  0  0  0  0
   39.2550   21.9840   38.4560 H   0  0  0  0  0  0  0  0  0  0  0  0
   40.9180   22.4100   37.3360 C   0  0  0  0  0  0  0  0  0  0  0  0
   41.6680   23.2460   36.5260 C   0  0  0  0  0  0  0  0  0  0  0  0
   41.2770   24.2540   36.3220 H   0  0  0  0  0  0  0  0  0  0  0  0
   42.8890   22.9360   35.9320 C   0  0  0  0  0  0  0  0  0  0  0  0
   43.3820   23.6750   35.3170 H   0  0  0  0  0  0  0  0  0  0  0  0
   43.3640   21.6540   36.2040 C   0  0  0  0  0  3  0  0  0  0  0  0
   42.6330   20.8050   37.0090 C   0  0  0  0  0  3  0  0  0  0  0  0
   41.4590   21.1790   37.5480 N   0  0  0  0  0  0  0  0  0  0  0  0
  1  6  1  0  0  0  0
  1 23  1  0  0  0  0
  2  1  2  0  0  0  0
  3  4  2  0  0  0  0
  3  2  1  0  0  0  0
  4  5  1  0  0  0  0
  5  9  1  0  0  0  0
  5  6  2  0  0  0  0
  6 10  1  0  0  0  0
  7  3  1  0  0  0  0
  8  4  1  0  0  0  0
 11 12  1  0  0  0  0
 12 18  1  0  0  0  0
 12 13  2  0  0  0  0
 13  2  1  0  0  0  0
 14 13  1  0  0  0  0
 15 14  2  0  0  0  0
 16 11  2  0  0  0  0
 16 15  1  0  0  0  0
 17 11  1  0  0  0  0
 19 15  1  0  0  0  0
 19 21  1  0  0  0  0
 20 19  1  0  0  0  0
 22 19  1  0  0  0  0
 23 24  2  0  0  0  0
 23 26  1  0  0  0  0
 23 25  2  0  0  0  0
 26 28  1  0  0  0  0
 26 27  1  0  0  0  0
 29 36  1  0  0  0  0
 29 26  1  0  0  0  0
 30 29  2  0  0  0  0
 31 30  1  0  0  0  0
 32 34  2  0  0  0  0
 32 30  1  0  0  0  0
 33 32  1  0  0  0  0
 34 35  1  0  0  0  0
 35 36  2  0  0  0  0
M  END
>  <minimizedAffinity>
-6.14674377

$$$$

 OpenBabel03272510053D

 36 38  0  0  0  0  0  0  0  0999 V2000
   36.9660   24.0400   32.4060 C   0  0  0  0  0  0  0  0  0  0  0  0
   37.0680   25.3900   32.6520 C   0  0  0  0  0  0  0  0  0  0  0  0
   36.2310   26.2660   31.9790 C   0  0  0  0  0  0  0  0  0  0  0  0
   35.2880   25.8490   31.0610 C   0  0  0  0  0  0  0  0  0  0  0  0
   35.1690   24.5080   30.7970 C   0  0  0  0  0  0  0  0  0  0  0  0
   36.0040   23.6570   31.4720 C   0  0  0  0  0  0  0  0  0  0  0  0
   36.3310   27.3370   32.1930 H   0  0  0  0  0  0  0  0  0  0  0  0
   34.6880   26.6190   30.5970 H   0  0  0  0  0  0  0  0  0  0  0  0
   34.4220   24.2180   30.0740 H   0  0  0  0  0  0  0  0  0  0  0  0
   35.8160   22.6200   31.1750 H   0  0  0  0  0  0  0  0  0  0  0  0
   38.5560   26.7300   35.7340 C   0  0  0  0  0  0  0  0  0  0  0  0
   37.6430   26.2080   34.8230 C   0  0  0  0  0  0  0  0  0  0  0  0
   38.0300   25.9090   33.5630 C   0  0  0  0  0  0  0  0  0  0  0  0
   39.3380   26.1340   33.2370 N   0  0  0  0  0  0  0  0  0  0  0  0
   40.2220   26.6320   34.1110 C   0  0  0  0  0  0  0  0  0  0  0  0
   39.8230   26.9280   35.3510 N   0  0  0  0  0  0  0  0  0  0  0  0
   38.4160   27.0200   36.7570 H   0  0  0  0  0  0  0  0  0  0  0  0
   36.7440   26.1190   35.3830 H   0  0  0  0  0  0  0  0  0  0  0  0
   41.6280   26.7650   33.6440 C   0  0  0  0  0  0  0  0  0  0  0  0
   41.8790   25.9790   32.5320 F   0  0  0  0  0  0  0  0  0  0  0  0
   41.8140   28.1060   33.1340 F   0  0  0  0  0  0  0  0  0  0  0  0
   42.5780   26.6470   34.5430 F   0  0  0  0  0  0  0  0  0  0  0  0
   37.9200   22.8510   33.2170 S   0  0  0  0  0  0  0  0  0  0  0  0
   39.2190   22.6730   32.5280 O   0  0  0  0  0  0  0  0  0  0  0  0
   37.2500   21.6260   32.6520 O   0  0  0  0  0  0  0  0  0  0  0  0
   37.6930   22.1640   34.7420 C   0  0  0  0  0  0  0  0  0  0  0  0
   36.5890   22.1080   34.8900 H   0  0  0  0  0  0  0  0  0  0  0  0
   37.9400   21.0590   34.6230 H   0  0  0  0  0  0  0  0  0  0  0  0
   38.2570   22.5410   36.0040 C   0  0  0  0  0  0  0  0  0  0  0  0
   37.4770   23.2030   36.9360 C   0  0  0  0  0  0  0  0  0  0  0  0
   36.4310   23.4220   36.6730 H   0  0  0  0  0  0  0  0  0  0  0  0
   37.8880   23.6280   38.1970 C   0  0  0  0  0  0  0  0  0  0  0  0
   37.1840   24.1380   38.8400 H   0  0  0  0  0  0  0  0  0  0  0  0
   39.2150   23.3400   38.5090 C   0  0  0  0  0  3  0  0  0  0  0  0
   40.0110   22.6800   37.5940 C   0  0  0  0  0  3  0  0  0  0  0  0
   39.5390   22.3010   36.3930 N   0  0  0  0  0  0  0  0  0  0  0  0
  1  2  1  0  0  0  0
  1 23  1  0  0  0  0
  2 13  1  0  0  0  0
  3  7  1  0  0  0  0
  3  2  2  0  0  0  0
  4  3  1  0  0  0  0
  5  4  2  0  0  0  0
  5  6  1  0  0  0  0
  6  1  2  0  0  0  0
  8  4  1  0  0  0  0
  9  5  1  0  0  0  0
 10  6  1  0  0  0  0
 11 17  1  0  0  0  0
 12 18  1  0  0  0  0
 12 11  2  0  0  0  0
 13 12  1  0  0  0  0
 14 13  2  0  0  0  0
 14 15  1  0  0  0  0
 15 16  2  0  0  0  0
 16 11  1  0  0  0  0
 19 15  1  0  0  0  0
 19 22  1  0  0  0  0
 20 19  1  0  0  0  0
 21 19  1  0  0  0  0
 23 26  1  0  0  0  0
 24 23  2  0  0  0  0
 25 23  2  0  0  0  0
 26 27  1  0  0  0  0
 26 29  1  0  0  0  0
 28 26  1  0  0  0  0
 29 36  2  0  0  0  0
 29 30  1  0  0  0  0
 30 32  2  0  0  0  0
 31 30  1  0  0  0  0
 32 34  1  0  0  0  0
 32 33  1  0  0  0  0
 35 34  2  0  0  0  0
 36 35  1  0  0  0  0
M  END
>  <minimizedAffinity>
-5.93923521

$$$$

 OpenBabel03272510053D

 36 38  0  0  0  0  0  0  0  0999 V2000
   38.0020   22.3570   32.4330 C   0  0  0  0  0  0  0  0  0  0  0  0
   37.2100   23.4520   32.1750 C   0  0  0  0  0  0  0  0  0  0  0  0
   35.9500   23.2640   31.6310 C   0  0  0  0  0  0  0  0  0  0  0  0
   35.4400   22.0170   31.3290 C   0  0  0  0  0  0  0  0  0  0  0  0
   36.2110   20.9090   31.5750 C   0  0  0  0  0  0  0  0  0  0  0  0
   37.4550   21.1150   32.1130 C   0  0  0  0  0  0  0  0  0  0  0  0
   35.3370   24.1520   31.4360 H   0  0  0  0  0  0  0  0  0  0  0  0
   34.4450   21.9870   30.9100 H   0  0  0  0  0  0  0  0  0  0  0  0
   35.7820   19.9510   31.3260 H   0  0  0  0  0  0  0  0  0  0  0  0
   37.9720   20.1610   32.2590 H   0  0  0  0  0  0  0  0  0  0  0  0
   38.4920   26.8500   31.6090 C   0  0  0  0  0  0  0  0  0  0  0  0
   38.0280   25.5570   31.3900 C   0  0  0  0  0  0  0  0  0  0  0  0
   37.6660   24.7760   32.4320 C   0  0  0  0  0  0  0  0  0  0  0  0
   37.7690   25.3120   33.6850 N   0  0  0  0  0  0  0  0  0  0  0  0
   38.2100   26.5570   33.9010 C   0  0  0  0  0  0  0  0  0  0  0  0
   38.5700   27.3160   32.8610 N   0  0  0  0  0  0  0  0  0  0  0  0
   38.8170   27.5910   30.9050 H   0  0  0  0  0  0  0  0  0  0  0  0
   38.0310   25.4590   30.3320 H   0  0  0  0  0  0  0  0  0  0  0  0
   38.2100   27.0370   35.3090 C   0  0  0  0  0  0  0  0  0  0  0  0
   37.8260   26.0430   36.1930 F   0  0  0  0  0  0  0  0  0  0  0  0
   39.5770   27.3010   35.7010 F   0  0  0  0  0  0  0  0  0  0  0  0
   37.5960   28.1710   35.5610 F   0  0  0  0  0  0  0  0  0  0  0  0
   39.5680   22.4640   33.1520 S   0  0  0  0  0  0  0  0  0  0  0  0
   40.5110   23.1510   32.2370 O   0  0  0  0  0  0  0  0  0  0  0  0
   40.0280   21.0600   32.8590 O   0  0  0  0  0  0  0  0  0  0  0  0
   40.0250   22.1850   34.7520 C   0  0  0  0  0  0  0  0  0  0  0  0
   40.2220   21.0900   34.8270 H   0  0  0  0  0  0  0  0  0  0  0  0
   41.0850   22.5910   34.8460 H   0  0  0  0  0  0  0  0  0  0  0  0
   39.3690   22.5680   35.9670 C   0  0  0  0  0  0  0  0  0  0  0  0
   37.9880   22.6560   36.0050 C   0  0  0  0  0  0  0  0  0  0  0  0
   37.4310   22.4240   35.0850 H   0  0  0  0  0  0  0  0  0  0  0  0
   37.2180   23.0120   37.1090 C   0  0  0  0  0  0  0  0  0  0  0  0
   36.1420   23.0460   37.0150 H   0  0  0  0  0  0  0  0  0  0  0  0
   37.9450   23.3010   38.2620 C   0  0  0  0  0  3  0  0  0  0  0  0
   39.3230   23.2200   38.2470 C   0  0  0  0  0  3  0  0  0  0  0  0
   39.9960   22.8670   37.1370 N   0  0  0  0  0  0  0  0  0  0  0  0
  1 23  1  0  0  0  0
  2 13  1  0  0  0  0
  2  1  1  0  0  0  0
  3  2  2  0  0  0  0
  4  5  2  0  0  0  0
  4  3  1  0  0  0  0
  5  6  1  0  0  0  0
  6 10  1  0  0  0  0
  6  1  2  0  0  0  0
  7  3  1  0  0  0  0
  8  4  1  0  0  0  0
  9  5  1  0  0  0  0
 11 16  1  0  0  0  0
 12 11  2  0  0  0  0
 12 13  1  0  0  0  0
 13 14  2  0  0  0  0
 14 15  1  0  0  0  0
 15 19  1  0  0  0  0
 16 15  2  0  0  0  0
 17 11  1  0  0  0  0
 18 12  1  0  0  0  0
 19 22  1  0  0  0  0
 19 21  1  0  0  0  0
 19 20  1  0  0  0  0
 23 26  1  0  0  0  0
 24 23  2  0  0  0  0
 25 23  2  0  0  0  0
 26 27  1  0  0  0  0
 26 28  1  0  0  0  0
 26 29  1  0  0  0  0
 29 30  2  0  0  0  0
 29 36  1  0  0  0  0
 30 32  1  0  0  0  0
 31 30  1  0  0  0  0
 32 34  2  0  0  0  0
 33 32  1  0  0  0  0
 35 34  1  0  0  0  0
 36 35  2  0  0  0  0
M  END
>  <minimizedAffinity>
-5.64950752

$$$$

 OpenBabel03272510053D

 36 38  0  0  0  0  0  0  0  0999 V2000
   41.4040   24.7530   35.0260 C   0  0  0  0  0  0  0  0  0  0  0  0
   41.0700   23.6890   35.8320 C   0  0  0  0  0  0  0  0  0  0  0  0
   42.0650   23.0410   36.5470 C   0  0  0  0  0  0  0  0  0  0  0  0
   43.3930   23.4120   36.4910 C   0  0  0  0  0  0  0  0  0  0  0  0
   43.7530   24.4680   35.6930 C   0  0  0  0  0  0  0  0  0  0  0  0
   42.7550   25.0970   34.9940 C   0  0  0  0  0  0  0  0  0  0  0  0
   41.7730   22.1960   37.1830 H   0  0  0  0  0  0  0  0  0  0  0  0
   44.0840   22.8370   37.0910 H   0  0  0  0  0  0  0  0  0  0  0  0
   44.7990   24.7300   35.6730 H   0  0  0  0  0  0  0  0  0  0  0  0
   43.1650   25.9170   34.3950 H   0  0  0  0  0  0  0  0  0  0  0  0
   37.7370   22.9740   37.2090 C   0  0  0  0  0  0  0  0  0  0  0  0
   39.0450   23.4300   37.0780 C   0  0  0  0  0  0  0  0  0  0  0  0
   39.7290   23.2230   35.9300 C   0  0  0  0  0  0  0  0  0  0  0  0
   39.0800   22.5640   34.9220 N   0  0  0  0  0  0  0  0  0  0  0  0
   37.8200   22.1270   35.0420 C   0  0  0  0  0  0  0  0  0  0  0  0
   37.1600   22.3340   36.1850 N   0  0  0  0  0  0  0  0  0  0  0  0
   37.0640   23.0520   38.0400 H   0  0  0  0  0  0  0  0  0  0  0  0
   39.2390   23.9230   37.9990 H   0  0  0  0  0  0  0  0  0  0  0  0
   37.2150   21.4830   33.8460 C   0  0  0  0  0  0  0  0  0  0  0  0
   36.0690   20.7730   34.1670 F   0  0  0  0  0  0  0  0  0  0  0  0
   36.7110   22.5220   32.9750 F   0  0  0  0  0  0  0  0  0  0  0  0
   38.0100   20.7890   33.0650 F   0  0  0  0  0  0  0  0  0  0  0  0
   40.2470   25.6660   34.1280 S   0  0  0  0  0  0  0  0  0  0  0  0
   40.5930   25.6630   32.6870 O   0  0  0  0  0  0  0  0  0  0  0  0
   40.7820   27.0400   34.4360 O   0  0  0  0  0  0  0  0  0  0  0  0
   38.7370   26.2420   34.6140 C   0  0  0  0  0  0  0  0  0  0  0  0
   38.1320   25.3380   34.8620 H   0  0  0  0  0  0  0  0  0  0  0  0
   38.8920   26.6760   35.6550 H   0  0  0  0  0  0  0  0  0  0  0  0
   37.8550   27.1570   33.9530 C   0  0  0  0  0  0  0  0  0  0  0  0
   36.9040   27.8460   34.6860 C   0  0  0  0  0  0  0  0  0  0  0  0
   36.8560   27.6650   35.7700 H   0  0  0  0  0  0  0  0  0  0  0  0
   35.9850   28.7630   34.1820 C   0  0  0  0  0  0  0  0  0  0  0  0
   35.2870   29.2400   34.8560 H   0  0  0  0  0  0  0  0  0  0  0  0
   36.0640   28.9770   32.8070 C   0  0  0  0  0  3  0  0  0  0  0  0
   37.0060   28.3010   32.0570 C   0  0  0  0  0  3  0  0  0  0  0  0
   37.8610   27.4280   32.6190 N   0  0  0  0  0  0  0  0  0  0  0  0
  1  2  1  0  0  0  0
  2 13  1  0  0  0  0
  2  3  2  0  0  0  0
  3  7  1  0  0  0  0
  4  3  1  0  0  0  0
  4  8  1  0  0  0  0
  5  4  2  0  0  0  0
  6  1  2  0  0  0  0
  6  5  1  0  0  0  0
  9  5  1  0  0  0  0
 10  6  1  0  0  0  0
 11 17  1  0  0  0  0
 12 11  1  0  0  0  0
 12 18  1  0  0  0  0
 13 12  2  0  0  0  0
 14 15  2  0  0  0  0
 14 13  1  0  0  0  0
 15 16  1  0  0  0  0
 16 11  2  0  0  0  0
 19 20  1  0  0  0  0
 19 15  1  0  0  0  0
 21 19  1  0  0  0  0
 22 19  1  0  0  0  0
 23 25  2  0  0  0  0
 23 26  1  0  0  0  0
 23  1  1  0  0  0  0
 24 23  2  0  0  0  0
 26 27  1  0  0  0  0
 26 28  1  0  0  0  0
 29 26  1  0  0  0  0
 29 30  1  0  0  0  0
 30 31  1  0  0  0  0
 32 30  2  0  0  0  0
 32 33  1  0  0  0  0
 34 32  1  0  0  0  0
 35 36  1  0  0  0  0
 35 34  2  0  0  0  0
 36 29  2  0  0  0  0
M  END
>  <minimizedAffinity>
-5.57359743

$$$$

 OpenBabel03272510053D

 36 38  0  0  0  0  0  0  0  0999 V2000
   41.5570   25.0380   34.0370 C   0  0  0  0  0  0  0  0  0  0  0  0
   41.3960   23.8410   34.6970 C   0  0  0  0  0  0  0  0  0  0  0  0
   42.4870   23.0020   34.8530 C   0  0  0  0  0  0  0  0  0  0  0  0
   43.7450   23.3070   34.3730 C   0  0  0  0  0  0  0  0  0  0  0  0
   43.9310   24.4930   33.7100 C   0  0  0  0  0  0  0  0  0  0  0  0
   42.8400   25.3110   33.5660 C   0  0  0  0  0  0  0  0  0  0  0  0
   42.3340   22.0540   35.3830 H   0  0  0  0  0  0  0  0  0  0  0  0
   44.5230   22.5790   34.5530 H   0  0  0  0  0  0  0  0  0  0  0  0
   44.9260   24.6990   33.3480 H   0  0  0  0  0  0  0  0  0  0  0  0
   43.1130   26.2200   33.0200 H   0  0  0  0  0  0  0  0  0  0  0  0
   38.0550   22.3170   34.8630 C   0  0  0  0  0  0  0  0  0  0  0  0
   39.3060   22.7170   34.4040 C   0  0  0  0  0  0  0  0  0  0  0  0
   40.1290   23.4350   35.2010 C   0  0  0  0  0  0  0  0  0  0  0  0
   39.6810   23.7380   36.4570 N   0  0  0  0  0  0  0  0  0  0  0  0
   38.4790   23.3520   36.9040 C   0  0  0  0  0  0  0  0  0  0  0  0
   37.6750   22.6460   36.1030 N   0  0  0  0  0  0  0  0  0  0  0  0
   37.2900   21.7520   34.3660 H   0  0  0  0  0  0  0  0  0  0  0  0
   39.3670   22.3010   33.4280 H   0  0  0  0  0  0  0  0  0  0  0  0
   38.1440   23.6930   38.3130 C   0  0  0  0  0  0  0  0  0  0  0  0
   37.2170   22.8160   38.8500 F   0  0  0  0  0  0  0  0  0  0  0  0
   39.3150   23.4560   39.1300 F   0  0  0  0  0  0  0  0  0  0  0  0
   37.8360   24.9420   38.5760 F   0  0  0  0  0  0  0  0  0  0  0  0
   40.2840   26.1850   33.8240 S   0  0  0  0  0  0  0  0  0  0  0  0
   40.8040   27.4220   33.1960 O   0  0  0  0  0  0  0  0  0  0  0  0
   40.2370   26.7090   35.2350 O   0  0  0  0  0  0  0  0  0  0  0  0
   38.6160   25.9590   33.9460 C   0  0  0  0  0  0  0  0  0  0  0  0
   38.4340   24.8900   33.6840 H   0  0  0  0  0  0  0  0  0  0  0  0
   38.3880   25.9380   35.0610 H   0  0  0  0  0  0  0  0  0  0  0  0
   37.5490   26.7130   33.3590 C   0  0  0  0  0  0  0  0  0  0  0  0
   37.0040   27.7840   34.0470 C   0  0  0  0  0  0  0  0  0  0  0  0
   37.4160   28.0240   35.0380 H   0  0  0  0  0  0  0  0  0  0  0  0
   35.9700   28.6040   33.6030 C   0  0  0  0  0  0  0  0  0  0  0  0
   35.6280   29.4130   34.2330 H   0  0  0  0  0  0  0  0  0  0  0  0
   35.4640   28.2810   32.3450 C   0  0  0  0  0  3  0  0  0  0  0  0
   35.9930   27.2170   31.6420 C   0  0  0  0  0  3  0  0  0  0  0  0
   36.9950   26.4710   32.1400 N   0  0  0  0  0  0  0  0  0  0  0  0
  1  2  1  0  0  0  0
  2  3  2  0  0  0  0
  2 13  1  0  0  0  0
  3  7  1  0  0  0  0
  4  8  1  0  0  0  0
  4  3  1  0  0  0  0
  5  4  2  0  0  0  0
  6  5  1  0  0  0  0
  6  1  2  0  0  0  0
  9  5  1  0  0  0  0
 10  6  1  0  0  0  0
 11 16  1  0  0  0  0
 12 11  2  0  0  0  0
 12 13  1  0  0  0  0
 13 14  2  0  0  0  0
 14 15  1  0  0  0  0
 15 19  1  0  0  0  0
 16 15  2  0  0  0  0
 17 11  1  0  0  0  0
 18 12  1  0  0  0  0
 19 22  1  0  0  0  0
 19 20  1  0  0  0  0
 19 21  1  0  0  0  0
 23 26  1  0  0  0  0
 23  1  1  0  0  0  0
 23 25  2  0  0  0  0
 24 23  2  0  0  0  0
 26 28  1  0  0  0  0
 27 26  1  0  0  0  0
 29 26  1  0  0  0  0
 29 30  1  0  0  0  0
 30 31  1  0  0  0  0
 32 30  2  0  0  0  0
 32 33  1  0  0  0  0
 34 32  1  0  0  0  0
 35 36  1  0  0  0  0
 35 34  2  0  0  0  0
 36 29  2  0  0  0  0
M  END
>  <minimizedAffinity>
-5.56023884

$$$$
