
 OpenBabel03262521513D

 21 22  0  0  0  0  0  0  0  0999 V2000
   37.1020   31.7140   48.5600 C   0  0  0  0  0  0  0  0  0  0  0  0
   36.5630   32.2120   47.7020 H   0  0  0  0  0  0  0  0  0  0  0  0
   37.2390   32.4850   49.3200 H   0  0  0  0  0  0  0  0  0  0  0  0
   36.2330   30.6060   49.0410 C   0  0  0  0  0  0  0  0  0  0  0  0
   35.5680   29.9390   48.0040 C   0  0  0  0  0  0  0  0  0  0  0  0
   35.6870   30.2170   46.9520 H   0  0  0  0  0  0  0  0  0  0  0  0
   34.6890   28.8640   48.1530 C   0  0  0  0  0  0  0  0  0  0  0  0
   34.2050   28.3830   47.3400 H   0  0  0  0  0  0  0  0  0  0  0  0
   34.4860   28.4520   49.4740 C   0  0  0  0  0  0  0  0  0  0  0  0
   35.1500   29.1220   50.4800 C   0  0  0  0  0  0  0  0  0  0  0  0
   36.0000   30.1700   50.2760 N   0  0  0  0  0  0  0  0  0  0  0  0
   38.7380   31.1400   48.0540 S   0  0  0  0  0  0  0  0  0  0  0  0
   38.9960   31.6350   46.3610 C   0  0  0  0  0  0  0  0  0  0  0  0
   40.2300   31.2360   45.8390 C   0  0  0  0  0  0  0  0  0  0  0  0
   40.5240   31.5840   44.5110 C   0  0  0  0  0  0  0  0  0  0  0  0
   39.6150   32.2850   43.7890 N   0  0  0  0  0  0  0  0  0  0  0  0
   38.4320   32.6440   44.3500 C   0  0  0  0  0  0  0  0  0  0  0  0
   38.1300   32.3270   45.6010 N   0  0  0  0  0  0  0  0  0  0  0  0
   41.0160   30.6790   46.3260 H   0  0  0  0  0  0  0  0  0  0  0  0
   41.4620   31.3040   44.0530 H   0  0  0  0  0  0  0  0  0  0  0  0
   37.7780   33.2000   43.6920 H   0  0  0  0  0  0  0  0  0  0  0  0
  1  4  1  0  0  0  0
  1  3  1  0  0  0  0
  2  1  1  0  0  0  0
  4 11  1  0  0  0  0
  5  7  1  0  0  0  0
  5  4  2  0  0  0  0
  6  5  1  0  0  0  0
  7  9  2  0  0  0  0
  8  7  1  0  0  0  0
  9 10  1  0  0  0  0
 11 10  2  0  0  0  0
 12  1  1  0  0  0  0
 13 12  1  0  0  0  0
 14 19  1  0  0  0  0
 14 13  1  0  0  0  0
 15 14  2  0  0  0  0
 16 17  2  0  0  0  0
 16 15  1  0  0  0  0
 17 18  1  0  0  0  0
 18 13  2  0  0  0  0
 20 15  1  0  0  0  0
 21 17  1  0  0  0  0
M  END
>  <minimizedAffinity>
-4.16993999

>  <minimizedRMSD>
3.5765698

$$$$
