
     RDKit          3D

 25 26  0  0  0  0  0  0  0  0999 V2000
   37.3805   30.2326   51.3945 C   0  0  0  0  0  0  0  0  0  0  0  0
   38.0849   30.9088   50.3726 C   0  0  0  0  0  0  0  0  0  0  0  0
   37.7217   30.6079   49.0723 C   0  0  0  0  0  0  0  0  0  0  0  0
   36.7324   29.7014   48.8622 N   0  0  0  0  0  0  0  0  0  0  0  0
   36.0800   29.0740   49.8524 C   0  0  0  0  0  0  0  0  0  0  0  0
   36.4080   29.3427   51.1361 N   0  0  0  0  0  0  0  0  0  0  0  0
   38.3615   31.2257   47.8867 C   0  0  0  0  0  0  0  0  0  0  0  0
   38.7570   32.6571   48.1852 C   0  0  0  0  0  0  0  0  0  0  0  0
   37.6664   30.4691   52.4270 H   0  0  0  0  0  0  0  0  0  0  0  0
   38.8649   31.6219   50.5806 H   0  0  0  0  0  0  0  0  0  0  0  0
   35.3187   28.3807   49.5270 H   0  0  0  0  0  0  0  0  0  0  0  0
   39.2777   30.5958   47.7073 H   0  0  0  0  0  0  0  0  0  0  0  0
   37.6865   31.1473   47.0175 H   0  0  0  0  0  0  0  0  0  0  0  0
   37.9437   33.2538   48.5913 H   0  0  0  0  0  0  0  0  0  0  0  0
   39.5642   32.6192   48.9732 H   0  0  0  0  0  0  0  0  0  0  0  0
   39.4005   33.2895   46.9760 C   0  0  0  0  0  0  0  0  0  0  0  0
   40.1072   32.4903   46.0882 C   0  0  0  0  0  0  0  0  0  0  0  0
   40.1577   31.4298   46.3204 H   0  0  0  0  0  0  0  0  0  0  0  0
   40.6896   33.0946   44.9844 C   0  0  0  0  0  0  0  0  0  0  0  0
   41.2325   32.4057   44.3243 H   0  0  0  0  0  0  0  0  0  0  0  0
   40.5631   34.4642   44.7819 C   0  0  0  0  0  0  0  0  0  0  0  0
   39.8523   35.2107   45.6920 C   0  0  0  0  0  0  0  0  0  0  0  0
   39.2814   34.6326   46.7697 N   0  0  0  0  0  0  0  0  0  0  0  0
   41.0460   34.8586   43.8984 H   0  0  0  0  0  0  0  0  0  0  0  0
   39.7686   36.2850   45.5085 H   0  0  0  0  0  0  0  0  0  0  0  0
  2  1  2  0
  3  2  1  0
  4  3  2  0
  4  5  1  0
  5  6  2  0
  6  1  1  0
  7  8  1  0
  7  3  1  0
  1  9  1  0
  2 10  1  0
  5 11  1  0
  7 12  1  0
  7 13  1  0
  8 14  1  0
  8 15  1  0
 16 17  2  0
 17 18  1  0
 17 19  1  0
 19 20  1  0
 19 21  2  0
 21 22  1  0
 22 23  2  0
 23 16  1  0
 21 24  1  0
 22 25  1  0
  8 16  1  0
M  ISO  8   9  14  10  14  11  14  12   8  13   8  14   8  15   8  18  15
M  ISO  1  20  16
M  END
>  <DihAtoms>  (1) 
6,7,15,16

>  <DihDeg>  (1) 
89.99985777602167

$$$$
