
 OpenBabel03272510003D

 20 21  0  0  0  0  0  0  0  0999 V2000
   38.3310   31.6210   50.0760 C   0  0  0  0  0  0  0  0  0  0  0  0
   38.5930   31.7500   48.7060 C   0  0  0  0  0  0  0  0  0  0  0  0
   37.7650   31.0690   47.8260 C   0  0  0  0  0  0  0  0  0  0  0  0
   36.7490   30.3210   48.3380 N   0  0  0  0  0  0  0  0  0  0  0  0
   36.5300   30.2240   49.6620 C   0  0  0  0  0  0  0  0  0  0  0  0
   37.3220   30.8750   50.5130 N   0  0  0  0  0  0  0  0  0  0  0  0
   39.0080   32.1740   50.7170 H   0  0  0  0  0  0  0  0  0  0  0  0
   39.4120   32.3550   48.3420 H   0  0  0  0  0  0  0  0  0  0  0  0
   37.9860   31.1620   46.3860 C   0  0  0  0  0  0  0  0  0  0  0  0
   38.0640   30.0000   45.6490 C   0  0  0  0  0  0  0  0  0  0  0  0
   37.9670   29.0350   46.1050 H   0  0  0  0  0  0  0  0  0  0  0  0
   38.2760   30.1890   44.2940 C   0  0  0  0  0  0  0  0  0  0  0  0
   38.3470   29.3110   43.6560 H   0  0  0  0  0  0  0  0  0  0  0  0
   38.3880   31.4510   43.8040 C   0  0  0  0  0  3  0  0  0  0  0  0
   38.3070   32.6100   44.5580 C   0  0  0  0  0  3  0  0  0  0  0  0
   38.1020   32.3960   45.8650 N   0  0  0  0  0  0  0  0  0  0  0  0
   35.3950   29.3820   50.1230 C   0  0  0  0  0  0  0  0  0  0  0  0
   35.4430   29.1200   51.4720 F   0  0  0  0  0  0  0  0  0  0  0  0
   34.1730   30.0410   49.9010 F   0  0  0  0  0  0  0  0  0  0  0  0
   35.2890   28.1930   49.4640 F   0  0  0  0  0  0  0  0  0  0  0  0
  1  6  1  0  0  0  0
  1  7  1  0  0  0  0
  2  1  2  0  0  0  0
  3  4  2  0  0  0  0
  3  2  1  0  0  0  0
  4  5  1  0  0  0  0
  5 17  1  0  0  0  0
  5  6  2  0  0  0  0
  8  2  1  0  0  0  0
  9  3  1  0  0  0  0
 10 11  1  0  0  0  0
 10  9  2  0  0  0  0
 12 10  1  0  0  0  0
 13 12  1  0  0  0  0
 14 12  2  0  0  0  0
 14 15  1  0  0  0  0
 15 16  2  0  0  0  0
 16  9  1  0  0  0  0
 17 18  1  0  0  0  0
 19 17  1  0  0  0  0
 20 17  1  0  0  0  0
M  END
>  <minimizedAffinity>
-4.94682837

>  <minimizedRMSD>
0.900289536

$$$$
