REMARK  Name = 
REMARK  2 active torsions:
REMARK  status: ('A' for Active; 'I' for Inactive)
REMARK    1  A    between atoms: C_3  and  C_13
REMARK    2  A    between atoms: C_5  and  C_7
REMARK                            x       y       z     vdW  Elec       q    Type
REMARK                         _______ _______ _______ _____ _____    ______ ____
ROOT
ATOM      1  C   UNL     1      38.300  31.241  50.121  0.00  0.00    +0.000 A 
ATOM      2  C   UNL     1      38.291  31.617  48.772  0.00  0.00    +0.000 A 
ATOM      3  C   UNL     1      37.207  31.224  48.002  0.00  0.00    +0.000 A 
ATOM      4  N   UNL     1      36.218  30.501  48.595  0.00  0.00    +0.000 NA
ATOM      5  C   UNL     1      36.264  30.159  49.896  0.00  0.00    +0.000 A 
ATOM      6  N   UNL     1      37.303  30.534  50.642  0.00  0.00    +0.000 NA
ATOM      7  H   UNL     1      39.170  31.575  50.675  0.00  0.00    +0.000 HD
ATOM      8  H   UNL     1      39.099  32.192  48.341  0.00  0.00    +0.000 HD
ENDROOT
BRANCH   3   9
ATOM      9  C   UNL     1      37.139  31.584  46.589  0.00  0.00    +0.000 A 
ATOM     10  C   UNL     1      36.233  30.933  45.780  0.00  0.00    +0.000 A 
ATOM     11  H   UNL     1      35.581  30.174  46.161  0.00  0.00    +0.000 HD
ATOM     12  C   UNL     1      36.242  31.343  44.457  0.00  0.00    +0.000 A 
ATOM     13  H   UNL     1      35.550  30.868  43.765  0.00  0.00    +0.000 HD
ATOM     14  C   UNL     1      37.106  32.315  44.064  0.00  0.00    +0.000 A 
ATOM     15  C   UNL     1      38.011  32.959  44.890  0.00  0.00    +0.000 A 
ATOM     16  N   UNL     1      37.980  32.543  46.163  0.00  0.00    +0.000 NA
ENDBRANCH   3   9
BRANCH   5  17
ATOM     17  C   UNL     1      35.135  29.368  50.451  0.00  0.00    +0.000 C 
ATOM     18  F   UNL     1      35.267  29.130  51.799  0.00  0.00    +0.000 F 
ATOM     19  F   UNL     1      33.924  30.067  50.300  0.00  0.00    +0.000 F 
ATOM     20  F   UNL     1      34.941  28.172  49.826  0.00  0.00    +0.000 F 
ENDBRANCH   5  17
TORSDOF 2
