
     RDKit          3D

 22 23  0  0  0  0  0  0  0  0999 V2000
   38.3002   31.2414   50.1213 C   0  0  0  0  0  0  0  0  0  0  0  0
   38.2914   31.6166   48.7724 C   0  0  0  0  0  0  0  0  0  0  0  0
   37.2068   31.2236   48.0018 C   0  0  0  0  0  0  0  0  0  0  0  0
   36.2184   30.5006   48.5948 N   0  0  0  0  0  0  0  0  0  0  0  0
   36.2636   30.1594   49.8957 C   0  0  0  0  0  0  0  0  0  0  0  0
   37.3028   30.5337   50.6421 N   0  0  0  0  0  0  0  0  0  0  0  0
   35.1346   29.3680   50.4509 C   0  0  0  0  0  0  0  0  0  0  0  0
   35.2667   29.1300   51.7992 F   0  0  0  0  0  0  0  0  0  0  0  0
   33.9236   30.0666   50.2995 F   0  0  0  0  0  0  0  0  0  0  0  0
   34.9409   28.1721   49.8264 F   0  0  0  0  0  0  0  0  0  0  0  0
   39.1701   31.5746   50.6752 H   0  0  0  0  0  0  0  0  0  0  0  0
   39.0986   32.1923   48.3407 H   0  0  0  0  0  0  0  0  0  0  0  0
   37.1388   31.5835   46.5892 C   0  0  0  0  0  0  0  0  0  0  0  0
   37.9366   30.9086   45.6918 C   0  0  0  0  0  0  0  0  0  0  0  0
   38.6026   30.1297   46.0040 H   0  0  0  0  0  0  0  0  0  0  0  0
   37.8025   31.3198   44.3766 C   0  0  0  0  0  0  0  0  0  0  0  0
   38.4052   30.8265   43.6174 H   0  0  0  0  0  0  0  0  0  0  0  0
   36.9316   32.3171   44.0727 C   0  0  0  0  0  0  0  0  0  0  0  0
   36.1357   32.9865   44.9870 C   0  0  0  0  0  0  0  0  0  0  0  0
   36.2866   32.5679   46.2503 N   0  0  0  0  0  0  0  0  0  0  0  0
   36.8718   32.5946   43.0225 H   0  0  0  0  0  0  0  0  0  0  0  0
   35.4946   33.7511   44.6136 H   0  0  0  0  0  0  0  0  0  0  0  0
  1  6  2  0
  2  1  1  0
  3  4  1  0
  3  2  2  0
  4  5  2  0
  5  7  1  0
  5  6  1  0
  7  8  1  0
  9  7  1  0
 10  7  1  0
  1 11  1  0
  2 12  1  0
 13 14  2  0
 14 15  1  0
 14 16  1  0
 16 17  1  0
 16 18  2  0
 18 19  1  0
 19 20  2  0
 20 13  1  0
 18 21  1  0
 19 22  1  0
  3 13  1  0
M  ISO  4  11  14  12  14  15  15  17  16
M  END
>  <DihAtoms>  (1) 
3,2,12,13

>  <DihDeg>  (1) 
0.000614402124952702

$$$$
