
 OpenBabel03262522413D

 40 44  0  0  0  0  0  0  0  0999 V2000
   37.1130   27.0410   32.5730 C   0  0  0  0  0  0  0  0  0  0  0  0
   37.4640   27.6730   31.4080 C   0  0  0  0  0  0  0  0  0  0  0  0
   37.0870   28.9640   31.1100 C   0  0  0  0  0  0  0  0  0  0  0  0
   36.3250   29.6770   31.9980 C   0  0  0  0  0  0  0  0  0  0  0  0
   35.9900   29.0110   33.1600 C   0  0  0  0  0  0  0  0  0  0  0  0
   36.3620   27.7610   33.4390 N   0  0  0  0  0  0  0  0  0  0  0  0
   38.0640   27.1100   30.7060 H   0  0  0  0  0  0  0  0  0  0  0  0
   37.4180   29.3630   30.1620 H   0  0  0  0  0  0  0  0  0  0  0  0
   36.0190   30.6900   31.7840 H   0  0  0  0  0  0  0  0  0  0  0  0
   33.8350   29.4810   34.3450 C   0  0  0  0  0  0  0  0  0  0  0  0
   35.1860   29.7120   34.1400 C   0  0  0  0  0  0  0  0  0  0  0  0
   35.6980   30.6880   34.9710 C   0  0  0  0  0  0  0  0  0  0  0  0
   34.9890   31.3910   35.9210 C   0  0  0  0  0  0  0  0  0  0  0  0
   35.3130   32.3550   36.8020 N   0  0  0  0  0  0  0  0  0  0  0  0
   34.1950   32.6700   37.4900 C   0  0  0  0  0  0  0  0  0  0  0  0
   33.1250   31.9040   37.0550 C   0  0  0  0  0  0  0  0  0  0  0  0
   33.6490   31.1030   36.0650 C   0  0  0  0  0  0  0  0  0  0  0  0
   33.0710   30.1520   35.2810 C   0  0  0  0  0  0  0  0  0  0  0  0
   33.3390   28.7260   33.7340 H   0  0  0  0  0  0  0  0  0  0  0  0
   36.7490   30.9550   34.9020 H   0  0  0  0  0  0  0  0  0  0  0  0
   36.2560   32.7580   36.9060 H   0  0  0  0  0  0  0  0  0  0  0  0
   34.2170   33.4310   38.2610 H   0  0  0  0  0  0  0  0  0  0  0  0
   32.1180   31.9780   37.4600 H   0  0  0  0  0  0  0  0  0  0  0  0
   32.0160   29.9430   35.4130 H   0  0  0  0  0  0  0  0  0  0  0  0
   38.0000   23.3830   32.3750 C   0  0  0  0  0  0  0  0  0  0  0  0
   37.6130   24.6570   31.9540 C   0  0  0  0  0  0  0  0  0  0  0  0
   37.5080   25.6740   32.8990 C   0  0  0  0  0  0  0  0  0  0  0  0
   37.7890   25.3550   34.1640 N   0  0  0  0  0  0  0  0  0  0  0  0
   38.1620   24.1230   34.5690 C   0  0  0  0  0  0  0  0  0  0  0  0
   38.2650   23.1450   33.6740 N   0  0  0  0  0  0  0  0  0  0  0  0
   38.0490   22.6710   31.5570 H   0  0  0  0  0  0  0  0  0  0  0  0
   37.3910   24.8960   30.9290 H   0  0  0  0  0  0  0  0  0  0  0  0
   38.4470   23.8790   35.9790 C   0  0  0  0  0  0  0  0  0  0  0  0
   37.6680   24.4810   36.9440 C   0  0  0  0  0  0  0  0  0  0  0  0
   36.8620   25.1190   36.6070 H   0  0  0  0  0  0  0  0  0  0  0  0
   37.9220   24.2650   38.2790 C   0  0  0  0  0  0  0  0  0  0  0  0
   37.2750   24.7650   38.9870 H   0  0  0  0  0  0  0  0  0  0  0  0
   38.9650   23.4380   38.6460 C   0  0  0  0  0  3  0  0  0  0  0  0
   39.7460   22.8380   37.6530 C   0  0  0  0  0  3  0  0  0  0  0  0
   39.4620   23.0780   36.3490 N   0  0  0  0  0  0  0  0  0  0  0  0
  1 27  1  0  0  0  0
  1  6  1  0  0  0  0
  2  1  2  0  0  0  0
  3  2  1  0  0  0  0
  3  4  2  0  0  0  0
  4  5  1  0  0  0  0
  5  6  2  0  0  0  0
  5 11  1  0  0  0  0
  7  2  1  0  0  0  0
  8  3  1  0  0  0  0
  9  4  1  0  0  0  0
 10 18  1  0  0  0  0
 11 10  2  0  0  0  0
 11 12  1  0  0  0  0
 12 13  2  0  0  0  0
 13 17  1  0  0  0  0
 13 14  1  0  0  0  0
 14 21  1  0  0  0  0
 14 15  1  0  0  0  0
 15 22  1  0  0  0  0
 16 23  1  0  0  0  0
 16 15  2  0  0  0  0
 17 16  1  0  0  0  0
 18 24  1  0  0  0  0
 18 17  2  0  0  0  0
 19 10  1  0  0  0  0
 20 12  1  0  0  0  0
 25 30  1  0  0  0  0
 26 25  2  0  0  0  0
 26 27  1  0  0  0  0
 27 28  2  0  0  0  0
 28 29  1  0  0  0  0
 29 33  1  0  0  0  0
 30 29  2  0  0  0  0
 31 25  1  0  0  0  0
 32 26  1  0  0  0  0
 33 40  2  0  0  0  0
 33 34  1  0  0  0  0
 34 36  2  0  0  0  0
 35 34  1  0  0  0  0
 36 38  1  0  0  0  0
 36 37  1  0  0  0  0
 39 38  2  0  0  0  0
 40 39  1  0  0  0  0
M  END
>  <minimizedAffinity>
-7.28073359

$$$$

 OpenBabel03262522413D

 40 44  0  0  0  0  0  0  0  0999 V2000
   36.9860   27.1740   32.6060 C   0  0  0  0  0  0  0  0  0  0  0  0
   37.2370   27.7780   31.4010 C   0  0  0  0  0  0  0  0  0  0  0  0
   36.8850   29.0820   31.1270 C   0  0  0  0  0  0  0  0  0  0  0  0
   36.2540   29.8360   32.0810 C   0  0  0  0  0  0  0  0  0  0  0  0
   36.0170   29.1960   33.2810 C   0  0  0  0  0  0  0  0  0  0  0  0
   36.3630   27.9340   33.5360 N   0  0  0  0  0  0  0  0  0  0  0  0
   37.7350   27.1840   30.6480 H   0  0  0  0  0  0  0  0  0  0  0  0
   37.1300   29.4570   30.1440 H   0  0  0  0  0  0  0  0  0  0  0  0
   35.9700   30.8590   31.8870 H   0  0  0  0  0  0  0  0  0  0  0  0
   36.0030   30.7950   35.2090 C   0  0  0  0  0  0  0  0  0  0  0  0
   35.3530   29.9410   34.3310 C   0  0  0  0  0  0  0  0  0  0  0  0
   33.9940   29.8680   34.5590 C   0  0  0  0  0  0  0  0  0  0  0  0
   33.3020   30.5480   35.5380 C   0  0  0  0  0  0  0  0  0  0  0  0
   32.0070   30.6000   35.9000 N   0  0  0  0  0  0  0  0  0  0  0  0
   31.9100   31.4490   36.9440 C   0  0  0  0  0  0  0  0  0  0  0  0
   33.1560   31.9600   37.2710 C   0  0  0  0  0  0  0  0  0  0  0  0
   34.0200   31.3790   36.3710 C   0  0  0  0  0  0  0  0  0  0  0  0
   35.3670   31.5040   36.2090 C   0  0  0  0  0  0  0  0  0  0  0  0
   37.0820   30.9200   35.1090 H   0  0  0  0  0  0  0  0  0  0  0  0
   33.3790   29.2290   33.9310 H   0  0  0  0  0  0  0  0  0  0  0  0
   31.2520   30.0720   35.4390 H   0  0  0  0  0  0  0  0  0  0  0  0
   30.9510   31.6480   37.4070 H   0  0  0  0  0  0  0  0  0  0  0  0
   33.3320   32.6670   38.0810 H   0  0  0  0  0  0  0  0  0  0  0  0
   35.9090   32.1630   36.8760 H   0  0  0  0  0  0  0  0  0  0  0  0
   37.7610   23.4940   32.3490 C   0  0  0  0  0  0  0  0  0  0  0  0
   37.3930   24.7810   31.9520 C   0  0  0  0  0  0  0  0  0  0  0  0
   37.3560   25.7940   32.9070 C   0  0  0  0  0  0  0  0  0  0  0  0
   37.6790   25.4580   34.1570 N   0  0  0  0  0  0  0  0  0  0  0  0
   38.0330   24.2130   34.5390 C   0  0  0  0  0  0  0  0  0  0  0  0
   38.0710   23.2390   33.6350 N   0  0  0  0  0  0  0  0  0  0  0  0
   37.7560   22.7870   31.5250 H   0  0  0  0  0  0  0  0  0  0  0  0
   37.1360   25.0330   30.9390 H   0  0  0  0  0  0  0  0  0  0  0  0
   38.3690   23.9510   35.9350 C   0  0  0  0  0  0  0  0  0  0  0  0
   37.6400   24.5580   36.9350 C   0  0  0  0  0  0  0  0  0  0  0  0
   36.8340   25.2150   36.6350 H   0  0  0  0  0  0  0  0  0  0  0  0
   37.9420   24.3250   38.2560 C   0  0  0  0  0  0  0  0  0  0  0  0
   37.3330   24.8310   38.9940 H   0  0  0  0  0  0  0  0  0  0  0  0
   38.9830   23.4760   38.5760 C   0  0  0  0  0  3  0  0  0  0  0  0
   39.7120   22.8700   37.5470 C   0  0  0  0  0  3  0  0  0  0  0  0
   39.3820   23.1270   36.2580 N   0  0  0  0  0  0  0  0  0  0  0  0
  1 27  1  0  0  0  0
  1  6  1  0  0  0  0
  2  1  2  0  0  0  0
  3  2  1  0  0  0  0
  3  4  2  0  0  0  0
  4  5  1  0  0  0  0
  5  6  2  0  0  0  0
  5 11  1  0  0  0  0
  7  2  1  0  0  0  0
  8  3  1  0  0  0  0
  9  4  1  0  0  0  0
 10 18  1  0  0  0  0
 11 12  1  0  0  0  0
 11 10  2  0  0  0  0
 12 13  2  0  0  0  0
 13 14  1  0  0  0  0
 13 17  1  0  0  0  0
 14 15  1  0  0  0  0
 15 16  2  0  0  0  0
 15 22  1  0  0  0  0
 16 23  1  0  0  0  0
 17 16  1  0  0  0  0
 18 17  2  0  0  0  0
 18 24  1  0  0  0  0
 19 10  1  0  0  0  0
 20 12  1  0  0  0  0
 21 14  1  0  0  0  0
 25 30  1  0  0  0  0
 26 25  2  0  0  0  0
 26 27  1  0  0  0  0
 27 28  2  0  0  0  0
 28 29  1  0  0  0  0
 29 33  1  0  0  0  0
 30 29  2  0  0  0  0
 31 25  1  0  0  0  0
 32 26  1  0  0  0  0
 33 40  2  0  0  0  0
 33 34  1  0  0  0  0
 34 36  2  0  0  0  0
 35 34  1  0  0  0  0
 36 38  1  0  0  0  0
 36 37  1  0  0  0  0
 39 38  2  0  0  0  0
 40 39  1  0  0  0  0
M  END
>  <minimizedAffinity>
-7.18644524

$$$$

 OpenBabel03262522413D

 40 44  0  0  0  0  0  0  0  0999 V2000
   36.4920   26.9170   32.2680 C   0  0  0  0  0  0  0  0  0  0  0  0
   35.8090   26.0520   31.4520 C   0  0  0  0  0  0  0  0  0  0  0  0
   36.0380   24.6930   31.4390 C   0  0  0  0  0  0  0  0  0  0  0  0
   36.9850   24.1510   32.2670 C   0  0  0  0  0  0  0  0  0  0  0  0
   37.6530   25.0500   33.0740 C   0  0  0  0  0  0  0  0  0  0  0  0
   37.4230   26.3630   33.0790 N   0  0  0  0  0  0  0  0  0  0  0  0
   35.0620   26.4790   30.7980 H   0  0  0  0  0  0  0  0  0  0  0  0
   35.4430   24.1040   30.7560 H   0  0  0  0  0  0  0  0  0  0  0  0
   37.1810   23.0890   32.2720 H   0  0  0  0  0  0  0  0  0  0  0  0
   40.0250   24.7800   33.8310 C   0  0  0  0  0  0  0  0  0  0  0  0
   38.6670   24.5370   33.9720 C   0  0  0  0  0  0  0  0  0  0  0  0
   38.3720   23.7490   35.0660 C   0  0  0  0  0  0  0  0  0  0  0  0
   39.2870   23.2320   35.9570 C   0  0  0  0  0  0  0  0  0  0  0  0
   39.1850   22.4610   37.0560 N   0  0  0  0  0  0  0  0  0  0  0  0
   40.4320   22.2660   37.5330 C   0  0  0  0  0  0  0  0  0  0  0  0
   41.3630   22.9150   36.7370 C   0  0  0  0  0  0  0  0  0  0  0  0
   40.6190   23.5180   35.7490 C   0  0  0  0  0  0  0  0  0  0  0  0
   40.9900   24.2900   34.6900 C   0  0  0  0  0  0  0  0  0  0  0  0
   40.3580   25.3950   32.9940 H   0  0  0  0  0  0  0  0  0  0  0  0
   37.3380   23.4930   35.2790 H   0  0  0  0  0  0  0  0  0  0  0  0
   38.2970   22.1030   37.4370 H   0  0  0  0  0  0  0  0  0  0  0  0
   40.5960   21.6690   38.4220 H   0  0  0  0  0  0  0  0  0  0  0  0
   42.4360   22.9030   36.9210 H   0  0  0  0  0  0  0  0  0  0  0  0
   42.0420   24.5020   34.5480 H   0  0  0  0  0  0  0  0  0  0  0  0
   36.2890   30.5690   31.3530 C   0  0  0  0  0  0  0  0  0  0  0  0
   36.5560   29.2040   31.2260 C   0  0  0  0  0  0  0  0  0  0  0  0
   36.2560   28.3580   32.2900 C   0  0  0  0  0  0  0  0  0  0  0  0
   35.7250   28.9200   33.3770 N   0  0  0  0  0  0  0  0  0  0  0  0
   35.4690   30.2390   33.5000 C   0  0  0  0  0  0  0  0  0  0  0  0
   35.7520   31.0550   32.4890 N   0  0  0  0  0  0  0  0  0  0  0  0
   36.5620   31.1310   30.4660 H   0  0  0  0  0  0  0  0  0  0  0  0
   36.9840   28.7690   30.3410 H   0  0  0  0  0  0  0  0  0  0  0  0
   34.8850   30.7530   34.7340 C   0  0  0  0  0  0  0  0  0  0  0  0
   35.6540   31.5210   35.5820 C   0  0  0  0  0  0  0  0  0  0  0  0
   36.6780   31.7140   35.2870 H   0  0  0  0  0  0  0  0  0  0  0  0
   35.1230   32.0140   36.7510 C   0  0  0  0  0  0  0  0  0  0  0  0
   35.7770   32.6100   37.3730 H   0  0  0  0  0  0  0  0  0  0  0  0
   33.8090   31.7340   37.0700 C   0  0  0  0  0  3  0  0  0  0  0  0
   33.0450   30.9520   36.1990 C   0  0  0  0  0  3  0  0  0  0  0  0
   33.6070   30.4860   35.0570 N   0  0  0  0  0  0  0  0  0  0  0  0
  1 27  1  0  0  0  0
  1  6  1  0  0  0  0
  2  1  2  0  0  0  0
  3  2  1  0  0  0  0
  3  4  2  0  0  0  0
  4  9  1  0  0  0  0
  4  5  1  0  0  0  0
  5  6  2  0  0  0  0
  5 11  1  0  0  0  0
  7  2  1  0  0  0  0
  8  3  1  0  0  0  0
 10 11  2  0  0  0  0
 10 18  1  0  0  0  0
 11 12  1  0  0  0  0
 12 20  1  0  0  0  0
 12 13  2  0  0  0  0
 13 14  1  0  0  0  0
 14 21  1  0  0  0  0
 14 15  1  0  0  0  0
 15 22  1  0  0  0  0
 16 23  1  0  0  0  0
 16 15  2  0  0  0  0
 17 13  1  0  0  0  0
 17 16  1  0  0  0  0
 18 17  2  0  0  0  0
 19 10  1  0  0  0  0
 24 18  1  0  0  0  0
 25 30  1  0  0  0  0
 26 25  2  0  0  0  0
 26 27  1  0  0  0  0
 27 28  2  0  0  0  0
 28 29  1  0  0  0  0
 29 33  1  0  0  0  0
 30 29  2  0  0  0  0
 31 25  1  0  0  0  0
 32 26  1  0  0  0  0
 33 40  2  0  0  0  0
 33 34  1  0  0  0  0
 34 36  2  0  0  0  0
 35 34  1  0  0  0  0
 36 38  1  0  0  0  0
 36 37  1  0  0  0  0
 39 38  2  0  0  0  0
 40 39  1  0  0  0  0
M  END
>  <minimizedAffinity>
-6.8490696

$$$$

 OpenBabel03262522413D

 40 44  0  0  0  0  0  0  0  0999 V2000
   37.2060   27.3450   32.6480 C   0  0  0  0  0  0  0  0  0  0  0  0
   37.2500   27.8660   31.3810 C   0  0  0  0  0  0  0  0  0  0  0  0
   36.6890   29.0800   31.0470 C   0  0  0  0  0  0  0  0  0  0  0  0
   36.0520   29.8250   32.0040 C   0  0  0  0  0  0  0  0  0  0  0  0
   36.0270   29.2720   33.2680 C   0  0  0  0  0  0  0  0  0  0  0  0
   36.5730   28.0960   33.5800 N   0  0  0  0  0  0  0  0  0  0  0  0
   37.7520   27.2780   30.6250 H   0  0  0  0  0  0  0  0  0  0  0  0
   36.7810   29.3930   30.0170 H   0  0  0  0  0  0  0  0  0  0  0  0
   35.6060   30.7790   31.7640 H   0  0  0  0  0  0  0  0  0  0  0  0
   36.0200   30.8750   35.1920 C   0  0  0  0  0  0  0  0  0  0  0  0
   35.3680   30.0120   34.3240 C   0  0  0  0  0  0  0  0  0  0  0  0
   34.0120   29.9270   34.5670 C   0  0  0  0  0  0  0  0  0  0  0  0
   33.3250   30.6030   35.5520 C   0  0  0  0  0  0  0  0  0  0  0  0
   32.0340   30.6430   35.9290 N   0  0  0  0  0  0  0  0  0  0  0  0
   31.9400   31.4940   36.9720 C   0  0  0  0  0  0  0  0  0  0  0  0
   33.1850   32.0180   37.2840 C   0  0  0  0  0  0  0  0  0  0  0  0
   34.0450   31.4420   36.3750 C   0  0  0  0  0  0  0  0  0  0  0  0
   35.3880   31.5800   36.1980 C   0  0  0  0  0  0  0  0  0  0  0  0
   37.0960   31.0100   35.0790 H   0  0  0  0  0  0  0  0  0  0  0  0
   33.3950   29.2810   33.9480 H   0  0  0  0  0  0  0  0  0  0  0  0
   31.2780   30.1070   35.4780 H   0  0  0  0  0  0  0  0  0  0  0  0
   30.9850   31.6850   37.4450 H   0  0  0  0  0  0  0  0  0  0  0  0
   33.3630   32.7270   38.0900 H   0  0  0  0  0  0  0  0  0  0  0  0
   35.9310   32.2450   36.8570 H   0  0  0  0  0  0  0  0  0  0  0  0
   39.5010   24.6530   33.9500 C   0  0  0  0  0  0  0  0  0  0  0  0
   39.0290   25.9320   33.6470 C   0  0  0  0  0  0  0  0  0  0  0  0
   37.7970   26.0610   33.0120 C   0  0  0  0  0  0  0  0  0  0  0  0
   37.1420   24.9330   32.7300 N   0  0  0  0  0  0  0  0  0  0  0  0
   37.6000   23.6980   33.0220 C   0  0  0  0  0  0  0  0  0  0  0  0
   38.7750   23.5650   33.6290 N   0  0  0  0  0  0  0  0  0  0  0  0
   40.4680   24.6720   34.4430 H   0  0  0  0  0  0  0  0  0  0  0  0
   39.5720   26.8300   33.8830 H   0  0  0  0  0  0  0  0  0  0  0  0
   36.8030   22.5270   32.6710 C   0  0  0  0  0  0  0  0  0  0  0  0
   36.2280   22.4460   31.4200 C   0  0  0  0  0  0  0  0  0  0  0  0
   36.3990   23.2710   30.7400 H   0  0  0  0  0  0  0  0  0  0  0  0
   35.4730   21.3520   31.0700 C   0  0  0  0  0  0  0  0  0  0  0  0
   35.0490   21.3470   30.0750 H   0  0  0  0  0  0  0  0  0  0  0  0
   35.2930   20.3310   31.9830 C   0  0  0  0  0  3  0  0  0  0  0  0
   35.8820   20.4320   33.2470 C   0  0  0  0  0  3  0  0  0  0  0  0
   36.6190   21.5280   33.5520 N   0  0  0  0  0  0  0  0  0  0  0  0
  1 27  1  0  0  0  0
  1  6  1  0  0  0  0
  2  1  2  0  0  0  0
  3  2  1  0  0  0  0
  3  4  2  0  0  0  0
  4  5  1  0  0  0  0
  5  6  2  0  0  0  0
  5 11  1  0  0  0  0
  7  2  1  0  0  0  0
  8  3  1  0  0  0  0
  9  4  1  0  0  0  0
 10 18  1  0  0  0  0
 11 12  1  0  0  0  0
 11 10  2  0  0  0  0
 12 13  2  0  0  0  0
 13 14  1  0  0  0  0
 13 17  1  0  0  0  0
 14 15  1  0  0  0  0
 15 16  2  0  0  0  0
 15 22  1  0  0  0  0
 16 23  1  0  0  0  0
 17 16  1  0  0  0  0
 18 17  2  0  0  0  0
 18 24  1  0  0  0  0
 19 10  1  0  0  0  0
 20 12  1  0  0  0  0
 21 14  1  0  0  0  0
 25 31  1  0  0  0  0
 26 32  1  0  0  0  0
 26 25  1  0  0  0  0
 27 26  2  0  0  0  0
 28 27  1  0  0  0  0
 28 29  2  0  0  0  0
 29 30  1  0  0  0  0
 30 25  2  0  0  0  0
 33 29  1  0  0  0  0
 33 40  1  0  0  0  0
 34 33  2  0  0  0  0
 35 34  1  0  0  0  0
 36 34  1  0  0  0  0
 36 38  2  0  0  0  0
 37 36  1  0  0  0  0
 38 39  1  0  0  0  0
 39 40  2  0  0  0  0
M  END
>  <minimizedAffinity>
-6.69581127

$$$$

 OpenBabel03262522413D

 40 44  0  0  0  0  0  0  0  0999 V2000
   37.2940   27.1230   32.5910 C   0  0  0  0  0  0  0  0  0  0  0  0
   37.5240   27.7040   31.3700 C   0  0  0  0  0  0  0  0  0  0  0  0
   37.0130   28.9330   31.0140 C   0  0  0  0  0  0  0  0  0  0  0  0
   36.2340   29.6320   31.8990 C   0  0  0  0  0  0  0  0  0  0  0  0
   36.0230   29.0190   33.1170 C   0  0  0  0  0  0  0  0  0  0  0  0
   36.5230   27.8280   33.4510 N   0  0  0  0  0  0  0  0  0  0  0  0
   38.1380   27.1520   30.6720 H   0  0  0  0  0  0  0  0  0  0  0  0
   37.2570   29.2960   30.0270 H   0  0  0  0  0  0  0  0  0  0  0  0
   35.8240   30.5970   31.6400 H   0  0  0  0  0  0  0  0  0  0  0  0
   33.8550   29.4670   34.2890 C   0  0  0  0  0  0  0  0  0  0  0  0
   35.2070   29.7080   34.0950 C   0  0  0  0  0  0  0  0  0  0  0  0
   35.7060   30.6820   34.9360 C   0  0  0  0  0  0  0  0  0  0  0  0
   34.9870   31.3740   35.8860 C   0  0  0  0  0  0  0  0  0  0  0  0
   35.2980   32.3350   36.7750 N   0  0  0  0  0  0  0  0  0  0  0  0
   34.1740   32.6380   37.4570 C   0  0  0  0  0  0  0  0  0  0  0  0
   33.1120   31.8680   37.0090 C   0  0  0  0  0  0  0  0  0  0  0  0
   33.6470   31.0770   36.0180 C   0  0  0  0  0  0  0  0  0  0  0  0
   33.0810   30.1270   35.2230 C   0  0  0  0  0  0  0  0  0  0  0  0
   33.3690   28.7130   33.6700 H   0  0  0  0  0  0  0  0  0  0  0  0
   36.7560   30.9550   34.8760 H   0  0  0  0  0  0  0  0  0  0  0  0
   36.2380   32.7420   36.8880 H   0  0  0  0  0  0  0  0  0  0  0  0
   34.1850   33.3940   38.2330 H   0  0  0  0  0  0  0  0  0  0  0  0
   32.1010   31.9340   37.4070 H   0  0  0  0  0  0  0  0  0  0  0  0
   32.0270   29.9110   35.3460 H   0  0  0  0  0  0  0  0  0  0  0  0
   39.4530   24.3650   33.9840 C   0  0  0  0  0  0  0  0  0  0  0  0
   39.0310   25.6570   33.6620 C   0  0  0  0  0  0  0  0  0  0  0  0
   37.8310   25.8220   32.9770 C   0  0  0  0  0  0  0  0  0  0  0  0
   37.1540   24.7140   32.6690 N   0  0  0  0  0  0  0  0  0  0  0  0
   37.5630   23.4660   32.9790 C   0  0  0  0  0  0  0  0  0  0  0  0
   38.7090   23.2980   33.6330 N   0  0  0  0  0  0  0  0  0  0  0  0
   40.3990   24.3550   34.5160 H   0  0  0  0  0  0  0  0  0  0  0  0
   39.5900   26.5380   33.9200 H   0  0  0  0  0  0  0  0  0  0  0  0
   36.7470   22.3190   32.5950 C   0  0  0  0  0  0  0  0  0  0  0  0
   36.4510   21.3510   33.5320 C   0  0  0  0  0  0  0  0  0  0  0  0
   36.8450   21.4880   34.5310 H   0  0  0  0  0  0  0  0  0  0  0  0
   35.6840   20.2620   33.1900 C   0  0  0  0  0  0  0  0  0  0  0  0
   35.4870   19.5380   33.9690 H   0  0  0  0  0  0  0  0  0  0  0  0
   35.2100   20.1440   31.8980 C   0  0  0  0  0  3  0  0  0  0  0  0
   35.5210   21.1350   30.9620 C   0  0  0  0  0  3  0  0  0  0  0  0
   36.2800   22.1920   31.3400 N   0  0  0  0  0  0  0  0  0  0  0  0
  1 27  1  0  0  0  0
  1  6  1  0  0  0  0
  2  1  2  0  0  0  0
  3  2  1  0  0  0  0
  3  4  2  0  0  0  0
  4  5  1  0  0  0  0
  5  6  2  0  0  0  0
  5 11  1  0  0  0  0
  7  2  1  0  0  0  0
  8  3  1  0  0  0  0
  9  4  1  0  0  0  0
 10 18  1  0  0  0  0
 11 10  2  0  0  0  0
 11 12  1  0  0  0  0
 12 13  2  0  0  0  0
 13 17  1  0  0  0  0
 13 14  1  0  0  0  0
 14 21  1  0  0  0  0
 14 15  1  0  0  0  0
 15 22  1  0  0  0  0
 16 23  1  0  0  0  0
 16 15  2  0  0  0  0
 17 16  1  0  0  0  0
 18 24  1  0  0  0  0
 18 17  2  0  0  0  0
 19 10  1  0  0  0  0
 20 12  1  0  0  0  0
 25 31  1  0  0  0  0
 26 32  1  0  0  0  0
 26 25  1  0  0  0  0
 27 26  2  0  0  0  0
 28 27  1  0  0  0  0
 28 29  2  0  0  0  0
 29 30  1  0  0  0  0
 30 25  2  0  0  0  0
 33 29  1  0  0  0  0
 33 34  1  0  0  0  0
 34 35  1  0  0  0  0
 36 34  2  0  0  0  0
 36 37  1  0  0  0  0
 38 36  1  0  0  0  0
 39 40  1  0  0  0  0
 39 38  2  0  0  0  0
 40 33  2  0  0  0  0
M  END
>  <minimizedAffinity>
-6.69534016

$$$$

 OpenBabel03262522413D

 40 44  0  0  0  0  0  0  0  0999 V2000
   36.3720   27.1950   31.8470 C   0  0  0  0  0  0  0  0  0  0  0  0
   36.7430   27.9090   30.7370 C   0  0  0  0  0  0  0  0  0  0  0  0
   36.5230   29.2630   30.6060 C   0  0  0  0  0  0  0  0  0  0  0  0
   35.9080   29.9560   31.6150 C   0  0  0  0  0  0  0  0  0  0  0  0
   35.5480   29.2070   32.7170 C   0  0  0  0  0  0  0  0  0  0  0  0
   35.7660   27.8970   32.8320 N   0  0  0  0  0  0  0  0  0  0  0  0
   37.2280   27.3620   29.9400 H   0  0  0  0  0  0  0  0  0  0  0  0
   36.8560   29.7250   29.6880 H   0  0  0  0  0  0  0  0  0  0  0  0
   35.7270   31.0180   31.5330 H   0  0  0  0  0  0  0  0  0  0  0  0
   33.5440   29.7660   34.1100 C   0  0  0  0  0  0  0  0  0  0  0  0
   34.8940   29.8840   33.8170 C   0  0  0  0  0  0  0  0  0  0  0  0
   35.5620   30.7200   34.6890 C   0  0  0  0  0  0  0  0  0  0  0  0
   35.0010   31.3920   35.7520 C   0  0  0  0  0  0  0  0  0  0  0  0
   35.4850   32.2300   36.6870 N   0  0  0  0  0  0  0  0  0  0  0  0
   34.4590   32.5840   37.4890 C   0  0  0  0  0  0  0  0  0  0  0  0
   33.2870   31.9700   37.0750 C   0  0  0  0  0  0  0  0  0  0  0  0
   33.6510   31.2230   35.9780 C   0  0  0  0  0  0  0  0  0  0  0  0
   32.9230   30.4120   35.1610 C   0  0  0  0  0  0  0  0  0  0  0  0
   32.9300   29.1250   33.4770 H   0  0  0  0  0  0  0  0  0  0  0  0
   36.6280   30.8900   34.5580 H   0  0  0  0  0  0  0  0  0  0  0  0
   36.4700   32.5280   36.7490 H   0  0  0  0  0  0  0  0  0  0  0  0
   34.6150   33.2600   38.3210 H   0  0  0  0  0  0  0  0  0  0  0  0
   32.3240   32.1020   37.5660 H   0  0  0  0  0  0  0  0  0  0  0  0
   31.8650   30.2950   35.3590 H   0  0  0  0  0  0  0  0  0  0  0  0
   36.2920   23.4510   31.4130 C   0  0  0  0  0  0  0  0  0  0  0  0
   36.0040   24.7980   31.1850 C   0  0  0  0  0  0  0  0  0  0  0  0
   36.6000   25.7600   31.9940 C   0  0  0  0  0  0  0  0  0  0  0  0
   37.4210   25.3210   32.9510 N   0  0  0  0  0  0  0  0  0  0  0  0
   37.6980   24.0190   33.1710 C   0  0  0  0  0  0  0  0  0  0  0  0
   37.1330   23.0920   32.4030 N   0  0  0  0  0  0  0  0  0  0  0  0
   35.7740   22.7910   30.7250 H   0  0  0  0  0  0  0  0  0  0  0  0
   35.3400   25.1330   30.4080 H   0  0  0  0  0  0  0  0  0  0  0  0
   38.6120   23.6440   34.2450 C   0  0  0  0  0  0  0  0  0  0  0  0
   39.8060   24.3190   34.3880 C   0  0  0  0  0  0  0  0  0  0  0  0
   40.0160   25.1140   33.6840 H   0  0  0  0  0  0  0  0  0  0  0  0
   40.6810   23.9800   35.3930 C   0  0  0  0  0  0  0  0  0  0  0  0
   41.6010   24.5470   35.4530 H   0  0  0  0  0  0  0  0  0  0  0  0
   40.3560   22.9560   36.2610 C   0  0  0  0  0  3  0  0  0  0  0  0
   39.1410   22.2820   36.0990 C   0  0  0  0  0  3  0  0  0  0  0  0
   38.3070   22.6480   35.0950 N   0  0  0  0  0  0  0  0  0  0  0  0
  1 27  1  0  0  0  0
  1  6  1  0  0  0  0
  2  1  2  0  0  0  0
  3  2  1  0  0  0  0
  3  4  2  0  0  0  0
  4  5  1  0  0  0  0
  5  6  2  0  0  0  0
  5 11  1  0  0  0  0
  7  2  1  0  0  0  0
  8  3  1  0  0  0  0
  9  4  1  0  0  0  0
 10 18  1  0  0  0  0
 11 10  2  0  0  0  0
 11 12  1  0  0  0  0
 12 13  2  0  0  0  0
 13 17  1  0  0  0  0
 13 14  1  0  0  0  0
 14 21  1  0  0  0  0
 14 15  1  0  0  0  0
 15 22  1  0  0  0  0
 16 15  2  0  0  0  0
 16 23  1  0  0  0  0
 17 16  1  0  0  0  0
 18 24  1  0  0  0  0
 18 17  2  0  0  0  0
 19 10  1  0  0  0  0
 20 12  1  0  0  0  0
 25 30  1  0  0  0  0
 26 25  2  0  0  0  0
 26 27  1  0  0  0  0
 27 28  2  0  0  0  0
 28 29  1  0  0  0  0
 29 33  1  0  0  0  0
 30 29  2  0  0  0  0
 31 25  1  0  0  0  0
 32 26  1  0  0  0  0
 33 34  2  0  0  0  0
 33 40  1  0  0  0  0
 34 36  1  0  0  0  0
 35 34  1  0  0  0  0
 36 37  1  0  0  0  0
 36 38  2  0  0  0  0
 39 38  1  0  0  0  0
 40 39  2  0  0  0  0
M  END
>  <minimizedAffinity>
-6.58715296

$$$$

 OpenBabel03262522413D

 40 44  0  0  0  0  0  0  0  0999 V2000
   37.3740   26.7820   33.4820 C   0  0  0  0  0  0  0  0  0  0  0  0
   38.3930   26.7220   34.3970 C   0  0  0  0  0  0  0  0  0  0  0  0
   39.0470   25.5530   34.7170 C   0  0  0  0  0  0  0  0  0  0  0  0
   38.6870   24.3790   34.1110 C   0  0  0  0  0  0  0  0  0  0  0  0
   37.6580   24.4750   33.1960 C   0  0  0  0  0  0  0  0  0  0  0  0
   37.0320   25.6130   32.8930 N   0  0  0  0  0  0  0  0  0  0  0  0
   38.6770   27.6490   34.8760 H   0  0  0  0  0  0  0  0  0  0  0  0
   39.8360   25.6210   35.4530 H   0  0  0  0  0  0  0  0  0  0  0  0
   39.1870   23.4510   34.3470 H   0  0  0  0  0  0  0  0  0  0  0  0
   36.0750   23.1690   31.7610 C   0  0  0  0  0  0  0  0  0  0  0  0
   37.2310   23.2670   32.5200 C   0  0  0  0  0  0  0  0  0  0  0  0
   37.9440   22.0860   32.5700 C   0  0  0  0  0  0  0  0  0  0  0  0
   37.5940   20.9060   31.9520 C   0  0  0  0  0  0  0  0  0  0  0  0
   38.1530   19.6830   31.8920 N   0  0  0  0  0  0  0  0  0  0  0  0
   37.3540   18.9080   31.1280 C   0  0  0  0  0  0  0  0  0  0  0  0
   36.2580   19.6300   30.6830 C   0  0  0  0  0  0  0  0  0  0  0  0
   36.4290   20.8890   31.2150 C   0  0  0  0  0  0  0  0  0  0  0  0
   35.6700   22.0150   31.1180 C   0  0  0  0  0  0  0  0  0  0  0  0
   35.4430   24.0520   31.6610 H   0  0  0  0  0  0  0  0  0  0  0  0
   38.8700   22.0430   33.1370 H   0  0  0  0  0  0  0  0  0  0  0  0
   39.0340   19.4210   32.3570 H   0  0  0  0  0  0  0  0  0  0  0  0
   37.6080   17.8720   30.9390 H   0  0  0  0  0  0  0  0  0  0  0  0
   35.4730   19.2190   30.0510 H   0  0  0  0  0  0  0  0  0  0  0  0
   34.7600   21.9770   30.5320 H   0  0  0  0  0  0  0  0  0  0  0  0
   35.8750   29.6950   31.6150 C   0  0  0  0  0  0  0  0  0  0  0  0
   36.5680   28.5020   31.8350 C   0  0  0  0  0  0  0  0  0  0  0  0
   36.6740   28.0160   33.1350 C   0  0  0  0  0  0  0  0  0  0  0  0
   36.0960   28.7360   34.0990 N   0  0  0  0  0  0  0  0  0  0  0  0
   35.4270   29.8880   33.8850 C   0  0  0  0  0  0  0  0  0  0  0  0
   35.3210   30.3610   32.6470 N   0  0  0  0  0  0  0  0  0  0  0  0
   35.8560   29.9780   30.5680 H   0  0  0  0  0  0  0  0  0  0  0  0
   37.0270   27.9350   31.0450 H   0  0  0  0  0  0  0  0  0  0  0  0
   34.8300   30.6000   35.0100 C   0  0  0  0  0  0  0  0  0  0  0  0
   35.6050   31.4610   35.7580 C   0  0  0  0  0  0  0  0  0  0  0  0
   36.6420   31.5760   35.4700 H   0  0  0  0  0  0  0  0  0  0  0  0
   35.0610   32.1400   36.8230 C   0  0  0  0  0  0  0  0  0  0  0  0
   35.7200   32.8020   37.3700 H   0  0  0  0  0  0  0  0  0  0  0  0
   33.7300   31.9530   37.1400 C   0  0  0  0  0  3  0  0  0  0  0  0
   32.9610   31.0730   36.3720 C   0  0  0  0  0  3  0  0  0  0  0  0
   33.5360   30.4240   35.3300 N   0  0  0  0  0  0  0  0  0  0  0  0
  1  2  1  0  0  0  0
  2  3  2  0  0  0  0
  2  7  1  0  0  0  0
  3  8  1  0  0  0  0
  4  9  1  0  0  0  0
  4  3  1  0  0  0  0
  5  4  2  0  0  0  0
  6  5  1  0  0  0  0
  6  1  2  0  0  0  0
 10 11  1  0  0  0  0
 11 12  2  0  0  0  0
 11  5  1  0  0  0  0
 12 20  1  0  0  0  0
 13 12  1  0  0  0  0
 14 13  1  0  0  0  0
 14 21  1  0  0  0  0
 15 14  1  0  0  0  0
 16 15  2  0  0  0  0
 16 17  1  0  0  0  0
 17 13  2  0  0  0  0
 18 17  1  0  0  0  0
 18 10  2  0  0  0  0
 19 10  1  0  0  0  0
 22 15  1  0  0  0  0
 23 16  1  0  0  0  0
 24 18  1  0  0  0  0
 25 26  2  0  0  0  0
 25 30  1  0  0  0  0
 26 27  1  0  0  0  0
 27  1  1  0  0  0  0
 27 28  2  0  0  0  0
 29 28  1  0  0  0  0
 29 33  1  0  0  0  0
 30 29  2  0  0  0  0
 31 25  1  0  0  0  0
 32 26  1  0  0  0  0
 33 40  2  0  0  0  0
 33 34  1  0  0  0  0
 34 36  2  0  0  0  0
 35 34  1  0  0  0  0
 36 38  1  0  0  0  0
 36 37  1  0  0  0  0
 39 38  2  0  0  0  0
 40 39  1  0  0  0  0
M  END
>  <minimizedAffinity>
-6.55279303

$$$$

 OpenBabel03262522413D

 40 44  0  0  0  0  0  0  0  0999 V2000
   37.0130   27.7210   32.4200 C   0  0  0  0  0  0  0  0  0  0  0  0
   37.3740   27.1830   31.2120 C   0  0  0  0  0  0  0  0  0  0  0  0
   38.0500   25.9890   31.0930 C   0  0  0  0  0  0  0  0  0  0  0  0
   38.3930   25.2820   32.2150 C   0  0  0  0  0  0  0  0  0  0  0  0
   38.0150   25.8520   33.4140 C   0  0  0  0  0  0  0  0  0  0  0  0
   37.3600   27.0090   33.5180 N   0  0  0  0  0  0  0  0  0  0  0  0
   37.1040   27.7410   30.3260 H   0  0  0  0  0  0  0  0  0  0  0  0
   38.2850   25.6580   30.0910 H   0  0  0  0  0  0  0  0  0  0  0  0
   38.9220   24.3440   32.1440 H   0  0  0  0  0  0  0  0  0  0  0  0
   37.7200   25.3700   35.8540 C   0  0  0  0  0  0  0  0  0  0  0  0
   38.3480   25.1520   34.6370 C   0  0  0  0  0  0  0  0  0  0  0  0
   39.3350   24.1890   34.7070 C   0  0  0  0  0  0  0  0  0  0  0  0
   39.7000   23.4880   35.8350 C   0  0  0  0  0  0  0  0  0  0  0  0
   40.6180   22.5360   36.0860 N   0  0  0  0  0  0  0  0  0  0  0  0
   40.5250   22.2150   37.3930 C   0  0  0  0  0  0  0  0  0  0  0  0
   39.5350   22.9660   38.0080 C   0  0  0  0  0  0  0  0  0  0  0  0
   39.0280   23.7630   37.0070 C   0  0  0  0  0  0  0  0  0  0  0  0
   38.0400   24.7000   37.0190 C   0  0  0  0  0  0  0  0  0  0  0  0
   36.9230   26.1140   35.9010 H   0  0  0  0  0  0  0  0  0  0  0  0
   39.8970   23.9320   33.8130 H   0  0  0  0  0  0  0  0  0  0  0  0
   41.2600   22.1450   35.3810 H   0  0  0  0  0  0  0  0  0  0  0  0
   41.1740   21.4620   37.8250 H   0  0  0  0  0  0  0  0  0  0  0  0
   39.2750   22.8850   39.0620 H   0  0  0  0  0  0  0  0  0  0  0  0
   37.5260   24.8980   37.9510 H   0  0  0  0  0  0  0  0  0  0  0  0
   35.6740   31.2030   31.8770 C   0  0  0  0  0  0  0  0  0  0  0  0
   36.4060   30.0350   31.6500 C   0  0  0  0  0  0  0  0  0  0  0  0
   36.2960   28.9860   32.5570 C   0  0  0  0  0  0  0  0  0  0  0  0
   35.4860   29.1710   33.6010 N   0  0  0  0  0  0  0  0  0  0  0  0
   34.7800   30.3010   33.8190 C   0  0  0  0  0  0  0  0  0  0  0  0
   34.8780   31.3090   32.9580 N   0  0  0  0  0  0  0  0  0  0  0  0
   35.8360   31.9520   31.1080 H   0  0  0  0  0  0  0  0  0  0  0  0
   37.0550   29.9040   30.8020 H   0  0  0  0  0  0  0  0  0  0  0  0
   33.9190   30.4020   34.9930 C   0  0  0  0  0  0  0  0  0  0  0  0
   34.1430   31.4010   35.9160 C   0  0  0  0  0  0  0  0  0  0  0  0
   34.9630   32.0820   35.7240 H   0  0  0  0  0  0  0  0  0  0  0  0
   33.3440   31.5130   37.0300 C   0  0  0  0  0  0  0  0  0  0  0  0
   33.5700   32.3180   37.7160 H   0  0  0  0  0  0  0  0  0  0  0  0
   32.3120   30.6140   37.2180 C   0  0  0  0  0  3  0  0  0  0  0  0
   32.1020   29.6060   36.2720 C   0  0  0  0  0  3  0  0  0  0  0  0
   32.9120   29.5320   35.1890 N   0  0  0  0  0  0  0  0  0  0  0  0
  1 27  1  0  0  0  0
  1  6  1  0  0  0  0
  2  1  2  0  0  0  0
  3  2  1  0  0  0  0
  3  4  2  0  0  0  0
  4  5  1  0  0  0  0
  5  6  2  0  0  0  0
  5 11  1  0  0  0  0
  7  2  1  0  0  0  0
  8  3  1  0  0  0  0
  9  4  1  0  0  0  0
 10 19  1  0  0  0  0
 10 18  1  0  0  0  0
 11 12  1  0  0  0  0
 11 10  2  0  0  0  0
 12 13  2  0  0  0  0
 13 14  1  0  0  0  0
 13 17  1  0  0  0  0
 14 15  1  0  0  0  0
 15 22  1  0  0  0  0
 15 16  2  0  0  0  0
 16 23  1  0  0  0  0
 17 18  2  0  0  0  0
 17 16  1  0  0  0  0
 18 24  1  0  0  0  0
 20 12  1  0  0  0  0
 21 14  1  0  0  0  0
 25 30  1  0  0  0  0
 26 25  2  0  0  0  0
 26 27  1  0  0  0  0
 27 28  2  0  0  0  0
 28 29  1  0  0  0  0
 29 33  1  0  0  0  0
 30 29  2  0  0  0  0
 31 25  1  0  0  0  0
 32 26  1  0  0  0  0
 33 40  2  0  0  0  0
 33 34  1  0  0  0  0
 34 36  2  0  0  0  0
 35 34  1  0  0  0  0
 36 38  1  0  0  0  0
 36 37  1  0  0  0  0
 39 38  2  0  0  0  0
 40 39  1  0  0  0  0
M  END
>  <minimizedAffinity>
-6.45825338

$$$$

 OpenBabel03262522413D

 40 44  0  0  0  0  0  0  0  0999 V2000
   36.7270   27.7240   33.1890 C   0  0  0  0  0  0  0  0  0  0  0  0
   36.0850   28.3240   34.2410 C   0  0  0  0  0  0  0  0  0  0  0  0
   35.6040   29.6140   34.1910 C   0  0  0  0  0  0  0  0  0  0  0  0
   35.7580   30.3580   33.0500 C   0  0  0  0  0  0  0  0  0  0  0  0
   36.4080   29.7240   32.0110 C   0  0  0  0  0  0  0  0  0  0  0  0
   36.8700   28.4740   32.0710 N   0  0  0  0  0  0  0  0  0  0  0  0
   35.9640   27.7380   35.1410 H   0  0  0  0  0  0  0  0  0  0  0  0
   35.1150   29.9880   35.0790 H   0  0  0  0  0  0  0  0  0  0  0  0
   35.3880   31.3710   32.9900 H   0  0  0  0  0  0  0  0  0  0  0  0
   36.1420   31.7480   30.5610 C   0  0  0  0  0  0  0  0  0  0  0  0
   36.6020   30.4580   30.7780 C   0  0  0  0  0  0  0  0  0  0  0  0
   37.2710   29.9350   29.6900 C   0  0  0  0  0  0  0  0  0  0  0  0
   37.4890   30.5790   28.4920 C   0  0  0  0  0  0  0  0  0  0  0  0
   38.1060   30.2340   27.3460 N   0  0  0  0  0  0  0  0  0  0  0  0
   38.0080   31.2810   26.5000 C   0  0  0  0  0  0  0  0  0  0  0  0
   37.3180   32.3250   27.0970 C   0  0  0  0  0  0  0  0  0  0  0  0
   37.0000   31.8600   28.3530 C   0  0  0  0  0  0  0  0  0  0  0  0
   36.3280   32.4450   29.3830 C   0  0  0  0  0  0  0  0  0  0  0  0
   35.6000   32.2480   31.3650 H   0  0  0  0  0  0  0  0  0  0  0  0
   37.6780   28.9290   29.7440 H   0  0  0  0  0  0  0  0  0  0  0  0
   38.5610   29.3250   27.1800 H   0  0  0  0  0  0  0  0  0  0  0  0
   38.4370   31.2300   25.5060 H   0  0  0  0  0  0  0  0  0  0  0  0
   37.1120   33.2760   26.6100 H   0  0  0  0  0  0  0  0  0  0  0  0
   35.9550   33.4530   29.2510 H   0  0  0  0  0  0  0  0  0  0  0  0
   37.8790   24.2560   32.2620 C   0  0  0  0  0  0  0  0  0  0  0  0
   37.3760   25.5500   32.1070 C   0  0  0  0  0  0  0  0  0  0  0  0
   37.2410   26.3580   33.2320 C   0  0  0  0  0  0  0  0  0  0  0  0
   37.6070   25.8310   34.4020 N   0  0  0  0  0  0  0  0  0  0  0  0
   38.0920   24.5800   34.5510 C   0  0  0  0  0  0  0  0  0  0  0  0
   38.2240   23.8010   33.4820 N   0  0  0  0  0  0  0  0  0  0  0  0
   37.9410   23.7180   31.3220 H   0  0  0  0  0  0  0  0  0  0  0  0
   37.0860   25.9580   31.1550 H   0  0  0  0  0  0  0  0  0  0  0  0
   38.4650   24.1000   35.8770 C   0  0  0  0  0  0  0  0  0  0  0  0
   37.7520   24.5240   36.9790 C   0  0  0  0  0  0  0  0  0  0  0  0
   36.9300   25.2070   36.8070 H   0  0  0  0  0  0  0  0  0  0  0  0
   38.0880   24.0840   38.2370 C   0  0  0  0  0  0  0  0  0  0  0  0
   37.4900   24.4520   39.0610 H   0  0  0  0  0  0  0  0  0  0  0  0
   39.1480   23.2110   38.3910 C   0  0  0  0  0  3  0  0  0  0  0  0
   39.8600   22.7940   37.2630 C   0  0  0  0  0  3  0  0  0  0  0  0
   39.4960   23.2520   36.0400 N   0  0  0  0  0  0  0  0  0  0  0  0
  1 27  1  0  0  0  0
  1  2  1  0  0  0  0
  2  7  1  0  0  0  0
  3  2  2  0  0  0  0
  3  8  1  0  0  0  0
  4  3  1  0  0  0  0
  5  6  1  0  0  0  0
  5  4  2  0  0  0  0
  6  1  2  0  0  0  0
  9  4  1  0  0  0  0
 10 11  1  0  0  0  0
 10 19  1  0  0  0  0
 11  5  1  0  0  0  0
 12 20  1  0  0  0  0
 12 11  2  0  0  0  0
 13 12  1  0  0  0  0
 14 13  1  0  0  0  0
 15 16  2  0  0  0  0
 15 14  1  0  0  0  0
 16 17  1  0  0  0  0
 17 13  2  0  0  0  0
 17 18  1  0  0  0  0
 18 10  2  0  0  0  0
 21 14  1  0  0  0  0
 22 15  1  0  0  0  0
 23 16  1  0  0  0  0
 24 18  1  0  0  0  0
 25 30  1  0  0  0  0
 26 25  2  0  0  0  0
 26 27  1  0  0  0  0
 27 28  2  0  0  0  0
 28 29  1  0  0  0  0
 29 33  1  0  0  0  0
 30 29  2  0  0  0  0
 31 25  1  0  0  0  0
 32 26  1  0  0  0  0
 33 40  2  0  0  0  0
 33 34  1  0  0  0  0
 34 36  2  0  0  0  0
 35 34  1  0  0  0  0
 36 38  1  0  0  0  0
 36 37  1  0  0  0  0
 39 38  2  0  0  0  0
 40 39  1  0  0  0  0
M  END
>  <minimizedAffinity>
-6.40504122

$$$$
