
 OpenBabel03272508443D

 26 28  0  0  0  0  0  0  0  0999 V2000
   35.7490   30.1040   50.0120 C   0  0  0  0  0  0  0  0  0  0  0  0
   36.6970   29.7090   50.9370 C   0  0  0  0  0  0  0  0  0  0  0  0
   37.8040   30.4740   50.5760 C   0  0  0  0  0  0  0  0  0  0  0  0
   37.5010   31.2680   49.4970 C   0  0  0  0  0  0  0  0  0  0  0  0
   36.2480   31.0200   49.1780 O   0  0  0  0  0  0  0  0  0  0  0  0
   36.6050   29.0010   51.7260 H   0  0  0  0  0  0  0  0  0  0  0  0
   38.7760   30.4680   51.0550 H   0  0  0  0  0  0  0  0  0  0  0  0
   38.3710   32.2150   48.8060 C   0  0  0  0  0  0  0  0  0  0  0  0
   38.7630   33.3600   49.4960 C   0  0  0  0  0  0  0  0  0  0  0  0
   38.4630   33.5930   50.5110 H   0  0  0  0  0  0  0  0  0  0  0  0
   39.5960   34.2840   48.8550 C   0  0  0  0  0  0  0  0  0  0  0  0
   39.9630   35.2030   49.2850 H   0  0  0  0  0  0  0  0  0  0  0  0
   39.9410   33.9320   47.5670 C   0  0  0  0  0  3  0  0  0  0  0  0
   39.5710   32.8100   46.8610 C   0  0  0  0  0  3  0  0  0  0  0  0
   38.7660   31.9650   47.5450 N   0  0  0  0  0  0  0  0  0  0  0  0
   34.3760   29.5840   49.9560 C   0  0  0  0  0  0  0  0  0  0  0  0
   33.6310   29.8020   50.9480 O   0  0  0  0  0  0  0  0  0  0  0  0
   32.4760   27.2510   47.9270 C   0  0  0  0  0  0  0  0  0  0  0  0
   33.0090   27.4290   46.6450 C   0  0  0  0  0  0  0  0  0  0  0  0
   34.0290   28.3540   46.4690 C   0  0  0  0  0  0  0  0  0  0  0  0
   34.4520   29.0390   47.5620 N   0  0  0  0  0  0  0  0  0  0  0  0
   33.9200   28.8480   48.7910 C   0  0  0  0  0  0  0  0  0  0  0  0
   32.9320   27.9550   48.9740 N   0  0  0  0  0  0  0  0  0  0  0  0
   31.6800   26.5420   48.1160 H   0  0  0  0  0  0  0  0  0  0  0  0
   32.6240   26.8450   45.8120 H   0  0  0  0  0  0  0  0  0  0  0  0
   34.4750   28.5250   45.4900 H   0  0  0  0  0  0  0  0  0  0  0  0
  1  2  2  0  0  0  0
  2  6  1  0  0  0  0
  3  2  1  0  0  0  0
  3  7  1  0  0  0  0
  4  3  2  0  0  0  0
  5  4  1  0  0  0  0
  5  1  1  0  0  0  0
  8  9  1  0  0  0  0
  8  4  1  0  0  0  0
  9 10  1  0  0  0  0
 11 12  1  0  0  0  0
 11  9  2  0  0  0  0
 13 11  1  0  0  0  0
 14 15  1  0  0  0  0
 14 13  2  0  0  0  0
 15  8  2  0  0  0  0
 16  1  1  0  0  0  0
 16 17  2  0  0  0  0
 18 24  1  0  0  0  0
 18 23  1  0  0  0  0
 19 18  2  0  0  0  0
 20 19  1  0  0  0  0
 20 21  2  0  0  0  0
 21 22  1  0  0  0  0
 22 23  2  0  0  0  0
 22 16  1  0  0  0  0
 25 19  1  0  0  0  0
 26 20  1  0  0  0  0
M  END
>  <minimizedAffinity>
-5.6612854

>  <minimizedRMSD>
2.19049859

$$$$
