
     RDKit          3D

 28 30  0  0  0  0  0  0  0  0999 V2000
   35.1946   30.4331   48.9760 C   0  0  0  0  0  0  0  0  0  0  0  0
   34.3336   30.1839   49.8597 O   0  0  0  0  0  0  0  0  0  0  0  0
   33.3192   30.0961   45.8880 C   0  0  0  0  0  0  0  0  0  0  0  0
   34.3169   30.0075   44.9115 C   0  0  0  0  0  0  0  0  0  0  0  0
   35.6459   30.0631   45.3078 C   0  0  0  0  0  0  0  0  0  0  0  0
   35.9009   30.2016   46.6338 N   0  0  0  0  0  0  0  0  0  0  0  0
   34.9173   30.2851   47.5588 C   0  0  0  0  0  0  0  0  0  0  0  0
   33.6258   30.2324   47.1873 N   0  0  0  0  0  0  0  0  0  0  0  0
   36.5169   30.8879   49.4268 C   0  0  0  0  0  0  0  0  0  0  0  0
   37.3109   30.2066   50.3313 C   0  0  0  0  0  0  0  0  0  0  0  0
   38.4321   31.0301   50.4228 C   0  0  0  0  0  0  0  0  0  0  0  0
   38.2842   32.1267   49.6105 C   0  0  0  0  0  0  0  0  0  0  0  0
   37.1126   32.0117   49.0198 O   0  0  0  0  0  0  0  0  0  0  0  0
   32.2677   30.0577   45.6290 H   0  0  0  0  0  0  0  0  0  0  0  0
   34.0428   29.8973   43.8638 H   0  0  0  0  0  0  0  0  0  0  0  0
   36.4564   29.9981   44.5829 H   0  0  0  0  0  0  0  0  0  0  0  0
   37.1163   29.2875   50.8308 H   0  0  0  0  0  0  0  0  0  0  0  0
   39.3086   30.8582   51.0360 H   0  0  0  0  0  0  0  0  0  0  0  0
   39.2202   33.2296   49.4111 C   0  0  0  0  0  0  0  0  0  0  0  0
   39.3292   34.1796   50.4237 C   0  0  0  0  0  0  0  0  0  0  0  0
   38.7658   34.1542   51.3485 H   0  0  0  0  0  0  0  0  0  0  0  0
   40.2198   35.2461   50.2556 C   0  0  0  0  0  0  0  0  0  0  0  0
   40.3903   36.0401   50.9670 H   0  0  0  0  0  0  0  0  0  0  0  0
   40.9069   35.2240   49.0609 C   0  0  0  0  0  0  0  0  0  0  0  0
   40.8199   34.3000   48.0440 C   0  0  0  0  0  0  0  0  0  0  0  0
   39.9407   33.3007   48.2773 N   0  0  0  0  0  0  0  0  0  0  0  0
   41.6138   36.0500   48.9015 H   0  0  0  0  0  0  0  0  0  0  0  0
   41.4265   34.4126   47.1558 H   0  0  0  0  0  0  0  0  0  0  0  0
  1  9  1  0
  1  2  2  0
  3  8  2  0
  4  5  2  0
  4  3  1  0
  5  6  1  0
  6  7  2  0
  7  1  1  0
  8  7  1  0
  9 10  2  0
 10 11  1  0
 12 11  2  0
 13  9  1  0
 13 12  1  0
  3 14  1  0
  4 15  1  0
  5 16  1  0
 10 17  1  0
 11 18  1  0
 19 20  2  0
 20 21  1  0
 20 22  1  0
 22 23  1  0
 22 24  2  0
 24 25  1  0
 25 26  2  0
 26 19  1  0
 24 27  1  0
 25 28  1  0
 12 19  1  0
M  ISO  7  14  14  15  14  16  14  17  14  18  14  21  15  23  16
M  END
>  <DihAtoms>  (1) 
10,11,18,19

>  <DihDeg>  (1) 
179.99194290065867

$$$$
