
 OpenBabel03272507473D

 45 49  0  0  1  0  0  0  0  0999 V2000
   32.7290   28.1650   47.3720 N   0  0  0  0  0  0  0  0  0  0  0  0
   33.3460   27.6730   48.5560 C   0  0  0  0  0  0  0  0  0  0  0  0
   34.5180   28.4240   49.0620 C   0  0  0  0  0  0  0  0  0  0  0  0
   35.4330   28.9770   48.0630 C   0  0  1  0  0  0  0  0  0  0  0  0
   34.7020   29.4280   46.7840 C   0  0  0  0  0  0  0  0  0  0  0  0
   33.7610   28.2830   46.3770 C   0  0  0  0  0  0  0  0  0  0  0  0
   33.7020   26.6280   48.3240 H   0  0  0  0  0  0  0  0  0  0  0  0
   32.6130   27.5340   49.3780 H   0  0  0  0  0  0  0  0  0  0  0  0
   35.0610   27.8140   49.8030 H   0  0  0  0  0  0  0  0  0  0  0  0
   34.0190   29.3190   49.5650 H   0  0  0  0  0  0  0  0  0  0  0  0
   36.1940   28.2440   47.6790 H   0  0  0  0  0  0  0  0  0  0  0  0
   34.0790   30.2930   47.0560 H   0  0  0  0  0  0  0  0  0  0  0  0
   35.4500   29.6030   46.0060 H   0  0  0  0  0  0  0  0  0  0  0  0
   34.3870   27.3910   46.2430 H   0  0  0  0  0  0  0  0  0  0  0  0
   33.2820   28.5190   45.4120 H   0  0  0  0  0  0  0  0  0  0  0  0
   35.9240   30.6660   49.7720 C   0  0  0  0  0  0  0  0  0  0  0  0
   36.1930   30.1730   48.5090 C   0  0  0  0  0  0  0  0  0  0  0  0
   37.0950   30.7360   47.6470 C   0  0  0  0  0  0  0  0  0  0  0  0
   37.7810   31.8770   48.0680 C   0  0  0  0  0  0  0  0  0  0  0  0
   37.5120   32.3660   49.3220 C   0  0  0  0  0  0  0  0  0  0  0  0
   36.5970   31.7960   50.2030 C   0  0  0  0  0  0  0  0  0  0  0  0
   38.2930   33.5120   49.5690 O   0  0  0  0  0  0  0  0  0  0  0  0
   39.2960   33.4770   48.5560 C   0  0  0  0  0  0  0  0  0  0  0  0
   38.7420   32.7170   47.5120 O   0  0  0  0  0  0  0  0  0  0  0  0
   35.2540   30.3090   50.5400 H   0  0  0  0  0  0  0  0  0  0  0  0
   37.2780   30.3330   46.6850 H   0  0  0  0  0  0  0  0  0  0  0  0
   36.4380   32.2500   51.1950 H   0  0  0  0  0  0  0  0  0  0  0  0
   39.4010   34.5270   48.1920 H   0  0  0  0  0  0  0  0  0  0  0  0
   40.2570   33.1070   48.9430 H   0  0  0  0  0  0  0  0  0  0  0  0
   31.3510   28.4900   47.1720 C   0  0  0  0  0  0  0  0  0  0  0  0
   30.8050   29.0590   46.0220 C   0  0  0  0  0  0  0  0  0  0  0  0
   29.4350   29.3040   46.0160 C   0  0  0  0  0  0  0  0  0  0  0  0
   28.7100   28.9820   47.1130 N   0  0  0  0  0  0  0  0  0  0  0  0
   29.2590   28.4340   48.2110 C   0  0  0  0  0  0  0  0  0  0  0  0
   30.5710   28.1950   48.2280 N   0  0  0  0  0  0  0  0  0  0  0  0
   31.4950   29.2570   45.2440 H   0  0  0  0  0  0  0  0  0  0  0  0
   29.0240   29.7430   45.1260 H   0  0  0  0  0  0  0  0  0  0  0  0
   28.4180   28.1100   49.3590 C   0  0  0  0  0  0  0  0  0  0  0  0
   28.9350   27.3860   50.4130 C   0  0  0  0  0  0  0  0  0  0  0  0
   29.9790   27.0570   50.3800 H   0  0  0  0  0  0  0  0  0  0  0  0
   28.1980   27.0390   51.5410 C   0  0  0  0  0  0  0  0  0  0  0  0
   28.6080   26.4720   52.3630 H   0  0  0  0  0  0  0  0  0  0  0  0
   26.8830   27.4500   51.5910 C   0  0  0  0  0  0  0  0  0  0  0  0
   26.3700   28.1840   50.5160 C   0  0  0  0  0  0  0  0  0  0  0  0
   27.1200   28.5060   49.4250 N   0  0  0  0  0  0  0  0  0  0  0  0
  1  2  1  0  0  0  0
  2  3  1  0  0  0  0
  2  8  1  0  0  0  0
  3 10  1  0  0  0  0
  3  9  1  0  0  0  0
  4 11  1  6  0  0  0
  4 17  1  0  0  0  0
  4  3  1  0  0  0  0
  5 12  1  0  0  0  0
  5  4  1  0  0  0  0
  6  5  1  0  0  0  0
  6  1  1  0  0  0  0
  7  2  1  0  0  0  0
 13  5  1  0  0  0  0
 14  6  1  0  0  0  0
 15  6  1  0  0  0  0
 16 21  1  0  0  0  0
 16 25  1  0  0  0  0
 17 16  2  0  0  0  0
 18 19  2  0  0  0  0
 18 17  1  0  0  0  0
 19 20  1  0  0  0  0
 20 22  1  0  0  0  0
 20 21  2  0  0  0  0
 21 27  1  0  0  0  0
 23 29  1  0  0  0  0
 23 22  1  0  0  0  0
 24 19  1  0  0  0  0
 24 23  1  0  0  0  0
 26 18  1  0  0  0  0
 28 23  1  0  0  0  0
 30  1  1  0  0  0  0
 30 35  1  0  0  0  0
 31 30  2  0  0  0  0
 32 31  1  0  0  0  0
 32 33  2  0  0  0  0
 33 34  1  0  0  0  0
 34 35  2  0  0  0  0
 34 38  1  0  0  0  0
 36 31  1  0  0  0  0
 37 32  1  0  0  0  0
 38 45  2  0  0  0  0
 38 39  1  0  0  0  0
 39 41  2  0  0  0  0
 40 39  1  0  0  0  0
 41 43  1  0  0  0  0
 41 42  1  0  0  0  0
 44 43  2  0  0  0  0
 45 44  1  0  0  0  0
M  END
>  <minimizedAffinity>
-7.77526188

>  <minimizedRMSD>
0.592412949

$$$$
