
 OpenBabel03272508073D

 34 37  0  0  0  0  0  0  0  0999 V2000
   37.3260   26.5850   34.2860 C   0  0  0  0  0  0  0  0  0  0  0  0
   37.2090   26.8910   32.9380 C   0  0  0  0  0  0  0  0  0  0  0  0
   36.5290   28.0850   32.7900 C   0  0  0  0  0  0  0  0  0  0  0  0
   36.2560   28.4660   34.0740 N   0  0  0  0  0  0  0  0  0  0  0  0
   36.7190   27.5960   34.9410 N   0  0  0  0  0  0  0  0  0  0  0  0
   37.5750   26.3150   32.0860 H   0  0  0  0  0  0  0  0  0  0  0  0
   36.2480   28.6390   31.9060 H   0  0  0  0  0  0  0  0  0  0  0  0
   37.9750   25.4180   34.8650 C   0  0  0  0  0  0  0  0  0  0  0  0
   37.8250   25.1940   36.2630 C   0  0  0  0  0  0  0  0  0  0  0  0
   38.4520   24.0730   36.7990 C   0  0  0  0  0  0  0  0  0  0  0  0
   39.1660   23.2640   35.9670 N   0  0  0  0  0  0  0  0  0  0  0  0
   39.2910   23.5030   34.6400 C   0  0  0  0  0  0  0  0  0  0  0  0
   38.6920   24.5820   34.1010 N   0  0  0  0  0  0  0  0  0  0  0  0
   37.2450   25.8750   36.8710 H   0  0  0  0  0  0  0  0  0  0  0  0
   39.8460   22.8770   33.9810 H   0  0  0  0  0  0  0  0  0  0  0  0
   38.3150   23.8080   38.2580 C   0  0  0  0  0  0  0  0  0  0  0  0
   38.0160   25.0230   38.8300 F   0  0  0  0  0  0  0  0  0  0  0  0
   37.3070   22.9070   38.5490 F   0  0  0  0  0  0  0  0  0  0  0  0
   39.5170   23.3650   38.8180 F   0  0  0  0  0  0  0  0  0  0  0  0
   35.5570   29.6640   34.5200 C   0  0  0  0  0  0  0  0  0  0  0  0
   34.2340   29.9190   34.1190 C   0  0  0  0  0  0  0  0  0  0  0  0
   33.6170   31.0450   34.5770 C   0  0  0  0  0  0  0  0  0  0  0  0
   34.3240   31.9310   35.4420 C   0  0  0  0  0  0  0  0  0  0  0  0
   35.9710   31.0710   35.5930 S   0  0  0  0  0  0  0  0  0  0  0  0
   33.6710   29.2670   33.4630 H   0  0  0  0  0  0  0  0  0  0  0  0
   32.6160   31.3910   34.3740 H   0  0  0  0  0  0  0  0  0  0  0  0
   33.9520   33.1740   36.0790 C   0  0  0  0  0  0  0  0  0  0  0  0
   34.0240   33.2970   37.4510 C   0  0  0  0  0  0  0  0  0  0  0  0
   34.3640   32.4310   37.9920 H   0  0  0  0  0  0  0  0  0  0  0  0
   33.6460   34.5240   37.9580 C   0  0  0  0  0  0  0  0  0  0  0  0
   33.7020   34.6220   39.0360 H   0  0  0  0  0  0  0  0  0  0  0  0
   33.2290   35.5450   37.1290 C   0  0  0  0  0  3  0  0  0  0  0  0
   33.1840   35.3450   35.7620 C   0  0  0  0  0  3  0  0  0  0  0  0
   33.5560   34.1370   35.2650 N   0  0  0  0  0  0  0  0  0  0  0  0
  1  8  1  0  0  0  0
  1  5  2  0  0  0  0
  2  1  1  0  0  0  0
  3  2  2  0  0  0  0
  3  4  1  0  0  0  0
  4 20  1  0  0  0  0
  4  5  1  0  0  0  0
  6  2  1  0  0  0  0
  7  3  1  0  0  0  0
  8  9  1  0  0  0  0
  9 10  2  0  0  0  0
  9 14  1  0  0  0  0
 10 16  1  0  0  0  0
 11 10  1  0  0  0  0
 12 11  2  0  0  0  0
 13 12  1  0  0  0  0
 13  8  2  0  0  0  0
 15 12  1  0  0  0  0
 16 18  1  0  0  0  0
 16 19  1  0  0  0  0
 16 17  1  0  0  0  0
 20 24  1  0  0  0  0
 21 20  2  0  0  0  0
 21 22  1  0  0  0  0
 22 23  2  0  0  0  0
 23 24  1  0  0  0  0
 23 27  1  0  0  0  0
 25 21  1  0  0  0  0
 26 22  1  0  0  0  0
 27 28  1  0  0  0  0
 28 30  2  0  0  0  0
 28 29  1  0  0  0  0
 30 31  1  0  0  0  0
 32 30  1  0  0  0  0
 33 32  2  0  0  0  0
 34 33  1  0  0  0  0
 34 27  2  0  0  0  0
M  END
>  <minimizedAffinity>
-6.23168325

$$$$

 OpenBabel03272508073D

 34 37  0  0  0  0  0  0  0  0999 V2000
   37.4770   24.1670   31.2600 C   0  0  0  0  0  0  0  0  0  0  0  0
   38.3670   24.9700   30.5600 C   0  0  0  0  0  0  0  0  0  0  0  0
   38.1720   26.2930   30.9080 C   0  0  0  0  0  0  0  0  0  0  0  0
   37.1550   26.2430   31.8200 N   0  0  0  0  0  0  0  0  0  0  0  0
   36.7540   25.0100   32.0250 N   0  0  0  0  0  0  0  0  0  0  0  0
   39.1220   24.6590   29.8350 H   0  0  0  0  0  0  0  0  0  0  0  0
   38.6650   27.1960   30.5780 H   0  0  0  0  0  0  0  0  0  0  0  0
   37.3590   22.7190   31.1820 C   0  0  0  0  0  0  0  0  0  0  0  0
   36.3460   22.0870   31.9600 C   0  0  0  0  0  0  0  0  0  0  0  0
   36.2490   20.7020   31.8730 C   0  0  0  0  0  0  0  0  0  0  0  0
   37.1160   20.0360   31.0610 N   0  0  0  0  0  0  0  0  0  0  0  0
   38.0710   20.6630   30.3330 C   0  0  0  0  0  0  0  0  0  0  0  0
   38.1820   22.0040   30.4030 N   0  0  0  0  0  0  0  0  0  0  0  0
   35.6880   22.6740   32.5860 H   0  0  0  0  0  0  0  0  0  0  0  0
   38.7530   20.1520   29.6960 H   0  0  0  0  0  0  0  0  0  0  0  0
   35.1990   20.0100   32.6720 C   0  0  0  0  0  0  0  0  0  0  0  0
   35.1030   20.7150   33.8490 F   0  0  0  0  0  0  0  0  0  0  0  0
   33.9660   19.9980   32.0450 F   0  0  0  0  0  0  0  0  0  0  0  0
   35.5740   18.7030   32.9950 F   0  0  0  0  0  0  0  0  0  0  0  0
   36.5390   27.3560   32.5310 C   0  0  0  0  0  0  0  0  0  0  0  0
   35.6760   28.2450   31.8690 C   0  0  0  0  0  0  0  0  0  0  0  0
   35.1090   29.2600   32.5820 C   0  0  0  0  0  0  0  0  0  0  0  0
   35.4080   29.3950   33.9700 C   0  0  0  0  0  0  0  0  0  0  0  0
   36.5710   27.9650   34.2430 S   0  0  0  0  0  0  0  0  0  0  0  0
   35.4300   28.1700   30.8170 H   0  0  0  0  0  0  0  0  0  0  0  0
   34.4310   30.0240   32.2380 H   0  0  0  0  0  0  0  0  0  0  0  0
   34.9760   30.3440   34.9710 C   0  0  0  0  0  0  0  0  0  0  0  0
   35.8920   31.1900   35.5630 C   0  0  0  0  0  0  0  0  0  0  0  0
   36.9120   31.0940   35.2360 H   0  0  0  0  0  0  0  0  0  0  0  0
   35.3770   32.0560   36.5060 C   0  0  0  0  0  0  0  0  0  0  0  0
   36.0950   32.7210   36.9710 H   0  0  0  0  0  0  0  0  0  0  0  0
   34.0330   32.0590   36.8200 C   0  0  0  0  0  3  0  0  0  0  0  0
   33.1770   31.1800   36.1840 C   0  0  0  0  0  3  0  0  0  0  0  0
   33.6850   30.3280   35.2560 N   0  0  0  0  0  0  0  0  0  0  0  0
  1  5  2  0  0  0  0
  2  3  2  0  0  0  0
  2  1  1  0  0  0  0
  3  4  1  0  0  0  0
  4  5  1  0  0  0  0
  4 20  1  0  0  0  0
  6  2  1  0  0  0  0
  7  3  1  0  0  0  0
  8  1  1  0  0  0  0
  8  9  1  0  0  0  0
  9 14  1  0  0  0  0
 10  9  2  0  0  0  0
 10 16  1  0  0  0  0
 11 10  1  0  0  0  0
 12 13  1  0  0  0  0
 12 11  2  0  0  0  0
 13  8  2  0  0  0  0
 15 12  1  0  0  0  0
 16 19  1  0  0  0  0
 16 17  1  0  0  0  0
 18 16  1  0  0  0  0
 20 24  1  0  0  0  0
 21 20  2  0  0  0  0
 21 22  1  0  0  0  0
 22 23  2  0  0  0  0
 23 24  1  0  0  0  0
 23 27  1  0  0  0  0
 25 21  1  0  0  0  0
 26 22  1  0  0  0  0
 27 34  2  0  0  0  0
 27 28  1  0  0  0  0
 28 30  2  0  0  0  0
 29 28  1  0  0  0  0
 30 32  1  0  0  0  0
 30 31  1  0  0  0  0
 33 32  2  0  0  0  0
 34 33  1  0  0  0  0
M  END
>  <minimizedAffinity>
-6.14776468

$$$$

 OpenBabel03272508073D

 34 37  0  0  0  0  0  0  0  0999 V2000
   37.3450   26.5850   34.2830 C   0  0  0  0  0  0  0  0  0  0  0  0
   37.3830   26.9910   32.9560 C   0  0  0  0  0  0  0  0  0  0  0  0
   36.6470   28.1500   32.8030 C   0  0  0  0  0  0  0  0  0  0  0  0
   36.1820   28.4090   34.0630 N   0  0  0  0  0  0  0  0  0  0  0  0
   36.5880   27.5020   34.9200 N   0  0  0  0  0  0  0  0  0  0  0  0
   37.8960   26.5080   32.1230 H   0  0  0  0  0  0  0  0  0  0  0  0
   36.4450   28.7560   31.9320 H   0  0  0  0  0  0  0  0  0  0  0  0
   37.9920   25.4160   34.8590 C   0  0  0  0  0  0  0  0  0  0  0  0
   37.8430   25.1900   36.2570 C   0  0  0  0  0  0  0  0  0  0  0  0
   38.4690   24.0670   36.7900 C   0  0  0  0  0  0  0  0  0  0  0  0
   39.1810   23.2590   35.9560 N   0  0  0  0  0  0  0  0  0  0  0  0
   39.3060   23.5000   34.6300 C   0  0  0  0  0  0  0  0  0  0  0  0
   38.7080   24.5810   34.0930 N   0  0  0  0  0  0  0  0  0  0  0  0
   37.2640   25.8700   36.8660 H   0  0  0  0  0  0  0  0  0  0  0  0
   39.8600   22.8750   33.9700 H   0  0  0  0  0  0  0  0  0  0  0  0
   38.3330   23.7990   38.2490 C   0  0  0  0  0  0  0  0  0  0  0  0
   39.5320   23.2490   38.6390 F   0  0  0  0  0  0  0  0  0  0  0  0
   38.0960   24.9460   38.9870 F   0  0  0  0  0  0  0  0  0  0  0  0
   37.3340   22.8580   38.5100 F   0  0  0  0  0  0  0  0  0  0  0  0
   35.3480   29.5240   34.4940 C   0  0  0  0  0  0  0  0  0  0  0  0
   35.8970   30.6010   35.2100 C   0  0  0  0  0  0  0  0  0  0  0  0
   35.0800   31.6290   35.5760 C   0  0  0  0  0  0  0  0  0  0  0  0
   33.6970   31.5840   35.2280 C   0  0  0  0  0  0  0  0  0  0  0  0
   33.5930   29.9600   34.3200 S   0  0  0  0  0  0  0  0  0  0  0  0
   36.9420   30.6640   35.4900 H   0  0  0  0  0  0  0  0  0  0  0  0
   35.3300   32.5240   36.1220 H   0  0  0  0  0  0  0  0  0  0  0  0
   32.6020   32.4970   35.4680 C   0  0  0  0  0  0  0  0  0  0  0  0
   32.1580   32.7220   36.7540 C   0  0  0  0  0  0  0  0  0  0  0  0
   32.6680   32.1870   37.5370 H   0  0  0  0  0  0  0  0  0  0  0  0
   31.1090   33.6100   36.8740 C   0  0  0  0  0  0  0  0  0  0  0  0
   30.7590   33.7880   37.8840 H   0  0  0  0  0  0  0  0  0  0  0  0
   30.5560   34.2210   35.7670 C   0  0  0  0  0  3  0  0  0  0  0  0
   31.0560   33.9430   34.5080 C   0  0  0  0  0  3  0  0  0  0  0  0
   32.0890   33.0690   34.3920 N   0  0  0  0  0  0  0  0  0  0  0  0
  1  8  1  0  0  0  0
  1  5  2  0  0  0  0
  2  1  1  0  0  0  0
  3  2  2  0  0  0  0
  3  4  1  0  0  0  0
  4 20  1  0  0  0  0
  4  5  1  0  0  0  0
  6  2  1  0  0  0  0
  7  3  1  0  0  0  0
  8  9  1  0  0  0  0
  9 10  2  0  0  0  0
  9 14  1  0  0  0  0
 10 16  1  0  0  0  0
 11 10  1  0  0  0  0
 12 11  2  0  0  0  0
 13 12  1  0  0  0  0
 13  8  2  0  0  0  0
 15 12  1  0  0  0  0
 16 19  1  0  0  0  0
 16 17  1  0  0  0  0
 16 18  1  0  0  0  0
 20 21  2  0  0  0  0
 21 25  1  0  0  0  0
 21 22  1  0  0  0  0
 22 26  1  0  0  0  0
 23 27  1  0  0  0  0
 23 22  2  0  0  0  0
 24 20  1  0  0  0  0
 24 23  1  0  0  0  0
 27 28  1  0  0  0  0
 28 30  2  0  0  0  0
 28 29  1  0  0  0  0
 30 31  1  0  0  0  0
 32 30  1  0  0  0  0
 33 32  2  0  0  0  0
 34 33  1  0  0  0  0
 34 27  2  0  0  0  0
M  END
>  <minimizedAffinity>
-6.02350044

$$$$

 OpenBabel03272508073D

 34 37  0  0  0  0  0  0  0  0999 V2000
   36.1420   28.4950   33.7460 C   0  0  0  0  0  0  0  0  0  0  0  0
   36.5980   28.1490   32.4810 C   0  0  0  0  0  0  0  0  0  0  0  0
   37.4640   27.0760   32.5780 C   0  0  0  0  0  0  0  0  0  0  0  0
   37.5010   26.8070   33.9170 N   0  0  0  0  0  0  0  0  0  0  0  0
   36.7340   27.6290   34.5930 N   0  0  0  0  0  0  0  0  0  0  0  0
   36.3480   28.6160   31.5280 H   0  0  0  0  0  0  0  0  0  0  0  0
   38.0120   26.5330   31.8210 H   0  0  0  0  0  0  0  0  0  0  0  0
   35.2160   29.5680   34.0770 C   0  0  0  0  0  0  0  0  0  0  0  0
   35.6760   30.6080   34.9340 C   0  0  0  0  0  0  0  0  0  0  0  0
   34.7770   31.6250   35.2400 C   0  0  0  0  0  0  0  0  0  0  0  0
   33.5230   31.5680   34.7110 N   0  0  0  0  0  0  0  0  0  0  0  0
   33.1130   30.5650   33.8990 C   0  0  0  0  0  0  0  0  0  0  0  0
   33.9680   29.5710   33.5900 N   0  0  0  0  0  0  0  0  0  0  0  0
   36.6860   30.5960   35.3220 H   0  0  0  0  0  0  0  0  0  0  0  0
   32.1350   30.5120   33.4810 H   0  0  0  0  0  0  0  0  0  0  0  0
   35.2260   32.7300   36.1330 C   0  0  0  0  0  0  0  0  0  0  0  0
   34.4880   33.8300   35.7610 F   0  0  0  0  0  0  0  0  0  0  0  0
   35.0030   32.4640   37.4720 F   0  0  0  0  0  0  0  0  0  0  0  0
   36.5730   33.0400   35.9330 F   0  0  0  0  0  0  0  0  0  0  0  0
   38.2560   25.7610   34.5970 C   0  0  0  0  0  0  0  0  0  0  0  0
   37.9000   25.3370   35.8880 C   0  0  0  0  0  0  0  0  0  0  0  0
   38.6250   24.3440   36.4750 C   0  0  0  0  0  0  0  0  0  0  0  0
   39.7210   23.7650   35.7690 C   0  0  0  0  0  0  0  0  0  0  0  0
   39.6840   24.7220   34.1700 S   0  0  0  0  0  0  0  0  0  0  0  0
   37.0740   25.7570   36.4500 H   0  0  0  0  0  0  0  0  0  0  0  0
   38.4920   23.9000   37.4480 H   0  0  0  0  0  0  0  0  0  0  0  0
   40.6600   22.7210   36.1140 C   0  0  0  0  0  0  0  0  0  0  0  0
   40.7400   22.2650   37.4140 C   0  0  0  0  0  0  0  0  0  0  0  0
   40.0780   22.7280   38.1250 H   0  0  0  0  0  0  0  0  0  0  0  0
   41.6680   21.2680   37.6370 C   0  0  0  0  0  0  0  0  0  0  0  0
   41.7320   20.9090   38.6580 H   0  0  0  0  0  0  0  0  0  0  0  0
   42.4500   20.7740   36.6140 C   0  0  0  0  0  3  0  0  0  0  0  0
   42.3120   21.2820   35.3360 C   0  0  0  0  0  3  0  0  0  0  0  0
   41.3990   22.2640   35.1180 N   0  0  0  0  0  0  0  0  0  0  0  0
  1  8  1  0  0  0  0
  1  5  2  0  0  0  0
  2  3  2  0  0  0  0
  2  1  1  0  0  0  0
  3  4  1  0  0  0  0
  4  5  1  0  0  0  0
  4 20  1  0  0  0  0
  6  2  1  0  0  0  0
  7  3  1  0  0  0  0
  8  9  1  0  0  0  0
  9 10  2  0  0  0  0
  9 14  1  0  0  0  0
 10 16  1  0  0  0  0
 11 10  1  0  0  0  0
 12 11  2  0  0  0  0
 13 12  1  0  0  0  0
 13  8  2  0  0  0  0
 15 12  1  0  0  0  0
 16 18  1  0  0  0  0
 17 16  1  0  0  0  0
 19 16  1  0  0  0  0
 20 21  2  0  0  0  0
 21 25  1  0  0  0  0
 21 22  1  0  0  0  0
 22 26  1  0  0  0  0
 23 27  1  0  0  0  0
 23 22  2  0  0  0  0
 24 20  1  0  0  0  0
 24 23  1  0  0  0  0
 27 28  1  0  0  0  0
 28 30  2  0  0  0  0
 28 29  1  0  0  0  0
 30 31  1  0  0  0  0
 32 30  1  0  0  0  0
 33 32  2  0  0  0  0
 34 33  1  0  0  0  0
 34 27  2  0  0  0  0
M  END
>  <minimizedAffinity>
-6.00465631

$$$$

 OpenBabel03272508073D

 34 37  0  0  0  0  0  0  0  0999 V2000
   35.6390   29.2110   31.9400 C   0  0  0  0  0  0  0  0  0  0  0  0
   36.3080   29.2520   30.7250 C   0  0  0  0  0  0  0  0  0  0  0  0
   36.6850   27.9740   30.3580 C   0  0  0  0  0  0  0  0  0  0  0  0
   36.2220   27.1920   31.3790 N   0  0  0  0  0  0  0  0  0  0  0  0
   35.6150   27.9100   32.2950 N   0  0  0  0  0  0  0  0  0  0  0  0
   36.5310   30.1280   30.1120 H   0  0  0  0  0  0  0  0  0  0  0  0
   37.2160   27.6100   29.4900 H   0  0  0  0  0  0  0  0  0  0  0  0
   35.0780   30.3390   32.6680 C   0  0  0  0  0  0  0  0  0  0  0  0
   35.5940   30.6200   33.9650 C   0  0  0  0  0  0  0  0  0  0  0  0
   35.0460   31.7030   34.6470 C   0  0  0  0  0  0  0  0  0  0  0  0
   34.0600   32.4230   34.0430 N   0  0  0  0  0  0  0  0  0  0  0  0
   33.5880   32.1310   32.8080 C   0  0  0  0  0  0  0  0  0  0  0  0
   34.1050   31.0870   32.1310 N   0  0  0  0  0  0  0  0  0  0  0  0
   36.3800   30.0100   34.3900 H   0  0  0  0  0  0  0  0  0  0  0  0
   32.8180   32.6870   32.3280 H   0  0  0  0  0  0  0  0  0  0  0  0
   35.5640   32.0260   36.0060 C   0  0  0  0  0  0  0  0  0  0  0  0
   36.6750   31.2340   36.1780 F   0  0  0  0  0  0  0  0  0  0  0  0
   35.9260   33.3540   36.1410 F   0  0  0  0  0  0  0  0  0  0  0  0
   34.6460   31.6860   37.0020 F   0  0  0  0  0  0  0  0  0  0  0  0
   36.3340   25.7460   31.5170 C   0  0  0  0  0  0  0  0  0  0  0  0
   37.5270   25.1530   31.9630 C   0  0  0  0  0  0  0  0  0  0  0  0
   37.5750   23.7970   32.0930 C   0  0  0  0  0  0  0  0  0  0  0  0
   36.4240   23.0190   31.7710 C   0  0  0  0  0  0  0  0  0  0  0  0
   35.2130   24.3390   31.2570 S   0  0  0  0  0  0  0  0  0  0  0  0
   38.4180   25.7150   32.2150 H   0  0  0  0  0  0  0  0  0  0  0  0
   38.3990   23.1830   32.4190 H   0  0  0  0  0  0  0  0  0  0  0  0
   36.1700   21.5960   31.8030 C   0  0  0  0  0  0  0  0  0  0  0  0
   35.5330   21.0320   32.8890 C   0  0  0  0  0  0  0  0  0  0  0  0
   35.2510   21.7040   33.6800 H   0  0  0  0  0  0  0  0  0  0  0  0
   35.3390   19.6680   32.8210 C   0  0  0  0  0  0  0  0  0  0  0  0
   34.8390   19.2230   33.6730 H   0  0  0  0  0  0  0  0  0  0  0  0
   35.7610   18.9370   31.7290 C   0  0  0  0  0  3  0  0  0  0  0  0
   36.3930   19.5740   30.6780 C   0  0  0  0  0  3  0  0  0  0  0  0
   36.5830   20.9170   30.7470 N   0  0  0  0  0  0  0  0  0  0  0  0
  1  5  2  0  0  0  0
  1  8  1  0  0  0  0
  2  1  1  0  0  0  0
  3  2  2  0  0  0  0
  3  4  1  0  0  0  0
  4 20  1  0  0  0  0
  4  5  1  0  0  0  0
  6  2  1  0  0  0  0
  7  3  1  0  0  0  0
  8  9  1  0  0  0  0
  9 14  1  0  0  0  0
  9 10  2  0  0  0  0
 10 16  1  0  0  0  0
 11 10  1  0  0  0  0
 12 11  2  0  0  0  0
 13  8  2  0  0  0  0
 13 12  1  0  0  0  0
 15 12  1  0  0  0  0
 16 18  1  0  0  0  0
 16 17  1  0  0  0  0
 16 19  1  0  0  0  0
 20 21  2  0  0  0  0
 21 22  1  0  0  0  0
 21 25  1  0  0  0  0
 22 26  1  0  0  0  0
 23 27  1  0  0  0  0
 23 22  2  0  0  0  0
 24 20  1  0  0  0  0
 24 23  1  0  0  0  0
 27 28  1  0  0  0  0
 28 29  1  0  0  0  0
 30 28  2  0  0  0  0
 30 31  1  0  0  0  0
 32 30  1  0  0  0  0
 33 34  1  0  0  0  0
 33 32  2  0  0  0  0
 34 27  2  0  0  0  0
M  END
>  <minimizedAffinity>
-5.96814394

$$$$

 OpenBabel03272508073D

 34 37  0  0  0  0  0  0  0  0999 V2000
   35.6650   28.9060   33.4120 C   0  0  0  0  0  0  0  0  0  0  0  0
   36.0860   28.6880   32.1080 C   0  0  0  0  0  0  0  0  0  0  0  0
   37.1530   27.8100   32.1040 C   0  0  0  0  0  0  0  0  0  0  0  0
   37.3430   27.5230   33.4270 N   0  0  0  0  0  0  0  0  0  0  0  0
   36.4790   28.1570   34.1850 N   0  0  0  0  0  0  0  0  0  0  0  0
   35.6770   29.1170   31.1920 H   0  0  0  0  0  0  0  0  0  0  0  0
   37.7410   27.4070   31.2920 H   0  0  0  0  0  0  0  0  0  0  0  0
   34.5700   29.7610   33.8470 C   0  0  0  0  0  0  0  0  0  0  0  0
   34.6620   30.3630   35.1340 C   0  0  0  0  0  0  0  0  0  0  0  0
   33.6060   31.1770   35.5320 C   0  0  0  0  0  0  0  0  0  0  0  0
   32.5570   31.3490   34.6810 N   0  0  0  0  0  0  0  0  0  0  0  0
   32.4970   30.7620   33.4620 C   0  0  0  0  0  0  0  0  0  0  0  0
   33.5090   29.9710   33.0570 N   0  0  0  0  0  0  0  0  0  0  0  0
   35.5230   30.1870   35.7640 H   0  0  0  0  0  0  0  0  0  0  0  0
   31.6820   30.8910   32.7890 H   0  0  0  0  0  0  0  0  0  0  0  0
   33.6710   31.8240   36.8730 C   0  0  0  0  0  0  0  0  0  0  0  0
   33.1130   33.0710   36.7100 F   0  0  0  0  0  0  0  0  0  0  0  0
   32.9640   31.1310   37.8390 F   0  0  0  0  0  0  0  0  0  0  0  0
   34.9900   32.0060   37.2950 F   0  0  0  0  0  0  0  0  0  0  0  0
   38.3390   26.6350   34.0140 C   0  0  0  0  0  0  0  0  0  0  0  0
   39.6550   27.0750   34.2350 C   0  0  0  0  0  0  0  0  0  0  0  0
   40.5460   26.2130   34.8030 C   0  0  0  0  0  0  0  0  0  0  0  0
   40.1240   24.8960   35.1520 C   0  0  0  0  0  0  0  0  0  0  0  0
   38.3370   24.9250   34.6250 S   0  0  0  0  0  0  0  0  0  0  0  0
   40.0060   28.0680   33.9810 H   0  0  0  0  0  0  0  0  0  0  0  0
   41.5840   26.3820   35.0430 H   0  0  0  0  0  0  0  0  0  0  0  0
   40.8170   23.7790   35.7530 C   0  0  0  0  0  0  0  0  0  0  0  0
   42.1740   23.6230   35.5630 C   0  0  0  0  0  0  0  0  0  0  0  0
   42.6610   24.3670   34.9560 H   0  0  0  0  0  0  0  0  0  0  0  0
   42.7390   22.5250   36.1780 C   0  0  0  0  0  0  0  0  0  0  0  0
   43.8050   22.4010   36.0300 H   0  0  0  0  0  0  0  0  0  0  0  0
   41.9770   21.6530   36.9300 C   0  0  0  0  0  3  0  0  0  0  0  0
   40.6200   21.8760   37.0740 C   0  0  0  0  0  3  0  0  0  0  0  0
   40.0670   22.9580   36.4680 N   0  0  0  0  0  0  0  0  0  0  0  0
  1  8  1  0  0  0  0
  1  5  2  0  0  0  0
  2  1  1  0  0  0  0
  3  2  2  0  0  0  0
  3  4  1  0  0  0  0
  4 20  1  0  0  0  0
  4  5  1  0  0  0  0
  6  2  1  0  0  0  0
  7  3  1  0  0  0  0
  8  9  1  0  0  0  0
  9 10  2  0  0  0  0
  9 14  1  0  0  0  0
 10 16  1  0  0  0  0
 11 10  1  0  0  0  0
 12 11  2  0  0  0  0
 13 12  1  0  0  0  0
 13  8  2  0  0  0  0
 15 12  1  0  0  0  0
 16 19  1  0  0  0  0
 16 18  1  0  0  0  0
 17 16  1  0  0  0  0
 20 21  2  0  0  0  0
 20 24  1  0  0  0  0
 21 22  1  0  0  0  0
 22 26  1  0  0  0  0
 22 23  2  0  0  0  0
 23 27  1  0  0  0  0
 24 23  1  0  0  0  0
 25 21  1  0  0  0  0
 27 34  1  0  0  0  0
 28 27  2  0  0  0  0
 28 30  1  0  0  0  0
 29 28  1  0  0  0  0
 30 32  2  0  0  0  0
 31 30  1  0  0  0  0
 32 33  1  0  0  0  0
 34 33  2  0  0  0  0
M  END
>  <minimizedAffinity>
-5.94632149

$$$$

 OpenBabel03272508073D

 34 37  0  0  0  0  0  0  0  0999 V2000
   36.6390   27.7210   33.5210 C   0  0  0  0  0  0  0  0  0  0  0  0
   36.4890   28.4470   32.3490 C   0  0  0  0  0  0  0  0  0  0  0  0
   35.9070   29.6690   32.6300 C   0  0  0  0  0  0  0  0  0  0  0  0
   35.7230   29.6370   33.9840 N   0  0  0  0  0  0  0  0  0  0  0  0
   36.1490   28.5080   34.5000 N   0  0  0  0  0  0  0  0  0  0  0  0
   36.7670   28.1500   31.3360 H   0  0  0  0  0  0  0  0  0  0  0  0
   35.6360   30.4930   31.9860 H   0  0  0  0  0  0  0  0  0  0  0  0
   37.2110   26.3890   33.6580 C   0  0  0  0  0  0  0  0  0  0  0  0
   37.5670   25.9450   34.9640 C   0  0  0  0  0  0  0  0  0  0  0  0
   38.1130   24.6700   35.0750 C   0  0  0  0  0  0  0  0  0  0  0  0
   38.2740   23.9280   33.9440 N   0  0  0  0  0  0  0  0  0  0  0  0
   37.9270   24.3770   32.7150 C   0  0  0  0  0  0  0  0  0  0  0  0
   37.3970   25.6090   32.5850 N   0  0  0  0  0  0  0  0  0  0  0  0
   37.4130   26.5830   35.8230 H   0  0  0  0  0  0  0  0  0  0  0  0
   38.0490   23.8050   31.8250 H   0  0  0  0  0  0  0  0  0  0  0  0
   38.4950   24.1730   36.4260 C   0  0  0  0  0  0  0  0  0  0  0  0
   37.7110   23.0650   36.6500 F   0  0  0  0  0  0  0  0  0  0  0  0
   39.8280   23.8130   36.5090 F   0  0  0  0  0  0  0  0  0  0  0  0
   38.1970   25.1060   37.4230 F   0  0  0  0  0  0  0  0  0  0  0  0
   35.1480   30.6750   34.8310 C   0  0  0  0  0  0  0  0  0  0  0  0
   35.9280   31.3340   35.7960 C   0  0  0  0  0  0  0  0  0  0  0  0
   35.3480   32.3100   36.5510 C   0  0  0  0  0  0  0  0  0  0  0  0
   33.9750   32.6330   36.3460 C   0  0  0  0  0  0  0  0  0  0  0  0
   33.5120   31.4520   34.9800 S   0  0  0  0  0  0  0  0  0  0  0  0
   36.9720   31.1110   35.9760 H   0  0  0  0  0  0  0  0  0  0  0  0
   35.7940   32.9110   37.3270 H   0  0  0  0  0  0  0  0  0  0  0  0
   33.0960   33.5950   36.9730 C   0  0  0  0  0  0  0  0  0  0  0  0
   33.6110   34.5460   37.8290 C   0  0  0  0  0  0  0  0  0  0  0  0
   34.6750   34.5190   37.9900 H   0  0  0  0  0  0  0  0  0  0  0  0
   32.6890   35.4160   38.3750 C   0  0  0  0  0  0  0  0  0  0  0  0
   33.0920   36.1640   39.0480 H   0  0  0  0  0  0  0  0  0  0  0  0
   31.3470   35.3230   38.0690 C   0  0  0  0  0  3  0  0  0  0  0  0
   30.9060   34.3410   37.2010 C   0  0  0  0  0  3  0  0  0  0  0  0
   31.8150   33.4860   36.6650 N   0  0  0  0  0  0  0  0  0  0  0  0
  1  8  1  0  0  0  0
  1  5  2  0  0  0  0
  2  3  2  0  0  0  0
  2  1  1  0  0  0  0
  3  4  1  0  0  0  0
  4  5  1  0  0  0  0
  4 20  1  0  0  0  0
  6  2  1  0  0  0  0
  7  3  1  0  0  0  0
  8  9  1  0  0  0  0
  9 10  2  0  0  0  0
  9 14  1  0  0  0  0
 10 16  1  0  0  0  0
 11 10  1  0  0  0  0
 12 11  2  0  0  0  0
 13 12  1  0  0  0  0
 13  8  2  0  0  0  0
 15 12  1  0  0  0  0
 16 18  1  0  0  0  0
 16 17  1  0  0  0  0
 16 19  1  0  0  0  0
 20 24  1  0  0  0  0
 20 21  2  0  0  0  0
 21 25  1  0  0  0  0
 21 22  1  0  0  0  0
 22 26  1  0  0  0  0
 23 22  2  0  0  0  0
 23 27  1  0  0  0  0
 24 23  1  0  0  0  0
 27 28  1  0  0  0  0
 28 29  1  0  0  0  0
 28 30  2  0  0  0  0
 30 31  1  0  0  0  0
 32 30  1  0  0  0  0
 33 32  2  0  0  0  0
 34 27  2  0  0  0  0
 34 33  1  0  0  0  0
M  END
>  <minimizedAffinity>
-5.93513489

$$$$

 OpenBabel03272508073D

 34 37  0  0  0  0  0  0  0  0999 V2000
   37.6500   26.1220   34.0770 C   0  0  0  0  0  0  0  0  0  0  0  0
   36.8070   27.1300   34.5240 C   0  0  0  0  0  0  0  0  0  0  0  0
   36.6990   28.1090   33.5550 C   0  0  0  0  0  0  0  0  0  0  0  0
   37.4930   27.6530   32.5400 N   0  0  0  0  0  0  0  0  0  0  0  0
   38.0430   26.5000   32.8430 N   0  0  0  0  0  0  0  0  0  0  0  0
   36.2860   27.1920   35.4800 H   0  0  0  0  0  0  0  0  0  0  0  0
   36.1420   29.0350   33.5370 H   0  0  0  0  0  0  0  0  0  0  0  0
   38.0240   24.9120   34.7940 C   0  0  0  0  0  0  0  0  0  0  0  0
   37.9850   24.9390   36.2170 C   0  0  0  0  0  0  0  0  0  0  0  0
   38.3450   23.7740   36.8860 C   0  0  0  0  0  0  0  0  0  0  0  0
   38.7110   22.6860   36.1510 N   0  0  0  0  0  0  0  0  0  0  0  0
   38.7390   22.6900   34.7970 C   0  0  0  0  0  0  0  0  0  0  0  0
   38.3940   23.8080   34.1310 N   0  0  0  0  0  0  0  0  0  0  0  0
   37.6850   25.8360   36.7430 H   0  0  0  0  0  0  0  0  0  0  0  0
   39.0230   21.8460   34.2150 H   0  0  0  0  0  0  0  0  0  0  0  0
   38.3140   23.7670   38.3750 C   0  0  0  0  0  0  0  0  0  0  0  0
   37.3210   22.8810   38.7220 F   0  0  0  0  0  0  0  0  0  0  0  0
   39.5090   23.3530   38.9360 F   0  0  0  0  0  0  0  0  0  0  0  0
   37.9600   25.0160   38.8900 F   0  0  0  0  0  0  0  0  0  0  0  0
   37.7490   28.2870   31.2530 C   0  0  0  0  0  0  0  0  0  0  0  0
   36.8680   29.2520   30.7360 C   0  0  0  0  0  0  0  0  0  0  0  0
   37.1610   29.8290   29.5360 C   0  0  0  0  0  0  0  0  0  0  0  0
   38.3430   29.4400   28.8400 C   0  0  0  0  0  0  0  0  0  0  0  0
   39.0600   28.1700   30.0000 S   0  0  0  0  0  0  0  0  0  0  0  0
   35.9630   29.5680   31.2400 H   0  0  0  0  0  0  0  0  0  0  0  0
   36.6030   30.5790   28.9990 H   0  0  0  0  0  0  0  0  0  0  0  0
   38.9130   29.8580   27.5790 C   0  0  0  0  0  0  0  0  0  0  0  0
   39.9530   29.1450   27.0190 C   0  0  0  0  0  0  0  0  0  0  0  0
   40.2950   28.2870   27.5700 H   0  0  0  0  0  0  0  0  0  0  0  0
   40.4240   29.6280   25.8150 C   0  0  0  0  0  0  0  0  0  0  0  0
   41.2410   29.0690   25.3740 H   0  0  0  0  0  0  0  0  0  0  0  0
   39.8770   30.7510   25.2290 C   0  0  0  0  0  3  0  0  0  0  0  0
   38.8360   31.4130   25.8520 C   0  0  0  0  0  3  0  0  0  0  0  0
   38.3730   30.9360   27.0360 N   0  0  0  0  0  0  0  0  0  0  0  0
  1  2  1  0  0  0  0
  1  8  1  0  0  0  0
  2  6  1  0  0  0  0
  3  2  2  0  0  0  0
  4  5  1  0  0  0  0
  4  3  1  0  0  0  0
  5  1  2  0  0  0  0
  7  3  1  0  0  0  0
  8  9  1  0  0  0  0
  9 14  1  0  0  0  0
  9 10  2  0  0  0  0
 10 16  1  0  0  0  0
 11 10  1  0  0  0  0
 12 11  2  0  0  0  0
 13  8  2  0  0  0  0
 13 12  1  0  0  0  0
 15 12  1  0  0  0  0
 16 17  1  0  0  0  0
 16 19  1  0  0  0  0
 16 18  1  0  0  0  0
 20  4  1  0  0  0  0
 21 25  1  0  0  0  0
 21 20  2  0  0  0  0
 22 21  1  0  0  0  0
 23 22  2  0  0  0  0
 23 24  1  0  0  0  0
 24 20  1  0  0  0  0
 26 22  1  0  0  0  0
 27 23  1  0  0  0  0
 28 29  1  0  0  0  0
 28 27  2  0  0  0  0
 30 28  1  0  0  0  0
 31 30  1  0  0  0  0
 32 30  2  0  0  0  0
 32 33  1  0  0  0  0
 33 34  2  0  0  0  0
 34 27  1  0  0  0  0
M  END
>  <minimizedAffinity>
-5.83552694

$$$$

 OpenBabel03272508073D

 34 37  0  0  0  0  0  0  0  0999 V2000
   37.6410   25.1960   33.8610 C   0  0  0  0  0  0  0  0  0  0  0  0
   37.2990   24.9360   32.5410 C   0  0  0  0  0  0  0  0  0  0  0  0
   36.7580   26.0720   31.9700 C   0  0  0  0  0  0  0  0  0  0  0  0
   36.7930   26.9930   32.9790 N   0  0  0  0  0  0  0  0  0  0  0  0
   37.3050   26.4840   34.0750 N   0  0  0  0  0  0  0  0  0  0  0  0
   37.4150   24.0020   31.9910 H   0  0  0  0  0  0  0  0  0  0  0  0
   36.3800   26.2580   30.9750 H   0  0  0  0  0  0  0  0  0  0  0  0
   38.2390   24.2670   34.8080 C   0  0  0  0  0  0  0  0  0  0  0  0
   37.9910   24.4720   36.1950 C   0  0  0  0  0  0  0  0  0  0  0  0
   38.5720   23.5740   37.0850 C   0  0  0  0  0  0  0  0  0  0  0  0
   39.3360   22.5620   36.5870 N   0  0  0  0  0  0  0  0  0  0  0  0
   39.5550   22.3920   35.2620 C   0  0  0  0  0  0  0  0  0  0  0  0
   39.0010   23.2500   34.3830 N   0  0  0  0  0  0  0  0  0  0  0  0
   37.3750   25.2970   36.5280 H   0  0  0  0  0  0  0  0  0  0  0  0
   40.1490   21.6040   34.8620 H   0  0  0  0  0  0  0  0  0  0  0  0
   38.3320   23.7600   38.5440 C   0  0  0  0  0  0  0  0  0  0  0  0
   37.3540   22.8520   38.8770 F   0  0  0  0  0  0  0  0  0  0  0  0
   39.4580   23.5170   39.3090 F   0  0  0  0  0  0  0  0  0  0  0  0
   37.8370   25.0350   38.8280 F   0  0  0  0  0  0  0  0  0  0  0  0
   36.3500   28.3810   32.9370 C   0  0  0  0  0  0  0  0  0  0  0  0
   36.5360   29.1630   31.7850 C   0  0  0  0  0  0  0  0  0  0  0  0
   36.0890   30.4510   31.7880 C   0  0  0  0  0  0  0  0  0  0  0  0
   35.4510   30.9690   32.9530 C   0  0  0  0  0  0  0  0  0  0  0  0
   35.5080   29.4980   34.0960 S   0  0  0  0  0  0  0  0  0  0  0  0
   37.0170   28.7990   30.8850 H   0  0  0  0  0  0  0  0  0  0  0  0
   36.1470   31.1830   30.9990 H   0  0  0  0  0  0  0  0  0  0  0  0
   34.8830   32.2630   33.2590 C   0  0  0  0  0  0  0  0  0  0  0  0
   35.2590   33.3730   32.5310 C   0  0  0  0  0  0  0  0  0  0  0  0
   35.9800   33.2100   31.7490 H   0  0  0  0  0  0  0  0  0  0  0  0
   34.6590   34.5590   32.9030 C   0  0  0  0  0  0  0  0  0  0  0  0
   34.9540   35.4310   32.3330 H   0  0  0  0  0  0  0  0  0  0  0  0
   33.7460   34.6070   33.9370 C   0  0  0  0  0  3  0  0  0  0  0  0
   33.4200   33.4510   34.6200 C   0  0  0  0  0  3  0  0  0  0  0  0
   34.0110   32.2850   34.2530 N   0  0  0  0  0  0  0  0  0  0  0  0
  1  5  2  0  0  0  0
  1  8  1  0  0  0  0
  2  1  1  0  0  0  0
  3  2  2  0  0  0  0
  3  4  1  0  0  0  0
  4  5  1  0  0  0  0
  6  2  1  0  0  0  0
  7  3  1  0  0  0  0
  8  9  1  0  0  0  0
  9 14  1  0  0  0  0
  9 10  2  0  0  0  0
 10 16  1  0  0  0  0
 11 10  1  0  0  0  0
 12 11  2  0  0  0  0
 13  8  2  0  0  0  0
 13 12  1  0  0  0  0
 15 12  1  0  0  0  0
 16 19  1  0  0  0  0
 16 17  1  0  0  0  0
 16 18  1  0  0  0  0
 20  4  1  0  0  0  0
 20 24  1  0  0  0  0
 21 22  1  0  0  0  0
 21 20  2  0  0  0  0
 22 23  2  0  0  0  0
 23 27  1  0  0  0  0
 23 24  1  0  0  0  0
 25 21  1  0  0  0  0
 26 22  1  0  0  0  0
 27 34  1  0  0  0  0
 28 30  1  0  0  0  0
 28 27  2  0  0  0  0
 29 28  1  0  0  0  0
 30 32  2  0  0  0  0
 31 30  1  0  0  0  0
 32 33  1  0  0  0  0
 34 33  2  0  0  0  0
M  END
>  <minimizedAffinity>
-5.76228857

$$$$
