
 OpenBabel03272508443D

 26 28  0  0  0  0  0  0  0  0999 V2000
   35.8430   30.1670   49.9000 C   0  0  0  0  0  0  0  0  0  0  0  0
   36.7240   29.9030   50.9320 C   0  0  0  0  0  0  0  0  0  0  0  0
   37.8200   30.6980   50.6000 C   0  0  0  0  0  0  0  0  0  0  0  0
   37.5740   31.3820   49.4350 C   0  0  0  0  0  0  0  0  0  0  0  0
   36.3680   31.0390   49.0350 O   0  0  0  0  0  0  0  0  0  0  0  0
   36.5990   29.2570   51.7690 H   0  0  0  0  0  0  0  0  0  0  0  0
   38.7450   30.7860   51.1570 H   0  0  0  0  0  0  0  0  0  0  0  0
   38.4540   32.3180   48.7400 C   0  0  0  0  0  0  0  0  0  0  0  0
   38.8450   33.4680   49.4210 C   0  0  0  0  0  0  0  0  0  0  0  0
   38.5400   33.7140   50.4310 H   0  0  0  0  0  0  0  0  0  0  0  0
   39.6880   34.3810   48.7760 C   0  0  0  0  0  0  0  0  0  0  0  0
   40.0570   35.3020   49.2000 H   0  0  0  0  0  0  0  0  0  0  0  0
   40.0420   34.0130   47.4960 C   0  0  0  0  0  3  0  0  0  0  0  0
   39.6710   32.8860   46.7990 C   0  0  0  0  0  3  0  0  0  0  0  0
   38.8580   32.0530   47.4850 N   0  0  0  0  0  0  0  0  0  0  0  0
   34.5080   29.5660   49.7750 C   0  0  0  0  0  0  0  0  0  0  0  0
   33.7190   29.6960   50.7470 O   0  0  0  0  0  0  0  0  0  0  0  0
   33.8190   26.8120   47.5140 C   0  0  0  0  0  0  0  0  0  0  0  0
   33.4500   27.4530   46.3270 C   0  0  0  0  0  0  0  0  0  0  0  0
   33.4360   28.8410   46.2940 C   0  0  0  0  0  0  0  0  0  0  0  0
   33.7830   29.5000   47.4280 N   0  0  0  0  0  0  0  0  0  0  0  0
   34.1360   28.8560   48.5640 C   0  0  0  0  0  0  0  0  0  0  0  0
   34.1550   27.5130   48.6080 N   0  0  0  0  0  0  0  0  0  0  0  0
   33.8450   25.7320   47.5910 H   0  0  0  0  0  0  0  0  0  0  0  0
   33.1820   26.8630   45.4520 H   0  0  0  0  0  0  0  0  0  0  0  0
   33.1560   29.3820   45.3910 H   0  0  0  0  0  0  0  0  0  0  0  0
  1  2  2  0  0  0  0
  2  6  1  0  0  0  0
  3  2  1  0  0  0  0
  3  7  1  0  0  0  0
  4  3  2  0  0  0  0
  5  4  1  0  0  0  0
  5  1  1  0  0  0  0
  8  9  1  0  0  0  0
  8  4  1  0  0  0  0
  9 10  1  0  0  0  0
 11 12  1  0  0  0  0
 11  9  2  0  0  0  0
 13 11  1  0  0  0  0
 14 15  1  0  0  0  0
 14 13  2  0  0  0  0
 15  8  2  0  0  0  0
 16  1  1  0  0  0  0
 16 17  2  0  0  0  0
 18 24  1  0  0  0  0
 18 23  1  0  0  0  0
 19 18  2  0  0  0  0
 20 19  1  0  0  0  0
 20 21  2  0  0  0  0
 21 22  1  0  0  0  0
 22 23  2  0  0  0  0
 22 16  1  0  0  0  0
 25 19  1  0  0  0  0
 26 20  1  0  0  0  0
M  END
>  <minimizedAffinity>
-5.74624777

>  <minimizedRMSD>
2.02224422

$$$$
