
 OpenBabel03272501413D

 44 48  0  0  1  0  0  0  0  0999 V2000
   35.6030   29.6710   31.5080 C   0  0  0  0  0  0  0  0  0  0  0  0
   36.1540   28.4480   31.8130 C   0  0  0  0  0  0  0  0  0  0  0  0
   36.3730   28.0280   33.1330 C   0  0  0  0  0  0  0  0  0  0  0  0
   36.0280   28.8510   34.0830 N   0  0  0  0  0  0  0  0  0  0  0  0
   35.4790   30.0700   33.7680 C   0  0  0  0  0  0  0  0  0  0  0  0
   35.2740   30.4690   32.5190 N   0  0  0  0  0  0  0  0  0  0  0  0
   35.4450   29.9720   30.4810 H   0  0  0  0  0  0  0  0  0  0  0  0
   36.4080   27.8220   30.9500 H   0  0  0  0  0  0  0  0  0  0  0  0
   35.0800   30.9990   34.8220 C   0  0  0  0  0  0  0  0  0  0  0  0
   35.7080   31.3910   35.9720 C   0  0  0  0  0  0  0  0  0  0  0  0
   35.1530   32.2770   36.8130 C   0  0  0  0  0  0  0  0  0  0  0  0
   33.8770   32.7590   36.4090 C   0  0  0  0  0  0  0  0  0  0  0  0
   33.5660   31.8970   34.8330 S   0  0  0  0  0  0  0  0  0  0  0  0
   36.6830   30.9410   36.1600 H   0  0  0  0  0  0  0  0  0  0  0  0
   35.5720   32.6440   37.7340 H   0  0  0  0  0  0  0  0  0  0  0  0
   32.9900   33.6970   37.0370 C   0  0  0  0  0  0  0  0  0  0  0  0
   33.5510   34.5960   37.8810 C   0  0  0  0  0  0  0  0  0  0  0  0
   34.6110   34.6330   38.0920 H   0  0  0  0  0  0  0  0  0  0  0  0
   32.6900   35.5130   38.4950 C   0  0  0  0  0  0  0  0  0  0  0  0
   33.0380   36.2660   39.1810 H   0  0  0  0  0  0  0  0  0  0  0  0
   31.3300   35.4200   38.1860 C   0  0  0  0  0  3  0  0  0  0  0  0
   30.7980   34.4710   37.3060 C   0  0  0  0  0  3  0  0  0  0  0  0
   31.6990   33.6210   36.7530 N   0  0  0  0  0  0  0  0  0  0  0  0
   37.0470   26.7680   33.2720 C   0  0  1  0  0  0  0  0  0  0  0  0
   38.0600   27.0640   32.7770 H   0  0  0  0  0  0  0  0  0  0  0  0
   37.3960   26.3390   34.6800 C   0  0  2  0  0  0  0  0  0  0  0  0
   38.8730   26.6720   34.8880 C   0  0  0  0  0  0  0  0  0  0  0  0
   38.3460   25.2790   34.9090 C   0  0  1  0  0  0  0  0  0  0  0  0
   36.6760   26.7380   35.4240 H   0  0  0  0  0  0  0  0  0  0  0  0
   39.0830   27.1880   35.8410 H   0  0  0  0  0  0  0  0  0  0  0  0
   39.5740   26.8740   34.0830 H   0  0  0  0  0  0  0  0  0  0  0  0
   38.4600   24.5860   34.0500 H   0  0  0  0  0  0  0  0  0  0  0  0
   38.5680   24.5900   36.1870 C   0  0  0  0  0  0  0  0  0  0  0  0
   37.8010   24.9680   37.2600 C   0  0  0  0  0  0  0  0  0  0  0  0
   38.0060   24.2950   38.4340 C   0  0  0  0  0  0  0  0  0  0  0  0
   38.9300   23.2760   38.5760 C   0  0  0  0  0  0  0  0  0  0  0  0
   39.6900   22.9190   37.4630 C   0  0  0  0  0  0  0  0  0  0  0  0
   39.4940   23.5760   36.3070 N   0  0  0  0  0  0  0  0  0  0  0  0
   37.0600   25.7430   37.2580 H   0  0  0  0  0  0  0  0  0  0  0  0
   37.4440   24.5270   39.3400 H   0  0  0  0  0  0  0  0  0  0  0  0
   39.1310   22.7140   39.4760 H   0  0  0  0  0  0  0  0  0  0  0  0
   40.4440   22.1490   37.4220 H   0  0  0  0  0  0  0  0  0  0  0  0
   36.8200   25.7680   32.4600 O   0  0  0  0  0  0  0  0  0  0  0  0
   35.9600   25.3150   32.4300 H   0  0  0  0  0  0  0  0  0  0  0  0
  1  2  2  0  0  0  0
  1  6  1  0  0  0  0
  2  3  1  0  0  0  0
  3 24  1  0  0  0  0
  3  4  2  0  0  0  0
  5  4  1  0  0  0  0
  5  9  1  0  0  0  0
  6  5  2  0  0  0  0
  7  1  1  0  0  0  0
  8  2  1  0  0  0  0
  9 13  1  0  0  0  0
  9 10  2  0  0  0  0
 10 14  1  0  0  0  0
 10 11  1  0  0  0  0
 11 15  1  0  0  0  0
 12 11  2  0  0  0  0
 12 16  1  0  0  0  0
 13 12  1  0  0  0  0
 16 17  1  0  0  0  0
 17 18  1  0  0  0  0
 17 19  2  0  0  0  0
 19 20  1  0  0  0  0
 21 19  1  0  0  0  0
 22 21  2  0  0  0  0
 23 16  2  0  0  0  0
 23 22  1  0  0  0  0
 24 25  1  6  0  0  0
 24 26  1  0  0  0  0
 26 27  1  0  0  0  0
 26 28  1  0  0  0  0
 26 29  1  1  0  0  0
 27 28  1  0  0  0  0
 27 30  1  0  0  0  0
 28 32  1  6  0  0  0
 28 33  1  0  0  0  0
 31 27  1  0  0  0  0
 33 38  2  0  0  0  0
 33 34  1  0  0  0  0
 34 35  2  0  0  0  0
 35 36  1  0  0  0  0
 35 40  1  0  0  0  0
 36 41  1  0  0  0  0
 37 36  2  0  0  0  0
 38 37  1  0  0  0  0
 39 34  1  0  0  0  0
 42 37  1  0  0  0  0
 43 24  1  0  0  0  0
 44 43  1  0  0  0  0
M  END
>  <minimizedAffinity>
-6.59791136

$$$$

 OpenBabel03272501413D

 44 48  0  0  1  0  0  0  0  0999 V2000
   35.5300   24.7920   30.9530 C   0  0  0  0  0  0  0  0  0  0  0  0
   36.7020   24.1570   31.2920 C   0  0  0  0  0  0  0  0  0  0  0  0
   37.7490   24.8100   31.9590 C   0  0  0  0  0  0  0  0  0  0  0  0
   37.5690   26.0670   32.2580 N   0  0  0  0  0  0  0  0  0  0  0  0
   36.3950   26.6920   31.9150 C   0  0  0  0  0  0  0  0  0  0  0  0
   35.4070   26.0750   31.2810 N   0  0  0  0  0  0  0  0  0  0  0  0
   34.7380   24.2660   30.4370 H   0  0  0  0  0  0  0  0  0  0  0  0
   36.7610   23.1010   31.0040 H   0  0  0  0  0  0  0  0  0  0  0  0
   36.1770   28.0960   32.2510 C   0  0  0  0  0  0  0  0  0  0  0  0
   36.2230   29.2310   31.4880 C   0  0  0  0  0  0  0  0  0  0  0  0
   35.9800   30.4430   32.0080 C   0  0  0  0  0  0  0  0  0  0  0  0
   35.6780   30.4410   33.3980 C   0  0  0  0  0  0  0  0  0  0  0  0
   35.7650   28.6790   33.8600 S   0  0  0  0  0  0  0  0  0  0  0  0
   36.4680   29.0870   30.4350 H   0  0  0  0  0  0  0  0  0  0  0  0
   35.9920   31.3840   31.4860 H   0  0  0  0  0  0  0  0  0  0  0  0
   35.3690   31.5240   34.2900 C   0  0  0  0  0  0  0  0  0  0  0  0
   35.7410   31.3720   35.5840 C   0  0  0  0  0  0  0  0  0  0  0  0
   36.2470   30.4920   35.9590 H   0  0  0  0  0  0  0  0  0  0  0  0
   35.4430   32.4250   36.4570 C   0  0  0  0  0  0  0  0  0  0  0  0
   35.6970   32.4010   37.5030 H   0  0  0  0  0  0  0  0  0  0  0  0
   34.7890   33.5370   35.9180 C   0  0  0  0  0  3  0  0  0  0  0  0
   34.4260   33.6460   34.5720 C   0  0  0  0  0  3  0  0  0  0  0  0
   34.7510   32.5830   33.7930 N   0  0  0  0  0  0  0  0  0  0  0  0
   38.9390   24.0300   32.1460 C   0  0  1  0  0  0  0  0  0  0  0  0
   39.7190   24.8340   31.8240 H   0  0  0  0  0  0  0  0  0  0  0  0
   39.2950   23.6710   33.5720 C   0  0  2  0  0  0  0  0  0  0  0  0
   38.6380   22.3220   33.8630 C   0  0  0  0  0  0  0  0  0  0  0  0
   38.2690   23.5740   34.5810 C   0  0  1  0  0  0  0  0  0  0  0  0
   40.3850   23.7560   33.7600 H   0  0  0  0  0  0  0  0  0  0  0  0
   39.3100   21.5950   34.3490 H   0  0  0  0  0  0  0  0  0  0  0  0
   37.8350   21.8920   33.2700 H   0  0  0  0  0  0  0  0  0  0  0  0
   37.3500   24.1490   34.3430 H   0  0  0  0  0  0  0  0  0  0  0  0
   38.4980   23.5060   36.0300 C   0  0  0  0  0  0  0  0  0  0  0  0
   39.6140   22.8410   36.4710 C   0  0  0  0  0  0  0  0  0  0  0  0
   39.8220   22.8120   37.8240 C   0  0  0  0  0  0  0  0  0  0  0  0
   38.9730   23.4110   38.7380 C   0  0  0  0  0  0  0  0  0  0  0  0
   37.8500   24.0770   38.2510 C   0  0  0  0  0  0  0  0  0  0  0  0
   37.6400   24.1100   36.9240 N   0  0  0  0  0  0  0  0  0  0  0  0
   40.3330   22.3440   35.8500 H   0  0  0  0  0  0  0  0  0  0  0  0
   40.6820   22.3070   38.2660 H   0  0  0  0  0  0  0  0  0  0  0  0
   39.0900   23.4180   39.8110 H   0  0  0  0  0  0  0  0  0  0  0  0
   37.1030   24.5880   38.8390 H   0  0  0  0  0  0  0  0  0  0  0  0
   39.3310   23.1430   31.2690 O   0  0  0  0  0  0  0  0  0  0  0  0
   38.8180   22.3360   31.0900 H   0  0  0  0  0  0  0  0  0  0  0  0
  1  6  2  0  0  0  0
  1  2  1  0  0  0  0
  2  3  2  0  0  0  0
  3 24  1  0  0  0  0
  3  4  1  0  0  0  0
  5  9  1  0  0  0  0
  5  4  2  0  0  0  0
  6  5  1  0  0  0  0
  7  1  1  0  0  0  0
  8  2  1  0  0  0  0
  9 13  1  0  0  0  0
 10 11  1  0  0  0  0
 10  9  2  0  0  0  0
 11 12  2  0  0  0  0
 12 13  1  0  0  0  0
 12 16  1  0  0  0  0
 14 10  1  0  0  0  0
 15 11  1  0  0  0  0
 16 17  1  0  0  0  0
 17 18  1  0  0  0  0
 17 19  2  0  0  0  0
 19 20  1  0  0  0  0
 21 19  1  0  0  0  0
 22 21  2  0  0  0  0
 23 16  2  0  0  0  0
 23 22  1  0  0  0  0
 24 25  1  6  0  0  0
 24 26  1  0  0  0  0
 26 29  1  1  0  0  0
 26 27  1  0  0  0  0
 26 28  1  0  0  0  0
 27 30  1  0  0  0  0
 27 28  1  0  0  0  0
 28 32  1  6  0  0  0
 28 33  1  0  0  0  0
 31 27  1  0  0  0  0
 33 34  2  0  0  0  0
 33 38  1  0  0  0  0
 34 35  1  0  0  0  0
 35 40  1  0  0  0  0
 35 36  2  0  0  0  0
 36 41  1  0  0  0  0
 37 36  1  0  0  0  0
 37 42  1  0  0  0  0
 38 37  2  0  0  0  0
 39 34  1  0  0  0  0
 43 24  1  0  0  0  0
 44 43  1  0  0  0  0
M  END
>  <minimizedAffinity>
-6.21107578

$$$$

 OpenBabel03272501413D

 44 48  0  0  1  0  0  0  0  0999 V2000
   35.7470   24.3370   31.1330 C   0  0  0  0  0  0  0  0  0  0  0  0
   35.5490   25.6910   30.9940 C   0  0  0  0  0  0  0  0  0  0  0  0
   36.1990   26.6350   31.8020 C   0  0  0  0  0  0  0  0  0  0  0  0
   37.0190   26.1780   32.7060 N   0  0  0  0  0  0  0  0  0  0  0  0
   37.2100   24.8250   32.8380 C   0  0  0  0  0  0  0  0  0  0  0  0
   36.5930   23.9310   32.0760 N   0  0  0  0  0  0  0  0  0  0  0  0
   35.2320   23.6280   30.4980 H   0  0  0  0  0  0  0  0  0  0  0  0
   34.8450   25.9800   30.2050 H   0  0  0  0  0  0  0  0  0  0  0  0
   38.1320   24.3000   33.8410 C   0  0  0  0  0  0  0  0  0  0  0  0
   38.3710   24.6680   35.1360 C   0  0  0  0  0  0  0  0  0  0  0  0
   39.2760   24.0340   35.8960 C   0  0  0  0  0  0  0  0  0  0  0  0
   39.9530   22.9660   35.2440 C   0  0  0  0  0  0  0  0  0  0  0  0
   39.2300   22.9510   33.5710 S   0  0  0  0  0  0  0  0  0  0  0  0
   37.7800   25.5050   35.5100 H   0  0  0  0  0  0  0  0  0  0  0  0
   39.5270   24.2520   36.9200 H   0  0  0  0  0  0  0  0  0  0  0  0
   40.9710   22.0730   35.7230 C   0  0  0  0  0  0  0  0  0  0  0  0
   41.0300   21.8780   37.0620 C   0  0  0  0  0  0  0  0  0  0  0  0
   40.3590   22.3560   37.7630 H   0  0  0  0  0  0  0  0  0  0  0  0
   42.0200   21.0080   37.5330 C   0  0  0  0  0  0  0  0  0  0  0  0
   42.1490   20.7880   38.5790 H   0  0  0  0  0  0  0  0  0  0  0  0
   42.8600   20.4190   36.5830 C   0  0  0  0  0  3  0  0  0  0  0  0
   42.7580   20.6540   35.2080 C   0  0  0  0  0  3  0  0  0  0  0  0
   41.7730   21.5080   34.8340 N   0  0  0  0  0  0  0  0  0  0  0  0
   35.8020   27.9990   31.5920 C   0  0  1  0  0  0  0  0  0  0  0  0
   34.6910   27.8070   31.2990 H   0  0  0  0  0  0  0  0  0  0  0  0
   35.7510   28.8850   32.8170 C   0  0  2  0  0  0  0  0  0  0  0  0
   34.2990   29.3310   32.9760 C   0  0  0  0  0  0  0  0  0  0  0  0
   35.4120   30.2810   32.6980 C   0  0  1  0  0  0  0  0  0  0  0  0
   36.2340   28.4060   33.6940 H   0  0  0  0  0  0  0  0  0  0  0  0
   33.9130   29.2330   34.0050 H   0  0  0  0  0  0  0  0  0  0  0  0
   33.5510   29.2740   32.1890 H   0  0  0  0  0  0  0  0  0  0  0  0
   35.5970   30.7030   31.6880 H   0  0  0  0  0  0  0  0  0  0  0  0
   35.5890   31.2970   33.7440 C   0  0  0  0  0  0  0  0  0  0  0  0
   35.6660   30.8690   35.0450 C   0  0  0  0  0  0  0  0  0  0  0  0
   35.8570   31.8300   36.0010 C   0  0  0  0  0  0  0  0  0  0  0  0
   35.9720   33.1780   35.7130 C   0  0  0  0  0  0  0  0  0  0  0  0
   35.8880   33.5740   34.3800 C   0  0  0  0  0  0  0  0  0  0  0  0
   35.7010   32.6360   33.4350 N   0  0  0  0  0  0  0  0  0  0  0  0
   35.5900   29.8520   35.3750 H   0  0  0  0  0  0  0  0  0  0  0  0
   35.9310   31.5850   37.0610 H   0  0  0  0  0  0  0  0  0  0  0  0
   36.1230   33.9750   36.4270 H   0  0  0  0  0  0  0  0  0  0  0  0
   35.9590   34.5830   34.0050 H   0  0  0  0  0  0  0  0  0  0  0  0
   36.0930   28.6430   30.4910 O   0  0  0  0  0  0  0  0  0  0  0  0
   37.0090   28.8620   30.2500 H   0  0  0  0  0  0  0  0  0  0  0  0
  1  6  1  0  0  0  0
  2  1  2  0  0  0  0
  2  3  1  0  0  0  0
  3  4  2  0  0  0  0
  4  5  1  0  0  0  0
  5  9  1  0  0  0  0
  6  5  2  0  0  0  0
  7  1  1  0  0  0  0
  8  2  1  0  0  0  0
  9 10  2  0  0  0  0
 10 14  1  0  0  0  0
 10 11  1  0  0  0  0
 11 15  1  0  0  0  0
 12 16  1  0  0  0  0
 12 11  2  0  0  0  0
 13  9  1  0  0  0  0
 13 12  1  0  0  0  0
 16 17  1  0  0  0  0
 17 19  2  0  0  0  0
 17 18  1  0  0  0  0
 19 20  1  0  0  0  0
 21 19  1  0  0  0  0
 22 21  2  0  0  0  0
 23 22  1  0  0  0  0
 23 16  2  0  0  0  0
 24 25  1  6  0  0  0
 24  3  1  0  0  0  0
 24 26  1  0  0  0  0
 26 27  1  0  0  0  0
 26 29  1  1  0  0  0
 27 30  1  0  0  0  0
 28 32  1  6  0  0  0
 28 26  1  0  0  0  0
 28 27  1  0  0  0  0
 28 33  1  0  0  0  0
 31 27  1  0  0  0  0
 33 34  1  0  0  0  0
 34 39  1  0  0  0  0
 34 35  2  0  0  0  0
 35 40  1  0  0  0  0
 36 35  1  0  0  0  0
 36 41  1  0  0  0  0
 37 36  2  0  0  0  0
 38 33  2  0  0  0  0
 38 37  1  0  0  0  0
 42 37  1  0  0  0  0
 43 24  1  0  0  0  0
 44 43  1  0  0  0  0
M  END
>  <minimizedAffinity>
-6.1733737

$$$$

 OpenBabel03272501413D

 44 48  0  0  1  0  0  0  0  0999 V2000
   37.4300   29.0960   30.1490 C   0  0  0  0  0  0  0  0  0  0  0  0
   36.2900   29.7530   30.5520 C   0  0  0  0  0  0  0  0  0  0  0  0
   35.6700   29.5020   31.7840 C   0  0  0  0  0  0  0  0  0  0  0  0
   36.2240   28.6090   32.5560 N   0  0  0  0  0  0  0  0  0  0  0  0
   37.3610   27.9590   32.1450 C   0  0  0  0  0  0  0  0  0  0  0  0
   37.9460   28.1940   30.9780 N   0  0  0  0  0  0  0  0  0  0  0  0
   37.8890   29.3070   29.1930 H   0  0  0  0  0  0  0  0  0  0  0  0
   35.9000   30.4890   29.8390 H   0  0  0  0  0  0  0  0  0  0  0  0
   37.9970   26.9620   33.0030 C   0  0  0  0  0  0  0  0  0  0  0  0
   39.1060   26.1830   32.8230 C   0  0  0  0  0  0  0  0  0  0  0  0
   39.5250   25.3210   33.7610 C   0  0  0  0  0  0  0  0  0  0  0  0
   38.7250   25.2910   34.9370 C   0  0  0  0  0  0  0  0  0  0  0  0
   37.4170   26.5170   34.6050 S   0  0  0  0  0  0  0  0  0  0  0  0
   39.6250   26.3070   31.8720 H   0  0  0  0  0  0  0  0  0  0  0  0
   40.3820   24.6730   33.7070 H   0  0  0  0  0  0  0  0  0  0  0  0
   38.8520   24.5100   36.1360 C   0  0  0  0  0  0  0  0  0  0  0  0
   39.8280   23.5700   36.1490 C   0  0  0  0  0  0  0  0  0  0  0  0
   40.4940   23.3910   35.3160 H   0  0  0  0  0  0  0  0  0  0  0  0
   39.9560   22.8060   37.3160 C   0  0  0  0  0  0  0  0  0  0  0  0
   40.7000   22.0350   37.4250 H   0  0  0  0  0  0  0  0  0  0  0  0
   39.0690   23.0800   38.3610 C   0  0  0  0  0  3  0  0  0  0  0  0
   38.0770   24.0640   38.2970 C   0  0  0  0  0  3  0  0  0  0  0  0
   38.0190   24.7590   37.1330 N   0  0  0  0  0  0  0  0  0  0  0  0
   34.4350   30.2000   32.0030 C   0  0  1  0  0  0  0  0  0  0  0  0
   34.0440   30.1970   30.9050 H   0  0  0  0  0  0  0  0  0  0  0  0
   33.3810   29.4740   32.8100 C   0  0  2  0  0  0  0  0  0  0  0  0
   32.0810   30.2580   32.6410 C   0  0  0  0  0  0  0  0  0  0  0  0
   32.7700   30.1060   33.9530 C   0  0  1  0  0  0  0  0  0  0  0  0
   33.3550   28.3900   32.5750 H   0  0  0  0  0  0  0  0  0  0  0  0
   31.2070   29.6260   32.4100 H   0  0  0  0  0  0  0  0  0  0  0  0
   32.0260   31.2820   32.2800 H   0  0  0  0  0  0  0  0  0  0  0  0
   33.3840   30.9140   34.4010 H   0  0  0  0  0  0  0  0  0  0  0  0
   31.9520   29.4290   34.9680 C   0  0  0  0  0  0  0  0  0  0  0  0
   32.1410   29.7790   36.2800 C   0  0  0  0  0  0  0  0  0  0  0  0
   31.3490   29.1540   37.2070 C   0  0  0  0  0  0  0  0  0  0  0  0
   30.3910   28.2120   36.8780 C   0  0  0  0  0  0  0  0  0  0  0  0
   30.2280   27.8830   35.5340 C   0  0  0  0  0  0  0  0  0  0  0  0
   31.0030   28.4920   34.6190 N   0  0  0  0  0  0  0  0  0  0  0  0
   32.8530   30.4940   36.6420 H   0  0  0  0  0  0  0  0  0  0  0  0
   31.4280   29.3680   38.2730 H   0  0  0  0  0  0  0  0  0  0  0  0
   29.7420   27.6910   37.5670 H   0  0  0  0  0  0  0  0  0  0  0  0
   29.5260   27.1710   35.1280 H   0  0  0  0  0  0  0  0  0  0  0  0
   34.3880   31.5010   32.1290 O   0  0  0  0  0  0  0  0  0  0  0  0
   34.7920   31.9600   32.8860 H   0  0  0  0  0  0  0  0  0  0  0  0
  1  2  2  0  0  0  0
  1  6  1  0  0  0  0
  2  3  1  0  0  0  0
  3 24  1  0  0  0  0
  3  4  2  0  0  0  0
  5  4  1  0  0  0  0
  5  9  1  0  0  0  0
  6  5  2  0  0  0  0
  7  1  1  0  0  0  0
  8  2  1  0  0  0  0
  9 13  1  0  0  0  0
 10  9  2  0  0  0  0
 10 11  1  0  0  0  0
 11 12  2  0  0  0  0
 12 16  1  0  0  0  0
 13 12  1  0  0  0  0
 14 10  1  0  0  0  0
 15 11  1  0  0  0  0
 16 17  2  0  0  0  0
 16 23  1  0  0  0  0
 17 19  1  0  0  0  0
 18 17  1  0  0  0  0
 19 20  1  0  0  0  0
 19 21  2  0  0  0  0
 22 21  1  0  0  0  0
 23 22  2  0  0  0  0
 24 25  1  6  0  0  0
 24 43  1  0  0  0  0
 24 26  1  0  0  0  0
 26 29  1  6  0  0  0
 26 28  1  0  0  0  0
 27 26  1  0  0  0  0
 27 28  1  0  0  0  0
 28 32  1  1  0  0  0
 28 33  1  0  0  0  0
 30 27  1  0  0  0  0
 31 27  1  0  0  0  0
 33 34  1  0  0  0  0
 34 39  1  0  0  0  0
 34 35  2  0  0  0  0
 35 40  1  0  0  0  0
 36 35  1  0  0  0  0
 36 41  1  0  0  0  0
 37 36  2  0  0  0  0
 38 33  2  0  0  0  0
 38 37  1  0  0  0  0
 42 37  1  0  0  0  0
 43 44  1  0  0  0  0
M  END
>  <minimizedAffinity>
-5.99438906

$$$$

 OpenBabel03272501413D

 44 48  0  0  1  0  0  0  0  0999 V2000
   38.3540   28.7990   29.8610 C   0  0  0  0  0  0  0  0  0  0  0  0
   37.3340   29.5530   30.3930 C   0  0  0  0  0  0  0  0  0  0  0  0
   36.2700   28.9850   31.1090 C   0  0  0  0  0  0  0  0  0  0  0  0
   36.2820   27.6900   31.2610 N   0  0  0  0  0  0  0  0  0  0  0  0
   37.3050   26.9460   30.7260 C   0  0  0  0  0  0  0  0  0  0  0  0
   38.3090   27.4830   30.0450 N   0  0  0  0  0  0  0  0  0  0  0  0
   39.1620   29.2620   29.3110 H   0  0  0  0  0  0  0  0  0  0  0  0
   37.4110   30.6330   30.2180 H   0  0  0  0  0  0  0  0  0  0  0  0
   37.3350   25.4960   30.8950 C   0  0  0  0  0  0  0  0  0  0  0  0
   38.2700   24.5600   30.5490 C   0  0  0  0  0  0  0  0  0  0  0  0
   38.0950   23.2560   30.8090 C   0  0  0  0  0  0  0  0  0  0  0  0
   36.8710   22.9410   31.4630 C   0  0  0  0  0  0  0  0  0  0  0  0
   36.0550   24.5590   31.6590 S   0  0  0  0  0  0  0  0  0  0  0  0
   39.1630   24.9410   30.0520 H   0  0  0  0  0  0  0  0  0  0  0  0
   38.7740   22.4540   30.5760 H   0  0  0  0  0  0  0  0  0  0  0  0
   36.3390   21.6790   31.8940 C   0  0  0  0  0  0  0  0  0  0  0  0
   36.1440   20.7410   30.9350 C   0  0  0  0  0  0  0  0  0  0  0  0
   36.3670   20.9030   29.8890 H   0  0  0  0  0  0  0  0  0  0  0  0
   35.6250   19.5090   31.3510 C   0  0  0  0  0  0  0  0  0  0  0  0
   35.4330   18.7000   30.6670 H   0  0  0  0  0  0  0  0  0  0  0  0
   35.3550   19.3550   32.7140 C   0  0  0  0  0  3  0  0  0  0  0  0
   35.5750   20.3560   33.6650 C   0  0  0  0  0  3  0  0  0  0  0  0
   36.0790   21.5190   33.1810 N   0  0  0  0  0  0  0  0  0  0  0  0
   35.2400   29.9010   31.5090 C   0  0  1  0  0  0  0  0  0  0  0  0
   34.3210   29.2050   31.3360 H   0  0  0  0  0  0  0  0  0  0  0  0
   35.1960   30.2730   32.9740 C   0  0  2  0  0  0  0  0  0  0  0  0
   34.0730   29.4480   33.6030 C   0  0  0  0  0  0  0  0  0  0  0  0
   34.0410   30.9360   33.5270 C   0  0  1  0  0  0  0  0  0  0  0  0
   36.1980   30.2110   33.4470 H   0  0  0  0  0  0  0  0  0  0  0  0
   34.3580   28.9590   34.5500 H   0  0  0  0  0  0  0  0  0  0  0  0
   33.2880   28.9530   33.0390 H   0  0  0  0  0  0  0  0  0  0  0  0
   33.4340   31.4810   32.7760 H   0  0  0  0  0  0  0  0  0  0  0  0
   33.9760   31.5860   34.8430 C   0  0  0  0  0  0  0  0  0  0  0  0
   35.0810   31.5070   35.6510 C   0  0  0  0  0  0  0  0  0  0  0  0
   35.0080   32.1420   36.8620 C   0  0  0  0  0  0  0  0  0  0  0  0
   33.8940   32.8420   37.2880 C   0  0  0  0  0  0  0  0  0  0  0  0
   32.7910   32.9010   36.4390 C   0  0  0  0  0  0  0  0  0  0  0  0
   32.8560   32.2790   35.2480 N   0  0  0  0  0  0  0  0  0  0  0  0
   35.9920   30.9920   35.4180 H   0  0  0  0  0  0  0  0  0  0  0  0
   35.8370   32.1340   37.5700 H   0  0  0  0  0  0  0  0  0  0  0  0
   33.7850   33.3600   38.2300 H   0  0  0  0  0  0  0  0  0  0  0  0
   31.8580   33.4060   36.6330 H   0  0  0  0  0  0  0  0  0  0  0  0
   34.8090   30.8470   30.7140 O   0  0  0  0  0  0  0  0  0  0  0  0
   35.3760   31.5880   30.4420 H   0  0  0  0  0  0  0  0  0  0  0  0
  1  6  2  0  0  0  0
  1  2  1  0  0  0  0
  2  3  2  0  0  0  0
  3  4  1  0  0  0  0
  3 24  1  0  0  0  0
  5  9  1  0  0  0  0
  5  4  2  0  0  0  0
  6  5  1  0  0  0  0
  7  1  1  0  0  0  0
  8  2  1  0  0  0  0
  9 13  1  0  0  0  0
 10 11  1  0  0  0  0
 10  9  2  0  0  0  0
 11 12  2  0  0  0  0
 12 13  1  0  0  0  0
 12 16  1  0  0  0  0
 14 10  1  0  0  0  0
 15 11  1  0  0  0  0
 16 23  1  0  0  0  0
 17 19  1  0  0  0  0
 17 16  2  0  0  0  0
 18 17  1  0  0  0  0
 19 21  2  0  0  0  0
 20 19  1  0  0  0  0
 21 22  1  0  0  0  0
 23 22  2  0  0  0  0
 24 25  1  6  0  0  0
 24 26  1  0  0  0  0
 26 29  1  1  0  0  0
 26 28  1  0  0  0  0
 26 27  1  0  0  0  0
 27 30  1  0  0  0  0
 28 32  1  6  0  0  0
 28 27  1  0  0  0  0
 28 33  1  0  0  0  0
 31 27  1  0  0  0  0
 33 38  2  0  0  0  0
 33 34  1  0  0  0  0
 34 35  2  0  0  0  0
 35 36  1  0  0  0  0
 35 40  1  0  0  0  0
 36 41  1  0  0  0  0
 37 42  1  0  0  0  0
 37 36  2  0  0  0  0
 38 37  1  0  0  0  0
 39 34  1  0  0  0  0
 43 24  1  0  0  0  0
 44 43  1  0  0  0  0
M  END
>  <minimizedAffinity>
-5.97338247

$$$$

 OpenBabel03272501413D

 44 48  0  0  1  0  0  0  0  0999 V2000
   37.5070   28.3620   29.8510 C   0  0  0  0  0  0  0  0  0  0  0  0
   36.5290   29.2380   30.2630 C   0  0  0  0  0  0  0  0  0  0  0  0
   35.9760   29.2000   31.5510 C   0  0  0  0  0  0  0  0  0  0  0  0
   36.4320   28.2910   32.3660 N   0  0  0  0  0  0  0  0  0  0  0  0
   37.4080   27.4210   31.9460 C   0  0  0  0  0  0  0  0  0  0  0  0
   37.9290   27.4540   30.7260 N   0  0  0  0  0  0  0  0  0  0  0  0
   37.9160   28.4110   28.8510 H   0  0  0  0  0  0  0  0  0  0  0  0
   36.2120   29.9700   29.5100 H   0  0  0  0  0  0  0  0  0  0  0  0
   37.9340   26.4030   32.8510 C   0  0  0  0  0  0  0  0  0  0  0  0
   38.7200   25.3060   32.6260 C   0  0  0  0  0  0  0  0  0  0  0  0
   39.0990   24.4910   33.6220 C   0  0  0  0  0  0  0  0  0  0  0  0
   38.6170   24.8640   34.9080 C   0  0  0  0  0  0  0  0  0  0  0  0
   37.6470   26.3740   34.5870 S   0  0  0  0  0  0  0  0  0  0  0  0
   39.0170   25.1370   31.5910 H   0  0  0  0  0  0  0  0  0  0  0  0
   39.7130   23.6120   33.5390 H   0  0  0  0  0  0  0  0  0  0  0  0
   38.8060   24.2500   36.1920 C   0  0  0  0  0  0  0  0  0  0  0  0
   37.9600   24.6310   37.1800 C   0  0  0  0  0  0  0  0  0  0  0  0
   37.1720   25.3580   37.0410 H   0  0  0  0  0  0  0  0  0  0  0  0
   38.1400   24.0340   38.4340 C   0  0  0  0  0  0  0  0  0  0  0  0
   37.5210   24.2690   39.2820 H   0  0  0  0  0  0  0  0  0  0  0  0
   39.1740   23.1010   38.5560 C   0  0  0  0  0  3  0  0  0  0  0  0
   40.0220   22.7410   37.5030 C   0  0  0  0  0  3  0  0  0  0  0  0
   39.7800   23.3640   36.3220 N   0  0  0  0  0  0  0  0  0  0  0  0
   34.8960   30.1180   31.7830 C   0  0  1  0  0  0  0  0  0  0  0  0
   34.0110   29.3990   31.5420 H   0  0  0  0  0  0  0  0  0  0  0  0
   34.6810   30.5610   33.2130 C   0  0  2  0  0  0  0  0  0  0  0  0
   33.4000   29.8820   33.6950 C   0  0  0  0  0  0  0  0  0  0  0  0
   33.5340   31.3600   33.5670 C   0  0  1  0  0  0  0  0  0  0  0  0
   35.5920   30.4240   33.8300 H   0  0  0  0  0  0  0  0  0  0  0  0
   33.4920   29.4120   34.6890 H   0  0  0  0  0  0  0  0  0  0  0  0
   32.6560   29.4400   33.0370 H   0  0  0  0  0  0  0  0  0  0  0  0
   33.1010   31.9260   32.7160 H   0  0  0  0  0  0  0  0  0  0  0  0
   33.3490   32.0750   34.8360 C   0  0  0  0  0  0  0  0  0  0  0  0
   33.5590   31.3800   36.0000 C   0  0  0  0  0  0  0  0  0  0  0  0
   33.4060   32.0730   37.1700 C   0  0  0  0  0  0  0  0  0  0  0  0
   33.0580   33.4110   37.2230 C   0  0  0  0  0  0  0  0  0  0  0  0
   32.8530   34.0830   36.0200 C   0  0  0  0  0  0  0  0  0  0  0  0
   33.0010   33.4090   34.8670 N   0  0  0  0  0  0  0  0  0  0  0  0
   33.8310   30.3450   36.0710 H   0  0  0  0  0  0  0  0  0  0  0  0
   33.5530   31.6040   38.1440 H   0  0  0  0  0  0  0  0  0  0  0  0
   32.9260   34.0030   38.1160 H   0  0  0  0  0  0  0  0  0  0  0  0
   32.5800   35.1210   35.9040 H   0  0  0  0  0  0  0  0  0  0  0  0
   34.5480   31.0150   30.8970 O   0  0  0  0  0  0  0  0  0  0  0  0
   35.1350   31.7520   30.6540 H   0  0  0  0  0  0  0  0  0  0  0  0
  1  2  2  0  0  0  0
  1  6  1  0  0  0  0
  2  3  1  0  0  0  0
  3 24  1  0  0  0  0
  3  4  2  0  0  0  0
  5  4  1  0  0  0  0
  5  9  1  0  0  0  0
  6  5  2  0  0  0  0
  7  1  1  0  0  0  0
  8  2  1  0  0  0  0
  9 13  1  0  0  0  0
 10  9  2  0  0  0  0
 10 11  1  0  0  0  0
 11 12  2  0  0  0  0
 12 16  1  0  0  0  0
 13 12  1  0  0  0  0
 14 10  1  0  0  0  0
 15 11  1  0  0  0  0
 16 23  2  0  0  0  0
 16 17  1  0  0  0  0
 17 19  2  0  0  0  0
 18 17  1  0  0  0  0
 19 21  1  0  0  0  0
 19 20  1  0  0  0  0
 22 21  2  0  0  0  0
 23 22  1  0  0  0  0
 24 25  1  6  0  0  0
 24 26  1  0  0  0  0
 26 28  1  0  0  0  0
 26 27  1  0  0  0  0
 26 29  1  1  0  0  0
 27 30  1  0  0  0  0
 28 32  1  6  0  0  0
 28 27  1  0  0  0  0
 28 33  1  0  0  0  0
 31 27  1  0  0  0  0
 33 38  2  0  0  0  0
 33 34  1  0  0  0  0
 34 39  1  0  0  0  0
 34 35  2  0  0  0  0
 35 36  1  0  0  0  0
 35 40  1  0  0  0  0
 36 41  1  0  0  0  0
 37 36  2  0  0  0  0
 38 37  1  0  0  0  0
 42 37  1  0  0  0  0
 43 24  1  0  0  0  0
 44 43  1  0  0  0  0
M  END
>  <minimizedAffinity>
-5.97258472

$$$$

 OpenBabel03272501413D

 44 48  0  0  1  0  0  0  0  0999 V2000
   36.2720   28.9610   31.2630 C   0  0  0  0  0  0  0  0  0  0  0  0
   35.4860   29.5810   32.2060 C   0  0  0  0  0  0  0  0  0  0  0  0
   35.5050   29.2180   33.5610 C   0  0  0  0  0  0  0  0  0  0  0  0
   36.3140   28.2550   33.9050 N   0  0  0  0  0  0  0  0  0  0  0  0
   37.0940   27.6420   32.9550 C   0  0  0  0  0  0  0  0  0  0  0  0
   37.0740   27.9840   31.6730 N   0  0  0  0  0  0  0  0  0  0  0  0
   36.2370   29.2600   30.2230 H   0  0  0  0  0  0  0  0  0  0  0  0
   34.8420   30.3820   31.8240 H   0  0  0  0  0  0  0  0  0  0  0  0
   38.0110   26.5680   33.3290 C   0  0  0  0  0  0  0  0  0  0  0  0
   38.8170   25.7590   32.5760 C   0  0  0  0  0  0  0  0  0  0  0  0
   39.5980   24.8230   33.1340 C   0  0  0  0  0  0  0  0  0  0  0  0
   39.5110   24.7470   34.5520 C   0  0  0  0  0  0  0  0  0  0  0  0
   38.3030   26.0430   34.9830 S   0  0  0  0  0  0  0  0  0  0  0  0
   38.7850   25.9250   31.4990 H   0  0  0  0  0  0  0  0  0  0  0  0
   40.2620   24.1470   32.6230 H   0  0  0  0  0  0  0  0  0  0  0  0
   40.1810   23.8860   35.4860 C   0  0  0  0  0  0  0  0  0  0  0  0
   39.4440   23.4240   36.5250 C   0  0  0  0  0  0  0  0  0  0  0  0
   38.4020   23.6730   36.6730 H   0  0  0  0  0  0  0  0  0  0  0  0
   40.0930   22.5840   37.4380 C   0  0  0  0  0  0  0  0  0  0  0  0
   39.5950   22.1660   38.2960 H   0  0  0  0  0  0  0  0  0  0  0  0
   41.4390   22.2960   37.1980 C   0  0  0  0  0  3  0  0  0  0  0  0
   42.1570   22.7980   36.1070 C   0  0  0  0  0  3  0  0  0  0  0  0
   41.4560   23.6040   35.2700 N   0  0  0  0  0  0  0  0  0  0  0  0
   34.5510   29.8960   34.3920 C   0  0  1  0  0  0  0  0  0  0  0  0
   34.6790   29.2510   35.3540 H   0  0  0  0  0  0  0  0  0  0  0  0
   34.8970   31.3100   34.8040 C   0  0  2  0  0  0  0  0  0  0  0  0
   35.9960   31.2030   35.8610 C   0  0  0  0  0  0  0  0  0  0  0  0
   34.6460   31.7620   36.1500 C   0  0  1  0  0  0  0  0  0  0  0  0
   35.0970   31.9590   33.9270 H   0  0  0  0  0  0  0  0  0  0  0  0
   36.8440   31.8890   35.6920 H   0  0  0  0  0  0  0  0  0  0  0  0
   36.2320   30.2950   36.4090 H   0  0  0  0  0  0  0  0  0  0  0  0
   33.8620   31.1830   36.6790 H   0  0  0  0  0  0  0  0  0  0  0  0
   34.6770   33.1590   36.6020 C   0  0  0  0  0  0  0  0  0  0  0  0
   33.8170   33.5270   37.6050 C   0  0  0  0  0  0  0  0  0  0  0  0
   33.8820   34.8280   38.0290 C   0  0  0  0  0  0  0  0  0  0  0  0
   34.7580   35.7580   37.4990 C   0  0  0  0  0  0  0  0  0  0  0  0
   35.6170   35.3460   36.4820 C   0  0  0  0  0  0  0  0  0  0  0  0
   35.5590   34.0710   36.0610 N   0  0  0  0  0  0  0  0  0  0  0  0
   33.1010   32.8880   38.0820 H   0  0  0  0  0  0  0  0  0  0  0  0
   33.2370   35.2110   38.8210 H   0  0  0  0  0  0  0  0  0  0  0  0
   34.8500   36.7930   37.7960 H   0  0  0  0  0  0  0  0  0  0  0  0
   36.3490   35.9560   35.9760 H   0  0  0  0  0  0  0  0  0  0  0  0
   33.2660   29.6790   34.2880 O   0  0  0  0  0  0  0  0  0  0  0  0
   32.7650   29.9290   33.4930 H   0  0  0  0  0  0  0  0  0  0  0  0
  1  6  2  0  0  0  0
  1  2  1  0  0  0  0
  2  3  2  0  0  0  0
  3  4  1  0  0  0  0
  3 24  1  0  0  0  0
  5  9  1  0  0  0  0
  5  4  2  0  0  0  0
  6  5  1  0  0  0  0
  7  1  1  0  0  0  0
  8  2  1  0  0  0  0
  9 13  1  0  0  0  0
 10 11  1  0  0  0  0
 10  9  2  0  0  0  0
 11 12  2  0  0  0  0
 12 13  1  0  0  0  0
 12 16  1  0  0  0  0
 14 10  1  0  0  0  0
 15 11  1  0  0  0  0
 16 17  1  0  0  0  0
 17 18  1  0  0  0  0
 17 19  2  0  0  0  0
 19 20  1  0  0  0  0
 21 19  1  0  0  0  0
 22 21  2  0  0  0  0
 23 16  2  0  0  0  0
 23 22  1  0  0  0  0
 24 26  1  0  0  0  0
 24 25  1  1  0  0  0
 26 29  1  6  0  0  0
 26 27  1  0  0  0  0
 26 28  1  0  0  0  0
 27 28  1  0  0  0  0
 27 31  1  0  0  0  0
 28 33  1  0  0  0  0
 28 32  1  1  0  0  0
 30 27  1  0  0  0  0
 33 34  1  0  0  0  0
 34 35  2  0  0  0  0
 34 39  1  0  0  0  0
 35 40  1  0  0  0  0
 36 41  1  0  0  0  0
 36 35  1  0  0  0  0
 37 36  2  0  0  0  0
 38 37  1  0  0  0  0
 38 33  2  0  0  0  0
 42 37  1  0  0  0  0
 43 24  1  0  0  0  0
 44 43  1  0  0  0  0
M  END
>  <minimizedAffinity>
-5.9274869

$$$$

 OpenBabel03272501413D

 44 48  0  0  1  0  0  0  0  0999 V2000
   37.8370   27.8390   30.0730 C   0  0  0  0  0  0  0  0  0  0  0  0
   37.8600   26.6160   30.7020 C   0  0  0  0  0  0  0  0  0  0  0  0
   37.3140   26.4130   31.9780 C   0  0  0  0  0  0  0  0  0  0  0  0
   36.7690   27.4450   32.5600 N   0  0  0  0  0  0  0  0  0  0  0  0
   36.7520   28.6620   31.9240 C   0  0  0  0  0  0  0  0  0  0  0  0
   37.2710   28.8540   30.7180 N   0  0  0  0  0  0  0  0  0  0  0  0
   38.2670   27.9690   29.0880 H   0  0  0  0  0  0  0  0  0  0  0  0
   38.3350   25.8070   30.1330 H   0  0  0  0  0  0  0  0  0  0  0  0
   36.1380   29.8230   32.5620 C   0  0  0  0  0  0  0  0  0  0  0  0
   35.9320   31.1000   32.1170 C   0  0  0  0  0  0  0  0  0  0  0  0
   35.3310   32.0260   32.8790 C   0  0  0  0  0  0  0  0  0  0  0  0
   34.9370   31.5680   34.1680 C   0  0  0  0  0  0  0  0  0  0  0  0
   35.4620   29.8220   34.1870 S   0  0  0  0  0  0  0  0  0  0  0  0
   36.2860   31.3160   31.1090 H   0  0  0  0  0  0  0  0  0  0  0  0
   35.1270   33.0490   32.6140 H   0  0  0  0  0  0  0  0  0  0  0  0
   34.2810   32.2550   35.2440 C   0  0  0  0  0  0  0  0  0  0  0  0
   35.0140   32.4770   36.3620 C   0  0  0  0  0  0  0  0  0  0  0  0
   36.0450   32.1670   36.4690 H   0  0  0  0  0  0  0  0  0  0  0  0
   34.3790   33.1470   37.4140 C   0  0  0  0  0  0  0  0  0  0  0  0
   34.8750   33.3710   38.3420 H   0  0  0  0  0  0  0  0  0  0  0  0
   33.0470   33.5250   37.2210 C   0  0  0  0  0  3  0  0  0  0  0  0
   32.3320   33.2720   36.0450 C   0  0  0  0  0  3  0  0  0  0  0  0
   33.0200   32.6190   35.0750 N   0  0  0  0  0  0  0  0  0  0  0  0
   37.5110   25.1030   32.5290 C   0  0  1  0  0  0  0  0  0  0  0  0
   38.3400   24.7360   31.7960 H   0  0  0  0  0  0  0  0  0  0  0  0
   38.1300   25.0340   33.9080 C   0  0  2  0  0  0  0  0  0  0  0  0
   39.3630   24.1400   33.7910 C   0  0  0  0  0  0  0  0  0  0  0  0
   38.1820   23.7850   34.6260 C   0  0  1  0  0  0  0  0  0  0  0  0
   38.2730   26.0430   34.3460 H   0  0  0  0  0  0  0  0  0  0  0  0
   40.2640   24.5580   34.2740 H   0  0  0  0  0  0  0  0  0  0  0  0
   39.5500   23.4590   32.9660 H   0  0  0  0  0  0  0  0  0  0  0  0
   37.4210   23.0480   34.2990 H   0  0  0  0  0  0  0  0  0  0  0  0
   38.4990   23.6320   36.0520 C   0  0  0  0  0  0  0  0  0  0  0  0
   37.6320   24.1790   36.9630 C   0  0  0  0  0  0  0  0  0  0  0  0
   37.9330   24.0020   38.2870 C   0  0  0  0  0  0  0  0  0  0  0  0
   39.0470   23.3100   38.7280 C   0  0  0  0  0  0  0  0  0  0  0  0
   39.9040   22.7680   37.7720 C   0  0  0  0  0  0  0  0  0  0  0  0
   39.6140   22.9390   36.4700 N   0  0  0  0  0  0  0  0  0  0  0  0
   36.7440   24.7320   36.7290 H   0  0  0  0  0  0  0  0  0  0  0  0
   37.3030   24.4010   39.0830 H   0  0  0  0  0  0  0  0  0  0  0  0
   39.3310   23.1400   39.7570 H   0  0  0  0  0  0  0  0  0  0  0  0
   40.8060   22.2070   37.9640 H   0  0  0  0  0  0  0  0  0  0  0  0
   36.6960   24.1130   32.2710 O   0  0  0  0  0  0  0  0  0  0  0  0
   35.7730   24.1140   32.5770 H   0  0  0  0  0  0  0  0  0  0  0  0
  1  2  2  0  0  0  0
  1  6  1  0  0  0  0
  2  3  1  0  0  0  0
  3 24  1  0  0  0  0
  3  4  2  0  0  0  0
  5  4  1  0  0  0  0
  5  9  1  0  0  0  0
  6  5  2  0  0  0  0
  7  1  1  0  0  0  0
  8  2  1  0  0  0  0
  9 13  1  0  0  0  0
 10  9  2  0  0  0  0
 10 11  1  0  0  0  0
 11 12  2  0  0  0  0
 12 13  1  0  0  0  0
 12 16  1  0  0  0  0
 14 10  1  0  0  0  0
 15 11  1  0  0  0  0
 16 17  1  0  0  0  0
 17 18  1  0  0  0  0
 17 19  2  0  0  0  0
 19 20  1  0  0  0  0
 21 19  1  0  0  0  0
 22 21  2  0  0  0  0
 23 16  2  0  0  0  0
 23 22  1  0  0  0  0
 24 25  1  6  0  0  0
 24 26  1  0  0  0  0
 26 29  1  1  0  0  0
 26 28  1  0  0  0  0
 27 26  1  0  0  0  0
 27 30  1  0  0  0  0
 27 28  1  0  0  0  0
 28 32  1  6  0  0  0
 28 33  1  0  0  0  0
 31 27  1  0  0  0  0
 33 38  2  0  0  0  0
 33 34  1  0  0  0  0
 34 35  2  0  0  0  0
 35 36  1  0  0  0  0
 35 40  1  0  0  0  0
 36 41  1  0  0  0  0
 37 42  1  0  0  0  0
 37 36  2  0  0  0  0
 38 37  1  0  0  0  0
 39 34  1  0  0  0  0
 43 24  1  0  0  0  0
 43 44  1  0  0  0  0
M  END
>  <minimizedAffinity>
-5.83645535

$$$$

 OpenBabel03272501413D

 44 48  0  0  1  0  0  0  0  0999 V2000
   37.7900   27.8810   29.9890 C   0  0  0  0  0  0  0  0  0  0  0  0
   36.7450   28.6660   30.4200 C   0  0  0  0  0  0  0  0  0  0  0  0
   36.4430   28.8380   31.7790 C   0  0  0  0  0  0  0  0  0  0  0  0
   37.2040   28.2210   32.6390 N   0  0  0  0  0  0  0  0  0  0  0  0
   38.2440   27.4400   32.1980 C   0  0  0  0  0  0  0  0  0  0  0  0
   38.5280   27.2740   30.9130 N   0  0  0  0  0  0  0  0  0  0  0  0
   38.0010   27.7630   28.9340 H   0  0  0  0  0  0  0  0  0  0  0  0
   36.1650   29.1480   29.6250 H   0  0  0  0  0  0  0  0  0  0  0  0
   39.1090   26.7490   33.1510 C   0  0  0  0  0  0  0  0  0  0  0  0
   40.2570   27.1400   33.7840 C   0  0  0  0  0  0  0  0  0  0  0  0
   40.9000   26.3340   34.6420 C   0  0  0  0  0  0  0  0  0  0  0  0
   40.2930   25.0610   34.8270 C   0  0  0  0  0  0  0  0  0  0  0  0
   38.8260   25.1170   33.7460 S   0  0  0  0  0  0  0  0  0  0  0  0
   40.6120   28.1430   33.5480 H   0  0  0  0  0  0  0  0  0  0  0  0
   41.8030   26.5560   35.1840 H   0  0  0  0  0  0  0  0  0  0  0  0
   40.6830   23.9490   35.6490 C   0  0  0  0  0  0  0  0  0  0  0  0
   39.7110   23.3760   36.3990 C   0  0  0  0  0  0  0  0  0  0  0  0
   38.6840   23.7150   36.4020 H   0  0  0  0  0  0  0  0  0  0  0  0
   40.0860   22.2920   37.2020 C   0  0  0  0  0  0  0  0  0  0  0  0
   39.3890   21.7700   37.8340 H   0  0  0  0  0  0  0  0  0  0  0  0
   41.4270   21.8980   37.1590 C   0  0  0  0  0  3  0  0  0  0  0  0
   42.3940   22.5240   36.3660 C   0  0  0  0  0  3  0  0  0  0  0  0
   41.9490   23.5650   35.6180 N   0  0  0  0  0  0  0  0  0  0  0  0
   35.2620   29.6060   32.0520 C   0  0  1  0  0  0  0  0  0  0  0  0
   34.4710   28.7720   31.8570 H   0  0  0  0  0  0  0  0  0  0  0  0
   35.0510   30.0360   33.4870 C   0  0  2  0  0  0  0  0  0  0  0  0
   33.6750   29.5190   33.9030 C   0  0  0  0  0  0  0  0  0  0  0  0
   34.0050   30.9690   33.8260 C   0  0  1  0  0  0  0  0  0  0  0  0
   35.9120   29.7630   34.1310 H   0  0  0  0  0  0  0  0  0  0  0  0
   33.6670   29.0150   34.8850 H   0  0  0  0  0  0  0  0  0  0  0  0
   32.9060   29.1970   33.2060 H   0  0  0  0  0  0  0  0  0  0  0  0
   33.6840   31.6100   32.9790 H   0  0  0  0  0  0  0  0  0  0  0  0
   33.8670   31.6690   35.1100 C   0  0  0  0  0  0  0  0  0  0  0  0
   35.0040   31.8910   35.8440 C   0  0  0  0  0  0  0  0  0  0  0  0
   34.8550   32.5670   37.0250 C   0  0  0  0  0  0  0  0  0  0  0  0
   33.6360   33.0240   37.4920 C   0  0  0  0  0  0  0  0  0  0  0  0
   32.5030   32.7800   36.7180 C   0  0  0  0  0  0  0  0  0  0  0  0
   32.6420   32.1160   35.5570 N   0  0  0  0  0  0  0  0  0  0  0  0
   35.9940   31.5800   35.5750 H   0  0  0  0  0  0  0  0  0  0  0  0
   35.7020   32.7890   37.6760 H   0  0  0  0  0  0  0  0  0  0  0  0
   33.4630   33.5620   38.4130 H   0  0  0  0  0  0  0  0  0  0  0  0
   31.4910   33.0740   36.9510 H   0  0  0  0  0  0  0  0  0  0  0  0
   34.7580   30.4370   31.1760 O   0  0  0  0  0  0  0  0  0  0  0  0
   35.2290   31.2420   30.9010 H   0  0  0  0  0  0  0  0  0  0  0  0
  1  2  2  0  0  0  0
  1  6  1  0  0  0  0
  2  3  1  0  0  0  0
  3 24  1  0  0  0  0
  3  4  2  0  0  0  0
  5  4  1  0  0  0  0
  5  9  1  0  0  0  0
  6  5  2  0  0  0  0
  7  1  1  0  0  0  0
  8  2  1  0  0  0  0
  9 13  1  0  0  0  0
  9 10  2  0  0  0  0
 10 11  1  0  0  0  0
 11 12  2  0  0  0  0
 11 15  1  0  0  0  0
 12 16  1  0  0  0  0
 13 12  1  0  0  0  0
 14 10  1  0  0  0  0
 16 17  1  0  0  0  0
 17 18  1  0  0  0  0
 17 19  2  0  0  0  0
 19 20  1  0  0  0  0
 21 19  1  0  0  0  0
 22 21  2  0  0  0  0
 23 16  2  0  0  0  0
 23 22  1  0  0  0  0
 24 25  1  6  0  0  0
 24 26  1  0  0  0  0
 26 28  1  0  0  0  0
 26 27  1  0  0  0  0
 26 29  1  1  0  0  0
 27 30  1  0  0  0  0
 28 32  1  6  0  0  0
 28 27  1  0  0  0  0
 28 33  1  0  0  0  0
 31 27  1  0  0  0  0
 33 38  2  0  0  0  0
 33 34  1  0  0  0  0
 34 35  2  0  0  0  0
 35 36  1  0  0  0  0
 35 40  1  0  0  0  0
 36 41  1  0  0  0  0
 37 42  1  0  0  0  0
 37 36  2  0  0  0  0
 38 37  1  0  0  0  0
 39 34  1  0  0  0  0
 43 24  1  0  0  0  0
 44 43  1  0  0  0  0
M  END
>  <minimizedAffinity>
-5.81134081

$$$$
