REMARK  Name = 
REMARK  2 active torsions:
REMARK  status: ('A' for Active; 'I' for Inactive)
REMARK    1  A    between atoms: C_2  and  C_12
REMARK    2  A    between atoms: C_20  and  C_36
REMARK                            x       y       z     vdW  Elec       q    Type
REMARK                         _______ _______ _______ _____ _____    ______ ____
ROOT
ATOM      1  C   UNL     1      36.844  31.112  48.549  0.00  0.00    +0.000 A 
ATOM      2  N   UNL     1      36.794  32.016  49.564  0.00  0.00    +0.000 NA
ATOM      3  C   UNL     1      37.679  33.025  49.599  0.00  0.00    +0.000 A 
ATOM      4  N   UNL     1      38.655  33.227  48.673  0.00  0.00    +0.000 NA
ATOM      5  C   UNL     1      38.732  32.348  47.652  0.00  0.00    +0.000 A 
ATOM      6  C   UNL     1      39.674  32.479  46.638  0.00  0.00    +0.000 A 
ATOM      7  C   UNL     1      39.711  31.570  45.580  0.00  0.00    +0.000 A 
ATOM      8  C   UNL     1      38.784  30.520  45.554  0.00  0.00    +0.000 A 
ATOM      9  C   UNL     1      37.863  30.428  46.587  0.00  0.00    +0.000 A 
ATOM     10  C   UNL     1      37.825  31.315  47.619  0.00  0.00    +0.000 A 
ATOM     11  H   UNL     1      37.671  33.769  50.396  0.00  0.00    +0.000 HD
ATOM     12  H   UNL     1      40.342  33.319  46.752  0.00  0.00    +0.000 HD
ATOM     13  H   UNL     1      40.481  31.769  44.850  0.00  0.00    +0.000 HD
ATOM     14  H   UNL     1      38.975  29.937  44.668  0.00  0.00    +0.000 HD
ENDROOT
BRANCH   1  16
ATOM     15  C   UNL     1      35.836  28.928  49.393  0.00  0.00    +0.000 A 
ATOM     16  C   UNL     1      35.853  30.094  48.592  0.00  0.00    +0.000 A 
ATOM     17  C   UNL     1      34.778  30.308  47.694  0.00  0.00    +0.000 A 
ATOM     18  N   UNL     1      33.769  29.396  47.622  0.00  0.00    +0.000 NA
ATOM     19  C   UNL     1      33.816  28.290  48.420  0.00  0.00    +0.000 A 
ATOM     20  N   UNL     1      34.813  28.060  49.279  0.00  0.00    +0.000 NA
ATOM     21  N   UNL     1      32.735  27.337  48.276  0.00  0.00    +0.000 N 
ATOM     22  C   UNL     1      31.357  27.639  48.529  0.00  0.00    +0.000 C 
ATOM     23  C   UNL     1      30.612  26.442  48.025  0.00  0.00    +0.000 C 
ATOM     24  C   UNL     1      31.598  25.613  47.230  0.00  0.00    +0.000 C 
ATOM     25  C   UNL     1      32.913  25.938  47.847  0.00  0.00    +0.000 C 
ATOM     26  H   UNL     1      36.677  28.834  50.050  0.00  0.00    +0.000 HD
ATOM     27  H   UNL     1      34.704  31.157  47.056  0.00  0.00    +0.000 HD
ATOM     28  H   UNL     1      31.017  28.523  47.986  0.00  0.00    +0.000 HD
ATOM     29  H   UNL     1      31.269  27.766  49.644  0.00  0.00    +0.000 HD
ATOM     30  H   UNL     1      30.327  25.816  48.908  0.00  0.00    +0.000 HD
ATOM     31  H   UNL     1      29.691  26.685  47.475  0.00  0.00    +0.000 HD
ATOM     32  H   UNL     1      31.581  25.965  46.160  0.00  0.00    +0.000 HD
ATOM     33  H   UNL     1      31.381  24.530  47.273  0.00  0.00    +0.000 HD
ATOM     34  H   UNL     1      33.237  25.284  48.660  0.00  0.00    +0.000 HD
ATOM     35  H   UNL     1      33.695  25.966  47.060  0.00  0.00    +0.000 HD
ENDBRANCH   1  16
BRANCH   9  36
ATOM     36  C   UNL     1      37.082  29.258  46.215  0.00  0.00    +0.000 A 
ATOM     37  C   UNL     1      37.201  28.402  45.140  0.00  0.00    +0.000 A 
ATOM     38  H   UNL     1      38.075  28.643  44.511  0.00  0.00    +0.000 HD
ATOM     39  C   UNL     1      36.405  27.359  44.749  0.00  0.00    +0.000 A 
ATOM     40  H   UNL     1      36.671  26.800  43.865  0.00  0.00    +0.000 HD
ATOM     41  C   UNL     1      35.326  27.165  45.581  0.00  0.00    +0.000 A 
ATOM     42  C   UNL     1      35.148  27.985  46.670  0.00  0.00    +0.000 A 
ATOM     43  N   UNL     1      35.974  28.989  46.989  0.00  0.00    +0.000 NA
ENDBRANCH   9  36
TORSDOF 2
