
 OpenBabel03272504133D

 20 21  0  0  0  0  0  0  0  0999 V2000
   38.3690   23.8180   37.0190 C   0  0  0  0  0  0  0  0  0  0  0  0
   37.8500   24.9340   36.3330 C   0  0  0  0  0  0  0  0  0  0  0  0
   37.9660   24.9700   34.9470 C   0  0  0  0  0  0  0  0  0  0  0  0
   38.5770   23.9270   34.3270 N   0  0  0  0  0  0  0  0  0  0  0  0
   39.0650   22.8720   35.0120 C   0  0  0  0  0  0  0  0  0  0  0  0
   38.9580   22.8240   36.3470 N   0  0  0  0  0  0  0  0  0  0  0  0
   37.3820   25.7180   36.8920 H   0  0  0  0  0  0  0  0  0  0  0  0
   39.5270   22.1080   34.3920 H   0  0  0  0  0  0  0  0  0  0  0  0
   37.4470   26.0980   34.1920 C   0  0  0  0  0  0  0  0  0  0  0  0
   37.0050   27.2080   34.8810 C   0  0  0  0  0  0  0  0  0  0  0  0
   37.0490   27.2280   35.9570 H   0  0  0  0  0  0  0  0  0  0  0  0
   36.5090   28.2890   34.2090 C   0  0  0  0  0  0  0  0  0  0  0  0
   36.1750   29.1340   34.7850 H   0  0  0  0  0  0  0  0  0  0  0  0
   36.4710   28.2200   32.8170 C   0  0  0  0  0  3  0  0  0  0  0  0
   36.9220   27.0890   32.1390 C   0  0  0  0  0  3  0  0  0  0  0  0
   37.4060   26.0430   32.8690 N   0  0  0  0  0  0  0  0  0  0  0  0
   38.2520   23.7620   38.5020 C   0  0  0  0  0  0  0  0  0  0  0  0
   37.9060   25.0060   39.0000 F   0  0  0  0  0  0  0  0  0  0  0  0
   37.3640   22.7640   38.8170 F   0  0  0  0  0  0  0  0  0  0  0  0
   39.5150   23.4580   39.0030 F   0  0  0  0  0  0  0  0  0  0  0  0
  1 17  1  0  0  0  0
  2  7  1  0  0  0  0
  2  1  2  0  0  0  0
  3  2  1  0  0  0  0
  4  3  2  0  0  0  0
  4  5  1  0  0  0  0
  5  6  2  0  0  0  0
  6  1  1  0  0  0  0
  8  5  1  0  0  0  0
  9 10  1  0  0  0  0
  9  3  1  0  0  0  0
 10 11  1  0  0  0  0
 12 13  1  0  0  0  0
 12 10  2  0  0  0  0
 14 12  1  0  0  0  0
 15 14  2  0  0  0  0
 15 16  1  0  0  0  0
 16  9  2  0  0  0  0
 17 19  1  0  0  0  0
 17 18  1  0  0  0  0
 17 20  1  0  0  0  0
M  END
>  <minimizedAffinity>
-5.20512009

$$$$

 OpenBabel03272504133D

 20 21  0  0  0  0  0  0  0  0999 V2000
   38.5480   24.1310   36.9010 C   0  0  0  0  0  0  0  0  0  0  0  0
   37.8420   25.1610   36.2470 C   0  0  0  0  0  0  0  0  0  0  0  0
   38.0340   25.3270   34.8790 C   0  0  0  0  0  0  0  0  0  0  0  0
   38.8940   24.4880   34.2450 N   0  0  0  0  0  0  0  0  0  0  0  0
   39.5560   23.5110   34.8990 C   0  0  0  0  0  0  0  0  0  0  0  0
   39.3790   23.3400   36.2170 N   0  0  0  0  0  0  0  0  0  0  0  0
   37.1810   25.7820   36.8160 H   0  0  0  0  0  0  0  0  0  0  0  0
   40.2110   22.9130   34.2710 H   0  0  0  0  0  0  0  0  0  0  0  0
   37.3300   26.3740   34.1570 C   0  0  0  0  0  0  0  0  0  0  0  0
   36.9790   27.5230   34.8330 C   0  0  0  0  0  0  0  0  0  0  0  0
   37.2280   27.6330   35.8760 H   0  0  0  0  0  0  0  0  0  0  0  0
   36.3170   28.5300   34.1920 C   0  0  0  0  0  0  0  0  0  0  0  0
   36.0620   29.4100   34.7560 H   0  0  0  0  0  0  0  0  0  0  0  0
   36.0150   28.3460   32.8440 C   0  0  0  0  0  3  0  0  0  0  0  0
   36.3770   27.1760   32.1770 C   0  0  0  0  0  3  0  0  0  0  0  0
   37.0390   26.2090   32.8750 N   0  0  0  0  0  0  0  0  0  0  0  0
   38.3540   23.9380   38.3640 C   0  0  0  0  0  0  0  0  0  0  0  0
   39.4850   23.3690   38.9240 F   0  0  0  0  0  0  0  0  0  0  0  0
   38.0080   25.1500   38.9070 F   0  0  0  0  0  0  0  0  0  0  0  0
   37.3150   23.0250   38.5250 F   0  0  0  0  0  0  0  0  0  0  0  0
  1 17  1  0  0  0  0
  2  7  1  0  0  0  0
  2  1  1  0  0  0  0
  3  2  2  0  0  0  0
  4  3  1  0  0  0  0
  4  5  2  0  0  0  0
  5  6  1  0  0  0  0
  6  1  2  0  0  0  0
  8  5  1  0  0  0  0
  9 10  1  0  0  0  0
  9  3  1  0  0  0  0
 10 11  1  0  0  0  0
 12 13  1  0  0  0  0
 12 10  2  0  0  0  0
 14 12  1  0  0  0  0
 15 14  2  0  0  0  0
 15 16  1  0  0  0  0
 16  9  2  0  0  0  0
 17 20  1  0  0  0  0
 17 19  1  0  0  0  0
 17 18  1  0  0  0  0
M  END
>  <minimizedAffinity>
-5.07903624

$$$$

 OpenBabel03272504133D

 20 21  0  0  0  0  0  0  0  0999 V2000
   38.7430   23.0490   37.1070 C   0  0  0  0  0  0  0  0  0  0  0  0
   37.7750   22.7550   36.1260 C   0  0  0  0  0  0  0  0  0  0  0  0
   38.2030   22.2140   34.9180 C   0  0  0  0  0  0  0  0  0  0  0  0
   39.5330   22.0000   34.7450 N   0  0  0  0  0  0  0  0  0  0  0  0
   40.4360   22.2920   35.7040 C   0  0  0  0  0  0  0  0  0  0  0  0
   40.0370   22.8120   36.8730 N   0  0  0  0  0  0  0  0  0  0  0  0
   36.7440   22.9530   36.3360 H   0  0  0  0  0  0  0  0  0  0  0  0
   41.4660   22.0690   35.4350 H   0  0  0  0  0  0  0  0  0  0  0  0
   37.2450   21.8930   33.8730 C   0  0  0  0  0  0  0  0  0  0  0  0
   36.2780   20.9440   34.1310 C   0  0  0  0  0  0  0  0  0  0  0  0
   36.2420   20.4580   35.0910 H   0  0  0  0  0  0  0  0  0  0  0  0
   35.3590   20.6130   33.1760 C   0  0  0  0  0  0  0  0  0  0  0  0
   34.6220   19.8680   33.4180 H   0  0  0  0  0  0  0  0  0  0  0  0
   35.4430   21.2670   31.9480 C   0  0  0  0  0  3  0  0  0  0  0  0
   36.4280   22.2240   31.7060 C   0  0  0  0  0  3  0  0  0  0  0  0
   37.3150   22.5090   32.7020 N   0  0  0  0  0  0  0  0  0  0  0  0
   38.3040   23.6270   38.4060 C   0  0  0  0  0  0  0  0  0  0  0  0
   37.9860   24.9650   38.2500 F   0  0  0  0  0  0  0  0  0  0  0  0
   37.2720   22.8570   38.8820 F   0  0  0  0  0  0  0  0  0  0  0  0
   39.3910   23.5640   39.2740 F   0  0  0  0  0  0  0  0  0  0  0  0
  1 17  1  0  0  0  0
  2  7  1  0  0  0  0
  2  1  2  0  0  0  0
  3  2  1  0  0  0  0
  4  3  2  0  0  0  0
  4  5  1  0  0  0  0
  5  6  2  0  0  0  0
  6  1  1  0  0  0  0
  8  5  1  0  0  0  0
  9 10  1  0  0  0  0
  9  3  1  0  0  0  0
 10 11  1  0  0  0  0
 12 13  1  0  0  0  0
 12 10  2  0  0  0  0
 14 12  1  0  0  0  0
 15 14  2  0  0  0  0
 15 16  1  0  0  0  0
 16  9  2  0  0  0  0
 17 19  1  0  0  0  0
 17 20  1  0  0  0  0
 18 17  1  0  0  0  0
M  END
>  <minimizedAffinity>
-5.03597069

$$$$

 OpenBabel03272504133D

 20 21  0  0  0  0  0  0  0  0999 V2000
   40.0030   23.0130   37.0840 C   0  0  0  0  0  0  0  0  0  0  0  0
   39.5660   23.8200   36.0140 C   0  0  0  0  0  0  0  0  0  0  0  0
   38.4230   24.5920   36.1930 C   0  0  0  0  0  0  0  0  0  0  0  0
   37.7850   24.5260   37.3910 N   0  0  0  0  0  0  0  0  0  0  0  0
   38.2290   23.7440   38.3970 C   0  0  0  0  0  0  0  0  0  0  0  0
   39.3290   22.9960   38.2380 N   0  0  0  0  0  0  0  0  0  0  0  0
   40.1230   23.8180   35.0990 H   0  0  0  0  0  0  0  0  0  0  0  0
   37.6250   23.7880   39.3000 H   0  0  0  0  0  0  0  0  0  0  0  0
   37.9310   25.4410   35.1210 C   0  0  0  0  0  0  0  0  0  0  0  0
   37.6140   26.7520   35.4080 C   0  0  0  0  0  0  0  0  0  0  0  0
   37.7350   27.1300   36.4100 H   0  0  0  0  0  0  0  0  0  0  0  0
   37.1480   27.5830   34.4290 C   0  0  0  0  0  0  0  0  0  0  0  0
   36.9130   28.5980   34.6960 H   0  0  0  0  0  0  0  0  0  0  0  0
   37.0080   27.0530   33.1480 C   0  0  0  0  0  3  0  0  0  0  0  0
   37.3320   25.7240   32.8770 C   0  0  0  0  0  3  0  0  0  0  0  0
   37.7940   24.9470   33.8990 N   0  0  0  0  0  0  0  0  0  0  0  0
   41.2250   22.1820   36.9110 C   0  0  0  0  0  0  0  0  0  0  0  0
   41.3630   21.3090   37.9770 F   0  0  0  0  0  0  0  0  0  0  0  0
   41.1450   21.5650   35.6870 F   0  0  0  0  0  0  0  0  0  0  0  0
   42.3180   23.0440   36.9440 F   0  0  0  0  0  0  0  0  0  0  0  0
  1  6  1  0  0  0  0
  2  3  1  0  0  0  0
  2  1  2  0  0  0  0
  3  4  2  0  0  0  0
  4  5  1  0  0  0  0
  5  8  1  0  0  0  0
  6  5  2  0  0  0  0
  7  2  1  0  0  0  0
  9 10  1  0  0  0  0
  9  3  1  0  0  0  0
 10 11  1  0  0  0  0
 12 13  1  0  0  0  0
 12 10  2  0  0  0  0
 14 12  1  0  0  0  0
 15 14  2  0  0  0  0
 15 16  1  0  0  0  0
 16  9  2  0  0  0  0
 17 20  1  0  0  0  0
 17  1  1  0  0  0  0
 17 18  1  0  0  0  0
 19 17  1  0  0  0  0
M  END
>  <minimizedAffinity>
-4.8357296

$$$$

 OpenBabel03272504133D

 20 21  0  0  0  0  0  0  0  0999 V2000
   38.2110   23.4630   36.9280 C   0  0  0  0  0  0  0  0  0  0  0  0
   38.8420   24.4760   36.1780 C   0  0  0  0  0  0  0  0  0  0  0  0
   38.9030   24.3320   34.7960 C   0  0  0  0  0  0  0  0  0  0  0  0
   38.3530   23.2210   34.2400 N   0  0  0  0  0  0  0  0  0  0  0  0
   37.7540   22.2690   34.9860 C   0  0  0  0  0  0  0  0  0  0  0  0
   37.6880   22.3950   36.3190 N   0  0  0  0  0  0  0  0  0  0  0  0
   39.2540   25.3220   36.6890 H   0  0  0  0  0  0  0  0  0  0  0  0
   37.3550   21.4350   34.4140 H   0  0  0  0  0  0  0  0  0  0  0  0
   39.5430   25.3480   33.9770 C   0  0  0  0  0  0  0  0  0  0  0  0
   40.4870   26.1690   34.5570 C   0  0  0  0  0  0  0  0  0  0  0  0
   40.7380   26.0510   35.5990 H   0  0  0  0  0  0  0  0  0  0  0  0
   41.1110   27.1360   33.8230 C   0  0  0  0  0  0  0  0  0  0  0  0
   41.8400   27.7550   34.3150 H   0  0  0  0  0  0  0  0  0  0  0  0
   40.7560   27.2540   32.4800 C   0  0  0  0  0  3  0  0  0  0  0  0
   39.7990   26.4150   31.9100 C   0  0  0  0  0  3  0  0  0  0  0  0
   39.2130   25.4680   32.6990 N   0  0  0  0  0  0  0  0  0  0  0  0
   38.1350   23.6000   38.4080 C   0  0  0  0  0  0  0  0  0  0  0  0
   37.7700   24.8920   38.7490 F   0  0  0  0  0  0  0  0  0  0  0  0
   37.2810   22.6330   38.8780 F   0  0  0  0  0  0  0  0  0  0  0  0
   39.4180   23.3930   38.9080 F   0  0  0  0  0  0  0  0  0  0  0  0
  1 17  1  0  0  0  0
  2  7  1  0  0  0  0
  2  1  2  0  0  0  0
  3  2  1  0  0  0  0
  4  3  2  0  0  0  0
  4  5  1  0  0  0  0
  5  6  2  0  0  0  0
  6  1  1  0  0  0  0
  8  5  1  0  0  0  0
  9 10  1  0  0  0  0
  9  3  1  0  0  0  0
 10 11  1  0  0  0  0
 12 13  1  0  0  0  0
 12 10  2  0  0  0  0
 14 12  1  0  0  0  0
 15 14  2  0  0  0  0
 15 16  1  0  0  0  0
 16  9  2  0  0  0  0
 17 18  1  0  0  0  0
 17 19  1  0  0  0  0
 17 20  1  0  0  0  0
M  END
>  <minimizedAffinity>
-4.69371653

$$$$

 OpenBabel03272504133D

 20 21  0  0  0  0  0  0  0  0999 V2000
   38.8240   23.2310   37.1640 C   0  0  0  0  0  0  0  0  0  0  0  0
   38.0670   23.5560   36.0210 C   0  0  0  0  0  0  0  0  0  0  0  0
   38.5420   23.1520   34.7780 C   0  0  0  0  0  0  0  0  0  0  0  0
   39.7140   22.4660   34.7300 N   0  0  0  0  0  0  0  0  0  0  0  0
   40.4160   22.1700   35.8430 C   0  0  0  0  0  0  0  0  0  0  0  0
   39.9690   22.5520   37.0470 N   0  0  0  0  0  0  0  0  0  0  0  0
   37.1520   24.1000   36.1400 H   0  0  0  0  0  0  0  0  0  0  0  0
   41.3340   21.6170   35.6610 H   0  0  0  0  0  0  0  0  0  0  0  0
   37.7980   23.4620   33.5680 C   0  0  0  0  0  0  0  0  0  0  0  0
   37.6680   24.7820   33.1910 C   0  0  0  0  0  0  0  0  0  0  0  0
   38.1130   25.5600   33.7880 H   0  0  0  0  0  0  0  0  0  0  0  0
   36.9770   25.1160   32.0610 C   0  0  0  0  0  0  0  0  0  0  0  0
   36.8990   26.1570   31.8040 H   0  0  0  0  0  0  0  0  0  0  0  0
   36.4180   24.0780   31.3180 C   0  0  0  0  0  3  0  0  0  0  0  0
   36.5600   22.7490   31.7160 C   0  0  0  0  0  3  0  0  0  0  0  0
   37.2630   22.4830   32.8540 N   0  0  0  0  0  0  0  0  0  0  0  0
   38.3310   23.6540   38.5030 C   0  0  0  0  0  0  0  0  0  0  0  0
   37.2750   22.8490   38.8980 F   0  0  0  0  0  0  0  0  0  0  0  0
   39.3970   23.6450   39.3670 F   0  0  0  0  0  0  0  0  0  0  0  0
   37.8310   24.9460   38.3690 F   0  0  0  0  0  0  0  0  0  0  0  0
  1 17  1  0  0  0  0
  2  7  1  0  0  0  0
  2  1  2  0  0  0  0
  3  2  1  0  0  0  0
  4  3  2  0  0  0  0
  4  5  1  0  0  0  0
  5  6  2  0  0  0  0
  6  1  1  0  0  0  0
  8  5  1  0  0  0  0
  9  3  1  0  0  0  0
 10  9  1  0  0  0  0
 10 11  1  0  0  0  0
 12 10  2  0  0  0  0
 13 12  1  0  0  0  0
 14 15  2  0  0  0  0
 14 12  1  0  0  0  0
 15 16  1  0  0  0  0
 16  9  2  0  0  0  0
 17 18  1  0  0  0  0
 17 19  1  0  0  0  0
 20 17  1  0  0  0  0
M  END
>  <minimizedAffinity>
-4.64517736

$$$$

 OpenBabel03272504133D

 20 21  0  0  0  0  0  0  0  0999 V2000
   36.9510   21.5860   32.5600 C   0  0  0  0  0  0  0  0  0  0  0  0
   37.1210   22.0160   33.8910 C   0  0  0  0  0  0  0  0  0  0  0  0
   38.4040   22.0080   34.4290 C   0  0  0  0  0  0  0  0  0  0  0  0
   39.4270   21.5850   33.6420 N   0  0  0  0  0  0  0  0  0  0  0  0
   39.2320   21.1790   32.3690 C   0  0  0  0  0  0  0  0  0  0  0  0
   38.0010   21.1830   31.8400 N   0  0  0  0  0  0  0  0  0  0  0  0
   36.2650   22.3350   34.4490 H   0  0  0  0  0  0  0  0  0  0  0  0
   40.1370   20.8680   31.8530 H   0  0  0  0  0  0  0  0  0  0  0  0
   38.6330   22.4420   35.7970 C   0  0  0  0  0  0  0  0  0  0  0  0
   39.8820   22.2510   36.3510 C   0  0  0  0  0  0  0  0  0  0  0  0
   40.6650   21.7910   35.7710 H   0  0  0  0  0  0  0  0  0  0  0  0
   40.1390   22.6440   37.6330 C   0  0  0  0  0  0  0  0  0  0  0  0
   41.1260   22.4760   38.0260 H   0  0  0  0  0  0  0  0  0  0  0  0
   39.0980   23.2350   38.3460 C   0  0  0  0  0  3  0  0  0  0  0  0
   37.8420   23.4190   37.7690 C   0  0  0  0  0  3  0  0  0  0  0  0
   37.6510   23.0050   36.4840 N   0  0  0  0  0  0  0  0  0  0  0  0
   35.5850   21.5890   31.9680 C   0  0  0  0  0  0  0  0  0  0  0  0
   34.7600   20.7270   32.6700 F   0  0  0  0  0  0  0  0  0  0  0  0
   35.1420   22.8880   31.9360 F   0  0  0  0  0  0  0  0  0  0  0  0
   35.6960   21.0870   30.6740 F   0  0  0  0  0  0  0  0  0  0  0  0
  1  2  1  0  0  0  0
  2  3  2  0  0  0  0
  2  7  1  0  0  0  0
  3  9  1  0  0  0  0
  4  3  1  0  0  0  0
  5  4  2  0  0  0  0
  6  5  1  0  0  0  0
  6  1  2  0  0  0  0
  8  5  1  0  0  0  0
  9 10  2  0  0  0  0
  9 16  1  0  0  0  0
 10 12  1  0  0  0  0
 11 10  1  0  0  0  0
 12 13  1  0  0  0  0
 12 14  2  0  0  0  0
 15 14  1  0  0  0  0
 16 15  2  0  0  0  0
 17  1  1  0  0  0  0
 17 18  1  0  0  0  0
 19 17  1  0  0  0  0
 20 17  1  0  0  0  0
M  END
>  <minimizedAffinity>
-4.60394621

$$$$

 OpenBabel03272504133D

 20 21  0  0  0  0  0  0  0  0999 V2000
   37.2490   26.2000   33.2160 C   0  0  0  0  0  0  0  0  0  0  0  0
   37.6630   25.8120   34.5060 C   0  0  0  0  0  0  0  0  0  0  0  0
   38.0080   24.4810   34.7170 C   0  0  0  0  0  0  0  0  0  0  0  0
   37.9260   23.6230   33.6670 N   0  0  0  0  0  0  0  0  0  0  0  0
   37.5260   24.0240   32.4420 C   0  0  0  0  0  0  0  0  0  0  0  0
   37.1920   25.3040   32.2260 N   0  0  0  0  0  0  0  0  0  0  0  0
   37.7010   26.5470   35.2840 H   0  0  0  0  0  0  0  0  0  0  0  0
   37.5070   23.2360   31.6940 H   0  0  0  0  0  0  0  0  0  0  0  0
   38.4410   24.0300   36.0290 C   0  0  0  0  0  0  0  0  0  0  0  0
   37.7390   24.4510   37.1390 C   0  0  0  0  0  0  0  0  0  0  0  0
   36.8880   25.1020   37.0240 H   0  0  0  0  0  0  0  0  0  0  0  0
   38.1140   24.0510   38.3890 C   0  0  0  0  0  0  0  0  0  0  0  0
   37.5390   24.4030   39.2280 H   0  0  0  0  0  0  0  0  0  0  0  0
   39.2210   23.2100   38.4920 C   0  0  0  0  0  3  0  0  0  0  0  0
   39.9180   22.7940   37.3580 C   0  0  0  0  0  3  0  0  0  0  0  0
   39.4910   23.2300   36.1370 N   0  0  0  0  0  0  0  0  0  0  0  0
   36.8770   27.6200   32.9720 C   0  0  0  0  0  0  0  0  0  0  0  0
   36.6660   28.2710   34.1760 F   0  0  0  0  0  0  0  0  0  0  0  0
   37.8570   28.1840   32.1940 F   0  0  0  0  0  0  0  0  0  0  0  0
   35.6630   27.6170   32.2900 F   0  0  0  0  0  0  0  0  0  0  0  0
  1  2  1  0  0  0  0
  2  3  2  0  0  0  0
  2  7  1  0  0  0  0
  3  9  1  0  0  0  0
  4  3  1  0  0  0  0
  5  4  2  0  0  0  0
  6  5  1  0  0  0  0
  6  1  2  0  0  0  0
  8  5  1  0  0  0  0
  9 16  2  0  0  0  0
  9 10  1  0  0  0  0
 10 12  2  0  0  0  0
 11 10  1  0  0  0  0
 12 14  1  0  0  0  0
 12 13  1  0  0  0  0
 15 14  2  0  0  0  0
 16 15  1  0  0  0  0
 17  1  1  0  0  0  0
 17 18  1  0  0  0  0
 19 17  1  0  0  0  0
 20 17  1  0  0  0  0
M  END
>  <minimizedAffinity>
-4.5840435

$$$$

 OpenBabel03272504133D

 20 21  0  0  0  0  0  0  0  0999 V2000
   38.2150   24.2550   36.9240 C   0  0  0  0  0  0  0  0  0  0  0  0
   38.1750   23.3120   35.8780 C   0  0  0  0  0  0  0  0  0  0  0  0
   38.0790   23.7790   34.5710 C   0  0  0  0  0  0  0  0  0  0  0  0
   38.0260   25.1220   34.3720 N   0  0  0  0  0  0  0  0  0  0  0  0
   38.0660   26.0000   35.3950 C   0  0  0  0  0  0  0  0  0  0  0  0
   38.1600   25.5630   36.6590 N   0  0  0  0  0  0  0  0  0  0  0  0
   38.2210   22.2680   36.1150 H   0  0  0  0  0  0  0  0  0  0  0  0
   38.0170   27.0440   35.0940 H   0  0  0  0  0  0  0  0  0  0  0  0
   38.0350   22.8480   33.4560 C   0  0  0  0  0  0  0  0  0  0  0  0
   38.7750   21.6870   33.5330 C   0  0  0  0  0  0  0  0  0  0  0  0
   39.3700   21.4840   34.4080 H   0  0  0  0  0  0  0  0  0  0  0  0
   38.7620   20.7870   32.5070 C   0  0  0  0  0  0  0  0  0  0  0  0
   39.3540   19.8940   32.6080 H   0  0  0  0  0  0  0  0  0  0  0  0
   37.9790   21.0900   31.3940 C   0  0  0  0  0  3  0  0  0  0  0  0
   37.2370   22.2690   31.3340 C   0  0  0  0  0  3  0  0  0  0  0  0
   37.2940   23.1270   32.3940 N   0  0  0  0  0  0  0  0  0  0  0  0
   38.3190   23.7730   38.3290 C   0  0  0  0  0  0  0  0  0  0  0  0
   37.2890   22.8900   38.6070 F   0  0  0  0  0  0  0  0  0  0  0  0
   39.5730   23.2430   38.5010 F   0  0  0  0  0  0  0  0  0  0  0  0
   38.1450   24.8780   39.1570 F   0  0  0  0  0  0  0  0  0  0  0  0
  1 17  1  0  0  0  0
  2  7  1  0  0  0  0
  2  1  2  0  0  0  0
  3  2  1  0  0  0  0
  4  3  2  0  0  0  0
  4  5  1  0  0  0  0
  5  6  2  0  0  0  0
  6  1  1  0  0  0  0
  8  5  1  0  0  0  0
  9 10  1  0  0  0  0
  9  3  1  0  0  0  0
 10 11  1  0  0  0  0
 12 13  1  0  0  0  0
 12 10  2  0  0  0  0
 14 12  1  0  0  0  0
 15 14  2  0  0  0  0
 15 16  1  0  0  0  0
 16  9  2  0  0  0  0
 17 19  1  0  0  0  0
 17 18  1  0  0  0  0
 17 20  1  0  0  0  0
M  END
>  <minimizedAffinity>
-4.51748896

$$$$
