
 OpenBabel03272500353D

 20 21  0  0  0  0  0  0  0  0999 V2000
   37.4030   30.2770   50.0610 C   0  0  0  0  0  0  0  0  0  0  0  0
   38.3030   31.3390   50.1740 C   0  0  0  0  0  0  0  0  0  0  0  0
   38.5320   32.1320   49.0410 C   0  0  0  0  0  0  0  0  0  0  0  0
   37.8530   31.8120   47.8860 N   0  0  0  0  0  0  0  0  0  0  0  0
   37.0000   30.7820   47.8300 C   0  0  0  0  0  0  0  0  0  0  0  0
   36.7720   30.0150   48.9070 N   0  0  0  0  0  0  0  0  0  0  0  0
   38.8160   31.5540   51.1110 H   0  0  0  0  0  0  0  0  0  0  0  0
   39.2130   32.9650   49.0610 H   0  0  0  0  0  0  0  0  0  0  0  0
   36.3200   30.5060   46.5670 C   0  0  0  0  0  0  0  0  0  0  0  0
   35.0640   29.9350   46.5350 C   0  0  0  0  0  0  0  0  0  0  0  0
   34.5450   29.6740   47.4220 H   0  0  0  0  0  0  0  0  0  0  0  0
   34.4890   29.7070   45.2850 C   0  0  0  0  0  0  0  0  0  0  0  0
   33.5190   29.2680   45.1770 H   0  0  0  0  0  0  0  0  0  0  0  0
   35.1790   30.0540   44.1330 C   0  0  0  0  0  0  0  0  0  0  0  0
   36.4300   30.6220   44.1970 C   0  0  0  0  0  0  0  0  0  0  0  0
   36.9560   30.8290   45.4110 N   0  0  0  0  0  0  0  0  0  0  0  0
   37.1530   29.4280   51.2680 C   0  0  0  0  0  0  0  0  0  0  0  0
   35.7940   29.1960   51.4040 F   0  0  0  0  0  0  0  0  0  0  0  0
   37.8990   28.2980   51.1490 F   0  0  0  0  0  0  0  0  0  0  0  0
   37.5290   30.1860   52.3820 F   0  0  0  0  0  0  0  0  0  0  0  0
  1  2  1  0  0  0  0
  1 17  1  0  0  0  0
  2  7  1  0  0  0  0
  3  8  1  0  0  0  0
  3  2  2  0  0  0  0
  4  3  1  0  0  0  0
  5  4  2  0  0  0  0
  5  6  1  0  0  0  0
  6  1  2  0  0  0  0
  9  5  1  0  0  0  0
 10  9  1  0  0  0  0
 10 11  1  0  0  0  0
 12 10  2  0  0  0  0
 13 12  1  0  0  0  0
 14 15  2  0  0  0  0
 14 12  1  0  0  0  0
 15 16  1  0  0  0  0
 16  9  2  0  0  0  0
 17 18  1  0  0  0  0
 17 20  1  0  0  0  0
 19 17  1  0  0  0  0
M  END
>  <minimizedAffinity>
-5.29182243

>  <minimizedRMSD>
0.237896666

$$$$
