
 OpenBabel03272510083D

 43 47  0  0  0  0  0  0  0  0999 V2000
   36.2520   30.0900   47.8390 C   0  0  0  0  0  0  0  0  0  0  0  0
   36.9040   30.2750   49.0190 N   0  0  0  0  0  0  0  0  0  0  0  0
   38.0310   31.0040   49.0470 C   0  0  0  0  0  0  0  0  0  0  0  0
   38.5960   31.5930   47.9580 N   0  0  0  0  0  0  0  0  0  0  0  0
   37.9740   31.4290   46.7720 C   0  0  0  0  0  0  0  0  0  0  0  0
   38.4510   32.0120   45.6040 C   0  0  0  0  0  0  0  0  0  0  0  0
   37.7700   31.8480   44.3970 C   0  0  0  0  0  0  0  0  0  0  0  0
   36.5960   31.0850   44.3790 C   0  0  0  0  0  0  0  0  0  0  0  0
   36.1570   30.5210   45.5680 C   0  0  0  0  0  0  0  0  0  0  0  0
   36.8190   30.6820   46.7460 C   0  0  0  0  0  0  0  0  0  0  0  0
   38.5820   31.1740   49.9720 H   0  0  0  0  0  0  0  0  0  0  0  0
   39.3630   32.5770   45.7250 H   0  0  0  0  0  0  0  0  0  0  0  0
   38.2300   32.3450   43.5560 H   0  0  0  0  0  0  0  0  0  0  0  0
   36.2250   31.0790   43.3670 H   0  0  0  0  0  0  0  0  0  0  0  0
   34.9080   27.9260   47.7360 C   0  0  0  0  0  0  0  0  0  0  0  0
   35.0590   29.3210   47.9180 C   0  0  0  0  0  0  0  0  0  0  0  0
   33.9030   30.0910   48.2010 C   0  0  0  0  0  0  0  0  0  0  0  0
   32.6900   29.4780   48.2850 N   0  0  0  0  0  0  0  0  0  0  0  0
   32.6130   28.1290   48.0940 C   0  0  0  0  0  0  0  0  0  0  0  0
   33.6830   27.3740   47.8290 N   0  0  0  0  0  0  0  0  0  0  0  0
   31.2940   27.5360   48.1600 N   0  0  0  0  0  0  0  0  0  0  0  0
   30.4560   27.5640   49.3220 C   0  0  0  0  0  0  0  0  0  0  0  0
   29.1330   27.0500   48.8440 C   0  0  0  0  0  0  0  0  0  0  0  0
   29.1950   27.0170   47.3320 C   0  0  0  0  0  0  0  0  0  0  0  0
   30.6430   26.8320   47.0400 C   0  0  0  0  0  0  0  0  0  0  0  0
   35.8230   27.4090   47.5290 H   0  0  0  0  0  0  0  0  0  0  0  0
   33.9210   31.1440   48.3570 H   0  0  0  0  0  0  0  0  0  0  0  0
   30.3230   28.5740   49.7160 H   0  0  0  0  0  0  0  0  0  0  0  0
   30.9430   26.8780   50.0700 H   0  0  0  0  0  0  0  0  0  0  0  0
   29.0400   25.9830   49.1710 H   0  0  0  0  0  0  0  0  0  0  0  0
   28.2670   27.5990   49.2420 H   0  0  0  0  0  0  0  0  0  0  0  0
   28.8500   28.0150   46.9380 H   0  0  0  0  0  0  0  0  0  0  0  0
   28.5810   26.2080   46.8950 H   0  0  0  0  0  0  0  0  0  0  0  0
   30.9830   25.7990   46.9340 H   0  0  0  0  0  0  0  0  0  0  0  0
   30.9140   27.4070   46.1300 H   0  0  0  0  0  0  0  0  0  0  0  0
   34.9370   29.8380   45.1660 C   0  0  0  0  0  0  0  0  0  0  0  0
   33.6220   30.2530   45.1970 C   0  0  0  0  0  0  0  0  0  0  0  0
   33.5230   31.2990   45.5390 H   0  0  0  0  0  0  0  0  0  0  0  0
   32.4720   29.5690   44.9040 C   0  0  0  0  0  0  0  0  0  0  0  0
   31.5240   30.0780   44.9900 H   0  0  0  0  0  0  0  0  0  0  0  0
   32.7040   28.2680   44.5230 C   0  0  0  0  0  3  0  0  0  0  0  0
   33.9920   27.7890   44.4720 C   0  0  0  0  0  3  0  0  0  0  0  0
   35.0710   28.5220   44.7760 N   0  0  0  0  0  0  0  0  0  0  0  0
  1 16  1  0  0  0  0
  1  2  1  0  0  0  0
  2  3  2  0  0  0  0
  3 11  1  0  0  0  0
  4  3  1  0  0  0  0
  5  4  2  0  0  0  0
  6 12  1  0  0  0  0
  6  5  1  0  0  0  0
  7  6  2  0  0  0  0
  8  7  1  0  0  0  0
  8  9  2  0  0  0  0
  9 10  1  0  0  0  0
 10  5  1  0  0  0  0
 10  1  2  0  0  0  0
 13  7  1  0  0  0  0
 14  8  1  0  0  0  0
 15 20  2  0  0  0  0
 15 16  1  0  0  0  0
 16 17  2  0  0  0  0
 17 18  1  0  0  0  0
 17 27  1  0  0  0  0
 19 21  1  0  0  0  0
 19 18  2  0  0  0  0
 20 19  1  0  0  0  0
 21 22  1  0  0  0  0
 22 28  1  0  0  0  0
 22 29  1  0  0  0  0
 23 30  1  0  0  0  0
 23 31  1  0  0  0  0
 23 22  1  0  0  0  0
 24 23  1  0  0  0  0
 25 24  1  0  0  0  0
 25 21  1  0  0  0  0
 26 15  1  0  0  0  0
 32 24  1  0  0  0  0
 33 24  1  0  0  0  0
 34 25  1  0  0  0  0
 35 25  1  0  0  0  0
 36 37  1  0  0  0  0
 36  9  1  0  0  0  0
 37 38  1  0  0  0  0
 39 40  1  0  0  0  0
 39 37  2  0  0  0  0
 41 39  1  0  0  0  0
 42 41  2  0  0  0  0
 42 43  1  0  0  0  0
 43 36  2  0  0  0  0
M  END
>  <minimizedAffinity>
-3.77652717

>  <minimizedRMSD>
2.21644855

$$$$
