
 OpenBabel03272510083D

 43 47  0  0  0  0  0  0  0  0999 V2000
   35.7130   29.1410   49.3640 C   0  0  0  0  0  0  0  0  0  0  0  0
   36.2550   28.9500   50.5960 N   0  0  0  0  0  0  0  0  0  0  0  0
   37.4590   29.4710   50.8800 C   0  0  0  0  0  0  0  0  0  0  0  0
   38.2090   30.1990   50.0090 N   0  0  0  0  0  0  0  0  0  0  0  0
   37.7000   30.4080   48.7770 C   0  0  0  0  0  0  0  0  0  0  0  0
   38.3710   31.1610   47.8210 C   0  0  0  0  0  0  0  0  0  0  0  0
   37.8060   31.3830   46.5640 C   0  0  0  0  0  0  0  0  0  0  0  0
   36.5490   30.8340   46.2780 C   0  0  0  0  0  0  0  0  0  0  0  0
   35.9160   30.0880   47.2620 C   0  0  0  0  0  0  0  0  0  0  0  0
   36.4660   29.8720   48.4880 C   0  0  0  0  0  0  0  0  0  0  0  0
   37.9270   29.3400   51.8560 H   0  0  0  0  0  0  0  0  0  0  0  0
   39.3310   31.5380   48.1400 H   0  0  0  0  0  0  0  0  0  0  0  0
   38.4140   31.9830   45.9030 H   0  0  0  0  0  0  0  0  0  0  0  0
   36.2910   31.1160   45.2710 H   0  0  0  0  0  0  0  0  0  0  0  0
   34.0940   27.4040   48.4340 C   0  0  0  0  0  0  0  0  0  0  0  0
   34.4270   28.5670   49.1690 C   0  0  0  0  0  0  0  0  0  0  0  0
   33.3800   29.2900   49.7930 C   0  0  0  0  0  0  0  0  0  0  0  0
   32.0950   28.8560   49.6680 N   0  0  0  0  0  0  0  0  0  0  0  0
   31.8420   27.7290   48.9410 C   0  0  0  0  0  0  0  0  0  0  0  0
   32.8060   27.0230   48.3440 N   0  0  0  0  0  0  0  0  0  0  0  0
   30.4550   27.3350   48.8130 N   0  0  0  0  0  0  0  0  0  0  0  0
   29.6120   26.9860   49.9190 C   0  0  0  0  0  0  0  0  0  0  0  0
   28.2400   26.8870   49.3280 C   0  0  0  0  0  0  0  0  0  0  0  0
   28.3170   27.4760   47.9350 C   0  0  0  0  0  0  0  0  0  0  0  0
   29.7320   27.2470   47.5320 C   0  0  0  0  0  0  0  0  0  0  0  0
   34.9350   26.9070   47.9940 H   0  0  0  0  0  0  0  0  0  0  0  0
   33.5360   30.1720   50.3680 H   0  0  0  0  0  0  0  0  0  0  0  0
   29.6090   27.7500   50.6980 H   0  0  0  0  0  0  0  0  0  0  0  0
   29.9930   25.9960   50.2960 H   0  0  0  0  0  0  0  0  0  0  0  0
   28.0010   25.8030   49.1890 H   0  0  0  0  0  0  0  0  0  0  0  0
   27.4490   27.3280   49.9530 H   0  0  0  0  0  0  0  0  0  0  0  0
   28.1140   28.5820   48.0020 H   0  0  0  0  0  0  0  0  0  0  0  0
   27.6080   27.0060   47.2300 H   0  0  0  0  0  0  0  0  0  0  0  0
   29.9330   26.3170   46.9950 H   0  0  0  0  0  0  0  0  0  0  0  0
   30.0890   28.1070   46.9290 H   0  0  0  0  0  0  0  0  0  0  0  0
   34.6660   29.7100   46.6210 C   0  0  0  0  0  0  0  0  0  0  0  0
   34.3860   28.7040   45.7190 C   0  0  0  0  0  0  0  0  0  0  0  0
   35.2670   28.0710   45.5160 H   0  0  0  0  0  0  0  0  0  0  0  0
   33.2270   28.4140   45.0510 C   0  0  0  0  0  0  0  0  0  0  0  0
   33.2080   27.5710   44.3780 H   0  0  0  0  0  0  0  0  0  0  0  0
   32.2030   29.2840   45.3490 C   0  0  0  0  0  3  0  0  0  0  0  0
   32.4160   30.3100   46.2400 C   0  0  0  0  0  3  0  0  0  0  0  0
   33.5840   30.5300   46.8560 N   0  0  0  0  0  0  0  0  0  0  0  0
  1  2  1  0  0  0  0
  2  3  2  0  0  0  0
  3 11  1  0  0  0  0
  4  3  1  0  0  0  0
  5  4  2  0  0  0  0
  6 12  1  0  0  0  0
  6  5  1  0  0  0  0
  7  6  2  0  0  0  0
  8  7  1  0  0  0  0
  8  9  2  0  0  0  0
  9 10  1  0  0  0  0
 10  5  1  0  0  0  0
 10  1  2  0  0  0  0
 13  7  1  0  0  0  0
 14  8  1  0  0  0  0
 15 16  1  0  0  0  0
 16  1  1  0  0  0  0
 16 17  2  0  0  0  0
 17 27  1  0  0  0  0
 18 17  1  0  0  0  0
 19 18  2  0  0  0  0
 20 15  2  0  0  0  0
 20 19  1  0  0  0  0
 21 19  1  0  0  0  0
 21 22  1  0  0  0  0
 22 29  1  0  0  0  0
 22 28  1  0  0  0  0
 23 22  1  0  0  0  0
 23 31  1  0  0  0  0
 24 32  1  0  0  0  0
 24 23  1  0  0  0  0
 25 24  1  0  0  0  0
 25 21  1  0  0  0  0
 26 15  1  0  0  0  0
 30 23  1  0  0  0  0
 33 24  1  0  0  0  0
 34 25  1  0  0  0  0
 35 25  1  0  0  0  0
 36 43  1  0  0  0  0
 36  9  1  0  0  0  0
 37 36  2  0  0  0  0
 38 37  1  0  0  0  0
 39 41  2  0  0  0  0
 39 37  1  0  0  0  0
 40 39  1  0  0  0  0
 41 42  1  0  0  0  0
 42 43  2  0  0  0  0
M  END
>  <minimizedAffinity>
-5.75603914

>  <minimizedRMSD>
2.82032323

$$$$
