REMARK  Name = 
REMARK  3 active torsions:
REMARK  status: ('A' for Active; 'I' for Inactive)
REMARK    1  A    between atoms: C_1  and  C_7
REMARK    2  A    between atoms: C_1  and  C_9
REMARK    3  A    between atoms: C_12  and  C_19
REMARK                            x       y       z     vdW  Elec       q    Type
REMARK                         _______ _______ _______ _____ _____    ______ ____
ROOT
ATOM      1  C   UNL     1      36.517  30.888  49.427  0.00  0.00    +0.000 A 
ATOM      2  C   UNL     1      37.311  30.207  50.331  0.00  0.00    +0.000 A 
ATOM      3  C   UNL     1      38.432  31.030  50.423  0.00  0.00    +0.000 A 
ATOM      4  C   UNL     1      38.284  32.127  49.611  0.00  0.00    +0.000 A 
ATOM      5  O   UNL     1      37.113  32.012  49.020  0.00  0.00    +0.000 OA
ATOM      6  H   UNL     1      37.116  29.288  50.831  0.00  0.00    +0.000 HD
ATOM      7  H   UNL     1      39.309  30.858  51.036  0.00  0.00    +0.000 HD
ENDROOT
BRANCH   4   8
ATOM      8  C   UNL     1      39.220  33.230  49.411  0.00  0.00    +0.000 A 
ATOM      9  C   UNL     1      39.455  33.654  48.105  0.00  0.00    +0.000 A 
ATOM     10  H   UNL     1      38.989  33.220  47.229  0.00  0.00    +0.000 HD
ATOM     11  C   UNL     1      40.348  34.709  47.889  0.00  0.00    +0.000 A 
ATOM     12  H   UNL     1      40.609  35.124  46.927  0.00  0.00    +0.000 HD
ATOM     13  C   UNL     1      40.908  35.220  49.041  0.00  0.00    +0.000 A 
ATOM     14  C   UNL     1      40.695  34.822  50.341  0.00  0.00    +0.000 A 
ATOM     15  N   UNL     1      39.821  33.799  50.471  0.00  0.00    +0.000 NA
ENDBRANCH   4   8
BRANCH   1  16
ATOM     16  C   UNL     1      35.195  30.433  48.976  0.00  0.00    +0.000 C 
ATOM     17  O   UNL     1      34.334  30.184  49.860  0.00  0.00    +0.000 OA
BRANCH  16  22
ATOM     18  C   UNL     1      33.319  30.096  45.888  0.00  0.00    +0.000 A 
ATOM     19  C   UNL     1      34.317  30.008  44.911  0.00  0.00    +0.000 A 
ATOM     20  C   UNL     1      35.646  30.063  45.308  0.00  0.00    +0.000 A 
ATOM     21  N   UNL     1      35.901  30.202  46.634  0.00  0.00    +0.000 NA
ATOM     22  C   UNL     1      34.917  30.285  47.559  0.00  0.00    +0.000 A 
ATOM     23  N   UNL     1      33.626  30.232  47.187  0.00  0.00    +0.000 NA
ATOM     24  H   UNL     1      32.268  30.058  45.629  0.00  0.00    +0.000 HD
ATOM     25  H   UNL     1      34.043  29.897  43.864  0.00  0.00    +0.000 HD
ATOM     26  H   UNL     1      36.456  29.998  44.583  0.00  0.00    +0.000 HD
ENDBRANCH  16  22
ENDBRANCH   1  16
TORSDOF 3
