
 OpenBabel03262520283D

 19 20  0  0  0  0  0  0  0  0999 V2000
   40.7190   23.1480   36.1640 C   0  0  0  0  0  0  0  0  0  0  0  0
   40.2220   22.6430   37.3910 C   0  0  0  0  0  0  0  0  0  0  0  0
   39.0210   23.1740   37.8380 C   0  0  0  0  0  0  0  0  0  0  0  0
   38.3860   24.1280   37.1080 N   0  0  0  0  0  0  0  0  0  0  0  0
   38.8940   24.5780   35.9470 C   0  0  0  0  0  0  0  0  0  0  0  0
   40.0470   24.0920   35.4840 N   0  0  0  0  0  0  0  0  0  0  0  0
   38.5400   22.6560   39.0690 N   0  0  0  0  0  0  0  0  0  0  0  0
   41.6600   22.7780   35.7450 H   0  0  0  0  0  0  0  0  0  0  0  0
   40.8050   21.8920   37.8820 H   0  0  0  0  0  0  0  0  0  0  0  0
   39.0290   23.0830   39.9080 H   0  0  0  0  0  0  0  0  0  0  0  0
   37.7890   21.9300   39.2620 H   0  0  0  0  0  0  0  0  0  0  0  0
   38.2010   25.6020   35.1740 C   0  0  0  0  0  0  0  0  0  0  0  0
   37.9840   26.8760   35.6600 C   0  0  0  0  0  0  0  0  0  0  0  0
   38.3280   27.1550   36.6430 H   0  0  0  0  0  0  0  0  0  0  0  0
   37.3200   27.8460   34.9120 C   0  0  0  0  0  0  0  0  0  0  0  0
   37.1390   28.8540   35.2760 H   0  0  0  0  0  0  0  0  0  0  0  0
   36.8550   27.5390   33.6390 C   0  0  0  0  0  3  0  0  0  0  0  0
   37.0860   26.2530   33.1750 C   0  0  0  0  0  3  0  0  0  0  0  0
   37.7320   25.3570   33.9400 N   0  0  0  0  0  0  0  0  0  0  0  0
  1  2  1  0  0  0  0
  2  3  2  0  0  0  0
  2  9  1  0  0  0  0
  3  7  1  0  0  0  0
  4  3  1  0  0  0  0
  5  4  2  0  0  0  0
  6  5  1  0  0  0  0
  6  1  2  0  0  0  0
  7 11  1  0  0  0  0
  7 10  1  0  0  0  0
  8  1  1  0  0  0  0
 12 13  1  0  0  0  0
 12  5  1  0  0  0  0
 13 14  1  0  0  0  0
 15 16  1  0  0  0  0
 15 13  2  0  0  0  0
 17 15  1  0  0  0  0
 18 17  2  0  0  0  0
 18 19  1  0  0  0  0
 19 12  2  0  0  0  0
M  END
>  <minimizedAffinity>
-4.56819153

$$$$

 OpenBabel03262520283D

 19 20  0  0  0  0  0  0  0  0999 V2000
   37.9340   24.3770   38.3030 C   0  0  0  0  0  0  0  0  0  0  0  0
   38.7740   23.2630   38.5510 C   0  0  0  0  0  0  0  0  0  0  0  0
   39.6570   22.9150   37.5390 C   0  0  0  0  0  0  0  0  0  0  0  0
   39.6830   23.6310   36.3840 N   0  0  0  0  0  0  0  0  0  0  0  0
   38.8670   24.6820   36.1910 C   0  0  0  0  0  0  0  0  0  0  0  0
   38.0050   25.0480   37.1410 N   0  0  0  0  0  0  0  0  0  0  0  0
   40.4890   21.7960   37.8060 N   0  0  0  0  0  0  0  0  0  0  0  0
   37.2120   24.7130   39.0530 H   0  0  0  0  0  0  0  0  0  0  0  0
   38.6680   22.7730   39.4960 H   0  0  0  0  0  0  0  0  0  0  0  0
   39.9850   20.8740   37.6700 H   0  0  0  0  0  0  0  0  0  0  0  0
   41.5060   21.7550   38.1120 H   0  0  0  0  0  0  0  0  0  0  0  0
   38.9070   25.4420   34.9470 C   0  0  0  0  0  0  0  0  0  0  0  0
   39.8590   26.4100   34.7020 C   0  0  0  0  0  0  0  0  0  0  0  0
   40.6150   26.6360   35.4370 H   0  0  0  0  0  0  0  0  0  0  0  0
   39.8880   27.1300   33.5090 C   0  0  0  0  0  0  0  0  0  0  0  0
   40.6290   27.8960   33.2960 H   0  0  0  0  0  0  0  0  0  0  0  0
   38.9370   26.8780   32.5270 C   0  0  0  0  0  3  0  0  0  0  0  0
   37.9920   25.9010   32.7990 C   0  0  0  0  0  3  0  0  0  0  0  0
   38.0120   25.2370   33.9670 N   0  0  0  0  0  0  0  0  0  0  0  0
  1  2  1  0  0  0  0
  1  8  1  0  0  0  0
  2  9  1  0  0  0  0
  3  7  1  0  0  0  0
  3  2  2  0  0  0  0
  4  3  1  0  0  0  0
  5  4  2  0  0  0  0
  5  6  1  0  0  0  0
  6  1  2  0  0  0  0
  7 11  1  0  0  0  0
 10  7  1  0  0  0  0
 12  5  1  0  0  0  0
 13 12  1  0  0  0  0
 13 14  1  0  0  0  0
 15 13  2  0  0  0  0
 16 15  1  0  0  0  0
 17 18  2  0  0  0  0
 17 15  1  0  0  0  0
 18 19  1  0  0  0  0
 19 12  2  0  0  0  0
M  END
>  <minimizedAffinity>
-4.55320978

$$$$

 OpenBabel03262520283D

 19 20  0  0  0  0  0  0  0  0999 V2000
   37.9560   24.2440   38.2360 C   0  0  0  0  0  0  0  0  0  0  0  0
   38.9550   23.2950   38.5670 C   0  0  0  0  0  0  0  0  0  0  0  0
   39.6430   22.7260   37.5050 C   0  0  0  0  0  0  0  0  0  0  0  0
   39.3440   23.0880   36.2290 N   0  0  0  0  0  0  0  0  0  0  0  0
   38.3870   23.9930   35.9620 C   0  0  0  0  0  0  0  0  0  0  0  0
   37.7040   24.5630   36.9560 N   0  0  0  0  0  0  0  0  0  0  0  0
   40.6400   21.7780   37.8560 N   0  0  0  0  0  0  0  0  0  0  0  0
   37.3700   24.7370   39.0180 H   0  0  0  0  0  0  0  0  0  0  0  0
   39.1060   23.0870   39.6040 H   0  0  0  0  0  0  0  0  0  0  0  0
   40.2320   20.8270   38.0870 H   0  0  0  0  0  0  0  0  0  0  0  0
   41.6950   21.8820   37.9170 H   0  0  0  0  0  0  0  0  0  0  0  0
   38.0780   24.3710   34.5880 C   0  0  0  0  0  0  0  0  0  0  0  0
   38.1850   23.4850   33.5350 C   0  0  0  0  0  0  0  0  0  0  0  0
   38.5050   22.4680   33.7030 H   0  0  0  0  0  0  0  0  0  0  0  0
   37.8870   23.8570   32.2260 C   0  0  0  0  0  0  0  0  0  0  0  0
   37.9640   23.1750   31.3830 H   0  0  0  0  0  0  0  0  0  0  0  0
   37.4690   25.1540   31.9540 C   0  0  0  0  0  3  0  0  0  0  0  0
   37.3700   26.0240   33.0290 C   0  0  0  0  0  3  0  0  0  0  0  0
   37.6710   25.6110   34.2720 N   0  0  0  0  0  0  0  0  0  0  0  0
  1  2  1  0  0  0  0
  1  8  1  0  0  0  0
  2  9  1  0  0  0  0
  3  7  1  0  0  0  0
  3  2  2  0  0  0  0
  4  3  1  0  0  0  0
  5  4  2  0  0  0  0
  5  6  1  0  0  0  0
  6  1  2  0  0  0  0
  7 11  1  0  0  0  0
  7 10  1  0  0  0  0
 12  5  1  0  0  0  0
 13 14  1  0  0  0  0
 13 12  2  0  0  0  0
 15 13  1  0  0  0  0
 16 15  1  0  0  0  0
 17 15  2  0  0  0  0
 17 18  1  0  0  0  0
 18 19  2  0  0  0  0
 19 12  1  0  0  0  0
M  END
>  <minimizedAffinity>
-4.31072378

$$$$

 OpenBabel03262520283D

 19 20  0  0  0  0  0  0  0  0999 V2000
   38.1310   24.0130   37.7400 C   0  0  0  0  0  0  0  0  0  0  0  0
   39.2060   23.2330   38.2350 C   0  0  0  0  0  0  0  0  0  0  0  0
   39.8030   22.3620   37.3350 C   0  0  0  0  0  0  0  0  0  0  0  0
   39.3520   22.2900   36.0550 N   0  0  0  0  0  0  0  0  0  0  0  0
   38.3280   23.0510   35.6290 C   0  0  0  0  0  0  0  0  0  0  0  0
   37.7280   23.9010   36.4630 N   0  0  0  0  0  0  0  0  0  0  0  0
   40.8770   21.5890   37.8490 N   0  0  0  0  0  0  0  0  0  0  0  0
   37.6100   24.7240   38.3880 H   0  0  0  0  0  0  0  0  0  0  0  0
   39.4780   23.3710   39.2590 H   0  0  0  0  0  0  0  0  0  0  0  0
   40.5440   20.7580   38.4170 H   0  0  0  0  0  0  0  0  0  0  0  0
   41.9270   21.7200   37.7500 H   0  0  0  0  0  0  0  0  0  0  0  0
   37.8540   22.9630   34.2520 C   0  0  0  0  0  0  0  0  0  0  0  0
   37.9540   24.0180   33.3680 C   0  0  0  0  0  0  0  0  0  0  0  0
   38.3930   24.9540   33.6750 H   0  0  0  0  0  0  0  0  0  0  0  0
   37.4980   23.9240   32.0540 C   0  0  0  0  0  0  0  0  0  0  0  0
   37.5670   24.7420   31.3420 H   0  0  0  0  0  0  0  0  0  0  0  0
   36.9230   22.7410   31.6060 C   0  0  0  0  0  3  0  0  0  0  0  0
   36.8350   21.6970   32.5140 C   0  0  0  0  0  3  0  0  0  0  0  0
   37.2910   21.8440   33.7700 N   0  0  0  0  0  0  0  0  0  0  0  0
  1  2  1  0  0  0  0
  1  8  1  0  0  0  0
  2  9  1  0  0  0  0
  3  7  1  0  0  0  0
  3  2  2  0  0  0  0
  4  3  1  0  0  0  0
  5  4  2  0  0  0  0
  5  6  1  0  0  0  0
  6  1  2  0  0  0  0
  7 10  1  0  0  0  0
 11  7  1  0  0  0  0
 12  5  1  0  0  0  0
 13 14  1  0  0  0  0
 13 12  2  0  0  0  0
 15 13  1  0  0  0  0
 16 15  1  0  0  0  0
 17 15  2  0  0  0  0
 17 18  1  0  0  0  0
 18 19  2  0  0  0  0
 19 12  1  0  0  0  0
M  END
>  <minimizedAffinity>
-4.12375975

$$$$

 OpenBabel03262520283D

 19 20  0  0  0  0  0  0  0  0999 V2000
   40.7320   23.1830   34.7530 C   0  0  0  0  0  0  0  0  0  0  0  0
   40.7430   23.0740   36.1660 C   0  0  0  0  0  0  0  0  0  0  0  0
   39.5820   22.5980   36.7580 C   0  0  0  0  0  0  0  0  0  0  0  0
   38.5130   22.2650   35.9880 N   0  0  0  0  0  0  0  0  0  0  0  0
   38.5470   22.3860   34.6490 C   0  0  0  0  0  0  0  0  0  0  0  0
   39.6450   22.8390   34.0430 N   0  0  0  0  0  0  0  0  0  0  0  0
   39.6120   22.4950   38.1740 N   0  0  0  0  0  0  0  0  0  0  0  0
   41.6100   23.5500   34.2130 H   0  0  0  0  0  0  0  0  0  0  0  0
   41.6390   23.3630   36.6710 H   0  0  0  0  0  0  0  0  0  0  0  0
   39.4600   23.4290   38.6520 H   0  0  0  0  0  0  0  0  0  0  0  0
   39.7590   21.6480   38.7980 H   0  0  0  0  0  0  0  0  0  0  0  0
   37.3920   22.0240   33.8360 C   0  0  0  0  0  0  0  0  0  0  0  0
   36.5150   21.0230   34.2010 C   0  0  0  0  0  0  0  0  0  0  0  0
   36.6610   20.4700   35.1150 H   0  0  0  0  0  0  0  0  0  0  0  0
   35.4140   20.6860   33.4160 C   0  0  0  0  0  0  0  0  0  0  0  0
   34.7120   19.9020   33.6850 H   0  0  0  0  0  0  0  0  0  0  0  0
   35.1780   21.3670   32.2280 C   0  0  0  0  0  3  0  0  0  0  0  0
   36.0740   22.3680   31.8850 C   0  0  0  0  0  3  0  0  0  0  0  0
   37.1200   22.6510   32.6800 N   0  0  0  0  0  0  0  0  0  0  0  0
  1  2  1  0  0  0  0
  2  9  1  0  0  0  0
  2  3  2  0  0  0  0
  3  7  1  0  0  0  0
  4  3  1  0  0  0  0
  5  4  2  0  0  0  0
  6  5  1  0  0  0  0
  6  1  2  0  0  0  0
  7 10  1  0  0  0  0
  7 11  1  0  0  0  0
  8  1  1  0  0  0  0
 12 13  1  0  0  0  0
 12  5  1  0  0  0  0
 13 14  1  0  0  0  0
 15 16  1  0  0  0  0
 15 13  2  0  0  0  0
 17 15  1  0  0  0  0
 18 17  2  0  0  0  0
 18 19  1  0  0  0  0
 19 12  2  0  0  0  0
M  END
>  <minimizedAffinity>
-4.11390162

$$$$

 OpenBabel03262520283D

 19 20  0  0  0  0  0  0  0  0999 V2000
   30.7120   28.8550   34.2370 C   0  0  0  0  0  0  0  0  0  0  0  0
   30.5360   27.6850   35.0180 C   0  0  0  0  0  0  0  0  0  0  0  0
   31.2620   27.6140   36.1980 C   0  0  0  0  0  0  0  0  0  0  0  0
   32.0890   28.6340   36.5510 N   0  0  0  0  0  0  0  0  0  0  0  0
   32.2250   29.7260   35.7780 C   0  0  0  0  0  0  0  0  0  0  0  0
   31.5430   29.8320   34.6370 N   0  0  0  0  0  0  0  0  0  0  0  0
   31.0730   26.4350   36.9660 N   0  0  0  0  0  0  0  0  0  0  0  0
   30.1740   28.9850   33.2930 H   0  0  0  0  0  0  0  0  0  0  0  0
   29.8610   26.9460   34.6440 H   0  0  0  0  0  0  0  0  0  0  0  0
   31.6250   25.6120   36.5890 H   0  0  0  0  0  0  0  0  0  0  0  0
   30.4800   26.2670   37.8310 H   0  0  0  0  0  0  0  0  0  0  0  0
   33.1150   30.8130   36.1700 C   0  0  0  0  0  0  0  0  0  0  0  0
   32.7410   31.7850   37.0770 C   0  0  0  0  0  0  0  0  0  0  0  0
   31.7620   31.7660   37.5300 H   0  0  0  0  0  0  0  0  0  0  0  0
   33.5990   32.8190   37.4440 C   0  0  0  0  0  0  0  0  0  0  0  0
   33.3250   33.5930   38.1550 H   0  0  0  0  0  0  0  0  0  0  0  0
   34.8720   32.8900   36.8900 C   0  0  0  0  0  3  0  0  0  0  0  0
   35.2220   31.9020   35.9830 C   0  0  0  0  0  3  0  0  0  0  0  0
   34.3530   30.9270   35.6650 N   0  0  0  0  0  0  0  0  0  0  0  0
  1  6  2  0  0  0  0
  1  2  1  0  0  0  0
  2  3  2  0  0  0  0
  3  4  1  0  0  0  0
  3  7  1  0  0  0  0
  5 12  1  0  0  0  0
  5  4  2  0  0  0  0
  6  5  1  0  0  0  0
  7 11  1  0  0  0  0
  8  1  1  0  0  0  0
  9  2  1  0  0  0  0
 10  7  1  0  0  0  0
 12 13  1  0  0  0  0
 13 15  2  0  0  0  0
 13 14  1  0  0  0  0
 15 16  1  0  0  0  0
 17 15  1  0  0  0  0
 18 17  2  0  0  0  0
 19 18  1  0  0  0  0
 19 12  2  0  0  0  0
M  END
>  <minimizedAffinity>
-4.10564709

$$$$

 OpenBabel03262520283D

 19 20  0  0  0  0  0  0  0  0999 V2000
   37.2740   27.6530   34.8640 C   0  0  0  0  0  0  0  0  0  0  0  0
   36.9210   27.3360   33.5290 C   0  0  0  0  0  0  0  0  0  0  0  0
   37.1890   26.0410   33.1100 C   0  0  0  0  0  0  0  0  0  0  0  0
   37.7610   25.1530   33.9660 N   0  0  0  0  0  0  0  0  0  0  0  0
   38.0800   25.4990   35.2250 C   0  0  0  0  0  0  0  0  0  0  0  0
   37.8380   26.7340   35.6660 N   0  0  0  0  0  0  0  0  0  0  0  0
   36.8280   25.7410   31.7700 N   0  0  0  0  0  0  0  0  0  0  0  0
   37.0940   28.6540   35.2690 H   0  0  0  0  0  0  0  0  0  0  0  0
   36.4750   28.1120   32.9450 H   0  0  0  0  0  0  0  0  0  0  0  0
   37.5360   26.1040   31.0690 H   0  0  0  0  0  0  0  0  0  0  0  0
   35.9830   25.2260   31.3850 H   0  0  0  0  0  0  0  0  0  0  0  0
   38.6940   24.5360   36.1320 C   0  0  0  0  0  0  0  0  0  0  0  0
   38.2100   24.3060   37.4040 C   0  0  0  0  0  0  0  0  0  0  0  0
   37.3470   24.8410   37.7700 H   0  0  0  0  0  0  0  0  0  0  0  0
   38.8040   23.3830   38.2630 C   0  0  0  0  0  0  0  0  0  0  0  0
   38.4390   23.1870   39.2670 H   0  0  0  0  0  0  0  0  0  0  0  0
   39.9180   22.6650   37.8420 C   0  0  0  0  0  3  0  0  0  0  0  0
   40.3840   22.9160   36.5610 C   0  0  0  0  0  3  0  0  0  0  0  0
   39.7710   23.8180   35.7750 N   0  0  0  0  0  0  0  0  0  0  0  0
  1  8  1  0  0  0  0
  1  6  1  0  0  0  0
  2  1  2  0  0  0  0
  3  2  1  0  0  0  0
  3  4  2  0  0  0  0
  4  5  1  0  0  0  0
  5  6  2  0  0  0  0
  5 12  1  0  0  0  0
  7  3  1  0  0  0  0
  9  2  1  0  0  0  0
 10  7  1  0  0  0  0
 11  7  1  0  0  0  0
 12 13  1  0  0  0  0
 13 14  1  0  0  0  0
 13 15  2  0  0  0  0
 15 16  1  0  0  0  0
 17 15  1  0  0  0  0
 18 17  2  0  0  0  0
 19 12  2  0  0  0  0
 19 18  1  0  0  0  0
M  END
>  <minimizedAffinity>
-4.0998702

$$$$

 OpenBabel03262520283D

 19 20  0  0  0  0  0  0  0  0999 V2000
   36.7440   27.8650   33.2470 C   0  0  0  0  0  0  0  0  0  0  0  0
   36.6830   28.2690   31.8900 C   0  0  0  0  0  0  0  0  0  0  0  0
   36.0130   29.4550   31.6270 C   0  0  0  0  0  0  0  0  0  0  0  0
   35.4580   30.1630   32.6450 N   0  0  0  0  0  0  0  0  0  0  0  0
   35.5400   29.7410   33.9200 C   0  0  0  0  0  0  0  0  0  0  0  0
   36.1760   28.6060   34.2130 N   0  0  0  0  0  0  0  0  0  0  0  0
   35.9630   29.8420   30.2620 N   0  0  0  0  0  0  0  0  0  0  0  0
   37.2550   26.9410   33.5350 H   0  0  0  0  0  0  0  0  0  0  0  0
   37.1550   27.6340   31.1710 H   0  0  0  0  0  0  0  0  0  0  0  0
   35.2210   29.3150   29.7180 H   0  0  0  0  0  0  0  0  0  0  0  0
   36.5400   30.5580   29.7290 H   0  0  0  0  0  0  0  0  0  0  0  0
   34.9400   30.5120   35.0020 C   0  0  0  0  0  0  0  0  0  0  0  0
   35.6680   31.3950   35.7740 C   0  0  0  0  0  0  0  0  0  0  0  0
   36.7210   31.5440   35.5930 H   0  0  0  0  0  0  0  0  0  0  0  0
   35.0840   32.1270   36.8060 C   0  0  0  0  0  0  0  0  0  0  0  0
   35.6390   32.8270   37.4240 H   0  0  0  0  0  0  0  0  0  0  0  0
   33.7300   31.9740   37.0810 C   0  0  0  0  0  3  0  0  0  0  0  0
   33.0220   31.0800   36.2920 C   0  0  0  0  0  3  0  0  0  0  0  0
   33.6370   30.4010   35.3090 N   0  0  0  0  0  0  0  0  0  0  0  0
  1  8  1  0  0  0  0
  1  6  1  0  0  0  0
  2  1  2  0  0  0  0
  3  2  1  0  0  0  0
  3  4  2  0  0  0  0
  4  5  1  0  0  0  0
  5  6  2  0  0  0  0
  5 12  1  0  0  0  0
  7  3  1  0  0  0  0
  9  2  1  0  0  0  0
 10  7  1  0  0  0  0
 11  7  1  0  0  0  0
 12 19  2  0  0  0  0
 12 13  1  0  0  0  0
 13 15  2  0  0  0  0
 14 13  1  0  0  0  0
 15 17  1  0  0  0  0
 15 16  1  0  0  0  0
 18 17  2  0  0  0  0
 19 18  1  0  0  0  0
M  END
>  <minimizedAffinity>
-4.03535175

$$$$

 OpenBabel03262520283D

 19 20  0  0  0  0  0  0  0  0999 V2000
   38.3940   26.1940   32.7060 C   0  0  0  0  0  0  0  0  0  0  0  0
   37.4740   27.2540   32.8970 C   0  0  0  0  0  0  0  0  0  0  0  0
   36.9600   27.4040   34.1770 C   0  0  0  0  0  0  0  0  0  0  0  0
   37.3450   26.5570   35.1680 N   0  0  0  0  0  0  0  0  0  0  0  0
   38.2220   25.5640   34.9410 C   0  0  0  0  0  0  0  0  0  0  0  0
   38.7390   25.3880   33.7240 N   0  0  0  0  0  0  0  0  0  0  0  0
   36.0390   28.4710   34.3490 N   0  0  0  0  0  0  0  0  0  0  0  0
   38.8440   26.0120   31.7250 H   0  0  0  0  0  0  0  0  0  0  0  0
   37.2430   27.8590   32.0460 H   0  0  0  0  0  0  0  0  0  0  0  0
   35.0680   28.2290   33.9980 H   0  0  0  0  0  0  0  0  0  0  0  0
   36.1800   29.4400   34.7620 H   0  0  0  0  0  0  0  0  0  0  0  0
   38.6270   24.6630   36.0140 C   0  0  0  0  0  0  0  0  0  0  0  0
   37.9920   24.6420   37.2400 C   0  0  0  0  0  0  0  0  0  0  0  0
   37.1630   25.3020   37.4410 H   0  0  0  0  0  0  0  0  0  0  0  0
   38.3870   23.7770   38.2580 C   0  0  0  0  0  0  0  0  0  0  0  0
   37.9000   23.7440   39.2300 H   0  0  0  0  0  0  0  0  0  0  0  0
   39.4490   22.9050   38.0520 C   0  0  0  0  0  3  0  0  0  0  0  0
   40.0690   22.9480   36.8130 C   0  0  0  0  0  3  0  0  0  0  0  0
   39.6460   23.8030   35.8660 N   0  0  0  0  0  0  0  0  0  0  0  0
  1  2  2  0  0  0  0
  1  6  1  0  0  0  0
  2  3  1  0  0  0  0
  3  7  1  0  0  0  0
  3  4  2  0  0  0  0
  5  4  1  0  0  0  0
  5 12  1  0  0  0  0
  6  5  2  0  0  0  0
  7 11  1  0  0  0  0
  8  1  1  0  0  0  0
  9  2  1  0  0  0  0
 10  7  1  0  0  0  0
 12 13  1  0  0  0  0
 13 14  1  0  0  0  0
 13 15  2  0  0  0  0
 15 16  1  0  0  0  0
 17 15  1  0  0  0  0
 18 17  2  0  0  0  0
 19 12  2  0  0  0  0
 19 18  1  0  0  0  0
M  END
>  <minimizedAffinity>
-4.02514124

$$$$
