
 OpenBabel03262520273D

 19 20  0  0  0  0  0  0  0  0999 V2000
   37.2890   30.3930   50.9640 C   0  0  0  0  0  0  0  0  0  0  0  0
   38.2670   31.0560   50.1820 C   0  0  0  0  0  0  0  0  0  0  0  0
   38.0560   31.0720   48.8100 C   0  0  0  0  0  0  0  0  0  0  0  0
   36.9560   30.4710   48.2850 N   0  0  0  0  0  0  0  0  0  0  0  0
   36.0530   29.8520   49.0660 C   0  0  0  0  0  0  0  0  0  0  0  0
   36.2200   29.8160   50.3890 N   0  0  0  0  0  0  0  0  0  0  0  0
   39.0460   31.7400   48.0430 N   0  0  0  0  0  0  0  0  0  0  0  0
   37.3850   30.3380   52.0530 H   0  0  0  0  0  0  0  0  0  0  0  0
   39.0920   31.4940   50.7010 H   0  0  0  0  0  0  0  0  0  0  0  0
   39.9110   31.1470   47.8930 H   0  0  0  0  0  0  0  0  0  0  0  0
   39.0430   32.7130   47.6160 H   0  0  0  0  0  0  0  0  0  0  0  0
   34.8770   29.2120   48.4880 C   0  0  0  0  0  0  0  0  0  0  0  0
   34.3900   28.0050   48.9490 C   0  0  0  0  0  0  0  0  0  0  0  0
   34.8740   27.4930   49.7650 H   0  0  0  0  0  0  0  0  0  0  0  0
   33.2660   27.4020   48.3880 C   0  0  0  0  0  0  0  0  0  0  0  0
   32.8670   26.4530   48.7360 H   0  0  0  0  0  0  0  0  0  0  0  0
   32.6040   28.0200   47.3340 C   0  0  0  0  0  0  0  0  0  0  0  0
   33.1140   29.2310   46.8900 C   0  0  0  0  0  0  0  0  0  0  0  0
   34.2020   29.7660   47.4680 N   0  0  0  0  0  0  0  0  0  0  0  0
  1  8  1  0  0  0  0
  2  9  1  0  0  0  0
  2  1  2  0  0  0  0
  3  2  1  0  0  0  0
  4  3  2  0  0  0  0
  4  5  1  0  0  0  0
  5  6  2  0  0  0  0
  6  1  1  0  0  0  0
  7  3  1  0  0  0  0
 10  7  1  0  0  0  0
 11  7  1  0  0  0  0
 12 13  1  0  0  0  0
 12  5  1  0  0  0  0
 13 14  1  0  0  0  0
 15 16  1  0  0  0  0
 15 13  2  0  0  0  0
 17 15  1  0  0  0  0
 18 17  2  0  0  0  0
 18 19  1  0  0  0  0
 19 12  2  0  0  0  0
M  END
>  <minimizedAffinity>
-4.65696955

>  <minimizedRMSD>
1.76379979

$$$$
