
     RDKit          3D

 46 50  0  0  0  0  0  0  0  0999 V2000
   36.2519   30.1767   46.8641 C   0  0  0  0  0  0  0  0  0  0  0  0
   37.0857   30.7635   47.8131 C   0  0  0  0  0  0  0  0  0  0  0  0
   38.0570   31.6767   47.4344 C   0  0  0  0  0  0  0  0  0  0  0  0
   38.1457   31.9640   46.0766 C   0  0  0  0  0  0  0  0  0  0  0  0
   39.0253   32.8284   45.4786 N   0  0  0  0  0  0  0  0  0  0  0  0
   38.7464   32.7835   44.1673 C   0  0  0  0  0  0  0  0  0  0  0  0
   37.7564   31.9485   43.9353 N   0  0  0  0  0  0  0  0  0  0  0  0
   37.3501   31.4125   45.1116 C   0  0  0  0  0  0  0  0  0  0  0  0
   36.3777   30.4948   45.5193 C   0  0  0  0  0  0  0  0  0  0  0  0
   37.4844   30.1805   51.4940 C   0  0  0  0  0  0  0  0  0  0  0  0
   37.7868   30.6184   50.2169 C   0  0  0  0  0  0  0  0  0  0  0  0
   36.8841   30.3627   49.1914 C   0  0  0  0  0  0  0  0  0  0  0  0
   35.7474   29.6896   49.5167 N   0  0  0  0  0  0  0  0  0  0  0  0
   35.4608   29.2678   50.7585 C   0  0  0  0  0  0  0  0  0  0  0  0
   36.3273   29.5156   51.7314 N   0  0  0  0  0  0  0  0  0  0  0  0
   39.4674   33.5591   43.2409 O   0  0  0  0  0  0  0  0  0  0  0  0
   39.5606   31.8649   41.7197 N   0  0  0  0  0  0  0  0  0  0  0  0
   39.2108   33.2633   41.8673 C   0  0  1  0  0  0  0  0  0  0  0  0
   37.8053   33.4508   41.5260 C   0  0  0  0  0  0  0  0  0  0  0  0
   37.6297   33.1528   40.1646 O   0  0  0  0  0  0  0  0  0  0  0  0
   38.0570   31.9201   39.7792 C   0  0  0  0  0  0  0  0  0  0  0  0
   39.4073   31.5429   40.3031 C   0  0  1  0  0  0  0  0  0  0  0  0
   35.4820   29.4574   47.1392 H   0  0  0  0  0  0  0  0  0  0  0  0
   38.6979   32.1270   48.1714 H   0  0  0  0  0  0  0  0  0  0  0  0
   39.7712   33.4122   45.9494 H   0  0  0  0  0  0  0  0  0  0  0  0
   35.7591   30.0709   44.7409 H   0  0  0  0  0  0  0  0  0  0  0  0
   38.2162   30.3991   52.2729 H   0  0  0  0  0  0  0  0  0  0  0  0
   38.7022   31.1575   49.9691 H   0  0  0  0  0  0  0  0  0  0  0  0
   34.5211   28.7419   50.8870 H   0  0  0  0  0  0  0  0  0  0  0  0
   40.5784   31.7775   41.9307 H   0  0  0  0  0  0  0  0  0  0  0  0
   39.8219   33.9542   41.2622 H   0  0  0  0  0  0  0  0  0  0  0  0
   36.9898   32.9798   42.0016 H   0  0  0  0  0  0  0  0  0  0  0  0
   37.6004   34.5645   41.5714 H   0  0  0  0  0  0  0  0  0  0  0  0
   38.0926   31.8919   38.6852 H   0  0  0  0  0  0  0  0  0  0  0  0
   37.3031   31.1473   40.0744 H   0  0  0  0  0  0  0  0  0  0  0  0
   39.4048   30.4092   40.3033 H   0  0  0  0  0  0  0  0  0  0  0  0
   40.5439   31.9362   39.4726 C   0  0  0  0  0  0  0  0  0  0  0  0
   41.2618   30.9822   38.7370 C   0  0  0  0  0  0  0  0  0  0  0  0
   40.9018   29.9460   38.8399 H   0  0  0  0  0  0  0  0  0  0  0  0
   42.3472   31.2085   37.9177 C   0  0  0  0  0  0  0  0  0  0  0  0
   42.7909   30.3590   37.4174 H   0  0  0  0  0  0  0  0  0  0  0  0
   42.7736   32.5068   37.8082 C   0  0  0  0  0  0  0  0  0  0  0  0
   42.0700   33.4481   38.5304 C   0  0  0  0  0  0  0  0  0  0  0  0
   41.0146   33.1863   39.3196 N   0  0  0  0  0  0  0  0  0  0  0  0
   43.6129   32.7269   37.1827 H   0  0  0  0  0  0  0  0  0  0  0  0
   42.4105   34.4838   38.4427 H   0  0  0  0  0  0  0  0  0  0  0  0
  1  2  2  0
  2 12  1  0
  3  2  1  0
  4  3  2  0
  5  4  1  0
  6  5  1  0
  7  6  2  0
  7  8  1  0
  8  9  2  0
  8  4  1  0
  9  1  1  0
 10 15  2  0
 11 10  1  0
 12 13  1  0
 12 11  2  0
 13 14  2  0
 14 15  1  0
 16  6  1  0
 17 18  1  0
 18 16  1  0
 19 18  1  0
 20 19  1  0
 21 20  1  0
 21 22  1  0
 22 17  1  0
  1 23  1  0
  3 24  1  0
  5 25  1  0
  9 26  1  0
 10 27  1  0
 11 28  1  0
 14 29  1  0
 17 30  1  0
 18 31  1  6
 19 32  1  0
 19 33  1  0
 21 34  1  0
 21 35  1  0
 22 36  1  1
 37 38  2  0
 38 39  1  0
 38 40  1  0
 40 41  1  0
 40 42  2  0
 42 43  1  0
 43 44  2  0
 44 37  1  0
 42 45  1  0
 43 46  1  0
 22 37  1  0
M  ISO  8  23  14  24  14  25   9  26  14  27  14  28  14  29  14  30   5
M  ISO  8  31  13  32  13  33  13  34  13  35  13  36  13  39  15  41  16
M  END
>  <DihAtoms>  (1) 
20,21,36,37

>  <DihDeg>  (1) 
-92.0456675429107

$$$$
