
 OpenBabel03272510333D

 27 29  0  0  0  0  0  0  0  0999 V2000
   35.8970   30.1340   46.7380 C   0  0  0  0  0  0  0  0  0  0  0  0
   35.3300   30.1250   45.5000 C   0  0  0  0  0  0  0  0  0  0  0  0
   34.1400   29.4680   45.2440 C   0  0  0  0  0  0  0  0  0  0  0  0
   33.5330   28.8100   46.3010 C   0  0  0  0  0  0  0  0  0  0  0  0
   34.0830   28.8000   47.5690 C   0  0  0  0  0  0  0  0  0  0  0  0
   35.2770   29.4700   47.7810 C   0  0  0  0  0  0  0  0  0  0  0  0
   35.7990   30.6430   44.6490 H   0  0  0  0  0  0  0  0  0  0  0  0
   33.7040   29.4700   44.2630 H   0  0  0  0  0  0  0  0  0  0  0  0
   32.6010   28.2910   46.1180 H   0  0  0  0  0  0  0  0  0  0  0  0
   33.5660   28.2680   48.3610 H   0  0  0  0  0  0  0  0  0  0  0  0
   38.3040   32.5620   47.9720 C   0  0  0  0  0  0  0  0  0  0  0  0
   39.4790   32.2810   47.2790 C   0  0  0  0  0  0  0  0  0  0  0  0
   39.4300   31.2190   46.3610 C   0  0  0  0  0  0  0  0  0  0  0  0
   38.2680   30.5330   46.1940 N   0  0  0  0  0  0  0  0  0  0  0  0
   37.1520   30.8540   46.8980 C   0  0  0  0  0  0  0  0  0  0  0  0
   37.1660   31.8790   47.7980 N   0  0  0  0  0  0  0  0  0  0  0  0
   38.4020   33.3880   48.6640 H   0  0  0  0  0  0  0  0  0  0  0  0
   40.4170   32.7700   47.3570 H   0  0  0  0  0  0  0  0  0  0  0  0
   40.2360   30.8520   45.7320 H   0  0  0  0  0  0  0  0  0  0  0  0
   35.8940   29.4900   49.1040 C   0  0  0  0  0  0  0  0  0  0  0  0
   37.2530   29.3550   49.2730 C   0  0  0  0  0  0  0  0  0  0  0  0
   37.8250   29.2350   48.3580 H   0  0  0  0  0  0  0  0  0  0  0  0
   37.8940   29.3640   50.4890 C   0  0  0  0  0  0  0  0  0  0  0  0
   38.9740   29.2510   50.5300 H   0  0  0  0  0  0  0  0  0  0  0  0
   37.1200   29.5190   51.6320 C   0  0  0  0  0  3  0  0  0  0  0  0
   35.7560   29.6560   51.4760 C   0  0  0  0  0  3  0  0  0  0  0  0
   35.1840   29.6400   50.2580 N   0  0  0  0  0  0  0  0  0  0  0  0
  1 15  1  0  0  0  0
  1  6  1  0  0  0  0
  2  1  2  0  0  0  0
  3  2  1  0  0  0  0
  3  4  2  0  0  0  0
  4  5  1  0  0  0  0
  5  6  2  0  0  0  0
  5 10  1  0  0  0  0
  6 20  1  0  0  0  0
  7  2  1  0  0  0  0
  8  3  1  0  0  0  0
  9  4  1  0  0  0  0
 11 17  1  0  0  0  0
 12 18  1  0  0  0  0
 12 11  2  0  0  0  0
 13 12  1  0  0  0  0
 14 13  2  0  0  0  0
 14 15  1  0  0  0  0
 15 16  2  0  0  0  0
 16 11  1  0  0  0  0
 19 13  1  0  0  0  0
 20 21  2  0  0  0  0
 20 27  1  0  0  0  0
 21 23  1  0  0  0  0
 22 21  1  0  0  0  0
 23 24  1  0  0  0  0
 23 25  2  0  0  0  0
 26 25  1  0  0  0  0
 27 26  2  0  0  0  0
M  END
>  <minimizedAffinity>
-4.63753748

>  <minimizedRMSD>
2.00947714

$$$$
