
 OpenBabel03272505393D

 30 32  0  0  0  0  0  0  0  0999 V2000
   40.8030   25.1390   34.7610 C   0  0  0  0  0  0  0  0  0  0  0  0
   42.1170   24.7250   34.7140 C   0  0  0  0  0  0  0  0  0  0  0  0
   43.0880   25.5750   34.2090 C   0  0  0  0  0  0  0  0  0  0  0  0
   42.8120   26.8390   33.7410 C   0  0  0  0  0  0  0  0  0  0  0  0
   41.5020   27.2540   33.7870 C   0  0  0  0  0  0  0  0  0  0  0  0
   40.5330   26.4110   34.2880 C   0  0  0  0  0  0  0  0  0  0  0  0
   42.3700   23.7310   35.0750 H   0  0  0  0  0  0  0  0  0  0  0  0
   44.1020   25.1690   34.2080 H   0  0  0  0  0  0  0  0  0  0  0  0
   43.6150   27.4670   33.3550 H   0  0  0  0  0  0  0  0  0  0  0  0
   41.3050   28.2540   33.4130 H   0  0  0  0  0  0  0  0  0  0  0  0
   38.4720   23.5410   37.0840 C   0  0  0  0  0  0  0  0  0  0  0  0
   37.8040   22.6130   36.2660 C   0  0  0  0  0  0  0  0  0  0  0  0
   38.1700   22.5510   34.9150 C   0  0  0  0  0  0  0  0  0  0  0  0
   39.1410   23.3920   34.4950 N   0  0  0  0  0  0  0  0  0  0  0  0
   39.7650   24.2680   35.2920 C   0  0  0  0  0  0  0  0  0  0  0  0
   39.4220   24.3330   36.5810 N   0  0  0  0  0  0  0  0  0  0  0  0
   37.0260   21.9470   36.6210 H   0  0  0  0  0  0  0  0  0  0  0  0
   37.7110   21.8690   34.2200 H   0  0  0  0  0  0  0  0  0  0  0  0
   38.0700   23.5920   38.5270 C   0  0  0  0  0  0  0  0  0  0  0  0
   37.5280   24.8500   38.7990 F   0  0  0  0  0  0  0  0  0  0  0  0
   37.1920   22.5860   38.7530 F   0  0  0  0  0  0  0  0  0  0  0  0
   39.2080   23.4890   39.2970 F   0  0  0  0  0  0  0  0  0  0  0  0
   39.1920   26.9650   34.2670 C   0  0  0  0  0  0  0  0  0  0  0  0
   38.4570   27.4680   35.3250 C   0  0  0  0  0  0  0  0  0  0  0  0
   38.9620   27.4270   36.2970 H   0  0  0  0  0  0  0  0  0  0  0  0
   37.1900   27.9730   35.1520 C   0  0  0  0  0  0  0  0  0  0  0  0
   36.7180   28.3370   36.0540 H   0  0  0  0  0  0  0  0  0  0  0  0
   36.6410   27.9750   33.8900 C   0  0  0  0  0  3  0  0  0  0  0  0
   37.3700   27.4780   32.8480 C   0  0  0  0  0  3  0  0  0  0  0  0
   38.6050   26.9890   33.0370 N   0  0  0  0  0  0  0  0  0  0  0  0
  1 15  1  0  0  0  0
  2  1  1  0  0  0  0
  2  7  1  0  0  0  0
  3  2  2  0  0  0  0
  4  5  2  0  0  0  0
  4  3  1  0  0  0  0
  5  6  1  0  0  0  0
  6  1  2  0  0  0  0
  8  3  1  0  0  0  0
  9  4  1  0  0  0  0
 10  5  1  0  0  0  0
 11 19  1  0  0  0  0
 12 17  1  0  0  0  0
 12 11  2  0  0  0  0
 13 12  1  0  0  0  0
 14 13  2  0  0  0  0
 14 15  1  0  0  0  0
 15 16  2  0  0  0  0
 16 11  1  0  0  0  0
 18 13  1  0  0  0  0
 19 21  1  0  0  0  0
 19 20  1  0  0  0  0
 19 22  1  0  0  0  0
 23  6  1  0  0  0  0
 23 24  1  0  0  0  0
 24 25  1  0  0  0  0
 26 24  2  0  0  0  0
 26 27  1  0  0  0  0
 28 26  1  0  0  0  0
 29 30  1  0  0  0  0
 29 28  2  0  0  0  0
 30 23  2  0  0  0  0
M  END
>  <minimizedAffinity>
-5.91296196

$$$$

 OpenBabel03272505393D

 30 32  0  0  0  0  0  0  0  0999 V2000
   37.4200   22.3550   33.6390 C   0  0  0  0  0  0  0  0  0  0  0  0
   36.6950   21.1990   33.4480 C   0  0  0  0  0  0  0  0  0  0  0  0
   35.8310   21.0980   32.3690 C   0  0  0  0  0  0  0  0  0  0  0  0
   35.6490   22.1100   31.4540 C   0  0  0  0  0  0  0  0  0  0  0  0
   36.3710   23.2650   31.6430 C   0  0  0  0  0  0  0  0  0  0  0  0
   37.2320   23.3690   32.7150 C   0  0  0  0  0  0  0  0  0  0  0  0
   36.8140   20.3790   34.1530 H   0  0  0  0  0  0  0  0  0  0  0  0
   35.2960   20.1490   32.2930 H   0  0  0  0  0  0  0  0  0  0  0  0
   34.9570   21.9770   30.6230 H   0  0  0  0  0  0  0  0  0  0  0  0
   36.2140   24.0500   30.9110 H   0  0  0  0  0  0  0  0  0  0  0  0
   38.7430   23.0930   36.9680 C   0  0  0  0  0  0  0  0  0  0  0  0
   40.0930   22.7180   36.8580 C   0  0  0  0  0  0  0  0  0  0  0  0
   40.5310   22.2120   35.6270 C   0  0  0  0  0  0  0  0  0  0  0  0
   39.6200   22.1210   34.6330 N   0  0  0  0  0  0  0  0  0  0  0  0
   38.3380   22.4840   34.7600 C   0  0  0  0  0  0  0  0  0  0  0  0
   37.9120   22.9680   35.9300 N   0  0  0  0  0  0  0  0  0  0  0  0
   40.8090   22.7970   37.6670 H   0  0  0  0  0  0  0  0  0  0  0  0
   41.5490   21.9020   35.4550 H   0  0  0  0  0  0  0  0  0  0  0  0
   38.2920   23.6340   38.2920 C   0  0  0  0  0  0  0  0  0  0  0  0
   37.9740   24.9860   38.1400 F   0  0  0  0  0  0  0  0  0  0  0  0
   37.2380   22.8940   38.7100 F   0  0  0  0  0  0  0  0  0  0  0  0
   39.3570   23.5850   39.1640 F   0  0  0  0  0  0  0  0  0  0  0  0
   37.9200   24.6420   32.8060 C   0  0  0  0  0  0  0  0  0  0  0  0
   37.5420   25.7710   33.5110 C   0  0  0  0  0  0  0  0  0  0  0  0
   36.5970   25.6780   34.0570 H   0  0  0  0  0  0  0  0  0  0  0  0
   38.3060   26.9140   33.5110 C   0  0  0  0  0  0  0  0  0  0  0  0
   37.9060   27.7280   34.1000 H   0  0  0  0  0  0  0  0  0  0  0  0
   39.4770   26.9320   32.7880 C   0  0  0  0  0  3  0  0  0  0  0  0
   39.8460   25.8170   32.0930 C   0  0  0  0  0  3  0  0  0  0  0  0
   39.0870   24.7110   32.1060 N   0  0  0  0  0  0  0  0  0  0  0  0
  1 15  1  0  0  0  0
  2  1  1  0  0  0  0
  2  7  1  0  0  0  0
  3  2  2  0  0  0  0
  4  5  2  0  0  0  0
  4  3  1  0  0  0  0
  5  6  1  0  0  0  0
  6 23  1  0  0  0  0
  6  1  2  0  0  0  0
  8  3  1  0  0  0  0
  9  4  1  0  0  0  0
 10  5  1  0  0  0  0
 11 19  1  0  0  0  0
 12 11  1  0  0  0  0
 12 17  1  0  0  0  0
 13 12  2  0  0  0  0
 14 15  2  0  0  0  0
 14 13  1  0  0  0  0
 15 16  1  0  0  0  0
 16 11  2  0  0  0  0
 18 13  1  0  0  0  0
 19 21  1  0  0  0  0
 19 22  1  0  0  0  0
 20 19  1  0  0  0  0
 23 24  1  0  0  0  0
 24 25  1  0  0  0  0
 26 24  2  0  0  0  0
 26 27  1  0  0  0  0
 28 26  1  0  0  0  0
 29 30  1  0  0  0  0
 29 28  2  0  0  0  0
 30 23  2  0  0  0  0
M  END
>  <minimizedAffinity>
-5.86466837

$$$$

 OpenBabel03272505393D

 30 32  0  0  0  0  0  0  0  0999 V2000
   37.2990   26.8000   34.1490 C   0  0  0  0  0  0  0  0  0  0  0  0
   36.9020   27.9370   34.8190 C   0  0  0  0  0  0  0  0  0  0  0  0
   36.1010   28.8690   34.1780 C   0  0  0  0  0  0  0  0  0  0  0  0
   35.6680   28.7240   32.8800 C   0  0  0  0  0  0  0  0  0  0  0  0
   36.0630   27.5900   32.2100 C   0  0  0  0  0  0  0  0  0  0  0  0
   36.8590   26.6600   32.8430 C   0  0  0  0  0  0  0  0  0  0  0  0
   37.2270   28.0840   35.8460 H   0  0  0  0  0  0  0  0  0  0  0  0
   35.8330   29.7400   34.7810 H   0  0  0  0  0  0  0  0  0  0  0  0
   35.0380   29.4880   32.4250 H   0  0  0  0  0  0  0  0  0  0  0  0
   35.7100   27.4940   31.1880 H   0  0  0  0  0  0  0  0  0  0  0  0
   38.4810   24.2930   36.5350 C   0  0  0  0  0  0  0  0  0  0  0  0
   39.7310   23.9260   36.0080 C   0  0  0  0  0  0  0  0  0  0  0  0
   40.1520   24.5530   34.8280 C   0  0  0  0  0  0  0  0  0  0  0  0
   39.3210   25.4680   34.2810 N   0  0  0  0  0  0  0  0  0  0  0  0
   38.1340   25.8030   34.8000 C   0  0  0  0  0  0  0  0  0  0  0  0
   37.7260   25.2100   35.9250 N   0  0  0  0  0  0  0  0  0  0  0  0
   40.3840   23.1890   36.4610 H   0  0  0  0  0  0  0  0  0  0  0  0
   41.0950   24.3320   34.3570 H   0  0  0  0  0  0  0  0  0  0  0  0
   38.0480   23.6140   37.8000 C   0  0  0  0  0  0  0  0  0  0  0  0
   37.6590   24.5870   38.7220 F   0  0  0  0  0  0  0  0  0  0  0  0
   37.0470   22.7550   37.4920 F   0  0  0  0  0  0  0  0  0  0  0  0
   39.1430   22.9810   38.3470 F   0  0  0  0  0  0  0  0  0  0  0  0
   37.2150   25.5200   32.0200 C   0  0  0  0  0  0  0  0  0  0  0  0
   36.6520   24.2570   32.0190 C   0  0  0  0  0  0  0  0  0  0  0  0
   35.8420   24.1120   32.7440 H   0  0  0  0  0  0  0  0  0  0  0  0
   37.0900   23.2690   31.1690 C   0  0  0  0  0  0  0  0  0  0  0  0
   36.5710   22.3250   31.2610 H   0  0  0  0  0  0  0  0  0  0  0  0
   38.1190   23.5490   30.2980 C   0  0  0  0  0  3  0  0  0  0  0  0
   38.6710   24.7970   30.3020 C   0  0  0  0  0  3  0  0  0  0  0  0
   38.2290   25.7470   31.1390 N   0  0  0  0  0  0  0  0  0  0  0  0
  1 15  1  0  0  0  0
  1  2  1  0  0  0  0
  2  7  1  0  0  0  0
  3  8  1  0  0  0  0
  3  2  2  0  0  0  0
  4  3  1  0  0  0  0
  5  6  1  0  0  0  0
  5  4  2  0  0  0  0
  6  1  2  0  0  0  0
  9  4  1  0  0  0  0
 10  5  1  0  0  0  0
 11 19  1  0  0  0  0
 12 17  1  0  0  0  0
 12 11  1  0  0  0  0
 13 12  2  0  0  0  0
 14 15  2  0  0  0  0
 14 13  1  0  0  0  0
 15 16  1  0  0  0  0
 16 11  2  0  0  0  0
 18 13  1  0  0  0  0
 19 22  1  0  0  0  0
 19 20  1  0  0  0  0
 21 19  1  0  0  0  0
 23  6  1  0  0  0  0
 24 23  1  0  0  0  0
 24 25  1  0  0  0  0
 26 27  1  0  0  0  0
 26 24  2  0  0  0  0
 28 29  2  0  0  0  0
 28 26  1  0  0  0  0
 29 30  1  0  0  0  0
 30 23  2  0  0  0  0
M  END
>  <minimizedAffinity>
-5.79494047

$$$$

 OpenBabel03272505393D

 30 32  0  0  0  0  0  0  0  0999 V2000
   37.2720   24.0490   32.8760 C   0  0  0  0  0  0  0  0  0  0  0  0
   37.2830   25.4060   32.6340 C   0  0  0  0  0  0  0  0  0  0  0  0
   36.4470   25.9390   31.6650 C   0  0  0  0  0  0  0  0  0  0  0  0
   35.5860   25.1740   30.9110 C   0  0  0  0  0  0  0  0  0  0  0  0
   35.5730   23.8210   31.1520 C   0  0  0  0  0  0  0  0  0  0  0  0
   36.4030   23.2870   32.1140 C   0  0  0  0  0  0  0  0  0  0  0  0
   37.9530   26.0400   33.2110 H   0  0  0  0  0  0  0  0  0  0  0  0
   36.5190   27.0210   31.5380 H   0  0  0  0  0  0  0  0  0  0  0  0
   34.9500   25.6460   30.1630 H   0  0  0  0  0  0  0  0  0  0  0  0
   34.8870   23.2360   30.5470 H   0  0  0  0  0  0  0  0  0  0  0  0
   38.6810   23.1580   36.1320 C   0  0  0  0  0  0  0  0  0  0  0  0
   39.7800   22.3520   35.7860 C   0  0  0  0  0  0  0  0  0  0  0  0
   40.0210   22.1260   34.4250 C   0  0  0  0  0  0  0  0  0  0  0  0
   39.1750   22.7000   33.5400 N   0  0  0  0  0  0  0  0  0  0  0  0
   38.1350   23.4650   33.8910 C   0  0  0  0  0  0  0  0  0  0  0  0
   37.8980   23.6870   35.1880 N   0  0  0  0  0  0  0  0  0  0  0  0
   40.4460   21.8990   36.5100 H   0  0  0  0  0  0  0  0  0  0  0  0
   40.8400   21.5220   34.0720 H   0  0  0  0  0  0  0  0  0  0  0  0
   38.4400   23.3920   37.5930 C   0  0  0  0  0  0  0  0  0  0  0  0
   37.2310   22.7910   37.9510 F   0  0  0  0  0  0  0  0  0  0  0  0
   39.4960   22.8910   38.2770 F   0  0  0  0  0  0  0  0  0  0  0  0
   38.2690   24.7450   37.7920 F   0  0  0  0  0  0  0  0  0  0  0  0
   36.3020   21.8470   32.2560 C   0  0  0  0  0  0  0  0  0  0  0  0
   35.5660   21.1280   33.1810 C   0  0  0  0  0  0  0  0  0  0  0  0
   35.0010   21.7380   33.8960 H   0  0  0  0  0  0  0  0  0  0  0  0
   35.5590   19.7530   33.1910 C   0  0  0  0  0  0  0  0  0  0  0  0
   34.9460   19.3060   33.9610 H   0  0  0  0  0  0  0  0  0  0  0  0
   36.3080   19.0780   32.2540 C   0  0  0  0  0  3  0  0  0  0  0  0
   37.0320   19.7900   31.3430 C   0  0  0  0  0  3  0  0  0  0  0  0
   37.0260   21.1320   31.3500 N   0  0  0  0  0  0  0  0  0  0  0  0
  1 15  1  0  0  0  0
  2  1  1  0  0  0  0
  2  7  1  0  0  0  0
  3  2  2  0  0  0  0
  4  5  2  0  0  0  0
  4  3  1  0  0  0  0
  5  6  1  0  0  0  0
  6 23  1  0  0  0  0
  6  1  2  0  0  0  0
  8  3  1  0  0  0  0
  9  4  1  0  0  0  0
 10  5  1  0  0  0  0
 11 19  1  0  0  0  0
 12 11  1  0  0  0  0
 12 17  1  0  0  0  0
 13 12  2  0  0  0  0
 14 15  2  0  0  0  0
 14 13  1  0  0  0  0
 15 16  1  0  0  0  0
 16 11  2  0  0  0  0
 18 13  1  0  0  0  0
 19 22  1  0  0  0  0
 19 20  1  0  0  0  0
 19 21  1  0  0  0  0
 23 24  1  0  0  0  0
 24 26  2  0  0  0  0
 24 25  1  0  0  0  0
 26 27  1  0  0  0  0
 28 26  1  0  0  0  0
 29 30  1  0  0  0  0
 29 28  2  0  0  0  0
 30 23  2  0  0  0  0
M  END
>  <minimizedAffinity>
-5.71209431

$$$$

 OpenBabel03272505393D

 30 32  0  0  0  0  0  0  0  0999 V2000
   36.0440   26.2080   31.7000 C   0  0  0  0  0  0  0  0  0  0  0  0
   35.1500   25.5440   30.8870 C   0  0  0  0  0  0  0  0  0  0  0  0
   35.1490   24.1580   30.8530 C   0  0  0  0  0  0  0  0  0  0  0  0
   36.0100   23.3860   31.6000 C   0  0  0  0  0  0  0  0  0  0  0  0
   36.9020   24.0470   32.4110 C   0  0  0  0  0  0  0  0  0  0  0  0
   36.9060   25.4250   32.4480 C   0  0  0  0  0  0  0  0  0  0  0  0
   34.4560   26.1230   30.2820 H   0  0  0  0  0  0  0  0  0  0  0  0
   34.4100   23.7140   30.1830 H   0  0  0  0  0  0  0  0  0  0  0  0
   35.9650   22.3000   31.5350 H   0  0  0  0  0  0  0  0  0  0  0  0
   37.5710   23.4200   32.9920 H   0  0  0  0  0  0  0  0  0  0  0  0
   35.7840   29.6270   32.9710 C   0  0  0  0  0  0  0  0  0  0  0  0
   36.1000   30.4040   31.8430 C   0  0  0  0  0  0  0  0  0  0  0  0
   36.4020   29.7320   30.6510 C   0  0  0  0  0  0  0  0  0  0  0  0
   36.3660   28.3810   30.6730 N   0  0  0  0  0  0  0  0  0  0  0  0
   36.0610   27.6610   31.7590 C   0  0  0  0  0  0  0  0  0  0  0  0
   35.7720   28.2940   32.9000 N   0  0  0  0  0  0  0  0  0  0  0  0
   36.1250   31.4870   31.8440 H   0  0  0  0  0  0  0  0  0  0  0  0
   36.6540   30.2490   29.7400 H   0  0  0  0  0  0  0  0  0  0  0  0
   35.4610   30.3630   34.2370 C   0  0  0  0  0  0  0  0  0  0  0  0
   36.2770   29.8760   35.2600 F   0  0  0  0  0  0  0  0  0  0  0  0
   35.6420   31.6860   34.0090 F   0  0  0  0  0  0  0  0  0  0  0  0
   34.1680   30.0560   34.5980 F   0  0  0  0  0  0  0  0  0  0  0  0
   37.9050   25.9940   33.3320 C   0  0  0  0  0  0  0  0  0  0  0  0
   39.1400   26.5230   33.0010 C   0  0  0  0  0  0  0  0  0  0  0  0
   39.3830   26.4920   31.9320 H   0  0  0  0  0  0  0  0  0  0  0  0
   39.9860   27.0400   33.9530 C   0  0  0  0  0  0  0  0  0  0  0  0
   40.9210   27.4250   33.5710 H   0  0  0  0  0  0  0  0  0  0  0  0
   39.5900   27.0280   35.2720 C   0  0  0  0  0  3  0  0  0  0  0  0
   38.3710   26.5060   35.5950 C   0  0  0  0  0  3  0  0  0  0  0  0
   37.5600   26.0060   34.6500 N   0  0  0  0  0  0  0  0  0  0  0  0
  1 15  1  0  0  0  0
  1  6  1  0  0  0  0
  2  1  2  0  0  0  0
  3  2  1  0  0  0  0
  3  4  2  0  0  0  0
  4  5  1  0  0  0  0
  5  6  2  0  0  0  0
  5 10  1  0  0  0  0
  6 23  1  0  0  0  0
  7  2  1  0  0  0  0
  8  3  1  0  0  0  0
  9  4  1  0  0  0  0
 11 19  1  0  0  0  0
 12 17  1  0  0  0  0
 12 11  2  0  0  0  0
 13 14  2  0  0  0  0
 13 12  1  0  0  0  0
 14 15  1  0  0  0  0
 15 16  2  0  0  0  0
 16 11  1  0  0  0  0
 18 13  1  0  0  0  0
 19 22  1  0  0  0  0
 19 20  1  0  0  0  0
 21 19  1  0  0  0  0
 23 30  1  0  0  0  0
 24 23  2  0  0  0  0
 24 26  1  0  0  0  0
 25 24  1  0  0  0  0
 26 28  2  0  0  0  0
 27 26  1  0  0  0  0
 28 29  1  0  0  0  0
 30 29  2  0  0  0  0
M  END
>  <minimizedAffinity>
-5.55924082

$$$$

 OpenBabel03272505393D

 30 32  0  0  0  0  0  0  0  0999 V2000
   34.7060   30.9910   35.3100 C   0  0  0  0  0  0  0  0  0  0  0  0
   35.5210   31.9710   35.8330 C   0  0  0  0  0  0  0  0  0  0  0  0
   35.0470   32.7930   36.8440 C   0  0  0  0  0  0  0  0  0  0  0  0
   33.7790   32.6860   37.3690 C   0  0  0  0  0  0  0  0  0  0  0  0
   32.9650   31.7090   36.8470 C   0  0  0  0  0  0  0  0  0  0  0  0
   33.4320   30.8900   35.8420 C   0  0  0  0  0  0  0  0  0  0  0  0
   36.5290   32.0840   35.4420 H   0  0  0  0  0  0  0  0  0  0  0  0
   35.7580   33.5420   37.2010 H   0  0  0  0  0  0  0  0  0  0  0  0
   33.4590   33.3590   38.1640 H   0  0  0  0  0  0  0  0  0  0  0  0
   31.9690   31.6410   37.2750 H   0  0  0  0  0  0  0  0  0  0  0  0
   36.2990   28.1810   33.5940 C   0  0  0  0  0  0  0  0  0  0  0  0
   36.0660   28.4700   32.2390 C   0  0  0  0  0  0  0  0  0  0  0  0
   35.3570   29.6400   31.9330 C   0  0  0  0  0  0  0  0  0  0  0  0
   34.9470   30.4060   32.9680 N   0  0  0  0  0  0  0  0  0  0  0  0
   35.1810   30.1110   34.2530 C   0  0  0  0  0  0  0  0  0  0  0  0
   35.8560   28.9980   34.5530 N   0  0  0  0  0  0  0  0  0  0  0  0
   36.4020   27.8430   31.4220 H   0  0  0  0  0  0  0  0  0  0  0  0
   35.1360   29.9370   30.9220 H   0  0  0  0  0  0  0  0  0  0  0  0
   37.0610   26.9270   33.9030 C   0  0  0  0  0  0  0  0  0  0  0  0
   36.7640   26.5290   35.2080 F   0  0  0  0  0  0  0  0  0  0  0  0
   36.7220   25.9940   32.9820 F   0  0  0  0  0  0  0  0  0  0  0  0
   38.4070   27.2250   33.8880 F   0  0  0  0  0  0  0  0  0  0  0  0
   32.4680   29.9130   35.3730 C   0  0  0  0  0  0  0  0  0  0  0  0
   31.7750   29.9010   34.1760 C   0  0  0  0  0  0  0  0  0  0  0  0
   31.9840   30.7490   33.5140 H   0  0  0  0  0  0  0  0  0  0  0  0
   30.8910   28.8970   33.8600 C   0  0  0  0  0  0  0  0  0  0  0  0
   30.4110   28.9980   32.8970 H   0  0  0  0  0  0  0  0  0  0  0  0
   30.6920   27.8770   34.7640 C   0  0  0  0  0  3  0  0  0  0  0  0
   31.3780   27.8920   35.9430 C   0  0  0  0  0  3  0  0  0  0  0  0
   32.2370   28.8810   36.2330 N   0  0  0  0  0  0  0  0  0  0  0  0
  1  2  2  0  0  0  0
  1  6  1  0  0  0  0
  2  3  1  0  0  0  0
  3  8  1  0  0  0  0
  3  4  2  0  0  0  0
  4  9  1  0  0  0  0
  5 10  1  0  0  0  0
  5  4  1  0  0  0  0
  6  5  2  0  0  0  0
  7  2  1  0  0  0  0
 11 19  1  0  0  0  0
 11 16  1  0  0  0  0
 12 11  2  0  0  0  0
 13 12  1  0  0  0  0
 13 14  2  0  0  0  0
 14 15  1  0  0  0  0
 15 16  2  0  0  0  0
 15  1  1  0  0  0  0
 17 12  1  0  0  0  0
 18 13  1  0  0  0  0
 19 20  1  0  0  0  0
 21 19  1  0  0  0  0
 22 19  1  0  0  0  0
 23  6  1  0  0  0  0
 23 30  1  0  0  0  0
 24 23  2  0  0  0  0
 25 24  1  0  0  0  0
 26 24  1  0  0  0  0
 26 28  2  0  0  0  0
 27 26  1  0  0  0  0
 28 29  1  0  0  0  0
 29 30  2  0  0  0  0
M  END
>  <minimizedAffinity>
-5.52830076

$$$$

 OpenBabel03272505393D

 30 32  0  0  0  0  0  0  0  0999 V2000
   37.6820   22.4750   33.6940 C   0  0  0  0  0  0  0  0  0  0  0  0
   36.8750   22.0030   32.6820 C   0  0  0  0  0  0  0  0  0  0  0  0
   35.8620   21.1030   32.9730 C   0  0  0  0  0  0  0  0  0  0  0  0
   35.6080   20.6400   34.2440 C   0  0  0  0  0  0  0  0  0  0  0  0
   36.4130   21.1100   35.2550 C   0  0  0  0  0  0  0  0  0  0  0  0
   37.4210   22.0050   34.9700 C   0  0  0  0  0  0  0  0  0  0  0  0
   37.0480   22.3480   31.6650 H   0  0  0  0  0  0  0  0  0  0  0  0
   35.2700   20.7810   32.1140 H   0  0  0  0  0  0  0  0  0  0  0  0
   34.7980   19.9330   34.4160 H   0  0  0  0  0  0  0  0  0  0  0  0
   36.1960   20.7330   36.2500 H   0  0  0  0  0  0  0  0  0  0  0  0
   39.6220   25.5740   33.5910 C   0  0  0  0  0  0  0  0  0  0  0  0
   40.7740   25.1970   32.8790 C   0  0  0  0  0  0  0  0  0  0  0  0
   40.8670   23.8690   32.4420 C   0  0  0  0  0  0  0  0  0  0  0  0
   39.8370   23.0450   32.7380 N   0  0  0  0  0  0  0  0  0  0  0  0
   38.7480   23.4250   33.4170 C   0  0  0  0  0  0  0  0  0  0  0  0
   38.6520   24.6900   33.8370 N   0  0  0  0  0  0  0  0  0  0  0  0
   41.5910   25.8720   32.6520 H   0  0  0  0  0  0  0  0  0  0  0  0
   41.7130   23.4970   31.8900 H   0  0  0  0  0  0  0  0  0  0  0  0
   39.5390   27.0000   34.0480 C   0  0  0  0  0  0  0  0  0  0  0  0
   39.5930   27.0280   35.4440 F   0  0  0  0  0  0  0  0  0  0  0  0
   40.5560   27.6840   33.4720 F   0  0  0  0  0  0  0  0  0  0  0  0
   38.3010   27.4930   33.7020 F   0  0  0  0  0  0  0  0  0  0  0  0
   38.2040   22.4080   36.1230 C   0  0  0  0  0  0  0  0  0  0  0  0
   37.8130   23.2020   37.1870 C   0  0  0  0  0  0  0  0  0  0  0  0
   36.7840   23.5730   37.1320 H   0  0  0  0  0  0  0  0  0  0  0  0
   38.6680   23.4970   38.2230 C   0  0  0  0  0  0  0  0  0  0  0  0
   38.2480   24.1250   38.9950 H   0  0  0  0  0  0  0  0  0  0  0  0
   39.9460   22.9860   38.1970 C   0  0  0  0  0  3  0  0  0  0  0  0
   40.3280   22.2030   37.1460 C   0  0  0  0  0  3  0  0  0  0  0  0
   39.4790   21.9280   36.1440 N   0  0  0  0  0  0  0  0  0  0  0  0
  1  6  1  0  0  0  0
  2  3  1  0  0  0  0
  2  1  2  0  0  0  0
  3  4  2  0  0  0  0
  4  9  1  0  0  0  0
  4  5  1  0  0  0  0
  5 10  1  0  0  0  0
  6  5  2  0  0  0  0
  6 23  1  0  0  0  0
  7  2  1  0  0  0  0
  8  3  1  0  0  0  0
 11 16  1  0  0  0  0
 11 19  1  0  0  0  0
 12 11  2  0  0  0  0
 13 14  2  0  0  0  0
 13 12  1  0  0  0  0
 14 15  1  0  0  0  0
 15  1  1  0  0  0  0
 15 16  2  0  0  0  0
 17 12  1  0  0  0  0
 18 13  1  0  0  0  0
 19 20  1  0  0  0  0
 21 19  1  0  0  0  0
 22 19  1  0  0  0  0
 23 30  2  0  0  0  0
 23 24  1  0  0  0  0
 24 26  2  0  0  0  0
 25 24  1  0  0  0  0
 26 27  1  0  0  0  0
 28 26  1  0  0  0  0
 29 28  2  0  0  0  0
 30 29  1  0  0  0  0
M  END
>  <minimizedAffinity>
-5.45047951

$$$$

 OpenBabel03272505393D

 30 32  0  0  0  0  0  0  0  0999 V2000
   38.1090   24.8690   34.0140 C   0  0  0  0  0  0  0  0  0  0  0  0
   37.4190   25.9030   33.4180 C   0  0  0  0  0  0  0  0  0  0  0  0
   37.4730   27.1740   33.9680 C   0  0  0  0  0  0  0  0  0  0  0  0
   38.1920   27.4730   35.1030 C   0  0  0  0  0  0  0  0  0  0  0  0
   38.8800   26.4430   35.7000 C   0  0  0  0  0  0  0  0  0  0  0  0
   38.8290   25.1770   35.1560 C   0  0  0  0  0  0  0  0  0  0  0  0
   36.8400   25.7020   32.5190 H   0  0  0  0  0  0  0  0  0  0  0  0
   36.8990   27.9330   33.4330 H   0  0  0  0  0  0  0  0  0  0  0  0
   38.2000   28.4900   35.4920 H   0  0  0  0  0  0  0  0  0  0  0  0
   39.4400   26.6990   36.5930 H   0  0  0  0  0  0  0  0  0  0  0  0
   36.9760   21.4970   33.1660 C   0  0  0  0  0  0  0  0  0  0  0  0
   38.0340   20.9990   32.3850 C   0  0  0  0  0  0  0  0  0  0  0  0
   39.1310   21.8410   32.1600 C   0  0  0  0  0  0  0  0  0  0  0  0
   39.0910   23.0740   32.7130 N   0  0  0  0  0  0  0  0  0  0  0  0
   38.0730   23.5280   33.4540 C   0  0  0  0  0  0  0  0  0  0  0  0
   37.0240   22.7310   33.6730 N   0  0  0  0  0  0  0  0  0  0  0  0
   38.0480   20.0070   31.9500 H   0  0  0  0  0  0  0  0  0  0  0  0
   39.9840   21.5400   31.5750 H   0  0  0  0  0  0  0  0  0  0  0  0
   35.8120   20.5810   33.3990 C   0  0  0  0  0  0  0  0  0  0  0  0
   35.5370   20.5410   34.7670 F   0  0  0  0  0  0  0  0  0  0  0  0
   34.7670   21.0400   32.6690 F   0  0  0  0  0  0  0  0  0  0  0  0
   36.1890   19.3040   33.0450 F   0  0  0  0  0  0  0  0  0  0  0  0
   39.5860   24.1820   35.8900 C   0  0  0  0  0  0  0  0  0  0  0  0
   40.8860   23.7620   35.6700 C   0  0  0  0  0  0  0  0  0  0  0  0
   41.3900   24.2440   34.8250 H   0  0  0  0  0  0  0  0  0  0  0  0
   41.4820   22.8060   36.4600 C   0  0  0  0  0  0  0  0  0  0  0  0
   42.5000   22.5620   36.1900 H   0  0  0  0  0  0  0  0  0  0  0  0
   40.7610   22.2550   37.4950 C   0  0  0  0  0  3  0  0  0  0  0  0
   39.4800   22.6720   37.7090 C   0  0  0  0  0  3  0  0  0  0  0  0
   38.9160   23.6050   36.9270 N   0  0  0  0  0  0  0  0  0  0  0  0
  1  6  1  0  0  0  0
  2  3  1  0  0  0  0
  2  1  2  0  0  0  0
  3  4  2  0  0  0  0
  4  9  1  0  0  0  0
  4  5  1  0  0  0  0
  5 10  1  0  0  0  0
  6  5  2  0  0  0  0
  6 23  1  0  0  0  0
  7  2  1  0  0  0  0
  8  3  1  0  0  0  0
 11 19  1  0  0  0  0
 11 16  1  0  0  0  0
 12 11  2  0  0  0  0
 13 12  1  0  0  0  0
 13 14  2  0  0  0  0
 14 15  1  0  0  0  0
 15 16  2  0  0  0  0
 15  1  1  0  0  0  0
 17 12  1  0  0  0  0
 18 13  1  0  0  0  0
 19 20  1  0  0  0  0
 21 19  1  0  0  0  0
 22 19  1  0  0  0  0
 23 30  1  0  0  0  0
 24 23  2  0  0  0  0
 24 26  1  0  0  0  0
 25 24  1  0  0  0  0
 26 28  2  0  0  0  0
 27 26  1  0  0  0  0
 28 29  1  0  0  0  0
 30 29  2  0  0  0  0
M  END
>  <minimizedAffinity>
-5.43310118

$$$$

 OpenBabel03272505393D

 30 32  0  0  0  0  0  0  0  0999 V2000
   37.7610   22.5990   34.2390 C   0  0  0  0  0  0  0  0  0  0  0  0
   36.9980   21.4990   33.9120 C   0  0  0  0  0  0  0  0  0  0  0  0
   36.3430   21.4540   32.6910 C   0  0  0  0  0  0  0  0  0  0  0  0
   36.4100   22.4680   31.7630 C   0  0  0  0  0  0  0  0  0  0  0  0
   37.1710   23.5660   32.0870 C   0  0  0  0  0  0  0  0  0  0  0  0
   37.8240   23.6150   33.3000 C   0  0  0  0  0  0  0  0  0  0  0  0
   36.9220   20.6800   34.6230 H   0  0  0  0  0  0  0  0  0  0  0  0
   35.7610   20.5470   32.5130 H   0  0  0  0  0  0  0  0  0  0  0  0
   35.8750   22.3800   30.8180 H   0  0  0  0  0  0  0  0  0  0  0  0
   37.2110   24.3540   31.3420 H   0  0  0  0  0  0  0  0  0  0  0  0
   40.3570   22.2320   36.7880 C   0  0  0  0  0  0  0  0  0  0  0  0
   39.7650   22.8130   37.9230 C   0  0  0  0  0  0  0  0  0  0  0  0
   38.4680   23.3290   37.7910 C   0  0  0  0  0  0  0  0  0  0  0  0
   37.8810   23.2280   36.5780 N   0  0  0  0  0  0  0  0  0  0  0  0
   38.4630   22.6690   35.5100 C   0  0  0  0  0  0  0  0  0  0  0  0
   39.6990   22.1750   35.6280 N   0  0  0  0  0  0  0  0  0  0  0  0
   40.2520   22.8860   38.8870 H   0  0  0  0  0  0  0  0  0  0  0  0
   37.9410   23.7900   38.6090 H   0  0  0  0  0  0  0  0  0  0  0  0
   41.7430   21.6830   36.9490 C   0  0  0  0  0  0  0  0  0  0  0  0
   42.6520   22.7430   36.9200 F   0  0  0  0  0  0  0  0  0  0  0  0
   41.7870   20.9880   38.1100 F   0  0  0  0  0  0  0  0  0  0  0  0
   42.0290   20.9030   35.8500 F   0  0  0  0  0  0  0  0  0  0  0  0
   38.5780   24.8340   33.5220 C   0  0  0  0  0  0  0  0  0  0  0  0
   38.1830   25.9730   34.2010 C   0  0  0  0  0  0  0  0  0  0  0  0
   37.1660   25.9380   34.6080 H   0  0  0  0  0  0  0  0  0  0  0  0
   39.0150   27.0590   34.3400 C   0  0  0  0  0  0  0  0  0  0  0  0
   38.5940   27.8880   34.8920 H   0  0  0  0  0  0  0  0  0  0  0  0
   40.2740   27.0070   33.7870 C   0  0  0  0  0  3  0  0  0  0  0  0
   40.6610   25.8820   33.1180 C   0  0  0  0  0  3  0  0  0  0  0  0
   39.8330   24.8320   32.9930 N   0  0  0  0  0  0  0  0  0  0  0  0
  1 15  1  0  0  0  0
  2  1  1  0  0  0  0
  2  7  1  0  0  0  0
  3  2  2  0  0  0  0
  4  5  2  0  0  0  0
  4  3  1  0  0  0  0
  5  6  1  0  0  0  0
  6 23  1  0  0  0  0
  6  1  2  0  0  0  0
  8  3  1  0  0  0  0
  9  4  1  0  0  0  0
 10  5  1  0  0  0  0
 11 19  1  0  0  0  0
 11 12  1  0  0  0  0
 12 17  1  0  0  0  0
 13 12  2  0  0  0  0
 13 18  1  0  0  0  0
 14 13  1  0  0  0  0
 15 16  1  0  0  0  0
 15 14  2  0  0  0  0
 16 11  2  0  0  0  0
 19 21  1  0  0  0  0
 20 19  1  0  0  0  0
 22 19  1  0  0  0  0
 23 24  1  0  0  0  0
 24 26  2  0  0  0  0
 24 25  1  0  0  0  0
 26 27  1  0  0  0  0
 28 26  1  0  0  0  0
 29 28  2  0  0  0  0
 30 29  1  0  0  0  0
 30 23  2  0  0  0  0
M  END
>  <minimizedAffinity>
-5.4069128

$$$$
