
 OpenBabel03272502433D

 27 29  0  0  0  0  0  0  0  0999 V2000
   36.4540   28.7980   31.8770 C   0  0  0  0  0  0  0  0  0  0  0  0
   36.9980   27.6020   32.3700 C   0  0  0  0  0  0  0  0  0  0  0  0
   36.9100   27.3970   33.7560 C   0  0  0  0  0  0  0  0  0  0  0  0
   36.3240   28.3300   34.5340 N   0  0  0  0  0  0  0  0  0  0  0  0
   35.8070   29.4810   34.0180 C   0  0  0  0  0  0  0  0  0  0  0  0
   35.8880   29.6800   32.7000 N   0  0  0  0  0  0  0  0  0  0  0  0
   36.4630   29.0660   30.8270 H   0  0  0  0  0  0  0  0  0  0  0  0
   37.4480   26.9100   31.6790 H   0  0  0  0  0  0  0  0  0  0  0  0
   32.8560   29.3350   34.1510 Cl  0  0  0  0  0  0  0  0  0  0  0  0
   33.8250   30.4680   35.0380 C   0  0  0  0  0  0  0  0  0  0  0  0
   35.1870   30.4510   34.9050 C   0  0  0  0  0  0  0  0  0  0  0  0
   36.0050   31.3330   35.5910 C   0  0  0  0  0  0  0  0  0  0  0  0
   35.4400   32.2680   36.4420 C   0  0  0  0  0  0  0  0  0  0  0  0
   34.0600   32.3120   36.6000 C   0  0  0  0  0  0  0  0  0  0  0  0
   33.2160   33.4420   37.6440 Cl  0  0  0  0  0  0  0  0  0  0  0  0
   33.3030   31.4100   35.8920 C   0  0  0  0  0  0  0  0  0  0  0  0
   37.0800   31.2940   35.4630 H   0  0  0  0  0  0  0  0  0  0  0  0
   36.0210   32.9790   37.0020 H   0  0  0  0  0  0  0  0  0  0  0  0
   32.2160   31.4190   35.9940 H   0  0  0  0  0  0  0  0  0  0  0  0
   37.4650   26.1650   34.3020 C   0  0  0  0  0  0  0  0  0  0  0  0
   37.8260   26.1210   35.6340 C   0  0  0  0  0  0  0  0  0  0  0  0
   37.7190   26.9630   36.3050 H   0  0  0  0  0  0  0  0  0  0  0  0
   38.3580   24.9390   36.1560 C   0  0  0  0  0  0  0  0  0  0  0  0
   38.6700   24.7970   37.1720 H   0  0  0  0  0  0  0  0  0  0  0  0
   38.4600   23.9180   35.2370 C   0  0  0  0  0  3  0  0  0  0  0  0
   38.1110   23.9260   33.9050 C   0  0  0  0  0  3  0  0  0  0  0  0
   37.6010   25.1160   33.4750 N   0  0  0  0  0  0  0  0  0  0  0  0
  1  2  2  0  0  0  0
  1  6  1  0  0  0  0
  2  3  1  0  0  0  0
  3 20  1  0  0  0  0
  3  4  2  0  0  0  0
  5  4  1  0  0  0  0
  5 11  1  0  0  0  0
  6  5  2  0  0  0  0
  7  1  1  0  0  0  0
  8  2  1  0  0  0  0
  9 10  1  0  0  0  0
 10 16  1  0  0  0  0
 11 10  2  0  0  0  0
 11 12  1  0  0  0  0
 12 13  2  0  0  0  0
 13 14  1  0  0  0  0
 13 18  1  0  0  0  0
 14 15  1  0  0  0  0
 16 19  1  0  0  0  0
 16 14  2  0  0  0  0
 17 12  1  0  0  0  0
 20 21  1  0  0  0  0
 21 23  2  0  0  0  0
 21 22  1  0  0  0  0
 23 24  1  0  0  0  0
 25 23  1  0  0  0  0
 26 25  2  0  0  0  0
 27 26  1  0  0  0  0
 27 20  2  0  0  0  0
M  END
>  <minimizedAffinity>
-5.48792744

$$$$

 OpenBabel03272502433D

 27 29  0  0  0  0  0  0  0  0999 V2000
   37.7660   22.1610   32.6140 C   0  0  0  0  0  0  0  0  0  0  0  0
   38.0550   22.1230   33.9870 C   0  0  0  0  0  0  0  0  0  0  0  0
   38.1630   23.3600   34.6400 C   0  0  0  0  0  0  0  0  0  0  0  0
   37.9900   24.5020   33.9430 N   0  0  0  0  0  0  0  0  0  0  0  0
   37.7100   24.4990   32.6080 C   0  0  0  0  0  0  0  0  0  0  0  0
   37.6060   23.3240   31.9830 N   0  0  0  0  0  0  0  0  0  0  0  0
   37.6590   21.2710   32.0040 H   0  0  0  0  0  0  0  0  0  0  0  0
   38.1780   21.1670   34.4670 H   0  0  0  0  0  0  0  0  0  0  0  0
   35.0470   24.8750   31.3770 Cl  0  0  0  0  0  0  0  0  0  0  0  0
   36.3370   26.0340   31.3040 C   0  0  0  0  0  0  0  0  0  0  0  0
   37.5340   25.7610   31.9090 C   0  0  0  0  0  0  0  0  0  0  0  0
   38.5930   26.6510   31.8790 C   0  0  0  0  0  0  0  0  0  0  0  0
   38.4530   27.8600   31.2190 C   0  0  0  0  0  0  0  0  0  0  0  0
   37.2500   28.1680   30.5940 C   0  0  0  0  0  0  0  0  0  0  0  0
   36.9380   29.6610   29.7260 Cl  0  0  0  0  0  0  0  0  0  0  0  0
   36.2370   27.2430   30.6600 C   0  0  0  0  0  0  0  0  0  0  0  0
   39.5280   26.4050   32.3680 H   0  0  0  0  0  0  0  0  0  0  0  0
   39.2380   28.5930   31.1620 H   0  0  0  0  0  0  0  0  0  0  0  0
   35.2790   27.4560   30.1780 H   0  0  0  0  0  0  0  0  0  0  0  0
   38.4630   23.3570   36.0670 C   0  0  0  0  0  0  0  0  0  0  0  0
   39.6180   22.7460   36.5110 C   0  0  0  0  0  0  0  0  0  0  0  0
   40.3240   22.2620   35.8490 H   0  0  0  0  0  0  0  0  0  0  0  0
   39.9040   22.7440   37.8790 C   0  0  0  0  0  0  0  0  0  0  0  0
   40.7700   22.3000   38.3300 H   0  0  0  0  0  0  0  0  0  0  0  0
   38.9550   23.3800   38.6490 C   0  0  0  0  0  3  0  0  0  0  0  0
   37.7940   23.9990   38.2410 C   0  0  0  0  0  3  0  0  0  0  0  0
   37.5900   23.9550   36.8930 N   0  0  0  0  0  0  0  0  0  0  0  0
  1  2  1  0  0  0  0
  2  8  1  0  0  0  0
  2  3  2  0  0  0  0
  3 20  1  0  0  0  0
  4  3  1  0  0  0  0
  5  4  2  0  0  0  0
  6  5  1  0  0  0  0
  6  1  2  0  0  0  0
  7  1  1  0  0  0  0
 10  9  1  0  0  0  0
 10 11  1  0  0  0  0
 11  5  1  0  0  0  0
 12 11  2  0  0  0  0
 12 17  1  0  0  0  0
 13 12  1  0  0  0  0
 14 16  1  0  0  0  0
 14 13  2  0  0  0  0
 15 14  1  0  0  0  0
 16 10  2  0  0  0  0
 18 13  1  0  0  0  0
 19 16  1  0  0  0  0
 20 21  2  0  0  0  0
 20 27  1  0  0  0  0
 21 23  1  0  0  0  0
 22 21  1  0  0  0  0
 23 24  1  0  0  0  0
 23 25  2  0  0  0  0
 26 25  1  0  0  0  0
 27 26  2  0  0  0  0
M  END
>  <minimizedAffinity>
-5.37673092

$$$$

 OpenBabel03272502433D

 27 29  0  0  0  0  0  0  0  0999 V2000
   36.3690   30.2590   31.0690 C   0  0  0  0  0  0  0  0  0  0  0  0
   35.8740   30.8640   32.2350 C   0  0  0  0  0  0  0  0  0  0  0  0
   35.4850   30.0020   33.2720 C   0  0  0  0  0  0  0  0  0  0  0  0
   35.6000   28.6670   33.1120 N   0  0  0  0  0  0  0  0  0  0  0  0
   36.0860   28.1160   31.9630 C   0  0  0  0  0  0  0  0  0  0  0  0
   36.4570   28.9330   30.9740 N   0  0  0  0  0  0  0  0  0  0  0  0
   36.6990   30.8210   30.2030 H   0  0  0  0  0  0  0  0  0  0  0  0
   35.8160   31.9380   32.2800 H   0  0  0  0  0  0  0  0  0  0  0  0
   38.4600   26.9270   33.2660 Cl  0  0  0  0  0  0  0  0  0  0  0  0
   37.2480   26.0220   32.4150 C   0  0  0  0  0  0  0  0  0  0  0  0
   36.1860   26.6710   31.8460 C   0  0  0  0  0  0  0  0  0  0  0  0
   35.1940   25.9960   31.1570 C   0  0  0  0  0  0  0  0  0  0  0  0
   35.2650   24.6190   31.0300 C   0  0  0  0  0  0  0  0  0  0  0  0
   36.3320   23.9290   31.5960 C   0  0  0  0  0  0  0  0  0  0  0  0
   36.5440   22.1890   31.5110 Cl  0  0  0  0  0  0  0  0  0  0  0  0
   37.2840   24.6560   32.2680 C   0  0  0  0  0  0  0  0  0  0  0  0
   34.3660   26.5390   30.7180 H   0  0  0  0  0  0  0  0  0  0  0  0
   34.5260   24.0380   30.5080 H   0  0  0  0  0  0  0  0  0  0  0  0
   38.1340   24.1430   32.7230 H   0  0  0  0  0  0  0  0  0  0  0  0
   34.9660   30.5970   34.4980 C   0  0  0  0  0  0  0  0  0  0  0  0
   35.8200   31.3090   35.3150 C   0  0  0  0  0  0  0  0  0  0  0  0
   36.8700   31.4540   35.0930 H   0  0  0  0  0  0  0  0  0  0  0  0
   35.3210   31.8790   36.4890 C   0  0  0  0  0  0  0  0  0  0  0  0
   35.8950   32.4500   37.1930 H   0  0  0  0  0  0  0  0  0  0  0  0
   33.9790   31.6490   36.6950 C   0  0  0  0  0  3  0  0  0  0  0  0
   33.0990   30.9450   35.9040 C   0  0  0  0  0  3  0  0  0  0  0  0
   33.6660   30.4210   34.7790 N   0  0  0  0  0  0  0  0  0  0  0  0
  1  2  1  0  0  0  0
  2  8  1  0  0  0  0
  2  3  2  0  0  0  0
  3 20  1  0  0  0  0
  4  3  1  0  0  0  0
  5  4  2  0  0  0  0
  6  1  2  0  0  0  0
  6  5  1  0  0  0  0
  7  1  1  0  0  0  0
 10  9  1  0  0  0  0
 11  5  1  0  0  0  0
 11 10  2  0  0  0  0
 12 11  1  0  0  0  0
 13 12  2  0  0  0  0
 13 14  1  0  0  0  0
 14 16  2  0  0  0  0
 15 14  1  0  0  0  0
 16 10  1  0  0  0  0
 16 19  1  0  0  0  0
 17 12  1  0  0  0  0
 18 13  1  0  0  0  0
 20 27  2  0  0  0  0
 20 21  1  0  0  0  0
 21 23  2  0  0  0  0
 22 21  1  0  0  0  0
 23 25  1  0  0  0  0
 23 24  1  0  0  0  0
 26 25  2  0  0  0  0
 27 26  1  0  0  0  0
M  END
>  <minimizedAffinity>
-5.37176847

$$$$

 OpenBabel03272502433D

 27 29  0  0  0  0  0  0  0  0999 V2000
   38.1270   23.9430   37.7130 C   0  0  0  0  0  0  0  0  0  0  0  0
   39.2220   23.0690   37.6380 C   0  0  0  0  0  0  0  0  0  0  0  0
   39.8710   22.9820   36.3960 C   0  0  0  0  0  0  0  0  0  0  0  0
   39.4280   23.7200   35.3570 N   0  0  0  0  0  0  0  0  0  0  0  0
   38.3590   24.5580   35.4700 C   0  0  0  0  0  0  0  0  0  0  0  0
   37.7400   24.6450   36.6490 N   0  0  0  0  0  0  0  0  0  0  0  0
   37.5480   24.0930   38.6180 H   0  0  0  0  0  0  0  0  0  0  0  0
   39.5100   22.5160   38.5160 H   0  0  0  0  0  0  0  0  0  0  0  0
   38.7290   27.4820   35.7180 Cl  0  0  0  0  0  0  0  0  0  0  0  0
   38.0540   26.6910   34.3290 C   0  0  0  0  0  0  0  0  0  0  0  0
   37.9260   25.3290   34.3160 C   0  0  0  0  0  0  0  0  0  0  0  0
   37.3940   24.6510   33.2330 C   0  0  0  0  0  0  0  0  0  0  0  0
   36.9740   25.3600   32.1200 C   0  0  0  0  0  0  0  0  0  0  0  0
   37.0900   26.7450   32.1020 C   0  0  0  0  0  0  0  0  0  0  0  0
   36.5980   27.7640   30.7610 Cl  0  0  0  0  0  0  0  0  0  0  0  0
   37.6260   27.3590   33.2070 C   0  0  0  0  0  0  0  0  0  0  0  0
   37.3060   23.5710   33.2530 H   0  0  0  0  0  0  0  0  0  0  0  0
   36.5530   24.8910   31.2490 H   0  0  0  0  0  0  0  0  0  0  0  0
   37.7300   28.4470   33.2240 H   0  0  0  0  0  0  0  0  0  0  0  0
   41.0130   22.0830   36.2820 C   0  0  0  0  0  0  0  0  0  0  0  0
   41.4950   21.4600   37.4150 C   0  0  0  0  0  0  0  0  0  0  0  0
   41.0660   21.6030   38.3980 H   0  0  0  0  0  0  0  0  0  0  0  0
   42.5900   20.5980   37.3040 C   0  0  0  0  0  0  0  0  0  0  0  0
   43.0420   20.0650   38.1170 H   0  0  0  0  0  0  0  0  0  0  0  0
   43.0740   20.4730   36.0200 C   0  0  0  0  0  3  0  0  0  0  0  0
   42.6190   21.0770   34.8700 C   0  0  0  0  0  3  0  0  0  0  0  0
   41.5500   21.9020   35.0660 N   0  0  0  0  0  0  0  0  0  0  0  0
  1  7  1  0  0  0  0
  2  1  1  0  0  0  0
  2  8  1  0  0  0  0
  3  2  2  0  0  0  0
  4  5  2  0  0  0  0
  4  3  1  0  0  0  0
  5  6  1  0  0  0  0
  6  1  2  0  0  0  0
 10  9  1  0  0  0  0
 11 10  1  0  0  0  0
 11  5  1  0  0  0  0
 12 17  1  0  0  0  0
 12 11  2  0  0  0  0
 13 12  1  0  0  0  0
 14 13  2  0  0  0  0
 14 16  1  0  0  0  0
 15 14  1  0  0  0  0
 16 19  1  0  0  0  0
 16 10  2  0  0  0  0
 18 13  1  0  0  0  0
 20  3  1  0  0  0  0
 20 21  1  0  0  0  0
 21 22  1  0  0  0  0
 23 21  2  0  0  0  0
 23 24  1  0  0  0  0
 25 23  1  0  0  0  0
 26 27  1  0  0  0  0
 26 25  2  0  0  0  0
 27 20  2  0  0  0  0
M  END
>  <minimizedAffinity>
-5.34870529

$$$$

 OpenBabel03272502433D

 27 29  0  0  0  0  0  0  0  0999 V2000
   36.5010   29.6230   30.6710 C   0  0  0  0  0  0  0  0  0  0  0  0
   36.6210   28.2250   30.6510 C   0  0  0  0  0  0  0  0  0  0  0  0
   36.1790   27.5410   31.7940 C   0  0  0  0  0  0  0  0  0  0  0  0
   35.6730   28.2340   32.8350 N   0  0  0  0  0  0  0  0  0  0  0  0
   35.5730   29.5940   32.8170 C   0  0  0  0  0  0  0  0  0  0  0  0
   35.9900   30.2490   31.7310 N   0  0  0  0  0  0  0  0  0  0  0  0
   36.8070   30.2580   29.8470 H   0  0  0  0  0  0  0  0  0  0  0  0
   37.0370   27.7500   29.7790 H   0  0  0  0  0  0  0  0  0  0  0  0
   32.6210   29.7880   32.8490 Cl  0  0  0  0  0  0  0  0  0  0  0  0
   33.6620   30.4330   34.0780 C   0  0  0  0  0  0  0  0  0  0  0  0
   35.0190   30.2880   33.9680 C   0  0  0  0  0  0  0  0  0  0  0  0
   35.8910   30.7840   34.9210 C   0  0  0  0  0  0  0  0  0  0  0  0
   35.3910   31.4500   36.0270 C   0  0  0  0  0  0  0  0  0  0  0  0
   34.0170   31.6140   36.1690 C   0  0  0  0  0  0  0  0  0  0  0  0
   33.2510   32.4340   37.5180 Cl  0  0  0  0  0  0  0  0  0  0  0  0
   33.2040   31.0980   35.1890 C   0  0  0  0  0  0  0  0  0  0  0  0
   36.9610   30.6530   34.8040 H   0  0  0  0  0  0  0  0  0  0  0  0
   36.0160   31.8570   36.8010 H   0  0  0  0  0  0  0  0  0  0  0  0
   32.1200   31.2110   35.2720 H   0  0  0  0  0  0  0  0  0  0  0  0
   36.2890   26.0880   31.8070 C   0  0  0  0  0  0  0  0  0  0  0  0
   35.3920   25.3370   31.0750 C   0  0  0  0  0  0  0  0  0  0  0  0
   34.5990   25.7750   30.4820 H   0  0  0  0  0  0  0  0  0  0  0  0
   35.4990   23.9450   31.0880 C   0  0  0  0  0  0  0  0  0  0  0  0
   34.8570   23.2690   30.5570 H   0  0  0  0  0  0  0  0  0  0  0  0
   36.5330   23.4710   31.8650 C   0  0  0  0  0  3  0  0  0  0  0  0
   37.4450   24.1870   32.6070 C   0  0  0  0  0  3  0  0  0  0  0  0
   37.2700   25.5390   32.5400 N   0  0  0  0  0  0  0  0  0  0  0  0
  1  6  1  0  0  0  0
  2  1  2  0  0  0  0
  2  3  1  0  0  0  0
  3 20  1  0  0  0  0
  3  4  2  0  0  0  0
  5  4  1  0  0  0  0
  5 11  1  0  0  0  0
  6  5  2  0  0  0  0
  7  1  1  0  0  0  0
  8  2  1  0  0  0  0
  9 10  1  0  0  0  0
 10 16  1  0  0  0  0
 11 10  2  0  0  0  0
 11 12  1  0  0  0  0
 12 13  2  0  0  0  0
 13 14  1  0  0  0  0
 13 18  1  0  0  0  0
 14 15  1  0  0  0  0
 16 19  1  0  0  0  0
 16 14  2  0  0  0  0
 17 12  1  0  0  0  0
 20 27  1  0  0  0  0
 21 23  1  0  0  0  0
 21 20  2  0  0  0  0
 22 21  1  0  0  0  0
 23 25  2  0  0  0  0
 24 23  1  0  0  0  0
 25 26  1  0  0  0  0
 27 26  2  0  0  0  0
M  END
>  <minimizedAffinity>
-5.30276394

$$$$

 OpenBabel03272502433D

 27 29  0  0  0  0  0  0  0  0999 V2000
   39.0900   27.1340   35.1280 C   0  0  0  0  0  0  0  0  0  0  0  0
   38.1260   26.9280   34.1290 C   0  0  0  0  0  0  0  0  0  0  0  0
   37.9340   25.6040   33.7050 C   0  0  0  0  0  0  0  0  0  0  0  0
   38.6630   24.6120   34.2580 N   0  0  0  0  0  0  0  0  0  0  0  0
   39.5920   24.8520   35.2270 C   0  0  0  0  0  0  0  0  0  0  0  0
   39.7760   26.1100   35.6340 N   0  0  0  0  0  0  0  0  0  0  0  0
   39.3250   28.1110   35.5350 H   0  0  0  0  0  0  0  0  0  0  0  0
   37.5880   27.7770   33.7420 H   0  0  0  0  0  0  0  0  0  0  0  0
   38.1230   23.2240   37.2130 Cl  0  0  0  0  0  0  0  0  0  0  0  0
   39.7590   22.9280   36.7150 C   0  0  0  0  0  0  0  0  0  0  0  0
   40.3470   23.7440   35.7870 C   0  0  0  0  0  0  0  0  0  0  0  0
   41.6490   23.5510   35.3570 C   0  0  0  0  0  0  0  0  0  0  0  0
   42.3920   22.5030   35.8740 C   0  0  0  0  0  0  0  0  0  0  0  0
   41.8240   21.6560   36.8190 C   0  0  0  0  0  0  0  0  0  0  0  0
   42.6510   20.2930   37.5540 Cl  0  0  0  0  0  0  0  0  0  0  0  0
   40.5280   21.9000   37.2040 C   0  0  0  0  0  0  0  0  0  0  0  0
   42.0860   24.2150   34.6210 H   0  0  0  0  0  0  0  0  0  0  0  0
   43.4060   22.3010   35.5800 H   0  0  0  0  0  0  0  0  0  0  0  0
   40.0540   21.2520   37.9450 H   0  0  0  0  0  0  0  0  0  0  0  0
   36.9400   25.3540   32.6680 C   0  0  0  0  0  0  0  0  0  0  0  0
   36.6790   24.0540   32.2850 C   0  0  0  0  0  0  0  0  0  0  0  0
   37.1780   23.1970   32.7180 H   0  0  0  0  0  0  0  0  0  0  0  0
   35.7260   23.8170   31.2910 C   0  0  0  0  0  0  0  0  0  0  0  0
   35.4460   22.8500   30.9200 H   0  0  0  0  0  0  0  0  0  0  0  0
   35.1390   24.9600   30.7950 C   0  0  0  0  0  3  0  0  0  0  0  0
   35.3740   26.2680   31.1520 C   0  0  0  0  0  3  0  0  0  0  0  0
   36.3180   26.4130   32.1270 N   0  0  0  0  0  0  0  0  0  0  0  0
  1  7  1  0  0  0  0
  1  6  1  0  0  0  0
  2  1  2  0  0  0  0
  3  2  1  0  0  0  0
  3  4  2  0  0  0  0
  4  5  1  0  0  0  0
  5  6  2  0  0  0  0
  5 11  1  0  0  0  0
  8  2  1  0  0  0  0
 10 16  1  0  0  0  0
 10  9  1  0  0  0  0
 11 10  2  0  0  0  0
 12 11  1  0  0  0  0
 12 13  2  0  0  0  0
 13 14  1  0  0  0  0
 14 16  2  0  0  0  0
 14 15  1  0  0  0  0
 16 19  1  0  0  0  0
 17 12  1  0  0  0  0
 18 13  1  0  0  0  0
 20  3  1  0  0  0  0
 21 20  1  0  0  0  0
 21 22  1  0  0  0  0
 23 21  2  0  0  0  0
 24 23  1  0  0  0  0
 25 26  2  0  0  0  0
 25 23  1  0  0  0  0
 26 27  1  0  0  0  0
 27 20  2  0  0  0  0
M  END
>  <minimizedAffinity>
-5.28506756

$$$$

 OpenBabel03272502433D

 27 29  0  0  0  0  0  0  0  0999 V2000
   37.4980   25.4080   32.9390 C   0  0  0  0  0  0  0  0  0  0  0  0
   37.8790   25.2410   34.2790 C   0  0  0  0  0  0  0  0  0  0  0  0
   38.0530   23.9200   34.7220 C   0  0  0  0  0  0  0  0  0  0  0  0
   37.8520   22.8960   33.8670 N   0  0  0  0  0  0  0  0  0  0  0  0
   37.4820   23.0990   32.5700 C   0  0  0  0  0  0  0  0  0  0  0  0
   37.3170   24.3530   32.1450 N   0  0  0  0  0  0  0  0  0  0  0  0
   37.3340   26.3790   32.4840 H   0  0  0  0  0  0  0  0  0  0  0  0
   38.0180   26.1140   34.8940 H   0  0  0  0  0  0  0  0  0  0  0  0
   39.8270   22.3680   30.9220 Cl  0  0  0  0  0  0  0  0  0  0  0  0
   38.3040   21.5370   30.8890 C   0  0  0  0  0  0  0  0  0  0  0  0
   37.2800   21.9570   31.6940 C   0  0  0  0  0  0  0  0  0  0  0  0
   36.0470   21.3280   31.7050 C   0  0  0  0  0  0  0  0  0  0  0  0
   35.8280   20.2380   30.8800 C   0  0  0  0  0  0  0  0  0  0  0  0
   36.8470   19.7860   30.0500 C   0  0  0  0  0  0  0  0  0  0  0  0
   36.7040   18.4190   28.9580 Cl  0  0  0  0  0  0  0  0  0  0  0  0
   38.0480   20.4520   30.0860 C   0  0  0  0  0  0  0  0  0  0  0  0
   35.2570   21.6860   32.3540 H   0  0  0  0  0  0  0  0  0  0  0  0
   34.8930   19.7070   30.8440 H   0  0  0  0  0  0  0  0  0  0  0  0
   38.8680   20.1210   29.4440 H   0  0  0  0  0  0  0  0  0  0  0  0
   38.4480   23.7100   36.1090 C   0  0  0  0  0  0  0  0  0  0  0  0
   37.6900   24.2690   37.1180 C   0  0  0  0  0  0  0  0  0  0  0  0
   36.8040   24.8640   36.9330 H   0  0  0  0  0  0  0  0  0  0  0  0
   38.0700   24.0660   38.4470 C   0  0  0  0  0  0  0  0  0  0  0  0
   37.5550   24.4540   39.3040 H   0  0  0  0  0  0  0  0  0  0  0  0
   39.2050   23.3000   38.5930 C   0  0  0  0  0  3  0  0  0  0  0  0
   39.9840   22.7270   37.6130 C   0  0  0  0  0  3  0  0  0  0  0  0
   39.5450   22.9740   36.3450 N   0  0  0  0  0  0  0  0  0  0  0  0
  1  2  1  0  0  0  0
  2  3  2  0  0  0  0
  2  8  1  0  0  0  0
  3 20  1  0  0  0  0
  4  3  1  0  0  0  0
  5  4  2  0  0  0  0
  6  5  1  0  0  0  0
  6  1  2  0  0  0  0
  7  1  1  0  0  0  0
 10  9  1  0  0  0  0
 10 11  1  0  0  0  0
 11 12  2  0  0  0  0
 11  5  1  0  0  0  0
 12 17  1  0  0  0  0
 13 12  1  0  0  0  0
 14 16  1  0  0  0  0
 14 13  2  0  0  0  0
 15 14  1  0  0  0  0
 16 10  2  0  0  0  0
 18 13  1  0  0  0  0
 19 16  1  0  0  0  0
 20 27  2  0  0  0  0
 20 21  1  0  0  0  0
 21 23  2  0  0  0  0
 22 21  1  0  0  0  0
 23 25  1  0  0  0  0
 23 24  1  0  0  0  0
 26 25  2  0  0  0  0
 27 26  1  0  0  0  0
M  END
>  <minimizedAffinity>
-5.18999624

$$$$

 OpenBabel03272502433D

 27 29  0  0  0  0  0  0  0  0999 V2000
   38.9160   24.6660   30.3220 C   0  0  0  0  0  0  0  0  0  0  0  0
   38.3140   23.4010   30.4110 C   0  0  0  0  0  0  0  0  0  0  0  0
   37.1830   23.3020   31.2360 C   0  0  0  0  0  0  0  0  0  0  0  0
   36.7340   24.3940   31.8900 N   0  0  0  0  0  0  0  0  0  0  0  0
   37.3470   25.6060   31.7780 C   0  0  0  0  0  0  0  0  0  0  0  0
   38.4230   25.7050   30.9940 N   0  0  0  0  0  0  0  0  0  0  0  0
   39.7940   24.8640   29.7170 H   0  0  0  0  0  0  0  0  0  0  0  0
   38.7370   22.5820   29.8550 H   0  0  0  0  0  0  0  0  0  0  0  0
   38.2280   25.7970   34.5960 Cl  0  0  0  0  0  0  0  0  0  0  0  0
   37.1650   26.9280   33.8180 C   0  0  0  0  0  0  0  0  0  0  0  0
   36.8190   26.7480   32.5070 C   0  0  0  0  0  0  0  0  0  0  0  0
   35.9760   27.6210   31.8420 C   0  0  0  0  0  0  0  0  0  0  0  0
   35.4580   28.7160   32.5130 C   0  0  0  0  0  0  0  0  0  0  0  0
   35.7900   28.9280   33.8460 C   0  0  0  0  0  0  0  0  0  0  0  0
   35.2060   30.2720   34.8120 Cl  0  0  0  0  0  0  0  0  0  0  0  0
   36.6320   28.0260   34.4490 C   0  0  0  0  0  0  0  0  0  0  0  0
   35.7210   27.4500   30.8030 H   0  0  0  0  0  0  0  0  0  0  0  0
   34.7990   29.4290   32.0510 H   0  0  0  0  0  0  0  0  0  0  0  0
   36.9110   28.1650   35.4960 H   0  0  0  0  0  0  0  0  0  0  0  0
   36.5320   22.0030   31.3520 C   0  0  0  0  0  0  0  0  0  0  0  0
   35.3850   21.8890   32.1120 C   0  0  0  0  0  0  0  0  0  0  0  0
   34.9360   22.7240   32.6350 H   0  0  0  0  0  0  0  0  0  0  0  0
   34.7620   20.6440   32.2220 C   0  0  0  0  0  0  0  0  0  0  0  0
   33.8710   20.4450   32.7840 H   0  0  0  0  0  0  0  0  0  0  0  0
   35.3980   19.6380   31.5270 C   0  0  0  0  0  3  0  0  0  0  0  0
   36.5390   19.7140   30.7610 C   0  0  0  0  0  3  0  0  0  0  0  0
   37.0840   20.9640   30.7070 N   0  0  0  0  0  0  0  0  0  0  0  0
  1  2  2  0  0  0  0
  1  6  1  0  0  0  0
  2  3  1  0  0  0  0
  3 20  1  0  0  0  0
  3  4  2  0  0  0  0
  5  4  1  0  0  0  0
  5 11  1  0  0  0  0
  6  5  2  0  0  0  0
  7  1  1  0  0  0  0
  8  2  1  0  0  0  0
 10 16  1  0  0  0  0
 10  9  1  0  0  0  0
 11 10  2  0  0  0  0
 12 11  1  0  0  0  0
 12 13  2  0  0  0  0
 13 14  1  0  0  0  0
 14 16  2  0  0  0  0
 14 15  1  0  0  0  0
 16 19  1  0  0  0  0
 17 12  1  0  0  0  0
 18 13  1  0  0  0  0
 20 21  1  0  0  0  0
 21 23  2  0  0  0  0
 21 22  1  0  0  0  0
 23 24  1  0  0  0  0
 25 23  1  0  0  0  0
 26 25  2  0  0  0  0
 27 26  1  0  0  0  0
 27 20  2  0  0  0  0
M  END
>  <minimizedAffinity>
-5.18190479

$$$$

 OpenBabel03272502433D

 27 29  0  0  0  0  0  0  0  0999 V2000
   39.7830   26.4430   32.9720 C   0  0  0  0  0  0  0  0  0  0  0  0
   39.8860   25.5670   34.0640 C   0  0  0  0  0  0  0  0  0  0  0  0
   38.8140   25.5640   34.9700 C   0  0  0  0  0  0  0  0  0  0  0  0
   37.7590   26.3780   34.7600 N   0  0  0  0  0  0  0  0  0  0  0  0
   37.6950   27.2160   33.6860 C   0  0  0  0  0  0  0  0  0  0  0  0
   38.7120   27.2220   32.8220 N   0  0  0  0  0  0  0  0  0  0  0  0
   40.5480   26.5330   32.2090 H   0  0  0  0  0  0  0  0  0  0  0  0
   40.7640   24.9510   34.1570 H   0  0  0  0  0  0  0  0  0  0  0  0
   36.2090   26.7920   31.1640 Cl  0  0  0  0  0  0  0  0  0  0  0  0
   35.7760   27.9550   32.3770 C   0  0  0  0  0  0  0  0  0  0  0  0
   36.5330   28.0720   33.5110 C   0  0  0  0  0  0  0  0  0  0  0  0
   36.2300   28.9830   34.5070 C   0  0  0  0  0  0  0  0  0  0  0  0
   35.1290   29.8110   34.3660 C   0  0  0  0  0  0  0  0  0  0  0  0
   34.3390   29.7180   33.2250 C   0  0  0  0  0  0  0  0  0  0  0  0
   32.9190   30.7030   32.9200 Cl  0  0  0  0  0  0  0  0  0  0  0  0
   34.6920   28.7930   32.2730 C   0  0  0  0  0  0  0  0  0  0  0  0
   36.8500   29.0510   35.3930 H   0  0  0  0  0  0  0  0  0  0  0  0
   34.8420   30.5380   35.1040 H   0  0  0  0  0  0  0  0  0  0  0  0
   34.0910   28.6960   31.3650 H   0  0  0  0  0  0  0  0  0  0  0  0
   38.8880   24.6670   36.1160 C   0  0  0  0  0  0  0  0  0  0  0  0
   37.9880   24.8200   37.1510 C   0  0  0  0  0  0  0  0  0  0  0  0
   37.2180   25.5820   37.1590 H   0  0  0  0  0  0  0  0  0  0  0  0
   38.0600   23.9590   38.2490 C   0  0  0  0  0  0  0  0  0  0  0  0
   37.4130   23.9900   39.1040 H   0  0  0  0  0  0  0  0  0  0  0  0
   39.0650   23.0210   38.1580 C   0  0  0  0  0  3  0  0  0  0  0  0
   39.9780   22.8390   37.1440 C   0  0  0  0  0  3  0  0  0  0  0  0
   39.8400   23.7210   36.1120 N   0  0  0  0  0  0  0  0  0  0  0  0
  1  2  1  0  0  0  0
  2  8  1  0  0  0  0
  2  3  2  0  0  0  0
  3 20  1  0  0  0  0
  4  3  1  0  0  0  0
  5  4  2  0  0  0  0
  6  1  2  0  0  0  0
  6  5  1  0  0  0  0
  7  1  1  0  0  0  0
  9 10  1  0  0  0  0
 10 11  1  0  0  0  0
 11  5  1  0  0  0  0
 11 12  2  0  0  0  0
 12 17  1  0  0  0  0
 13 12  1  0  0  0  0
 13 18  1  0  0  0  0
 14 13  2  0  0  0  0
 15 14  1  0  0  0  0
 16 10  2  0  0  0  0
 16 14  1  0  0  0  0
 19 16  1  0  0  0  0
 20 21  1  0  0  0  0
 21 22  1  0  0  0  0
 21 23  2  0  0  0  0
 23 24  1  0  0  0  0
 25 23  1  0  0  0  0
 26 25  2  0  0  0  0
 27 20  2  0  0  0  0
 27 26  1  0  0  0  0
M  END
>  <minimizedAffinity>
-5.15579557

$$$$
