
 OpenBabel03262523303D

 30 33  0  0  0  0  0  0  0  0999 V2000
   36.5190   29.0360   31.7860 C   0  0  0  0  0  0  0  0  0  0  0  0
   37.0390   27.8020   32.1970 C   0  0  0  0  0  0  0  0  0  0  0  0
   36.9020   27.4400   33.5230 C   0  0  0  0  0  0  0  0  0  0  0  0
   36.2730   28.3020   34.3410 N   0  0  0  0  0  0  0  0  0  0  0  0
   35.7700   29.4960   33.9450 C   0  0  0  0  0  0  0  0  0  0  0  0
   35.8940   29.8590   32.6720 N   0  0  0  0  0  0  0  0  0  0  0  0
   36.6750   29.2340   30.7300 H   0  0  0  0  0  0  0  0  0  0  0  0
   37.5430   27.1140   31.5400 H   0  0  0  0  0  0  0  0  0  0  0  0
   37.6760   25.1560   33.2570 C   0  0  0  0  0  0  0  0  0  0  0  0
   37.3860   26.1950   34.1050 C   0  0  0  0  0  0  0  0  0  0  0  0
   37.5520   26.0470   35.4730 C   0  0  0  0  0  0  0  0  0  0  0  0
   38.0160   24.8260   35.9340 C   0  0  0  0  0  0  0  0  0  0  0  0
   38.2570   24.4450   37.2270 N   0  0  0  0  0  0  0  0  0  0  0  0
   38.6970   23.1710   37.1850 C   0  0  0  0  0  0  0  0  0  0  0  0
   38.7440   22.7320   35.9140 N   0  0  0  0  0  0  0  0  0  0  0  0
   38.3210   23.7520   35.1170 C   0  0  0  0  0  0  0  0  0  0  0  0
   38.1440   23.9360   33.7580 C   0  0  0  0  0  0  0  0  0  0  0  0
   37.5570   25.2420   32.2020 H   0  0  0  0  0  0  0  0  0  0  0  0
   37.3330   26.8380   36.1480 H   0  0  0  0  0  0  0  0  0  0  0  0
   38.1480   24.9730   38.1150 H   0  0  0  0  0  0  0  0  0  0  0  0
   39.0060   22.4680   37.9450 H   0  0  0  0  0  0  0  0  0  0  0  0
   38.3690   23.1280   33.1000 H   0  0  0  0  0  0  0  0  0  0  0  0
   35.1040   30.3600   34.9120 C   0  0  0  0  0  0  0  0  0  0  0  0
   35.8500   31.2740   35.6460 C   0  0  0  0  0  0  0  0  0  0  0  0
   36.9190   31.2970   35.4540 H   0  0  0  0  0  0  0  0  0  0  0  0
   35.2710   32.1170   36.5740 C   0  0  0  0  0  0  0  0  0  0  0  0
   35.8880   32.8150   37.1240 H   0  0  0  0  0  0  0  0  0  0  0  0
   33.9060   32.0060   36.7390 C   0  0  0  0  0  3  0  0  0  0  0  0
   33.1420   31.0930   36.0110 C   0  0  0  0  0  3  0  0  0  0  0  0
   33.7780   30.2960   35.1160 N   0  0  0  0  0  0  0  0  0  0  0  0
  1  2  2  0  0  0  0
  1  6  1  0  0  0  0
  2  3  1  0  0  0  0
  3 10  1  0  0  0  0
  3  4  2  0  0  0  0
  5  4  1  0  0  0  0
  5 23  1  0  0  0  0
  6  5  2  0  0  0  0
  7  1  1  0  0  0  0
  8  2  1  0  0  0  0
  9 17  2  0  0  0  0
  9 10  1  0  0  0  0
 10 11  2  0  0  0  0
 11 12  1  0  0  0  0
 11 19  1  0  0  0  0
 12 13  1  0  0  0  0
 13 20  1  0  0  0  0
 14 13  1  0  0  0  0
 14 21  1  0  0  0  0
 15 14  2  0  0  0  0
 16 15  1  0  0  0  0
 16 12  2  0  0  0  0
 17 16  1  0  0  0  0
 18  9  1  0  0  0  0
 22 17  1  0  0  0  0
 23 30  2  0  0  0  0
 23 24  1  0  0  0  0
 24 26  2  0  0  0  0
 25 24  1  0  0  0  0
 26 28  1  0  0  0  0
 26 27  1  0  0  0  0
 29 28  2  0  0  0  0
 30 29  1  0  0  0  0
M  END
>  <minimizedAffinity>
-5.85111094

$$$$

 OpenBabel03262523303D

 30 33  0  0  0  0  0  0  0  0999 V2000
   38.8400   24.3740   32.3460 C   0  0  0  0  0  0  0  0  0  0  0  0
   38.1480   25.5650   32.0850 C   0  0  0  0  0  0  0  0  0  0  0  0
   37.6370   26.2740   33.1550 C   0  0  0  0  0  0  0  0  0  0  0  0
   37.8380   25.7730   34.3870 N   0  0  0  0  0  0  0  0  0  0  0  0
   38.5060   24.6220   34.6390 C   0  0  0  0  0  0  0  0  0  0  0  0
   39.0040   23.9270   33.6210 N   0  0  0  0  0  0  0  0  0  0  0  0
   39.2030   23.8870   31.4450 H   0  0  0  0  0  0  0  0  0  0  0  0
   37.9890   25.9630   31.0990 H   0  0  0  0  0  0  0  0  0  0  0  0
   36.4650   28.1150   34.2150 C   0  0  0  0  0  0  0  0  0  0  0  0
   36.8970   27.5260   33.0530 C   0  0  0  0  0  0  0  0  0  0  0  0
   36.6290   28.1160   31.8290 C   0  0  0  0  0  0  0  0  0  0  0  0
   35.9190   29.3050   31.8320 C   0  0  0  0  0  0  0  0  0  0  0  0
   35.5380   30.0670   30.7600 N   0  0  0  0  0  0  0  0  0  0  0  0
   34.8690   31.1300   31.2520 C   0  0  0  0  0  0  0  0  0  0  0  0
   34.8130   31.0680   32.5940 N   0  0  0  0  0  0  0  0  0  0  0  0
   35.4630   29.9350   32.9770 C   0  0  0  0  0  0  0  0  0  0  0  0
   35.7500   29.3170   34.1800 C   0  0  0  0  0  0  0  0  0  0  0  0
   36.6570   27.6830   35.1700 H   0  0  0  0  0  0  0  0  0  0  0  0
   36.9550   27.6760   30.9180 H   0  0  0  0  0  0  0  0  0  0  0  0
   35.6940   29.9220   29.7440 H   0  0  0  0  0  0  0  0  0  0  0  0
   34.3910   31.9820   30.7920 H   0  0  0  0  0  0  0  0  0  0  0  0
   35.4130   29.7760   35.0820 H   0  0  0  0  0  0  0  0  0  0  0  0
   38.6700   24.1640   36.0130 C   0  0  0  0  0  0  0  0  0  0  0  0
   37.8320   24.6560   37.0070 C   0  0  0  0  0  0  0  0  0  0  0  0
   37.0790   25.3760   36.6980 H   0  0  0  0  0  0  0  0  0  0  0  0
   37.9420   24.2560   38.3240 C   0  0  0  0  0  0  0  0  0  0  0  0
   37.2690   24.6640   39.0670 H   0  0  0  0  0  0  0  0  0  0  0  0
   38.9310   23.3380   38.6080 C   0  0  0  0  0  3  0  0  0  0  0  0
   39.7820   22.8340   37.6230 C   0  0  0  0  0  3  0  0  0  0  0  0
   39.6150   23.2720   36.3490 N   0  0  0  0  0  0  0  0  0  0  0  0
  1  6  1  0  0  0  0
  2  1  2  0  0  0  0
  2  3  1  0  0  0  0
  3  4  2  0  0  0  0
  4  5  1  0  0  0  0
  5 23  1  0  0  0  0
  6  5  2  0  0  0  0
  7  1  1  0  0  0  0
  8  2  1  0  0  0  0
  9 18  1  0  0  0  0
 10  3  1  0  0  0  0
 10  9  2  0  0  0  0
 11 12  2  0  0  0  0
 11 10  1  0  0  0  0
 12 16  1  0  0  0  0
 13 14  1  0  0  0  0
 13 12  1  0  0  0  0
 14 15  2  0  0  0  0
 15 16  1  0  0  0  0
 16 17  2  0  0  0  0
 17  9  1  0  0  0  0
 17 22  1  0  0  0  0
 19 11  1  0  0  0  0
 20 13  1  0  0  0  0
 21 14  1  0  0  0  0
 23 30  2  0  0  0  0
 23 24  1  0  0  0  0
 24 26  2  0  0  0  0
 25 24  1  0  0  0  0
 26 28  1  0  0  0  0
 26 27  1  0  0  0  0
 29 28  2  0  0  0  0
 30 29  1  0  0  0  0
M  END
>  <minimizedAffinity>
-5.78798628

$$$$

 OpenBabel03262523303D

 30 33  0  0  0  0  0  0  0  0999 V2000
   38.1080   24.3270   32.3690 C   0  0  0  0  0  0  0  0  0  0  0  0
   37.5180   25.5820   32.1700 C   0  0  0  0  0  0  0  0  0  0  0  0
   37.2450   26.3610   33.2770 C   0  0  0  0  0  0  0  0  0  0  0  0
   37.5650   25.8620   34.4840 N   0  0  0  0  0  0  0  0  0  0  0  0
   38.1350   24.6480   34.6770 C   0  0  0  0  0  0  0  0  0  0  0  0
   38.4050   23.8860   33.6220 N   0  0  0  0  0  0  0  0  0  0  0  0
   38.2840   23.7870   31.4430 H   0  0  0  0  0  0  0  0  0  0  0  0
   37.2620   25.9790   31.2040 H   0  0  0  0  0  0  0  0  0  0  0  0
   36.3350   28.2230   32.0140 C   0  0  0  0  0  0  0  0  0  0  0  0
   36.6360   27.6850   33.2400 C   0  0  0  0  0  0  0  0  0  0  0  0
   36.3640   28.3940   34.3990 C   0  0  0  0  0  0  0  0  0  0  0  0
   35.7840   29.6450   34.2640 C   0  0  0  0  0  0  0  0  0  0  0  0
   35.4270   30.5240   35.2510 N   0  0  0  0  0  0  0  0  0  0  0  0
   34.9040   31.6080   34.6410 C   0  0  0  0  0  0  0  0  0  0  0  0
   34.9170   31.4460   33.3060 N   0  0  0  0  0  0  0  0  0  0  0  0
   35.4650   30.2260   33.0490 C   0  0  0  0  0  0  0  0  0  0  0  0
   35.7500   29.4890   31.9150 C   0  0  0  0  0  0  0  0  0  0  0  0
   36.5340   27.6990   31.1070 H   0  0  0  0  0  0  0  0  0  0  0  0
   36.5880   27.9970   35.3590 H   0  0  0  0  0  0  0  0  0  0  0  0
   35.5090   30.4450   36.2830 H   0  0  0  0  0  0  0  0  0  0  0  0
   34.4940   32.5380   35.0060 H   0  0  0  0  0  0  0  0  0  0  0  0
   35.5160   29.9080   30.9630 H   0  0  0  0  0  0  0  0  0  0  0  0
   38.4450   24.1980   36.0290 C   0  0  0  0  0  0  0  0  0  0  0  0
   37.7200   24.7000   37.1030 C   0  0  0  0  0  0  0  0  0  0  0  0
   36.9400   25.4210   36.8720 H   0  0  0  0  0  0  0  0  0  0  0  0
   37.9690   24.3090   38.4040 C   0  0  0  0  0  0  0  0  0  0  0  0
   37.3820   24.7230   39.2120 H   0  0  0  0  0  0  0  0  0  0  0  0
   38.9810   23.3890   38.5860 C   0  0  0  0  0  3  0  0  0  0  0  0
   39.7190   22.8750   37.5190 C   0  0  0  0  0  3  0  0  0  0  0  0
   39.4180   23.3060   36.2680 N   0  0  0  0  0  0  0  0  0  0  0  0
  1  6  1  0  0  0  0
  2  1  2  0  0  0  0
  2  3  1  0  0  0  0
  3  4  2  0  0  0  0
  4  5  1  0  0  0  0
  5 23  1  0  0  0  0
  6  5  2  0  0  0  0
  7  1  1  0  0  0  0
  8  2  1  0  0  0  0
  9 10  1  0  0  0  0
 10  3  1  0  0  0  0
 10 11  2  0  0  0  0
 11 19  1  0  0  0  0
 12 11  1  0  0  0  0
 12 13  1  0  0  0  0
 13 20  1  0  0  0  0
 14 21  1  0  0  0  0
 14 13  1  0  0  0  0
 15 14  2  0  0  0  0
 16 15  1  0  0  0  0
 16 12  2  0  0  0  0
 17  9  2  0  0  0  0
 17 16  1  0  0  0  0
 18  9  1  0  0  0  0
 22 17  1  0  0  0  0
 23 30  2  0  0  0  0
 23 24  1  0  0  0  0
 24 26  2  0  0  0  0
 25 24  1  0  0  0  0
 26 28  1  0  0  0  0
 26 27  1  0  0  0  0
 29 28  2  0  0  0  0
 30 29  1  0  0  0  0
M  END
>  <minimizedAffinity>
-5.66042805

$$$$

 OpenBabel03262523303D

 30 33  0  0  0  0  0  0  0  0999 V2000
   37.0070   28.3730   31.7880 C   0  0  0  0  0  0  0  0  0  0  0  0
   36.1980   29.3070   32.4480 C   0  0  0  0  0  0  0  0  0  0  0  0
   35.8890   29.0850   33.7760 C   0  0  0  0  0  0  0  0  0  0  0  0
   36.3890   27.9790   34.3550 N   0  0  0  0  0  0  0  0  0  0  0  0
   37.1710   27.0750   33.7170 C   0  0  0  0  0  0  0  0  0  0  0  0
   37.4780   27.2740   32.4380 N   0  0  0  0  0  0  0  0  0  0  0  0
   37.1940   28.6310   30.7500 H   0  0  0  0  0  0  0  0  0  0  0  0
   35.7990   30.1910   31.9830 H   0  0  0  0  0  0  0  0  0  0  0  0
   33.7000   29.8670   34.4730 C   0  0  0  0  0  0  0  0  0  0  0  0
   35.0640   29.9580   34.6010 C   0  0  0  0  0  0  0  0  0  0  0  0
   35.6230   30.8590   35.4930 C   0  0  0  0  0  0  0  0  0  0  0  0
   34.7580   31.6480   36.2350 C   0  0  0  0  0  0  0  0  0  0  0  0
   35.0690   32.6000   37.1680 N   0  0  0  0  0  0  0  0  0  0  0  0
   33.9020   33.1010   37.6220 C   0  0  0  0  0  0  0  0  0  0  0  0
   32.8650   32.5020   37.0100 N   0  0  0  0  0  0  0  0  0  0  0  0
   33.3790   31.5900   36.1380 C   0  0  0  0  0  0  0  0  0  0  0  0
   32.8570   30.6780   35.2390 C   0  0  0  0  0  0  0  0  0  0  0  0
   33.2440   29.1830   33.7960 H   0  0  0  0  0  0  0  0  0  0  0  0
   36.6750   30.9470   35.6080 H   0  0  0  0  0  0  0  0  0  0  0  0
   35.9930   32.9270   37.5120 H   0  0  0  0  0  0  0  0  0  0  0  0
   33.6540   33.8590   38.3500 H   0  0  0  0  0  0  0  0  0  0  0  0
   31.7980   30.6090   35.1410 H   0  0  0  0  0  0  0  0  0  0  0  0
   37.6640   25.9060   34.4350 C   0  0  0  0  0  0  0  0  0  0  0  0
   37.8090   25.9580   35.8160 C   0  0  0  0  0  0  0  0  0  0  0  0
   37.5410   26.8940   36.3000 H   0  0  0  0  0  0  0  0  0  0  0  0
   38.2710   24.8810   36.5470 C   0  0  0  0  0  0  0  0  0  0  0  0
   38.3690   24.9630   37.6210 H   0  0  0  0  0  0  0  0  0  0  0  0
   38.5830   23.7430   35.8330 C   0  0  0  0  0  3  0  0  0  0  0  0
   38.4430   23.6730   34.4470 C   0  0  0  0  0  3  0  0  0  0  0  0
   37.9840   24.7710   33.7950 N   0  0  0  0  0  0  0  0  0  0  0  0
  1  6  2  0  0  0  0
  1  2  1  0  0  0  0
  2  3  2  0  0  0  0
  3  4  1  0  0  0  0
  3 10  1  0  0  0  0
  5  4  2  0  0  0  0
  5 23  1  0  0  0  0
  6  5  1  0  0  0  0
  7  1  1  0  0  0  0
  8  2  1  0  0  0  0
  9 10  2  0  0  0  0
  9 17  1  0  0  0  0
 10 11  1  0  0  0  0
 11 19  1  0  0  0  0
 11 12  2  0  0  0  0
 12 13  1  0  0  0  0
 13 20  1  0  0  0  0
 13 14  1  0  0  0  0
 14 21  1  0  0  0  0
 15 14  2  0  0  0  0
 16 12  1  0  0  0  0
 16 15  1  0  0  0  0
 17 16  2  0  0  0  0
 18  9  1  0  0  0  0
 22 17  1  0  0  0  0
 23 24  1  0  0  0  0
 24 25  1  0  0  0  0
 24 26  2  0  0  0  0
 26 27  1  0  0  0  0
 28 26  1  0  0  0  0
 29 28  2  0  0  0  0
 30 23  2  0  0  0  0
 30 29  1  0  0  0  0
M  END
>  <minimizedAffinity>
-5.62628698

$$$$

 OpenBabel03262523303D

 30 33  0  0  0  0  0  0  0  0999 V2000
   37.0860   28.2800   31.9610 C   0  0  0  0  0  0  0  0  0  0  0  0
   37.7020   27.1950   32.5990 C   0  0  0  0  0  0  0  0  0  0  0  0
   37.5300   27.0520   33.9620 C   0  0  0  0  0  0  0  0  0  0  0  0
   36.7770   27.9700   34.5950 N   0  0  0  0  0  0  0  0  0  0  0  0
   36.1820   29.0200   33.9780 C   0  0  0  0  0  0  0  0  0  0  0  0
   36.3370   29.1720   32.6660 N   0  0  0  0  0  0  0  0  0  0  0  0
   37.2780   28.3100   30.8920 H   0  0  0  0  0  0  0  0  0  0  0  0
   38.3030   26.4630   32.0920 H   0  0  0  0  0  0  0  0  0  0  0  0
   39.1160   25.2360   34.2290 C   0  0  0  0  0  0  0  0  0  0  0  0
   38.1000   25.9820   34.7710 C   0  0  0  0  0  0  0  0  0  0  0  0
   37.6410   25.7120   36.0500 C   0  0  0  0  0  0  0  0  0  0  0  0
   38.2450   24.6750   36.7420 C   0  0  0  0  0  0  0  0  0  0  0  0
   37.9670   24.2250   38.0050 N   0  0  0  0  0  0  0  0  0  0  0  0
   38.8080   23.2000   38.2500 C   0  0  0  0  0  0  0  0  0  0  0  0
   39.6080   22.9850   37.1900 N   0  0  0  0  0  0  0  0  0  0  0  0
   39.2710   23.8970   36.2360 C   0  0  0  0  0  0  0  0  0  0  0  0
   39.7030   24.1960   34.9570 C   0  0  0  0  0  0  0  0  0  0  0  0
   39.4890   25.4220   33.2480 H   0  0  0  0  0  0  0  0  0  0  0  0
   36.8550   26.2770   36.4890 H   0  0  0  0  0  0  0  0  0  0  0  0
   37.2650   24.5530   38.6960 H   0  0  0  0  0  0  0  0  0  0  0  0
   38.9550   22.5480   39.0990 H   0  0  0  0  0  0  0  0  0  0  0  0
   40.4930   23.6150   34.5380 H   0  0  0  0  0  0  0  0  0  0  0  0
   35.3840   29.9610   34.7540 C   0  0  0  0  0  0  0  0  0  0  0  0
   33.9980   29.9290   34.6590 C   0  0  0  0  0  0  0  0  0  0  0  0
   33.5710   29.1840   33.9930 H   0  0  0  0  0  0  0  0  0  0  0  0
   33.1940   30.7960   35.3720 C   0  0  0  0  0  0  0  0  0  0  0  0
   32.1180   30.7380   35.2700 H   0  0  0  0  0  0  0  0  0  0  0  0
   33.8380   31.7020   36.1890 C   0  0  0  0  0  3  0  0  0  0  0  0
   35.2290   31.7480   36.2960 C   0  0  0  0  0  3  0  0  0  0  0  0
   35.9550   30.8650   35.5660 N   0  0  0  0  0  0  0  0  0  0  0  0
  1  2  2  0  0  0  0
  1  6  1  0  0  0  0
  2  3  1  0  0  0  0
  3  4  2  0  0  0  0
  3 10  1  0  0  0  0
  5  4  1  0  0  0  0
  5 23  1  0  0  0  0
  6  5  2  0  0  0  0
  7  1  1  0  0  0  0
  8  2  1  0  0  0  0
  9 10  2  0  0  0  0
  9 17  1  0  0  0  0
 10 11  1  0  0  0  0
 11 19  1  0  0  0  0
 11 12  2  0  0  0  0
 12 13  1  0  0  0  0
 13 14  1  0  0  0  0
 13 20  1  0  0  0  0
 14 21  1  0  0  0  0
 15 14  2  0  0  0  0
 16 12  1  0  0  0  0
 16 15  1  0  0  0  0
 17 16  2  0  0  0  0
 18  9  1  0  0  0  0
 22 17  1  0  0  0  0
 23 30  1  0  0  0  0
 24 23  2  0  0  0  0
 24 26  1  0  0  0  0
 25 24  1  0  0  0  0
 26 28  2  0  0  0  0
 27 26  1  0  0  0  0
 28 29  1  0  0  0  0
 30 29  2  0  0  0  0
M  END
>  <minimizedAffinity>
-5.56455708

$$$$

 OpenBabel03262523303D

 30 33  0  0  0  0  0  0  0  0999 V2000
   36.5580   29.2760   30.4140 C   0  0  0  0  0  0  0  0  0  0  0  0
   35.9860   30.0140   31.4590 C   0  0  0  0  0  0  0  0  0  0  0  0
   35.5520   29.3350   32.5810 C   0  0  0  0  0  0  0  0  0  0  0  0
   35.7070   28.0000   32.6000 N   0  0  0  0  0  0  0  0  0  0  0  0
   36.2600   27.2850   31.5890 C   0  0  0  0  0  0  0  0  0  0  0  0
   36.6830   27.9230   30.5020 N   0  0  0  0  0  0  0  0  0  0  0  0
   36.8670   29.8940   29.5760 H   0  0  0  0  0  0  0  0  0  0  0  0
   35.8620   31.0820   31.4420 H   0  0  0  0  0  0  0  0  0  0  0  0
   33.6310   29.6450   34.0320 C   0  0  0  0  0  0  0  0  0  0  0  0
   34.9380   29.9540   33.7490 C   0  0  0  0  0  0  0  0  0  0  0  0
   35.6390   30.8330   34.5600 C   0  0  0  0  0  0  0  0  0  0  0  0
   34.9720   31.3720   35.6480 C   0  0  0  0  0  0  0  0  0  0  0  0
   35.4480   32.2520   36.5820 N   0  0  0  0  0  0  0  0  0  0  0  0
   34.4400   32.4900   37.4470 C   0  0  0  0  0  0  0  0  0  0  0  0
   33.3450   31.7930   37.0940 N   0  0  0  0  0  0  0  0  0  0  0  0
   33.6560   31.0880   35.9710 C   0  0  0  0  0  0  0  0  0  0  0  0
   32.9900   30.2070   35.1400 C   0  0  0  0  0  0  0  0  0  0  0  0
   33.0700   28.9720   33.4250 H   0  0  0  0  0  0  0  0  0  0  0  0
   36.6510   31.0870   34.3590 H   0  0  0  0  0  0  0  0  0  0  0  0
   36.3830   32.6930   36.6750 H   0  0  0  0  0  0  0  0  0  0  0  0
   34.3500   33.1070   38.3290 H   0  0  0  0  0  0  0  0  0  0  0  0
   31.9740   29.9670   35.3610 H   0  0  0  0  0  0  0  0  0  0  0  0
   36.3840   25.8380   31.7070 C   0  0  0  0  0  0  0  0  0  0  0  0
   35.4630   25.0150   31.0700 C   0  0  0  0  0  0  0  0  0  0  0  0
   34.6780   25.5080   30.5030 H   0  0  0  0  0  0  0  0  0  0  0  0
   35.5330   23.6380   31.1480 C   0  0  0  0  0  0  0  0  0  0  0  0
   34.7960   23.0330   30.6360 H   0  0  0  0  0  0  0  0  0  0  0  0
   36.5690   23.1150   31.8930 C   0  0  0  0  0  3  0  0  0  0  0  0
   37.5020   23.9270   32.5400 C   0  0  0  0  0  3  0  0  0  0  0  0
   37.3710   25.2720   32.4200 N   0  0  0  0  0  0  0  0  0  0  0  0
  1  6  2  0  0  0  0
  1  2  1  0  0  0  0
  2  3  2  0  0  0  0
  3  4  1  0  0  0  0
  3 10  1  0  0  0  0
  5 23  1  0  0  0  0
  5  4  2  0  0  0  0
  6  5  1  0  0  0  0
  7  1  1  0  0  0  0
  8  2  1  0  0  0  0
  9 17  1  0  0  0  0
 10  9  2  0  0  0  0
 10 11  1  0  0  0  0
 11 12  2  0  0  0  0
 12 16  1  0  0  0  0
 12 13  1  0  0  0  0
 13 20  1  0  0  0  0
 13 14  1  0  0  0  0
 14 21  1  0  0  0  0
 15 14  2  0  0  0  0
 16 15  1  0  0  0  0
 17 22  1  0  0  0  0
 17 16  2  0  0  0  0
 18  9  1  0  0  0  0
 19 11  1  0  0  0  0
 23 30  1  0  0  0  0
 24 26  1  0  0  0  0
 24 23  2  0  0  0  0
 25 24  1  0  0  0  0
 26 28  2  0  0  0  0
 27 26  1  0  0  0  0
 28 29  1  0  0  0  0
 30 29  2  0  0  0  0
M  END
>  <minimizedAffinity>
-5.54173136

$$$$

 OpenBabel03262523303D

 30 33  0  0  0  0  0  0  0  0999 V2000
   36.8740   28.2180   31.8390 C   0  0  0  0  0  0  0  0  0  0  0  0
   36.1700   29.2090   32.5360 C   0  0  0  0  0  0  0  0  0  0  0  0
   35.9700   29.0420   33.8920 C   0  0  0  0  0  0  0  0  0  0  0  0
   36.4680   27.9300   34.4630 N   0  0  0  0  0  0  0  0  0  0  0  0
   37.1480   26.9710   33.7890 C   0  0  0  0  0  0  0  0  0  0  0  0
   37.3490   27.1170   32.4830 N   0  0  0  0  0  0  0  0  0  0  0  0
   36.9810   28.4350   30.7810 H   0  0  0  0  0  0  0  0  0  0  0  0
   35.7730   30.0980   32.0780 H   0  0  0  0  0  0  0  0  0  0  0  0
   36.0060   30.8640   35.4940 C   0  0  0  0  0  0  0  0  0  0  0  0
   35.2620   29.9780   34.7560 C   0  0  0  0  0  0  0  0  0  0  0  0
   33.8790   29.9850   34.8430 C   0  0  0  0  0  0  0  0  0  0  0  0
   33.2950   30.9110   35.6920 C   0  0  0  0  0  0  0  0  0  0  0  0
   31.9630   31.1080   35.9430 N   0  0  0  0  0  0  0  0  0  0  0  0
   31.8770   32.1160   36.8350 C   0  0  0  0  0  0  0  0  0  0  0  0
   33.1040   32.5640   37.1570 N   0  0  0  0  0  0  0  0  0  0  0  0
   34.0040   31.8230   36.4540 C   0  0  0  0  0  0  0  0  0  0  0  0
   35.3820   31.7860   36.3400 C   0  0  0  0  0  0  0  0  0  0  0  0
   37.0700   30.8800   35.4460 H   0  0  0  0  0  0  0  0  0  0  0  0
   33.2840   29.3080   34.2810 H   0  0  0  0  0  0  0  0  0  0  0  0
   31.1290   30.6210   35.5630 H   0  0  0  0  0  0  0  0  0  0  0  0
   31.0460   32.6090   37.3180 H   0  0  0  0  0  0  0  0  0  0  0  0
   35.9590   32.4760   36.9150 H   0  0  0  0  0  0  0  0  0  0  0  0
   37.6480   25.8010   34.5010 C   0  0  0  0  0  0  0  0  0  0  0  0
   38.1420   24.7180   33.7830 C   0  0  0  0  0  0  0  0  0  0  0  0
   38.1280   24.8040   32.6990 H   0  0  0  0  0  0  0  0  0  0  0  0
   38.6280   23.5850   34.4050 C   0  0  0  0  0  0  0  0  0  0  0  0
   39.0030   22.7640   33.8090 H   0  0  0  0  0  0  0  0  0  0  0  0
   38.6000   23.5810   35.7840 C   0  0  0  0  0  3  0  0  0  0  0  0
   38.1070   24.6590   36.5210 C   0  0  0  0  0  3  0  0  0  0  0  0
   37.6460   25.7390   35.8420 N   0  0  0  0  0  0  0  0  0  0  0  0
  1  6  2  0  0  0  0
  1  2  1  0  0  0  0
  2  3  2  0  0  0  0
  3  4  1  0  0  0  0
  3 10  1  0  0  0  0
  5  4  2  0  0  0  0
  5 23  1  0  0  0  0
  6  5  1  0  0  0  0
  7  1  1  0  0  0  0
  8  2  1  0  0  0  0
  9 17  1  0  0  0  0
 10 11  1  0  0  0  0
 10  9  2  0  0  0  0
 11 12  2  0  0  0  0
 12 13  1  0  0  0  0
 12 16  1  0  0  0  0
 13 14  1  0  0  0  0
 14 15  2  0  0  0  0
 14 21  1  0  0  0  0
 16 15  1  0  0  0  0
 17 16  2  0  0  0  0
 17 22  1  0  0  0  0
 18  9  1  0  0  0  0
 19 11  1  0  0  0  0
 20 13  1  0  0  0  0
 23 30  1  0  0  0  0
 24 26  1  0  0  0  0
 24 23  2  0  0  0  0
 25 24  1  0  0  0  0
 26 28  2  0  0  0  0
 27 26  1  0  0  0  0
 28 29  1  0  0  0  0
 30 29  2  0  0  0  0
M  END
>  <minimizedAffinity>
-5.46345234

$$$$

 OpenBabel03262523303D

 30 33  0  0  0  0  0  0  0  0999 V2000
   35.6190   23.9940   31.2180 C   0  0  0  0  0  0  0  0  0  0  0  0
   36.5850   23.5240   32.1180 C   0  0  0  0  0  0  0  0  0  0  0  0
   37.3400   24.4480   32.8130 C   0  0  0  0  0  0  0  0  0  0  0  0
   37.0990   25.7510   32.5800 N   0  0  0  0  0  0  0  0  0  0  0  0
   36.1650   26.2060   31.7100 C   0  0  0  0  0  0  0  0  0  0  0  0
   35.4300   25.3300   31.0330 N   0  0  0  0  0  0  0  0  0  0  0  0
   35.0780   23.1960   30.7190 H   0  0  0  0  0  0  0  0  0  0  0  0
   36.7770   22.4820   32.3020 H   0  0  0  0  0  0  0  0  0  0  0  0
   39.6130   24.7030   33.6240 C   0  0  0  0  0  0  0  0  0  0  0  0
   38.3800   24.1220   33.7810 C   0  0  0  0  0  0  0  0  0  0  0  0
   38.1470   23.2530   34.8350 C   0  0  0  0  0  0  0  0  0  0  0  0
   39.1960   23.0040   35.7050 C   0  0  0  0  0  0  0  0  0  0  0  0
   39.2080   22.1920   36.8060 N   0  0  0  0  0  0  0  0  0  0  0  0
   40.4460   22.2660   37.3350 C   0  0  0  0  0  0  0  0  0  0  0  0
   41.2180   23.0950   36.6090 N   0  0  0  0  0  0  0  0  0  0  0  0
   40.4540   23.5660   35.5850 C   0  0  0  0  0  0  0  0  0  0  0  0
   40.6490   24.4290   34.5220 C   0  0  0  0  0  0  0  0  0  0  0  0
   39.8190   25.3750   32.8230 H   0  0  0  0  0  0  0  0  0  0  0  0
   37.2000   22.7920   34.9760 H   0  0  0  0  0  0  0  0  0  0  0  0
   38.4560   21.6040   37.2170 H   0  0  0  0  0  0  0  0  0  0  0  0
   40.9150   21.8060   38.1930 H   0  0  0  0  0  0  0  0  0  0  0  0
   41.6090   24.8790   34.4000 H   0  0  0  0  0  0  0  0  0  0  0  0
   35.9810   27.6410   31.5290 C   0  0  0  0  0  0  0  0  0  0  0  0
   36.7410   28.3190   30.5840 C   0  0  0  0  0  0  0  0  0  0  0  0
   37.4530   27.7260   30.0140 H   0  0  0  0  0  0  0  0  0  0  0  0
   36.6070   29.6760   30.3700 C   0  0  0  0  0  0  0  0  0  0  0  0
   37.2190   30.1660   29.6240 H   0  0  0  0  0  0  0  0  0  0  0  0
   35.6750   30.3320   31.1470 C   0  0  0  0  0  3  0  0  0  0  0  0
   34.9030   29.6670   32.1010 C   0  0  0  0  0  3  0  0  0  0  0  0
   35.0890   28.3320   32.2560 N   0  0  0  0  0  0  0  0  0  0  0  0
  1  2  1  0  0  0  0
  2  8  1  0  0  0  0
  2  3  2  0  0  0  0
  3 10  1  0  0  0  0
  4  3  1  0  0  0  0
  5  4  2  0  0  0  0
  6  1  2  0  0  0  0
  6  5  1  0  0  0  0
  7  1  1  0  0  0  0
  9 10  2  0  0  0  0
  9 17  1  0  0  0  0
 10 11  1  0  0  0  0
 11 19  1  0  0  0  0
 11 12  2  0  0  0  0
 12 13  1  0  0  0  0
 13 20  1  0  0  0  0
 13 14  1  0  0  0  0
 14 21  1  0  0  0  0
 15 14  2  0  0  0  0
 16 12  1  0  0  0  0
 16 15  1  0  0  0  0
 17 16  2  0  0  0  0
 18  9  1  0  0  0  0
 22 17  1  0  0  0  0
 23  5  1  0  0  0  0
 23 30  1  0  0  0  0
 24 23  2  0  0  0  0
 25 24  1  0  0  0  0
 26 24  1  0  0  0  0
 26 28  2  0  0  0  0
 27 26  1  0  0  0  0
 28 29  1  0  0  0  0
 29 30  2  0  0  0  0
M  END
>  <minimizedAffinity>
-5.41032171

$$$$

 OpenBabel03262523303D

 30 33  0  0  0  0  0  0  0  0999 V2000
   37.7750   24.2820   37.6340 C   0  0  0  0  0  0  0  0  0  0  0  0
   38.8580   23.3940   37.6300 C   0  0  0  0  0  0  0  0  0  0  0  0
   39.7130   23.4060   36.5440 C   0  0  0  0  0  0  0  0  0  0  0  0
   39.4480   24.2760   35.5530 N   0  0  0  0  0  0  0  0  0  0  0  0
   38.4000   25.1350   35.5560 C   0  0  0  0  0  0  0  0  0  0  0  0
   37.5680   25.1360   36.5940 N   0  0  0  0  0  0  0  0  0  0  0  0
   37.1600   24.2000   38.5250 H   0  0  0  0  0  0  0  0  0  0  0  0
   39.0680   22.6990   38.4230 H   0  0  0  0  0  0  0  0  0  0  0  0
   41.7290   22.7990   35.3390 C   0  0  0  0  0  0  0  0  0  0  0  0
   40.8810   22.5490   36.3890 C   0  0  0  0  0  0  0  0  0  0  0  0
   41.1430   21.5080   37.2650 C   0  0  0  0  0  0  0  0  0  0  0  0
   42.2780   20.7480   37.0370 C   0  0  0  0  0  0  0  0  0  0  0  0
   42.7410   19.6790   37.7570 N   0  0  0  0  0  0  0  0  0  0  0  0
   43.8760   19.2640   37.1580 C   0  0  0  0  0  0  0  0  0  0  0  0
   44.1470   20.0300   36.0850 N   0  0  0  0  0  0  0  0  0  0  0  0
   43.1600   20.9630   35.9920 C   0  0  0  0  0  0  0  0  0  0  0  0
   42.8670   22.0110   35.1390 C   0  0  0  0  0  0  0  0  0  0  0  0
   41.5520   23.5930   34.6500 H   0  0  0  0  0  0  0  0  0  0  0  0
   40.5000   21.2970   38.0840 H   0  0  0  0  0  0  0  0  0  0  0  0
   42.3530   19.2220   38.6050 H   0  0  0  0  0  0  0  0  0  0  0  0
   44.5760   18.4680   37.3660 H   0  0  0  0  0  0  0  0  0  0  0  0
   43.5260   22.2030   34.3230 H   0  0  0  0  0  0  0  0  0  0  0  0
   38.2000   26.0400   34.4310 C   0  0  0  0  0  0  0  0  0  0  0  0
   37.0870   26.8720   34.4070 C   0  0  0  0  0  0  0  0  0  0  0  0
   36.4060   26.8010   35.2520 H   0  0  0  0  0  0  0  0  0  0  0  0
   36.8480   27.7490   33.3680 C   0  0  0  0  0  0  0  0  0  0  0  0
   35.9700   28.3800   33.3880 H   0  0  0  0  0  0  0  0  0  0  0  0
   37.7760   27.7590   32.3470 C   0  0  0  0  0  3  0  0  0  0  0  0
   38.8980   26.9300   32.3540 C   0  0  0  0  0  3  0  0  0  0  0  0
   39.0680   26.0940   33.4090 N   0  0  0  0  0  0  0  0  0  0  0  0
  1  7  1  0  0  0  0
  2  1  1  0  0  0  0
  2  8  1  0  0  0  0
  3  2  2  0  0  0  0
  4  5  2  0  0  0  0
  4  3  1  0  0  0  0
  5  6  1  0  0  0  0
  6  1  2  0  0  0  0
  9 10  1  0  0  0  0
 10  3  1  0  0  0  0
 10 11  2  0  0  0  0
 11 19  1  0  0  0  0
 12 11  1  0  0  0  0
 12 13  1  0  0  0  0
 13 20  1  0  0  0  0
 14 21  1  0  0  0  0
 14 13  1  0  0  0  0
 15 14  2  0  0  0  0
 16 15  1  0  0  0  0
 16 12  2  0  0  0  0
 17  9  2  0  0  0  0
 17 16  1  0  0  0  0
 18  9  1  0  0  0  0
 22 17  1  0  0  0  0
 23  5  1  0  0  0  0
 24 23  1  0  0  0  0
 24 25  1  0  0  0  0
 26 27  1  0  0  0  0
 26 24  2  0  0  0  0
 28 29  2  0  0  0  0
 28 26  1  0  0  0  0
 29 30  1  0  0  0  0
 30 23  2  0  0  0  0
M  END
>  <minimizedAffinity>
-5.25379944

$$$$
