REMARK  Name = 
REMARK  2 active torsions:
REMARK  status: ('A' for Active; 'I' for Inactive)
REMARK    1  A    between atoms: C_5  and  C_7
REMARK    2  A    between atoms: C_12  and  C_20
REMARK                            x       y       z     vdW  Elec       q    Type
REMARK                         _______ _______ _______ _____ _____    ______ ____
ROOT
ATOM      1  C   UNL     1      36.095  30.137  48.605  0.00  0.00    +0.000 A 
ATOM      2  C   UNL     1      35.285  29.957  47.525  0.00  0.00    +0.000 A 
ATOM      3  C   UNL     1      34.298  28.989  47.502  0.00  0.00    +0.000 A 
ATOM      4  C   UNL     1      34.155  28.195  48.629  0.00  0.00    +0.000 A 
ATOM      5  C   UNL     1      34.961  28.352  49.741  0.00  0.00    +0.000 A 
ATOM      6  C   UNL     1      35.938  29.334  49.721  0.00  0.00    +0.000 A 
ATOM      7  H   UNL     1      35.386  30.579  46.622  0.00  0.00    +0.000 HD
ATOM      8  H   UNL     1      33.667  28.859  46.644  0.00  0.00    +0.000 HD
ATOM      9  H   UNL     1      33.387  27.432  48.628  0.00  0.00    +0.000 HD
ATOM     10  H   UNL     1      34.806  27.703  50.596  0.00  0.00    +0.000 HD
ENDROOT
BRANCH   1  15
ATOM     11  C   UNL     1      38.011  33.103  49.467  0.00  0.00    +0.000 A 
ATOM     12  C   UNL     1      38.972  33.208  48.465  0.00  0.00    +0.000 A 
ATOM     13  C   UNL     1      38.952  32.220  47.466  0.00  0.00    +0.000 A 
ATOM     14  N   UNL     1      38.018  31.234  47.521  0.00  0.00    +0.000 NA
ATOM     15  C   UNL     1      37.103  31.183  48.524  0.00  0.00    +0.000 A 
ATOM     16  N   UNL     1      37.096  32.126  49.509  0.00  0.00    +0.000 NA
ATOM     17  H   UNL     1      38.076  33.889  50.207  0.00  0.00    +0.000 HD
ATOM     18  H   UNL     1      39.728  33.945  48.358  0.00  0.00    +0.000 HD
ATOM     19  H   UNL     1      39.615  32.133  46.610  0.00  0.00    +0.000 HD
ENDBRANCH   1  15
BRANCH   6  20
ATOM     20  C   UNL     1      36.810  29.539  50.873  0.00  0.00    +0.000 A 
ATOM     21  C   UNL     1      36.661  30.617  51.715  0.00  0.00    +0.000 A 
ATOM     22  H   UNL     1      35.852  31.296  51.460  0.00  0.00    +0.000 HD
ATOM     23  C   UNL     1      37.448  30.867  52.813  0.00  0.00    +0.000 A 
ATOM     24  H   UNL     1      37.259  31.745  53.424  0.00  0.00    +0.000 HD
ATOM     25  C   UNL     1      38.470  29.970  53.098  0.00  0.00    +0.000 A 
ATOM     26  C   UNL     1      38.631  28.884  52.263  0.00  0.00    +0.000 A 
ATOM     27  N   UNL     1      37.826  28.692  51.201  0.00  0.00    +0.000 NA
ENDBRANCH   6  20
TORSDOF 2
