
 OpenBabel03272510333D

 27 29  0  0  0  0  0  0  0  0999 V2000
   36.2620   30.4800   45.9990 C   0  0  0  0  0  0  0  0  0  0  0  0
   35.5960   30.3500   44.8190 C   0  0  0  0  0  0  0  0  0  0  0  0
   34.2800   29.9300   44.7620 C   0  0  0  0  0  0  0  0  0  0  0  0
   33.6490   29.6410   45.9620 C   0  0  0  0  0  0  0  0  0  0  0  0
   34.2980   29.7630   47.1770 C   0  0  0  0  0  0  0  0  0  0  0  0
   35.6170   30.1870   47.1870 C   0  0  0  0  0  0  0  0  0  0  0  0
   36.0830   30.5750   43.8570 H   0  0  0  0  0  0  0  0  0  0  0  0
   33.7670   29.8330   43.8250 H   0  0  0  0  0  0  0  0  0  0  0  0
   32.6180   29.3110   45.9370 H   0  0  0  0  0  0  0  0  0  0  0  0
   33.7560   29.5230   48.0860 H   0  0  0  0  0  0  0  0  0  0  0  0
   39.1480   32.6790   46.2230 C   0  0  0  0  0  0  0  0  0  0  0  0
   40.2330   31.8770   45.8770 C   0  0  0  0  0  0  0  0  0  0  0  0
   39.9500   30.5380   45.5590 C   0  0  0  0  0  0  0  0  0  0  0  0
   38.6650   30.0980   45.6010 N   0  0  0  0  0  0  0  0  0  0  0  0
   37.6460   30.9280   45.9460 C   0  0  0  0  0  0  0  0  0  0  0  0
   37.8860   32.2330   46.2610 N   0  0  0  0  0  0  0  0  0  0  0  0
   39.4260   33.6970   46.4580 H   0  0  0  0  0  0  0  0  0  0  0  0
   41.2570   32.1490   45.8230 H   0  0  0  0  0  0  0  0  0  0  0  0
   40.6560   29.7650   45.2670 H   0  0  0  0  0  0  0  0  0  0  0  0
   36.3410   30.3330   48.4460 C   0  0  0  0  0  0  0  0  0  0  0  0
   36.4260   31.5420   49.0990 C   0  0  0  0  0  0  0  0  0  0  0  0
   35.9170   32.3690   48.6120 H   0  0  0  0  0  0  0  0  0  0  0  0
   37.0920   31.7460   50.2830 C   0  0  0  0  0  0  0  0  0  0  0  0
   37.1080   32.7360   50.7300 H   0  0  0  0  0  0  0  0  0  0  0  0
   37.7280   30.6580   50.8670 C   0  0  0  0  0  3  0  0  0  0  0  0
   37.6500   29.4390   50.2240 C   0  0  0  0  0  3  0  0  0  0  0  0
   36.9810   29.3020   49.0640 N   0  0  0  0  0  0  0  0  0  0  0  0
  1  6  1  0  0  0  0
  2  1  2  0  0  0  0
  3  2  1  0  0  0  0
  3  4  2  0  0  0  0
  4  5  1  0  0  0  0
  5  6  2  0  0  0  0
  5 10  1  0  0  0  0
  6 20  1  0  0  0  0
  7  2  1  0  0  0  0
  8  3  1  0  0  0  0
  9  4  1  0  0  0  0
 11 16  1  0  0  0  0
 11 17  1  0  0  0  0
 12 11  2  0  0  0  0
 13 14  2  0  0  0  0
 13 12  1  0  0  0  0
 14 15  1  0  0  0  0
 15  1  1  0  0  0  0
 15 16  2  0  0  0  0
 18 12  1  0  0  0  0
 19 13  1  0  0  0  0
 20 27  2  0  0  0  0
 20 21  1  0  0  0  0
 21 23  2  0  0  0  0
 22 21  1  0  0  0  0
 23 24  1  0  0  0  0
 23 25  1  0  0  0  0
 26 25  2  0  0  0  0
 27 26  1  0  0  0  0
M  END
>  <minimizedAffinity>
-4.93504572

>  <minimizedRMSD>
2.91079783

$$$$
