
     RDKit          3D

 29 31  0  0  0  0  0  0  0  0999 V2000
   38.0105   33.1030   49.4669 C   0  0  0  0  0  0  0  0  0  0  0  0
   38.9724   33.2075   48.4653 C   0  0  0  0  0  0  0  0  0  0  0  0
   38.9518   32.2199   47.4658 C   0  0  0  0  0  0  0  0  0  0  0  0
   38.0181   31.2336   47.5209 N   0  0  0  0  0  0  0  0  0  0  0  0
   37.1029   31.1825   48.5238 C   0  0  0  0  0  0  0  0  0  0  0  0
   37.0965   32.1258   49.5087 N   0  0  0  0  0  0  0  0  0  0  0  0
   36.0952   30.1367   48.6047 C   0  0  0  0  0  0  0  0  0  0  0  0
   35.2854   29.9569   47.5248 C   0  0  0  0  0  0  0  0  0  0  0  0
   34.2982   28.9892   47.5018 C   0  0  0  0  0  0  0  0  0  0  0  0
   34.1553   28.1949   48.6290 C   0  0  0  0  0  0  0  0  0  0  0  0
   34.9611   28.3522   49.7408 C   0  0  0  0  0  0  0  0  0  0  0  0
   35.9377   29.3339   49.7215 C   0  0  0  0  0  0  0  0  0  0  0  0
   38.0757   33.8892   50.2068 H   0  0  0  0  0  0  0  0  0  0  0  0
   39.7277   33.9449   48.3583 H   0  0  0  0  0  0  0  0  0  0  0  0
   39.6151   32.1329   46.6103 H   0  0  0  0  0  0  0  0  0  0  0  0
   35.3864   30.5790   46.6221 H   0  0  0  0  0  0  0  0  0  0  0  0
   33.6674   28.8588   46.6444 H   0  0  0  0  0  0  0  0  0  0  0  0
   33.3873   27.4319   48.6279 H   0  0  0  0  0  0  0  0  0  0  0  0
   34.8062   27.7035   50.5962 H   0  0  0  0  0  0  0  0  0  0  0  0
   36.8096   29.5386   50.8729 C   0  0  0  0  0  0  0  0  0  0  0  0
   36.5108   29.0196   52.1125 C   0  0  0  0  0  0  0  0  0  0  0  0
   35.5870   28.4511   52.1668 H   0  0  0  0  0  0  0  0  0  0  0  0
   37.2878   29.1778   53.2346 C   0  0  0  0  0  0  0  0  0  0  0  0
   36.9750   28.7323   54.1745 H   0  0  0  0  0  0  0  0  0  0  0  0
   38.4603   29.9131   53.1156 C   0  0  0  0  0  0  0  0  0  0  0  0
   38.7724   30.4391   51.8790 C   0  0  0  0  0  0  0  0  0  0  0  0
   37.9704   30.2501   50.8147 N   0  0  0  0  0  0  0  0  0  0  0  0
   39.0625   30.0244   54.0243 H   0  0  0  0  0  0  0  0  0  0  0  0
   39.6896   31.0105   51.7995 H   0  0  0  0  0  0  0  0  0  0  0  0
  1  6  2  0
  2  1  1  0
  3  4  1  0
  3  2  2  0
  4  5  2  0
  5  7  1  0
  5  6  1  0
  7 12  1  0
  8  7  2  0
  9  8  1  0
  9 10  2  0
 10 11  1  0
 12 11  2  0
  1 13  1  0
  2 14  1  0
  3 15  1  0
  8 16  1  0
  9 17  1  0
 10 18  1  0
 11 19  1  0
 20 21  2  0
 21 22  1  0
 21 23  1  0
 23 24  1  0
 23 25  2  0
 25 26  1  0
 26 27  2  0
 27 20  1  0
 25 28  1  0
 26 29  1  0
 12 20  1  0
M  ISO  8  13  14  14  14  15  14  16  14  17  14  18  14  19  14  22  15
M  ISO  1  24  16
M  END
>  <DihAtoms>  (1) 
6,11,19,20

>  <DihDeg>  (1) 
-61.13307122230915

$$$$
