
 OpenBabel03272510273D

 44 48  0  0  1  0  0  0  0  0999 V2000
   36.1430   30.2010   46.8250 C   0  0  0  0  0  0  0  0  0  0  0  0
   37.0430   30.7650   47.7270 C   0  0  0  0  0  0  0  0  0  0  0  0
   38.0280   31.6370   47.2920 C   0  0  0  0  0  0  0  0  0  0  0  0
   38.0620   31.9080   45.9290 C   0  0  0  0  0  0  0  0  0  0  0  0
   38.9430   32.7330   45.2810 N   0  0  0  0  0  0  0  0  0  0  0  0
   38.6000   32.6870   43.9840 C   0  0  0  0  0  0  0  0  0  0  0  0
   37.5700   31.8880   43.8090 N   0  0  0  0  0  0  0  0  0  0  0  0
   37.2010   31.3790   45.0090 C   0  0  0  0  0  0  0  0  0  0  0  0
   36.2160   30.5020   45.4720 C   0  0  0  0  0  0  0  0  0  0  0  0
   35.3610   29.5130   47.1440 H   0  0  0  0  0  0  0  0  0  0  0  0
   38.7200   32.0700   47.9930 H   0  0  0  0  0  0  0  0  0  0  0  0
   39.7320   33.2930   45.7090 H   0  0  0  0  0  0  0  0  0  0  0  0
   35.5460   30.0940   44.7290 H   0  0  0  0  0  0  0  0  0  0  0  0
   37.5740   30.2410   51.4000 C   0  0  0  0  0  0  0  0  0  0  0  0
   37.8290   30.6610   50.1060 C   0  0  0  0  0  0  0  0  0  0  0  0
   36.8920   30.3840   49.1170 C   0  0  0  0  0  0  0  0  0  0  0  0
   35.7720   29.7090   49.4930 N   0  0  0  0  0  0  0  0  0  0  0  0
   35.5330   29.3050   50.7500 C   0  0  0  0  0  0  0  0  0  0  0  0
   36.4310   29.5740   51.6880 N   0  0  0  0  0  0  0  0  0  0  0  0
   38.3320   30.4770   52.1490 H   0  0  0  0  0  0  0  0  0  0  0  0
   38.7310   31.2020   49.8180 H   0  0  0  0  0  0  0  0  0  0  0  0
   34.6020   28.7750   50.9200 H   0  0  0  0  0  0  0  0  0  0  0  0
   39.3040   33.4270   43.0170 O   0  0  0  0  0  0  0  0  0  0  0  0
   39.1120   31.5950   41.6750 N   0  0  0  0  0  0  0  0  0  0  0  0
   39.0650   33.0430   41.6620 C   0  0  1  0  0  0  0  0  0  0  0  0
   37.7530   33.4830   41.1990 C   0  0  0  0  0  0  0  0  0  0  0  0
   37.5910   33.0810   39.8630 O   0  0  0  0  0  0  0  0  0  0  0  0
   37.7610   31.7520   39.6300 C   0  0  0  0  0  0  0  0  0  0  0  0
   38.9680   31.1600   40.2880 C   0  0  1  0  0  0  0  0  0  0  0  0
   40.0730   31.3200   41.9700 H   0  0  0  0  0  0  0  0  0  0  0  0
   39.8420   33.5200   41.0420 H   0  0  0  0  0  0  0  0  0  0  0  0
   36.8310   33.2470   41.6550 H   0  0  0  0  0  0  0  0  0  0  0  0
   37.7910   34.6130   41.1220 H   0  0  0  0  0  0  0  0  0  0  0  0
   37.8490   31.5980   38.5490 H   0  0  0  0  0  0  0  0  0  0  0  0
   36.8430   31.1900   39.9390 H   0  0  0  0  0  0  0  0  0  0  0  0
   38.7210   30.0580   40.3950 H   0  0  0  0  0  0  0  0  0  0  0  0
   40.2060   31.2130   39.5120 C   0  0  0  0  0  0  0  0  0  0  0  0
   41.3570   30.5410   39.9470 C   0  0  0  0  0  0  0  0  0  0  0  0
   41.2450   29.9890   40.8940 H   0  0  0  0  0  0  0  0  0  0  0  0
   42.5840   30.5040   39.3210 C   0  0  0  0  0  0  0  0  0  0  0  0
   43.3760   29.9350   39.7900 H   0  0  0  0  0  0  0  0  0  0  0  0
   42.6960   31.1990   38.1450 C   0  0  0  0  0  3  0  0  0  0  0  0
   41.5650   31.8610   37.7140 C   0  0  0  0  0  3  0  0  0  0  0  0
   40.3840   31.8730   38.3550 N   0  0  0  0  0  0  0  0  0  0  0  0
  1 10  1  0  0  0  0
  1  2  1  0  0  0  0
  2 16  1  0  0  0  0
  3  2  2  0  0  0  0
  3 11  1  0  0  0  0
  4  3  1  0  0  0  0
  5 12  1  0  0  0  0
  5  4  1  0  0  0  0
  6  5  1  0  0  0  0
  7  6  2  0  0  0  0
  7  8  1  0  0  0  0
  8  9  1  0  0  0  0
  8  4  2  0  0  0  0
  9  1  2  0  0  0  0
 13  9  1  0  0  0  0
 14 19  1  0  0  0  0
 14 20  1  0  0  0  0
 15 14  2  0  0  0  0
 16 17  2  0  0  0  0
 16 15  1  0  0  0  0
 17 18  1  0  0  0  0
 18 22  1  0  0  0  0
 18 19  2  0  0  0  0
 21 15  1  0  0  0  0
 23  6  1  0  0  0  0
 24 30  1  0  0  0  0
 25 31  1  6  0  0  0
 25 24  1  0  0  0  0
 25 23  1  0  0  0  0
 26 32  1  0  0  0  0
 26 25  1  0  0  0  0
 27 26  1  0  0  0  0
 28 27  1  0  0  0  0
 28 35  1  0  0  0  0
 28 29  1  0  0  0  0
 29 36  1  1  0  0  0
 29 24  1  0  0  0  0
 33 26  1  0  0  0  0
 34 28  1  0  0  0  0
 37 38  1  0  0  0  0
 37 29  1  0  0  0  0
 38 39  1  0  0  0  0
 40 41  1  0  0  0  0
 40 38  2  0  0  0  0
 42 40  1  0  0  0  0
 43 42  2  0  0  0  0
 43 44  1  0  0  0  0
 44 37  2  0  0  0  0
M  END
>  <minimizedAffinity>
-5.91299725

>  <minimizedRMSD>
0.72456497

$$$$
