
 OpenBabel03272510333D

 27 29  0  0  0  0  0  0  0  0999 V2000
   35.9440   30.1860   46.6530 C   0  0  0  0  0  0  0  0  0  0  0  0
   35.3440   30.1990   45.4300 C   0  0  0  0  0  0  0  0  0  0  0  0
   34.1320   29.5740   45.2010 C   0  0  0  0  0  0  0  0  0  0  0  0
   33.5360   28.9240   46.2710 C   0  0  0  0  0  0  0  0  0  0  0  0
   34.1190   28.8920   47.5240 C   0  0  0  0  0  0  0  0  0  0  0  0
   35.3350   29.5310   47.7080 C   0  0  0  0  0  0  0  0  0  0  0  0
   35.8050   30.7100   44.5700 H   0  0  0  0  0  0  0  0  0  0  0  0
   33.6720   29.5930   44.2330 H   0  0  0  0  0  0  0  0  0  0  0  0
   32.5870   28.4300   46.1090 H   0  0  0  0  0  0  0  0  0  0  0  0
   33.6100   28.3690   48.3250 H   0  0  0  0  0  0  0  0  0  0  0  0
   38.4280   32.5810   47.7960 C   0  0  0  0  0  0  0  0  0  0  0  0
   39.5900   32.2420   47.1080 C   0  0  0  0  0  0  0  0  0  0  0  0
   39.5060   31.1510   46.2270 C   0  0  0  0  0  0  0  0  0  0  0  0
   38.3240   30.4950   46.0870 N   0  0  0  0  0  0  0  0  0  0  0  0
   37.2200   30.8730   46.7840 C   0  0  0  0  0  0  0  0  0  0  0  0
   37.2690   31.9260   47.6480 N   0  0  0  0  0  0  0  0  0  0  0  0
   38.5530   33.4260   48.4590 H   0  0  0  0  0  0  0  0  0  0  0  0
   40.5430   32.7050   47.1670 H   0  0  0  0  0  0  0  0  0  0  0  0
   40.2980   30.7390   45.6080 H   0  0  0  0  0  0  0  0  0  0  0  0
   35.9860   29.5270   49.0140 C   0  0  0  0  0  0  0  0  0  0  0  0
   35.2680   29.6030   50.1850 C   0  0  0  0  0  0  0  0  0  0  0  0
   34.1900   29.6640   50.0650 H   0  0  0  0  0  0  0  0  0  0  0  0
   35.8200   29.6050   51.4430 C   0  0  0  0  0  0  0  0  0  0  0  0
   35.1750   29.6690   52.3160 H   0  0  0  0  0  0  0  0  0  0  0  0
   37.2030   29.5260   51.5460 C   0  0  0  0  0  3  0  0  0  0  0  0
   37.9360   29.4480   50.3810 C   0  0  0  0  0  3  0  0  0  0  0  0
   37.3370   29.4500   49.1750 N   0  0  0  0  0  0  0  0  0  0  0  0
  1 15  1  0  0  0  0
  1  6  1  0  0  0  0
  2  1  2  0  0  0  0
  3  2  1  0  0  0  0
  3  4  2  0  0  0  0
  4  5  1  0  0  0  0
  5  6  2  0  0  0  0
  5 10  1  0  0  0  0
  6 20  1  0  0  0  0
  7  2  1  0  0  0  0
  8  3  1  0  0  0  0
  9  4  1  0  0  0  0
 11 17  1  0  0  0  0
 12 18  1  0  0  0  0
 12 11  2  0  0  0  0
 13 12  1  0  0  0  0
 14 13  2  0  0  0  0
 14 15  1  0  0  0  0
 15 16  2  0  0  0  0
 16 11  1  0  0  0  0
 19 13  1  0  0  0  0
 20 27  2  0  0  0  0
 20 21  1  0  0  0  0
 21 23  2  0  0  0  0
 22 21  1  0  0  0  0
 23 25  1  0  0  0  0
 23 24  1  0  0  0  0
 26 25  2  0  0  0  0
 27 26  1  0  0  0  0
M  END
>  <minimizedAffinity>
-4.88537216

>  <minimizedRMSD>
2.08928895

$$$$
