
 OpenBabel03272507063D

 30 33  0  0  0  0  0  0  0  0999 V2000
   38.1190   24.3620   32.3080 C   0  0  0  0  0  0  0  0  0  0  0  0
   38.4490   23.8570   33.5830 C   0  0  0  0  0  0  0  0  0  0  0  0
   38.1510   24.6790   34.7090 C   0  0  0  0  0  0  0  0  0  0  0  0
   37.5750   25.8850   34.4730 N   0  0  0  0  0  0  0  0  0  0  0  0
   37.2760   26.3300   33.2290 C   0  0  0  0  0  0  0  0  0  0  0  0
   37.5500   25.5700   32.1740 N   0  0  0  0  0  0  0  0  0  0  0  0
   38.3060   23.8160   31.3970 H   0  0  0  0  0  0  0  0  0  0  0  0
   38.9030   22.8890   33.6600 H   0  0  0  0  0  0  0  0  0  0  0  0
   36.2940   28.3140   34.2730 C   0  0  0  0  0  0  0  0  0  0  0  0
   36.6600   27.6420   33.1030 C   0  0  0  0  0  0  0  0  0  0  0  0
   36.4430   28.2030   31.8720 C   0  0  0  0  0  0  0  0  0  0  0  0
   35.8560   29.4500   31.7610 C   0  0  0  0  0  0  0  0  0  0  0  0
   35.5320   30.2210   30.6900 N   0  0  0  0  0  0  0  0  0  0  0  0
   34.9840   31.3290   31.2400 C   0  0  0  0  0  0  0  0  0  0  0  0
   34.9660   31.2530   32.5890 N   0  0  0  0  0  0  0  0  0  0  0  0
   35.5070   30.0840   32.9400 C   0  0  0  0  0  0  0  0  0  0  0  0
   35.7030   29.5670   34.1890 C   0  0  0  0  0  0  0  0  0  0  0  0
   36.4530   27.8970   35.2580 H   0  0  0  0  0  0  0  0  0  0  0  0
   36.7350   27.6610   30.9830 H   0  0  0  0  0  0  0  0  0  0  0  0
   35.6960   29.9580   29.7080 H   0  0  0  0  0  0  0  0  0  0  0  0
   34.6110   32.1630   30.6490 H   0  0  0  0  0  0  0  0  0  0  0  0
   35.4130   30.1010   35.0900 H   0  0  0  0  0  0  0  0  0  0  0  0
   38.4770   24.1850   36.0220 C   0  0  0  0  0  0  0  0  0  0  0  0
   37.7270   24.6120   37.0910 C   0  0  0  0  0  0  0  0  0  0  0  0
   36.9050   25.3030   36.9660 H   0  0  0  0  0  0  0  0  0  0  0  0
   38.0540   24.1260   38.3510 C   0  0  0  0  0  0  0  0  0  0  0  0
   37.5070   24.4170   39.2440 H   0  0  0  0  0  0  0  0  0  0  0  0
   39.1280   23.2340   38.4410 C   0  0  0  0  0  3  0  0  0  0  0  0
   39.8630   22.8280   37.3260 C   0  0  0  0  0  3  0  0  0  0  0  0
   39.4980   23.3330   36.1330 N   0  0  0  0  0  0  0  0  0  0  0  0
  1  2  1  0  0  0  0
  2  8  1  0  0  0  0
  2  3  2  0  0  0  0
  3 23  1  0  0  0  0
  4  3  1  0  0  0  0
  5  4  2  0  0  0  0
  6  1  2  0  0  0  0
  6  5  1  0  0  0  0
  7  1  1  0  0  0  0
  9 18  1  0  0  0  0
 10  5  1  0  0  0  0
 10  9  2  0  0  0  0
 11 10  1  0  0  0  0
 12 11  2  0  0  0  0
 12 16  1  0  0  0  0
 13 14  1  0  0  0  0
 13 12  1  0  0  0  0
 14 15  2  0  0  0  0
 15 16  1  0  0  0  0
 16 17  2  0  0  0  0
 17  9  1  0  0  0  0
 17 22  1  0  0  0  0
 19 11  1  0  0  0  0
 20 13  1  0  0  0  0
 21 14  1  0  0  0  0
 23 30  2  0  0  0  0
 23 24  1  0  0  0  0
 24 26  2  0  0  0  0
 25 24  1  0  0  0  0
 26 28  1  0  0  0  0
 26 27  1  0  0  0  0
 29 28  2  0  0  0  0
 30 29  1  0  0  0  0
M  END
>  <minimizedAffinity>
-5.80437088

$$$$

 OpenBabel03272507063D

 30 33  0  0  0  0  0  0  0  0999 V2000
   36.5320   28.7880   31.8380 C   0  0  0  0  0  0  0  0  0  0  0  0
   35.8920   29.7280   32.6710 C   0  0  0  0  0  0  0  0  0  0  0  0
   35.7950   29.4140   34.0580 C   0  0  0  0  0  0  0  0  0  0  0  0
   36.3240   28.2350   34.4750 N   0  0  0  0  0  0  0  0  0  0  0  0
   36.9300   27.3610   33.6370 C   0  0  0  0  0  0  0  0  0  0  0  0
   37.0250   27.6460   32.3420 N   0  0  0  0  0  0  0  0  0  0  0  0
   36.6540   28.9340   30.7760 H   0  0  0  0  0  0  0  0  0  0  0  0
   35.5080   30.6310   32.2410 H   0  0  0  0  0  0  0  0  0  0  0  0
   37.8540   25.1160   33.3220 C   0  0  0  0  0  0  0  0  0  0  0  0
   37.4580   26.1280   34.2010 C   0  0  0  0  0  0  0  0  0  0  0  0
   37.5630   25.9620   35.5580 C   0  0  0  0  0  0  0  0  0  0  0  0
   38.0660   24.7870   36.0860 C   0  0  0  0  0  0  0  0  0  0  0  0
   38.2730   24.3690   37.3610 N   0  0  0  0  0  0  0  0  0  0  0  0
   38.7850   23.1250   37.2170 C   0  0  0  0  0  0  0  0  0  0  0  0
   38.8920   22.7830   35.9130 N   0  0  0  0  0  0  0  0  0  0  0  0
   38.4460   23.8090   35.1850 C   0  0  0  0  0  0  0  0  0  0  0  0
   38.3610   23.9270   33.8260 C   0  0  0  0  0  0  0  0  0  0  0  0
   37.7830   25.2180   32.2470 H   0  0  0  0  0  0  0  0  0  0  0  0
   37.2490   26.7610   36.2150 H   0  0  0  0  0  0  0  0  0  0  0  0
   38.0650   24.9250   38.2020 H   0  0  0  0  0  0  0  0  0  0  0  0
   39.0680   22.4970   38.0600 H   0  0  0  0  0  0  0  0  0  0  0  0
   38.6730   23.1310   33.1540 H   0  0  0  0  0  0  0  0  0  0  0  0
   35.1470   30.3590   34.9310 C   0  0  0  0  0  0  0  0  0  0  0  0
   35.9260   31.2200   35.6640 C   0  0  0  0  0  0  0  0  0  0  0  0
   37.0050   31.2040   35.5990 H   0  0  0  0  0  0  0  0  0  0  0  0
   35.2850   32.1250   36.5010 C   0  0  0  0  0  0  0  0  0  0  0  0
   35.8320   32.8380   37.1120 H   0  0  0  0  0  0  0  0  0  0  0  0
   33.8860   32.0930   36.5380 C   0  0  0  0  0  3  0  0  0  0  0  0
   33.1360   31.1990   35.7740 C   0  0  0  0  0  3  0  0  0  0  0  0
   33.8130   30.3470   34.9830 N   0  0  0  0  0  0  0  0  0  0  0  0
  1  6  2  0  0  0  0
  1  2  1  0  0  0  0
  2  3  2  0  0  0  0
  3  4  1  0  0  0  0
  3 23  1  0  0  0  0
  5 10  1  0  0  0  0
  5  4  2  0  0  0  0
  6  5  1  0  0  0  0
  7  1  1  0  0  0  0
  8  2  1  0  0  0  0
  9 17  2  0  0  0  0
  9 10  1  0  0  0  0
 10 11  2  0  0  0  0
 11 12  1  0  0  0  0
 11 19  1  0  0  0  0
 12 13  1  0  0  0  0
 13 20  1  0  0  0  0
 14 13  1  0  0  0  0
 14 21  1  0  0  0  0
 15 14  2  0  0  0  0
 16 15  1  0  0  0  0
 16 12  2  0  0  0  0
 17 16  1  0  0  0  0
 18  9  1  0  0  0  0
 22 17  1  0  0  0  0
 23 30  2  0  0  0  0
 23 24  1  0  0  0  0
 24 26  2  0  0  0  0
 25 24  1  0  0  0  0
 26 28  1  0  0  0  0
 26 27  1  0  0  0  0
 29 28  2  0  0  0  0
 30 29  1  0  0  0  0
M  END
>  <minimizedAffinity>
-5.74554873

$$$$

 OpenBabel03272507063D

 30 33  0  0  0  0  0  0  0  0999 V2000
   38.2790   23.8990   38.2680 C   0  0  0  0  0  0  0  0  0  0  0  0
   39.3400   23.0080   38.0050 C   0  0  0  0  0  0  0  0  0  0  0  0
   39.8830   23.0080   36.6870 C   0  0  0  0  0  0  0  0  0  0  0  0
   39.3400   23.8620   35.7830 N   0  0  0  0  0  0  0  0  0  0  0  0
   38.3180   24.7010   36.0800 C   0  0  0  0  0  0  0  0  0  0  0  0
   37.8070   24.7070   37.3070 N   0  0  0  0  0  0  0  0  0  0  0  0
   37.8020   23.9720   39.2320 H   0  0  0  0  0  0  0  0  0  0  0  0
   39.6970   22.3740   38.7920 H   0  0  0  0  0  0  0  0  0  0  0  0
   37.4960   26.8890   35.3560 C   0  0  0  0  0  0  0  0  0  0  0  0
   37.8190   25.5700   35.0250 C   0  0  0  0  0  0  0  0  0  0  0  0
   37.6700   25.1080   33.7440 C   0  0  0  0  0  0  0  0  0  0  0  0
   37.1940   25.9410   32.7470 C   0  0  0  0  0  0  0  0  0  0  0  0
   36.9540   25.7470   31.4250 N   0  0  0  0  0  0  0  0  0  0  0  0
   36.4960   26.9460   30.9970 C   0  0  0  0  0  0  0  0  0  0  0  0
   36.4520   27.8460   32.0040 N   0  0  0  0  0  0  0  0  0  0  0  0
   36.8840   27.2390   33.1120 C   0  0  0  0  0  0  0  0  0  0  0  0
   37.0160   27.7450   34.3740 C   0  0  0  0  0  0  0  0  0  0  0  0
   37.6040   27.2820   36.3580 H   0  0  0  0  0  0  0  0  0  0  0  0
   37.9270   24.0830   33.5160 H   0  0  0  0  0  0  0  0  0  0  0  0
   37.1090   24.8600   30.9250 H   0  0  0  0  0  0  0  0  0  0  0  0
   36.2050   27.1370   29.9660 H   0  0  0  0  0  0  0  0  0  0  0  0
   36.7600   28.7740   34.6170 H   0  0  0  0  0  0  0  0  0  0  0  0
   40.9690   22.1090   36.3930 C   0  0  0  0  0  0  0  0  0  0  0  0
   41.5670   21.4360   37.4310 C   0  0  0  0  0  0  0  0  0  0  0  0
   41.2410   21.5660   38.4530 H   0  0  0  0  0  0  0  0  0  0  0  0
   42.6130   20.5720   37.1290 C   0  0  0  0  0  0  0  0  0  0  0  0
   43.1350   20.0040   37.8940 H   0  0  0  0  0  0  0  0  0  0  0  0
   42.9830   20.4500   35.7850 C   0  0  0  0  0  3  0  0  0  0  0  0
   42.3460   21.1550   34.7640 C   0  0  0  0  0  3  0  0  0  0  0  0
   41.3400   21.9760   35.1180 N   0  0  0  0  0  0  0  0  0  0  0  0
  1  7  1  0  0  0  0
  2  1  1  0  0  0  0
  2  8  1  0  0  0  0
  3  2  2  0  0  0  0
  4  5  2  0  0  0  0
  4  3  1  0  0  0  0
  5  6  1  0  0  0  0
  6  1  2  0  0  0  0
  9 18  1  0  0  0  0
 10  9  1  0  0  0  0
 10  5  1  0  0  0  0
 11 10  2  0  0  0  0
 12 16  2  0  0  0  0
 12 11  1  0  0  0  0
 13 12  1  0  0  0  0
 14 13  1  0  0  0  0
 14 15  2  0  0  0  0
 15 16  1  0  0  0  0
 16 17  1  0  0  0  0
 17 22  1  0  0  0  0
 17  9  2  0  0  0  0
 19 11  1  0  0  0  0
 20 13  1  0  0  0  0
 21 14  1  0  0  0  0
 23  3  1  0  0  0  0
 23 24  1  0  0  0  0
 24 25  1  0  0  0  0
 26 24  2  0  0  0  0
 26 27  1  0  0  0  0
 28 26  1  0  0  0  0
 29 30  1  0  0  0  0
 29 28  2  0  0  0  0
 30 23  2  0  0  0  0
M  END
>  <minimizedAffinity>
-5.66236591

$$$$

 OpenBabel03272507063D

 30 33  0  0  0  0  0  0  0  0999 V2000
   37.7300   22.6210   32.5750 C   0  0  0  0  0  0  0  0  0  0  0  0
   38.0510   22.4890   33.9420 C   0  0  0  0  0  0  0  0  0  0  0  0
   38.1300   23.6840   34.7130 C   0  0  0  0  0  0  0  0  0  0  0  0
   37.8920   24.8610   34.0780 N   0  0  0  0  0  0  0  0  0  0  0  0
   37.5880   24.9400   32.7600 C   0  0  0  0  0  0  0  0  0  0  0  0
   37.5110   23.8290   32.0340 N   0  0  0  0  0  0  0  0  0  0  0  0
   37.6470   21.7760   31.9090 H   0  0  0  0  0  0  0  0  0  0  0  0
   38.2210   21.5110   34.3460 H   0  0  0  0  0  0  0  0  0  0  0  0
   36.8420   27.2560   33.0270 C   0  0  0  0  0  0  0  0  0  0  0  0
   37.3540   26.2580   32.1920 C   0  0  0  0  0  0  0  0  0  0  0  0
   37.6280   26.5160   30.8740 C   0  0  0  0  0  0  0  0  0  0  0  0
   37.4020   27.7720   30.3410 C   0  0  0  0  0  0  0  0  0  0  0  0
   37.5810   28.2870   29.0970 N   0  0  0  0  0  0  0  0  0  0  0  0
   37.1740   29.5720   29.2150 C   0  0  0  0  0  0  0  0  0  0  0  0
   36.7620   29.8460   30.4730 N   0  0  0  0  0  0  0  0  0  0  0  0
   36.8950   28.7330   31.1970 C   0  0  0  0  0  0  0  0  0  0  0  0
   36.6070   28.5250   32.5160 C   0  0  0  0  0  0  0  0  0  0  0  0
   36.6170   27.0830   34.0700 H   0  0  0  0  0  0  0  0  0  0  0  0
   38.0220   25.7250   30.2500 H   0  0  0  0  0  0  0  0  0  0  0  0
   37.9470   27.7610   28.2920 H   0  0  0  0  0  0  0  0  0  0  0  0
   37.1870   30.2780   28.3860 H   0  0  0  0  0  0  0  0  0  0  0  0
   36.2090   29.3100   33.1540 H   0  0  0  0  0  0  0  0  0  0  0  0
   38.4550   23.5770   36.1120 C   0  0  0  0  0  0  0  0  0  0  0  0
   39.5870   22.8880   36.4750 C   0  0  0  0  0  0  0  0  0  0  0  0
   40.2320   22.4300   35.7380 H   0  0  0  0  0  0  0  0  0  0  0  0
   39.8860   22.7950   37.8290 C   0  0  0  0  0  0  0  0  0  0  0  0
   40.7630   22.2680   38.1940 H   0  0  0  0  0  0  0  0  0  0  0  0
   39.0080   23.4110   38.7290 C   0  0  0  0  0  3  0  0  0  0  0  0
   37.8690   24.1010   38.3130 C   0  0  0  0  0  3  0  0  0  0  0  0
   37.6330   24.1570   36.9900 N   0  0  0  0  0  0  0  0  0  0  0  0
  1  2  1  0  0  0  0
  2  8  1  0  0  0  0
  2  3  2  0  0  0  0
  3 23  1  0  0  0  0
  4  3  1  0  0  0  0
  5  4  2  0  0  0  0
  6  1  2  0  0  0  0
  6  5  1  0  0  0  0
  7  1  1  0  0  0  0
  9 18  1  0  0  0  0
 10  5  1  0  0  0  0
 10  9  2  0  0  0  0
 11 10  1  0  0  0  0
 12 11  2  0  0  0  0
 12 16  1  0  0  0  0
 13 14  1  0  0  0  0
 13 12  1  0  0  0  0
 14 15  2  0  0  0  0
 15 16  1  0  0  0  0
 16 17  2  0  0  0  0
 17  9  1  0  0  0  0
 17 22  1  0  0  0  0
 19 11  1  0  0  0  0
 20 13  1  0  0  0  0
 21 14  1  0  0  0  0
 23 24  2  0  0  0  0
 23 30  1  0  0  0  0
 24 26  1  0  0  0  0
 25 24  1  0  0  0  0
 26 27  1  0  0  0  0
 26 28  2  0  0  0  0
 29 28  1  0  0  0  0
 30 29  2  0  0  0  0
M  END
>  <minimizedAffinity>
-5.61426306

$$$$

 OpenBabel03272507063D

 30 33  0  0  0  0  0  0  0  0999 V2000
   36.9740   28.4620   31.8760 C   0  0  0  0  0  0  0  0  0  0  0  0
   37.5070   27.3050   32.4810 C   0  0  0  0  0  0  0  0  0  0  0  0
   37.1800   27.0720   33.8480 C   0  0  0  0  0  0  0  0  0  0  0  0
   36.3820   27.9790   34.4680 N   0  0  0  0  0  0  0  0  0  0  0  0
   35.8940   29.0790   33.8470 C   0  0  0  0  0  0  0  0  0  0  0  0
   36.1930   29.3030   32.5710 N   0  0  0  0  0  0  0  0  0  0  0  0
   37.1650   28.7250   30.8480 H   0  0  0  0  0  0  0  0  0  0  0  0
   38.1280   26.6510   31.9010 H   0  0  0  0  0  0  0  0  0  0  0  0
   33.6710   29.9530   34.3820 C   0  0  0  0  0  0  0  0  0  0  0  0
   35.0490   29.9790   34.6160 C   0  0  0  0  0  0  0  0  0  0  0  0
   35.5890   30.8300   35.5450 C   0  0  0  0  0  0  0  0  0  0  0  0
   34.7790   31.6840   36.2720 C   0  0  0  0  0  0  0  0  0  0  0  0
   35.0450   32.6080   37.2300 N   0  0  0  0  0  0  0  0  0  0  0  0
   33.8290   33.1100   37.5460 C   0  0  0  0  0  0  0  0  0  0  0  0
   32.8500   32.5270   36.8190 N   0  0  0  0  0  0  0  0  0  0  0  0
   33.4210   31.6290   36.0120 C   0  0  0  0  0  0  0  0  0  0  0  0
   32.8360   30.7990   35.0980 C   0  0  0  0  0  0  0  0  0  0  0  0
   33.2160   29.2920   33.6570 H   0  0  0  0  0  0  0  0  0  0  0  0
   36.6580   30.8310   35.7050 H   0  0  0  0  0  0  0  0  0  0  0  0
   35.9850   32.8260   37.5890 H   0  0  0  0  0  0  0  0  0  0  0  0
   33.6830   33.8860   38.2950 H   0  0  0  0  0  0  0  0  0  0  0  0
   31.7630   30.7900   34.9270 H   0  0  0  0  0  0  0  0  0  0  0  0
   37.7100   25.8960   34.4890 C   0  0  0  0  0  0  0  0  0  0  0  0
   37.8410   25.8930   35.8560 C   0  0  0  0  0  0  0  0  0  0  0  0
   37.5570   26.7470   36.4540 H   0  0  0  0  0  0  0  0  0  0  0  0
   38.3540   24.7500   36.4580 C   0  0  0  0  0  0  0  0  0  0  0  0
   38.4870   24.6710   37.5340 H   0  0  0  0  0  0  0  0  0  0  0  0
   38.7010   23.6800   35.6250 C   0  0  0  0  0  3  0  0  0  0  0  0
   38.5500   23.7290   34.2390 C   0  0  0  0  0  3  0  0  0  0  0  0
   38.0490   24.8620   33.7140 N   0  0  0  0  0  0  0  0  0  0  0  0
  1  2  2  0  0  0  0
  1  6  1  0  0  0  0
  2  3  1  0  0  0  0
  3  4  2  0  0  0  0
  3 23  1  0  0  0  0
  5  4  1  0  0  0  0
  5 10  1  0  0  0  0
  6  5  2  0  0  0  0
  7  1  1  0  0  0  0
  8  2  1  0  0  0  0
  9 10  2  0  0  0  0
  9 17  1  0  0  0  0
 10 11  1  0  0  0  0
 11 19  1  0  0  0  0
 11 12  2  0  0  0  0
 12 13  1  0  0  0  0
 13 14  1  0  0  0  0
 13 20  1  0  0  0  0
 14 21  1  0  0  0  0
 15 14  2  0  0  0  0
 16 12  1  0  0  0  0
 16 15  1  0  0  0  0
 17 16  2  0  0  0  0
 18  9  1  0  0  0  0
 22 17  1  0  0  0  0
 23 24  1  0  0  0  0
 24 25  1  0  0  0  0
 24 26  2  0  0  0  0
 26 27  1  0  0  0  0
 28 26  1  0  0  0  0
 29 28  2  0  0  0  0
 30 29  1  0  0  0  0
 30 23  2  0  0  0  0
M  END
>  <minimizedAffinity>
-5.59378052

$$$$

 OpenBabel03272507063D

 30 33  0  0  0  0  0  0  0  0999 V2000
   35.5440   28.2030   31.9090 C   0  0  0  0  0  0  0  0  0  0  0  0
   34.9930   29.1630   32.7830 C   0  0  0  0  0  0  0  0  0  0  0  0
   35.5590   29.2620   34.0870 C   0  0  0  0  0  0  0  0  0  0  0  0
   36.5830   28.4250   34.3930 N   0  0  0  0  0  0  0  0  0  0  0  0
   37.0800   27.5160   33.5220 C   0  0  0  0  0  0  0  0  0  0  0  0
   36.5590   27.4180   32.3030 N   0  0  0  0  0  0  0  0  0  0  0  0
   35.1840   28.0530   30.9030 H   0  0  0  0  0  0  0  0  0  0  0  0
   34.1830   29.7770   32.4410 H   0  0  0  0  0  0  0  0  0  0  0  0
   37.9020   25.3400   34.2860 C   0  0  0  0  0  0  0  0  0  0  0  0
   38.1790   26.6730   33.9660 C   0  0  0  0  0  0  0  0  0  0  0  0
   39.4520   27.1710   34.0700 C   0  0  0  0  0  0  0  0  0  0  0  0
   40.4910   26.3630   34.4940 C   0  0  0  0  0  0  0  0  0  0  0  0
   41.8160   26.5950   34.6830 N   0  0  0  0  0  0  0  0  0  0  0  0
   42.2980   25.4040   35.1080 C   0  0  0  0  0  0  0  0  0  0  0  0
   41.3200   24.4740   35.1810 N   0  0  0  0  0  0  0  0  0  0  0  0
   40.1780   25.0520   34.8020 C   0  0  0  0  0  0  0  0  0  0  0  0
   38.9270   24.5090   34.7140 C   0  0  0  0  0  0  0  0  0  0  0  0
   36.9080   24.9190   34.2130 H   0  0  0  0  0  0  0  0  0  0  0  0
   39.6380   28.2060   33.8170 H   0  0  0  0  0  0  0  0  0  0  0  0
   42.2820   27.4980   34.5190 H   0  0  0  0  0  0  0  0  0  0  0  0
   43.3450   25.2410   35.3540 H   0  0  0  0  0  0  0  0  0  0  0  0
   38.7260   23.4710   34.9660 H   0  0  0  0  0  0  0  0  0  0  0  0
   35.0150   30.2360   34.9980 C   0  0  0  0  0  0  0  0  0  0  0  0
   35.8750   31.1050   35.6230 C   0  0  0  0  0  0  0  0  0  0  0  0
   36.9410   31.0730   35.4460 H   0  0  0  0  0  0  0  0  0  0  0  0
   35.3350   32.0390   36.4980 C   0  0  0  0  0  0  0  0  0  0  0  0
   35.9500   32.7600   37.0300 H   0  0  0  0  0  0  0  0  0  0  0  0
   33.9470   32.0260   36.6820 C   0  0  0  0  0  3  0  0  0  0  0  0
   33.1120   31.1220   36.0240 C   0  0  0  0  0  3  0  0  0  0  0  0
   33.6940   30.2420   35.1890 N   0  0  0  0  0  0  0  0  0  0  0  0
  1  6  2  0  0  0  0
  1  2  1  0  0  0  0
  2  3  2  0  0  0  0
  3  4  1  0  0  0  0
  3 23  1  0  0  0  0
  5 10  1  0  0  0  0
  5  4  2  0  0  0  0
  6  5  1  0  0  0  0
  7  1  1  0  0  0  0
  8  2  1  0  0  0  0
  9 17  1  0  0  0  0
 10 11  1  0  0  0  0
 10  9  2  0  0  0  0
 11 12  2  0  0  0  0
 12 13  1  0  0  0  0
 12 16  1  0  0  0  0
 13 14  1  0  0  0  0
 14 15  2  0  0  0  0
 14 21  1  0  0  0  0
 16 15  1  0  0  0  0
 17 16  2  0  0  0  0
 17 22  1  0  0  0  0
 18  9  1  0  0  0  0
 19 11  1  0  0  0  0
 20 13  1  0  0  0  0
 23 30  2  0  0  0  0
 23 24  1  0  0  0  0
 24 26  2  0  0  0  0
 25 24  1  0  0  0  0
 26 28  1  0  0  0  0
 26 27  1  0  0  0  0
 29 28  2  0  0  0  0
 30 29  1  0  0  0  0
M  END
>  <minimizedAffinity>
-5.52100992

$$$$

 OpenBabel03272507063D

 30 33  0  0  0  0  0  0  0  0999 V2000
   36.1370   29.2780   31.9040 C   0  0  0  0  0  0  0  0  0  0  0  0
   35.5230   30.1680   32.8090 C   0  0  0  0  0  0  0  0  0  0  0  0
   35.5230   29.8030   34.1860 C   0  0  0  0  0  0  0  0  0  0  0  0
   36.1100   28.6270   34.5260 N   0  0  0  0  0  0  0  0  0  0  0  0
   36.6860   27.8010   33.6210 C   0  0  0  0  0  0  0  0  0  0  0  0
   36.6920   28.1350   32.3340 N   0  0  0  0  0  0  0  0  0  0  0  0
   36.1870   29.4650   30.8430 H   0  0  0  0  0  0  0  0  0  0  0  0
   35.0880   31.0740   32.4360 H   0  0  0  0  0  0  0  0  0  0  0  0
   37.6360   26.4900   35.4570 C   0  0  0  0  0  0  0  0  0  0  0  0
   37.2830   26.5660   34.1060 C   0  0  0  0  0  0  0  0  0  0  0  0
   37.4940   25.5060   33.2630 C   0  0  0  0  0  0  0  0  0  0  0  0
   38.0620   24.3360   33.7330 C   0  0  0  0  0  0  0  0  0  0  0  0
   38.3760   23.1610   33.1290 N   0  0  0  0  0  0  0  0  0  0  0  0
   38.9050   22.4140   34.1240 C   0  0  0  0  0  0  0  0  0  0  0  0
   38.9220   23.0900   35.2940 N   0  0  0  0  0  0  0  0  0  0  0  0
   38.3980   24.2990   35.0740 C   0  0  0  0  0  0  0  0  0  0  0  0
   38.2080   25.3270   35.9530 C   0  0  0  0  0  0  0  0  0  0  0  0
   37.4810   27.3090   36.1460 H   0  0  0  0  0  0  0  0  0  0  0  0
   37.2120   25.5920   32.2230 H   0  0  0  0  0  0  0  0  0  0  0  0
   38.2180   22.9540   32.1330 H   0  0  0  0  0  0  0  0  0  0  0  0
   39.2670   21.3980   33.9770 H   0  0  0  0  0  0  0  0  0  0  0  0
   38.4880   25.2540   37.0010 H   0  0  0  0  0  0  0  0  0  0  0  0
   34.9050   30.6970   35.1320 C   0  0  0  0  0  0  0  0  0  0  0  0
   35.7100   31.4760   35.9260 C   0  0  0  0  0  0  0  0  0  0  0  0
   36.7870   31.4330   35.8550 H   0  0  0  0  0  0  0  0  0  0  0  0
   35.0970   32.3330   36.8320 C   0  0  0  0  0  0  0  0  0  0  0  0
   35.6660   32.9810   37.4940 H   0  0  0  0  0  0  0  0  0  0  0  0
   33.6980   32.3390   36.8720 C   0  0  0  0  0  3  0  0  0  0  0  0
   32.9200   31.5280   36.0450 C   0  0  0  0  0  3  0  0  0  0  0  0
   33.5710   30.7200   35.1880 N   0  0  0  0  0  0  0  0  0  0  0  0
  1  6  2  0  0  0  0
  1  2  1  0  0  0  0
  2  3  2  0  0  0  0
  3  4  1  0  0  0  0
  3 23  1  0  0  0  0
  5 10  1  0  0  0  0
  5  4  2  0  0  0  0
  6  5  1  0  0  0  0
  7  1  1  0  0  0  0
  8  2  1  0  0  0  0
  9 17  1  0  0  0  0
  9 18  1  0  0  0  0
 10  9  2  0  0  0  0
 11 12  2  0  0  0  0
 11 10  1  0  0  0  0
 12 16  1  0  0  0  0
 13 12  1  0  0  0  0
 13 14  1  0  0  0  0
 14 15  2  0  0  0  0
 16 15  1  0  0  0  0
 16 17  2  0  0  0  0
 17 22  1  0  0  0  0
 19 11  1  0  0  0  0
 20 13  1  0  0  0  0
 21 14  1  0  0  0  0
 23 30  2  0  0  0  0
 23 24  1  0  0  0  0
 24 26  2  0  0  0  0
 25 24  1  0  0  0  0
 26 28  1  0  0  0  0
 26 27  1  0  0  0  0
 29 28  2  0  0  0  0
 30 29  1  0  0  0  0
M  END
>  <minimizedAffinity>
-5.51515913

$$$$

 OpenBabel03272507063D

 30 33  0  0  0  0  0  0  0  0999 V2000
   38.4820   24.7620   32.2510 C   0  0  0  0  0  0  0  0  0  0  0  0
   38.7330   24.1810   33.5120 C   0  0  0  0  0  0  0  0  0  0  0  0
   38.2890   24.8960   34.6610 C   0  0  0  0  0  0  0  0  0  0  0  0
   37.6600   26.0820   34.4610 N   0  0  0  0  0  0  0  0  0  0  0  0
   37.4410   26.6030   33.2300 C   0  0  0  0  0  0  0  0  0  0  0  0
   37.8520   25.9420   32.1530 N   0  0  0  0  0  0  0  0  0  0  0  0
   38.7800   24.2990   31.3240 H   0  0  0  0  0  0  0  0  0  0  0  0
   39.2390   23.2370   33.5600 H   0  0  0  0  0  0  0  0  0  0  0  0
   36.6590   28.4960   31.8890 C   0  0  0  0  0  0  0  0  0  0  0  0
   36.7560   27.8840   33.1430 C   0  0  0  0  0  0  0  0  0  0  0  0
   36.2220   28.4750   34.2580 C   0  0  0  0  0  0  0  0  0  0  0  0
   35.5730   29.6930   34.1660 C   0  0  0  0  0  0  0  0  0  0  0  0
   34.9670   30.4820   35.0890 N   0  0  0  0  0  0  0  0  0  0  0  0
   34.5240   31.5410   34.3730 C   0  0  0  0  0  0  0  0  0  0  0  0
   34.8390   31.4180   33.0640 N   0  0  0  0  0  0  0  0  0  0  0  0
   35.4970   30.2670   32.9100 C   0  0  0  0  0  0  0  0  0  0  0  0
   36.0130   29.7180   31.7700 C   0  0  0  0  0  0  0  0  0  0  0  0
   37.0710   28.0530   30.9920 H   0  0  0  0  0  0  0  0  0  0  0  0
   36.3120   27.9800   35.2150 H   0  0  0  0  0  0  0  0  0  0  0  0
   34.8970   30.2620   36.0930 H   0  0  0  0  0  0  0  0  0  0  0  0
   33.9840   32.3750   34.8180 H   0  0  0  0  0  0  0  0  0  0  0  0
   35.9310   30.2050   30.8020 H   0  0  0  0  0  0  0  0  0  0  0  0
   38.5310   24.3230   35.9610 C   0  0  0  0  0  0  0  0  0  0  0  0
   39.4890   23.3460   36.0820 C   0  0  0  0  0  0  0  0  0  0  0  0
   40.0590   23.0020   35.2300 H   0  0  0  0  0  0  0  0  0  0  0  0
   39.7100   22.8040   37.3430 C   0  0  0  0  0  0  0  0  0  0  0  0
   40.4500   22.0290   37.5190 H   0  0  0  0  0  0  0  0  0  0  0  0
   38.9380   23.2950   38.4020 C   0  0  0  0  0  3  0  0  0  0  0  0
   37.9740   24.2900   38.2300 C   0  0  0  0  0  3  0  0  0  0  0  0
   37.8060   24.7750   36.9870 N   0  0  0  0  0  0  0  0  0  0  0  0
  1  2  1  0  0  0  0
  2  8  1  0  0  0  0
  2  3  2  0  0  0  0
  3 23  1  0  0  0  0
  4  3  1  0  0  0  0
  5  4  2  0  0  0  0
  6  1  2  0  0  0  0
  6  5  1  0  0  0  0
  7  1  1  0  0  0  0
  9 10  1  0  0  0  0
 10  5  1  0  0  0  0
 10 11  2  0  0  0  0
 11 19  1  0  0  0  0
 12 11  1  0  0  0  0
 12 13  1  0  0  0  0
 13 20  1  0  0  0  0
 14 21  1  0  0  0  0
 14 13  1  0  0  0  0
 15 14  2  0  0  0  0
 16 15  1  0  0  0  0
 16 12  2  0  0  0  0
 17  9  2  0  0  0  0
 17 16  1  0  0  0  0
 18  9  1  0  0  0  0
 22 17  1  0  0  0  0
 23 24  2  0  0  0  0
 23 30  1  0  0  0  0
 24 26  1  0  0  0  0
 25 24  1  0  0  0  0
 26 27  1  0  0  0  0
 26 28  2  0  0  0  0
 29 28  1  0  0  0  0
 30 29  2  0  0  0  0
M  END
>  <minimizedAffinity>
-5.51004457

$$$$

 OpenBabel03272507063D

 30 33  0  0  0  0  0  0  0  0999 V2000
   36.2750   30.6870   31.5260 C   0  0  0  0  0  0  0  0  0  0  0  0
   35.7120   31.2260   32.7020 C   0  0  0  0  0  0  0  0  0  0  0  0
   35.3490   30.3110   33.7320 C   0  0  0  0  0  0  0  0  0  0  0  0
   35.5710   28.9900   33.5080 N   0  0  0  0  0  0  0  0  0  0  0  0
   36.1140   28.5170   32.3610 C   0  0  0  0  0  0  0  0  0  0  0  0
   36.4550   29.3640   31.3950 N   0  0  0  0  0  0  0  0  0  0  0  0
   36.5810   31.2970   30.6910 H   0  0  0  0  0  0  0  0  0  0  0  0
   35.5800   32.2870   32.7780 H   0  0  0  0  0  0  0  0  0  0  0  0
   35.6170   26.4110   31.2170 C   0  0  0  0  0  0  0  0  0  0  0  0
   36.3010   27.0800   32.2370 C   0  0  0  0  0  0  0  0  0  0  0  0
   37.1250   26.3990   33.0950 C   0  0  0  0  0  0  0  0  0  0  0  0
   37.2970   25.0330   32.9700 C   0  0  0  0  0  0  0  0  0  0  0  0
   38.0360   24.1330   33.6690 N   0  0  0  0  0  0  0  0  0  0  0  0
   37.7790   22.9540   33.0560 C   0  0  0  0  0  0  0  0  0  0  0  0
   36.9210   23.1110   32.0240 N   0  0  0  0  0  0  0  0  0  0  0  0
   36.6040   24.4060   31.9500 C   0  0  0  0  0  0  0  0  0  0  0  0
   35.7720   25.0400   31.0710 C   0  0  0  0  0  0  0  0  0  0  0  0
   34.9610   26.9210   30.5250 H   0  0  0  0  0  0  0  0  0  0  0  0
   37.6420   26.9420   33.8750 H   0  0  0  0  0  0  0  0  0  0  0  0
   38.6350   24.3650   34.4730 H   0  0  0  0  0  0  0  0  0  0  0  0
   38.2210   22.0110   33.3730 H   0  0  0  0  0  0  0  0  0  0  0  0
   35.2460   24.5060   30.2830 H   0  0  0  0  0  0  0  0  0  0  0  0
   34.7740   30.8360   34.9440 C   0  0  0  0  0  0  0  0  0  0  0  0
   35.5460   31.6380   35.7470 C   0  0  0  0  0  0  0  0  0  0  0  0
   36.5680   31.8810   35.4900 H   0  0  0  0  0  0  0  0  0  0  0  0
   34.9750   32.1370   36.9110 C   0  0  0  0  0  0  0  0  0  0  0  0
   35.5220   32.7780   37.5970 H   0  0  0  0  0  0  0  0  0  0  0  0
   33.6490   31.7830   37.1840 C   0  0  0  0  0  3  0  0  0  0  0  0
   32.9020   30.9630   36.3370 C   0  0  0  0  0  3  0  0  0  0  0  0
   33.5090   30.5120   35.2240 N   0  0  0  0  0  0  0  0  0  0  0  0
  1  2  1  0  0  0  0
  2  8  1  0  0  0  0
  2  3  2  0  0  0  0
  3 23  1  0  0  0  0
  4  3  1  0  0  0  0
  5  4  2  0  0  0  0
  6  1  2  0  0  0  0
  6  5  1  0  0  0  0
  7  1  1  0  0  0  0
  9 10  1  0  0  0  0
 10  5  1  0  0  0  0
 10 11  2  0  0  0  0
 11 19  1  0  0  0  0
 12 11  1  0  0  0  0
 12 13  1  0  0  0  0
 13 20  1  0  0  0  0
 14 21  1  0  0  0  0
 14 13  1  0  0  0  0
 15 14  2  0  0  0  0
 16 15  1  0  0  0  0
 16 12  2  0  0  0  0
 17  9  2  0  0  0  0
 17 16  1  0  0  0  0
 18  9  1  0  0  0  0
 22 17  1  0  0  0  0
 23 30  2  0  0  0  0
 23 24  1  0  0  0  0
 24 26  2  0  0  0  0
 25 24  1  0  0  0  0
 26 28  1  0  0  0  0
 26 27  1  0  0  0  0
 29 28  2  0  0  0  0
 30 29  1  0  0  0  0
M  END
>  <minimizedAffinity>
-5.47363567

$$$$
