
 OpenBabel03272510073D

 29 31  0  0  0  0  0  0  0  0999 V2000
   37.7740   25.2020   34.0050 C   0  0  0  0  0  0  0  0  0  0  0  0
   38.0720   25.6160   35.3070 C   0  0  0  0  0  0  0  0  0  0  0  0
   37.8180   26.9520   35.6140 C   0  0  0  0  0  0  0  0  0  0  0  0
   37.3070   27.7610   34.6540 N   0  0  0  0  0  0  0  0  0  0  0  0
   37.0340   27.3280   33.4130 C   0  0  0  0  0  0  0  0  0  0  0  0
   37.2600   26.0570   33.0730 N   0  0  0  0  0  0  0  0  0  0  0  0
   36.4930   28.2650   32.4670 N   0  0  0  0  0  0  0  0  0  0  0  0
   35.2380   28.9600   32.6560 C   0  0  0  0  0  0  0  0  0  0  0  0
   35.2100   29.9750   31.5650 C   0  0  0  0  0  0  0  0  0  0  0  0
   36.5880   29.9930   30.9460 C   0  0  0  0  0  0  0  0  0  0  0  0
   37.1350   28.6290   31.2110 C   0  0  0  0  0  0  0  0  0  0  0  0
   37.9330   24.1800   33.6580 H   0  0  0  0  0  0  0  0  0  0  0  0
   38.0430   27.2850   36.6150 H   0  0  0  0  0  0  0  0  0  0  0  0
   34.4090   28.2080   32.5540 H   0  0  0  0  0  0  0  0  0  0  0  0
   35.1110   29.3780   33.6740 H   0  0  0  0  0  0  0  0  0  0  0  0
   34.4160   29.8080   30.8130 H   0  0  0  0  0  0  0  0  0  0  0  0
   35.0420   30.9830   32.0360 H   0  0  0  0  0  0  0  0  0  0  0  0
   37.2040   30.8260   31.2890 H   0  0  0  0  0  0  0  0  0  0  0  0
   36.4400   30.0810   29.8520 H   0  0  0  0  0  0  0  0  0  0  0  0
   38.2170   28.7370   31.4570 H   0  0  0  0  0  0  0  0  0  0  0  0
   36.9520   27.8860   30.4360 H   0  0  0  0  0  0  0  0  0  0  0  0
   38.6160   24.6390   36.2310 C   0  0  0  0  0  0  0  0  0  0  0  0
   38.0810   24.4060   37.4770 C   0  0  0  0  0  0  0  0  0  0  0  0
   37.2220   24.9500   37.8200 H   0  0  0  0  0  0  0  0  0  0  0  0
   38.5910   23.4790   38.3650 C   0  0  0  0  0  0  0  0  0  0  0  0
   38.1670   23.2980   39.3450 H   0  0  0  0  0  0  0  0  0  0  0  0
   39.7090   22.7680   37.9240 C   0  0  0  0  0  3  0  0  0  0  0  0
   40.2260   23.0250   36.6640 C   0  0  0  0  0  3  0  0  0  0  0  0
   39.6910   23.9480   35.8220 N   0  0  0  0  0  0  0  0  0  0  0  0
  1  2  1  0  0  0  0
  2  3  2  0  0  0  0
  2 22  1  0  0  0  0
  3 13  1  0  0  0  0
  4  3  1  0  0  0  0
  5  4  2  0  0  0  0
  6  5  1  0  0  0  0
  6  1  2  0  0  0  0
  7  8  1  0  0  0  0
  7  5  1  0  0  0  0
  8 15  1  0  0  0  0
  9 17  1  0  0  0  0
  9  8  1  0  0  0  0
 10 11  1  0  0  0  0
 10 18  1  0  0  0  0
 10  9  1  0  0  0  0
 11 20  1  0  0  0  0
 11  7  1  0  0  0  0
 12  1  1  0  0  0  0
 14  8  1  0  0  0  0
 16  9  1  0  0  0  0
 19 10  1  0  0  0  0
 21 11  1  0  0  0  0
 22 23  1  0  0  0  0
 23 24  1  0  0  0  0
 23 25  2  0  0  0  0
 25 26  1  0  0  0  0
 27 25  1  0  0  0  0
 28 27  2  0  0  0  0
 29 22  2  0  0  0  0
 29 28  1  0  0  0  0
M  END
>  <minimizedAffinity>
-5.07929182

$$$$

 OpenBabel03272510073D

 29 31  0  0  0  0  0  0  0  0999 V2000
   37.0420   24.3050   32.3320 C   0  0  0  0  0  0  0  0  0  0  0  0
   36.0180   23.6800   31.6150 C   0  0  0  0  0  0  0  0  0  0  0  0
   35.1060   24.5120   30.9670 C   0  0  0  0  0  0  0  0  0  0  0  0
   35.2580   25.8550   31.0650 N   0  0  0  0  0  0  0  0  0  0  0  0
   36.2550   26.4210   31.7630 C   0  0  0  0  0  0  0  0  0  0  0  0
   37.1510   25.6650   32.4000 N   0  0  0  0  0  0  0  0  0  0  0  0
   36.3290   27.8550   31.8050 N   0  0  0  0  0  0  0  0  0  0  0  0
   36.4890   28.6830   30.6300 C   0  0  0  0  0  0  0  0  0  0  0  0
   36.2780   30.0740   31.1260 C   0  0  0  0  0  0  0  0  0  0  0  0
   35.7400   29.9600   32.5340 C   0  0  0  0  0  0  0  0  0  0  0  0
   36.2540   28.6480   33.0260 C   0  0  0  0  0  0  0  0  0  0  0  0
   37.8080   23.7510   32.8760 H   0  0  0  0  0  0  0  0  0  0  0  0
   34.3100   24.0410   30.4100 H   0  0  0  0  0  0  0  0  0  0  0  0
   37.5320   28.5290   30.2390 H   0  0  0  0  0  0  0  0  0  0  0  0
   35.8310   28.3930   29.7880 H   0  0  0  0  0  0  0  0  0  0  0  0
   37.1780   30.7150   31.0730 H   0  0  0  0  0  0  0  0  0  0  0  0
   35.4720   30.5450   30.4970 H   0  0  0  0  0  0  0  0  0  0  0  0
   34.6590   30.1010   32.5950 H   0  0  0  0  0  0  0  0  0  0  0  0
   36.2400   30.7520   33.1260 H   0  0  0  0  0  0  0  0  0  0  0  0
   35.4480   28.1730   33.6320 H   0  0  0  0  0  0  0  0  0  0  0  0
   37.2100   28.6770   33.5460 H   0  0  0  0  0  0  0  0  0  0  0  0
   35.9780   22.2290   31.5980 C   0  0  0  0  0  0  0  0  0  0  0  0
   35.0190   21.4970   32.2580 C   0  0  0  0  0  0  0  0  0  0  0  0
   34.2460   21.9810   32.8230 H   0  0  0  0  0  0  0  0  0  0  0  0
   34.9720   20.1160   32.2480 C   0  0  0  0  0  0  0  0  0  0  0  0
   34.2160   19.5430   32.7690 H   0  0  0  0  0  0  0  0  0  0  0  0
   35.9760   19.4810   31.5140 C   0  0  0  0  0  3  0  0  0  0  0  0
   36.9290   20.2450   30.8600 C   0  0  0  0  0  3  0  0  0  0  0  0
   36.9370   21.6030   30.8970 N   0  0  0  0  0  0  0  0  0  0  0  0
  1  6  1  0  0  0  0
  1 12  1  0  0  0  0
  2  1  2  0  0  0  0
  3  4  2  0  0  0  0
  3  2  1  0  0  0  0
  4  5  1  0  0  0  0
  5  7  1  0  0  0  0
  5  6  2  0  0  0  0
  7 11  1  0  0  0  0
  8  9  1  0  0  0  0
  8  7  1  0  0  0  0
  9 10  1  0  0  0  0
 10 18  1  0  0  0  0
 10 11  1  0  0  0  0
 10 19  1  0  0  0  0
 11 21  1  0  0  0  0
 11 20  1  0  0  0  0
 13  3  1  0  0  0  0
 14  8  1  0  0  0  0
 15  8  1  0  0  0  0
 16  9  1  0  0  0  0
 17  9  1  0  0  0  0
 22  2  1  0  0  0  0
 22 23  1  0  0  0  0
 23 24  1  0  0  0  0
 25 23  2  0  0  0  0
 25 26  1  0  0  0  0
 27 25  1  0  0  0  0
 28 29  1  0  0  0  0
 28 27  2  0  0  0  0
 29 22  2  0  0  0  0
M  END
>  <minimizedAffinity>
-4.92231369

$$$$

 OpenBabel03272510073D

 29 31  0  0  0  0  0  0  0  0999 V2000
   37.7660   25.1880   33.9930 C   0  0  0  0  0  0  0  0  0  0  0  0
   38.1230   25.5780   35.2870 C   0  0  0  0  0  0  0  0  0  0  0  0
   37.8720   26.9050   35.6340 C   0  0  0  0  0  0  0  0  0  0  0  0
   37.3070   27.7280   34.7180 N   0  0  0  0  0  0  0  0  0  0  0  0
   36.9770   27.3180   33.4830 C   0  0  0  0  0  0  0  0  0  0  0  0
   37.1990   26.0570   33.1050 N   0  0  0  0  0  0  0  0  0  0  0  0
   36.3820   28.2680   32.5850 N   0  0  0  0  0  0  0  0  0  0  0  0
   35.1320   28.9460   32.8490 C   0  0  0  0  0  0  0  0  0  0  0  0
   35.0400   29.9830   31.7820 C   0  0  0  0  0  0  0  0  0  0  0  0
   36.3870   30.0280   31.0980 C   0  0  0  0  0  0  0  0  0  0  0  0
   36.9580   28.6650   31.3060 C   0  0  0  0  0  0  0  0  0  0  0  0
   37.9180   24.1750   33.6170 H   0  0  0  0  0  0  0  0  0  0  0  0
   38.1430   27.2190   36.6310 H   0  0  0  0  0  0  0  0  0  0  0  0
   34.3060   28.1880   32.7720 H   0  0  0  0  0  0  0  0  0  0  0  0
   35.0500   29.3420   33.8810 H   0  0  0  0  0  0  0  0  0  0  0  0
   34.2120   29.8240   31.0660 H   0  0  0  0  0  0  0  0  0  0  0  0
   34.8860   30.9800   32.2830 H   0  0  0  0  0  0  0  0  0  0  0  0
   37.0100   30.8610   31.4280 H   0  0  0  0  0  0  0  0  0  0  0  0
   36.1850   30.1380   30.0140 H   0  0  0  0  0  0  0  0  0  0  0  0
   38.0500   28.7800   31.5020 H   0  0  0  0  0  0  0  0  0  0  0  0
   36.7450   27.9360   30.5260 H   0  0  0  0  0  0  0  0  0  0  0  0
   38.7210   24.5870   36.1630 C   0  0  0  0  0  0  0  0  0  0  0  0
   39.8580   23.8870   35.8360 C   0  0  0  0  0  0  0  0  0  0  0  0
   40.3580   24.0500   34.9010 H   0  0  0  0  0  0  0  0  0  0  0  0
   40.4360   22.9410   36.6620 C   0  0  0  0  0  0  0  0  0  0  0  0
   41.3320   22.3920   36.4010 H   0  0  0  0  0  0  0  0  0  0  0  0
   39.7890   22.7250   37.8810 C   0  0  0  0  0  3  0  0  0  0  0  0
   38.6450   23.4460   38.1820 C   0  0  0  0  0  3  0  0  0  0  0  0
   38.1110   24.3680   37.3380 N   0  0  0  0  0  0  0  0  0  0  0  0
  1  2  1  0  0  0  0
  2  3  2  0  0  0  0
  2 22  1  0  0  0  0
  3 13  1  0  0  0  0
  4  3  1  0  0  0  0
  5  4  2  0  0  0  0
  6  5  1  0  0  0  0
  6  1  2  0  0  0  0
  7  8  1  0  0  0  0
  7  5  1  0  0  0  0
  8 15  1  0  0  0  0
  9 17  1  0  0  0  0
  9  8  1  0  0  0  0
 10 11  1  0  0  0  0
 10 18  1  0  0  0  0
 10  9  1  0  0  0  0
 11 20  1  0  0  0  0
 11  7  1  0  0  0  0
 12  1  1  0  0  0  0
 14  8  1  0  0  0  0
 16  9  1  0  0  0  0
 19 10  1  0  0  0  0
 21 11  1  0  0  0  0
 22 29  1  0  0  0  0
 23 22  2  0  0  0  0
 23 25  1  0  0  0  0
 24 23  1  0  0  0  0
 25 27  2  0  0  0  0
 26 25  1  0  0  0  0
 27 28  1  0  0  0  0
 29 28  2  0  0  0  0
M  END
>  <minimizedAffinity>
-4.90160513

$$$$

 OpenBabel03272510073D

 29 31  0  0  0  0  0  0  0  0999 V2000
   38.2910   26.6950   35.8300 C   0  0  0  0  0  0  0  0  0  0  0  0
   38.3770   25.3970   35.3170 C   0  0  0  0  0  0  0  0  0  0  0  0
   37.7560   25.1640   34.0910 C   0  0  0  0  0  0  0  0  0  0  0  0
   37.1160   26.1870   33.4740 N   0  0  0  0  0  0  0  0  0  0  0  0
   37.0530   27.4220   33.9980 C   0  0  0  0  0  0  0  0  0  0  0  0
   37.6320   27.6920   35.1690 N   0  0  0  0  0  0  0  0  0  0  0  0
   36.3490   28.4380   33.2660 N   0  0  0  0  0  0  0  0  0  0  0  0
   36.7180   28.8660   31.9340 C   0  0  0  0  0  0  0  0  0  0  0  0
   35.5900   29.7400   31.5010 C   0  0  0  0  0  0  0  0  0  0  0  0
   34.4840   29.5640   32.5150 C   0  0  0  0  0  0  0  0  0  0  0  0
   35.1870   29.1600   33.7680 C   0  0  0  0  0  0  0  0  0  0  0  0
   38.7400   26.9870   36.7810 H   0  0  0  0  0  0  0  0  0  0  0  0
   37.8160   24.1670   33.6830 H   0  0  0  0  0  0  0  0  0  0  0  0
   37.6850   29.4330   32.0090 H   0  0  0  0  0  0  0  0  0  0  0  0
   36.9390   28.0280   31.2430 H   0  0  0  0  0  0  0  0  0  0  0  0
   35.8670   30.8020   31.3640 H   0  0  0  0  0  0  0  0  0  0  0  0
   35.2080   29.3470   30.5170 H   0  0  0  0  0  0  0  0  0  0  0  0
   33.6920   28.8940   32.1760 H   0  0  0  0  0  0  0  0  0  0  0  0
   34.0540   30.5700   32.6890 H   0  0  0  0  0  0  0  0  0  0  0  0
   34.5620   28.3870   34.2750 H   0  0  0  0  0  0  0  0  0  0  0  0
   35.4740   29.9720   34.4340 H   0  0  0  0  0  0  0  0  0  0  0  0
   39.0980   24.4000   36.0880 C   0  0  0  0  0  0  0  0  0  0  0  0
   40.2920   23.8560   35.6780 C   0  0  0  0  0  0  0  0  0  0  0  0
   40.7480   24.1550   34.7540 H   0  0  0  0  0  0  0  0  0  0  0  0
   40.9860   22.9060   36.4030 C   0  0  0  0  0  0  0  0  0  0  0  0
   41.9270   22.4800   36.0780 H   0  0  0  0  0  0  0  0  0  0  0  0
   40.3980   22.5130   37.6070 C   0  0  0  0  0  3  0  0  0  0  0  0
   39.1930   23.0790   37.9930 C   0  0  0  0  0  3  0  0  0  0  0  0
   38.5440   24.0120   37.2470 N   0  0  0  0  0  0  0  0  0  0  0  0
  1 12  1  0  0  0  0
  2  1  1  0  0  0  0
  2 22  1  0  0  0  0
  3  2  2  0  0  0  0
  4  5  2  0  0  0  0
  4  3  1  0  0  0  0
  5  6  1  0  0  0  0
  6  1  2  0  0  0  0
  7 11  1  0  0  0  0
  7  5  1  0  0  0  0
  8 14  1  0  0  0  0
  8  7  1  0  0  0  0
  9  8  1  0  0  0  0
  9 10  1  0  0  0  0
 10 19  1  0  0  0  0
 10 11  1  0  0  0  0
 11 20  1  0  0  0  0
 11 21  1  0  0  0  0
 13  3  1  0  0  0  0
 15  8  1  0  0  0  0
 16  9  1  0  0  0  0
 17  9  1  0  0  0  0
 18 10  1  0  0  0  0
 22 29  1  0  0  0  0
 23 22  2  0  0  0  0
 23 25  1  0  0  0  0
 24 23  1  0  0  0  0
 25 27  2  0  0  0  0
 26 25  1  0  0  0  0
 27 28  1  0  0  0  0
 29 28  2  0  0  0  0
M  END
>  <minimizedAffinity>
-4.8970542

$$$$

 OpenBabel03272510073D

 29 31  0  0  0  0  0  0  0  0999 V2000
   37.1100   25.4690   32.0890 C   0  0  0  0  0  0  0  0  0  0  0  0
   36.0780   26.1840   31.4750 C   0  0  0  0  0  0  0  0  0  0  0  0
   35.0360   25.4370   30.9260 C   0  0  0  0  0  0  0  0  0  0  0  0
   35.0780   24.0860   31.0160 N   0  0  0  0  0  0  0  0  0  0  0  0
   36.0870   23.4320   31.6130 C   0  0  0  0  0  0  0  0  0  0  0  0
   37.1070   24.1040   32.1520 N   0  0  0  0  0  0  0  0  0  0  0  0
   36.0390   21.9970   31.6570 N   0  0  0  0  0  0  0  0  0  0  0  0
   34.9820   21.2500   32.3030 C   0  0  0  0  0  0  0  0  0  0  0  0
   35.2240   19.8370   31.8920 C   0  0  0  0  0  0  0  0  0  0  0  0
   36.2690   19.8690   30.8020 C   0  0  0  0  0  0  0  0  0  0  0  0
   37.0400   21.1210   31.0600 C   0  0  0  0  0  0  0  0  0  0  0  0
   37.9740   25.9520   32.5490 H   0  0  0  0  0  0  0  0  0  0  0  0
   34.2320   25.9770   30.4500 H   0  0  0  0  0  0  0  0  0  0  0  0
   35.0900   21.3910   33.4130 H   0  0  0  0  0  0  0  0  0  0  0  0
   33.9660   21.6260   32.0710 H   0  0  0  0  0  0  0  0  0  0  0  0
   35.5080   19.1660   32.7250 H   0  0  0  0  0  0  0  0  0  0  0  0
   34.2730   19.4440   31.4340 H   0  0  0  0  0  0  0  0  0  0  0  0
   35.8500   19.7660   29.8000 H   0  0  0  0  0  0  0  0  0  0  0  0
   36.9510   19.0170   30.9960 H   0  0  0  0  0  0  0  0  0  0  0  0
   37.2800   21.5820   30.0740 H   0  0  0  0  0  0  0  0  0  0  0  0
   37.9150   21.0160   31.6990 H   0  0  0  0  0  0  0  0  0  0  0  0
   36.1640   27.6330   31.4530 C   0  0  0  0  0  0  0  0  0  0  0  0
   35.8370   28.4190   32.5320 C   0  0  0  0  0  0  0  0  0  0  0  0
   35.4980   27.9830   33.4520 H   0  0  0  0  0  0  0  0  0  0  0  0
   35.9150   29.7990   32.5230 C   0  0  0  0  0  0  0  0  0  0  0  0
   35.6570   30.4150   33.3750 H   0  0  0  0  0  0  0  0  0  0  0  0
   36.3560   30.3730   31.3280 C   0  0  0  0  0  3  0  0  0  0  0  0
   36.6780   29.5540   30.2570 C   0  0  0  0  0  3  0  0  0  0  0  0
   36.5860   28.1990   30.3120 N   0  0  0  0  0  0  0  0  0  0  0  0
  1  6  1  0  0  0  0
  1 12  1  0  0  0  0
  2  1  2  0  0  0  0
  3  4  2  0  0  0  0
  3  2  1  0  0  0  0
  4  5  1  0  0  0  0
  5  7  1  0  0  0  0
  5  6  2  0  0  0  0
  7  8  1  0  0  0  0
  8 14  1  0  0  0  0
  9  8  1  0  0  0  0
  9 16  1  0  0  0  0
 10 19  1  0  0  0  0
 10 11  1  0  0  0  0
 10  9  1  0  0  0  0
 11  7  1  0  0  0  0
 11 21  1  0  0  0  0
 13  3  1  0  0  0  0
 15  8  1  0  0  0  0
 17  9  1  0  0  0  0
 18 10  1  0  0  0  0
 20 11  1  0  0  0  0
 22  2  1  0  0  0  0
 22 23  1  0  0  0  0
 23 24  1  0  0  0  0
 25 23  2  0  0  0  0
 25 26  1  0  0  0  0
 27 25  1  0  0  0  0
 28 29  1  0  0  0  0
 28 27  2  0  0  0  0
 29 22  2  0  0  0  0
M  END
>  <minimizedAffinity>
-4.8284831

$$$$

 OpenBabel03272510073D

 29 31  0  0  0  0  0  0  0  0999 V2000
   35.0810   28.9770   32.7890 C   0  0  0  0  0  0  0  0  0  0  0  0
   35.6080   29.1340   34.0740 C   0  0  0  0  0  0  0  0  0  0  0  0
   36.5570   28.1980   34.4830 C   0  0  0  0  0  0  0  0  0  0  0  0
   36.9100   27.2060   33.6300 N   0  0  0  0  0  0  0  0  0  0  0  0
   36.3810   27.0850   32.4020 C   0  0  0  0  0  0  0  0  0  0  0  0
   35.4700   27.9580   31.9670 N   0  0  0  0  0  0  0  0  0  0  0  0
   36.8220   25.9980   31.5730 N   0  0  0  0  0  0  0  0  0  0  0  0
   38.1960   25.8140   31.1560 C   0  0  0  0  0  0  0  0  0  0  0  0
   38.2140   24.4610   30.5300 C   0  0  0  0  0  0  0  0  0  0  0  0
   36.8900   23.8100   30.8520 C   0  0  0  0  0  0  0  0  0  0  0  0
   35.9500   24.9530   31.0520 C   0  0  0  0  0  0  0  0  0  0  0  0
   34.3330   29.6510   32.3690 H   0  0  0  0  0  0  0  0  0  0  0  0
   36.9720   28.3080   35.4720 H   0  0  0  0  0  0  0  0  0  0  0  0
   38.4430   26.6250   30.4180 H   0  0  0  0  0  0  0  0  0  0  0  0
   38.9300   25.9500   31.9750 H   0  0  0  0  0  0  0  0  0  0  0  0
   38.4240   24.4690   29.4430 H   0  0  0  0  0  0  0  0  0  0  0  0
   39.0170   23.8570   31.0380 H   0  0  0  0  0  0  0  0  0  0  0  0
   36.9500   23.0940   31.6740 H   0  0  0  0  0  0  0  0  0  0  0  0
   36.5700   23.2780   29.9340 H   0  0  0  0  0  0  0  0  0  0  0  0
   35.2720   24.6920   31.8980 H   0  0  0  0  0  0  0  0  0  0  0  0
   35.4100   25.2840   30.1670 H   0  0  0  0  0  0  0  0  0  0  0  0
   35.1360   30.2460   34.8790 C   0  0  0  0  0  0  0  0  0  0  0  0
   35.9810   31.0870   35.5650 C   0  0  0  0  0  0  0  0  0  0  0  0
   37.0450   30.9500   35.5290 H   0  0  0  0  0  0  0  0  0  0  0  0
   35.5430   32.1480   36.3340 C   0  0  0  0  0  0  0  0  0  0  0  0
   36.2110   32.8080   36.8720 H   0  0  0  0  0  0  0  0  0  0  0  0
   34.1590   32.3300   36.3830 C   0  0  0  0  0  3  0  0  0  0  0  0
   33.3330   31.4660   35.6820 C   0  0  0  0  0  3  0  0  0  0  0  0
   33.8080   30.4340   34.9370 N   0  0  0  0  0  0  0  0  0  0  0  0
  1  2  1  0  0  0  0
  2  3  2  0  0  0  0
  2 22  1  0  0  0  0
  3 13  1  0  0  0  0
  4  3  1  0  0  0  0
  5  4  2  0  0  0  0
  6  5  1  0  0  0  0
  6  1  2  0  0  0  0
  7  5  1  0  0  0  0
  8  7  1  0  0  0  0
  8 15  1  0  0  0  0
  9 10  1  0  0  0  0
  9 17  1  0  0  0  0
  9  8  1  0  0  0  0
 10 11  1  0  0  0  0
 10 18  1  0  0  0  0
 11  7  1  0  0  0  0
 11 20  1  0  0  0  0
 12  1  1  0  0  0  0
 14  8  1  0  0  0  0
 16  9  1  0  0  0  0
 19 10  1  0  0  0  0
 21 11  1  0  0  0  0
 22 29  2  0  0  0  0
 22 23  1  0  0  0  0
 23 25  2  0  0  0  0
 24 23  1  0  0  0  0
 25 27  1  0  0  0  0
 25 26  1  0  0  0  0
 28 27  2  0  0  0  0
 29 28  1  0  0  0  0
M  END
>  <minimizedAffinity>
-4.80481005

$$$$

 OpenBabel03272510073D

 29 31  0  0  0  0  0  0  0  0999 V2000
   37.5510   25.6040   33.2430 C   0  0  0  0  0  0  0  0  0  0  0  0
   38.3120   26.7690   33.1090 C   0  0  0  0  0  0  0  0  0  0  0  0
   39.3350   26.9610   34.0360 C   0  0  0  0  0  0  0  0  0  0  0  0
   39.5350   26.0280   34.9970 N   0  0  0  0  0  0  0  0  0  0  0  0
   38.7830   24.9200   35.0960 C   0  0  0  0  0  0  0  0  0  0  0  0
   37.7920   24.6930   34.2320 N   0  0  0  0  0  0  0  0  0  0  0  0
   39.0750   23.9900   36.1520 N   0  0  0  0  0  0  0  0  0  0  0  0
   40.3460   23.3140   36.2960 C   0  0  0  0  0  0  0  0  0  0  0  0
   40.2660   22.6560   37.6310 C   0  0  0  0  0  0  0  0  0  0  0  0
   39.0370   23.2040   38.3180 C   0  0  0  0  0  0  0  0  0  0  0  0
   38.1350   23.6130   37.2000 C   0  0  0  0  0  0  0  0  0  0  0  0
   36.7270   25.3540   32.5740 H   0  0  0  0  0  0  0  0  0  0  0  0
   39.9300   27.8570   33.9430 H   0  0  0  0  0  0  0  0  0  0  0  0
   40.4350   22.5660   35.4610 H   0  0  0  0  0  0  0  0  0  0  0  0
   41.2210   23.9810   36.1670 H   0  0  0  0  0  0  0  0  0  0  0  0
   40.2640   21.5500   37.5910 H   0  0  0  0  0  0  0  0  0  0  0  0
   41.1600   22.9840   38.2310 H   0  0  0  0  0  0  0  0  0  0  0  0
   39.2640   23.9780   39.0540 H   0  0  0  0  0  0  0  0  0  0  0  0
   38.5560   22.3490   38.8320 H   0  0  0  0  0  0  0  0  0  0  0  0
   37.6350   24.5650   37.4980 H   0  0  0  0  0  0  0  0  0  0  0  0
   37.4310   22.8570   36.8580 H   0  0  0  0  0  0  0  0  0  0  0  0
   37.9850   27.6820   32.0290 C   0  0  0  0  0  0  0  0  0  0  0  0
   36.8720   28.4900   32.0410 C   0  0  0  0  0  0  0  0  0  0  0  0
   36.1880   28.4760   32.8680 H   0  0  0  0  0  0  0  0  0  0  0  0
   36.5510   29.3620   31.0190 C   0  0  0  0  0  0  0  0  0  0  0  0
   35.6740   29.9970   31.0320 H   0  0  0  0  0  0  0  0  0  0  0  0
   37.4370   29.3830   29.9400 C   0  0  0  0  0  3  0  0  0  0  0  0
   38.5500   28.5570   29.9550 C   0  0  0  0  0  3  0  0  0  0  0  0
   38.8270   27.7140   30.9840 N   0  0  0  0  0  0  0  0  0  0  0  0
  1  6  1  0  0  0  0
  2  1  2  0  0  0  0
  2  3  1  0  0  0  0
  3  4  2  0  0  0  0
  4  5  1  0  0  0  0
  5  7  1  0  0  0  0
  6  5  2  0  0  0  0
  7  8  1  0  0  0  0
  7 11  1  0  0  0  0
  8  9  1  0  0  0  0
  9 17  1  0  0  0  0
  9 10  1  0  0  0  0
 10 19  1  0  0  0  0
 10 18  1  0  0  0  0
 11 20  1  0  0  0  0
 11 10  1  0  0  0  0
 12  1  1  0  0  0  0
 13  3  1  0  0  0  0
 14  8  1  0  0  0  0
 15  8  1  0  0  0  0
 16  9  1  0  0  0  0
 21 11  1  0  0  0  0
 22 23  1  0  0  0  0
 22  2  1  0  0  0  0
 23 24  1  0  0  0  0
 25 26  1  0  0  0  0
 25 23  2  0  0  0  0
 27 28  2  0  0  0  0
 27 25  1  0  0  0  0
 28 29  1  0  0  0  0
 29 22  2  0  0  0  0
M  END
>  <minimizedAffinity>
-4.74714804

$$$$

 OpenBabel03272510073D

 29 31  0  0  0  0  0  0  0  0999 V2000
   37.6130   25.4210   33.5490 C   0  0  0  0  0  0  0  0  0  0  0  0
   37.8990   26.7740   33.7500 C   0  0  0  0  0  0  0  0  0  0  0  0
   38.9130   27.0730   34.6600 C   0  0  0  0  0  0  0  0  0  0  0  0
   39.5530   26.0560   35.2870 N   0  0  0  0  0  0  0  0  0  0  0  0
   39.2500   24.7670   35.0690 C   0  0  0  0  0  0  0  0  0  0  0  0
   38.2870   24.4320   34.2070 N   0  0  0  0  0  0  0  0  0  0  0  0
   39.9870   23.7620   35.7840 N   0  0  0  0  0  0  0  0  0  0  0  0
   41.4200   23.5930   35.6780 C   0  0  0  0  0  0  0  0  0  0  0  0
   41.7580   22.6170   36.7530 C   0  0  0  0  0  0  0  0  0  0  0  0
   40.5240   22.4640   37.6110 C   0  0  0  0  0  0  0  0  0  0  0  0
   39.3900   22.7970   36.6980 C   0  0  0  0  0  0  0  0  0  0  0  0
   36.8400   25.0750   32.8610 H   0  0  0  0  0  0  0  0  0  0  0  0
   39.1440   28.1140   34.8240 H   0  0  0  0  0  0  0  0  0  0  0  0
   41.6440   23.1870   34.6540 H   0  0  0  0  0  0  0  0  0  0  0  0
   41.9850   24.5450   35.7300 H   0  0  0  0  0  0  0  0  0  0  0  0
   42.1310   21.6440   36.3800 H   0  0  0  0  0  0  0  0  0  0  0  0
   42.5590   23.0760   37.3970 H   0  0  0  0  0  0  0  0  0  0  0  0
   40.5710   23.0360   38.5390 H   0  0  0  0  0  0  0  0  0  0  0  0
   40.4430   21.3870   37.8560 H   0  0  0  0  0  0  0  0  0  0  0  0
   38.6400   23.3770   37.2850 H   0  0  0  0  0  0  0  0  0  0  0  0
   38.9490   21.9570   36.1640 H   0  0  0  0  0  0  0  0  0  0  0  0
   37.1310   27.7570   33.0080 C   0  0  0  0  0  0  0  0  0  0  0  0
   37.3750   28.0570   31.6880 C   0  0  0  0  0  0  0  0  0  0  0  0
   38.1590   27.5650   31.1450 H   0  0  0  0  0  0  0  0  0  0  0  0
   36.6510   28.9900   30.9710 C   0  0  0  0  0  0  0  0  0  0  0  0
   36.8460   29.2240   29.9320 H   0  0  0  0  0  0  0  0  0  0  0  0
   35.6300   29.6340   31.6730 C   0  0  0  0  0  3  0  0  0  0  0  0
   35.4080   29.3110   33.0030 C   0  0  0  0  0  3  0  0  0  0  0  0
   36.1460   28.3840   33.6690 N   0  0  0  0  0  0  0  0  0  0  0  0
  1  2  2  0  0  0  0
  1  6  1  0  0  0  0
  2  3  1  0  0  0  0
  3 13  1  0  0  0  0
  3  4  2  0  0  0  0
  5  4  1  0  0  0  0
  5  7  1  0  0  0  0
  6  5  2  0  0  0  0
  7 11  1  0  0  0  0
  8 15  1  0  0  0  0
  8  7  1  0  0  0  0
  8  9  1  0  0  0  0
  9 17  1  0  0  0  0
  9 10  1  0  0  0  0
 10 19  1  0  0  0  0
 10 18  1  0  0  0  0
 11 20  1  0  0  0  0
 11 10  1  0  0  0  0
 12  1  1  0  0  0  0
 14  8  1  0  0  0  0
 16  9  1  0  0  0  0
 21 11  1  0  0  0  0
 22 29  1  0  0  0  0
 22  2  1  0  0  0  0
 23 22  2  0  0  0  0
 24 23  1  0  0  0  0
 25 27  2  0  0  0  0
 25 23  1  0  0  0  0
 26 25  1  0  0  0  0
 27 28  1  0  0  0  0
 28 29  2  0  0  0  0
M  END
>  <minimizedAffinity>
-4.66850376

$$$$

 OpenBabel03272510073D

 29 31  0  0  0  0  0  0  0  0999 V2000
   35.6320   23.9280   31.1660 C   0  0  0  0  0  0  0  0  0  0  0  0
   36.5340   24.5470   32.0360 C   0  0  0  0  0  0  0  0  0  0  0  0
   37.3000   23.7090   32.8460 C   0  0  0  0  0  0  0  0  0  0  0  0
   37.1330   22.3680   32.7480 N   0  0  0  0  0  0  0  0  0  0  0  0
   36.2550   21.8090   31.9010 C   0  0  0  0  0  0  0  0  0  0  0  0
   35.5000   22.5700   31.1060 N   0  0  0  0  0  0  0  0  0  0  0  0
   36.1520   20.3760   31.8720 N   0  0  0  0  0  0  0  0  0  0  0  0
   37.2540   19.5000   31.5360 C   0  0  0  0  0  0  0  0  0  0  0  0
   36.7550   18.1350   31.8660 C   0  0  0  0  0  0  0  0  0  0  0  0
   35.4650   18.3120   32.6330 C   0  0  0  0  0  0  0  0  0  0  0  0
   34.9370   19.6320   32.1760 C   0  0  0  0  0  0  0  0  0  0  0  0
   34.9830   24.4870   30.4900 H   0  0  0  0  0  0  0  0  0  0  0  0
   38.0020   24.1740   33.5220 H   0  0  0  0  0  0  0  0  0  0  0  0
   37.4650   19.6180   30.4390 H   0  0  0  0  0  0  0  0  0  0  0  0
   38.2060   19.7720   32.0340 H   0  0  0  0  0  0  0  0  0  0  0  0
   36.6320   17.4740   30.9880 H   0  0  0  0  0  0  0  0  0  0  0  0
   37.4960   17.6560   32.5650 H   0  0  0  0  0  0  0  0  0  0  0  0
   35.5850   18.1960   33.7110 H   0  0  0  0  0  0  0  0  0  0  0  0
   34.7700   17.5330   32.2630 H   0  0  0  0  0  0  0  0  0  0  0  0
   34.4940   20.1460   33.0610 H   0  0  0  0  0  0  0  0  0  0  0  0
   34.2590   19.6020   31.3240 H   0  0  0  0  0  0  0  0  0  0  0  0
   36.6080   25.9960   32.0330 C   0  0  0  0  0  0  0  0  0  0  0  0
   36.9660   26.7310   33.1390 C   0  0  0  0  0  0  0  0  0  0  0  0
   37.2120   26.2490   34.0670 H   0  0  0  0  0  0  0  0  0  0  0  0
   37.0390   28.1100   33.1490 C   0  0  0  0  0  0  0  0  0  0  0  0
   37.3220   28.6860   34.0210 H   0  0  0  0  0  0  0  0  0  0  0  0
   36.7200   28.7420   31.9440 C   0  0  0  0  0  3  0  0  0  0  0  0
   36.3620   27.9750   30.8460 C   0  0  0  0  0  3  0  0  0  0  0  0
   36.3040   26.6180   30.8830 N   0  0  0  0  0  0  0  0  0  0  0  0
  1  2  1  0  0  0  0
  2  3  2  0  0  0  0
  3 13  1  0  0  0  0
  4  3  1  0  0  0  0
  5  4  2  0  0  0  0
  6  1  2  0  0  0  0
  6  5  1  0  0  0  0
  7  5  1  0  0  0  0
  7 11  1  0  0  0  0
  8  9  1  0  0  0  0
  8  7  1  0  0  0  0
  8 15  1  0  0  0  0
  9 17  1  0  0  0  0
  9 10  1  0  0  0  0
 10 18  1  0  0  0  0
 11 10  1  0  0  0  0
 11 20  1  0  0  0  0
 12  1  1  0  0  0  0
 14  8  1  0  0  0  0
 16  9  1  0  0  0  0
 19 10  1  0  0  0  0
 21 11  1  0  0  0  0
 22  2  1  0  0  0  0
 22 23  1  0  0  0  0
 23 25  2  0  0  0  0
 23 24  1  0  0  0  0
 25 26  1  0  0  0  0
 27 25  1  0  0  0  0
 28 29  1  0  0  0  0
 28 27  2  0  0  0  0
 29 22  2  0  0  0  0
M  END
>  <minimizedAffinity>
-4.59452677

$$$$
