
 OpenBabel03272510203D

 35 38  0  0  0  0  0  0  0  0999 V2000
   37.3790   29.1710   50.8140 Br  0  0  0  0  0  0  0  0  0  0  0  0
   35.9740   29.2790   49.5220 C   0  0  0  0  0  0  0  0  0  0  0  0
   35.9760   30.2730   48.5540 C   0  0  0  0  0  0  0  0  0  0  0  0
   34.9330   30.2880   47.6580 C   0  0  0  0  0  0  0  0  0  0  0  0
   33.8970   29.3710   47.6780 C   0  0  0  0  0  0  0  0  0  0  0  0
   33.9300   28.4130   48.6410 C   0  0  0  0  0  0  0  0  0  0  0  0
   34.9630   28.3720   49.5540 C   0  0  0  0  0  0  0  0  0  0  0  0
   34.8800   31.0460   46.8750 H   0  0  0  0  0  0  0  0  0  0  0  0
   33.1590   27.6410   48.7430 H   0  0  0  0  0  0  0  0  0  0  0  0
   34.9790   27.5980   50.3210 H   0  0  0  0  0  0  0  0  0  0  0  0
   38.0010   33.1710   49.4650 C   0  0  0  0  0  0  0  0  0  0  0  0
   39.0250   33.1740   48.4710 C   0  0  0  0  0  0  0  0  0  0  0  0
   38.9960   32.1850   47.5160 C   0  0  0  0  0  0  0  0  0  0  0  0
   37.9980   31.2410   47.5480 N   0  0  0  0  0  0  0  0  0  0  0  0
   37.0480   31.2620   48.4940 C   0  0  0  0  0  0  0  0  0  0  0  0
   37.0600   32.2280   49.4430 N   0  0  0  0  0  0  0  0  0  0  0  0
   38.0060   33.9410   50.2250 H   0  0  0  0  0  0  0  0  0  0  0  0
   39.7920   33.9420   48.4890 H   0  0  0  0  0  0  0  0  0  0  0  0
   39.7470   32.1360   46.7370 H   0  0  0  0  0  0  0  0  0  0  0  0
   32.7990   29.3870   46.7360 C   0  0  0  0  0  0  0  0  0  0  0  0
   31.9820   28.3130   46.4570 C   0  0  0  0  0  0  0  0  0  0  0  0
   30.9390   28.3810   45.5390 C   0  0  0  0  0  0  0  0  0  0  0  0
   30.6980   29.5300   44.8870 N   0  0  0  0  0  0  0  0  0  0  0  0
   31.4880   30.5770   45.1530 C   0  0  0  0  0  0  0  0  0  0  0  0
   32.4930   30.4960   46.0420 N   0  0  0  0  0  0  0  0  0  0  0  0
   32.1720   27.3730   46.9850 H   0  0  0  0  0  0  0  0  0  0  0  0
   30.3080   27.5220   45.3370 H   0  0  0  0  0  0  0  0  0  0  0  0
   31.2560   31.8420   44.4610 C   0  0  0  0  0  0  0  0  0  0  0  0
   31.7580   33.0280   44.9650 C   0  0  0  0  0  0  0  0  0  0  0  0
   32.3200   32.9380   45.8870 H   0  0  0  0  0  0  0  0  0  0  0  0
   31.5240   34.2110   44.2910 C   0  0  0  0  0  0  0  0  0  0  0  0
   31.9770   35.0530   44.8040 H   0  0  0  0  0  0  0  0  0  0  0  0
   30.8010   34.2400   43.1280 C   0  0  0  0  0  3  0  0  0  0  0  0
   30.3200   33.0440   42.6590 C   0  0  0  0  0  3  0  0  0  0  0  0
   30.5450   31.8770   43.3150 N   0  0  0  0  0  0  0  0  0  0  0  0
  2  7  1  0  0  0  0
  2  1  1  0  0  0  0
  3  2  2  0  0  0  0
  4  5  2  0  0  0  0
  4  3  1  0  0  0  0
  5  6  1  0  0  0  0
  6  9  1  0  0  0  0
  6  7  2  0  0  0  0
  7 10  1  0  0  0  0
  8  4  1  0  0  0  0
 11 17  1  0  0  0  0
 12 18  1  0  0  0  0
 12 11  2  0  0  0  0
 13 14  2  0  0  0  0
 13 12  1  0  0  0  0
 14 15  1  0  0  0  0
 15  3  1  0  0  0  0
 15 16  2  0  0  0  0
 16 11  1  0  0  0  0
 19 13  1  0  0  0  0
 20  5  1  0  0  0  0
 21 20  1  0  0  0  0
 21 26  1  0  0  0  0
 22 21  2  0  0  0  0
 23 24  2  0  0  0  0
 23 22  1  0  0  0  0
 24 25  1  0  0  0  0
 25 20  2  0  0  0  0
 27 22  1  0  0  0  0
 28 29  1  0  0  0  0
 28 24  1  0  0  0  0
 29 30  1  0  0  0  0
 31 32  1  0  0  0  0
 31 29  2  0  0  0  0
 33 31  1  0  0  0  0
 34 33  2  0  0  0  0
 34 35  1  0  0  0  0
 35 28  2  0  0  0  0
M  END
>  <minimizedAffinity>
-6.66852331

>  <minimizedRMSD>
0.657574356

$$$$
