
 OpenBabel03272510203D

 35 38  0  0  0  0  0  0  0  0999 V2000
   37.3790   29.1710   50.8140 Br  0  0  0  0  0  0  0  0  0  0  0  0
   35.9740   29.2790   49.5230 C   0  0  0  0  0  0  0  0  0  0  0  0
   35.9760   30.2740   48.5550 C   0  0  0  0  0  0  0  0  0  0  0  0
   34.9330   30.2880   47.6580 C   0  0  0  0  0  0  0  0  0  0  0  0
   33.8970   29.3710   47.6790 C   0  0  0  0  0  0  0  0  0  0  0  0
   33.9310   28.4120   48.6420 C   0  0  0  0  0  0  0  0  0  0  0  0
   34.9630   28.3720   49.5540 C   0  0  0  0  0  0  0  0  0  0  0  0
   34.8800   31.0460   46.8750 H   0  0  0  0  0  0  0  0  0  0  0  0
   33.1590   27.6400   48.7430 H   0  0  0  0  0  0  0  0  0  0  0  0
   34.9790   27.5980   50.3210 H   0  0  0  0  0  0  0  0  0  0  0  0
   38.0010   33.1720   49.4650 C   0  0  0  0  0  0  0  0  0  0  0  0
   39.0250   33.1750   48.4710 C   0  0  0  0  0  0  0  0  0  0  0  0
   38.9950   32.1860   47.5160 C   0  0  0  0  0  0  0  0  0  0  0  0
   37.9980   31.2420   47.5480 N   0  0  0  0  0  0  0  0  0  0  0  0
   37.0480   31.2620   48.4940 C   0  0  0  0  0  0  0  0  0  0  0  0
   37.0600   32.2280   49.4430 N   0  0  0  0  0  0  0  0  0  0  0  0
   38.0060   33.9400   50.2260 H   0  0  0  0  0  0  0  0  0  0  0  0
   39.7920   33.9430   48.4890 H   0  0  0  0  0  0  0  0  0  0  0  0
   39.7460   32.1380   46.7360 H   0  0  0  0  0  0  0  0  0  0  0  0
   32.7990   29.3870   46.7370 C   0  0  0  0  0  0  0  0  0  0  0  0
   31.9820   28.3130   46.4570 C   0  0  0  0  0  0  0  0  0  0  0  0
   30.9390   28.3800   45.5400 C   0  0  0  0  0  0  0  0  0  0  0  0
   30.6980   29.5300   44.8880 N   0  0  0  0  0  0  0  0  0  0  0  0
   31.4870   30.5770   45.1540 C   0  0  0  0  0  0  0  0  0  0  0  0
   32.4920   30.4950   46.0430 N   0  0  0  0  0  0  0  0  0  0  0  0
   32.1730   27.3730   46.9850 H   0  0  0  0  0  0  0  0  0  0  0  0
   30.3090   27.5210   45.3370 H   0  0  0  0  0  0  0  0  0  0  0  0
   31.2540   31.8410   44.4630 C   0  0  0  0  0  0  0  0  0  0  0  0
   31.7570   33.0270   44.9640 C   0  0  0  0  0  0  0  0  0  0  0  0
   32.3200   32.9390   45.8840 H   0  0  0  0  0  0  0  0  0  0  0  0
   31.5210   34.2090   44.2890 C   0  0  0  0  0  0  0  0  0  0  0  0
   31.9760   35.0520   44.8000 H   0  0  0  0  0  0  0  0  0  0  0  0
   30.7960   34.2380   43.1270 C   0  0  0  0  0  3  0  0  0  0  0  0
   30.3140   33.0420   42.6600 C   0  0  0  0  0  3  0  0  0  0  0  0
   30.5410   31.8760   43.3170 N   0  0  0  0  0  0  0  0  0  0  0  0
  2  7  1  0  0  0  0
  2  1  1  0  0  0  0
  3  2  2  0  0  0  0
  4  5  2  0  0  0  0
  4  3  1  0  0  0  0
  5  6  1  0  0  0  0
  6  9  1  0  0  0  0
  6  7  2  0  0  0  0
  7 10  1  0  0  0  0
  8  4  1  0  0  0  0
 11 17  1  0  0  0  0
 12 18  1  0  0  0  0
 12 11  2  0  0  0  0
 13 14  2  0  0  0  0
 13 12  1  0  0  0  0
 14 15  1  0  0  0  0
 15  3  1  0  0  0  0
 15 16  2  0  0  0  0
 16 11  1  0  0  0  0
 19 13  1  0  0  0  0
 20  5  1  0  0  0  0
 21 20  1  0  0  0  0
 21 26  1  0  0  0  0
 22 21  2  0  0  0  0
 23 24  2  0  0  0  0
 23 22  1  0  0  0  0
 24 25  1  0  0  0  0
 25 20  2  0  0  0  0
 27 22  1  0  0  0  0
 28 29  1  0  0  0  0
 28 24  1  0  0  0  0
 29 30  1  0  0  0  0
 31 32  1  0  0  0  0
 31 29  2  0  0  0  0
 33 31  1  0  0  0  0
 34 33  2  0  0  0  0
 34 35  1  0  0  0  0
 35 28  2  0  0  0  0
M  END
>  <minimizedAffinity>
-6.66931534

>  <minimizedRMSD>
0.632671654

$$$$
