
 OpenBabel03272500303D

 27 29  0  0  0  0  0  0  0  0999 V2000
   36.6590   30.3190   46.0950 Cl  0  0  0  0  0  0  0  0  0  0  0  0
   36.9370   30.5720   47.8020 C   0  0  0  0  0  0  0  0  0  0  0  0
   38.1080   31.2280   48.1320 C   0  0  0  0  0  0  0  0  0  0  0  0
   38.3570   31.4450   49.4970 C   0  0  0  0  0  0  0  0  0  0  0  0
   37.4370   30.9990   50.4260 C   0  0  0  0  0  0  0  0  0  0  0  0
   36.3060   30.3600   50.0290 C   0  0  0  0  0  0  0  0  0  0  0  0
   36.0140   30.1240   48.7170 C   0  0  0  0  0  0  0  0  0  0  0  0
   39.2550   31.9540   49.8180 H   0  0  0  0  0  0  0  0  0  0  0  0
   37.6490   31.1780   51.4710 H   0  0  0  0  0  0  0  0  0  0  0  0
   35.5920   30.0160   50.7720 H   0  0  0  0  0  0  0  0  0  0  0  0
   40.1460   33.4740   46.1190 C   0  0  0  0  0  0  0  0  0  0  0  0
   40.8100   32.6190   45.2120 C   0  0  0  0  0  0  0  0  0  0  0  0
   40.5310   31.2540   45.3190 C   0  0  0  0  0  0  0  0  0  0  0  0
   39.6540   30.8210   46.2710 N   0  0  0  0  0  0  0  0  0  0  0  0
   39.0470   31.6790   47.1120 C   0  0  0  0  0  0  0  0  0  0  0  0
   39.2980   33.0110   47.0320 N   0  0  0  0  0  0  0  0  0  0  0  0
   40.3160   34.5410   46.0910 H   0  0  0  0  0  0  0  0  0  0  0  0
   41.4940   33.0420   44.4840 H   0  0  0  0  0  0  0  0  0  0  0  0
   41.0240   30.5700   44.6380 H   0  0  0  0  0  0  0  0  0  0  0  0
   34.8270   29.4470   48.2140 C   0  0  0  0  0  0  0  0  0  0  0  0
   34.5040   28.1450   48.5400 C   0  0  0  0  0  0  0  0  0  0  0  0
   35.1490   27.5810   49.1990 H   0  0  0  0  0  0  0  0  0  0  0  0
   33.3910   27.4720   48.0840 C   0  0  0  0  0  0  0  0  0  0  0  0
   33.1810   26.4630   48.3630 H   0  0  0  0  0  0  0  0  0  0  0  0
   32.5420   28.1560   47.2400 C   0  0  0  0  0  0  0  0  0  0  0  0
   32.8620   29.4600   46.9120 C   0  0  0  0  0  0  0  0  0  0  0  0
   33.9540   30.0410   47.3930 N   0  0  0  0  0  0  0  0  0  0  0  0
  1  2  1  0  0  0  0
  2  3  2  0  0  0  0
  2  7  1  0  0  0  0
  3  4  1  0  0  0  0
  4  8  1  0  0  0  0
  4  5  2  0  0  0  0
  5  9  1  0  0  0  0
  6  5  1  0  0  0  0
  6 10  1  0  0  0  0
  7  6  2  0  0  0  0
 11 16  1  0  0  0  0
 12 13  1  0  0  0  0
 12 11  2  0  0  0  0
 13 14  2  0  0  0  0
 14 15  1  0  0  0  0
 15  3  1  0  0  0  0
 16 15  2  0  0  0  0
 17 11  1  0  0  0  0
 18 12  1  0  0  0  0
 19 13  1  0  0  0  0
 20 21  1  0  0  0  0
 20  7  1  0  0  0  0
 21 22  1  0  0  0  0
 23 24  1  0  0  0  0
 23 21  2  0  0  0  0
 25 23  1  0  0  0  0
 26 25  2  0  0  0  0
 26 27  1  0  0  0  0
 27 20  2  0  0  0  0
M  END
>  <minimizedAffinity>
-6.39888191

>  <minimizedRMSD>
0.840069294

$$$$
