
 OpenBabel03272510203D

 35 38  0  0  0  0  0  0  0  0999 V2000
   37.4120   29.1600   50.8040 Br  0  0  0  0  0  0  0  0  0  0  0  0
   35.9970   29.2770   49.5240 C   0  0  0  0  0  0  0  0  0  0  0  0
   35.9910   30.2770   48.5620 C   0  0  0  0  0  0  0  0  0  0  0  0
   34.9410   30.2980   47.6740 C   0  0  0  0  0  0  0  0  0  0  0  0
   33.9060   29.3810   47.6970 C   0  0  0  0  0  0  0  0  0  0  0  0
   33.9470   28.4160   48.6540 C   0  0  0  0  0  0  0  0  0  0  0  0
   34.9860   28.3690   49.5570 C   0  0  0  0  0  0  0  0  0  0  0  0
   34.8820   31.0600   46.8960 H   0  0  0  0  0  0  0  0  0  0  0  0
   33.1760   27.6430   48.7560 H   0  0  0  0  0  0  0  0  0  0  0  0
   35.0080   27.5900   50.3190 H   0  0  0  0  0  0  0  0  0  0  0  0
   38.0120   33.1820   49.4640 C   0  0  0  0  0  0  0  0  0  0  0  0
   39.0390   33.1800   48.4730 C   0  0  0  0  0  0  0  0  0  0  0  0
   39.0140   32.1860   47.5240 C   0  0  0  0  0  0  0  0  0  0  0  0
   38.0170   31.2410   47.5580 N   0  0  0  0  0  0  0  0  0  0  0  0
   37.0640   31.2660   48.5000 C   0  0  0  0  0  0  0  0  0  0  0  0
   37.0720   32.2370   49.4430 N   0  0  0  0  0  0  0  0  0  0  0  0
   38.0130   33.9550   50.2200 H   0  0  0  0  0  0  0  0  0  0  0  0
   39.8060   33.9480   48.4890 H   0  0  0  0  0  0  0  0  0  0  0  0
   39.7670   32.1330   46.7470 H   0  0  0  0  0  0  0  0  0  0  0  0
   32.8010   29.4020   46.7630 C   0  0  0  0  0  0  0  0  0  0  0  0
   31.9650   28.3380   46.5020 C   0  0  0  0  0  0  0  0  0  0  0  0
   30.9160   28.4110   45.5930 C   0  0  0  0  0  0  0  0  0  0  0  0
   30.6870   29.5570   44.9300 N   0  0  0  0  0  0  0  0  0  0  0  0
   31.4940   30.5950   45.1780 C   0  0  0  0  0  0  0  0  0  0  0  0
   32.5050   30.5080   46.0590 N   0  0  0  0  0  0  0  0  0  0  0  0
   32.1460   27.4010   47.0400 H   0  0  0  0  0  0  0  0  0  0  0  0
   30.2710   27.5600   45.4050 H   0  0  0  0  0  0  0  0  0  0  0  0
   31.2750   31.8550   44.4740 C   0  0  0  0  0  0  0  0  0  0  0  0
   30.5910   31.8860   43.2720 C   0  0  0  0  0  0  0  0  0  0  0  0
   30.2450   30.9260   42.9110 H   0  0  0  0  0  0  0  0  0  0  0  0
   30.3970   33.0930   42.6280 C   0  0  0  0  0  0  0  0  0  0  0  0
   29.8480   32.9610   41.7010 H   0  0  0  0  0  0  0  0  0  0  0  0
   30.8680   34.2690   43.1520 C   0  0  0  0  0  3  0  0  0  0  0  0
   31.5410   34.1970   44.3450 C   0  0  0  0  0  3  0  0  0  0  0  0
   31.7350   33.0160   44.9840 N   0  0  0  0  0  0  0  0  0  0  0  0
  2  7  1  0  0  0  0
  2  1  1  0  0  0  0
  3  2  2  0  0  0  0
  4  5  2  0  0  0  0
  4  3  1  0  0  0  0
  5  6  1  0  0  0  0
  6  9  1  0  0  0  0
  6  7  2  0  0  0  0
  7 10  1  0  0  0  0
  8  4  1  0  0  0  0
 11 17  1  0  0  0  0
 12 18  1  0  0  0  0
 12 11  2  0  0  0  0
 13 14  2  0  0  0  0
 13 12  1  0  0  0  0
 14 15  1  0  0  0  0
 15  3  1  0  0  0  0
 15 16  2  0  0  0  0
 16 11  1  0  0  0  0
 19 13  1  0  0  0  0
 20  5  1  0  0  0  0
 21 20  1  0  0  0  0
 21 26  1  0  0  0  0
 22 21  2  0  0  0  0
 23 24  2  0  0  0  0
 23 22  1  0  0  0  0
 24 25  1  0  0  0  0
 25 20  2  0  0  0  0
 27 22  1  0  0  0  0
 28 35  1  0  0  0  0
 28 24  1  0  0  0  0
 29 28  2  0  0  0  0
 30 29  1  0  0  0  0
 31 33  2  0  0  0  0
 31 29  1  0  0  0  0
 32 31  1  0  0  0  0
 33 34  1  0  0  0  0
 34 35  2  0  0  0  0
M  END
>  <minimizedAffinity>
-6.64412689

>  <minimizedRMSD>
0.344143182

$$$$
