
 OpenBabel03272500313D

 27 29  0  0  0  0  0  0  0  0999 V2000
   37.7770   23.0600   33.4720 Cl  0  0  0  0  0  0  0  0  0  0  0  0
   36.7580   24.0330   32.4380 C   0  0  0  0  0  0  0  0  0  0  0  0
   36.8770   25.4020   32.5890 C   0  0  0  0  0  0  0  0  0  0  0  0
   36.0690   26.2080   31.7700 C   0  0  0  0  0  0  0  0  0  0  0  0
   35.2100   25.6050   30.8710 C   0  0  0  0  0  0  0  0  0  0  0  0
   35.1460   24.2510   30.7780 C   0  0  0  0  0  0  0  0  0  0  0  0
   35.9070   23.4210   31.5470 C   0  0  0  0  0  0  0  0  0  0  0  0
   36.1170   27.2860   31.8410 H   0  0  0  0  0  0  0  0  0  0  0  0
   34.5980   26.2450   30.2510 H   0  0  0  0  0  0  0  0  0  0  0  0
   34.4650   23.7920   30.0650 H   0  0  0  0  0  0  0  0  0  0  0  0
   38.1330   26.7610   35.7220 C   0  0  0  0  0  0  0  0  0  0  0  0
   39.4750   27.0970   35.4400 C   0  0  0  0  0  0  0  0  0  0  0  0
   39.9260   26.8420   34.1430 C   0  0  0  0  0  0  0  0  0  0  0  0
   39.0710   26.2910   33.2320 N   0  0  0  0  0  0  0  0  0  0  0  0
   37.7990   25.9890   33.5530 C   0  0  0  0  0  0  0  0  0  0  0  0
   37.3330   26.2260   34.8060 N   0  0  0  0  0  0  0  0  0  0  0  0
   37.7200   26.9320   36.7070 H   0  0  0  0  0  0  0  0  0  0  0  0
   40.0920   27.5310   36.2210 H   0  0  0  0  0  0  0  0  0  0  0  0
   40.9510   27.0880   33.8930 H   0  0  0  0  0  0  0  0  0  0  0  0
   35.8940   21.9650   31.5060 C   0  0  0  0  0  0  0  0  0  0  0  0
   34.9830   21.1980   32.2030 C   0  0  0  0  0  0  0  0  0  0  0  0
   34.2330   21.6790   32.8160 H   0  0  0  0  0  0  0  0  0  0  0  0
   34.9390   19.8200   32.1880 C   0  0  0  0  0  0  0  0  0  0  0  0
   34.2140   19.2680   32.7450 H   0  0  0  0  0  0  0  0  0  0  0  0
   35.8780   19.1680   31.4200 C   0  0  0  0  0  3  0  0  0  0  0  0
   36.7920   19.9330   30.7200 C   0  0  0  0  0  3  0  0  0  0  0  0
   36.7700   21.2580   30.7850 N   0  0  0  0  0  0  0  0  0  0  0  0
  2  3  1  0  0  0  0
  2  1  1  0  0  0  0
  3 15  1  0  0  0  0
  4  8  1  0  0  0  0
  4  3  2  0  0  0  0
  5  4  1  0  0  0  0
  6  5  2  0  0  0  0
  6  7  1  0  0  0  0
  7  2  2  0  0  0  0
  9  5  1  0  0  0  0
 10  6  1  0  0  0  0
 11 17  1  0  0  0  0
 12 11  1  0  0  0  0
 12 18  1  0  0  0  0
 13 12  2  0  0  0  0
 14 15  2  0  0  0  0
 14 13  1  0  0  0  0
 15 16  1  0  0  0  0
 16 11  2  0  0  0  0
 19 13  1  0  0  0  0
 20  7  1  0  0  0  0
 20 21  1  0  0  0  0
 21 22  1  0  0  0  0
 23 21  2  0  0  0  0
 23 24  1  0  0  0  0
 25 23  1  0  0  0  0
 26 27  1  0  0  0  0
 26 25  2  0  0  0  0
 27 20  2  0  0  0  0
M  END
>  <minimizedAffinity>
-5.22845602

$$$$

 OpenBabel03272500313D

 27 29  0  0  0  0  0  0  0  0999 V2000
   37.7730   23.1250   33.4850 Cl  0  0  0  0  0  0  0  0  0  0  0  0
   36.7720   24.1290   32.4620 C   0  0  0  0  0  0  0  0  0  0  0  0
   35.9440   23.4560   31.5820 C   0  0  0  0  0  0  0  0  0  0  0  0
   35.1290   24.2380   30.7470 C   0  0  0  0  0  0  0  0  0  0  0  0
   35.1940   25.6150   30.8430 C   0  0  0  0  0  0  0  0  0  0  0  0
   36.0340   26.2080   31.7320 C   0  0  0  0  0  0  0  0  0  0  0  0
   36.8460   25.4970   32.5660 C   0  0  0  0  0  0  0  0  0  0  0  0
   34.4590   23.7710   30.0380 H   0  0  0  0  0  0  0  0  0  0  0  0
   34.5580   26.1960   30.1910 H   0  0  0  0  0  0  0  0  0  0  0  0
   36.0730   27.2920   31.7950 H   0  0  0  0  0  0  0  0  0  0  0  0
   34.8920   20.0320   32.2260 C   0  0  0  0  0  0  0  0  0  0  0  0
   35.7810   19.2470   31.4600 C   0  0  0  0  0  0  0  0  0  0  0  0
   36.7480   19.9350   30.7230 C   0  0  0  0  0  0  0  0  0  0  0  0
   36.7860   21.2990   30.7730 N   0  0  0  0  0  0  0  0  0  0  0  0
   35.9130   22.0000   31.5200 C   0  0  0  0  0  0  0  0  0  0  0  0
   34.9630   21.3590   32.2470 N   0  0  0  0  0  0  0  0  0  0  0  0
   34.1190   19.5640   32.8200 H   0  0  0  0  0  0  0  0  0  0  0  0
   35.6850   18.1660   31.4730 H   0  0  0  0  0  0  0  0  0  0  0  0
   37.4470   19.3620   30.1240 H   0  0  0  0  0  0  0  0  0  0  0  0
   37.7700   26.0580   33.5420 C   0  0  0  0  0  0  0  0  0  0  0  0
   37.4030   26.3800   34.8330 C   0  0  0  0  0  0  0  0  0  0  0  0
   36.3850   26.2170   35.1590 H   0  0  0  0  0  0  0  0  0  0  0  0
   38.2500   26.9110   35.7830 C   0  0  0  0  0  0  0  0  0  0  0  0
   37.9210   27.1450   36.7710 H   0  0  0  0  0  0  0  0  0  0  0  0
   39.5570   27.1340   35.4090 C   0  0  0  0  0  3  0  0  0  0  0  0
   39.9280   26.8130   34.1160 C   0  0  0  0  0  3  0  0  0  0  0  0
   39.0540   26.3040   33.2570 N   0  0  0  0  0  0  0  0  0  0  0  0
  2  7  1  0  0  0  0
  2  1  1  0  0  0  0
  3  2  2  0  0  0  0
  4  5  2  0  0  0  0
  4  3  1  0  0  0  0
  5  6  1  0  0  0  0
  6 10  1  0  0  0  0
  6  7  2  0  0  0  0
  7 20  1  0  0  0  0
  8  4  1  0  0  0  0
  9  5  1  0  0  0  0
 11 16  1  0  0  0  0
 11 17  1  0  0  0  0
 12 18  1  0  0  0  0
 12 11  2  0  0  0  0
 13 14  2  0  0  0  0
 13 12  1  0  0  0  0
 14 15  1  0  0  0  0
 15  3  1  0  0  0  0
 15 16  2  0  0  0  0
 19 13  1  0  0  0  0
 20 21  1  0  0  0  0
 21 22  1  0  0  0  0
 21 23  2  0  0  0  0
 23 24  1  0  0  0  0
 25 23  1  0  0  0  0
 26 25  2  0  0  0  0
 27 20  2  0  0  0  0
 27 26  1  0  0  0  0
M  END
>  <minimizedAffinity>
-5.12817526

$$$$

 OpenBabel03272500313D

 27 29  0  0  0  0  0  0  0  0999 V2000
   36.3390   28.0800   34.7610 Cl  0  0  0  0  0  0  0  0  0  0  0  0
   36.1270   28.8960   33.2310 C   0  0  0  0  0  0  0  0  0  0  0  0
   36.6290   28.2400   32.1220 C   0  0  0  0  0  0  0  0  0  0  0  0
   36.4730   28.8740   30.8790 C   0  0  0  0  0  0  0  0  0  0  0  0
   35.8370   30.0990   30.8250 C   0  0  0  0  0  0  0  0  0  0  0  0
   35.3680   30.6860   31.9570 C   0  0  0  0  0  0  0  0  0  0  0  0
   35.4920   30.1150   33.1890 C   0  0  0  0  0  0  0  0  0  0  0  0
   36.8440   28.4100   29.9750 H   0  0  0  0  0  0  0  0  0  0  0  0
   35.7280   30.5690   29.8570 H   0  0  0  0  0  0  0  0  0  0  0  0
   34.8700   31.6500   31.8970 H   0  0  0  0  0  0  0  0  0  0  0  0
   37.0730   24.6310   32.2600 C   0  0  0  0  0  0  0  0  0  0  0  0
   38.4640   24.4590   32.4320 C   0  0  0  0  0  0  0  0  0  0  0  0
   39.2350   25.6220   32.5000 C   0  0  0  0  0  0  0  0  0  0  0  0
   38.6250   26.8390   32.3970 N   0  0  0  0  0  0  0  0  0  0  0  0
   37.2930   26.9470   32.2330 C   0  0  0  0  0  0  0  0  0  0  0  0
   36.5180   25.8340   32.1640 N   0  0  0  0  0  0  0  0  0  0  0  0
   36.4180   23.7720   32.2000 H   0  0  0  0  0  0  0  0  0  0  0  0
   38.8730   23.4570   32.5050 H   0  0  0  0  0  0  0  0  0  0  0  0
   40.3060   25.5260   32.6320 H   0  0  0  0  0  0  0  0  0  0  0  0
   35.0190   30.6800   34.4460 C   0  0  0  0  0  0  0  0  0  0  0  0
   35.8130   31.4430   35.2780 C   0  0  0  0  0  0  0  0  0  0  0  0
   36.8390   31.6430   35.0050 H   0  0  0  0  0  0  0  0  0  0  0  0
   35.4000   31.9950   36.4720 C   0  0  0  0  0  0  0  0  0  0  0  0
   36.0510   32.5780   37.0850 H   0  0  0  0  0  0  0  0  0  0  0  0
   34.0970   31.7620   36.8570 C   0  0  0  0  0  3  0  0  0  0  0  0
   33.2990   30.9990   36.0250 C   0  0  0  0  0  3  0  0  0  0  0  0
   33.7700   30.5020   34.8890 N   0  0  0  0  0  0  0  0  0  0  0  0
  2  1  1  0  0  0  0
  3 15  1  0  0  0  0
  3  2  2  0  0  0  0
  4  3  1  0  0  0  0
  5  4  2  0  0  0  0
  5  6  1  0  0  0  0
  6  7  2  0  0  0  0
  7  2  1  0  0  0  0
  7 20  1  0  0  0  0
  8  4  1  0  0  0  0
  9  5  1  0  0  0  0
 10  6  1  0  0  0  0
 11 12  1  0  0  0  0
 12 13  2  0  0  0  0
 12 18  1  0  0  0  0
 13 19  1  0  0  0  0
 14 13  1  0  0  0  0
 15 14  2  0  0  0  0
 16 15  1  0  0  0  0
 16 11  2  0  0  0  0
 17 11  1  0  0  0  0
 20 27  2  0  0  0  0
 20 21  1  0  0  0  0
 21 23  2  0  0  0  0
 22 21  1  0  0  0  0
 23 25  1  0  0  0  0
 23 24  1  0  0  0  0
 26 25  2  0  0  0  0
 27 26  1  0  0  0  0
M  END
>  <minimizedAffinity>
-4.86365128

$$$$

 OpenBabel03272500313D

 27 29  0  0  0  0  0  0  0  0999 V2000
   38.0920   27.0890   33.3540 Cl  0  0  0  0  0  0  0  0  0  0  0  0
   37.1170   25.9180   32.4980 C   0  0  0  0  0  0  0  0  0  0  0  0
   37.4100   24.5900   32.7490 C   0  0  0  0  0  0  0  0  0  0  0  0
   36.6410   23.6280   32.0740 C   0  0  0  0  0  0  0  0  0  0  0  0
   35.6490   24.0470   31.2090 C   0  0  0  0  0  0  0  0  0  0  0  0
   35.4170   25.3710   31.0110 C   0  0  0  0  0  0  0  0  0  0  0  0
   36.1320   26.3470   31.6400 C   0  0  0  0  0  0  0  0  0  0  0  0
   36.8220   22.5730   32.2290 H   0  0  0  0  0  0  0  0  0  0  0  0
   35.0690   23.2880   30.7010 H   0  0  0  0  0  0  0  0  0  0  0  0
   34.6320   25.6840   30.3280 H   0  0  0  0  0  0  0  0  0  0  0  0
   39.0620   23.6720   35.8590 C   0  0  0  0  0  0  0  0  0  0  0  0
   40.4070   23.4620   35.4870 C   0  0  0  0  0  0  0  0  0  0  0  0
   40.7220   23.6490   34.1380 C   0  0  0  0  0  0  0  0  0  0  0  0
   39.7380   24.0130   33.2640 N   0  0  0  0  0  0  0  0  0  0  0  0
   38.4680   24.2000   33.6720 C   0  0  0  0  0  0  0  0  0  0  0  0
   38.1340   24.0270   34.9760 N   0  0  0  0  0  0  0  0  0  0  0  0
   38.7510   23.5440   36.8860 H   0  0  0  0  0  0  0  0  0  0  0  0
   41.1310   23.1730   36.2420 H   0  0  0  0  0  0  0  0  0  0  0  0
   41.7460   23.4960   33.8190 H   0  0  0  0  0  0  0  0  0  0  0  0
   35.9440   27.7830   31.4800 C   0  0  0  0  0  0  0  0  0  0  0  0
   36.6030   28.5280   30.5230 C   0  0  0  0  0  0  0  0  0  0  0  0
   37.2960   28.0450   29.8490 H   0  0  0  0  0  0  0  0  0  0  0  0
   36.4510   29.8870   30.3410 C   0  0  0  0  0  0  0  0  0  0  0  0
   36.9820   30.4230   29.5870 H   0  0  0  0  0  0  0  0  0  0  0  0
   35.5760   30.5410   31.1810 C   0  0  0  0  0  3  0  0  0  0  0  0
   34.9140   29.7970   32.1400 C   0  0  0  0  0  3  0  0  0  0  0  0
   35.1140   28.4900   32.2530 N   0  0  0  0  0  0  0  0  0  0  0  0
  2  3  1  0  0  0  0
  2  1  1  0  0  0  0
  3 15  1  0  0  0  0
  4  8  1  0  0  0  0
  4  3  2  0  0  0  0
  5  4  1  0  0  0  0
  6  5  2  0  0  0  0
  6  7  1  0  0  0  0
  7  2  2  0  0  0  0
  9  5  1  0  0  0  0
 10  6  1  0  0  0  0
 11 17  1  0  0  0  0
 12 11  1  0  0  0  0
 12 18  1  0  0  0  0
 13 12  2  0  0  0  0
 14 15  2  0  0  0  0
 14 13  1  0  0  0  0
 15 16  1  0  0  0  0
 16 11  2  0  0  0  0
 19 13  1  0  0  0  0
 20  7  1  0  0  0  0
 20 27  1  0  0  0  0
 21 20  2  0  0  0  0
 22 21  1  0  0  0  0
 23 21  1  0  0  0  0
 23 25  2  0  0  0  0
 24 23  1  0  0  0  0
 25 26  1  0  0  0  0
 26 27  2  0  0  0  0
M  END
>  <minimizedAffinity>
-4.7588892

$$$$

 OpenBabel03272500313D

 27 29  0  0  0  0  0  0  0  0999 V2000
   38.2580   25.7240   34.5900 Cl  0  0  0  0  0  0  0  0  0  0  0  0
   37.8780   24.2120   33.8010 C   0  0  0  0  0  0  0  0  0  0  0  0
   37.5170   24.3000   32.4690 C   0  0  0  0  0  0  0  0  0  0  0  0
   37.2060   23.1000   31.8090 C   0  0  0  0  0  0  0  0  0  0  0  0
   37.2740   21.9120   32.5110 C   0  0  0  0  0  0  0  0  0  0  0  0
   37.6350   21.9000   33.8200 C   0  0  0  0  0  0  0  0  0  0  0  0
   37.9480   23.0350   34.5090 C   0  0  0  0  0  0  0  0  0  0  0  0
   36.9180   23.1040   30.7670 H   0  0  0  0  0  0  0  0  0  0  0  0
   37.0300   21.0000   31.9820 H   0  0  0  0  0  0  0  0  0  0  0  0
   37.6840   20.9570   34.3570 H   0  0  0  0  0  0  0  0  0  0  0  0
   38.5920   27.1700   30.5050 C   0  0  0  0  0  0  0  0  0  0  0  0
   37.4460   27.9900   30.4350 C   0  0  0  0  0  0  0  0  0  0  0  0
   36.3000   27.5230   31.0840 C   0  0  0  0  0  0  0  0  0  0  0  0
   36.3400   26.3250   31.7380 N   0  0  0  0  0  0  0  0  0  0  0  0
   37.4620   25.5810   31.7740 C   0  0  0  0  0  0  0  0  0  0  0  0
   38.5900   26.0090   31.1530 N   0  0  0  0  0  0  0  0  0  0  0  0
   39.5130   27.4720   30.0250 H   0  0  0  0  0  0  0  0  0  0  0  0
   37.4940   28.9310   29.8950 H   0  0  0  0  0  0  0  0  0  0  0  0
   35.4020   28.1290   31.0500 H   0  0  0  0  0  0  0  0  0  0  0  0
   38.3430   23.1050   35.9090 C   0  0  0  0  0  0  0  0  0  0  0  0
   39.6100   22.7870   36.3540 C   0  0  0  0  0  0  0  0  0  0  0  0
   40.3630   22.4670   35.6470 H   0  0  0  0  0  0  0  0  0  0  0  0
   40.0200   22.8410   37.6690 C   0  0  0  0  0  0  0  0  0  0  0  0
   41.0120   22.5850   37.9670 H   0  0  0  0  0  0  0  0  0  0  0  0
   39.0890   23.2430   38.6030 C   0  0  0  0  0  3  0  0  0  0  0  0
   37.8190   23.5640   38.1610 C   0  0  0  0  0  3  0  0  0  0  0  0
   37.5000   23.4860   36.8750 N   0  0  0  0  0  0  0  0  0  0  0  0
  2  7  1  0  0  0  0
  2  1  1  0  0  0  0
  3  2  2  0  0  0  0
  4  3  1  0  0  0  0
  4  5  2  0  0  0  0
  5  6  1  0  0  0  0
  6 10  1  0  0  0  0
  6  7  2  0  0  0  0
  7 20  1  0  0  0  0
  8  4  1  0  0  0  0
  9  5  1  0  0  0  0
 11 16  1  0  0  0  0
 12 11  2  0  0  0  0
 12 13  1  0  0  0  0
 13 14  2  0  0  0  0
 14 15  1  0  0  0  0
 15  3  1  0  0  0  0
 16 15  2  0  0  0  0
 17 11  1  0  0  0  0
 18 12  1  0  0  0  0
 19 13  1  0  0  0  0
 20 21  2  0  0  0  0
 20 27  1  0  0  0  0
 21 23  1  0  0  0  0
 22 21  1  0  0  0  0
 23 24  1  0  0  0  0
 23 25  2  0  0  0  0
 26 25  1  0  0  0  0
 27 26  2  0  0  0  0
M  END
>  <minimizedAffinity>
-4.75541973

$$$$

 OpenBabel03272500313D

 27 29  0  0  0  0  0  0  0  0999 V2000
   37.2050   25.7660   33.3050 Cl  0  0  0  0  0  0  0  0  0  0  0  0
   38.8770   26.1910   33.5860 C   0  0  0  0  0  0  0  0  0  0  0  0
   39.4280   27.0950   32.6980 C   0  0  0  0  0  0  0  0  0  0  0  0
   40.7700   27.4540   32.9000 C   0  0  0  0  0  0  0  0  0  0  0  0
   41.4620   26.8960   33.9580 C   0  0  0  0  0  0  0  0  0  0  0  0
   40.8560   26.0120   34.7920 C   0  0  0  0  0  0  0  0  0  0  0  0
   39.5550   25.6290   34.6420 C   0  0  0  0  0  0  0  0  0  0  0  0
   41.2570   28.1580   32.2390 H   0  0  0  0  0  0  0  0  0  0  0  0
   42.4950   27.1870   34.0950 H   0  0  0  0  0  0  0  0  0  0  0  0
   41.4140   25.5820   35.6200 H   0  0  0  0  0  0  0  0  0  0  0  0
   38.4380   27.9290   29.2960 C   0  0  0  0  0  0  0  0  0  0  0  0
   37.2520   28.6790   29.4550 C   0  0  0  0  0  0  0  0  0  0  0  0
   36.8120   28.8850   30.7640 C   0  0  0  0  0  0  0  0  0  0  0  0
   37.5280   28.3640   31.8030 N   0  0  0  0  0  0  0  0  0  0  0  0
   38.6540   27.6550   31.5960 C   0  0  0  0  0  0  0  0  0  0  0  0
   39.1060   27.4390   30.3350 N   0  0  0  0  0  0  0  0  0  0  0  0
   38.8340   27.7320   28.3100 H   0  0  0  0  0  0  0  0  0  0  0  0
   36.7390   29.0590   28.5770 H   0  0  0  0  0  0  0  0  0  0  0  0
   35.9050   29.4570   30.9210 H   0  0  0  0  0  0  0  0  0  0  0  0
   38.8370   24.6890   35.4920 C   0  0  0  0  0  0  0  0  0  0  0  0
   38.2580   25.0460   36.6930 C   0  0  0  0  0  0  0  0  0  0  0  0
   38.3290   26.0670   37.0410 H   0  0  0  0  0  0  0  0  0  0  0  0
   37.5700   24.1850   37.5220 C   0  0  0  0  0  0  0  0  0  0  0  0
   37.1390   24.5060   38.4440 H   0  0  0  0  0  0  0  0  0  0  0  0
   37.4580   22.8730   37.1150 C   0  0  0  0  0  3  0  0  0  0  0  0
   38.0360   22.5120   35.9120 C   0  0  0  0  0  3  0  0  0  0  0  0
   38.6830   23.4010   35.1680 N   0  0  0  0  0  0  0  0  0  0  0  0
  1  2  1  0  0  0  0
  2  7  1  0  0  0  0
  3  4  1  0  0  0  0
  3  2  2  0  0  0  0
  4  5  2  0  0  0  0
  5  9  1  0  0  0  0
  5  6  1  0  0  0  0
  6 10  1  0  0  0  0
  7  6  2  0  0  0  0
  7 20  1  0  0  0  0
  8  4  1  0  0  0  0
 11 12  2  0  0  0  0
 11 16  1  0  0  0  0
 12 13  1  0  0  0  0
 13 19  1  0  0  0  0
 13 14  2  0  0  0  0
 15 14  1  0  0  0  0
 15  3  1  0  0  0  0
 16 15  2  0  0  0  0
 17 11  1  0  0  0  0
 18 12  1  0  0  0  0
 20 21  1  0  0  0  0
 21 22  1  0  0  0  0
 21 23  2  0  0  0  0
 23 24  1  0  0  0  0
 25 23  1  0  0  0  0
 26 25  2  0  0  0  0
 27 20  2  0  0  0  0
 27 26  1  0  0  0  0
M  END
>  <minimizedAffinity>
-4.71457243

$$$$

 OpenBabel03272500313D

 27 29  0  0  0  0  0  0  0  0999 V2000
   38.1110   27.0890   33.3250 Cl  0  0  0  0  0  0  0  0  0  0  0  0
   37.1460   25.8840   32.5070 C   0  0  0  0  0  0  0  0  0  0  0  0
   36.1680   26.3690   31.6580 C   0  0  0  0  0  0  0  0  0  0  0  0
   35.3770   25.4230   30.9870 C   0  0  0  0  0  0  0  0  0  0  0  0
   35.6090   24.0780   31.2040 C   0  0  0  0  0  0  0  0  0  0  0  0
   36.5890   23.6730   32.0540 C   0  0  0  0  0  0  0  0  0  0  0  0
   37.3860   24.5490   32.7300 C   0  0  0  0  0  0  0  0  0  0  0  0
   34.5960   25.7400   30.3090 H   0  0  0  0  0  0  0  0  0  0  0  0
   34.9880   23.3680   30.6760 H   0  0  0  0  0  0  0  0  0  0  0  0
   36.7590   22.6120   32.2130 H   0  0  0  0  0  0  0  0  0  0  0  0
   36.4720   29.6980   30.2200 C   0  0  0  0  0  0  0  0  0  0  0  0
   35.6330   30.5010   31.0230 C   0  0  0  0  0  0  0  0  0  0  0  0
   34.9670   29.8580   32.0700 C   0  0  0  0  0  0  0  0  0  0  0  0
   35.1510   28.5190   32.2610 N   0  0  0  0  0  0  0  0  0  0  0  0
   35.9630   27.8000   31.4640 C   0  0  0  0  0  0  0  0  0  0  0  0
   36.6240   28.3960   30.4400 N   0  0  0  0  0  0  0  0  0  0  0  0
   37.0170   30.1320   29.3930 H   0  0  0  0  0  0  0  0  0  0  0  0
   35.5400   31.5600   30.8060 H   0  0  0  0  0  0  0  0  0  0  0  0
   34.3150   30.4450   32.7060 H   0  0  0  0  0  0  0  0  0  0  0  0
   38.4530   24.1940   33.6560 C   0  0  0  0  0  0  0  0  0  0  0  0
   38.2470   24.0000   35.0070 C   0  0  0  0  0  0  0  0  0  0  0  0
   37.2550   24.1120   35.4210 H   0  0  0  0  0  0  0  0  0  0  0  0
   39.2310   23.6630   35.9130 C   0  0  0  0  0  0  0  0  0  0  0  0
   39.0250   23.5240   36.9510 H   0  0  0  0  0  0  0  0  0  0  0  0
   40.5110   23.5110   35.4260 C   0  0  0  0  0  3  0  0  0  0  0  0
   40.7200   23.7040   34.0730 C   0  0  0  0  0  3  0  0  0  0  0  0
   39.7200   24.0270   33.2630 N   0  0  0  0  0  0  0  0  0  0  0  0
  2  7  1  0  0  0  0
  2  1  1  0  0  0  0
  3  2  2  0  0  0  0
  4  5  2  0  0  0  0
  4  3  1  0  0  0  0
  5  6  1  0  0  0  0
  6 10  1  0  0  0  0
  6  7  2  0  0  0  0
  7 20  1  0  0  0  0
  8  4  1  0  0  0  0
  9  5  1  0  0  0  0
 11 16  2  0  0  0  0
 11 12  1  0  0  0  0
 12 13  2  0  0  0  0
 13 14  1  0  0  0  0
 13 19  1  0  0  0  0
 15  3  1  0  0  0  0
 15 14  2  0  0  0  0
 16 15  1  0  0  0  0
 17 11  1  0  0  0  0
 18 12  1  0  0  0  0
 20 21  1  0  0  0  0
 21 22  1  0  0  0  0
 21 23  2  0  0  0  0
 23 24  1  0  0  0  0
 25 23  1  0  0  0  0
 26 25  2  0  0  0  0
 27 20  2  0  0  0  0
 27 26  1  0  0  0  0
M  END
>  <minimizedAffinity>
-4.69861221

$$$$

 OpenBabel03272500313D

 27 29  0  0  0  0  0  0  0  0999 V2000
   38.3200   25.8220   34.6750 Cl  0  0  0  0  0  0  0  0  0  0  0  0
   37.9660   24.3460   33.8080 C   0  0  0  0  0  0  0  0  0  0  0  0
   38.0320   23.1810   34.5490 C   0  0  0  0  0  0  0  0  0  0  0  0
   37.7520   21.9800   33.8780 C   0  0  0  0  0  0  0  0  0  0  0  0
   37.4320   22.0200   32.5340 C   0  0  0  0  0  0  0  0  0  0  0  0
   37.3870   23.2040   31.8690 C   0  0  0  0  0  0  0  0  0  0  0  0
   37.6480   24.3990   32.4720 C   0  0  0  0  0  0  0  0  0  0  0  0
   37.7860   21.0350   34.4030 H   0  0  0  0  0  0  0  0  0  0  0  0
   37.2200   21.0830   32.0380 H   0  0  0  0  0  0  0  0  0  0  0  0
   37.1330   23.2190   30.8120 H   0  0  0  0  0  0  0  0  0  0  0  0
   40.0030   22.8310   37.5890 C   0  0  0  0  0  0  0  0  0  0  0  0
   39.1100   23.1850   38.6230 C   0  0  0  0  0  0  0  0  0  0  0  0
   37.8160   23.5450   38.2380 C   0  0  0  0  0  0  0  0  0  0  0  0
   37.4840   23.5390   36.9140 N   0  0  0  0  0  0  0  0  0  0  0  0
   38.3750   23.1920   35.9660 C   0  0  0  0  0  0  0  0  0  0  0  0
   39.6390   22.8370   36.3100 N   0  0  0  0  0  0  0  0  0  0  0  0
   41.0190   22.5420   37.8170 H   0  0  0  0  0  0  0  0  0  0  0  0
   39.4510   23.1660   39.6530 H   0  0  0  0  0  0  0  0  0  0  0  0
   37.1050   23.8230   39.0070 H   0  0  0  0  0  0  0  0  0  0  0  0
   37.6220   25.7050   31.8280 C   0  0  0  0  0  0  0  0  0  0  0  0
   38.7370   26.2920   31.2640 C   0  0  0  0  0  0  0  0  0  0  0  0
   39.6860   25.7760   31.2890 H   0  0  0  0  0  0  0  0  0  0  0  0
   38.7500   27.5250   30.6460 C   0  0  0  0  0  0  0  0  0  0  0  0
   39.6380   27.9400   30.2230 H   0  0  0  0  0  0  0  0  0  0  0  0
   37.5590   28.2160   30.5930 C   0  0  0  0  0  3  0  0  0  0  0  0
   36.4410   27.6310   31.1570 C   0  0  0  0  0  3  0  0  0  0  0  0
   36.5080   26.4380   31.7350 N   0  0  0  0  0  0  0  0  0  0  0  0
  2  3  1  0  0  0  0
  2  1  1  0  0  0  0
  3 15  1  0  0  0  0
  4  8  1  0  0  0  0
  4  3  2  0  0  0  0
  5  4  1  0  0  0  0
  6  7  1  0  0  0  0
  6  5  2  0  0  0  0
  7  2  2  0  0  0  0
  9  5  1  0  0  0  0
 10  6  1  0  0  0  0
 11 17  1  0  0  0  0
 11 12  1  0  0  0  0
 12 18  1  0  0  0  0
 13 12  2  0  0  0  0
 13 19  1  0  0  0  0
 14 13  1  0  0  0  0
 15 16  1  0  0  0  0
 15 14  2  0  0  0  0
 16 11  2  0  0  0  0
 20  7  1  0  0  0  0
 21 22  1  0  0  0  0
 21 20  2  0  0  0  0
 23 21  1  0  0  0  0
 24 23  1  0  0  0  0
 25 23  2  0  0  0  0
 25 26  1  0  0  0  0
 26 27  2  0  0  0  0
 27 20  1  0  0  0  0
M  END
>  <minimizedAffinity>
-4.65946674

$$$$

 OpenBabel03272500313D

 27 29  0  0  0  0  0  0  0  0999 V2000
   38.2950   23.1710   33.9690 Cl  0  0  0  0  0  0  0  0  0  0  0  0
   39.1840   24.6750   33.9870 C   0  0  0  0  0  0  0  0  0  0  0  0
   38.6870   25.6790   33.1770 C   0  0  0  0  0  0  0  0  0  0  0  0
   39.3830   26.8990   33.1710 C   0  0  0  0  0  0  0  0  0  0  0  0
   40.5100   27.0330   33.9600 C   0  0  0  0  0  0  0  0  0  0  0  0
   40.9410   26.0020   34.7310 C   0  0  0  0  0  0  0  0  0  0  0  0
   40.3040   24.7970   34.7760 C   0  0  0  0  0  0  0  0  0  0  0  0
   39.0430   27.7230   32.5590 H   0  0  0  0  0  0  0  0  0  0  0  0
   41.0290   27.9820   33.9400 H   0  0  0  0  0  0  0  0  0  0  0  0
   41.8290   26.1240   35.3460 H   0  0  0  0  0  0  0  0  0  0  0  0
   36.3440   24.1260   30.8650 C   0  0  0  0  0  0  0  0  0  0  0  0
   35.2700   25.0400   30.7950 C   0  0  0  0  0  0  0  0  0  0  0  0
   35.3830   26.2010   31.5650 C   0  0  0  0  0  0  0  0  0  0  0  0
   36.4970   26.3910   32.3320 N   0  0  0  0  0  0  0  0  0  0  0  0
   37.4930   25.4860   32.3630 C   0  0  0  0  0  0  0  0  0  0  0  0
   37.4120   24.3500   31.6250 N   0  0  0  0  0  0  0  0  0  0  0  0
   36.3210   23.2080   30.2940 H   0  0  0  0  0  0  0  0  0  0  0  0
   34.4190   24.8160   30.1610 H   0  0  0  0  0  0  0  0  0  0  0  0
   34.5770   26.9230   31.5330 H   0  0  0  0  0  0  0  0  0  0  0  0
   40.7040   23.6460   35.5740 C   0  0  0  0  0  0  0  0  0  0  0  0
   40.1590   23.3570   36.8090 C   0  0  0  0  0  0  0  0  0  0  0  0
   39.3980   24.0020   37.2240 H   0  0  0  0  0  0  0  0  0  0  0  0
   40.5120   22.2780   37.5920 C   0  0  0  0  0  0  0  0  0  0  0  0
   40.0630   22.0940   38.5430 H   0  0  0  0  0  0  0  0  0  0  0  0
   41.4810   21.4310   37.0990 C   0  0  0  0  0  3  0  0  0  0  0  0
   42.0280   21.7180   35.8620 C   0  0  0  0  0  3  0  0  0  0  0  0
   41.6350   22.7780   35.1660 N   0  0  0  0  0  0  0  0  0  0  0  0
  1  2  1  0  0  0  0
  2  7  1  0  0  0  0
  3  2  2  0  0  0  0
  4  3  1  0  0  0  0
  4  5  2  0  0  0  0
  5  6  1  0  0  0  0
  6  7  2  0  0  0  0
  6 10  1  0  0  0  0
  7 20  1  0  0  0  0
  8  4  1  0  0  0  0
  9  5  1  0  0  0  0
 11 16  1  0  0  0  0
 12 11  2  0  0  0  0
 12 13  1  0  0  0  0
 13 14  2  0  0  0  0
 14 15  1  0  0  0  0
 15  3  1  0  0  0  0
 16 15  2  0  0  0  0
 17 11  1  0  0  0  0
 18 12  1  0  0  0  0
 19 13  1  0  0  0  0
 20 21  1  0  0  0  0
 21 22  1  0  0  0  0
 21 23  2  0  0  0  0
 23 24  1  0  0  0  0
 25 23  1  0  0  0  0
 26 25  2  0  0  0  0
 27 20  2  0  0  0  0
 27 26  1  0  0  0  0
M  END
>  <minimizedAffinity>
-4.65285635

$$$$
