
 OpenBabel03272505153D

 27 29  0  0  0  0  0  0  0  0999 V2000
   38.1410   31.0250   48.3470 Cl  0  0  0  0  0  0  0  0  0  0  0  0
   36.9790   30.6020   47.1190 C   0  0  0  0  0  0  0  0  0  0  0  0
   35.8050   30.0320   47.4550 C   0  0  0  0  0  0  0  0  0  0  0  0
   34.9370   29.7250   46.4260 C   0  0  0  0  0  0  0  0  0  0  0  0
   35.1980   29.9660   45.1110 C   0  0  0  0  0  0  0  0  0  0  0  0
   36.3950   30.5450   44.7930 C   0  0  0  0  0  0  0  0  0  0  0  0
   37.2980   30.8700   45.7880 C   0  0  0  0  0  0  0  0  0  0  0  0
   33.9790   29.2610   46.6850 H   0  0  0  0  0  0  0  0  0  0  0  0
   34.4820   29.7050   44.3430 H   0  0  0  0  0  0  0  0  0  0  0  0
   36.6080   30.7380   43.7500 H   0  0  0  0  0  0  0  0  0  0  0  0
   36.1900   29.2260   51.1350 C   0  0  0  0  0  0  0  0  0  0  0  0
   36.4910   29.4690   49.7950 C   0  0  0  0  0  0  0  0  0  0  0  0
   35.5220   29.7750   48.8570 C   0  0  0  0  0  0  0  0  0  0  0  0
   34.2470   29.8230   49.3460 N   0  0  0  0  0  0  0  0  0  0  0  0
   33.9600   29.5890   50.6360 C   0  0  0  0  0  0  0  0  0  0  0  0
   34.9140   29.2960   51.5190 N   0  0  0  0  0  0  0  0  0  0  0  0
   36.9540   28.9880   51.8610 H   0  0  0  0  0  0  0  0  0  0  0  0
   37.5240   29.4160   49.4710 H   0  0  0  0  0  0  0  0  0  0  0  0
   32.8870   29.6790   50.8050 H   0  0  0  0  0  0  0  0  0  0  0  0
   38.5810   31.4870   45.4900 C   0  0  0  0  0  0  0  0  0  0  0  0
   39.7730   30.8430   45.5400 C   0  0  0  0  0  0  0  0  0  0  0  0
   39.8290   29.8210   45.8080 H   0  0  0  0  0  0  0  0  0  0  0  0
   40.9940   31.4260   45.2580 C   0  0  0  0  0  0  0  0  0  0  0  0
   41.9300   30.8950   45.3030 H   0  0  0  0  0  0  0  0  0  0  0  0
   41.0200   32.7720   44.8950 C   0  0  0  0  0  0  0  0  0  0  0  0
   39.8210   33.4120   44.8460 C   0  0  0  0  0  0  0  0  0  0  0  0
   38.6550   32.7980   45.1310 N   0  0  0  0  0  0  0  0  0  0  0  0
  2  3  1  0  0  0  0
  2  1  1  0  0  0  0
  3 13  1  0  0  0  0
  4  8  1  0  0  0  0
  4  3  2  0  0  0  0
  5  4  1  0  0  0  0
  6  5  2  0  0  0  0
  6  7  1  0  0  0  0
  7  2  2  0  0  0  0
  9  5  1  0  0  0  0
 10  6  1  0  0  0  0
 11 16  1  0  0  0  0
 11 17  1  0  0  0  0
 12 11  2  0  0  0  0
 13 14  2  0  0  0  0
 13 12  1  0  0  0  0
 14 15  1  0  0  0  0
 15 19  1  0  0  0  0
 15 16  2  0  0  0  0
 18 12  1  0  0  0  0
 20 21  1  0  0  0  0
 20  7  1  0  0  0  0
 21 22  1  0  0  0  0
 23 24  1  0  0  0  0
 23 21  2  0  0  0  0
 25 23  1  0  0  0  0
 26 25  2  0  0  0  0
 26 27  1  0  0  0  0
 27 20  2  0  0  0  0
M  END
>  <minimizedAffinity>
-5.50630713

>  <minimizedRMSD>
3.485852

$$$$
