
 OpenBabel03272510223D

 35 38  0  0  0  0  0  0  0  0999 V2000
   35.2300   31.7290   31.9250 Br  0  0  0  0  0  0  0  0  0  0  0  0
   35.9000   29.9840   32.3290 C   0  0  0  0  0  0  0  0  0  0  0  0
   35.7700   29.4530   33.6050 C   0  0  0  0  0  0  0  0  0  0  0  0
   36.2740   28.1920   33.8220 C   0  0  0  0  0  0  0  0  0  0  0  0
   36.8970   27.4410   32.8400 C   0  0  0  0  0  0  0  0  0  0  0  0
   37.0050   27.9960   31.6040 C   0  0  0  0  0  0  0  0  0  0  0  0
   36.5090   29.2570   31.3560 C   0  0  0  0  0  0  0  0  0  0  0  0
   36.2020   27.7230   34.8040 H   0  0  0  0  0  0  0  0  0  0  0  0
   37.4800   27.4840   30.7590 H   0  0  0  0  0  0  0  0  0  0  0  0
   36.6010   29.6910   30.3600 H   0  0  0  0  0  0  0  0  0  0  0  0
   35.3900   31.7470   36.4200 C   0  0  0  0  0  0  0  0  0  0  0  0
   33.9950   31.6770   36.7080 C   0  0  0  0  0  0  0  0  0  0  0  0
   33.2200   30.8470   35.9310 C   0  0  0  0  0  0  0  0  0  0  0  0
   33.8050   30.1240   34.9200 N   0  0  0  0  0  0  0  0  0  0  0  0
   35.1200   30.2090   34.6720 C   0  0  0  0  0  0  0  0  0  0  0  0
   35.8980   31.0200   35.4250 N   0  0  0  0  0  0  0  0  0  0  0  0
   36.0170   32.3940   37.0190 H   0  0  0  0  0  0  0  0  0  0  0  0
   33.5800   32.2680   37.5170 H   0  0  0  0  0  0  0  0  0  0  0  0
   32.1540   30.7520   36.1020 H   0  0  0  0  0  0  0  0  0  0  0  0
   37.4290   26.1150   33.0680 C   0  0  0  0  0  0  0  0  0  0  0  0
   37.7140   25.1980   32.0800 C   0  0  0  0  0  0  0  0  0  0  0  0
   38.2240   23.9330   32.3530 C   0  0  0  0  0  0  0  0  0  0  0  0
   38.4570   23.5690   33.6250 N   0  0  0  0  0  0  0  0  0  0  0  0
   38.1820   24.4540   34.5900 C   0  0  0  0  0  0  0  0  0  0  0  0
   37.6890   25.6720   34.3100 N   0  0  0  0  0  0  0  0  0  0  0  0
   37.5270   25.4890   31.0410 H   0  0  0  0  0  0  0  0  0  0  0  0
   38.4420   23.2280   31.5580 H   0  0  0  0  0  0  0  0  0  0  0  0
   38.4220   24.0900   35.9830 C   0  0  0  0  0  0  0  0  0  0  0  0
   37.6480   24.6230   36.9980 C   0  0  0  0  0  0  0  0  0  0  0  0
   36.8750   25.3090   36.6790 H   0  0  0  0  0  0  0  0  0  0  0  0
   37.8970   24.2620   38.3090 C   0  0  0  0  0  0  0  0  0  0  0  0
   37.2130   24.7570   38.9900 H   0  0  0  0  0  0  0  0  0  0  0  0
   38.8990   23.3850   38.6310 C   0  0  0  0  0  3  0  0  0  0  0  0
   39.6450   22.8780   37.5970 C   0  0  0  0  0  3  0  0  0  0  0  0
   39.4070   23.2280   36.3080 N   0  0  0  0  0  0  0  0  0  0  0  0
  1  2  1  0  0  0  0
  2  3  1  0  0  0  0
  3  4  2  0  0  0  0
  3 15  1  0  0  0  0
  4  8  1  0  0  0  0
  5 20  1  0  0  0  0
  5  4  1  0  0  0  0
  6  5  2  0  0  0  0
  7  6  1  0  0  0  0
  7  2  2  0  0  0  0
  9  6  1  0  0  0  0
 10  7  1  0  0  0  0
 11 12  1  0  0  0  0
 11 17  1  0  0  0  0
 12 18  1  0  0  0  0
 13 19  1  0  0  0  0
 13 12  2  0  0  0  0
 14 13  1  0  0  0  0
 15 14  2  0  0  0  0
 15 16  1  0  0  0  0
 16 11  2  0  0  0  0
 20 25  1  0  0  0  0
 21 22  1  0  0  0  0
 21 20  2  0  0  0  0
 22 23  2  0  0  0  0
 23 24  1  0  0  0  0
 24 28  1  0  0  0  0
 25 24  2  0  0  0  0
 26 21  1  0  0  0  0
 27 22  1  0  0  0  0
 28 35  2  0  0  0  0
 28 29  1  0  0  0  0
 29 31  2  0  0  0  0
 30 29  1  0  0  0  0
 31 33  1  0  0  0  0
 31 32  1  0  0  0  0
 34 33  2  0  0  0  0
 35 34  1  0  0  0  0
M  END
>  <minimizedAffinity>
-6.60317564

$$$$

 OpenBabel03272510223D

 35 38  0  0  0  0  0  0  0  0999 V2000
   34.4600   31.8390   32.2070 Br  0  0  0  0  0  0  0  0  0  0  0  0
   35.4070   30.2260   32.6020 C   0  0  0  0  0  0  0  0  0  0  0  0
   35.5250   29.7770   33.9100 C   0  0  0  0  0  0  0  0  0  0  0  0
   36.2200   28.6080   34.1180 C   0  0  0  0  0  0  0  0  0  0  0  0
   36.7980   27.8730   33.0980 C   0  0  0  0  0  0  0  0  0  0  0  0
   36.6610   28.3460   31.8310 C   0  0  0  0  0  0  0  0  0  0  0  0
   35.9700   29.5140   31.5910 C   0  0  0  0  0  0  0  0  0  0  0  0
   36.3470   28.2050   35.1230 H   0  0  0  0  0  0  0  0  0  0  0  0
   37.0810   27.8390   30.9550 H   0  0  0  0  0  0  0  0  0  0  0  0
   35.8660   29.8830   30.5710 H   0  0  0  0  0  0  0  0  0  0  0  0
   32.9970   30.9340   36.2750 C   0  0  0  0  0  0  0  0  0  0  0  0
   33.7130   31.8680   37.0810 C   0  0  0  0  0  0  0  0  0  0  0  0
   35.0420   32.0780   36.7950 C   0  0  0  0  0  0  0  0  0  0  0  0
   35.6280   31.3920   35.7590 N   0  0  0  0  0  0  0  0  0  0  0  0
   34.9310   30.5190   35.0170 C   0  0  0  0  0  0  0  0  0  0  0  0
   33.6220   30.3000   35.2830 N   0  0  0  0  0  0  0  0  0  0  0  0
   31.9510   30.7550   36.4840 H   0  0  0  0  0  0  0  0  0  0  0  0
   33.2050   32.3850   37.8900 H   0  0  0  0  0  0  0  0  0  0  0  0
   35.6370   32.7740   37.3730 H   0  0  0  0  0  0  0  0  0  0  0  0
   37.5300   26.6440   33.3170 C   0  0  0  0  0  0  0  0  0  0  0  0
   38.7720   26.5580   33.9080 C   0  0  0  0  0  0  0  0  0  0  0  0
   39.4340   25.3490   34.0940 C   0  0  0  0  0  0  0  0  0  0  0  0
   38.8590   24.2050   33.6890 N   0  0  0  0  0  0  0  0  0  0  0  0
   37.6540   24.2800   33.1130 C   0  0  0  0  0  0  0  0  0  0  0  0
   37.0270   25.4570   32.9400 N   0  0  0  0  0  0  0  0  0  0  0  0
   39.2460   27.4870   34.2420 H   0  0  0  0  0  0  0  0  0  0  0  0
   40.4110   25.3070   34.5640 H   0  0  0  0  0  0  0  0  0  0  0  0
   37.0000   23.0560   32.6600 C   0  0  0  0  0  0  0  0  0  0  0  0
   36.1390   23.0720   31.5790 C   0  0  0  0  0  0  0  0  0  0  0  0
   35.9980   24.0380   31.1120 H   0  0  0  0  0  0  0  0  0  0  0  0
   35.5330   21.8980   31.1700 C   0  0  0  0  0  0  0  0  0  0  0  0
   34.8890   22.0650   30.3130 H   0  0  0  0  0  0  0  0  0  0  0  0
   35.7650   20.7120   31.8150 C   0  0  0  0  0  3  0  0  0  0  0  0
   36.6240   20.7370   32.8840 C   0  0  0  0  0  3  0  0  0  0  0  0
   37.2230   21.8850   33.2910 N   0  0  0  0  0  0  0  0  0  0  0  0
  1  2  1  0  0  0  0
  2  3  1  0  0  0  0
  3  4  2  0  0  0  0
  3 15  1  0  0  0  0
  4  8  1  0  0  0  0
  5 20  1  0  0  0  0
  5  4  1  0  0  0  0
  6  5  2  0  0  0  0
  7  6  1  0  0  0  0
  7  2  2  0  0  0  0
  9  6  1  0  0  0  0
 10  7  1  0  0  0  0
 11 17  1  0  0  0  0
 11 12  1  0  0  0  0
 12 18  1  0  0  0  0
 13 12  2  0  0  0  0
 13 19  1  0  0  0  0
 14 13  1  0  0  0  0
 15 16  1  0  0  0  0
 15 14  2  0  0  0  0
 16 11  2  0  0  0  0
 20 21  1  0  0  0  0
 21 22  2  0  0  0  0
 21 26  1  0  0  0  0
 22 27  1  0  0  0  0
 23 22  1  0  0  0  0
 24 23  2  0  0  0  0
 25 24  1  0  0  0  0
 25 20  2  0  0  0  0
 28 24  1  0  0  0  0
 28 35  1  0  0  0  0
 29 28  2  0  0  0  0
 30 29  1  0  0  0  0
 31 29  1  0  0  0  0
 31 33  2  0  0  0  0
 32 31  1  0  0  0  0
 33 34  1  0  0  0  0
 34 35  2  0  0  0  0
M  END
>  <minimizedAffinity>
-6.05785894

$$$$

 OpenBabel03272510223D

 35 38  0  0  0  0  0  0  0  0999 V2000
   37.6730   22.0790   32.7030 Br  0  0  0  0  0  0  0  0  0  0  0  0
   37.3250   23.9580   32.6970 C   0  0  0  0  0  0  0  0  0  0  0  0
   37.7580   24.7620   33.7430 C   0  0  0  0  0  0  0  0  0  0  0  0
   37.4720   26.1060   33.6700 C   0  0  0  0  0  0  0  0  0  0  0  0
   36.7820   26.6820   32.6180 C   0  0  0  0  0  0  0  0  0  0  0  0
   36.3750   25.8620   31.6140 C   0  0  0  0  0  0  0  0  0  0  0  0
   36.6470   24.5110   31.6580 C   0  0  0  0  0  0  0  0  0  0  0  0
   37.7860   26.7870   34.4610 H   0  0  0  0  0  0  0  0  0  0  0  0
   35.8230   26.2200   30.7370 H   0  0  0  0  0  0  0  0  0  0  0  0
   36.3160   23.8640   30.8460 H   0  0  0  0  0  0  0  0  0  0  0  0
   38.3630   23.3560   37.0570 C   0  0  0  0  0  0  0  0  0  0  0  0
   39.7720   23.1270   37.0580 C   0  0  0  0  0  0  0  0  0  0  0  0
   40.4770   23.4600   35.9250 C   0  0  0  0  0  0  0  0  0  0  0  0
   39.8150   23.9930   34.8460 N   0  0  0  0  0  0  0  0  0  0  0  0
   38.4900   24.1970   34.8730 C   0  0  0  0  0  0  0  0  0  0  0  0
   37.7780   23.8760   35.9780 N   0  0  0  0  0  0  0  0  0  0  0  0
   37.7900   23.1010   37.9380 H   0  0  0  0  0  0  0  0  0  0  0  0
   40.2490   22.7030   37.9360 H   0  0  0  0  0  0  0  0  0  0  0  0
   41.5490   23.3100   35.8680 H   0  0  0  0  0  0  0  0  0  0  0  0
   36.4810   28.0950   32.5410 C   0  0  0  0  0  0  0  0  0  0  0  0
   36.7230   28.8970   31.4470 C   0  0  0  0  0  0  0  0  0  0  0  0
   36.4140   30.2530   31.4250 C   0  0  0  0  0  0  0  0  0  0  0  0
   35.8560   30.8270   32.5040 N   0  0  0  0  0  0  0  0  0  0  0  0
   35.6180   30.0550   33.5710 C   0  0  0  0  0  0  0  0  0  0  0  0
   35.9230   28.7460   33.5760 N   0  0  0  0  0  0  0  0  0  0  0  0
   37.1770   28.4350   30.5640 H   0  0  0  0  0  0  0  0  0  0  0  0
   36.6140   30.8640   30.5510 H   0  0  0  0  0  0  0  0  0  0  0  0
   35.0140   30.6460   34.7610 C   0  0  0  0  0  0  0  0  0  0  0  0
   35.7530   31.4520   35.6050 C   0  0  0  0  0  0  0  0  0  0  0  0
   36.7850   31.6040   35.3160 H   0  0  0  0  0  0  0  0  0  0  0  0
   35.1560   31.9990   36.7260 C   0  0  0  0  0  0  0  0  0  0  0  0
   35.8560   32.6070   37.2890 H   0  0  0  0  0  0  0  0  0  0  0  0
   33.8400   31.7590   37.0230 C   0  0  0  0  0  3  0  0  0  0  0  0
   33.1390   30.9540   36.1620 C   0  0  0  0  0  3  0  0  0  0  0  0
   33.7190   30.4140   35.0600 N   0  0  0  0  0  0  0  0  0  0  0  0
  2  1  1  0  0  0  0
  2  3  1  0  0  0  0
  3 15  1  0  0  0  0
  4  3  2  0  0  0  0
  4  8  1  0  0  0  0
  5  4  1  0  0  0  0
  6  7  1  0  0  0  0
  6  5  2  0  0  0  0
  7  2  2  0  0  0  0
  9  6  1  0  0  0  0
 10  7  1  0  0  0  0
 11 12  1  0  0  0  0
 11 17  1  0  0  0  0
 12 18  1  0  0  0  0
 13 12  2  0  0  0  0
 14 15  2  0  0  0  0
 14 13  1  0  0  0  0
 15 16  1  0  0  0  0
 16 11  2  0  0  0  0
 19 13  1  0  0  0  0
 20  5  1  0  0  0  0
 20 25  1  0  0  0  0
 21 20  2  0  0  0  0
 22 21  1  0  0  0  0
 22 23  2  0  0  0  0
 23 24  1  0  0  0  0
 24 25  2  0  0  0  0
 24 28  1  0  0  0  0
 26 21  1  0  0  0  0
 27 22  1  0  0  0  0
 28 35  2  0  0  0  0
 28 29  1  0  0  0  0
 29 31  2  0  0  0  0
 30 29  1  0  0  0  0
 31 33  1  0  0  0  0
 31 32  1  0  0  0  0
 34 33  2  0  0  0  0
 35 34  1  0  0  0  0
M  END
>  <minimizedAffinity>
-5.99819803

$$$$

 OpenBabel03272510223D

 35 38  0  0  0  0  0  0  0  0999 V2000
   39.4140   22.7660   35.9070 Br  0  0  0  0  0  0  0  0  0  0  0  0
   38.5810   24.3270   35.1860 C   0  0  0  0  0  0  0  0  0  0  0  0
   38.0740   24.3270   33.8940 C   0  0  0  0  0  0  0  0  0  0  0  0
   37.4880   25.4870   33.4420 C   0  0  0  0  0  0  0  0  0  0  0  0
   37.3830   26.6350   34.2060 C   0  0  0  0  0  0  0  0  0  0  0  0
   37.8920   26.5960   35.4660 C   0  0  0  0  0  0  0  0  0  0  0  0
   38.4850   25.4490   35.9460 C   0  0  0  0  0  0  0  0  0  0  0  0
   37.0710   25.5470   32.4360 H   0  0  0  0  0  0  0  0  0  0  0  0
   37.8590   27.4520   36.1500 H   0  0  0  0  0  0  0  0  0  0  0  0
   38.8890   25.4300   36.9590 H   0  0  0  0  0  0  0  0  0  0  0  0
   37.1280   21.1460   32.3710 C   0  0  0  0  0  0  0  0  0  0  0  0
   38.2270   20.8630   31.5070 C   0  0  0  0  0  0  0  0  0  0  0  0
   39.2630   21.7670   31.4670 C   0  0  0  0  0  0  0  0  0  0  0  0
   39.2070   22.8960   32.2480 N   0  0  0  0  0  0  0  0  0  0  0  0
   38.1610   23.1370   33.0520 C   0  0  0  0  0  0  0  0  0  0  0  0
   37.1330   22.2600   33.1040 N   0  0  0  0  0  0  0  0  0  0  0  0
   36.3030   20.4480   32.4170 H   0  0  0  0  0  0  0  0  0  0  0  0
   38.2240   19.9570   30.9090 H   0  0  0  0  0  0  0  0  0  0  0  0
   40.1240   21.6050   30.8300 H   0  0  0  0  0  0  0  0  0  0  0  0
   36.7670   27.8560   33.7310 C   0  0  0  0  0  0  0  0  0  0  0  0
   36.7640   28.2810   32.4210 C   0  0  0  0  0  0  0  0  0  0  0  0
   36.1570   29.4660   32.0160 C   0  0  0  0  0  0  0  0  0  0  0  0
   35.5420   30.2420   32.9220 N   0  0  0  0  0  0  0  0  0  0  0  0
   35.5410   29.8360   34.1970 C   0  0  0  0  0  0  0  0  0  0  0  0
   36.1320   28.6890   34.5720 N   0  0  0  0  0  0  0  0  0  0  0  0
   37.2640   27.6530   31.6760 H   0  0  0  0  0  0  0  0  0  0  0  0
   36.1670   29.7800   30.9780 H   0  0  0  0  0  0  0  0  0  0  0  0
   34.8820   30.6560   35.2090 C   0  0  0  0  0  0  0  0  0  0  0  0
   35.5970   31.5800   35.9480 C   0  0  0  0  0  0  0  0  0  0  0  0
   36.6520   31.6410   35.7170 H   0  0  0  0  0  0  0  0  0  0  0  0
   34.9480   32.3440   36.9000 C   0  0  0  0  0  0  0  0  0  0  0  0
   35.6350   33.0220   37.3960 H   0  0  0  0  0  0  0  0  0  0  0  0
   33.6050   32.2070   37.1330 C   0  0  0  0  0  3  0  0  0  0  0  0
   32.9300   31.2800   36.3810 C   0  0  0  0  0  3  0  0  0  0  0  0
   33.5600   30.5260   35.4440 N   0  0  0  0  0  0  0  0  0  0  0  0
  2  1  1  0  0  0  0
  2  7  1  0  0  0  0
  3  2  2  0  0  0  0
  4  3  1  0  0  0  0
  4  5  2  0  0  0  0
  5  6  1  0  0  0  0
  6  7  2  0  0  0  0
  6  9  1  0  0  0  0
  7 10  1  0  0  0  0
  8  4  1  0  0  0  0
 11 17  1  0  0  0  0
 11 16  1  0  0  0  0
 12 11  2  0  0  0  0
 13 12  1  0  0  0  0
 13 14  2  0  0  0  0
 14 15  1  0  0  0  0
 15 16  2  0  0  0  0
 15  3  1  0  0  0  0
 18 12  1  0  0  0  0
 19 13  1  0  0  0  0
 20  5  1  0  0  0  0
 20 25  1  0  0  0  0
 21 20  2  0  0  0  0
 22 21  1  0  0  0  0
 22 23  2  0  0  0  0
 23 24  1  0  0  0  0
 24 25  2  0  0  0  0
 24 28  1  0  0  0  0
 26 21  1  0  0  0  0
 27 22  1  0  0  0  0
 28 35  2  0  0  0  0
 28 29  1  0  0  0  0
 29 31  2  0  0  0  0
 30 29  1  0  0  0  0
 31 33  1  0  0  0  0
 31 32  1  0  0  0  0
 34 33  2  0  0  0  0
 35 34  1  0  0  0  0
M  END
>  <minimizedAffinity>
-5.89767933

$$$$

 OpenBabel03272510223D

 35 38  0  0  0  0  0  0  0  0999 V2000
   40.6480   24.4560   34.4270 Br  0  0  0  0  0  0  0  0  0  0  0  0
   39.2500   25.7190   34.1100 C   0  0  0  0  0  0  0  0  0  0  0  0
   38.1420   25.7740   34.9440 C   0  0  0  0  0  0  0  0  0  0  0  0
   37.1760   26.7100   34.6550 C   0  0  0  0  0  0  0  0  0  0  0  0
   37.2570   27.5840   33.5860 C   0  0  0  0  0  0  0  0  0  0  0  0
   38.3570   27.4990   32.7920 C   0  0  0  0  0  0  0  0  0  0  0  0
   39.3420   26.5720   33.0560 C   0  0  0  0  0  0  0  0  0  0  0  0
   36.2830   26.8000   35.2750 H   0  0  0  0  0  0  0  0  0  0  0  0
   38.5170   28.1450   31.9210 H   0  0  0  0  0  0  0  0  0  0  0  0
   40.2200   26.5140   32.4130 H   0  0  0  0  0  0  0  0  0  0  0  0
   38.1060   24.6460   38.4170 C   0  0  0  0  0  0  0  0  0  0  0  0
   37.7980   23.2580   38.3010 C   0  0  0  0  0  0  0  0  0  0  0  0
   37.6100   22.7440   37.0400 C   0  0  0  0  0  0  0  0  0  0  0  0
   37.7240   23.5700   35.9470 N   0  0  0  0  0  0  0  0  0  0  0  0
   38.0140   24.8720   36.0850 C   0  0  0  0  0  0  0  0  0  0  0  0
   38.2020   25.3960   37.3190 N   0  0  0  0  0  0  0  0  0  0  0  0
   38.2580   25.0700   39.4000 H   0  0  0  0  0  0  0  0  0  0  0  0
   37.7180   22.6460   39.1950 H   0  0  0  0  0  0  0  0  0  0  0  0
   37.3740   21.6980   36.8900 H   0  0  0  0  0  0  0  0  0  0  0  0
   36.2410   28.5680   33.2810 C   0  0  0  0  0  0  0  0  0  0  0  0
   35.7170   28.8000   32.0280 C   0  0  0  0  0  0  0  0  0  0  0  0
   34.7400   29.7610   31.7880 C   0  0  0  0  0  0  0  0  0  0  0  0
   34.2720   30.5040   32.8040 N   0  0  0  0  0  0  0  0  0  0  0  0
   34.7760   30.2840   34.0240 C   0  0  0  0  0  0  0  0  0  0  0  0
   35.7210   29.3520   34.2400 N   0  0  0  0  0  0  0  0  0  0  0  0
   36.0940   28.1980   31.1950 H   0  0  0  0  0  0  0  0  0  0  0  0
   34.3420   29.9250   30.7920 H   0  0  0  0  0  0  0  0  0  0  0  0
   34.2910   31.0740   35.1520 C   0  0  0  0  0  0  0  0  0  0  0  0
   35.1710   31.6020   36.0780 C   0  0  0  0  0  0  0  0  0  0  0  0
   36.2160   31.3860   35.8990 H   0  0  0  0  0  0  0  0  0  0  0  0
   34.6850   32.3460   37.1370 C   0  0  0  0  0  0  0  0  0  0  0  0
   35.4890   32.6930   37.7770 H   0  0  0  0  0  0  0  0  0  0  0  0
   33.3430   32.5750   37.2930 C   0  0  0  0  0  3  0  0  0  0  0  0
   32.5010   32.0350   36.3540 C   0  0  0  0  0  3  0  0  0  0  0  0
   32.9710   31.3030   35.3120 N   0  0  0  0  0  0  0  0  0  0  0  0
  2  1  1  0  0  0  0
  2  3  1  0  0  0  0
  3 15  1  0  0  0  0
  4  3  2  0  0  0  0
  4  8  1  0  0  0  0
  5  4  1  0  0  0  0
  6  7  1  0  0  0  0
  6  5  2  0  0  0  0
  7  2  2  0  0  0  0
  9  6  1  0  0  0  0
 10  7  1  0  0  0  0
 11 17  1  0  0  0  0
 12 11  1  0  0  0  0
 12 18  1  0  0  0  0
 13 12  2  0  0  0  0
 14 15  2  0  0  0  0
 14 13  1  0  0  0  0
 15 16  1  0  0  0  0
 16 11  2  0  0  0  0
 19 13  1  0  0  0  0
 20  5  1  0  0  0  0
 20 25  1  0  0  0  0
 21 20  2  0  0  0  0
 22 21  1  0  0  0  0
 22 23  2  0  0  0  0
 23 24  1  0  0  0  0
 24 25  2  0  0  0  0
 24 28  1  0  0  0  0
 26 21  1  0  0  0  0
 27 22  1  0  0  0  0
 28 35  2  0  0  0  0
 28 29  1  0  0  0  0
 29 31  2  0  0  0  0
 30 29  1  0  0  0  0
 31 33  1  0  0  0  0
 31 32  1  0  0  0  0
 34 33  2  0  0  0  0
 35 34  1  0  0  0  0
M  END
>  <minimizedAffinity>
-5.86827087

$$$$

 OpenBabel03272510223D

 35 38  0  0  0  0  0  0  0  0999 V2000
   35.5040   33.0380   32.5600 Br  0  0  0  0  0  0  0  0  0  0  0  0
   35.7090   31.1390   32.4710 C   0  0  0  0  0  0  0  0  0  0  0  0
   35.3090   30.3330   33.5270 C   0  0  0  0  0  0  0  0  0  0  0  0
   35.4860   28.9750   33.3910 C   0  0  0  0  0  0  0  0  0  0  0  0
   36.0380   28.3880   32.2660 C   0  0  0  0  0  0  0  0  0  0  0  0
   36.4180   29.2110   31.2540 C   0  0  0  0  0  0  0  0  0  0  0  0
   36.2520   30.5750   31.3600 C   0  0  0  0  0  0  0  0  0  0  0  0
   35.1910   28.2910   34.1870 H   0  0  0  0  0  0  0  0  0  0  0  0
   36.8640   28.8450   30.3220 H   0  0  0  0  0  0  0  0  0  0  0  0
   36.5600   31.2250   30.5410 H   0  0  0  0  0  0  0  0  0  0  0  0
   35.1210   31.9150   36.8120 C   0  0  0  0  0  0  0  0  0  0  0  0
   33.7170   32.0130   37.0430 C   0  0  0  0  0  0  0  0  0  0  0  0
   32.8710   31.5360   36.0690 C   0  0  0  0  0  0  0  0  0  0  0  0
   33.3960   30.9880   34.9240 N   0  0  0  0  0  0  0  0  0  0  0  0
   34.7210   30.9090   34.7320 C   0  0  0  0  0  0  0  0  0  0  0  0
   35.5690   31.3740   35.6790 N   0  0  0  0  0  0  0  0  0  0  0  0
   35.8040   32.2850   37.5650 H   0  0  0  0  0  0  0  0  0  0  0  0
   33.3510   32.4550   37.9640 H   0  0  0  0  0  0  0  0  0  0  0  0
   31.7950   31.5830   36.1890 H   0  0  0  0  0  0  0  0  0  0  0  0
   36.2250   26.9600   32.1230 C   0  0  0  0  0  0  0  0  0  0  0  0
   35.6350   26.1790   31.1540 C   0  0  0  0  0  0  0  0  0  0  0  0
   35.8480   24.8080   31.0610 C   0  0  0  0  0  0  0  0  0  0  0  0
   36.6590   24.1980   31.9400 N   0  0  0  0  0  0  0  0  0  0  0  0
   37.2360   24.9500   32.8850 C   0  0  0  0  0  0  0  0  0  0  0  0
   37.0190   26.2740   32.9620 N   0  0  0  0  0  0  0  0  0  0  0  0
   34.9730   26.6690   30.4330 H   0  0  0  0  0  0  0  0  0  0  0  0
   35.3730   24.2130   30.2880 H   0  0  0  0  0  0  0  0  0  0  0  0
   38.1220   24.3200   33.8590 C   0  0  0  0  0  0  0  0  0  0  0  0
   39.0990   25.0530   34.5060 C   0  0  0  0  0  0  0  0  0  0  0  0
   39.1470   26.1000   34.2390 H   0  0  0  0  0  0  0  0  0  0  0  0
   39.9260   24.4310   35.4240 C   0  0  0  0  0  0  0  0  0  0  0  0
   40.6390   25.1290   35.8490 H   0  0  0  0  0  0  0  0  0  0  0  0
   39.8010   23.0960   35.7090 C   0  0  0  0  0  3  0  0  0  0  0  0
   38.8210   22.4020   35.0450 C   0  0  0  0  0  3  0  0  0  0  0  0
   38.0060   23.0060   34.1440 N   0  0  0  0  0  0  0  0  0  0  0  0
  2  1  1  0  0  0  0
  2  3  1  0  0  0  0
  3 15  1  0  0  0  0
  4  3  2  0  0  0  0
  4  8  1  0  0  0  0
  5  4  1  0  0  0  0
  6  7  1  0  0  0  0
  6  5  2  0  0  0  0
  7  2  2  0  0  0  0
  9  6  1  0  0  0  0
 10  7  1  0  0  0  0
 11 12  1  0  0  0  0
 11 17  1  0  0  0  0
 12 18  1  0  0  0  0
 13 19  1  0  0  0  0
 13 12  2  0  0  0  0
 14 13  1  0  0  0  0
 15 14  2  0  0  0  0
 15 16  1  0  0  0  0
 16 11  2  0  0  0  0
 20  5  1  0  0  0  0
 20 25  1  0  0  0  0
 21 20  2  0  0  0  0
 22 21  1  0  0  0  0
 22 23  2  0  0  0  0
 23 24  1  0  0  0  0
 24 25  2  0  0  0  0
 24 28  1  0  0  0  0
 26 21  1  0  0  0  0
 27 22  1  0  0  0  0
 28 35  2  0  0  0  0
 28 29  1  0  0  0  0
 29 31  2  0  0  0  0
 30 29  1  0  0  0  0
 31 33  1  0  0  0  0
 31 32  1  0  0  0  0
 34 33  2  0  0  0  0
 35 34  1  0  0  0  0
M  END
>  <minimizedAffinity>
-5.74293804

$$$$

 OpenBabel03272510223D

 35 38  0  0  0  0  0  0  0  0999 V2000
   35.4330   30.7680   35.0890 Br  0  0  0  0  0  0  0  0  0  0  0  0
   35.9260   29.2330   34.0620 C   0  0  0  0  0  0  0  0  0  0  0  0
   35.5360   29.1120   32.7350 C   0  0  0  0  0  0  0  0  0  0  0  0
   35.9290   27.9810   32.0590 C   0  0  0  0  0  0  0  0  0  0  0  0
   36.6820   26.9720   32.6330 C   0  0  0  0  0  0  0  0  0  0  0  0
   37.0440   27.1270   33.9340 C   0  0  0  0  0  0  0  0  0  0  0  0
   36.6670   28.2500   34.6380 C   0  0  0  0  0  0  0  0  0  0  0  0
   35.6520   27.8300   31.0150 H   0  0  0  0  0  0  0  0  0  0  0  0
   37.6410   26.3870   34.4800 H   0  0  0  0  0  0  0  0  0  0  0  0
   36.9640   28.3630   35.6810 H   0  0  0  0  0  0  0  0  0  0  0  0
   34.7640   32.1010   30.7850 C   0  0  0  0  0  0  0  0  0  0  0  0
   33.3390   32.1580   30.8330 C   0  0  0  0  0  0  0  0  0  0  0  0
   32.6800   31.1720   31.5300 C   0  0  0  0  0  0  0  0  0  0  0  0
   33.4020   30.1810   32.1490 N   0  0  0  0  0  0  0  0  0  0  0  0
   34.7410   30.1520   32.0880 C   0  0  0  0  0  0  0  0  0  0  0  0
   35.4080   31.1130   31.4070 N   0  0  0  0  0  0  0  0  0  0  0  0
   35.3020   32.8660   30.2430 H   0  0  0  0  0  0  0  0  0  0  0  0
   32.8130   32.9610   30.3270 H   0  0  0  0  0  0  0  0  0  0  0  0
   31.5990   31.1630   31.6010 H   0  0  0  0  0  0  0  0  0  0  0  0
   37.0940   25.7810   31.9220 C   0  0  0  0  0  0  0  0  0  0  0  0
   37.9900   25.7560   30.8760 C   0  0  0  0  0  0  0  0  0  0  0  0
   38.3520   24.5820   30.2240 C   0  0  0  0  0  0  0  0  0  0  0  0
   37.8210   23.4120   30.6150 N   0  0  0  0  0  0  0  0  0  0  0  0
   36.9500   23.4280   31.6310 C   0  0  0  0  0  0  0  0  0  0  0  0
   36.6090   24.5720   32.2500 N   0  0  0  0  0  0  0  0  0  0  0  0
   38.4270   26.7060   30.5520 H   0  0  0  0  0  0  0  0  0  0  0  0
   39.0610   24.5870   29.4030 H   0  0  0  0  0  0  0  0  0  0  0  0
   36.3520   22.1750   32.0810 C   0  0  0  0  0  0  0  0  0  0  0  0
   35.5920   21.4040   31.2210 C   0  0  0  0  0  0  0  0  0  0  0  0
   35.4840   21.7970   30.2190 H   0  0  0  0  0  0  0  0  0  0  0  0
   35.0360   20.2210   31.6730 C   0  0  0  0  0  0  0  0  0  0  0  0
   34.4700   19.7270   30.8910 H   0  0  0  0  0  0  0  0  0  0  0  0
   35.2210   19.7910   32.9620 C   0  0  0  0  0  3  0  0  0  0  0  0
   35.9800   20.5840   33.7840 C   0  0  0  0  0  3  0  0  0  0  0  0
   36.5280   21.7460   33.3470 N   0  0  0  0  0  0  0  0  0  0  0  0
  2  7  1  0  0  0  0
  2  1  1  0  0  0  0
  3  2  2  0  0  0  0
  4  5  2  0  0  0  0
  4  3  1  0  0  0  0
  5  6  1  0  0  0  0
  6  9  1  0  0  0  0
  6  7  2  0  0  0  0
  7 10  1  0  0  0  0
  8  4  1  0  0  0  0
 11 12  2  0  0  0  0
 11 16  1  0  0  0  0
 12 13  1  0  0  0  0
 13 19  1  0  0  0  0
 13 14  2  0  0  0  0
 15 14  1  0  0  0  0
 15  3  1  0  0  0  0
 16 15  2  0  0  0  0
 17 11  1  0  0  0  0
 18 12  1  0  0  0  0
 20 25  1  0  0  0  0
 20  5  1  0  0  0  0
 21 20  2  0  0  0  0
 22 23  2  0  0  0  0
 22 21  1  0  0  0  0
 23 24  1  0  0  0  0
 24 28  1  0  0  0  0
 24 25  2  0  0  0  0
 26 21  1  0  0  0  0
 27 22  1  0  0  0  0
 28 35  1  0  0  0  0
 29 31  1  0  0  0  0
 29 28  2  0  0  0  0
 30 29  1  0  0  0  0
 31 33  2  0  0  0  0
 32 31  1  0  0  0  0
 33 34  1  0  0  0  0
 35 34  2  0  0  0  0
M  END
>  <minimizedAffinity>
-5.66864872

$$$$

 OpenBabel03272510223D

 35 38  0  0  0  0  0  0  0  0999 V2000
   36.9860   28.7050   31.5240 Br  0  0  0  0  0  0  0  0  0  0  0  0
   37.5260   27.4700   32.8790 C   0  0  0  0  0  0  0  0  0  0  0  0
   38.6130   26.6300   32.6800 C   0  0  0  0  0  0  0  0  0  0  0  0
   38.9430   25.7680   33.7000 C   0  0  0  0  0  0  0  0  0  0  0  0
   38.2520   25.7020   34.8960 C   0  0  0  0  0  0  0  0  0  0  0  0
   37.1950   26.5410   35.0540 C   0  0  0  0  0  0  0  0  0  0  0  0
   36.8390   27.4160   34.0500 C   0  0  0  0  0  0  0  0  0  0  0  0
   39.7870   25.0830   33.6010 H   0  0  0  0  0  0  0  0  0  0  0  0
   36.5830   26.5670   35.9630 H   0  0  0  0  0  0  0  0  0  0  0  0
   35.9890   28.0840   34.1880 H   0  0  0  0  0  0  0  0  0  0  0  0
   39.6330   25.7760   29.2800 C   0  0  0  0  0  0  0  0  0  0  0  0
   40.7360   26.6500   29.0450 C   0  0  0  0  0  0  0  0  0  0  0  0
   41.1020   27.5080   30.0560 C   0  0  0  0  0  0  0  0  0  0  0  0
   40.4050   27.4970   31.2400 N   0  0  0  0  0  0  0  0  0  0  0  0
   39.3720   26.6650   31.4330 C   0  0  0  0  0  0  0  0  0  0  0  0
   38.9970   25.8140   30.4500 N   0  0  0  0  0  0  0  0  0  0  0  0
   39.3290   25.0940   28.4980 H   0  0  0  0  0  0  0  0  0  0  0  0
   41.2550   26.6210   28.0920 H   0  0  0  0  0  0  0  0  0  0  0  0
   41.9320   28.1940   29.9360 H   0  0  0  0  0  0  0  0  0  0  0  0
   38.6000   24.7950   35.9690 C   0  0  0  0  0  0  0  0  0  0  0  0
   37.8540   24.5990   37.1100 C   0  0  0  0  0  0  0  0  0  0  0  0
   38.2330   23.7140   38.1140 C   0  0  0  0  0  0  0  0  0  0  0  0
   39.3700   23.0100   37.9870 N   0  0  0  0  0  0  0  0  0  0  0  0
   40.1000   23.1950   36.8810 C   0  0  0  0  0  0  0  0  0  0  0  0
   39.7200   24.0550   35.9200 N   0  0  0  0  0  0  0  0  0  0  0  0
   36.9250   25.1690   37.2210 H   0  0  0  0  0  0  0  0  0  0  0  0
   37.6290   23.5760   39.0040 H   0  0  0  0  0  0  0  0  0  0  0  0
   41.3420   22.4470   36.7100 C   0  0  0  0  0  0  0  0  0  0  0  0
   42.3940   22.9760   35.9850 C   0  0  0  0  0  0  0  0  0  0  0  0
   42.2220   23.9600   35.5710 H   0  0  0  0  0  0  0  0  0  0  0  0
   43.5590   22.2460   35.8390 C   0  0  0  0  0  0  0  0  0  0  0  0
   44.2910   22.7870   35.2490 H   0  0  0  0  0  0  0  0  0  0  0  0
   43.6990   21.0020   36.3970 C   0  0  0  0  0  3  0  0  0  0  0  0
   42.6330   20.5120   37.1080 C   0  0  0  0  0  3  0  0  0  0  0  0
   41.4860   21.2220   37.2560 N   0  0  0  0  0  0  0  0  0  0  0  0
  1  2  1  0  0  0  0
  2  7  1  0  0  0  0
  3  2  2  0  0  0  0
  3  4  1  0  0  0  0
  4  5  2  0  0  0  0
  5  6  1  0  0  0  0
  5 20  1  0  0  0  0
  6  9  1  0  0  0  0
  7 10  1  0  0  0  0
  7  6  2  0  0  0  0
  8  4  1  0  0  0  0
 11 16  1  0  0  0  0
 12 11  2  0  0  0  0
 12 13  1  0  0  0  0
 13 14  2  0  0  0  0
 14 15  1  0  0  0  0
 15  3  1  0  0  0  0
 16 15  2  0  0  0  0
 17 11  1  0  0  0  0
 18 12  1  0  0  0  0
 19 13  1  0  0  0  0
 20 21  1  0  0  0  0
 21 26  1  0  0  0  0
 21 22  2  0  0  0  0
 22 27  1  0  0  0  0
 23 22  1  0  0  0  0
 24 23  2  0  0  0  0
 25 20  2  0  0  0  0
 25 24  1  0  0  0  0
 28 24  1  0  0  0  0
 28 35  1  0  0  0  0
 29 28  2  0  0  0  0
 30 29  1  0  0  0  0
 31 29  1  0  0  0  0
 31 33  2  0  0  0  0
 32 31  1  0  0  0  0
 33 34  1  0  0  0  0
 34 35  2  0  0  0  0
M  END
>  <minimizedAffinity>
-5.63580084

$$$$

 OpenBabel03272510223D

 35 38  0  0  0  0  0  0  0  0999 V2000
   33.2300   32.6940   35.7630 Br  0  0  0  0  0  0  0  0  0  0  0  0
   34.2540   31.1840   35.1950 C   0  0  0  0  0  0  0  0  0  0  0  0
   33.7330   30.2760   34.2830 C   0  0  0  0  0  0  0  0  0  0  0  0
   34.5280   29.2140   33.9200 C   0  0  0  0  0  0  0  0  0  0  0  0
   35.8040   29.0130   34.4150 C   0  0  0  0  0  0  0  0  0  0  0  0
   36.2790   29.9230   35.3060 C   0  0  0  0  0  0  0  0  0  0  0  0
   35.5060   30.9980   35.6890 C   0  0  0  0  0  0  0  0  0  0  0  0
   34.1730   28.4680   33.2070 H   0  0  0  0  0  0  0  0  0  0  0  0
   37.2760   29.8540   35.7560 H   0  0  0  0  0  0  0  0  0  0  0  0
   35.8990   31.7210   36.4030 H   0  0  0  0  0  0  0  0  0  0  0  0
   31.0950   31.3170   31.9840 C   0  0  0  0  0  0  0  0  0  0  0  0
   29.9090   30.8310   32.6120 C   0  0  0  0  0  0  0  0  0  0  0  0
   30.0440   30.1590   33.8040 C   0  0  0  0  0  0  0  0  0  0  0  0
   31.2940   29.9810   34.3450 N   0  0  0  0  0  0  0  0  0  0  0  0
   32.3920   30.4490   33.7330 C   0  0  0  0  0  0  0  0  0  0  0  0
   32.2800   31.1120   32.5590 N   0  0  0  0  0  0  0  0  0  0  0  0
   31.0110   31.8480   31.0460 H   0  0  0  0  0  0  0  0  0  0  0  0
   28.9440   30.9960   32.1440 H   0  0  0  0  0  0  0  0  0  0  0  0
   29.1800   29.7660   34.3270 H   0  0  0  0  0  0  0  0  0  0  0  0
   36.6410   27.8950   34.0340 C   0  0  0  0  0  0  0  0  0  0  0  0
   37.1170   27.6620   32.7620 C   0  0  0  0  0  0  0  0  0  0  0  0
   37.9180   26.5700   32.4470 C   0  0  0  0  0  0  0  0  0  0  0  0
   38.2560   25.6930   33.4070 N   0  0  0  0  0  0  0  0  0  0  0  0
   37.7970   25.9120   34.6440 C   0  0  0  0  0  0  0  0  0  0  0  0
   37.0230   26.9720   34.9320 N   0  0  0  0  0  0  0  0  0  0  0  0
   36.8460   28.3740   31.9750 H   0  0  0  0  0  0  0  0  0  0  0  0
   38.2820   26.4080   31.4380 H   0  0  0  0  0  0  0  0  0  0  0  0
   38.1440   24.9780   35.7110 C   0  0  0  0  0  0  0  0  0  0  0  0
   37.8050   25.2450   37.0240 C   0  0  0  0  0  0  0  0  0  0  0  0
   37.2760   26.1750   37.1870 H   0  0  0  0  0  0  0  0  0  0  0  0
   38.1450   24.3440   38.0160 C   0  0  0  0  0  0  0  0  0  0  0  0
   37.8140   24.6860   38.9910 H   0  0  0  0  0  0  0  0  0  0  0  0
   38.8170   23.1840   37.7280 C   0  0  0  0  0  3  0  0  0  0  0  0
   39.1370   22.9550   36.4140 C   0  0  0  0  0  3  0  0  0  0  0  0
   38.8050   23.8360   35.4350 N   0  0  0  0  0  0  0  0  0  0  0  0
  2  7  1  0  0  0  0
  2  1  1  0  0  0  0
  3  2  2  0  0  0  0
  4  3  1  0  0  0  0
  4  5  2  0  0  0  0
  5  6  1  0  0  0  0
  6  7  2  0  0  0  0
  6  9  1  0  0  0  0
  7 10  1  0  0  0  0
  8  4  1  0  0  0  0
 11 16  2  0  0  0  0
 11 12  1  0  0  0  0
 12 13  2  0  0  0  0
 13 19  1  0  0  0  0
 13 14  1  0  0  0  0
 15  3  1  0  0  0  0
 15 14  2  0  0  0  0
 16 15  1  0  0  0  0
 17 11  1  0  0  0  0
 18 12  1  0  0  0  0
 20  5  1  0  0  0  0
 20 25  1  0  0  0  0
 21 20  2  0  0  0  0
 22 21  1  0  0  0  0
 22 23  2  0  0  0  0
 23 24  1  0  0  0  0
 24 25  2  0  0  0  0
 24 28  1  0  0  0  0
 26 21  1  0  0  0  0
 27 22  1  0  0  0  0
 28 29  1  0  0  0  0
 29 30  1  0  0  0  0
 29 31  2  0  0  0  0
 31 32  1  0  0  0  0
 33 31  1  0  0  0  0
 34 33  2  0  0  0  0
 35 28  2  0  0  0  0
 35 34  1  0  0  0  0
M  END
>  <minimizedAffinity>
-5.57677984

$$$$
