
 OpenBabel03272507043D

 30 33  0  0  0  0  0  0  0  0999 V2000
   38.2030   32.2600   49.4950 C   0  0  0  0  0  0  0  0  0  0  0  0
   38.7460   32.6490   48.2530 C   0  0  0  0  0  0  0  0  0  0  0  0
   38.1620   32.0890   47.0800 C   0  0  0  0  0  0  0  0  0  0  0  0
   37.1290   31.2230   47.2430 N   0  0  0  0  0  0  0  0  0  0  0  0
   36.6400   30.8780   48.4580 C   0  0  0  0  0  0  0  0  0  0  0  0
   37.1780   31.3960   49.5570 N   0  0  0  0  0  0  0  0  0  0  0  0
   38.5770   32.6280   50.4370 H   0  0  0  0  0  0  0  0  0  0  0  0
   39.5650   33.3410   48.2340 H   0  0  0  0  0  0  0  0  0  0  0  0
   35.5870   28.8940   49.4310 C   0  0  0  0  0  0  0  0  0  0  0  0
   35.5290   29.9390   48.5050 C   0  0  0  0  0  0  0  0  0  0  0  0
   34.4560   30.0750   47.6640 C   0  0  0  0  0  0  0  0  0  0  0  0
   33.4040   29.1780   47.7150 C   0  0  0  0  0  0  0  0  0  0  0  0
   32.2460   29.0800   47.0130 N   0  0  0  0  0  0  0  0  0  0  0  0
   31.6410   27.9870   47.5320 C   0  0  0  0  0  0  0  0  0  0  0  0
   32.3870   27.4290   48.5110 N   0  0  0  0  0  0  0  0  0  0  0  0
   33.4980   28.1570   48.6440 C   0  0  0  0  0  0  0  0  0  0  0  0
   34.5460   27.9800   49.5030 C   0  0  0  0  0  0  0  0  0  0  0  0
   36.4210   28.7620   50.1080 H   0  0  0  0  0  0  0  0  0  0  0  0
   34.4370   30.8920   46.9560 H   0  0  0  0  0  0  0  0  0  0  0  0
   31.9560   29.7280   46.2670 H   0  0  0  0  0  0  0  0  0  0  0  0
   30.6750   27.6220   47.1880 H   0  0  0  0  0  0  0  0  0  0  0  0
   34.5770   27.1620   50.2180 H   0  0  0  0  0  0  0  0  0  0  0  0
   38.6980   32.4710   45.7980 C   0  0  0  0  0  0  0  0  0  0  0  0
   39.9940   32.9190   45.7330 C   0  0  0  0  0  0  0  0  0  0  0  0
   40.6150   32.9890   46.6150 H   0  0  0  0  0  0  0  0  0  0  0  0
   40.4950   33.2820   44.4880 C   0  0  0  0  0  0  0  0  0  0  0  0
   41.5100   33.6450   44.3560 H   0  0  0  0  0  0  0  0  0  0  0  0
   39.6380   33.1660   43.3870 C   0  0  0  0  0  0  0  0  0  0  0  0
   38.3260   32.7050   43.5030 C   0  0  0  0  0  0  0  0  0  0  0  0
   37.8990   32.3680   44.7330 N   0  0  0  0  0  0  0  0  0  0  0  0
  1  6  1  0  0  0  0
  1  7  1  0  0  0  0
  2  1  2  0  0  0  0
  3  4  2  0  0  0  0
  3  2  1  0  0  0  0
  4  5  1  0  0  0  0
  5 10  1  0  0  0  0
  5  6  2  0  0  0  0
  8  2  1  0  0  0  0
  9 17  1  0  0  0  0
  9 18  1  0  0  0  0
 10  9  2  0  0  0  0
 11 12  2  0  0  0  0
 11 10  1  0  0  0  0
 12 16  1  0  0  0  0
 13 14  1  0  0  0  0
 13 12  1  0  0  0  0
 14 15  2  0  0  0  0
 15 16  1  0  0  0  0
 16 17  2  0  0  0  0
 17 22  1  0  0  0  0
 19 11  1  0  0  0  0
 20 13  1  0  0  0  0
 21 14  1  0  0  0  0
 23  3  1  0  0  0  0
 24 23  1  0  0  0  0
 24 25  1  0  0  0  0
 26 24  2  0  0  0  0
 27 26  1  0  0  0  0
 28 29  2  0  0  0  0
 28 26  1  0  0  0  0
 29 30  1  0  0  0  0
 30 23  2  0  0  0  0
M  END
>  <minimizedAffinity>
-6.75916481

>  <minimizedRMSD>
2.30979276

$$$$
