
 OpenBabel03272503383D

 18 19  0  0  0  0  0  0  0  0999 V2000
   39.1540   23.0490   37.8820 C   0  0  0  0  0  0  0  0  0  0  0  0
   38.3900   24.0290   37.2200 C   0  0  0  0  0  0  0  0  0  0  0  0
   38.8830   24.5310   36.0270 C   0  0  0  0  0  0  0  0  0  0  0  0
   40.0640   24.0600   35.5560 N   0  0  0  0  0  0  0  0  0  0  0  0
   40.7780   23.1190   36.2100 C   0  0  0  0  0  0  0  0  0  0  0  0
   40.3150   22.6310   37.3540 N   0  0  0  0  0  0  0  0  0  0  0  0
   37.4520   24.4050   37.5910 H   0  0  0  0  0  0  0  0  0  0  0  0
   41.7010   22.7910   35.7860 H   0  0  0  0  0  0  0  0  0  0  0  0
   38.2050   25.5460   35.2330 C   0  0  0  0  0  0  0  0  0  0  0  0
   37.9540   26.8280   35.6710 C   0  0  0  0  0  0  0  0  0  0  0  0
   38.2660   27.1270   36.6590 H   0  0  0  0  0  0  0  0  0  0  0  0
   37.3150   27.8050   34.9400 C   0  0  0  0  0  0  0  0  0  0  0  0
   37.1420   28.7980   35.3310 H   0  0  0  0  0  0  0  0  0  0  0  0
   36.8850   27.5020   33.6660 C   0  0  0  0  0  3  0  0  0  0  0  0
   37.1400   26.2170   33.2340 C   0  0  0  0  0  3  0  0  0  0  0  0
   37.7690   25.2960   33.9870 N   0  0  0  0  0  0  0  0  0  0  0  0
   38.5590   22.6290   39.0570 O   0  0  0  0  0  0  0  0  0  0  0  0
   38.3870   23.3200   39.7810 H   0  0  0  0  0  0  0  0  0  0  0  0
  1 17  1  0  0  0  0
  2  7  1  0  0  0  0
  2  1  2  0  0  0  0
  3  2  1  0  0  0  0
  4  3  2  0  0  0  0
  4  5  1  0  0  0  0
  5  6  2  0  0  0  0
  6  1  1  0  0  0  0
  8  5  1  0  0  0  0
  9 10  1  0  0  0  0
  9  3  1  0  0  0  0
 10 11  1  0  0  0  0
 12 13  1  0  0  0  0
 12 10  2  0  0  0  0
 14 12  1  0  0  0  0
 15 14  2  0  0  0  0
 15 16  1  0  0  0  0
 16  9  2  0  0  0  0
 17 18  1  0  0  0  0
M  END
>  <minimizedAffinity>
-4.61200762

$$$$

 OpenBabel03272503383D

 18 19  0  0  0  0  0  0  0  0999 V2000
   39.6610   22.7690   37.6920 C   0  0  0  0  0  0  0  0  0  0  0  0
   39.8900   23.4410   36.4760 C   0  0  0  0  0  0  0  0  0  0  0  0
   39.0720   24.5180   36.1720 C   0  0  0  0  0  0  0  0  0  0  0  0
   38.1020   24.8720   37.0500 N   0  0  0  0  0  0  0  0  0  0  0  0
   37.9030   24.2110   38.2110 C   0  0  0  0  0  0  0  0  0  0  0  0
   38.6800   23.1780   38.5120 N   0  0  0  0  0  0  0  0  0  0  0  0
   40.6590   23.1620   35.7770 H   0  0  0  0  0  0  0  0  0  0  0  0
   37.1210   24.5410   38.8590 H   0  0  0  0  0  0  0  0  0  0  0  0
   39.1900   25.3050   34.9540 C   0  0  0  0  0  0  0  0  0  0  0  0
   40.0600   26.3620   34.7980 C   0  0  0  0  0  0  0  0  0  0  0  0
   40.7060   26.6470   35.6120 H   0  0  0  0  0  0  0  0  0  0  0  0
   40.1890   27.1210   33.6560 C   0  0  0  0  0  0  0  0  0  0  0  0
   40.8890   27.9420   33.5860 H   0  0  0  0  0  0  0  0  0  0  0  0
   39.3980   26.8200   32.5690 C   0  0  0  0  0  3  0  0  0  0  0  0
   38.5290   25.7610   32.7310 C   0  0  0  0  0  3  0  0  0  0  0  0
   38.4390   25.0480   33.8690 N   0  0  0  0  0  0  0  0  0  0  0  0
   40.5380   21.7170   37.8800 O   0  0  0  0  0  0  0  0  0  0  0  0
   40.5400   20.9670   37.1970 H   0  0  0  0  0  0  0  0  0  0  0  0
  1 17  1  0  0  0  0
  1  6  1  0  0  0  0
  2  1  2  0  0  0  0
  3  2  1  0  0  0  0
  3  4  2  0  0  0  0
  4  5  1  0  0  0  0
  5  6  2  0  0  0  0
  5  8  1  0  0  0  0
  7  2  1  0  0  0  0
  9  3  1  0  0  0  0
 10  9  1  0  0  0  0
 10 11  1  0  0  0  0
 12 10  2  0  0  0  0
 13 12  1  0  0  0  0
 14 15  2  0  0  0  0
 14 12  1  0  0  0  0
 15 16  1  0  0  0  0
 16  9  2  0  0  0  0
 18 17  1  0  0  0  0
M  END
>  <minimizedAffinity>
-4.44023561

$$$$

 OpenBabel03272503383D

 18 19  0  0  0  0  0  0  0  0999 V2000
   36.0270   25.2390   31.1260 C   0  0  0  0  0  0  0  0  0  0  0  0
   35.6490   23.8830   31.1170 C   0  0  0  0  0  0  0  0  0  0  0  0
   36.3040   23.0270   31.9880 C   0  0  0  0  0  0  0  0  0  0  0  0
   37.2660   23.5290   32.8000 N   0  0  0  0  0  0  0  0  0  0  0  0
   37.6110   24.8350   32.7900 C   0  0  0  0  0  0  0  0  0  0  0  0
   36.9900   25.6640   31.9590 N   0  0  0  0  0  0  0  0  0  0  0  0
   34.8850   23.4810   30.4740 H   0  0  0  0  0  0  0  0  0  0  0  0
   38.3780   25.1670   33.4540 H   0  0  0  0  0  0  0  0  0  0  0  0
   36.0210   21.6030   32.0890 C   0  0  0  0  0  0  0  0  0  0  0  0
   35.6710   20.9670   33.2590 C   0  0  0  0  0  0  0  0  0  0  0  0
   35.5930   21.5330   34.1740 H   0  0  0  0  0  0  0  0  0  0  0  0
   35.3980   19.6220   33.3810 C   0  0  0  0  0  0  0  0  0  0  0  0
   35.1270   19.1710   34.3250 H   0  0  0  0  0  0  0  0  0  0  0  0
   35.4750   18.8280   32.2570 C   0  0  0  0  0  3  0  0  0  0  0  0
   35.8260   19.4710   31.0880 C   0  0  0  0  0  3  0  0  0  0  0  0
   36.0840   20.7900   31.0200 N   0  0  0  0  0  0  0  0  0  0  0  0
   35.3040   25.9890   30.2160 O   0  0  0  0  0  0  0  0  0  0  0  0
   35.3610   25.7370   29.2350 H   0  0  0  0  0  0  0  0  0  0  0  0
  1  6  1  0  0  0  0
  2  1  2  0  0  0  0
  2  3  1  0  0  0  0
  3  9  1  0  0  0  0
  3  4  2  0  0  0  0
  5  4  1  0  0  0  0
  5  8  1  0  0  0  0
  6  5  2  0  0  0  0
  7  2  1  0  0  0  0
  9 10  1  0  0  0  0
 10 12  2  0  0  0  0
 10 11  1  0  0  0  0
 12 13  1  0  0  0  0
 14 12  1  0  0  0  0
 15 14  2  0  0  0  0
 16 15  1  0  0  0  0
 16  9  2  0  0  0  0
 17  1  1  0  0  0  0
 18 17  1  0  0  0  0
M  END
>  <minimizedAffinity>
-4.13584232

$$$$

 OpenBabel03272503383D

 18 19  0  0  0  0  0  0  0  0999 V2000
   39.1260   26.9770   35.3640 C   0  0  0  0  0  0  0  0  0  0  0  0
   38.0910   26.2870   34.7060 C   0  0  0  0  0  0  0  0  0  0  0  0
   38.4360   25.4720   33.6410 C   0  0  0  0  0  0  0  0  0  0  0  0
   39.7410   25.3750   33.2860 N   0  0  0  0  0  0  0  0  0  0  0  0
   40.7170   26.0480   33.9340 C   0  0  0  0  0  0  0  0  0  0  0  0
   40.3960   26.8320   34.9560 N   0  0  0  0  0  0  0  0  0  0  0  0
   37.0530   26.3620   34.9840 H   0  0  0  0  0  0  0  0  0  0  0  0
   41.7260   25.9280   33.6050 H   0  0  0  0  0  0  0  0  0  0  0  0
   37.4760   24.7000   32.8660 C   0  0  0  0  0  0  0  0  0  0  0  0
   36.5140   25.2560   32.0530 C   0  0  0  0  0  0  0  0  0  0  0  0
   36.4430   26.3290   31.9640 H   0  0  0  0  0  0  0  0  0  0  0  0
   35.5950   24.5480   31.3110 C   0  0  0  0  0  0  0  0  0  0  0  0
   34.8590   25.0340   30.6860 H   0  0  0  0  0  0  0  0  0  0  0  0
   35.6190   23.1710   31.3690 C   0  0  0  0  0  3  0  0  0  0  0  0
   36.5850   22.6200   32.1850 C   0  0  0  0  0  3  0  0  0  0  0  0
   37.4620   23.3560   32.8920 N   0  0  0  0  0  0  0  0  0  0  0  0
   38.6560   27.7560   36.4050 O   0  0  0  0  0  0  0  0  0  0  0  0
   37.9860   28.4880   36.1920 H   0  0  0  0  0  0  0  0  0  0  0  0
  1 17  1  0  0  0  0
  2  7  1  0  0  0  0
  2  1  2  0  0  0  0
  3  2  1  0  0  0  0
  4  3  2  0  0  0  0
  4  5  1  0  0  0  0
  5  6  2  0  0  0  0
  6  1  1  0  0  0  0
  8  5  1  0  0  0  0
  9 16  1  0  0  0  0
  9  3  1  0  0  0  0
 10  9  2  0  0  0  0
 11 10  1  0  0  0  0
 12 14  2  0  0  0  0
 12 10  1  0  0  0  0
 13 12  1  0  0  0  0
 14 15  1  0  0  0  0
 15 16  2  0  0  0  0
 18 17  1  0  0  0  0
M  END
>  <minimizedAffinity>
-4.06979513

$$$$

 OpenBabel03272503383D

 18 19  0  0  0  0  0  0  0  0999 V2000
   37.0030   27.0820   33.6670 C   0  0  0  0  0  0  0  0  0  0  0  0
   37.3410   26.4850   34.8960 C   0  0  0  0  0  0  0  0  0  0  0  0
   37.9940   25.2630   34.8590 C   0  0  0  0  0  0  0  0  0  0  0  0
   38.2760   24.7070   33.6550 N   0  0  0  0  0  0  0  0  0  0  0  0
   37.9410   25.3010   32.4890 C   0  0  0  0  0  0  0  0  0  0  0  0
   37.3150   26.4710   32.5130 N   0  0  0  0  0  0  0  0  0  0  0  0
   37.1190   26.9240   35.8530 H   0  0  0  0  0  0  0  0  0  0  0  0
   38.1910   24.8100   31.5750 H   0  0  0  0  0  0  0  0  0  0  0  0
   38.4050   24.5280   36.0460 C   0  0  0  0  0  0  0  0  0  0  0  0
   37.8410   24.6960   37.2910 C   0  0  0  0  0  0  0  0  0  0  0  0
   37.0440   25.4090   37.4270 H   0  0  0  0  0  0  0  0  0  0  0  0
   38.2110   24.0120   38.4290 C   0  0  0  0  0  0  0  0  0  0  0  0
   37.7350   24.1820   39.3850 H   0  0  0  0  0  0  0  0  0  0  0  0
   39.2230   23.0810   38.3400 C   0  0  0  0  0  3  0  0  0  0  0  0
   39.7830   22.9180   37.0900 C   0  0  0  0  0  3  0  0  0  0  0  0
   39.3860   23.6110   36.0070 N   0  0  0  0  0  0  0  0  0  0  0  0
   36.3570   28.2930   33.8350 O   0  0  0  0  0  0  0  0  0  0  0  0
   35.4810   28.3020   34.3480 H   0  0  0  0  0  0  0  0  0  0  0  0
  1 17  1  0  0  0  0
  1  2  1  0  0  0  0
  2  7  1  0  0  0  0
  3  2  2  0  0  0  0
  3  9  1  0  0  0  0
  4  3  1  0  0  0  0
  5  6  1  0  0  0  0
  5  4  2  0  0  0  0
  6  1  2  0  0  0  0
  8  5  1  0  0  0  0
  9 10  1  0  0  0  0
 10 11  1  0  0  0  0
 10 12  2  0  0  0  0
 12 13  1  0  0  0  0
 14 12  1  0  0  0  0
 15 14  2  0  0  0  0
 16  9  2  0  0  0  0
 16 15  1  0  0  0  0
 17 18  1  0  0  0  0
M  END
>  <minimizedAffinity>
-4.0457139

$$$$

 OpenBabel03272503383D

 18 19  0  0  0  0  0  0  0  0999 V2000
   37.2470   26.0000   32.7680 C   0  0  0  0  0  0  0  0  0  0  0  0
   37.8270   25.0660   33.6470 C   0  0  0  0  0  0  0  0  0  0  0  0
   37.9220   25.4150   34.9850 C   0  0  0  0  0  0  0  0  0  0  0  0
   37.4550   26.6240   35.3810 N   0  0  0  0  0  0  0  0  0  0  0  0
   36.9020   27.5030   34.5170 C   0  0  0  0  0  0  0  0  0  0  0  0
   36.8070   27.1790   33.2330 N   0  0  0  0  0  0  0  0  0  0  0  0
   38.1990   24.1050   33.3360 H   0  0  0  0  0  0  0  0  0  0  0  0
   36.5540   28.4390   34.8940 H   0  0  0  0  0  0  0  0  0  0  0  0
   38.4970   24.5540   36.0070 C   0  0  0  0  0  0  0  0  0  0  0  0
   37.9980   24.4340   37.2860 C   0  0  0  0  0  0  0  0  0  0  0  0
   37.1290   25.0010   37.5770 H   0  0  0  0  0  0  0  0  0  0  0  0
   38.5250   23.6260   38.2700 C   0  0  0  0  0  0  0  0  0  0  0  0
   38.0940   23.5680   39.2600 H   0  0  0  0  0  0  0  0  0  0  0  0
   39.6380   22.8680   37.9780 C   0  0  0  0  0  3  0  0  0  0  0  0
   40.1320   22.9920   36.6960 C   0  0  0  0  0  3  0  0  0  0  0  0
   39.5820   23.7960   35.7680 N   0  0  0  0  0  0  0  0  0  0  0  0
   37.2100   25.5380   31.4650 O   0  0  0  0  0  0  0  0  0  0  0  0
   38.0890   25.3070   31.0140 H   0  0  0  0  0  0  0  0  0  0  0  0
  1  6  2  0  0  0  0
  1  2  1  0  0  0  0
  2  3  2  0  0  0  0
  3  4  1  0  0  0  0
  3  9  1  0  0  0  0
  5  8  1  0  0  0  0
  5  4  2  0  0  0  0
  6  5  1  0  0  0  0
  7  2  1  0  0  0  0
  9 10  1  0  0  0  0
 10 11  1  0  0  0  0
 10 12  2  0  0  0  0
 12 13  1  0  0  0  0
 14 12  1  0  0  0  0
 15 14  2  0  0  0  0
 16  9  2  0  0  0  0
 16 15  1  0  0  0  0
 17  1  1  0  0  0  0
 18 17  1  0  0  0  0
M  END
>  <minimizedAffinity>
-4.01973677

$$$$

 OpenBabel03272503383D

 18 19  0  0  0  0  0  0  0  0999 V2000
   36.0210   29.2640   31.5290 C   0  0  0  0  0  0  0  0  0  0  0  0
   35.4090   30.0920   32.4900 C   0  0  0  0  0  0  0  0  0  0  0  0
   35.5130   29.7190   33.8200 C   0  0  0  0  0  0  0  0  0  0  0  0
   36.1920   28.5880   34.1320 N   0  0  0  0  0  0  0  0  0  0  0  0
   36.7710   27.8100   33.1920 C   0  0  0  0  0  0  0  0  0  0  0  0
   36.6770   28.1580   31.9140 N   0  0  0  0  0  0  0  0  0  0  0  0
   34.8690   30.9900   32.2450 H   0  0  0  0  0  0  0  0  0  0  0  0
   37.2910   26.9310   33.5040 H   0  0  0  0  0  0  0  0  0  0  0  0
   34.9320   30.4740   34.9210 C   0  0  0  0  0  0  0  0  0  0  0  0
   35.6370   31.3580   35.7080 C   0  0  0  0  0  0  0  0  0  0  0  0
   36.6870   31.5210   35.5210 H   0  0  0  0  0  0  0  0  0  0  0  0
   35.1110   32.0830   36.7530 C   0  0  0  0  0  0  0  0  0  0  0  0
   35.7090   32.7660   37.3410 H   0  0  0  0  0  0  0  0  0  0  0  0
   33.7750   31.9320   37.0560 C   0  0  0  0  0  3  0  0  0  0  0  0
   33.0750   31.0460   36.2640 C   0  0  0  0  0  3  0  0  0  0  0  0
   33.6350   30.3590   35.2520 N   0  0  0  0  0  0  0  0  0  0  0  0
   35.8470   29.7400   30.2430 O   0  0  0  0  0  0  0  0  0  0  0  0
   34.9000   29.8420   29.8940 H   0  0  0  0  0  0  0  0  0  0  0  0
  1  6  2  0  0  0  0
  1  2  1  0  0  0  0
  2  3  2  0  0  0  0
  3  4  1  0  0  0  0
  3  9  1  0  0  0  0
  5  8  1  0  0  0  0
  5  4  2  0  0  0  0
  6  5  1  0  0  0  0
  7  2  1  0  0  0  0
  9 16  2  0  0  0  0
  9 10  1  0  0  0  0
 10 12  2  0  0  0  0
 11 10  1  0  0  0  0
 12 14  1  0  0  0  0
 12 13  1  0  0  0  0
 15 14  2  0  0  0  0
 16 15  1  0  0  0  0
 17  1  1  0  0  0  0
 18 17  1  0  0  0  0
M  END
>  <minimizedAffinity>
-4.0131259

$$$$

 OpenBabel03272503383D

 18 19  0  0  0  0  0  0  0  0999 V2000
   39.4270   22.8120   36.9340 C   0  0  0  0  0  0  0  0  0  0  0  0
   38.3200   22.3570   36.1930 C   0  0  0  0  0  0  0  0  0  0  0  0
   38.3740   22.4790   34.8140 C   0  0  0  0  0  0  0  0  0  0  0  0
   39.4780   23.0250   34.2480 N   0  0  0  0  0  0  0  0  0  0  0  0
   40.5290   23.4550   34.9810 C   0  0  0  0  0  0  0  0  0  0  0  0
   40.4870   23.3420   36.3030 N   0  0  0  0  0  0  0  0  0  0  0  0
   37.4420   21.9230   36.6390 H   0  0  0  0  0  0  0  0  0  0  0  0
   41.3680   23.8760   34.4730 H   0  0  0  0  0  0  0  0  0  0  0  0
   37.3070   22.0540   33.9200 C   0  0  0  0  0  0  0  0  0  0  0  0
   36.4270   21.0320   34.2000 C   0  0  0  0  0  0  0  0  0  0  0  0
   36.5080   20.4960   35.1320 H   0  0  0  0  0  0  0  0  0  0  0  0
   35.4100   20.6120   33.3720 C   0  0  0  0  0  0  0  0  0  0  0  0
   34.7440   19.8030   33.6400 H   0  0  0  0  0  0  0  0  0  0  0  0
   35.2380   21.2470   32.1610 C   0  0  0  0  0  3  0  0  0  0  0  0
   36.1230   22.2690   31.8870 C   0  0  0  0  0  3  0  0  0  0  0  0
   37.1020   22.6440   32.7300 N   0  0  0  0  0  0  0  0  0  0  0  0
   39.2530   22.6360   38.2940 O   0  0  0  0  0  0  0  0  0  0  0  0
   38.4680   23.0980   38.7400 H   0  0  0  0  0  0  0  0  0  0  0  0
  1 17  1  0  0  0  0
  2  7  1  0  0  0  0
  2  1  2  0  0  0  0
  3  2  1  0  0  0  0
  4  3  2  0  0  0  0
  4  5  1  0  0  0  0
  5  6  2  0  0  0  0
  6  1  1  0  0  0  0
  8  5  1  0  0  0  0
  9 10  1  0  0  0  0
  9  3  1  0  0  0  0
 10 11  1  0  0  0  0
 12 13  1  0  0  0  0
 12 10  2  0  0  0  0
 14 12  1  0  0  0  0
 15 14  2  0  0  0  0
 15 16  1  0  0  0  0
 16  9  2  0  0  0  0
 17 18  1  0  0  0  0
M  END
>  <minimizedAffinity>
-4.00899982

$$$$

 OpenBabel03272503383D

 18 19  0  0  0  0  0  0  0  0999 V2000
   39.4800   22.9130   37.7460 C   0  0  0  0  0  0  0  0  0  0  0  0
   38.6040   23.3920   36.7540 C   0  0  0  0  0  0  0  0  0  0  0  0
   39.1290   23.6380   35.4950 C   0  0  0  0  0  0  0  0  0  0  0  0
   40.4470   23.4070   35.2790 N   0  0  0  0  0  0  0  0  0  0  0  0
   41.2680   22.9460   36.2480 C   0  0  0  0  0  0  0  0  0  0  0  0
   40.7750   22.7070   37.4570 N   0  0  0  0  0  0  0  0  0  0  0  0
   37.5560   23.5770   36.9220 H   0  0  0  0  0  0  0  0  0  0  0  0
   42.2960   22.7850   36.0120 H   0  0  0  0  0  0  0  0  0  0  0  0
   38.3460   24.1350   34.3740 C   0  0  0  0  0  0  0  0  0  0  0  0
   37.9390   23.3580   33.3120 C   0  0  0  0  0  0  0  0  0  0  0  0
   38.2020   22.3130   33.2810 H   0  0  0  0  0  0  0  0  0  0  0  0
   37.1980   23.8050   32.2400 C   0  0  0  0  0  0  0  0  0  0  0  0
   36.9040   23.1520   31.4290 H   0  0  0  0  0  0  0  0  0  0  0  0
   36.8200   25.1300   32.2040 C   0  0  0  0  0  3  0  0  0  0  0  0
   37.2300   25.9020   33.2700 C   0  0  0  0  0  3  0  0  0  0  0  0
   37.9550   25.4190   34.2960 N   0  0  0  0  0  0  0  0  0  0  0  0
   38.8400   22.7080   38.9540 O   0  0  0  0  0  0  0  0  0  0  0  0
   38.3940   23.5020   39.4010 H   0  0  0  0  0  0  0  0  0  0  0  0
  1 17  1  0  0  0  0
  2  7  1  0  0  0  0
  2  1  2  0  0  0  0
  3  2  1  0  0  0  0
  4  3  2  0  0  0  0
  4  5  1  0  0  0  0
  5  6  2  0  0  0  0
  6  1  1  0  0  0  0
  8  5  1  0  0  0  0
  9  3  1  0  0  0  0
 10  9  2  0  0  0  0
 11 10  1  0  0  0  0
 12 10  1  0  0  0  0
 13 12  1  0  0  0  0
 14 12  2  0  0  0  0
 14 15  1  0  0  0  0
 15 16  2  0  0  0  0
 16  9  1  0  0  0  0
 17 18  1  0  0  0  0
M  END
>  <minimizedAffinity>
-3.9798243

$$$$
