
 OpenBabel03262522083D

 39 42  0  0  1  0  0  0  0  0999 V2000
   38.7340   23.2230   36.0680 C   0  0  2  0  0  0  0  0  0  0  0  0
   38.0960   24.3760   36.7630 C   0  0  0  0  0  0  0  0  0  0  0  0
   37.9740   25.4940   35.8240 N   0  0  0  0  0  0  0  0  0  0  0  0
   37.5180   26.5760   34.9950 C   0  0  0  0  0  0  0  0  0  0  0  0
   36.4830   27.2530   34.8900 O   0  0  0  0  0  0  0  0  0  0  0  0
   38.7340   26.6670   34.2320 C   0  0  1  0  0  0  0  0  0  0  0  0
   39.2880   25.7340   35.3030 C   0  0  2  0  0  0  0  0  0  0  0  0
   39.7050   24.0660   34.7460 S   0  0  0  0  0  0  0  0  0  0  0  0
   38.5790   24.6670   37.7070 H   0  0  0  0  0  0  0  0  0  0  0  0
   37.0590   24.0660   37.0190 H   0  0  0  0  0  0  0  0  0  0  0  0
   39.3600   27.5970   34.2700 H   0  0  0  0  0  0  0  0  0  0  0  0
   40.0150   26.1810   36.0020 H   0  0  0  0  0  0  0  0  0  0  0  0
   37.8170   22.1690   35.5470 C   0  0  0  0  0  0  0  0  0  0  0  0
   38.1910   21.1690   35.8430 H   0  0  0  0  0  0  0  0  0  0  0  0
   37.6450   22.2290   34.4490 H   0  0  0  0  0  0  0  0  0  0  0  0
   36.8070   22.2860   36.0150 H   0  0  0  0  0  0  0  0  0  0  0  0
   39.8090   22.6320   37.0010 C   0  0  0  0  0  0  0  0  0  0  0  0
   40.6800   23.3300   36.9330 H   0  0  0  0  0  0  0  0  0  0  0  0
   40.1140   21.6290   36.6530 H   0  0  0  0  0  0  0  0  0  0  0  0
   39.2960   22.5970   38.2970 O   0  0  0  0  0  0  0  0  0  0  0  0
   39.1430   21.6480   38.5250 H   0  0  0  0  0  0  0  0  0  0  0  0
   38.7040   26.1280   32.8600 C   0  0  0  0  0  0  0  0  0  0  0  0
   39.8260   26.2180   32.2620 O   0  0  0  0  0  0  0  0  0  0  0  0
   37.5480   25.5530   32.2450 C   0  0  0  0  0  0  0  0  0  0  0  0
   36.6230   26.3960   31.6730 C   0  0  0  0  0  0  0  0  0  0  0  0
   35.4790   25.8060   31.0710 C   0  0  0  0  0  0  0  0  0  0  0  0
   35.3660   24.4390   31.0970 N   0  0  0  0  0  0  0  0  0  0  0  0
   36.2810   23.6710   31.6580 C   0  0  0  0  0  0  0  0  0  0  0  0
   37.3720   24.2080   32.2340 N   0  0  0  0  0  0  0  0  0  0  0  0
   36.7240   27.4600   31.6610 H   0  0  0  0  0  0  0  0  0  0  0  0
   34.7170   26.4080   30.6060 H   0  0  0  0  0  0  0  0  0  0  0  0
   36.0760   22.2260   31.6360 C   0  0  0  0  0  0  0  0  0  0  0  0
   35.0530   21.5890   32.3080 C   0  0  0  0  0  0  0  0  0  0  0  0
   34.3670   22.1720   32.8820 H   0  0  0  0  0  0  0  0  0  0  0  0
   34.8540   20.2230   32.2910 C   0  0  0  0  0  0  0  0  0  0  0  0
   34.0710   19.7180   32.8040 H   0  0  0  0  0  0  0  0  0  0  0  0
   35.7710   19.4870   31.5310 C   0  0  0  0  0  3  0  0  0  0  0  0
   36.7980   20.1230   30.8560 C   0  0  0  0  0  3  0  0  0  0  0  0
   36.9250   21.4630   30.9220 N   0  0  0  0  0  0  0  0  0  0  0  0
  1 13  1  6  0  0  0
  1  2  1  0  0  0  0
  1 17  1  0  0  0  0
  2 10  1  0  0  0  0
  2  9  1  0  0  0  0
  3  2  1  0  0  0  0
  4  3  1  0  0  0  0
  5  4  2  0  0  0  0
  6 11  1  1  0  0  0
  6  4  1  0  0  0  0
  6  7  1  0  0  0  0
  7  3  1  0  0  0  0
  7 12  1  1  0  0  0
  8  7  1  0  0  0  0
  8  1  1  0  0  0  0
 13 14  1  0  0  0  0
 13 16  1  0  0  0  0
 15 13  1  0  0  0  0
 17 20  1  0  0  0  0
 18 17  1  0  0  0  0
 19 17  1  0  0  0  0
 20 21  1  0  0  0  0
 22  6  1  0  0  0  0
 23 22  2  0  0  0  0
 24 22  1  0  0  0  0
 25 24  2  0  0  0  0
 26 27  2  0  0  0  0
 26 25  1  0  0  0  0
 27 28  1  0  0  0  0
 28 29  2  0  0  0  0
 29 24  1  0  0  0  0
 30 25  1  0  0  0  0
 31 26  1  0  0  0  0
 32 28  1  0  0  0  0
 32 33  1  0  0  0  0
 33 34  1  0  0  0  0
 35 33  2  0  0  0  0
 35 36  1  0  0  0  0
 37 35  1  0  0  0  0
 38 39  1  0  0  0  0
 38 37  2  0  0  0  0
 39 32  2  0  0  0  0
M  END
>  <minimizedAffinity>
-6.35021257

$$$$

 OpenBabel03262522083D

 39 42  0  0  1  0  0  0  0  0999 V2000
   41.9080   26.1090   33.2180 C   0  0  2  0  0  0  0  0  0  0  0  0
   41.8680   25.5090   34.5810 C   0  0  0  0  0  0  0  0  0  0  0  0
   40.4760   25.4470   35.0360 N   0  0  0  0  0  0  0  0  0  0  0  0
   39.1860   25.0480   35.5290 C   0  0  0  0  0  0  0  0  0  0  0  0
   38.7050   24.0440   36.0750 O   0  0  0  0  0  0  0  0  0  0  0  0
   38.5320   26.2780   35.1680 C   0  0  1  0  0  0  0  0  0  0  0  0
   39.9530   26.7770   34.9280 C   0  0  2  0  0  0  0  0  0  0  0  0
   40.3740   27.1330   33.2070 S   0  0  0  0  0  0  0  0  0  0  0  0
   42.5310   25.9900   35.3140 H   0  0  0  0  0  0  0  0  0  0  0  0
   42.2140   24.4570   34.4820 H   0  0  0  0  0  0  0  0  0  0  0  0
   38.0950   26.9410   35.9600 H   0  0  0  0  0  0  0  0  0  0  0  0
   40.3340   27.5110   35.6570 H   0  0  0  0  0  0  0  0  0  0  0  0
   41.9920   25.1570   32.0730 C   0  0  0  0  0  0  0  0  0  0  0  0
   42.7840   25.4850   31.3720 H   0  0  0  0  0  0  0  0  0  0  0  0
   41.0220   25.0030   31.5490 H   0  0  0  0  0  0  0  0  0  0  0  0
   42.2920   24.1460   32.4480 H   0  0  0  0  0  0  0  0  0  0  0  0
   43.0490   27.1450   33.1810 C   0  0  0  0  0  0  0  0  0  0  0  0
   42.6370   28.0230   32.6230 H   0  0  0  0  0  0  0  0  0  0  0  0
   43.9210   26.7390   32.6360 H   0  0  0  0  0  0  0  0  0  0  0  0
   43.3730   27.4910   34.4920 O   0  0  0  0  0  0  0  0  0  0  0  0
   44.2620   27.1070   34.6840 H   0  0  0  0  0  0  0  0  0  0  0  0
   37.6520   26.2460   33.9860 C   0  0  0  0  0  0  0  0  0  0  0  0
   37.6470   25.1170   33.3960 O   0  0  0  0  0  0  0  0  0  0  0  0
   36.8700   27.3550   33.5330 C   0  0  0  0  0  0  0  0  0  0  0  0
   36.6400   27.4860   32.1830 C   0  0  0  0  0  0  0  0  0  0  0  0
   35.8650   28.5960   31.7510 C   0  0  0  0  0  0  0  0  0  0  0  0
   35.3970   29.4660   32.7030 N   0  0  0  0  0  0  0  0  0  0  0  0
   35.6440   29.2990   33.9880 C   0  0  0  0  0  0  0  0  0  0  0  0
   36.3750   28.2550   34.4190 N   0  0  0  0  0  0  0  0  0  0  0  0
   37.0120   26.7990   31.4530 H   0  0  0  0  0  0  0  0  0  0  0  0
   35.6480   28.7570   30.7100 H   0  0  0  0  0  0  0  0  0  0  0  0
   35.1030   30.2760   34.9280 C   0  0  0  0  0  0  0  0  0  0  0  0
   35.8750   31.2080   35.5900 C   0  0  0  0  0  0  0  0  0  0  0  0
   36.9290   31.2270   35.4180 H   0  0  0  0  0  0  0  0  0  0  0  0
   35.3690   32.1350   36.4800 C   0  0  0  0  0  0  0  0  0  0  0  0
   35.9520   32.8590   36.9980 H   0  0  0  0  0  0  0  0  0  0  0  0
   33.9850   32.0840   36.6850 C   0  0  0  0  0  3  0  0  0  0  0  0
   33.2080   31.1510   36.0210 C   0  0  0  0  0  3  0  0  0  0  0  0
   33.7780   30.2780   35.1680 N   0  0  0  0  0  0  0  0  0  0  0  0
  1 13  1  6  0  0  0
  1  2  1  0  0  0  0
  2  3  1  0  0  0  0
  2  9  1  0  0  0  0
  3  4  1  0  0  0  0
  4  5  2  0  0  0  0
  6  4  1  0  0  0  0
  6 11  1  1  0  0  0
  7  3  1  0  0  0  0
  7  6  1  0  0  0  0
  7 12  1  1  0  0  0
  8  1  1  0  0  0  0
  8  7  1  0  0  0  0
 10  2  1  0  0  0  0
 13 16  1  0  0  0  0
 14 13  1  0  0  0  0
 15 13  1  0  0  0  0
 17  1  1  0  0  0  0
 17 20  1  0  0  0  0
 18 17  1  0  0  0  0
 19 17  1  0  0  0  0
 20 21  1  0  0  0  0
 22  6  1  0  0  0  0
 23 22  2  0  0  0  0
 24 22  1  0  0  0  0
 24 29  1  0  0  0  0
 25 24  2  0  0  0  0
 26 25  1  0  0  0  0
 26 27  2  0  0  0  0
 27 28  1  0  0  0  0
 28 29  2  0  0  0  0
 28 32  1  0  0  0  0
 30 25  1  0  0  0  0
 31 26  1  0  0  0  0
 32 39  2  0  0  0  0
 32 33  1  0  0  0  0
 33 35  2  0  0  0  0
 34 33  1  0  0  0  0
 35 37  1  0  0  0  0
 35 36  1  0  0  0  0
 38 37  2  0  0  0  0
 39 38  1  0  0  0  0
M  END
>  <minimizedAffinity>
-5.75898504

$$$$

 OpenBabel03262522083D

 39 42  0  0  1  0  0  0  0  0999 V2000
   39.3430   26.2380   33.4020 C   0  0  2  0  0  0  0  0  0  0  0  0
   38.1070   26.8280   32.8140 C   0  0  0  0  0  0  0  0  0  0  0  0
   37.4200   25.8060   32.0190 N   0  0  0  0  0  0  0  0  0  0  0  0
   36.4760   24.8870   31.4440 C   0  0  0  0  0  0  0  0  0  0  0  0
   35.2510   24.7020   31.5070 O   0  0  0  0  0  0  0  0  0  0  0  0
   37.4600   24.1570   30.6910 C   0  0  1  0  0  0  0  0  0  0  0  0
   38.3800   25.3100   31.0770 C   0  0  2  0  0  0  0  0  0  0  0  0
   39.7270   24.8880   32.2060 S   0  0  0  0  0  0  0  0  0  0  0  0
   38.2650   27.7620   32.2570 H   0  0  0  0  0  0  0  0  0  0  0  0
   37.4310   27.0740   33.6620 H   0  0  0  0  0  0  0  0  0  0  0  0
   37.4220   24.1470   29.5700 H   0  0  0  0  0  0  0  0  0  0  0  0
   38.6610   25.9960   30.2610 H   0  0  0  0  0  0  0  0  0  0  0  0
   39.2490   25.7680   34.8140 C   0  0  0  0  0  0  0  0  0  0  0  0
   40.1150   26.1480   35.3920 H   0  0  0  0  0  0  0  0  0  0  0  0
   39.1480   24.6630   34.9110 H   0  0  0  0  0  0  0  0  0  0  0  0
   38.3310   26.1950   35.2920 H   0  0  0  0  0  0  0  0  0  0  0  0
   40.4940   27.2440   33.2130 C   0  0  0  0  0  0  0  0  0  0  0  0
   40.0020   28.2370   33.0630 H   0  0  0  0  0  0  0  0  0  0  0  0
   41.0860   26.9900   32.3140 H   0  0  0  0  0  0  0  0  0  0  0  0
   41.2770   27.2410   34.3670 O   0  0  0  0  0  0  0  0  0  0  0  0
   42.1380   26.8180   34.1350 H   0  0  0  0  0  0  0  0  0  0  0  0
   37.8420   22.8280   31.2010 C   0  0  0  0  0  0  0  0  0  0  0  0
   38.6420   22.2060   30.4290 O   0  0  0  0  0  0  0  0  0  0  0  0
   37.3790   22.2750   32.4360 C   0  0  0  0  0  0  0  0  0  0  0  0
   36.3350   21.3800   32.4030 C   0  0  0  0  0  0  0  0  0  0  0  0
   35.8860   20.8450   33.6400 C   0  0  0  0  0  0  0  0  0  0  0  0
   36.5180   21.2520   34.7880 N   0  0  0  0  0  0  0  0  0  0  0  0
   37.5170   22.1150   34.7700 C   0  0  0  0  0  0  0  0  0  0  0  0
   37.9580   22.6330   33.6090 N   0  0  0  0  0  0  0  0  0  0  0  0
   35.8520   21.0720   31.5000 H   0  0  0  0  0  0  0  0  0  0  0  0
   35.0730   20.1410   33.6840 H   0  0  0  0  0  0  0  0  0  0  0  0
   38.1290   22.4880   36.0420 C   0  0  0  0  0  0  0  0  0  0  0  0
   39.4680   22.3170   36.3230 C   0  0  0  0  0  0  0  0  0  0  0  0
   40.1050   21.8890   35.5810 H   0  0  0  0  0  0  0  0  0  0  0  0
   40.0530   22.6680   37.5240 C   0  0  0  0  0  0  0  0  0  0  0  0
   41.0840   22.5430   37.7550 H   0  0  0  0  0  0  0  0  0  0  0  0
   39.1920   23.2260   38.4760 C   0  0  0  0  0  3  0  0  0  0  0  0
   37.8480   23.3990   38.1960 C   0  0  0  0  0  3  0  0  0  0  0  0
   37.3520   23.0300   36.9990 N   0  0  0  0  0  0  0  0  0  0  0  0
  1 17  1  6  0  0  0
  1 13  1  0  0  0  0
  2  1  1  0  0  0  0
  2 10  1  0  0  0  0
  3  2  1  0  0  0  0
  4  5  2  0  0  0  0
  4  3  1  0  0  0  0
  6 11  1  6  0  0  0
  6  7  1  0  0  0  0
  6 22  1  0  0  0  0
  6  4  1  0  0  0  0
  7 12  1  6  0  0  0
  7  3  1  0  0  0  0
  7  8  1  0  0  0  0
  8  1  1  0  0  0  0
  9  2  1  0  0  0  0
 13 15  1  0  0  0  0
 13 16  1  0  0  0  0
 13 14  1  0  0  0  0
 17 20  1  0  0  0  0
 18 17  1  0  0  0  0
 19 17  1  0  0  0  0
 21 20  1  0  0  0  0
 22 24  1  0  0  0  0
 23 22  2  0  0  0  0
 24 29  1  0  0  0  0
 25 24  2  0  0  0  0
 25 26  1  0  0  0  0
 26 31  1  0  0  0  0
 26 27  2  0  0  0  0
 28 27  1  0  0  0  0
 28 32  1  0  0  0  0
 29 28  2  0  0  0  0
 30 25  1  0  0  0  0
 32 33  2  0  0  0  0
 32 39  1  0  0  0  0
 33 35  1  0  0  0  0
 34 33  1  0  0  0  0
 35 36  1  0  0  0  0
 35 37  2  0  0  0  0
 38 37  1  0  0  0  0
 39 38  2  0  0  0  0
M  END
>  <minimizedAffinity>
-5.63165617

$$$$

 OpenBabel03262522083D

 39 42  0  0  1  0  0  0  0  0999 V2000
   37.4670   21.6830   32.3500 C   0  0  2  0  0  0  0  0  0  0  0  0
   38.6950   22.1080   31.6210 C   0  0  0  0  0  0  0  0  0  0  0  0
   38.6230   23.5490   31.3630 N   0  0  0  0  0  0  0  0  0  0  0  0
   38.8630   24.9630   31.2710 C   0  0  0  0  0  0  0  0  0  0  0  0
   39.8240   25.7260   31.4590 O   0  0  0  0  0  0  0  0  0  0  0  0
   37.5250   25.2870   30.8550 C   0  0  1  0  0  0  0  0  0  0  0  0
   37.3860   23.7790   30.6790 C   0  0  2  0  0  0  0  0  0  0  0  0
   36.2480   22.9610   31.8200 S   0  0  0  0  0  0  0  0  0  0  0  0
   38.9160   21.5260   30.7160 H   0  0  0  0  0  0  0  0  0  0  0  0
   39.5520   21.9550   32.3140 H   0  0  0  0  0  0  0  0  0  0  0  0
   37.3390   25.7400   29.8460 H   0  0  0  0  0  0  0  0  0  0  0  0
   37.3300   23.4190   29.6380 H   0  0  0  0  0  0  0  0  0  0  0  0
   37.5830   21.5530   33.8310 C   0  0  0  0  0  0  0  0  0  0  0  0
   37.1450   20.5890   34.1570 H   0  0  0  0  0  0  0  0  0  0  0  0
   37.1420   22.4100   34.3900 H   0  0  0  0  0  0  0  0  0  0  0  0
   38.6630   21.5310   34.1230 H   0  0  0  0  0  0  0  0  0  0  0  0
   36.9490   20.3830   31.7040 C   0  0  0  0  0  0  0  0  0  0  0  0
   36.8920   19.6380   32.5360 H   0  0  0  0  0  0  0  0  0  0  0  0
   37.6600   20.0230   30.9370 H   0  0  0  0  0  0  0  0  0  0  0  0
   35.6870   20.6310   31.1650 O   0  0  0  0  0  0  0  0  0  0  0  0
   35.7800   20.6130   30.1830 H   0  0  0  0  0  0  0  0  0  0  0  0
   36.6420   25.9020   31.8620 C   0  0  0  0  0  0  0  0  0  0  0  0
   35.4520   26.0840   31.4420 O   0  0  0  0  0  0  0  0  0  0  0  0
   37.0540   26.2630   33.1830 C   0  0  0  0  0  0  0  0  0  0  0  0
   36.9120   27.5730   33.5800 C   0  0  0  0  0  0  0  0  0  0  0  0
   37.3310   27.9120   34.8940 C   0  0  0  0  0  0  0  0  0  0  0  0
   37.8510   26.9180   35.6840 N   0  0  0  0  0  0  0  0  0  0  0  0
   37.9680   25.6740   35.2590 C   0  0  0  0  0  0  0  0  0  0  0  0
   37.5770   25.3310   34.0190 N   0  0  0  0  0  0  0  0  0  0  0  0
   36.5060   28.3370   32.9520 H   0  0  0  0  0  0  0  0  0  0  0  0
   37.2480   28.9190   35.2670 H   0  0  0  0  0  0  0  0  0  0  0  0
   38.5310   24.6840   36.1720 C   0  0  0  0  0  0  0  0  0  0  0  0
   38.0140   24.4170   37.4230 C   0  0  0  0  0  0  0  0  0  0  0  0
   37.1560   24.9580   37.7560 H   0  0  0  0  0  0  0  0  0  0  0  0
   38.5420   23.4810   38.2900 C   0  0  0  0  0  0  0  0  0  0  0  0
   38.1540   23.2650   39.2570 H   0  0  0  0  0  0  0  0  0  0  0  0
   39.6660   22.7900   37.8240 C   0  0  0  0  0  3  0  0  0  0  0  0
   40.1870   23.0550   36.5690 C   0  0  0  0  0  3  0  0  0  0  0  0
   39.6140   23.9850   35.7810 N   0  0  0  0  0  0  0  0  0  0  0  0
  1 17  1  6  0  0  0
  1 13  1  0  0  0  0
  2 10  1  0  0  0  0
  2  1  1  0  0  0  0
  3  2  1  0  0  0  0
  4  3  1  0  0  0  0
  4  5  2  0  0  0  0
  6 11  1  6  0  0  0
  6  4  1  0  0  0  0
  6 22  1  0  0  0  0
  7 12  1  6  0  0  0
  7  6  1  0  0  0  0
  7  3  1  0  0  0  0
  7  8  1  0  0  0  0
  8  1  1  0  0  0  0
  9  2  1  0  0  0  0
 13 16  1  0  0  0  0
 13 14  1  0  0  0  0
 13 15  1  0  0  0  0
 17 18  1  0  0  0  0
 19 17  1  0  0  0  0
 20 17  1  0  0  0  0
 21 20  1  0  0  0  0
 22 24  1  0  0  0  0
 23 22  2  0  0  0  0
 24 25  2  0  0  0  0
 24 29  1  0  0  0  0
 25 26  1  0  0  0  0
 26 31  1  0  0  0  0
 26 27  2  0  0  0  0
 28 27  1  0  0  0  0
 28 32  1  0  0  0  0
 29 28  2  0  0  0  0
 30 25  1  0  0  0  0
 32 33  1  0  0  0  0
 33 34  1  0  0  0  0
 33 35  2  0  0  0  0
 35 36  1  0  0  0  0
 37 35  1  0  0  0  0
 38 37  2  0  0  0  0
 39 32  2  0  0  0  0
 39 38  1  0  0  0  0
M  END
>  <minimizedAffinity>
-5.55156231

$$$$

 OpenBabel03262522083D

 39 42  0  0  1  0  0  0  0  0999 V2000
   37.0860   26.7360   31.3310 C   0  0  2  0  0  0  0  0  0  0  0  0
   38.4650   26.5790   30.7900 C   0  0  0  0  0  0  0  0  0  0  0  0
   39.3790   26.2700   31.8930 N   0  0  0  0  0  0  0  0  0  0  0  0
   40.3570   25.6930   32.7750 C   0  0  0  0  0  0  0  0  0  0  0  0
   41.2180   24.8020   32.7010 O   0  0  0  0  0  0  0  0  0  0  0  0
   40.0200   26.5290   33.8960 C   0  0  1  0  0  0  0  0  0  0  0  0
   39.2090   27.3080   32.8660 C   0  0  2  0  0  0  0  0  0  0  0  0
   37.4150   27.2430   33.0730 S   0  0  0  0  0  0  0  0  0  0  0  0
   38.8150   27.4180   30.1730 H   0  0  0  0  0  0  0  0  0  0  0  0
   38.4540   25.6830   30.1310 H   0  0  0  0  0  0  0  0  0  0  0  0
   40.7720   27.2480   34.3130 H   0  0  0  0  0  0  0  0  0  0  0  0
   39.6050   28.3010   32.5930 H   0  0  0  0  0  0  0  0  0  0  0  0
   36.1880   25.5500   31.2200 C   0  0  0  0  0  0  0  0  0  0  0  0
   35.2050   25.8630   30.8140 H   0  0  0  0  0  0  0  0  0  0  0  0
   36.0740   24.9860   32.1730 H   0  0  0  0  0  0  0  0  0  0  0  0
   36.6190   24.8200   30.4900 H   0  0  0  0  0  0  0  0  0  0  0  0
   36.4570   27.9880   30.6900 C   0  0  0  0  0  0  0  0  0  0  0  0
   37.0150   28.8560   31.1200 H   0  0  0  0  0  0  0  0  0  0  0  0
   35.3880   28.0660   30.9620 H   0  0  0  0  0  0  0  0  0  0  0  0
   36.6350   27.9120   29.3080 O   0  0  0  0  0  0  0  0  0  0  0  0
   35.7470   27.7480   28.9080 H   0  0  0  0  0  0  0  0  0  0  0  0
   39.2480   25.9070   34.9860 C   0  0  0  0  0  0  0  0  0  0  0  0
   38.8170   26.7490   35.8390 O   0  0  0  0  0  0  0  0  0  0  0  0
   38.9920   24.5040   35.0930 C   0  0  0  0  0  0  0  0  0  0  0  0
   39.6440   23.7920   36.0750 C   0  0  0  0  0  0  0  0  0  0  0  0
   39.3800   22.3980   36.1630 C   0  0  0  0  0  0  0  0  0  0  0  0
   38.4970   21.8500   35.2680 N   0  0  0  0  0  0  0  0  0  0  0  0
   37.8960   22.5730   34.3430 C   0  0  0  0  0  0  0  0  0  0  0  0
   38.1300   23.8950   34.2420 N   0  0  0  0  0  0  0  0  0  0  0  0
   40.3300   24.2340   36.7650 H   0  0  0  0  0  0  0  0  0  0  0  0
   39.8560   21.7840   36.9080 H   0  0  0  0  0  0  0  0  0  0  0  0
   36.9700   21.9020   33.4350 C   0  0  0  0  0  0  0  0  0  0  0  0
   36.8790   22.1890   32.0890 C   0  0  0  0  0  0  0  0  0  0  0  0
   37.5120   22.9410   31.6730 H   0  0  0  0  0  0  0  0  0  0  0  0
   36.0060   21.5570   31.2250 C   0  0  0  0  0  0  0  0  0  0  0  0
   35.9240   21.7680   30.1850 H   0  0  0  0  0  0  0  0  0  0  0  0
   35.1890   20.5760   31.8000 C   0  0  0  0  0  3  0  0  0  0  0  0
   35.2790   20.2870   33.1500 C   0  0  0  0  0  3  0  0  0  0  0  0
   36.1580   20.9480   33.9280 N   0  0  0  0  0  0  0  0  0  0  0  0
  1 17  1  6  0  0  0
  1  8  1  0  0  0  0
  2  1  1  0  0  0  0
  2  3  1  0  0  0  0
  3  4  1  0  0  0  0
  3  7  1  0  0  0  0
  4  6  1  0  0  0  0
  5  4  2  0  0  0  0
  6 11  1  1  0  0  0
  6 22  1  0  0  0  0
  7 12  1  6  0  0  0
  7  8  1  0  0  0  0
  7  6  1  0  0  0  0
  9  2  1  0  0  0  0
 10  2  1  0  0  0  0
 13  1  1  0  0  0  0
 13 15  1  0  0  0  0
 14 13  1  0  0  0  0
 16 13  1  0  0  0  0
 17 19  1  0  0  0  0
 17 18  1  0  0  0  0
 20 17  1  0  0  0  0
 21 20  1  0  0  0  0
 22 24  1  0  0  0  0
 22 23  2  0  0  0  0
 24 25  1  0  0  0  0
 25 26  2  0  0  0  0
 25 30  1  0  0  0  0
 26 31  1  0  0  0  0
 27 26  1  0  0  0  0
 28 27  2  0  0  0  0
 29 28  1  0  0  0  0
 29 24  2  0  0  0  0
 32 39  1  0  0  0  0
 32 28  1  0  0  0  0
 33 32  2  0  0  0  0
 34 33  1  0  0  0  0
 35 37  2  0  0  0  0
 35 33  1  0  0  0  0
 36 35  1  0  0  0  0
 37 38  1  0  0  0  0
 38 39  2  0  0  0  0
M  END
>  <minimizedAffinity>
-5.52811527

$$$$

 OpenBabel03262522083D

 39 42  0  0  1  0  0  0  0  0999 V2000
   38.9750   23.3550   36.1820 C   0  0  2  0  0  0  0  0  0  0  0  0
   40.2960   23.5440   35.5200 C   0  0  0  0  0  0  0  0  0  0  0  0
   40.3190   24.8540   34.8630 N   0  0  0  0  0  0  0  0  0  0  0  0
   40.6310   26.1820   34.4110 C   0  0  0  0  0  0  0  0  0  0  0  0
   41.5970   26.9560   34.4950 O   0  0  0  0  0  0  0  0  0  0  0  0
   39.3650   26.3900   33.7600 C   0  0  1  0  0  0  0  0  0  0  0  0
   39.1800   24.8950   33.9950 C   0  0  2  0  0  0  0  0  0  0  0  0
   37.8830   24.4450   35.1710 S   0  0  0  0  0  0  0  0  0  0  0  0
   40.5940   22.7280   34.8480 H   0  0  0  0  0  0  0  0  0  0  0  0
   41.0600   23.5840   36.3280 H   0  0  0  0  0  0  0  0  0  0  0  0
   39.3170   26.5410   32.6490 H   0  0  0  0  0  0  0  0  0  0  0  0
   39.2290   24.2560   33.0970 H   0  0  0  0  0  0  0  0  0  0  0  0
   38.9130   23.6480   37.6430 C   0  0  0  0  0  0  0  0  0  0  0  0
   38.3980   22.8200   38.1690 H   0  0  0  0  0  0  0  0  0  0  0  0
   38.4500   24.6320   37.8820 H   0  0  0  0  0  0  0  0  0  0  0  0
   39.9510   23.6970   38.0600 H   0  0  0  0  0  0  0  0  0  0  0  0
   38.4780   21.9310   35.8660 C   0  0  0  0  0  0  0  0  0  0  0  0
   39.1620   21.2450   36.4240 H   0  0  0  0  0  0  0  0  0  0  0  0
   38.5560   21.7260   34.7830 H   0  0  0  0  0  0  0  0  0  0  0  0
   37.1650   21.8110   36.3220 O   0  0  0  0  0  0  0  0  0  0  0  0
   36.5830   21.7630   35.5260 H   0  0  0  0  0  0  0  0  0  0  0  0
   38.4010   27.2730   34.4380 C   0  0  0  0  0  0  0  0  0  0  0  0
   38.7210   27.5340   35.6440 O   0  0  0  0  0  0  0  0  0  0  0  0
   37.2210   27.8010   33.8250 C   0  0  0  0  0  0  0  0  0  0  0  0
   36.9870   27.5130   32.4990 C   0  0  0  0  0  0  0  0  0  0  0  0
   35.8130   28.0500   31.9060 C   0  0  0  0  0  0  0  0  0  0  0  0
   34.9880   28.8200   32.6870 N   0  0  0  0  0  0  0  0  0  0  0  0
   35.2550   29.0690   33.9550 C   0  0  0  0  0  0  0  0  0  0  0  0
   36.3610   28.5700   34.5370 N   0  0  0  0  0  0  0  0  0  0  0  0
   37.6390   26.9110   31.9030 H   0  0  0  0  0  0  0  0  0  0  0  0
   35.5710   27.8630   30.8740 H   0  0  0  0  0  0  0  0  0  0  0  0
   34.3180   29.8980   34.7070 C   0  0  0  0  0  0  0  0  0  0  0  0
   34.6750   31.0680   35.3440 C   0  0  0  0  0  0  0  0  0  0  0  0
   35.6890   31.3980   35.2950 H   0  0  0  0  0  0  0  0  0  0  0  0
   33.7940   31.8570   36.0570 C   0  0  0  0  0  0  0  0  0  0  0  0
   34.0540   32.7610   36.5530 H   0  0  0  0  0  0  0  0  0  0  0  0
   32.4720   31.3970   36.1040 C   0  0  0  0  0  3  0  0  0  0  0  0
   32.1110   30.2230   35.4650 C   0  0  0  0  0  3  0  0  0  0  0  0
   33.0310   29.5090   34.7890 N   0  0  0  0  0  0  0  0  0  0  0  0
  1 17  1  6  0  0  0
  1 13  1  0  0  0  0
  2  1  1  0  0  0  0
  2 10  1  0  0  0  0
  3  2  1  0  0  0  0
  4  5  2  0  0  0  0
  4  3  1  0  0  0  0
  6 11  1  6  0  0  0
  6  7  1  0  0  0  0
  6  4  1  0  0  0  0
  6 22  1  0  0  0  0
  7 12  1  6  0  0  0
  7  3  1  0  0  0  0
  7  8  1  0  0  0  0
  8  1  1  0  0  0  0
  9  2  1  0  0  0  0
 13 15  1  0  0  0  0
 13 16  1  0  0  0  0
 13 14  1  0  0  0  0
 17 20  1  0  0  0  0
 17 18  1  0  0  0  0
 19 17  1  0  0  0  0
 21 20  1  0  0  0  0
 22 23  2  0  0  0  0
 24 22  1  0  0  0  0
 24 29  1  0  0  0  0
 25 24  2  0  0  0  0
 26 25  1  0  0  0  0
 26 27  2  0  0  0  0
 27 28  1  0  0  0  0
 28 29  2  0  0  0  0
 28 32  1  0  0  0  0
 30 25  1  0  0  0  0
 31 26  1  0  0  0  0
 32 39  2  0  0  0  0
 32 33  1  0  0  0  0
 33 35  2  0  0  0  0
 34 33  1  0  0  0  0
 35 37  1  0  0  0  0
 35 36  1  0  0  0  0
 38 37  2  0  0  0  0
 39 38  1  0  0  0  0
M  END
>  <minimizedAffinity>
-5.28891802

$$$$

 OpenBabel03262522083D

 39 42  0  0  1  0  0  0  0  0999 V2000
   39.1540   23.3530   35.3180 C   0  0  2  0  0  0  0  0  0  0  0  0
   38.8980   24.3500   36.3950 C   0  0  0  0  0  0  0  0  0  0  0  0
   38.9170   25.6960   35.8150 N   0  0  0  0  0  0  0  0  0  0  0  0
   38.6210   27.0380   35.3960 C   0  0  0  0  0  0  0  0  0  0  0  0
   37.7670   27.8970   35.6680 O   0  0  0  0  0  0  0  0  0  0  0  0
   39.7140   27.1190   34.4640 C   0  0  1  0  0  0  0  0  0  0  0  0
   40.1710   25.8280   35.1340 C   0  0  2  0  0  0  0  0  0  0  0  0
   40.1130   24.3480   34.0970 S   0  0  0  0  0  0  0  0  0  0  0  0
   39.5540   24.2570   37.2710 H   0  0  0  0  0  0  0  0  0  0  0  0
   37.8600   24.1780   36.7550 H   0  0  0  0  0  0  0  0  0  0  0  0
   40.5380   27.8630   34.6200 H   0  0  0  0  0  0  0  0  0  0  0  0
   41.0670   25.9070   35.7720 H   0  0  0  0  0  0  0  0  0  0  0  0
   37.9570   22.6870   34.7280 C   0  0  0  0  0  0  0  0  0  0  0  0
   38.1240   21.5930   34.6800 H   0  0  0  0  0  0  0  0  0  0  0  0
   37.6610   23.0970   33.7360 H   0  0  0  0  0  0  0  0  0  0  0  0
   37.0720   22.8480   35.3940 H   0  0  0  0  0  0  0  0  0  0  0  0
   40.1740   22.3250   35.8450 C   0  0  0  0  0  0  0  0  0  0  0  0
   41.1190   22.9000   36.0100 H   0  0  0  0  0  0  0  0  0  0  0  0
   40.3510   21.5350   35.0930 H   0  0  0  0  0  0  0  0  0  0  0  0
   39.6910   21.8000   37.0440 O   0  0  0  0  0  0  0  0  0  0  0  0
   39.4350   20.8630   36.8700 H   0  0  0  0  0  0  0  0  0  0  0  0
   39.3810   27.0200   33.0320 C   0  0  0  0  0  0  0  0  0  0  0  0
   40.4080   27.0220   32.2770 O   0  0  0  0  0  0  0  0  0  0  0  0
   38.0490   26.9240   32.5190 C   0  0  0  0  0  0  0  0  0  0  0  0
   37.6110   25.7030   32.0580 C   0  0  0  0  0  0  0  0  0  0  0  0
   36.2860   25.6290   31.5490 C   0  0  0  0  0  0  0  0  0  0  0  0
   35.5300   26.7730   31.5450 N   0  0  0  0  0  0  0  0  0  0  0  0
   35.9950   27.9220   31.9970 C   0  0  0  0  0  0  0  0  0  0  0  0
   37.2450   28.0150   32.4850 N   0  0  0  0  0  0  0  0  0  0  0  0
   38.2130   24.8200   32.0670 H   0  0  0  0  0  0  0  0  0  0  0  0
   35.8820   24.7050   31.1730 H   0  0  0  0  0  0  0  0  0  0  0  0
   35.1150   29.0870   31.9550 C   0  0  0  0  0  0  0  0  0  0  0  0
   35.3830   30.2190   31.2140 C   0  0  0  0  0  0  0  0  0  0  0  0
   36.2800   30.2620   30.6360 H   0  0  0  0  0  0  0  0  0  0  0  0
   34.5560   31.3240   31.1700 C   0  0  0  0  0  0  0  0  0  0  0  0
   34.7490   32.2040   30.6040 H   0  0  0  0  0  0  0  0  0  0  0  0
   33.3890   31.2370   31.9390 C   0  0  0  0  0  3  0  0  0  0  0  0
   33.1170   30.1020   32.6820 C   0  0  0  0  0  3  0  0  0  0  0  0
   33.9760   29.0640   32.6740 N   0  0  0  0  0  0  0  0  0  0  0  0
  1 13  1  6  0  0  0
  1 17  1  0  0  0  0
  1  2  1  0  0  0  0
  2 10  1  0  0  0  0
  2  9  1  0  0  0  0
  3  2  1  0  0  0  0
  4  5  2  0  0  0  0
  4  3  1  0  0  0  0
  6 11  1  1  0  0  0
  6  7  1  0  0  0  0
  6  4  1  0  0  0  0
  7 12  1  1  0  0  0
  7  3  1  0  0  0  0
  8  7  1  0  0  0  0
  8  1  1  0  0  0  0
 13 16  1  0  0  0  0
 14 13  1  0  0  0  0
 15 13  1  0  0  0  0
 17 18  1  0  0  0  0
 17 20  1  0  0  0  0
 19 17  1  0  0  0  0
 21 20  1  0  0  0  0
 22  6  1  0  0  0  0
 23 22  2  0  0  0  0
 24 22  1  0  0  0  0
 25 30  1  0  0  0  0
 25 24  2  0  0  0  0
 26 25  1  0  0  0  0
 27 26  2  0  0  0  0
 27 28  1  0  0  0  0
 28 29  2  0  0  0  0
 29 24  1  0  0  0  0
 31 26  1  0  0  0  0
 32 28  1  0  0  0  0
 32 39  1  0  0  0  0
 33 32  2  0  0  0  0
 34 33  1  0  0  0  0
 35 33  1  0  0  0  0
 35 37  2  0  0  0  0
 36 35  1  0  0  0  0
 37 38  1  0  0  0  0
 39 38  2  0  0  0  0
M  END
>  <minimizedAffinity>
-5.27528715

$$$$

 OpenBabel03262522083D

 39 42  0  0  1  0  0  0  0  0999 V2000
   37.4390   26.6510   31.7400 C   0  0  2  0  0  0  0  0  0  0  0  0
   38.7420   27.3730   31.7650 C   0  0  0  0  0  0  0  0  0  0  0  0
   39.4180   27.0960   33.0350 N   0  0  0  0  0  0  0  0  0  0  0  0
   40.3420   26.7250   34.0720 C   0  0  0  0  0  0  0  0  0  0  0  0
   41.5480   26.4400   34.1400 O   0  0  0  0  0  0  0  0  0  0  0  0
   39.3680   26.7790   35.1290 C   0  0  1  0  0  0  0  0  0  0  0  0
   38.4940   27.4470   34.0730 C   0  0  2  0  0  0  0  0  0  0  0  0
   37.0540   26.4960   33.5360 S   0  0  0  0  0  0  0  0  0  0  0  0
   38.6760   28.4480   31.5460 H   0  0  0  0  0  0  0  0  0  0  0  0
   39.3750   26.9260   30.9680 H   0  0  0  0  0  0  0  0  0  0  0  0
   39.4770   27.5220   35.9630 H   0  0  0  0  0  0  0  0  0  0  0  0
   38.3070   28.5250   34.2140 H   0  0  0  0  0  0  0  0  0  0  0  0
   37.4130   25.3490   31.0140 C   0  0  0  0  0  0  0  0  0  0  0  0
   36.5360   25.3140   30.3390 H   0  0  0  0  0  0  0  0  0  0  0  0
   37.4430   24.4620   31.6880 H   0  0  0  0  0  0  0  0  0  0  0  0
   38.3210   25.2620   30.3660 H   0  0  0  0  0  0  0  0  0  0  0  0
   36.3630   27.6180   31.2090 C   0  0  0  0  0  0  0  0  0  0  0  0
   36.6430   28.6250   31.6090 H   0  0  0  0  0  0  0  0  0  0  0  0
   35.3660   27.3360   31.5940 H   0  0  0  0  0  0  0  0  0  0  0  0
   36.4040   27.6030   29.8150 O   0  0  0  0  0  0  0  0  0  0  0  0
   35.5840   27.1500   29.5040 H   0  0  0  0  0  0  0  0  0  0  0  0
   38.8760   25.4930   35.6530 C   0  0  0  0  0  0  0  0  0  0  0  0
   38.1100   25.6220   36.6630 O   0  0  0  0  0  0  0  0  0  0  0  0
   39.2080   24.2170   35.0970 C   0  0  0  0  0  0  0  0  0  0  0  0
   40.3680   23.6040   35.5110 C   0  0  0  0  0  0  0  0  0  0  0  0
   40.6830   22.3390   34.9450 C   0  0  0  0  0  0  0  0  0  0  0  0
   39.8150   21.8090   34.0240 N   0  0  0  0  0  0  0  0  0  0  0  0
   38.7130   22.4360   33.6570 C   0  0  0  0  0  0  0  0  0  0  0  0
   38.3960   23.6340   34.1810 N   0  0  0  0  0  0  0  0  0  0  0  0
   41.0350   24.0290   36.2310 H   0  0  0  0  0  0  0  0  0  0  0  0
   41.5740   21.8060   35.2260 H   0  0  0  0  0  0  0  0  0  0  0  0
   37.8500   21.7930   32.6710 C   0  0  0  0  0  0  0  0  0  0  0  0
   36.5180   22.1100   32.5010 C   0  0  0  0  0  0  0  0  0  0  0  0
   36.0800   22.8630   33.1180 H   0  0  0  0  0  0  0  0  0  0  0  0
   35.6960   21.5060   31.5700 C   0  0  0  0  0  0  0  0  0  0  0  0
   34.6680   21.7390   31.4270 H   0  0  0  0  0  0  0  0  0  0  0  0
   36.3000   20.5230   30.7770 C   0  0  0  0  0  3  0  0  0  0  0  0
   37.6360   20.2040   30.9450 C   0  0  0  0  0  3  0  0  0  0  0  0
   38.3720   20.8390   31.8770 N   0  0  0  0  0  0  0  0  0  0  0  0
  1 13  1  6  0  0  0
  1  2  1  0  0  0  0
  1  8  1  0  0  0  0
  2  3  1  0  0  0  0
  3  4  1  0  0  0  0
  3  7  1  0  0  0  0
  4  5  2  0  0  0  0
  4  6  1  0  0  0  0
  6 22  1  0  0  0  0
  6 11  1  1  0  0  0
  7 12  1  1  0  0  0
  7  6  1  0  0  0  0
  8  7  1  0  0  0  0
  9  2  1  0  0  0  0
 10  2  1  0  0  0  0
 13 15  1  0  0  0  0
 14 13  1  0  0  0  0
 16 13  1  0  0  0  0
 17 19  1  0  0  0  0
 17 18  1  0  0  0  0
 17  1  1  0  0  0  0
 20 17  1  0  0  0  0
 21 20  1  0  0  0  0
 22 23  2  0  0  0  0
 24 25  1  0  0  0  0
 24 22  1  0  0  0  0
 25 30  1  0  0  0  0
 26 31  1  0  0  0  0
 26 25  2  0  0  0  0
 27 26  1  0  0  0  0
 28 27  2  0  0  0  0
 28 29  1  0  0  0  0
 29 24  2  0  0  0  0
 32 28  1  0  0  0  0
 33 32  1  0  0  0  0
 33 34  1  0  0  0  0
 35 33  2  0  0  0  0
 36 35  1  0  0  0  0
 37 38  2  0  0  0  0
 37 35  1  0  0  0  0
 38 39  1  0  0  0  0
 39 32  2  0  0  0  0
M  END
>  <minimizedAffinity>
-5.22244787

$$$$

 OpenBabel03262522083D

 39 42  0  0  1  0  0  0  0  0999 V2000
   38.7460   24.5840   34.8180 C   0  0  2  0  0  0  0  0  0  0  0  0
   38.5590   23.7000   33.6330 C   0  0  0  0  0  0  0  0  0  0  0  0
   38.1740   24.5190   32.4810 N   0  0  0  0  0  0  0  0  0  0  0  0
   38.0710   25.1670   31.2020 C   0  0  0  0  0  0  0  0  0  0  0  0
   38.5760   25.0200   30.0780 O   0  0  0  0  0  0  0  0  0  0  0  0
   37.1120   26.1460   31.6380 C   0  0  1  0  0  0  0  0  0  0  0  0
   37.0210   25.2700   32.8820 C   0  0  2  0  0  0  0  0  0  0  0  0
   37.6520   26.0100   34.4050 S   0  0  0  0  0  0  0  0  0  0  0  0
   37.8800   22.8520   33.7960 H   0  0  0  0  0  0  0  0  0  0  0  0
   39.5550   23.2670   33.3920 H   0  0  0  0  0  0  0  0  0  0  0  0
   36.0820   26.1680   31.1930 H   0  0  0  0  0  0  0  0  0  0  0  0
   36.0850   24.6990   33.0020 H   0  0  0  0  0  0  0  0  0  0  0  0
   40.1470   24.9850   35.1360 C   0  0  0  0  0  0  0  0  0  0  0  0
   40.3410   24.8360   36.2170 H   0  0  0  0  0  0  0  0  0  0  0  0
   40.3980   26.0210   34.8160 H   0  0  0  0  0  0  0  0  0  0  0  0
   40.8610   24.3210   34.5870 H   0  0  0  0  0  0  0  0  0  0  0  0
   38.0560   23.9220   36.0260 C   0  0  0  0  0  0  0  0  0  0  0  0
   38.6890   23.0370   36.2850 H   0  0  0  0  0  0  0  0  0  0  0  0
   37.0410   23.5790   35.7520 H   0  0  0  0  0  0  0  0  0  0  0  0
   38.0260   24.8400   37.0750 O   0  0  0  0  0  0  0  0  0  0  0  0
   37.0850   25.1170   37.1940 H   0  0  0  0  0  0  0  0  0  0  0  0
   37.6050   27.5180   31.8500 C   0  0  0  0  0  0  0  0  0  0  0  0
   38.8720   27.5820   31.9740 O   0  0  0  0  0  0  0  0  0  0  0  0
   36.7680   28.6760   31.9090 C   0  0  0  0  0  0  0  0  0  0  0  0
   36.4590   29.3220   30.7340 C   0  0  0  0  0  0  0  0  0  0  0  0
   35.6290   30.4730   30.8130 C   0  0  0  0  0  0  0  0  0  0  0  0
   35.1890   30.8690   32.0510 N   0  0  0  0  0  0  0  0  0  0  0  0
   35.5120   30.2160   33.1510 C   0  0  0  0  0  0  0  0  0  0  0  0
   36.2960   29.1240   33.0990 N   0  0  0  0  0  0  0  0  0  0  0  0
   36.8100   29.0020   29.7760 H   0  0  0  0  0  0  0  0  0  0  0  0
   35.3500   31.0250   29.9320 H   0  0  0  0  0  0  0  0  0  0  0  0
   34.9950   30.7110   34.4240 C   0  0  0  0  0  0  0  0  0  0  0  0
   35.7570   31.4100   35.3370 C   0  0  0  0  0  0  0  0  0  0  0  0
   36.7830   31.6050   35.1170 H   0  0  0  0  0  0  0  0  0  0  0  0
   35.2740   31.8800   36.5420 C   0  0  0  0  0  0  0  0  0  0  0  0
   35.8490   32.4200   37.2570 H   0  0  0  0  0  0  0  0  0  0  0  0
   33.9260   31.6070   36.8020 C   0  0  0  0  0  3  0  0  0  0  0  0
   33.1590   30.9060   35.8870 C   0  0  0  0  0  3  0  0  0  0  0  0
   33.7050   30.4800   34.7320 N   0  0  0  0  0  0  0  0  0  0  0  0
  1 13  1  1  0  0  0
  1 17  1  0  0  0  0
  2  9  1  0  0  0  0
  2  1  1  0  0  0  0
  3  7  1  0  0  0  0
  3  2  1  0  0  0  0
  4  6  1  0  0  0  0
  4  3  1  0  0  0  0
  5  4  2  0  0  0  0
  6 11  1  6  0  0  0
  6 22  1  0  0  0  0
  6  7  1  0  0  0  0
  7 12  1  1  0  0  0
  7  8  1  0  0  0  0
  8  1  1  0  0  0  0
 10  2  1  0  0  0  0
 13 14  1  0  0  0  0
 15 13  1  0  0  0  0
 16 13  1  0  0  0  0
 17 18  1  0  0  0  0
 17 20  1  0  0  0  0
 19 17  1  0  0  0  0
 20 21  1  0  0  0  0
 22 24  1  0  0  0  0
 22 23  2  0  0  0  0
 24 29  1  0  0  0  0
 25 26  1  0  0  0  0
 25 24  2  0  0  0  0
 26 27  2  0  0  0  0
 27 28  1  0  0  0  0
 28 32  1  0  0  0  0
 29 28  2  0  0  0  0
 30 25  1  0  0  0  0
 31 26  1  0  0  0  0
 32 39  2  0  0  0  0
 32 33  1  0  0  0  0
 33 35  2  0  0  0  0
 34 33  1  0  0  0  0
 35 37  1  0  0  0  0
 35 36  1  0  0  0  0
 38 37  2  0  0  0  0
 39 38  1  0  0  0  0
M  END
>  <minimizedAffinity>
-5.21932268

$$$$
