
 OpenBabel03272509213D

 45 49  0  0  0  0  0  0  0  0999 V2000
   38.1320   31.4070   47.9240 C   0  0  0  0  0  0  0  0  0  0  0  0
   37.2670   31.5930   48.9890 C   0  0  0  0  0  0  0  0  0  0  0  0
   37.4580   32.7980   49.6820 C   0  0  0  0  0  0  0  0  0  0  0  0
   38.4440   33.7150   49.3110 C   0  0  0  0  0  0  0  0  0  0  0  0
   39.2790   33.4330   48.2060 C   0  0  0  0  0  0  0  0  0  0  0  0
   39.0970   32.2390   47.5100 C   0  0  0  0  0  0  0  0  0  0  0  0
   36.8360   33.0380   50.5270 H   0  0  0  0  0  0  0  0  0  0  0  0
   38.5740   34.6360   49.8570 H   0  0  0  0  0  0  0  0  0  0  0  0
   40.0350   34.1600   47.9370 H   0  0  0  0  0  0  0  0  0  0  0  0
   35.1630   30.4430   48.5550 C   0  0  0  0  0  0  0  0  0  0  0  0
   36.2620   30.6600   49.3700 C   0  0  0  0  0  0  0  0  0  0  0  0
   36.3380   29.9270   50.5710 C   0  0  0  0  0  0  0  0  0  0  0  0
   35.3430   29.0590   50.8670 N   0  0  0  0  0  0  0  0  0  0  0  0
   34.2840   28.8810   50.0320 C   0  0  0  0  0  0  0  0  0  0  0  0
   34.1940   29.5690   48.8830 N   0  0  0  0  0  0  0  0  0  0  0  0
   35.0740   30.9840   47.6350 H   0  0  0  0  0  0  0  0  0  0  0  0
   33.5620   28.1560   50.3910 H   0  0  0  0  0  0  0  0  0  0  0  0
   37.4920   30.1180   51.4840 C   0  0  0  0  0  0  0  0  0  0  0  0
   37.2290   29.6790   52.4670 H   0  0  0  0  0  0  0  0  0  0  0  0
   37.8020   31.1840   51.5470 H   0  0  0  0  0  0  0  0  0  0  0  0
   38.3270   29.5170   51.0640 H   0  0  0  0  0  0  0  0  0  0  0  0
   38.0240   30.2360   47.1670 O   0  0  0  0  0  0  0  0  0  0  0  0
   37.3930   30.1150   46.4000 H   0  0  0  0  0  0  0  0  0  0  0  0
   39.9500   32.0280   46.4390 O   0  0  0  0  0  0  0  0  0  0  0  0
   40.0570   30.8300   44.2790 C   0  0  0  0  0  0  0  0  0  0  0  0
   39.5810   31.7750   45.1540 C   0  0  0  0  0  0  0  0  0  0  0  0
   38.5740   32.6280   44.7180 C   0  0  0  0  0  0  0  0  0  0  0  0
   38.0520   32.5280   43.4150 C   0  0  0  0  0  0  0  0  0  0  0  0
   37.1110   33.1740   42.7100 N   0  0  0  0  0  0  0  0  0  0  0  0
   37.0070   32.6660   41.4790 C   0  0  0  0  0  0  0  0  0  0  0  0
   37.9120   31.6670   41.4060 N   0  0  0  0  0  0  0  0  0  0  0  0
   38.5720   31.5570   42.5840 C   0  0  0  0  0  0  0  0  0  0  0  0
   39.5650   30.7110   43.0020 C   0  0  0  0  0  0  0  0  0  0  0  0
   40.8290   30.2030   44.6660 H   0  0  0  0  0  0  0  0  0  0  0  0
   38.1060   33.4160   45.2970 H   0  0  0  0  0  0  0  0  0  0  0  0
   36.5420   33.9670   43.0810 H   0  0  0  0  0  0  0  0  0  0  0  0
   36.3310   32.9880   40.6890 H   0  0  0  0  0  0  0  0  0  0  0  0
   40.0700   29.7090   42.0750 C   0  0  0  0  0  0  0  0  0  0  0  0
   41.1640   29.8830   41.2620 C   0  0  0  0  0  0  0  0  0  0  0  0
   41.7030   30.8170   41.2930 H   0  0  0  0  0  0  0  0  0  0  0  0
   41.6490   28.9380   40.3820 C   0  0  0  0  0  0  0  0  0  0  0  0
   42.5160   29.1080   39.7540 H   0  0  0  0  0  0  0  0  0  0  0  0
   41.0090   27.7210   40.2880 C   0  0  0  0  0  3  0  0  0  0  0  0
   39.9130   27.5560   41.1090 C   0  0  0  0  0  3  0  0  0  0  0  0
   39.4750   28.5060   41.9520 N   0  0  0  0  0  0  0  0  0  0  0  0
  1  2  1  0  0  0  0
  2 11  1  0  0  0  0
  2  3  2  0  0  0  0
  3  7  1  0  0  0  0
  4  3  1  0  0  0  0
  4  8  1  0  0  0  0
  5  4  2  0  0  0  0
  6  1  2  0  0  0  0
  6  5  1  0  0  0  0
  9  5  1  0  0  0  0
 10 15  2  0  0  0  0
 10 11  1  0  0  0  0
 11 12  2  0  0  0  0
 12 13  1  0  0  0  0
 12 18  1  0  0  0  0
 14 17  1  0  0  0  0
 14 13  2  0  0  0  0
 15 14  1  0  0  0  0
 16 10  1  0  0  0  0
 18 20  1  0  0  0  0
 18 19  1  0  0  0  0
 21 18  1  0  0  0  0
 22  1  1  0  0  0  0
 23 22  1  0  0  0  0
 24  6  1  0  0  0  0
 25 34  1  0  0  0  0
 25 26  1  0  0  0  0
 26 24  1  0  0  0  0
 27 26  2  0  0  0  0
 27 35  1  0  0  0  0
 28 27  1  0  0  0  0
 29 36  1  0  0  0  0
 29 28  1  0  0  0  0
 30 29  1  0  0  0  0
 31 30  2  0  0  0  0
 31 32  1  0  0  0  0
 32 33  1  0  0  0  0
 32 28  2  0  0  0  0
 33 25  2  0  0  0  0
 37 30  1  0  0  0  0
 38 33  1  0  0  0  0
 39 40  1  0  0  0  0
 39 38  2  0  0  0  0
 41 39  1  0  0  0  0
 42 41  1  0  0  0  0
 43 41  2  0  0  0  0
 43 44  1  0  0  0  0
 44 45  2  0  0  0  0
 45 38  1  0  0  0  0
M  END
>  <minimizedAffinity>
-7.55984926

>  <minimizedRMSD>
0.919018865

$$$$
