
     RDKit          3D

 47 51  0  0  0  0  0  0  0  0999 V2000
   38.0860   31.2930   47.7730 C   0  0  0  0  0  0  0  0  0  0  0  0
   37.0857   31.3050   48.7291 C   0  0  0  0  0  0  0  0  0  0  0  0
   37.1212   32.4155   49.5858 C   0  0  0  0  0  0  0  0  0  0  0  0
   38.0936   33.4114   49.4639 C   0  0  0  0  0  0  0  0  0  0  0  0
   39.0753   33.3084   48.4525 C   0  0  0  0  0  0  0  0  0  0  0  0
   39.0484   32.2082   47.5960 C   0  0  0  0  0  0  0  0  0  0  0  0
   34.9665   30.3111   48.0498 C   0  0  0  0  0  0  0  0  0  0  0  0
   36.0939   30.2923   48.8558 C   0  0  0  0  0  0  0  0  0  0  0  0
   36.2096   29.2429   49.7891 C   0  0  0  0  0  0  0  0  0  0  0  0
   35.2264   28.3165   49.8516 N   0  0  0  0  0  0  0  0  0  0  0  0
   34.1376   28.3790   49.0373 C   0  0  0  0  0  0  0  0  0  0  0  0
   34.0087   29.3701   48.1421 N   0  0  0  0  0  0  0  0  0  0  0  0
   37.3955   29.1709   50.6792 C   0  0  0  0  0  0  0  0  0  0  0  0
   38.1395   30.2271   46.8680 O   0  0  0  0  0  0  0  0  0  0  0  0
   40.0398   32.1724   46.6292 O   0  0  0  0  0  0  0  0  0  0  0  0
   40.5598   31.1976   44.4166 C   0  0  0  0  0  0  0  0  0  0  0  0
   39.8554   31.9844   45.2940 C   0  0  0  0  0  0  0  0  0  0  0  0
   38.7836   32.7219   44.8023 C   0  0  0  0  0  0  0  0  0  0  0  0
   38.4278   32.6654   43.4423 C   0  0  0  0  0  0  0  0  0  0  0  0
   37.4832   33.2316   42.6768 N   0  0  0  0  0  0  0  0  0  0  0  0
   37.5907   32.8261   41.4091 C   0  0  0  0  0  0  0  0  0  0  0  0
   38.6393   31.9746   41.3736 N   0  0  0  0  0  0  0  0  0  0  0  0
   39.1761   31.8552   42.6125 C   0  0  0  0  0  0  0  0  0  0  0  0
   40.2335   31.1242   43.0836 C   0  0  0  0  0  0  0  0  0  0  0  0
   36.3856   32.5199   50.3655 H   0  0  0  0  0  0  0  0  0  0  0  0
   38.1032   34.2568   50.1325 H   0  0  0  0  0  0  0  0  0  0  0  0
   39.8182   34.0923   48.3779 H   0  0  0  0  0  0  0  0  0  0  0  0
   34.8468   31.0948   47.3295 H   0  0  0  0  0  0  0  0  0  0  0  0
   33.4289   27.5745   49.1935 H   0  0  0  0  0  0  0  0  0  0  0  0
   37.1665   28.4631   51.4997 H   0  0  0  0  0  0  0  0  0  0  0  0
   37.7076   30.1754   51.0388 H   0  0  0  0  0  0  0  0  0  0  0  0
   38.2155   28.7250   50.0748 H   0  0  0  0  0  0  0  0  0  0  0  0
   37.6175   30.1825   46.0162 H   0  0  0  0  0  0  0  0  0  0  0  0
   41.3710   30.6543   44.8477 H   0  0  0  0  0  0  0  0  0  0  0  0
   38.1433   33.3809   45.3764 H   0  0  0  0  0  0  0  0  0  0  0  0
   36.7636   33.8995   43.0332 H   0  0  0  0  0  0  0  0  0  0  0  0
   36.9643   33.1177   40.5682 H   0  0  0  0  0  0  0  0  0  0  0  0
   40.9811   30.2896   42.1547 C   0  0  0  0  0  0  0  0  0  0  0  0
   40.9051   30.3896   40.7870 C   0  0  0  0  0  0  0  0  0  0  0  0
   40.2546   31.1287   40.3442 H   0  0  0  0  0  0  0  0  0  0  0  0
   41.6101   29.6026   39.9000 C   0  0  0  0  0  0  0  0  0  0  0  0
   41.5263   29.7085   38.8243 H   0  0  0  0  0  0  0  0  0  0  0  0
   42.4607   28.6368   40.3931 C   0  0  0  0  0  0  0  0  0  0  0  0
   42.5293   28.5451   41.7678 C   0  0  0  0  0  0  0  0  0  0  0  0
   41.8227   29.3345   42.5941 N   0  0  0  0  0  0  0  0  0  0  0  0
   43.0561   27.9707   39.7964 H   0  0  0  0  0  0  0  0  0  0  0  0
   43.1751   27.8111   42.2295 H   0  0  0  0  0  0  0  0  0  0  0  0
  1  2  2  0
  2  8  1  0
  2  3  1  0
  4  3  2  0
  5  4  1  0
  6  1  1  0
  6  5  2  0
  7 12  2  0
  7  8  1  0
  8  9  2  0
  9 10  1  0
  9 13  1  0
 11 10  2  0
 12 11  1  0
 14  1  1  0
 15  6  1  0
 16 17  2  0
 17 15  1  0
 18 17  1  0
 19 18  2  0
 20 19  1  0
 21 20  1  0
 22 21  2  0
 22 23  1  0
 23 24  2  0
 23 19  1  0
 24 16  1  0
  3 25  1  0
  4 26  1  0
  5 27  1  0
  7 28  1  0
 11 29  1  0
 13 30  1  0
 13 31  1  0
 13 32  1  0
 14 33  1  0
 16 34  1  0
 18 35  1  0
 20 36  1  0
 21 37  1  0
 38 39  2  0
 39 40  1  0
 39 41  1  0
 41 42  1  0
 41 43  2  0
 43 44  1  0
 44 45  2  0
 45 38  1  0
 43 46  1  0
 44 47  1  0
 24 38  1  0
M  ISO  8  25  14  26  14  27  14  28  14  29  14  30   8  31   8  32   8
M  ISO  7  33   3  34  14  35  14  36   9  37  14  40  15  42  16
M  END
>  <DihAtoms>  (1) 
22,23,37,38

>  <DihDeg>  (1) 
-179.9999153852387

$$$$
