
 OpenBabel03272509213D

 45 49  0  0  0  0  0  0  0  0999 V2000
   38.1480   31.4040   47.9420 C   0  0  0  0  0  0  0  0  0  0  0  0
   37.2680   31.5950   48.9920 C   0  0  0  0  0  0  0  0  0  0  0  0
   37.4420   32.8080   49.6760 C   0  0  0  0  0  0  0  0  0  0  0  0
   38.4280   33.7270   49.3090 C   0  0  0  0  0  0  0  0  0  0  0  0
   39.2790   33.4390   48.2190 C   0  0  0  0  0  0  0  0  0  0  0  0
   39.1140   32.2370   47.5330 C   0  0  0  0  0  0  0  0  0  0  0  0
   36.8070   33.0530   50.5100 H   0  0  0  0  0  0  0  0  0  0  0  0
   38.5440   34.6540   49.8480 H   0  0  0  0  0  0  0  0  0  0  0  0
   40.0350   34.1670   47.9540 H   0  0  0  0  0  0  0  0  0  0  0  0
   35.1670   30.4420   48.5490 C   0  0  0  0  0  0  0  0  0  0  0  0
   36.2630   30.6600   49.3680 C   0  0  0  0  0  0  0  0  0  0  0  0
   36.3350   29.9260   50.5690 C   0  0  0  0  0  0  0  0  0  0  0  0
   35.3410   29.0560   50.8600 N   0  0  0  0  0  0  0  0  0  0  0  0
   34.2850   28.8760   50.0200 C   0  0  0  0  0  0  0  0  0  0  0  0
   34.1980   29.5650   48.8720 N   0  0  0  0  0  0  0  0  0  0  0  0
   35.0810   30.9830   47.6280 H   0  0  0  0  0  0  0  0  0  0  0  0
   33.5630   28.1510   50.3760 H   0  0  0  0  0  0  0  0  0  0  0  0
   37.4850   30.1180   51.4870 C   0  0  0  0  0  0  0  0  0  0  0  0
   37.2190   29.6780   52.4680 H   0  0  0  0  0  0  0  0  0  0  0  0
   37.7930   31.1840   51.5520 H   0  0  0  0  0  0  0  0  0  0  0  0
   38.3230   29.5180   51.0700 H   0  0  0  0  0  0  0  0  0  0  0  0
   38.0570   30.2240   47.1940 O   0  0  0  0  0  0  0  0  0  0  0  0
   37.4380   30.0920   46.4200 H   0  0  0  0  0  0  0  0  0  0  0  0
   39.9840   32.0200   46.4760 O   0  0  0  0  0  0  0  0  0  0  0  0
   40.2080   30.9950   44.2380 C   0  0  0  0  0  0  0  0  0  0  0  0
   39.6350   31.8160   45.1760 C   0  0  0  0  0  0  0  0  0  0  0  0
   38.5340   32.5770   44.8010 C   0  0  0  0  0  0  0  0  0  0  0  0
   38.0160   32.5080   43.4940 C   0  0  0  0  0  0  0  0  0  0  0  0
   37.0030   33.0900   42.8360 N   0  0  0  0  0  0  0  0  0  0  0  0
   36.9470   32.6600   41.5730 C   0  0  0  0  0  0  0  0  0  0  0  0
   37.9590   31.7780   41.4300 N   0  0  0  0  0  0  0  0  0  0  0  0
   38.6370   31.6620   42.5980 C   0  0  0  0  0  0  0  0  0  0  0  0
   39.7220   30.9080   42.9550 C   0  0  0  0  0  0  0  0  0  0  0  0
   41.0500   30.4340   44.5800 H   0  0  0  0  0  0  0  0  0  0  0  0
   37.9850   33.2640   45.4340 H   0  0  0  0  0  0  0  0  0  0  0  0
   36.3500   33.7850   43.2620 H   0  0  0  0  0  0  0  0  0  0  0  0
   36.2320   32.9560   40.8070 H   0  0  0  0  0  0  0  0  0  0  0  0
   40.3310   30.0370   41.9600 C   0  0  0  0  0  0  0  0  0  0  0  0
   40.1140   28.6830   41.8780 C   0  0  0  0  0  0  0  0  0  0  0  0
   39.4520   28.2080   42.5850 H   0  0  0  0  0  0  0  0  0  0  0  0
   40.6860   27.8500   40.9390 C   0  0  0  0  0  0  0  0  0  0  0  0
   40.4920   26.7830   40.9020 H   0  0  0  0  0  0  0  0  0  0  0  0
   41.5440   28.3870   40.0020 C   0  0  0  0  0  3  0  0  0  0  0  0
   41.7540   29.7460   40.0940 C   0  0  0  0  0  3  0  0  0  0  0  0
   41.1730   30.5200   41.0280 N   0  0  0  0  0  0  0  0  0  0  0  0
  1  2  1  0  0  0  0
  2 11  1  0  0  0  0
  2  3  2  0  0  0  0
  3  7  1  0  0  0  0
  4  3  1  0  0  0  0
  4  8  1  0  0  0  0
  5  4  2  0  0  0  0
  6  1  2  0  0  0  0
  6  5  1  0  0  0  0
  9  5  1  0  0  0  0
 10 15  2  0  0  0  0
 10 11  1  0  0  0  0
 11 12  2  0  0  0  0
 12 13  1  0  0  0  0
 12 18  1  0  0  0  0
 14 17  1  0  0  0  0
 14 13  2  0  0  0  0
 15 14  1  0  0  0  0
 16 10  1  0  0  0  0
 18 20  1  0  0  0  0
 18 19  1  0  0  0  0
 21 18  1  0  0  0  0
 22  1  1  0  0  0  0
 23 22  1  0  0  0  0
 24  6  1  0  0  0  0
 25 34  1  0  0  0  0
 25 26  1  0  0  0  0
 26 24  1  0  0  0  0
 27 26  2  0  0  0  0
 27 35  1  0  0  0  0
 28 27  1  0  0  0  0
 29 36  1  0  0  0  0
 29 28  1  0  0  0  0
 30 29  1  0  0  0  0
 31 30  2  0  0  0  0
 31 32  1  0  0  0  0
 32 33  1  0  0  0  0
 32 28  2  0  0  0  0
 33 25  2  0  0  0  0
 37 30  1  0  0  0  0
 38 33  1  0  0  0  0
 39 38  1  0  0  0  0
 39 40  1  0  0  0  0
 41 39  2  0  0  0  0
 42 41  1  0  0  0  0
 43 44  2  0  0  0  0
 43 41  1  0  0  0  0
 44 45  1  0  0  0  0
 45 38  2  0  0  0  0
M  END
>  <minimizedAffinity>
-7.63013506

>  <minimizedRMSD>
0.774910092

$$$$
