
 OpenBabel03272509213D

 45 49  0  0  0  0  0  0  0  0999 V2000
   37.9830   31.2750   47.7770 C   0  0  0  0  0  0  0  0  0  0  0  0
   37.0640   31.2960   48.8110 C   0  0  0  0  0  0  0  0  0  0  0  0
   37.1810   32.4040   49.6640 C   0  0  0  0  0  0  0  0  0  0  0  0
   38.1530   33.3880   49.4650 C   0  0  0  0  0  0  0  0  0  0  0  0
   39.0470   33.2760   48.3780 C   0  0  0  0  0  0  0  0  0  0  0  0
   38.9380   32.1790   47.5240 C   0  0  0  0  0  0  0  0  0  0  0  0
   36.5130   32.5150   50.5000 H   0  0  0  0  0  0  0  0  0  0  0  0
   38.2250   34.2330   50.1330 H   0  0  0  0  0  0  0  0  0  0  0  0
   39.7910   34.0520   48.2440 H   0  0  0  0  0  0  0  0  0  0  0  0
   34.9070   30.3000   48.2690 C   0  0  0  0  0  0  0  0  0  0  0  0
   36.0740   30.2940   49.0170 C   0  0  0  0  0  0  0  0  0  0  0  0
   36.2310   29.2700   49.9710 C   0  0  0  0  0  0  0  0  0  0  0  0
   35.2460   28.3530   50.1090 N   0  0  0  0  0  0  0  0  0  0  0  0
   34.1180   28.4010   49.3500 C   0  0  0  0  0  0  0  0  0  0  0  0
   33.9490   29.3690   48.4360 N   0  0  0  0  0  0  0  0  0  0  0  0
   34.7540   31.0650   47.5350 H   0  0  0  0  0  0  0  0  0  0  0  0
   33.4130   27.6070   49.5650 H   0  0  0  0  0  0  0  0  0  0  0  0
   37.4600   29.2130   50.8000 C   0  0  0  0  0  0  0  0  0  0  0  0
   37.2700   28.5290   51.6510 H   0  0  0  0  0  0  0  0  0  0  0  0
   37.7970   30.2240   51.1160 H   0  0  0  0  0  0  0  0  0  0  0  0
   38.2450   28.7450   50.1670 H   0  0  0  0  0  0  0  0  0  0  0  0
   37.9500   30.2100   46.8700 O   0  0  0  0  0  0  0  0  0  0  0  0
   37.3610   30.1740   46.0620 H   0  0  0  0  0  0  0  0  0  0  0  0
   39.8480   32.1340   46.4800 O   0  0  0  0  0  0  0  0  0  0  0  0
   40.2430   31.3340   44.1750 C   0  0  0  0  0  0  0  0  0  0  0  0
   39.5510   31.9930   45.1600 C   0  0  0  0  0  0  0  0  0  0  0  0
   38.3640   32.6300   44.8170 C   0  0  0  0  0  0  0  0  0  0  0  0
   37.8810   32.6010   43.4960 C   0  0  0  0  0  0  0  0  0  0  0  0
   36.8090   33.0970   42.8590 N   0  0  0  0  0  0  0  0  0  0  0  0
   36.8310   32.7680   41.5640 C   0  0  0  0  0  0  0  0  0  0  0  0
   37.9540   32.0420   41.3790 N   0  0  0  0  0  0  0  0  0  0  0  0
   38.6230   31.9210   42.5510 C   0  0  0  0  0  0  0  0  0  0  0  0
   39.7930   31.2900   42.8770 C   0  0  0  0  0  0  0  0  0  0  0  0
   41.1460   30.8630   44.4930 H   0  0  0  0  0  0  0  0  0  0  0  0
   37.7180   33.1850   45.4870 H   0  0  0  0  0  0  0  0  0  0  0  0
   36.0630   33.6620   43.3210 H   0  0  0  0  0  0  0  0  0  0  0  0
   36.0950   33.0300   40.8060 H   0  0  0  0  0  0  0  0  0  0  0  0
   40.5280   30.5910   41.8320 C   0  0  0  0  0  0  0  0  0  0  0  0
   41.0790   29.3410   41.9740 C   0  0  0  0  0  0  0  0  0  0  0  0
   40.9750   28.8190   42.9140 H   0  0  0  0  0  0  0  0  0  0  0  0
   41.7760   28.6710   40.9890 C   0  0  0  0  0  0  0  0  0  0  0  0
   42.1970   27.6840   41.1360 H   0  0  0  0  0  0  0  0  0  0  0  0
   41.9480   29.2760   39.7630 C   0  0  0  0  0  3  0  0  0  0  0  0
   41.3910   30.5320   39.6320 C   0  0  0  0  0  3  0  0  0  0  0  0
   40.7190   31.1450   40.6200 N   0  0  0  0  0  0  0  0  0  0  0  0
  1  2  1  0  0  0  0
  2 11  1  0  0  0  0
  2  3  2  0  0  0  0
  3  7  1  0  0  0  0
  4  3  1  0  0  0  0
  4  8  1  0  0  0  0
  5  4  2  0  0  0  0
  6  1  2  0  0  0  0
  6  5  1  0  0  0  0
  9  5  1  0  0  0  0
 10 15  2  0  0  0  0
 10 11  1  0  0  0  0
 11 12  2  0  0  0  0
 12 13  1  0  0  0  0
 12 18  1  0  0  0  0
 14 17  1  0  0  0  0
 14 13  2  0  0  0  0
 15 14  1  0  0  0  0
 16 10  1  0  0  0  0
 18 20  1  0  0  0  0
 18 19  1  0  0  0  0
 21 18  1  0  0  0  0
 22  1  1  0  0  0  0
 23 22  1  0  0  0  0
 24  6  1  0  0  0  0
 25 34  1  0  0  0  0
 25 26  1  0  0  0  0
 26 24  1  0  0  0  0
 27 26  2  0  0  0  0
 27 35  1  0  0  0  0
 28 27  1  0  0  0  0
 29 36  1  0  0  0  0
 29 28  1  0  0  0  0
 30 29  1  0  0  0  0
 31 30  2  0  0  0  0
 31 32  1  0  0  0  0
 32 33  1  0  0  0  0
 32 28  2  0  0  0  0
 33 25  2  0  0  0  0
 37 30  1  0  0  0  0
 38 39  1  0  0  0  0
 38 33  1  0  0  0  0
 39 40  1  0  0  0  0
 41 42  1  0  0  0  0
 41 39  2  0  0  0  0
 43 41  1  0  0  0  0
 44 43  2  0  0  0  0
 44 45  1  0  0  0  0
 45 38  2  0  0  0  0
M  END
>  <minimizedAffinity>
-7.78014469

>  <minimizedRMSD>
0.520140469

$$$$
