
 OpenBabel03272509063D

 32 34  0  0  0  0  0  0  0  0999 V2000
   38.1980   26.9790   33.9740 C   0  0  0  0  0  3  0  0  0  0  0  0
   38.1350   25.6950   34.1550 C   0  0  0  0  0  3  0  0  0  0  0  0
   35.3690   28.1360   31.9540 C   0  0  0  0  0  0  0  0  0  0  0  0
   34.7900   29.1060   32.8040 C   0  0  0  0  0  0  0  0  0  0  0  0
   35.4110   29.3210   34.0530 C   0  0  0  0  0  0  0  0  0  0  0  0
   36.5090   28.5900   34.3520 N   0  0  0  0  0  0  0  0  0  0  0  0
   37.0260   27.6780   33.5140 C   0  0  0  0  0  0  0  0  0  0  0  0
   36.4550   27.4540   32.3210 N   0  0  0  0  0  0  0  0  0  0  0  0
   34.8800   27.9870   31.0060 H   0  0  0  0  0  0  0  0  0  0  0  0
   33.9280   29.6720   32.5550 H   0  0  0  0  0  0  0  0  0  0  0  0
   34.9220   30.2900   35.0260 C   0  0  0  0  0  0  0  0  0  0  0  0
   35.7140   31.1900   35.6610 C   0  0  0  0  0  0  0  0  0  0  0  0
   36.7600   31.2300   35.4710 H   0  0  0  0  0  0  0  0  0  0  0  0
   35.2580   32.1210   36.5930 C   0  0  0  0  0  0  0  0  0  0  0  0
   35.9040   32.8340   37.0920 H   0  0  0  0  0  0  0  0  0  0  0  0
   33.9160   32.1490   36.9060 C   0  0  0  0  0  3  0  0  0  0  0  0
   33.1360   31.2230   36.2470 C   0  0  0  0  0  3  0  0  0  0  0  0
   33.6090   30.3380   35.3520 N   0  0  0  0  0  0  0  0  0  0  0  0
   39.1860   24.7780   34.6130 C   0  0  0  0  0  0  0  0  0  0  0  0
   40.1570   25.2730   34.5340 H   0  0  0  0  0  0  0  0  0  0  0  0
   39.1870   23.8810   33.9400 H   0  0  0  0  0  0  0  0  0  0  0  0
   38.9840   24.3210   36.0280 C   0  0  0  0  0  0  0  0  0  0  0  0
   38.0150   24.7960   36.8900 C   0  0  0  0  0  0  0  0  0  0  0  0
   37.9260   24.2980   38.1710 C   0  0  0  0  0  0  0  0  0  0  0  0
   38.8030   23.3090   38.6300 C   0  0  0  0  0  0  0  0  0  0  0  0
   39.7730   22.8310   37.7710 C   0  0  0  0  0  0  0  0  0  0  0  0
   39.8580   23.3330   36.4880 C   0  0  0  0  0  0  0  0  0  0  0  0
   37.3550   25.5600   36.5010 H   0  0  0  0  0  0  0  0  0  0  0  0
   37.1530   24.6970   38.8160 H   0  0  0  0  0  0  0  0  0  0  0  0
   38.7120   22.9330   39.6420 H   0  0  0  0  0  0  0  0  0  0  0  0
   40.4620   22.0650   38.1050 H   0  0  0  0  0  0  0  0  0  0  0  0
   40.6250   22.9470   35.8280 H   0  0  0  0  0  0  0  0  0  0  0  0
  1  2  2  0  0  0  0
  2 19  1  0  0  0  0
  3  8  2  0  0  0  0
  3  4  1  0  0  0  0
  4  5  2  0  0  0  0
  5  6  1  0  0  0  0
  5 11  1  0  0  0  0
  7  1  1  0  0  0  0
  7  6  2  0  0  0  0
  8  7  1  0  0  0  0
  9  3  1  0  0  0  0
 10  4  1  0  0  0  0
 11 18  2  0  0  0  0
 11 12  1  0  0  0  0
 12 14  2  0  0  0  0
 13 12  1  0  0  0  0
 14 16  1  0  0  0  0
 14 15  1  0  0  0  0
 17 16  2  0  0  0  0
 18 17  1  0  0  0  0
 19 22  1  0  0  0  0
 20 19  1  0  0  0  0
 21 19  1  0  0  0  0
 22 27  2  0  0  0  0
 22 23  1  0  0  0  0
 23 24  2  0  0  0  0
 24 25  1  0  0  0  0
 24 29  1  0  0  0  0
 25 30  1  0  0  0  0
 26 31  1  0  0  0  0
 26 25  2  0  0  0  0
 27 26  1  0  0  0  0
 28 23  1  0  0  0  0
 32 27  1  0  0  0  0
M  END
>  <minimizedAffinity>
-5.89378977

$$$$

 OpenBabel03272509063D

 32 34  0  0  0  0  0  0  0  0999 V2000
   36.6350   24.7870   31.8270 C   0  0  0  0  0  3  0  0  0  0  0  0
   36.2100   23.5690   31.9760 C   0  0  0  0  0  3  0  0  0  0  0  0
   37.3820   27.4660   34.2120 C   0  0  0  0  0  0  0  0  0  0  0  0
   37.9760   26.7450   35.2730 C   0  0  0  0  0  0  0  0  0  0  0  0
   38.0940   25.3480   35.1160 C   0  0  0  0  0  0  0  0  0  0  0  0
   37.6350   24.7950   33.9700 N   0  0  0  0  0  0  0  0  0  0  0  0
   37.0770   25.5180   32.9860 C   0  0  0  0  0  0  0  0  0  0  0  0
   36.9520   26.8480   33.1100 N   0  0  0  0  0  0  0  0  0  0  0  0
   37.3020   28.5310   34.3510 H   0  0  0  0  0  0  0  0  0  0  0  0
   38.3320   27.1930   36.1660 H   0  0  0  0  0  0  0  0  0  0  0  0
   38.6860   24.4820   36.1280 C   0  0  0  0  0  0  0  0  0  0  0  0
   38.1760   24.3170   37.3740 C   0  0  0  0  0  0  0  0  0  0  0  0
   37.2940   24.8280   37.6780 H   0  0  0  0  0  0  0  0  0  0  0  0
   38.7330   23.4920   38.3500 C   0  0  0  0  0  0  0  0  0  0  0  0
   38.3130   23.3700   39.3410 H   0  0  0  0  0  0  0  0  0  0  0  0
   39.8780   22.7850   38.0520 C   0  0  0  0  0  3  0  0  0  0  0  0
   40.3740   22.9720   36.7800 C   0  0  0  0  0  3  0  0  0  0  0  0
   39.8110   23.7780   35.8610 N   0  0  0  0  0  0  0  0  0  0  0  0
   35.7160   22.6370   30.9550 C   0  0  0  0  0  0  0  0  0  0  0  0
   36.3050   22.7550   30.0420 H   0  0  0  0  0  0  0  0  0  0  0  0
   34.6490   22.8980   30.7280 H   0  0  0  0  0  0  0  0  0  0  0  0
   35.7790   21.2030   31.3950 C   0  0  0  0  0  0  0  0  0  0  0  0
   36.2190   20.1480   30.6190 C   0  0  0  0  0  0  0  0  0  0  0  0
   36.2320   18.8710   31.1330 C   0  0  0  0  0  0  0  0  0  0  0  0
   35.8060   18.6080   32.4410 C   0  0  0  0  0  0  0  0  0  0  0  0
   35.3660   19.6610   33.2190 C   0  0  0  0  0  0  0  0  0  0  0  0
   35.3550   20.9390   32.6990 C   0  0  0  0  0  0  0  0  0  0  0  0
   36.5410   20.3890   29.6140 H   0  0  0  0  0  0  0  0  0  0  0  0
   36.5840   18.0710   30.4930 H   0  0  0  0  0  0  0  0  0  0  0  0
   35.8260   17.5940   32.8220 H   0  0  0  0  0  0  0  0  0  0  0  0
   35.0320   19.4800   34.2330 H   0  0  0  0  0  0  0  0  0  0  0  0
   35.0060   21.7520   33.3240 H   0  0  0  0  0  0  0  0  0  0  0  0
  1  2  2  0  0  0  0
  1  7  1  0  0  0  0
  3  9  1  0  0  0  0
  3  4  1  0  0  0  0
  4 10  1  0  0  0  0
  5  4  2  0  0  0  0
  5 11  1  0  0  0  0
  6  5  1  0  0  0  0
  7  8  1  0  0  0  0
  7  6  2  0  0  0  0
  8  3  2  0  0  0  0
 11 12  1  0  0  0  0
 12 13  1  0  0  0  0
 12 14  2  0  0  0  0
 14 15  1  0  0  0  0
 16 14  1  0  0  0  0
 17 16  2  0  0  0  0
 18 11  2  0  0  0  0
 18 17  1  0  0  0  0
 19 22  1  0  0  0  0
 19  2  1  0  0  0  0
 20 19  1  0  0  0  0
 21 19  1  0  0  0  0
 22 27  1  0  0  0  0
 23 24  1  0  0  0  0
 23 22  2  0  0  0  0
 24 25  2  0  0  0  0
 25 30  1  0  0  0  0
 25 26  1  0  0  0  0
 26 31  1  0  0  0  0
 27 26  2  0  0  0  0
 27 32  1  0  0  0  0
 28 23  1  0  0  0  0
 29 24  1  0  0  0  0
M  END
>  <minimizedAffinity>
-5.88541222

$$$$

 OpenBabel03272509063D

 32 34  0  0  0  0  0  0  0  0999 V2000
   36.4170   28.5910   34.5270 C   0  0  0  0  0  3  0  0  0  0  0  0
   35.8640   29.3580   33.6380 C   0  0  0  0  0  3  0  0  0  0  0  0
   37.2060   25.5860   32.5860 C   0  0  0  0  0  0  0  0  0  0  0  0
   37.7550   24.7410   33.5790 C   0  0  0  0  0  0  0  0  0  0  0  0
   37.8290   25.2540   34.8910 C   0  0  0  0  0  0  0  0  0  0  0  0
   37.3740   26.5090   35.1110 N   0  0  0  0  0  0  0  0  0  0  0  0
   36.8600   27.2770   34.1380 C   0  0  0  0  0  0  0  0  0  0  0  0
   36.7770   26.8140   32.8820 N   0  0  0  0  0  0  0  0  0  0  0  0
   37.1570   25.1750   31.5910 H   0  0  0  0  0  0  0  0  0  0  0  0
   38.1080   23.7590   33.3900 H   0  0  0  0  0  0  0  0  0  0  0  0
   38.3710   24.4950   36.0100 C   0  0  0  0  0  0  0  0  0  0  0  0
   37.8570   24.5240   37.2640 C   0  0  0  0  0  0  0  0  0  0  0  0
   37.0070   25.1230   37.4950 H   0  0  0  0  0  0  0  0  0  0  0  0
   38.3660   23.8030   38.3430 C   0  0  0  0  0  0  0  0  0  0  0  0
   37.9430   23.8370   39.3400 H   0  0  0  0  0  0  0  0  0  0  0  0
   39.4660   22.9960   38.1450 C   0  0  0  0  0  3  0  0  0  0  0  0
   39.9690   22.9850   36.8620 C   0  0  0  0  0  3  0  0  0  0  0  0
   39.4510   23.6960   35.8430 N   0  0  0  0  0  0  0  0  0  0  0  0
   35.3410   30.7200   33.7960 C   0  0  0  0  0  0  0  0  0  0  0  0
   34.7910   31.0040   32.8960 H   0  0  0  0  0  0  0  0  0  0  0  0
   36.2110   31.4180   33.9180 H   0  0  0  0  0  0  0  0  0  0  0  0
   34.4380   30.8630   34.9870 C   0  0  0  0  0  0  0  0  0  0  0  0
   33.2280   30.2180   35.1530 C   0  0  0  0  0  0  0  0  0  0  0  0
   32.4840   30.4270   36.2920 C   0  0  0  0  0  0  0  0  0  0  0  0
   32.9270   31.2890   37.3020 C   0  0  0  0  0  0  0  0  0  0  0  0
   34.1360   31.9360   37.1400 C   0  0  0  0  0  0  0  0  0  0  0  0
   34.8780   31.7220   35.9960 C   0  0  0  0  0  0  0  0  0  0  0  0
   32.9180   29.5590   34.3520 H   0  0  0  0  0  0  0  0  0  0  0  0
   31.5410   29.9030   36.3850 H   0  0  0  0  0  0  0  0  0  0  0  0
   32.3230   31.4380   38.1890 H   0  0  0  0  0  0  0  0  0  0  0  0
   34.4980   32.6080   37.9090 H   0  0  0  0  0  0  0  0  0  0  0  0
   35.8240   32.2390   35.8850 H   0  0  0  0  0  0  0  0  0  0  0  0
  2 19  1  0  0  0  0
  2  1  2  0  0  0  0
  3  8  2  0  0  0  0
  3  4  1  0  0  0  0
  4  5  2  0  0  0  0
  5  6  1  0  0  0  0
  5 11  1  0  0  0  0
  7  1  1  0  0  0  0
  7  6  2  0  0  0  0
  8  7  1  0  0  0  0
  9  3  1  0  0  0  0
 10  4  1  0  0  0  0
 11 12  1  0  0  0  0
 12 13  1  0  0  0  0
 12 14  2  0  0  0  0
 14 15  1  0  0  0  0
 16 14  1  0  0  0  0
 17 16  2  0  0  0  0
 18 11  2  0  0  0  0
 18 17  1  0  0  0  0
 19 21  1  0  0  0  0
 19 22  1  0  0  0  0
 20 19  1  0  0  0  0
 22 23  2  0  0  0  0
 22 27  1  0  0  0  0
 23 24  1  0  0  0  0
 24 29  1  0  0  0  0
 24 25  2  0  0  0  0
 25 30  1  0  0  0  0
 26 25  1  0  0  0  0
 26 31  1  0  0  0  0
 27 26  2  0  0  0  0
 28 23  1  0  0  0  0
 32 27  1  0  0  0  0
M  END
>  <minimizedAffinity>
-5.86765528

$$$$

 OpenBabel03272509063D

 32 34  0  0  0  0  0  0  0  0999 V2000
   36.8390   27.9130   32.7340 C   0  0  0  0  0  3  0  0  0  0  0  0
   36.1440   28.4500   33.6910 C   0  0  0  0  0  3  0  0  0  0  0  0
   40.2970   26.7030   32.7000 C   0  0  0  0  0  0  0  0  0  0  0  0
   40.3120   25.8550   33.8310 C   0  0  0  0  0  0  0  0  0  0  0  0
   39.1130   25.7360   34.5640 C   0  0  0  0  0  0  0  0  0  0  0  0
   38.0360   26.4370   34.1400 N   0  0  0  0  0  0  0  0  0  0  0  0
   38.0650   27.2320   33.0600 C   0  0  0  0  0  0  0  0  0  0  0  0
   39.1930   27.3620   32.3450 N   0  0  0  0  0  0  0  0  0  0  0  0
   41.2220   26.7800   32.1540 H   0  0  0  0  0  0  0  0  0  0  0  0
   41.1660   25.3110   34.1510 H   0  0  0  0  0  0  0  0  0  0  0  0
   38.9860   24.8970   35.7490 C   0  0  0  0  0  0  0  0  0  0  0  0
   38.0780   25.1100   36.7330 C   0  0  0  0  0  0  0  0  0  0  0  0
   37.3960   25.9250   36.6820 H   0  0  0  0  0  0  0  0  0  0  0  0
   37.9470   24.3150   37.8710 C   0  0  0  0  0  0  0  0  0  0  0  0
   37.2160   24.4980   38.6480 H   0  0  0  0  0  0  0  0  0  0  0  0
   38.7860   23.2330   38.0280 C   0  0  0  0  0  3  0  0  0  0  0  0
   39.6990   23.0400   37.0130 C   0  0  0  0  0  3  0  0  0  0  0  0
   39.7980   23.8290   35.9280 N   0  0  0  0  0  0  0  0  0  0  0  0
   34.8770   29.1870   33.6050 C   0  0  0  0  0  0  0  0  0  0  0  0
   34.0450   28.4780   33.6190 H   0  0  0  0  0  0  0  0  0  0  0  0
   34.8590   29.7400   32.6300 H   0  0  0  0  0  0  0  0  0  0  0  0
   34.6990   30.1720   34.7230 C   0  0  0  0  0  0  0  0  0  0  0  0
   33.5050   30.4510   35.3590 C   0  0  0  0  0  0  0  0  0  0  0  0
   33.4640   31.3780   36.3760 C   0  0  0  0  0  0  0  0  0  0  0  0
   34.6170   32.0550   36.7910 C   0  0  0  0  0  0  0  0  0  0  0  0
   35.8120   31.7780   36.1580 C   0  0  0  0  0  0  0  0  0  0  0  0
   35.8480   30.8480   35.1390 C   0  0  0  0  0  0  0  0  0  0  0  0
   32.6350   29.9080   35.0120 H   0  0  0  0  0  0  0  0  0  0  0  0
   32.5090   31.5680   36.8490 H   0  0  0  0  0  0  0  0  0  0  0  0
   34.5580   32.7800   37.5940 H   0  0  0  0  0  0  0  0  0  0  0  0
   36.7170   32.2900   36.4630 H   0  0  0  0  0  0  0  0  0  0  0  0
   36.7950   30.6450   34.6530 H   0  0  0  0  0  0  0  0  0  0  0  0
  1  7  1  0  0  0  0
  1  2  2  0  0  0  0
  3  4  1  0  0  0  0
  4 10  1  0  0  0  0
  4  5  2  0  0  0  0
  5 11  1  0  0  0  0
  6  5  1  0  0  0  0
  7  6  2  0  0  0  0
  8  3  2  0  0  0  0
  8  7  1  0  0  0  0
  9  3  1  0  0  0  0
 11 18  2  0  0  0  0
 11 12  1  0  0  0  0
 12 14  2  0  0  0  0
 13 12  1  0  0  0  0
 14 16  1  0  0  0  0
 14 15  1  0  0  0  0
 17 16  2  0  0  0  0
 18 17  1  0  0  0  0
 19 20  1  0  0  0  0
 19  2  1  0  0  0  0
 19 22  1  0  0  0  0
 21 19  1  0  0  0  0
 22 27  2  0  0  0  0
 22 23  1  0  0  0  0
 23 24  2  0  0  0  0
 24 25  1  0  0  0  0
 24 29  1  0  0  0  0
 25 30  1  0  0  0  0
 26 31  1  0  0  0  0
 26 25  2  0  0  0  0
 27 26  1  0  0  0  0
 28 23  1  0  0  0  0
 32 27  1  0  0  0  0
M  END
>  <minimizedAffinity>
-5.67524767

$$$$

 OpenBabel03272509063D

 32 34  0  0  0  0  0  0  0  0999 V2000
   37.9550   23.9960   33.3030 C   0  0  0  0  0  3  0  0  0  0  0  0
   37.8970   22.7600   33.6970 C   0  0  0  0  0  3  0  0  0  0  0  0
   35.1500   24.2330   30.9590 C   0  0  0  0  0  0  0  0  0  0  0  0
   35.0330   25.6330   30.7960 C   0  0  0  0  0  0  0  0  0  0  0  0
   35.9400   26.4430   31.5120 C   0  0  0  0  0  0  0  0  0  0  0  0
   36.8540   25.8310   32.3010 N   0  0  0  0  0  0  0  0  0  0  0  0
   36.9300   24.4980   32.4260 C   0  0  0  0  0  0  0  0  0  0  0  0
   36.0790   23.7050   31.7570 N   0  0  0  0  0  0  0  0  0  0  0  0
   34.4490   23.6330   30.4040 H   0  0  0  0  0  0  0  0  0  0  0  0
   34.3100   26.0980   30.1740 H   0  0  0  0  0  0  0  0  0  0  0  0
   35.9340   27.8980   31.4380 C   0  0  0  0  0  0  0  0  0  0  0  0
   36.6480   28.6130   30.5340 C   0  0  0  0  0  0  0  0  0  0  0  0
   37.2650   28.1270   29.8150 H   0  0  0  0  0  0  0  0  0  0  0  0
   36.6510   30.0050   30.4530 C   0  0  0  0  0  0  0  0  0  0  0  0
   37.2270   30.5610   29.7250 H   0  0  0  0  0  0  0  0  0  0  0  0
   35.8810   30.7250   31.3410 C   0  0  0  0  0  3  0  0  0  0  0  0
   35.1660   29.9740   32.2490 C   0  0  0  0  0  3  0  0  0  0  0  0
   35.1870   28.6290   32.2990 N   0  0  0  0  0  0  0  0  0  0  0  0
   38.8160   22.0330   34.5810 C   0  0  0  0  0  0  0  0  0  0  0  0
   39.8360   22.1300   34.2010 H   0  0  0  0  0  0  0  0  0  0  0  0
   38.5320   20.9480   34.5680 H   0  0  0  0  0  0  0  0  0  0  0  0
   38.7740   22.5260   35.9980 C   0  0  0  0  0  0  0  0  0  0  0  0
   37.6390   22.9470   36.6640 C   0  0  0  0  0  0  0  0  0  0  0  0
   37.7240   23.3800   37.9680 C   0  0  0  0  0  0  0  0  0  0  0  0
   38.9470   23.4050   38.6490 C   0  0  0  0  0  0  0  0  0  0  0  0
   40.0830   22.9850   37.9860 C   0  0  0  0  0  0  0  0  0  0  0  0
   39.9930   22.5520   36.6790 C   0  0  0  0  0  0  0  0  0  0  0  0
   36.7120   22.9130   36.1060 H   0  0  0  0  0  0  0  0  0  0  0  0
   36.8120   23.7020   38.4550 H   0  0  0  0  0  0  0  0  0  0  0  0
   38.9870   23.7500   39.6750 H   0  0  0  0  0  0  0  0  0  0  0  0
   41.0400   22.9960   38.4940 H   0  0  0  0  0  0  0  0  0  0  0  0
   40.8950   22.2260   36.1760 H   0  0  0  0  0  0  0  0  0  0  0  0
  1  2  2  0  0  0  0
  2 19  1  0  0  0  0
  3  8  1  0  0  0  0
  4  3  2  0  0  0  0
  4  5  1  0  0  0  0
  5  6  2  0  0  0  0
  6  7  1  0  0  0  0
  7  1  1  0  0  0  0
  8  7  2  0  0  0  0
  9  3  1  0  0  0  0
 10  4  1  0  0  0  0
 11  5  1  0  0  0  0
 11 18  1  0  0  0  0
 12 11  2  0  0  0  0
 13 12  1  0  0  0  0
 14 12  1  0  0  0  0
 14 16  2  0  0  0  0
 15 14  1  0  0  0  0
 16 17  1  0  0  0  0
 17 18  2  0  0  0  0
 19 22  1  0  0  0  0
 20 19  1  0  0  0  0
 21 19  1  0  0  0  0
 22 23  2  0  0  0  0
 22 27  1  0  0  0  0
 23 24  1  0  0  0  0
 24 29  1  0  0  0  0
 24 25  2  0  0  0  0
 25 30  1  0  0  0  0
 26 31  1  0  0  0  0
 26 25  1  0  0  0  0
 27 26  2  0  0  0  0
 28 23  1  0  0  0  0
 32 27  1  0  0  0  0
M  END
>  <minimizedAffinity>
-5.39611244

$$$$

 OpenBabel03272509063D

 32 34  0  0  0  0  0  0  0  0999 V2000
   38.1400   23.6430   32.7470 C   0  0  0  0  0  3  0  0  0  0  0  0
   38.7630   24.3120   33.6700 C   0  0  0  0  0  3  0  0  0  0  0  0
   34.9580   24.1890   31.0170 C   0  0  0  0  0  0  0  0  0  0  0  0
   34.9760   25.5900   30.8210 C   0  0  0  0  0  0  0  0  0  0  0  0
   36.1020   26.2920   31.3020 C   0  0  0  0  0  0  0  0  0  0  0  0
   37.0800   25.5850   31.9130 N   0  0  0  0  0  0  0  0  0  0  0  0
   37.0210   24.2540   32.0770 C   0  0  0  0  0  0  0  0  0  0  0  0
   35.9630   23.5620   31.6300 N   0  0  0  0  0  0  0  0  0  0  0  0
   34.0900   23.6720   30.6420 H   0  0  0  0  0  0  0  0  0  0  0  0
   34.2010   26.1300   30.3400 H   0  0  0  0  0  0  0  0  0  0  0  0
   36.2530   27.7350   31.1690 C   0  0  0  0  0  0  0  0  0  0  0  0
   35.9510   28.6210   32.1500 C   0  0  0  0  0  0  0  0  0  0  0  0
   35.5770   28.2920   33.0900 H   0  0  0  0  0  0  0  0  0  0  0  0
   36.0920   30.0030   32.0350 C   0  0  0  0  0  0  0  0  0  0  0  0
   35.8450   30.6990   32.8280 H   0  0  0  0  0  0  0  0  0  0  0  0
   36.5700   30.5280   30.8540 C   0  0  0  0  0  3  0  0  0  0  0  0
   36.8690   29.6050   29.8740 C   0  0  0  0  0  3  0  0  0  0  0  0
   36.7210   28.2760   30.0200 N   0  0  0  0  0  0  0  0  0  0  0  0
   39.9170   23.9030   34.4800 C   0  0  0  0  0  0  0  0  0  0  0  0
   40.6960   24.6660   34.4120 H   0  0  0  0  0  0  0  0  0  0  0  0
   40.3180   22.9440   34.0610 H   0  0  0  0  0  0  0  0  0  0  0  0
   39.5670   23.6900   35.9250 C   0  0  0  0  0  0  0  0  0  0  0  0
   40.2680   22.8910   36.8060 C   0  0  0  0  0  0  0  0  0  0  0  0
   39.8510   22.7730   38.1130 C   0  0  0  0  0  0  0  0  0  0  0  0
   38.7190   23.4520   38.5800 C   0  0  0  0  0  0  0  0  0  0  0  0
   38.0160   24.2520   37.7010 C   0  0  0  0  0  0  0  0  0  0  0  0
   38.4380   24.3670   36.3930 C   0  0  0  0  0  0  0  0  0  0  0  0
   41.1370   22.3820   36.4110 H   0  0  0  0  0  0  0  0  0  0  0  0
   40.4270   22.1360   38.7730 H   0  0  0  0  0  0  0  0  0  0  0  0
   38.4110   23.3420   39.6130 H   0  0  0  0  0  0  0  0  0  0  0  0
   37.1380   24.7870   38.0410 H   0  0  0  0  0  0  0  0  0  0  0  0
   37.8750   24.9990   35.7180 H   0  0  0  0  0  0  0  0  0  0  0  0
  1  2  2  0  0  0  0
  2 19  1  0  0  0  0
  3  8  1  0  0  0  0
  4  3  2  0  0  0  0
  4  5  1  0  0  0  0
  5  6  2  0  0  0  0
  6  7  1  0  0  0  0
  7  1  1  0  0  0  0
  8  7  2  0  0  0  0
  9  3  1  0  0  0  0
 10  4  1  0  0  0  0
 11  5  1  0  0  0  0
 11 12  1  0  0  0  0
 12 13  1  0  0  0  0
 14 12  2  0  0  0  0
 14 15  1  0  0  0  0
 16 14  1  0  0  0  0
 17 18  1  0  0  0  0
 17 16  2  0  0  0  0
 18 11  2  0  0  0  0
 19 22  1  0  0  0  0
 20 19  1  0  0  0  0
 21 19  1  0  0  0  0
 22 27  2  0  0  0  0
 22 23  1  0  0  0  0
 23 24  2  0  0  0  0
 24 25  1  0  0  0  0
 24 29  1  0  0  0  0
 25 30  1  0  0  0  0
 26 31  1  0  0  0  0
 26 25  2  0  0  0  0
 27 26  1  0  0  0  0
 28 23  1  0  0  0  0
 32 27  1  0  0  0  0
M  END
>  <minimizedAffinity>
-5.35538292

$$$$

 OpenBabel03272509063D

 32 34  0  0  0  0  0  0  0  0999 V2000
   37.0790   26.9410   33.8070 C   0  0  0  0  0  3  0  0  0  0  0  0
   37.4230   26.8190   35.0530 C   0  0  0  0  0  3  0  0  0  0  0  0
   35.7940   29.6890   31.7540 C   0  0  0  0  0  0  0  0  0  0  0  0
   35.1880   30.5140   32.7300 C   0  0  0  0  0  0  0  0  0  0  0  0
   35.2520   30.0790   34.0710 C   0  0  0  0  0  0  0  0  0  0  0  0
   35.8820   28.9100   34.3320 N   0  0  0  0  0  0  0  0  0  0  0  0
   36.4440   28.1580   33.3730 C   0  0  0  0  0  0  0  0  0  0  0  0
   36.3980   28.5490   32.0910 N   0  0  0  0  0  0  0  0  0  0  0  0
   35.7350   30.0400   30.7380 H   0  0  0  0  0  0  0  0  0  0  0  0
   34.6970   31.4280   32.5100 H   0  0  0  0  0  0  0  0  0  0  0  0
   34.6710   30.8290   35.1770 C   0  0  0  0  0  0  0  0  0  0  0  0
   35.3720   31.6840   35.9620 C   0  0  0  0  0  0  0  0  0  0  0  0
   36.4110   31.8510   35.8000 H   0  0  0  0  0  0  0  0  0  0  0  0
   34.8290   32.4070   37.0230 C   0  0  0  0  0  0  0  0  0  0  0  0
   35.4030   33.0870   37.6410 H   0  0  0  0  0  0  0  0  0  0  0  0
   33.4890   32.2590   37.3120 C   0  0  0  0  0  3  0  0  0  0  0  0
   32.8010   31.3840   36.5000 C   0  0  0  0  0  3  0  0  0  0  0  0
   33.3590   30.7020   35.4830 N   0  0  0  0  0  0  0  0  0  0  0  0
   38.0760   25.6860   35.7200 C   0  0  0  0  0  0  0  0  0  0  0  0
   37.5040   24.7750   35.5280 H   0  0  0  0  0  0  0  0  0  0  0  0
   38.0770   25.8820   36.8240 H   0  0  0  0  0  0  0  0  0  0  0  0
   39.4920   25.4790   35.2650 C   0  0  0  0  0  0  0  0  0  0  0  0
   40.1300   24.2580   35.1710 C   0  0  0  0  0  0  0  0  0  0  0  0
   41.4360   24.1930   34.7390 C   0  0  0  0  0  0  0  0  0  0  0  0
   42.1450   25.3470   34.3870 C   0  0  0  0  0  0  0  0  0  0  0  0
   41.5100   26.5700   34.4790 C   0  0  0  0  0  0  0  0  0  0  0  0
   40.2010   26.6300   34.9120 C   0  0  0  0  0  0  0  0  0  0  0  0
   39.5510   23.3880   35.4520 H   0  0  0  0  0  0  0  0  0  0  0  0
   41.9010   23.2170   34.6800 H   0  0  0  0  0  0  0  0  0  0  0  0
   43.1720   25.2690   34.0500 H   0  0  0  0  0  0  0  0  0  0  0  0
   42.0390   27.4760   34.2110 H   0  0  0  0  0  0  0  0  0  0  0  0
   39.7190   27.5980   34.9790 H   0  0  0  0  0  0  0  0  0  0  0  0
  1  2  2  0  0  0  0
  2 19  1  0  0  0  0
  3  8  2  0  0  0  0
  3  4  1  0  0  0  0
  4  5  2  0  0  0  0
  5  6  1  0  0  0  0
  5 11  1  0  0  0  0
  7  1  1  0  0  0  0
  7  6  2  0  0  0  0
  8  7  1  0  0  0  0
  9  3  1  0  0  0  0
 10  4  1  0  0  0  0
 11 18  2  0  0  0  0
 11 12  1  0  0  0  0
 12 14  2  0  0  0  0
 13 12  1  0  0  0  0
 14 16  1  0  0  0  0
 14 15  1  0  0  0  0
 17 16  2  0  0  0  0
 18 17  1  0  0  0  0
 19 21  1  0  0  0  0
 20 19  1  0  0  0  0
 22 19  1  0  0  0  0
 23 22  1  0  0  0  0
 23 28  1  0  0  0  0
 24 23  2  0  0  0  0
 25 26  2  0  0  0  0
 25 24  1  0  0  0  0
 26 27  1  0  0  0  0
 27 32  1  0  0  0  0
 27 22  2  0  0  0  0
 29 24  1  0  0  0  0
 30 25  1  0  0  0  0
 31 26  1  0  0  0  0
M  END
>  <minimizedAffinity>
-5.35110331

$$$$

 OpenBabel03272509063D

 32 34  0  0  0  0  0  0  0  0999 V2000
   37.3890   26.1120   33.7420 C   0  0  0  0  0  3  0  0  0  0  0  0
   37.5640   25.1050   32.9410 C   0  0  0  0  0  3  0  0  0  0  0  0
   36.4280   28.8310   31.4830 C   0  0  0  0  0  0  0  0  0  0  0  0
   35.8180   29.7410   32.3770 C   0  0  0  0  0  0  0  0  0  0  0  0
   35.7660   29.3710   33.7370 C   0  0  0  0  0  0  0  0  0  0  0  0
   36.2980   28.1790   34.0940 N   0  0  0  0  0  0  0  0  0  0  0  0
   36.8680   27.3440   33.2110 C   0  0  0  0  0  0  0  0  0  0  0  0
   36.9310   27.6720   31.9120 N   0  0  0  0  0  0  0  0  0  0  0  0
   36.4580   29.1320   30.4500 H   0  0  0  0  0  0  0  0  0  0  0  0
   35.4050   30.6730   32.0820 H   0  0  0  0  0  0  0  0  0  0  0  0
   35.1680   30.2120   34.7660 C   0  0  0  0  0  0  0  0  0  0  0  0
   35.8670   31.0910   35.5260 C   0  0  0  0  0  0  0  0  0  0  0  0
   36.9170   31.2090   35.4010 H   0  0  0  0  0  0  0  0  0  0  0  0
   35.3060   31.9000   36.5130 C   0  0  0  0  0  0  0  0  0  0  0  0
   35.8790   32.5980   37.1120 H   0  0  0  0  0  0  0  0  0  0  0  0
   33.9510   31.8200   36.7500 C   0  0  0  0  0  3  0  0  0  0  0  0
   33.2650   30.9190   35.9640 C   0  0  0  0  0  3  0  0  0  0  0  0
   33.8390   30.1520   35.0190 N   0  0  0  0  0  0  0  0  0  0  0  0
   38.0750   23.7640   33.2480 C   0  0  0  0  0  0  0  0  0  0  0  0
   38.3160   23.7030   34.3120 H   0  0  0  0  0  0  0  0  0  0  0  0
   39.0160   23.6040   32.6590 H   0  0  0  0  0  0  0  0  0  0  0  0
   37.1000   22.6760   32.9060 C   0  0  0  0  0  0  0  0  0  0  0  0
   36.8390   21.5630   33.6820 C   0  0  0  0  0  0  0  0  0  0  0  0
   35.9190   20.6280   33.2630 C   0  0  0  0  0  0  0  0  0  0  0  0
   35.2300   20.7770   32.0540 C   0  0  0  0  0  0  0  0  0  0  0  0
   35.4870   21.8880   31.2750 C   0  0  0  0  0  0  0  0  0  0  0  0
   36.4100   22.8220   31.7000 C   0  0  0  0  0  0  0  0  0  0  0  0
   37.3900   21.4820   34.6100 H   0  0  0  0  0  0  0  0  0  0  0  0
   35.7430   19.7700   33.8990 H   0  0  0  0  0  0  0  0  0  0  0  0
   34.5100   20.0270   31.7460 H   0  0  0  0  0  0  0  0  0  0  0  0
   34.9650   22.0230   30.3360 H   0  0  0  0  0  0  0  0  0  0  0  0
   36.6000   23.6870   31.0760 H   0  0  0  0  0  0  0  0  0  0  0  0
  2 19  1  0  0  0  0
  2  1  2  0  0  0  0
  3  8  2  0  0  0  0
  3  4  1  0  0  0  0
  4  5  2  0  0  0  0
  5  6  1  0  0  0  0
  5 11  1  0  0  0  0
  7  1  1  0  0  0  0
  7  6  2  0  0  0  0
  8  7  1  0  0  0  0
  9  3  1  0  0  0  0
 10  4  1  0  0  0  0
 11 18  2  0  0  0  0
 11 12  1  0  0  0  0
 12 14  2  0  0  0  0
 13 12  1  0  0  0  0
 14 16  1  0  0  0  0
 14 15  1  0  0  0  0
 17 16  2  0  0  0  0
 18 17  1  0  0  0  0
 19 20  1  0  0  0  0
 21 19  1  0  0  0  0
 22 19  1  0  0  0  0
 22 23  1  0  0  0  0
 23 28  1  0  0  0  0
 24 23  2  0  0  0  0
 24 29  1  0  0  0  0
 25 24  1  0  0  0  0
 26 27  1  0  0  0  0
 26 25  2  0  0  0  0
 27 22  2  0  0  0  0
 30 25  1  0  0  0  0
 31 26  1  0  0  0  0
 32 27  1  0  0  0  0
M  END
>  <minimizedAffinity>
-5.34457779

$$$$

 OpenBabel03272509063D

 32 34  0  0  0  0  0  0  0  0999 V2000
   36.9520   27.8560   33.2030 C   0  0  0  0  0  3  0  0  0  0  0  0
   36.2380   28.2970   34.1930 C   0  0  0  0  0  3  0  0  0  0  0  0
   37.9150   24.4710   32.1850 C   0  0  0  0  0  0  0  0  0  0  0  0
   38.2430   23.8820   33.4280 C   0  0  0  0  0  0  0  0  0  0  0  0
   38.1150   24.6910   34.5770 C   0  0  0  0  0  0  0  0  0  0  0  0
   37.6910   25.9660   34.4150 N   0  0  0  0  0  0  0  0  0  0  0  0
   37.3900   26.4840   33.2140 C   0  0  0  0  0  0  0  0  0  0  0  0
   37.5030   25.7370   32.1060 N   0  0  0  0  0  0  0  0  0  0  0  0
   38.0190   23.8370   31.3200 H   0  0  0  0  0  0  0  0  0  0  0  0
   38.5740   22.8810   33.5390 H   0  0  0  0  0  0  0  0  0  0  0  0
   38.4170   24.2150   35.9210 C   0  0  0  0  0  0  0  0  0  0  0  0
   37.7840   24.6490   37.0380 C   0  0  0  0  0  0  0  0  0  0  0  0
   37.0130   25.3810   36.9820 H   0  0  0  0  0  0  0  0  0  0  0  0
   38.0640   24.2010   38.3280 C   0  0  0  0  0  0  0  0  0  0  0  0
   37.5490   24.5580   39.2110 H   0  0  0  0  0  0  0  0  0  0  0  0
   39.0480   23.2510   38.5050 C   0  0  0  0  0  3  0  0  0  0  0  0
   39.6750   22.8280   37.3530 C   0  0  0  0  0  3  0  0  0  0  0  0
   39.3790   23.2830   36.1220 N   0  0  0  0  0  0  0  0  0  0  0  0
   35.6830   29.6410   34.3990 C   0  0  0  0  0  0  0  0  0  0  0  0
   36.2030   30.3500   33.7510 H   0  0  0  0  0  0  0  0  0  0  0  0
   35.8610   29.9340   35.4660 H   0  0  0  0  0  0  0  0  0  0  0  0
   34.2100   29.7120   34.1190 C   0  0  0  0  0  0  0  0  0  0  0  0
   33.2090   29.5130   35.0500 C   0  0  0  0  0  0  0  0  0  0  0  0
   31.8880   29.6050   34.6740 C   0  0  0  0  0  0  0  0  0  0  0  0
   31.5250   29.8980   33.3540 C   0  0  0  0  0  0  0  0  0  0  0  0
   32.5230   30.0980   32.4210 C   0  0  0  0  0  0  0  0  0  0  0  0
   33.8460   30.0050   32.8020 C   0  0  0  0  0  0  0  0  0  0  0  0
   33.5270   29.2880   36.0600 H   0  0  0  0  0  0  0  0  0  0  0  0
   31.1330   29.4420   35.4330 H   0  0  0  0  0  0  0  0  0  0  0  0
   30.4780   29.9650   33.0840 H   0  0  0  0  0  0  0  0  0  0  0  0
   32.2650   30.3260   31.3940 H   0  0  0  0  0  0  0  0  0  0  0  0
   34.6150   30.1640   32.0570 H   0  0  0  0  0  0  0  0  0  0  0  0
  1  7  1  0  0  0  0
  1  2  2  0  0  0  0
  2 19  1  0  0  0  0
  3  4  1  0  0  0  0
  4 10  1  0  0  0  0
  4  5  2  0  0  0  0
  5 11  1  0  0  0  0
  6  5  1  0  0  0  0
  7  6  2  0  0  0  0
  8  3  2  0  0  0  0
  8  7  1  0  0  0  0
  9  3  1  0  0  0  0
 11 18  2  0  0  0  0
 11 12  1  0  0  0  0
 12 14  2  0  0  0  0
 13 12  1  0  0  0  0
 14 16  1  0  0  0  0
 14 15  1  0  0  0  0
 17 16  2  0  0  0  0
 18 17  1  0  0  0  0
 19 21  1  0  0  0  0
 20 19  1  0  0  0  0
 22 19  1  0  0  0  0
 22 23  1  0  0  0  0
 23 28  1  0  0  0  0
 24 23  2  0  0  0  0
 24 29  1  0  0  0  0
 25 24  1  0  0  0  0
 26 27  1  0  0  0  0
 26 25  2  0  0  0  0
 27 22  2  0  0  0  0
 30 25  1  0  0  0  0
 31 26  1  0  0  0  0
 32 27  1  0  0  0  0
M  END
>  <minimizedAffinity>
-5.32677317

$$$$
