REMARK  Name = 
REMARK  2 active torsions:
REMARK  status: ('A' for Active; 'I' for Inactive)
REMARK    1  A    between atoms: C_5  and  C_9
REMARK    2  A    between atoms: C_11  and  C_20
REMARK                            x       y       z     vdW  Elec       q    Type
REMARK                         _______ _______ _______ _____ _____    ______ ____
ROOT
ATOM      1 BR   UNL     1      37.270  29.353  51.056  0.00  0.00    +0.000 Br
ATOM      2  C   UNL     1      35.955  29.313  49.666  0.00  0.00    +0.000 A 
ATOM      3  C   UNL     1      36.003  30.217  48.618  0.00  0.00    +0.000 A 
ATOM      4  C   UNL     1      35.013  30.121  47.653  0.00  0.00    +0.000 A 
ATOM      5  C   UNL     1      34.009  29.185  47.694  0.00  0.00    +0.000 A 
ATOM      6  C   UNL     1      33.992  28.307  48.747  0.00  0.00    +0.000 A 
ATOM      7  C   UNL     1      34.964  28.380  49.720  0.00  0.00    +0.000 A 
ATOM      8  H   UNL     1      35.085  30.845  46.849  0.00  0.00    +0.000 HD
ATOM      9  H   UNL     1      33.211  27.562  48.800  0.00  0.00    +0.000 HD
ATOM     10  H   UNL     1      34.912  27.658  50.542  0.00  0.00    +0.000 HD
ENDROOT
BRANCH   3  15
ATOM     11  C   UNL     1      37.983  33.162  49.423  0.00  0.00    +0.000 A 
ATOM     12  C   UNL     1      39.018  33.164  48.464  0.00  0.00    +0.000 A 
ATOM     13  C   UNL     1      39.014  32.124  47.533  0.00  0.00    +0.000 A 
ATOM     14  N   UNL     1      38.031  31.183  47.602  0.00  0.00    +0.000 NA
ATOM     15  C   UNL     1      37.054  31.221  48.544  0.00  0.00    +0.000 A 
ATOM     16  N   UNL     1      37.032  32.221  49.462  0.00  0.00    +0.000 NA
ATOM     17  H   UNL     1      37.989  33.981  50.154  0.00  0.00    +0.000 HD
ATOM     18  H   UNL     1      39.760  33.955  48.485  0.00  0.00    +0.000 HD
ATOM     19  H   UNL     1      39.779  32.094  46.796  0.00  0.00    +0.000 HD
ENDBRANCH   3  15
BRANCH   5  20
ATOM     20  C   UNL     1      33.032  29.192  46.617  0.00  0.00    +0.000 A 
ATOM     21  C   UNL     1      32.024  30.127  46.499  0.00  0.00    +0.000 A 
ATOM     22  H   UNL     1      31.936  30.898  47.225  0.00  0.00    +0.000 HD
ATOM     23  C   UNL     1      31.104  30.116  45.466  0.00  0.00    +0.000 A 
ATOM     24  H   UNL     1      30.340  30.874  45.429  0.00  0.00    +0.000 HD
ATOM     25  C   UNL     1      31.225  29.107  44.522  0.00  0.00    +0.000 A 
ATOM     26  C   UNL     1      32.237  28.170  44.644  0.00  0.00    +0.000 A 
ATOM     27  N   UNL     1      33.097  28.246  45.680  0.00  0.00    +0.000 NA
ENDBRANCH   5  20
TORSDOF 2
