
     RDKit          3D

 29 31  0  0  0  0  0  0  0  0999 V2000
   37.9830   33.1619   49.4233 C   0  0  0  0  0  0  0  0  0  0  0  0
   39.0178   33.1644   48.4642 C   0  0  0  0  0  0  0  0  0  0  0  0
   39.0145   32.1243   47.5335 C   0  0  0  0  0  0  0  0  0  0  0  0
   38.0312   31.1833   47.6018 N   0  0  0  0  0  0  0  0  0  0  0  0
   37.0539   31.2212   48.5438 C   0  0  0  0  0  0  0  0  0  0  0  0
   37.0317   32.2207   49.4619 N   0  0  0  0  0  0  0  0  0  0  0  0
   37.2704   29.3534   51.0559 Br  0  0  0  0  0  0  0  0  0  0  0  0
   35.9545   29.3132   49.6659 C   0  0  0  0  0  0  0  0  0  0  0  0
   36.0028   30.2166   48.6182 C   0  0  0  0  0  0  0  0  0  0  0  0
   35.0133   30.1206   47.6532 C   0  0  0  0  0  0  0  0  0  0  0  0
   34.0086   29.1850   47.6943 C   0  0  0  0  0  0  0  0  0  0  0  0
   33.9923   28.3067   48.7466 C   0  0  0  0  0  0  0  0  0  0  0  0
   34.9641   28.3797   49.7203 C   0  0  0  0  0  0  0  0  0  0  0  0
   37.9886   33.9811   50.1536 H   0  0  0  0  0  0  0  0  0  0  0  0
   39.7597   33.9551   48.4851 H   0  0  0  0  0  0  0  0  0  0  0  0
   39.7791   32.0944   46.7962 H   0  0  0  0  0  0  0  0  0  0  0  0
   35.0848   30.8451   46.8486 H   0  0  0  0  0  0  0  0  0  0  0  0
   33.2114   27.5621   48.7998 H   0  0  0  0  0  0  0  0  0  0  0  0
   34.9116   27.6580   50.5422 H   0  0  0  0  0  0  0  0  0  0  0  0
   33.0315   29.1919   46.6175 C   0  0  0  0  0  0  0  0  0  0  0  0
   32.4359   30.3356   46.1268 C   0  0  0  0  0  0  0  0  0  0  0  0
   32.6894   31.2795   46.5436 H   0  0  0  0  0  0  0  0  0  0  0  0
   31.5075   30.3205   45.1007 C   0  0  0  0  0  0  0  0  0  0  0  0
   31.0782   31.2476   44.7620 H   0  0  0  0  0  0  0  0  0  0  0  0
   31.1815   29.0849   44.5616 C   0  0  0  0  0  0  0  0  0  0  0  0
   31.7813   27.9391   45.0566 C   0  0  0  0  0  0  0  0  0  0  0  0
   32.6779   28.0343   46.0593 N   0  0  0  0  0  0  0  0  0  0  0  0
   30.4630   29.0773   43.7680 H   0  0  0  0  0  0  0  0  0  0  0  0
   31.4885   26.9879   44.5954 H   0  0  0  0  0  0  0  0  0  0  0  0
  1  6  2  0
  2  1  1  0
  3  4  1  0
  3  2  2  0
  4  5  2  0
  5  9  1  0
  5  6  1  0
  8 13  2  0
  8  7  1  0
  9  8  1  0
 10 11  1  0
 10  9  2  0
 11 12  2  0
 12 13  1  0
  1 14  1  0
  2 15  1  0
  3 16  1  0
 10 17  1  0
 12 18  1  0
 13 19  1  0
 20 21  2  0
 21 22  1  0
 21 23  1  0
 23 24  1  0
 23 25  2  0
 25 26  1  0
 26 27  2  0
 27 20  1  0
 25 28  1  0
 26 29  1  0
 11 20  1  0
M  ISO  8  14  14  15  14  16  14  17  14  18  14  19  14  22  15  24  16
M  END
>  <DihAtoms>  (1) 
9,10,19,20

>  <DihDeg>  (1) 
179.99818183922415

$$$$
