
 OpenBabel03272506303D

 33 35  0  0  1  0  0  0  0  0999 V2000
   33.8190   29.0530   48.5620 C   0  0  1  0  0  0  0  0  0  0  0  0
   33.7040   29.6910   47.2350 C   0  0  0  0  0  0  0  0  0  0  0  0
   34.1510   28.8870   46.0510 C   0  0  0  0  0  0  0  0  0  0  0  0
   33.8570   27.4320   46.1240 C   0  0  0  0  0  0  0  0  0  0  0  0
   33.9830   26.7770   47.4490 C   0  0  0  0  0  0  0  0  0  0  0  0
   33.4190   27.6230   48.5570 C   0  0  2  0  0  0  0  0  0  0  0  0
   33.0520   29.5520   49.2410 H   0  0  0  0  0  0  0  0  0  0  0  0
   32.5840   29.7860   47.0600 H   0  0  0  0  0  0  0  0  0  0  0  0
   34.0460   30.7050   47.1140 H   0  0  0  0  0  0  0  0  0  0  0  0
   35.2350   29.0770   45.9070 H   0  0  0  0  0  0  0  0  0  0  0  0
   33.6660   29.3000   45.1380 H   0  0  0  0  0  0  0  0  0  0  0  0
   32.8250   27.2610   45.7200 H   0  0  0  0  0  0  0  0  0  0  0  0
   34.5290   26.8970   45.4110 H   0  0  0  0  0  0  0  0  0  0  0  0
   35.0310   26.4860   47.6650 H   0  0  0  0  0  0  0  0  0  0  0  0
   33.3770   25.8460   47.4340 H   0  0  0  0  0  0  0  0  0  0  0  0
   33.7370   27.1300   49.4800 H   0  0  0  0  0  0  0  0  0  0  0  0
   36.2900   29.7100   48.6410 C   0  0  0  0  0  0  0  0  0  0  0  0
   35.0890   29.3140   49.2760 C   0  0  0  0  0  0  0  0  0  0  0  0
   35.1260   29.1870   50.6510 C   0  0  0  0  0  0  0  0  0  0  0  0
   36.2780   29.4350   51.3230 N   0  0  0  0  0  0  0  0  0  0  0  0
   37.4100   29.8140   50.6710 C   0  0  0  0  0  0  0  0  0  0  0  0
   37.4120   29.9500   49.3240 N   0  0  0  0  0  0  0  0  0  0  0  0
   36.3000   29.8170   47.5890 H   0  0  0  0  0  0  0  0  0  0  0  0
   34.3590   28.9140   51.3480 H   0  0  0  0  0  0  0  0  0  0  0  0
   38.3420   30.0190   51.1850 H   0  0  0  0  0  0  0  0  0  0  0  0
   31.9070   27.4970   48.5910 C   0  0  0  0  0  0  0  0  0  0  0  0
   31.2260   26.7890   47.6020 C   0  0  0  0  0  0  0  0  0  0  0  0
   31.7880   26.3140   46.7870 H   0  0  0  0  0  0  0  0  0  0  0  0
   29.8700   26.6450   47.5850 C   0  0  0  0  0  0  0  0  0  0  0  0
   29.3690   26.0760   46.7840 H   0  0  0  0  0  0  0  0  0  0  0  0
   29.1400   27.2360   48.6060 C   0  0  0  0  0  0  0  0  0  0  0  0
   29.8200   27.9300   49.5720 C   0  0  0  0  0  0  0  0  0  0  0  0
   31.1590   28.0600   49.5710 N   0  0  0  0  0  0  0  0  0  0  0  0
  1  7  1  1  0  0  0
  1 18  1  0  0  0  0
  2  1  1  0  0  0  0
  3  4  1  0  0  0  0
  3  2  1  0  0  0  0
  4  5  1  0  0  0  0
  5 14  1  0  0  0  0
  5  6  1  0  0  0  0
  6  1  1  0  0  0  0
  6 26  1  0  0  0  0
  6 16  1  1  0  0  0
  8  2  1  0  0  0  0
  9  2  1  0  0  0  0
 10  3  1  0  0  0  0
 11  3  1  0  0  0  0
 12  4  1  0  0  0  0
 13  4  1  0  0  0  0
 15  5  1  0  0  0  0
 17 18  2  0  0  0  0
 17 22  1  0  0  0  0
 18 19  1  0  0  0  0
 19 20  2  0  0  0  0
 19 24  1  0  0  0  0
 21 25  1  0  0  0  0
 21 20  1  0  0  0  0
 22 21  2  0  0  0  0
 23 17  1  0  0  0  0
 26 33  1  0  0  0  0
 27 26  2  0  0  0  0
 28 27  1  0  0  0  0
 29 27  1  0  0  0  0
 29 31  2  0  0  0  0
 30 29  1  0  0  0  0
 31 32  1  0  0  0  0
 33 32  2  0  0  0  0
M  END
>  <minimizedAffinity>
-4.93264294

>  <minimizedRMSD>
1.84060764

$$$$
