
 OpenBabel03272510173D

 27 29  0  0  0  0  0  0  0  0999 V2000
   37.1660   29.5850   51.2340 Br  0  0  0  0  0  0  0  0  0  0  0  0
   36.0050   29.3410   49.7330 C   0  0  0  0  0  0  0  0  0  0  0  0
   36.1240   30.1380   48.6070 C   0  0  0  0  0  0  0  0  0  0  0  0
   35.2430   29.8970   47.5640 C   0  0  0  0  0  0  0  0  0  0  0  0
   34.2800   28.9200   47.6020 C   0  0  0  0  0  0  0  0  0  0  0  0
   34.1900   28.1500   48.7330 C   0  0  0  0  0  0  0  0  0  0  0  0
   35.0520   28.3680   49.7850 C   0  0  0  0  0  0  0  0  0  0  0  0
   35.3690   30.5410   46.7000 H   0  0  0  0  0  0  0  0  0  0  0  0
   33.4380   27.3750   48.7860 H   0  0  0  0  0  0  0  0  0  0  0  0
   34.9450   27.7290   50.6680 H   0  0  0  0  0  0  0  0  0  0  0  0
   37.9780   33.1660   49.4030 C   0  0  0  0  0  0  0  0  0  0  0  0
   39.0210   33.2010   48.4540 C   0  0  0  0  0  0  0  0  0  0  0  0
   39.0680   32.1530   47.5330 C   0  0  0  0  0  0  0  0  0  0  0  0
   38.1220   31.1750   47.6010 N   0  0  0  0  0  0  0  0  0  0  0  0
   37.1350   31.1820   48.5330 C   0  0  0  0  0  0  0  0  0  0  0  0
   37.0640   32.1890   49.4420 N   0  0  0  0  0  0  0  0  0  0  0  0
   37.9440   33.9910   50.1270 H   0  0  0  0  0  0  0  0  0  0  0  0
   39.7310   34.0210   48.4750 H   0  0  0  0  0  0  0  0  0  0  0  0
   39.8400   32.1470   46.8030 H   0  0  0  0  0  0  0  0  0  0  0  0
   33.4200   28.7710   46.4390 C   0  0  0  0  0  0  0  0  0  0  0  0
   32.1220   29.2370   46.3780 C   0  0  0  0  0  0  0  0  0  0  0  0
   31.7040   29.7380   47.2160 H   0  0  0  0  0  0  0  0  0  0  0  0
   31.3200   29.0850   45.2600 C   0  0  0  0  0  0  0  0  0  0  0  0
   30.3150   29.4700   45.2740 H   0  0  0  0  0  0  0  0  0  0  0  0
   31.8720   28.4290   44.1700 C   0  0  0  0  0  3  0  0  0  0  0  0
   33.1750   27.9630   44.2360 C   0  0  0  0  0  3  0  0  0  0  0  0
   33.8950   28.1490   45.3600 N   0  0  0  0  0  0  0  0  0  0  0  0
  2  7  1  0  0  0  0
  2  1  1  0  0  0  0
  3  2  2  0  0  0  0
  4  5  2  0  0  0  0
  4  3  1  0  0  0  0
  5  6  1  0  0  0  0
  6  9  1  0  0  0  0
  6  7  2  0  0  0  0
  7 10  1  0  0  0  0
  8  4  1  0  0  0  0
 11 16  1  0  0  0  0
 11 17  1  0  0  0  0
 12 18  1  0  0  0  0
 12 11  2  0  0  0  0
 13 14  2  0  0  0  0
 13 12  1  0  0  0  0
 14 15  1  0  0  0  0
 15  3  1  0  0  0  0
 15 16  2  0  0  0  0
 19 13  1  0  0  0  0
 20  5  1  0  0  0  0
 21 20  1  0  0  0  0
 21 22  1  0  0  0  0
 23 24  1  0  0  0  0
 23 21  2  0  0  0  0
 25 26  2  0  0  0  0
 25 23  1  0  0  0  0
 26 27  1  0  0  0  0
 27 20  2  0  0  0  0
M  END
>  <minimizedAffinity>
-5.80041647

>  <minimizedRMSD>
0.493030936

$$$$
