
 OpenBabel03272506193D

 33 35  0  0  0  0  0  0  0  0999 V2000
   37.3560   27.0040   33.6460 C   0  0  0  0  0  0  0  0  0  0  0  0
   37.5470   26.9020   35.1470 C   0  0  0  0  0  0  0  0  0  0  0  0
   38.9510   27.2110   35.5770 C   0  0  0  0  0  0  0  0  0  0  0  0
   39.9540   26.3270   34.8670 C   0  0  0  0  0  0  0  0  0  0  0  0
   39.7260   26.2540   33.3890 C   0  0  0  0  0  0  0  0  0  0  0  0
   38.6380   27.1880   32.9090 C   0  0  0  0  0  0  0  0  0  0  0  0
   36.8360   26.1080   33.2710 H   0  0  0  0  0  0  0  0  0  0  0  0
   36.8930   27.6520   35.6820 H   0  0  0  0  0  0  0  0  0  0  0  0
   37.2450   25.8870   35.4800 H   0  0  0  0  0  0  0  0  0  0  0  0
   39.0290   27.0110   36.6510 H   0  0  0  0  0  0  0  0  0  0  0  0
   39.1860   28.2520   35.2830 H   0  0  0  0  0  0  0  0  0  0  0  0
   39.8990   25.2610   35.2330 H   0  0  0  0  0  0  0  0  0  0  0  0
   40.9670   26.6660   35.1510 H   0  0  0  0  0  0  0  0  0  0  0  0
   39.5870   25.2240   32.9930 H   0  0  0  0  0  0  0  0  0  0  0  0
   40.6730   26.6360   32.9060 H   0  0  0  0  0  0  0  0  0  0  0  0
   38.5050   27.0370   31.8400 H   0  0  0  0  0  0  0  0  0  0  0  0
   39.0220   28.2300   33.0890 H   0  0  0  0  0  0  0  0  0  0  0  0
   36.5010   28.1900   33.3340 C   0  0  0  0  0  0  0  0  0  0  0  0
   35.9800   28.8890   34.4480 C   0  0  0  0  0  0  0  0  0  0  0  0
   35.1740   29.9960   34.1840 C   0  0  0  0  0  0  0  0  0  0  0  0
   34.9230   30.3570   32.8750 N   0  0  0  0  0  0  0  0  0  0  0  0
   35.4540   29.6440   31.8340 C   0  0  0  0  0  0  0  0  0  0  0  0
   36.2240   28.5860   32.0690 N   0  0  0  0  0  0  0  0  0  0  0  0
   36.1350   28.6600   35.4710 H   0  0  0  0  0  0  0  0  0  0  0  0
   35.2100   29.9910   30.8390 H   0  0  0  0  0  0  0  0  0  0  0  0
   34.5940   30.7760   35.2730 C   0  0  0  0  0  0  0  0  0  0  0  0
   35.4040   31.6210   36.0000 C   0  0  0  0  0  0  0  0  0  0  0  0
   36.4600   31.7500   35.8180 H   0  0  0  0  0  0  0  0  0  0  0  0
   34.7390   32.3150   37.0140 C   0  0  0  0  0  0  0  0  0  0  0  0
   35.3270   32.9940   37.6180 H   0  0  0  0  0  0  0  0  0  0  0  0
   33.3900   32.1620   37.2600 C   0  0  0  0  0  3  0  0  0  0  0  0
   32.6380   31.2960   36.4900 C   0  0  0  0  0  3  0  0  0  0  0  0
   33.2780   30.6290   35.5120 N   0  0  0  0  0  0  0  0  0  0  0  0
  1  2  1  0  0  0  0
  2  9  1  0  0  0  0
  2  3  1  0  0  0  0
  2  8  1  0  0  0  0
  3 10  1  0  0  0  0
  4 13  1  0  0  0  0
  4 12  1  0  0  0  0
  4  3  1  0  0  0  0
  5  4  1  0  0  0  0
  6 17  1  0  0  0  0
  6  5  1  0  0  0  0
  6  1  1  0  0  0  0
  7  1  1  0  0  0  0
 11  3  1  0  0  0  0
 14  5  1  0  0  0  0
 15  5  1  0  0  0  0
 16  6  1  0  0  0  0
 18  1  1  0  0  0  0
 18 19  1  0  0  0  0
 19 24  1  0  0  0  0
 20 19  2  0  0  0  0
 20 26  1  0  0  0  0
 21 20  1  0  0  0  0
 22 23  1  0  0  0  0
 22 21  2  0  0  0  0
 23 18  2  0  0  0  0
 25 22  1  0  0  0  0
 26 33  2  0  0  0  0
 26 27  1  0  0  0  0
 27 29  2  0  0  0  0
 28 27  1  0  0  0  0
 29 31  1  0  0  0  0
 29 30  1  0  0  0  0
 32 31  2  0  0  0  0
 33 32  1  0  0  0  0
M  END
>  <minimizedAffinity>
-5.39601946

$$$$

 OpenBabel03272506193D

 33 35  0  0  0  0  0  0  0  0999 V2000
   37.0150   21.6850   31.6350 C   0  0  0  0  0  0  0  0  0  0  0  0
   35.5110   21.7630   31.4600 C   0  0  0  0  0  0  0  0  0  0  0  0
   34.7790   20.7140   32.2440 C   0  0  0  0  0  0  0  0  0  0  0  0
   35.2670   19.3230   31.8980 C   0  0  0  0  0  0  0  0  0  0  0  0
   36.7600   19.2120   31.8950 C   0  0  0  0  0  0  0  0  0  0  0  0
   37.4510   20.4680   32.3780 C   0  0  0  0  0  0  0  0  0  0  0  0
   37.5100   21.7170   30.6510 H   0  0  0  0  0  0  0  0  0  0  0  0
   35.1190   22.7540   31.8370 H   0  0  0  0  0  0  0  0  0  0  0  0
   35.2690   21.6900   30.3790 H   0  0  0  0  0  0  0  0  0  0  0  0
   33.7170   20.7710   31.9800 H   0  0  0  0  0  0  0  0  0  0  0  0
   34.9960   20.8650   33.3180 H   0  0  0  0  0  0  0  0  0  0  0  0
   34.9400   19.0160   30.8620 H   0  0  0  0  0  0  0  0  0  0  0  0
   34.7620   18.6080   32.5720 H   0  0  0  0  0  0  0  0  0  0  0  0
   37.1950   18.8460   30.9390 H   0  0  0  0  0  0  0  0  0  0  0  0
   37.0170   18.4240   32.6620 H   0  0  0  0  0  0  0  0  0  0  0  0
   38.5250   20.3200   32.2980 H   0  0  0  0  0  0  0  0  0  0  0  0
   37.1720   20.5780   33.4620 H   0  0  0  0  0  0  0  0  0  0  0  0
   37.4860   22.8660   32.4210 C   0  0  0  0  0  0  0  0  0  0  0  0
   37.7650   22.6300   33.7870 C   0  0  0  0  0  0  0  0  0  0  0  0
   38.1990   23.7170   34.5440 C   0  0  0  0  0  0  0  0  0  0  0  0
   38.3370   24.9520   33.9420 N   0  0  0  0  0  0  0  0  0  0  0  0
   38.0530   25.1250   32.6150 C   0  0  0  0  0  0  0  0  0  0  0  0
   37.6380   24.0980   31.8790 N   0  0  0  0  0  0  0  0  0  0  0  0
   37.6760   21.7090   34.3030 H   0  0  0  0  0  0  0  0  0  0  0  0
   38.1870   26.1220   32.2190 H   0  0  0  0  0  0  0  0  0  0  0  0
   38.5100   23.5650   35.9620 C   0  0  0  0  0  0  0  0  0  0  0  0
   39.6430   22.8720   36.3310 C   0  0  0  0  0  0  0  0  0  0  0  0
   40.3320   22.4240   35.6310 H   0  0  0  0  0  0  0  0  0  0  0  0
   39.8370   22.7930   37.7120 C   0  0  0  0  0  0  0  0  0  0  0  0
   40.7120   22.2590   38.0610 H   0  0  0  0  0  0  0  0  0  0  0  0
   38.9670   23.3600   38.6210 C   0  0  0  0  0  3  0  0  0  0  0  0
   37.8490   24.0410   38.1790 C   0  0  0  0  0  3  0  0  0  0  0  0
   37.6630   24.1190   36.8480 N   0  0  0  0  0  0  0  0  0  0  0  0
  1  6  1  0  0  0  0
  1 18  1  0  0  0  0
  2  1  1  0  0  0  0
  2  8  1  0  0  0  0
  2  3  1  0  0  0  0
  3 11  1  0  0  0  0
  4  3  1  0  0  0  0
  4 13  1  0  0  0  0
  5  4  1  0  0  0  0
  5  6  1  0  0  0  0
  5 15  1  0  0  0  0
  6 17  1  0  0  0  0
  7  1  1  0  0  0  0
  9  2  1  0  0  0  0
 10  3  1  0  0  0  0
 12  4  1  0  0  0  0
 14  5  1  0  0  0  0
 16  6  1  0  0  0  0
 18 19  1  0  0  0  0
 19 24  1  0  0  0  0
 19 20  2  0  0  0  0
 20 26  1  0  0  0  0
 21 20  1  0  0  0  0
 22 21  2  0  0  0  0
 23 18  2  0  0  0  0
 23 22  1  0  0  0  0
 25 22  1  0  0  0  0
 26 27  2  0  0  0  0
 26 33  1  0  0  0  0
 27 29  1  0  0  0  0
 28 27  1  0  0  0  0
 29 30  1  0  0  0  0
 29 31  2  0  0  0  0
 32 31  1  0  0  0  0
 33 32  2  0  0  0  0
M  END
>  <minimizedAffinity>
-5.19794273

$$$$

 OpenBabel03272506193D

 33 35  0  0  0  0  0  0  0  0999 V2000
   37.5500   27.0510   33.3050 C   0  0  0  0  0  0  0  0  0  0  0  0
   38.9780   27.0740   32.7940 C   0  0  0  0  0  0  0  0  0  0  0  0
   39.9380   26.3850   33.7190 C   0  0  0  0  0  0  0  0  0  0  0  0
   39.8790   26.9700   35.1140 C   0  0  0  0  0  0  0  0  0  0  0  0
   38.4800   27.1260   35.6240 C   0  0  0  0  0  0  0  0  0  0  0  0
   37.4410   26.5330   34.6990 C   0  0  0  0  0  0  0  0  0  0  0  0
   37.1150   28.0620   33.2490 H   0  0  0  0  0  0  0  0  0  0  0  0
   39.0550   26.5250   31.8100 H   0  0  0  0  0  0  0  0  0  0  0  0
   39.2820   28.1280   32.6220 H   0  0  0  0  0  0  0  0  0  0  0  0
   40.9510   26.5390   33.3330 H   0  0  0  0  0  0  0  0  0  0  0  0
   39.6350   25.3240   33.8100 H   0  0  0  0  0  0  0  0  0  0  0  0
   40.3300   28.0040   35.1480 H   0  0  0  0  0  0  0  0  0  0  0  0
   40.5330   26.3610   35.7660 H   0  0  0  0  0  0  0  0  0  0  0  0
   38.2130   28.1600   35.9330 H   0  0  0  0  0  0  0  0  0  0  0  0
   38.4190   26.5060   36.5660 H   0  0  0  0  0  0  0  0  0  0  0  0
   36.4570   26.7320   35.1180 H   0  0  0  0  0  0  0  0  0  0  0  0
   37.6240   25.4240   34.6960 H   0  0  0  0  0  0  0  0  0  0  0  0
   36.7280   26.1510   32.4410 C   0  0  0  0  0  0  0  0  0  0  0  0
   37.0220   24.7700   32.5280 C   0  0  0  0  0  0  0  0  0  0  0  0
   36.2730   23.9090   31.7270 C   0  0  0  0  0  0  0  0  0  0  0  0
   35.2960   24.4280   30.9000 N   0  0  0  0  0  0  0  0  0  0  0  0
   35.0540   25.7740   30.8550 C   0  0  0  0  0  0  0  0  0  0  0  0
   35.7590   26.6080   31.6130 N   0  0  0  0  0  0  0  0  0  0  0  0
   37.7570   24.3140   33.1390 H   0  0  0  0  0  0  0  0  0  0  0  0
   34.2720   26.1000   30.1820 H   0  0  0  0  0  0  0  0  0  0  0  0
   36.5080   22.4690   31.7520 C   0  0  0  0  0  0  0  0  0  0  0  0
   35.5790   21.6260   31.1800 C   0  0  0  0  0  0  0  0  0  0  0  0
   34.6710   21.9630   30.7040 H   0  0  0  0  0  0  0  0  0  0  0  0
   35.9110   20.2720   31.2650 C   0  0  0  0  0  0  0  0  0  0  0  0
   35.2170   19.5630   30.8310 H   0  0  0  0  0  0  0  0  0  0  0  0
   37.0680   19.8250   31.8690 C   0  0  0  0  0  3  0  0  0  0  0  0
   37.9550   20.7270   32.4230 C   0  0  0  0  0  3  0  0  0  0  0  0
   37.6360   22.0320   32.3410 N   0  0  0  0  0  0  0  0  0  0  0  0
  1  6  1  0  0  0  0
  2  1  1  0  0  0  0
  2  3  1  0  0  0  0
  3 11  1  0  0  0  0
  3  4  1  0  0  0  0
  4 12  1  0  0  0  0
  4  5  1  0  0  0  0
  4 13  1  0  0  0  0
  5 14  1  0  0  0  0
  5 15  1  0  0  0  0
  6 16  1  0  0  0  0
  6  5  1  0  0  0  0
  7  1  1  0  0  0  0
  8  2  1  0  0  0  0
  9  2  1  0  0  0  0
 10  3  1  0  0  0  0
 17  6  1  0  0  0  0
 18 19  1  0  0  0  0
 18  1  1  0  0  0  0
 19 24  1  0  0  0  0
 20 26  1  0  0  0  0
 20 19  2  0  0  0  0
 21 20  1  0  0  0  0
 22 21  2  0  0  0  0
 22 23  1  0  0  0  0
 23 18  2  0  0  0  0
 25 22  1  0  0  0  0
 26 33  1  0  0  0  0
 27 29  1  0  0  0  0
 27 26  2  0  0  0  0
 28 27  1  0  0  0  0
 29 31  2  0  0  0  0
 30 29  1  0  0  0  0
 31 32  1  0  0  0  0
 33 32  2  0  0  0  0
M  END
>  <minimizedAffinity>
-5.1842165

$$$$

 OpenBabel03272506193D

 33 35  0  0  0  0  0  0  0  0999 V2000
   35.7660   21.6190   31.1820 C   0  0  0  0  0  0  0  0  0  0  0  0
   35.1000   21.5570   32.5420 C   0  0  0  0  0  0  0  0  0  0  0  0
   35.5710   20.3970   33.3690 C   0  0  0  0  0  0  0  0  0  0  0  0
   35.3790   19.0840   32.6400 C   0  0  0  0  0  0  0  0  0  0  0  0
   35.8740   19.1230   31.2270 C   0  0  0  0  0  0  0  0  0  0  0  0
   36.5860   20.4110   30.8820 C   0  0  0  0  0  0  0  0  0  0  0  0
   35.0060   21.7570   30.3970 H   0  0  0  0  0  0  0  0  0  0  0  0
   35.3450   22.4800   33.1460 H   0  0  0  0  0  0  0  0  0  0  0  0
   34.0000   21.5230   32.4030 H   0  0  0  0  0  0  0  0  0  0  0  0
   34.9690   20.3640   34.2830 H   0  0  0  0  0  0  0  0  0  0  0  0
   36.6600   20.5070   33.5370 H   0  0  0  0  0  0  0  0  0  0  0  0
   34.2880   18.8060   32.5700 H   0  0  0  0  0  0  0  0  0  0  0  0
   35.8300   18.2840   33.2550 H   0  0  0  0  0  0  0  0  0  0  0  0
   35.1110   18.8570   30.4630 H   0  0  0  0  0  0  0  0  0  0  0  0
   36.6660   18.3210   31.1500 H   0  0  0  0  0  0  0  0  0  0  0  0
   36.8680   20.3750   29.8310 H   0  0  0  0  0  0  0  0  0  0  0  0
   37.5170   20.4300   31.5130 H   0  0  0  0  0  0  0  0  0  0  0  0
   36.6900   22.7940   31.1340 C   0  0  0  0  0  0  0  0  0  0  0  0
   36.2370   23.9660   31.7850 C   0  0  0  0  0  0  0  0  0  0  0  0
   37.0770   25.0770   31.7490 C   0  0  0  0  0  0  0  0  0  0  0  0
   38.2900   24.9920   31.0940 N   0  0  0  0  0  0  0  0  0  0  0  0
   38.6790   23.8320   30.4800 C   0  0  0  0  0  0  0  0  0  0  0  0
   37.8890   22.7630   30.5060 N   0  0  0  0  0  0  0  0  0  0  0  0
   35.3200   24.0920   32.2990 H   0  0  0  0  0  0  0  0  0  0  0  0
   39.6430   23.8460   29.9900 H   0  0  0  0  0  0  0  0  0  0  0  0
   36.6910   26.3280   32.3940 C   0  0  0  0  0  0  0  0  0  0  0  0
   37.1580   26.6020   33.6620 C   0  0  0  0  0  0  0  0  0  0  0  0
   37.8020   25.9440   34.2240 H   0  0  0  0  0  0  0  0  0  0  0  0
   36.7230   27.8270   34.1760 C   0  0  0  0  0  0  0  0  0  0  0  0
   37.0580   28.0950   35.1700 H   0  0  0  0  0  0  0  0  0  0  0  0
   35.8990   28.6800   33.4710 C   0  0  0  0  0  3  0  0  0  0  0  0
   35.4690   28.3400   32.2030 C   0  0  0  0  0  3  0  0  0  0  0  0
   35.8890   27.1620   31.7070 N   0  0  0  0  0  0  0  0  0  0  0  0
  1  2  1  0  0  0  0
  2  8  1  0  0  0  0
  2  3  1  0  0  0  0
  3 11  1  0  0  0  0
  3 10  1  0  0  0  0
  4 13  1  0  0  0  0
  4  3  1  0  0  0  0
  5  4  1  0  0  0  0
  6  1  1  0  0  0  0
  6  5  1  0  0  0  0
  6 17  1  0  0  0  0
  7  1  1  0  0  0  0
  9  2  1  0  0  0  0
 12  4  1  0  0  0  0
 14  5  1  0  0  0  0
 15  5  1  0  0  0  0
 16  6  1  0  0  0  0
 18  1  1  0  0  0  0
 18 19  1  0  0  0  0
 19 24  1  0  0  0  0
 20 19  2  0  0  0  0
 20 26  1  0  0  0  0
 21 20  1  0  0  0  0
 22 23  1  0  0  0  0
 22 21  2  0  0  0  0
 23 18  2  0  0  0  0
 25 22  1  0  0  0  0
 26 27  1  0  0  0  0
 27 29  2  0  0  0  0
 27 28  1  0  0  0  0
 29 30  1  0  0  0  0
 31 29  1  0  0  0  0
 32 31  2  0  0  0  0
 33 32  1  0  0  0  0
 33 26  2  0  0  0  0
M  END
>  <minimizedAffinity>
-5.17989779

$$$$

 OpenBabel03272506193D

 33 35  0  0  0  0  0  0  0  0999 V2000
   37.8330   27.4380   32.6250 C   0  0  0  0  0  0  0  0  0  0  0  0
   36.6170   28.0830   33.2590 C   0  0  0  0  0  0  0  0  0  0  0  0
   35.5690   28.4630   32.2550 C   0  0  0  0  0  0  0  0  0  0  0  0
   36.1340   29.3690   31.1820 C   0  0  0  0  0  0  0  0  0  0  0  0
   37.4280   28.8720   30.6180 C   0  0  0  0  0  0  0  0  0  0  0  0
   37.8160   27.5040   31.1360 C   0  0  0  0  0  0  0  0  0  0  0  0
   38.7520   27.9100   33.0070 H   0  0  0  0  0  0  0  0  0  0  0  0
   36.1120   27.3630   33.9690 H   0  0  0  0  0  0  0  0  0  0  0  0
   36.9420   28.9670   33.8450 H   0  0  0  0  0  0  0  0  0  0  0  0
   34.7800   29.0130   32.7780 H   0  0  0  0  0  0  0  0  0  0  0  0
   35.2270   27.5430   31.7410 H   0  0  0  0  0  0  0  0  0  0  0  0
   36.3570   30.3990   31.5860 H   0  0  0  0  0  0  0  0  0  0  0  0
   35.3450   29.5330   30.4250 H   0  0  0  0  0  0  0  0  0  0  0  0
   38.2720   29.5930   30.6910 H   0  0  0  0  0  0  0  0  0  0  0  0
   37.2530   28.7260   29.5120 H   0  0  0  0  0  0  0  0  0  0  0  0
   38.7850   27.2420   30.7170 H   0  0  0  0  0  0  0  0  0  0  0  0
   37.0380   26.7930   30.7430 H   0  0  0  0  0  0  0  0  0  0  0  0
   37.8780   25.9900   32.9950 C   0  0  0  0  0  0  0  0  0  0  0  0
   38.1650   25.7050   34.3500 C   0  0  0  0  0  0  0  0  0  0  0  0
   38.2190   24.3610   34.7190 C   0  0  0  0  0  0  0  0  0  0  0  0
   37.9940   23.3860   33.7680 N   0  0  0  0  0  0  0  0  0  0  0  0
   37.7200   23.7190   32.4690 C   0  0  0  0  0  0  0  0  0  0  0  0
   37.6650   24.9950   32.1010 N   0  0  0  0  0  0  0  0  0  0  0  0
   38.3480   26.4070   35.1220 H   0  0  0  0  0  0  0  0  0  0  0  0
   37.5560   22.8960   31.7860 H   0  0  0  0  0  0  0  0  0  0  0  0
   38.5080   23.9750   36.0970 C   0  0  0  0  0  0  0  0  0  0  0  0
   39.5800   23.1460   36.3500 C   0  0  0  0  0  0  0  0  0  0  0  0
   40.2340   22.7530   35.5870 H   0  0  0  0  0  0  0  0  0  0  0  0
   39.7590   22.8450   37.7030 C   0  0  0  0  0  0  0  0  0  0  0  0
   40.5860   22.1960   37.9620 H   0  0  0  0  0  0  0  0  0  0  0  0
   38.9330   23.3380   38.6920 C   0  0  0  0  0  3  0  0  0  0  0  0
   37.8750   24.1660   38.3640 C   0  0  0  0  0  3  0  0  0  0  0  0
   37.7040   24.4560   37.0610 N   0  0  0  0  0  0  0  0  0  0  0  0
  1 18  1  0  0  0  0
  1  7  1  0  0  0  0
  1  2  1  0  0  0  0
  2  9  1  0  0  0  0
  2  8  1  0  0  0  0
  3 10  1  0  0  0  0
  3  2  1  0  0  0  0
  4 12  1  0  0  0  0
  4  3  1  0  0  0  0
  5 14  1  0  0  0  0
  5  6  1  0  0  0  0
  5  4  1  0  0  0  0
  6  1  1  0  0  0  0
 11  3  1  0  0  0  0
 13  4  1  0  0  0  0
 15  5  1  0  0  0  0
 16  6  1  0  0  0  0
 17  6  1  0  0  0  0
 18 19  1  0  0  0  0
 19 20  2  0  0  0  0
 19 24  1  0  0  0  0
 20 26  1  0  0  0  0
 21 20  1  0  0  0  0
 22 21  2  0  0  0  0
 23 22  1  0  0  0  0
 23 18  2  0  0  0  0
 25 22  1  0  0  0  0
 26 27  2  0  0  0  0
 26 33  1  0  0  0  0
 27 29  1  0  0  0  0
 28 27  1  0  0  0  0
 29 30  1  0  0  0  0
 29 31  2  0  0  0  0
 32 31  1  0  0  0  0
 33 32  2  0  0  0  0
M  END
>  <minimizedAffinity>
-5.14111853

$$$$

 OpenBabel03272506193D

 33 35  0  0  0  0  0  0  0  0999 V2000
   35.8020   22.1220   31.2440 C   0  0  0  0  0  0  0  0  0  0  0  0
   34.8760   21.5330   32.2900 C   0  0  0  0  0  0  0  0  0  0  0  0
   35.5960   20.6680   33.2820 C   0  0  0  0  0  0  0  0  0  0  0  0
   36.3680   19.5620   32.5950 C   0  0  0  0  0  0  0  0  0  0  0  0
   37.1870   20.0510   31.4410 C   0  0  0  0  0  0  0  0  0  0  0  0
   37.1800   21.5570   31.3030 C   0  0  0  0  0  0  0  0  0  0  0  0
   35.3790   21.9670   30.2380 H   0  0  0  0  0  0  0  0  0  0  0  0
   34.3920   22.3540   32.8970 H   0  0  0  0  0  0  0  0  0  0  0  0
   34.0710   20.9650   31.7810 H   0  0  0  0  0  0  0  0  0  0  0  0
   34.8480   20.2010   33.9320 H   0  0  0  0  0  0  0  0  0  0  0  0
   36.3430   21.2900   33.8120 H   0  0  0  0  0  0  0  0  0  0  0  0
   35.6760   18.7810   32.1640 H   0  0  0  0  0  0  0  0  0  0  0  0
   36.9490   19.0230   33.3650 H   0  0  0  0  0  0  0  0  0  0  0  0
   36.9680   19.5490   30.4730 H   0  0  0  0  0  0  0  0  0  0  0  0
   38.2580   19.7850   31.6810 H   0  0  0  0  0  0  0  0  0  0  0  0
   37.7540   21.8220   30.4180 H   0  0  0  0  0  0  0  0  0  0  0  0
   37.7030   21.9540   32.2160 H   0  0  0  0  0  0  0  0  0  0  0  0
   35.9260   23.5960   31.4630 C   0  0  0  0  0  0  0  0  0  0  0  0
   36.8990   24.0020   32.4060 C   0  0  0  0  0  0  0  0  0  0  0  0
   37.0310   25.3710   32.6340 C   0  0  0  0  0  0  0  0  0  0  0  0
   36.2240   26.2550   31.9440 N   0  0  0  0  0  0  0  0  0  0  0  0
   35.2980   25.8070   31.0420 C   0  0  0  0  0  0  0  0  0  0  0  0
   35.1600   24.5040   30.8130 N   0  0  0  0  0  0  0  0  0  0  0  0
   37.5430   23.3730   32.9650 H   0  0  0  0  0  0  0  0  0  0  0  0
   34.7060   26.5620   30.5440 H   0  0  0  0  0  0  0  0  0  0  0  0
   38.0090   25.8800   33.5900 C   0  0  0  0  0  0  0  0  0  0  0  0
   37.5870   26.7120   34.6040 C   0  0  0  0  0  0  0  0  0  0  0  0
   36.5630   27.0220   34.7450 H   0  0  0  0  0  0  0  0  0  0  0  0
   38.6100   27.1350   35.4560 C   0  0  0  0  0  0  0  0  0  0  0  0
   38.3370   27.7920   36.2720 H   0  0  0  0  0  0  0  0  0  0  0  0
   39.9240   26.7500   35.2910 C   0  0  0  0  0  3  0  0  0  0  0  0
   40.2760   25.9120   34.2490 C   0  0  0  0  0  3  0  0  0  0  0  0
   39.2910   25.5040   33.4300 N   0  0  0  0  0  0  0  0  0  0  0  0
  1  6  1  0  0  0  0
  1 18  1  0  0  0  0
  1  2  1  0  0  0  0
  2  8  1  0  0  0  0
  2  3  1  0  0  0  0
  3 11  1  0  0  0  0
  3 10  1  0  0  0  0
  4  3  1  0  0  0  0
  4 13  1  0  0  0  0
  5 15  1  0  0  0  0
  5  4  1  0  0  0  0
  6  5  1  0  0  0  0
  6 17  1  0  0  0  0
  7  1  1  0  0  0  0
  9  2  1  0  0  0  0
 12  4  1  0  0  0  0
 14  5  1  0  0  0  0
 16  6  1  0  0  0  0
 18 19  1  0  0  0  0
 19 20  2  0  0  0  0
 19 24  1  0  0  0  0
 20 26  1  0  0  0  0
 21 20  1  0  0  0  0
 22 21  2  0  0  0  0
 23 22  1  0  0  0  0
 23 18  2  0  0  0  0
 25 22  1  0  0  0  0
 26 27  1  0  0  0  0
 27 28  1  0  0  0  0
 27 29  2  0  0  0  0
 29 30  1  0  0  0  0
 31 29  1  0  0  0  0
 32 31  2  0  0  0  0
 33 26  2  0  0  0  0
 33 32  1  0  0  0  0
M  END
>  <minimizedAffinity>
-5.12903833

$$$$

 OpenBabel03272506193D

 33 35  0  0  0  0  0  0  0  0999 V2000
   34.7040   30.8390   33.9750 C   0  0  0  0  0  0  0  0  0  0  0  0
   35.7240   31.8140   34.5280 C   0  0  0  0  0  0  0  0  0  0  0  0
   35.8300   31.7600   36.0240 C   0  0  0  0  0  0  0  0  0  0  0  0
   34.4870   31.9890   36.6830 C   0  0  0  0  0  0  0  0  0  0  0  0
   33.3910   31.1690   36.0760 C   0  0  0  0  0  0  0  0  0  0  0  0
   33.8880   30.1870   35.0390 C   0  0  0  0  0  0  0  0  0  0  0  0
   34.0410   31.3530   33.2610 H   0  0  0  0  0  0  0  0  0  0  0  0
   36.7570   31.5700   34.1400 H   0  0  0  0  0  0  0  0  0  0  0  0
   35.4650   32.8380   34.1870 H   0  0  0  0  0  0  0  0  0  0  0  0
   36.5030   32.5610   36.3460 H   0  0  0  0  0  0  0  0  0  0  0  0
   36.1530   30.7420   36.3140 H   0  0  0  0  0  0  0  0  0  0  0  0
   34.1530   33.0620   36.5790 H   0  0  0  0  0  0  0  0  0  0  0  0
   34.6120   31.8420   37.7710 H   0  0  0  0  0  0  0  0  0  0  0  0
   32.5250   31.7590   35.7020 H   0  0  0  0  0  0  0  0  0  0  0  0
   32.9800   30.5290   36.9110 H   0  0  0  0  0  0  0  0  0  0  0  0
   33.0280   29.6710   34.6170 H   0  0  0  0  0  0  0  0  0  0  0  0
   34.5270   29.4470   35.5940 H   0  0  0  0  0  0  0  0  0  0  0  0
   35.4090   29.7470   33.2380 C   0  0  0  0  0  0  0  0  0  0  0  0
   36.0120   28.7480   34.0380 C   0  0  0  0  0  0  0  0  0  0  0  0
   36.6820   27.7210   33.3740 C   0  0  0  0  0  0  0  0  0  0  0  0
   36.7280   27.7200   31.9940 N   0  0  0  0  0  0  0  0  0  0  0  0
   36.1270   28.7130   31.2690 C   0  0  0  0  0  0  0  0  0  0  0  0
   35.4840   29.6990   31.8860 N   0  0  0  0  0  0  0  0  0  0  0  0
   36.0120   28.6960   35.0960 H   0  0  0  0  0  0  0  0  0  0  0  0
   36.2090   28.6400   30.1930 H   0  0  0  0  0  0  0  0  0  0  0  0
   37.3330   26.6480   34.1200 C   0  0  0  0  0  0  0  0  0  0  0  0
   37.7250   26.8770   35.4210 C   0  0  0  0  0  0  0  0  0  0  0  0
   37.5820   27.8120   35.9400 H   0  0  0  0  0  0  0  0  0  0  0  0
   38.3360   25.7780   36.0320 C   0  0  0  0  0  0  0  0  0  0  0  0
   38.6650   25.9000   37.0570 H   0  0  0  0  0  0  0  0  0  0  0  0
   38.5270   24.5760   35.3840 C   0  0  0  0  0  3  0  0  0  0  0  0
   38.1090   24.4180   34.0770 C   0  0  0  0  0  3  0  0  0  0  0  0
   37.5190   25.4750   33.4880 N   0  0  0  0  0  0  0  0  0  0  0  0
  1  2  1  0  0  0  0
  1  6  1  0  0  0  0
  2  3  1  0  0  0  0
  3 11  1  0  0  0  0
  3 10  1  0  0  0  0
  3  4  1  0  0  0  0
  4 13  1  0  0  0  0
  5  4  1  0  0  0  0
  5 15  1  0  0  0  0
  6 17  1  0  0  0  0
  6  5  1  0  0  0  0
  7  1  1  0  0  0  0
  8  2  1  0  0  0  0
  9  2  1  0  0  0  0
 12  4  1  0  0  0  0
 14  5  1  0  0  0  0
 16  6  1  0  0  0  0
 18  1  1  0  0  0  0
 18 19  1  0  0  0  0
 19 24  1  0  0  0  0
 20 19  2  0  0  0  0
 20 26  1  0  0  0  0
 21 20  1  0  0  0  0
 22 23  1  0  0  0  0
 22 21  2  0  0  0  0
 23 18  2  0  0  0  0
 25 22  1  0  0  0  0
 26 27  1  0  0  0  0
 27 28  1  0  0  0  0
 27 29  2  0  0  0  0
 29 30  1  0  0  0  0
 31 29  1  0  0  0  0
 32 31  2  0  0  0  0
 33 32  1  0  0  0  0
 33 26  2  0  0  0  0
M  END
>  <minimizedAffinity>
-5.08999634

$$$$

 OpenBabel03272506193D

 33 35  0  0  0  0  0  0  0  0999 V2000
   39.0030   24.2440   35.7340 C   0  0  0  0  0  0  0  0  0  0  0  0
   40.4140   23.7270   35.5360 C   0  0  0  0  0  0  0  0  0  0  0  0
   40.6720   22.4440   36.2710 C   0  0  0  0  0  0  0  0  0  0  0  0
   40.3760   22.5840   37.7490 C   0  0  0  0  0  0  0  0  0  0  0  0
   39.0570   23.2380   38.0210 C   0  0  0  0  0  0  0  0  0  0  0  0
   38.2450   23.4840   36.7690 C   0  0  0  0  0  0  0  0  0  0  0  0
   39.0280   25.3130   36.0010 H   0  0  0  0  0  0  0  0  0  0  0  0
   40.6020   23.4960   34.4460 H   0  0  0  0  0  0  0  0  0  0  0  0
   41.1330   24.5130   35.8480 H   0  0  0  0  0  0  0  0  0  0  0  0
   41.7340   22.1990   36.1640 H   0  0  0  0  0  0  0  0  0  0  0  0
   39.9790   21.6730   35.8830 H   0  0  0  0  0  0  0  0  0  0  0  0
   41.1440   23.2290   38.2660 H   0  0  0  0  0  0  0  0  0  0  0  0
   40.4910   21.5880   38.2140 H   0  0  0  0  0  0  0  0  0  0  0  0
   39.1150   24.1480   38.6590 H   0  0  0  0  0  0  0  0  0  0  0  0
   38.4540   22.4920   38.6180 H   0  0  0  0  0  0  0  0  0  0  0  0
   37.3310   24.0020   37.0500 H   0  0  0  0  0  0  0  0  0  0  0  0
   37.9840   22.4680   36.3640 H   0  0  0  0  0  0  0  0  0  0  0  0
   38.2410   24.1130   34.4540 C   0  0  0  0  0  0  0  0  0  0  0  0
   37.7730   22.8150   34.1420 C   0  0  0  0  0  0  0  0  0  0  0  0
   37.0650   22.6640   32.9500 C   0  0  0  0  0  0  0  0  0  0  0  0
   36.8540   23.7630   32.1410 N   0  0  0  0  0  0  0  0  0  0  0  0
   37.3310   24.9980   32.4920 C   0  0  0  0  0  0  0  0  0  0  0  0
   38.0070   25.1580   33.6250 N   0  0  0  0  0  0  0  0  0  0  0  0
   37.9050   21.9360   34.7190 H   0  0  0  0  0  0  0  0  0  0  0  0
   37.1230   25.8070   31.8050 H   0  0  0  0  0  0  0  0  0  0  0  0
   36.5450   21.3610   32.5480 C   0  0  0  0  0  0  0  0  0  0  0  0
   35.9330   20.5620   33.4910 C   0  0  0  0  0  0  0  0  0  0  0  0
   35.8090   20.8370   34.5260 H   0  0  0  0  0  0  0  0  0  0  0  0
   35.4760   19.3410   32.9900 C   0  0  0  0  0  0  0  0  0  0  0  0
   34.9860   18.6710   33.6860 H   0  0  0  0  0  0  0  0  0  0  0  0
   35.6270   18.9730   31.6690 C   0  0  0  0  0  3  0  0  0  0  0  0
   36.2520   19.8250   30.7780 C   0  0  0  0  0  3  0  0  0  0  0  0
   36.6910   21.0020   31.2600 N   0  0  0  0  0  0  0  0  0  0  0  0
  1  7  1  0  0  0  0
  1  6  1  0  0  0  0
  2  1  1  0  0  0  0
  2  9  1  0  0  0  0
  2  3  1  0  0  0  0
  3  4  1  0  0  0  0
  4  5  1  0  0  0  0
  4 13  1  0  0  0  0
  4 12  1  0  0  0  0
  5 15  1  0  0  0  0
  5 14  1  0  0  0  0
  6 16  1  0  0  0  0
  6  5  1  0  0  0  0
  8  2  1  0  0  0  0
 10  3  1  0  0  0  0
 11  3  1  0  0  0  0
 17  6  1  0  0  0  0
 18  1  1  0  0  0  0
 19 18  1  0  0  0  0
 19 24  1  0  0  0  0
 20 19  2  0  0  0  0
 21 22  2  0  0  0  0
 21 20  1  0  0  0  0
 22 23  1  0  0  0  0
 23 18  2  0  0  0  0
 25 22  1  0  0  0  0
 26 20  1  0  0  0  0
 26 27  1  0  0  0  0
 27 28  1  0  0  0  0
 29 27  2  0  0  0  0
 29 30  1  0  0  0  0
 31 29  1  0  0  0  0
 32 33  1  0  0  0  0
 32 31  2  0  0  0  0
 33 26  2  0  0  0  0
M  END
>  <minimizedAffinity>
-5.07545185

$$$$

 OpenBabel03272506193D

 33 35  0  0  0  0  0  0  0  0999 V2000
   38.7440   24.7910   35.9430 C   0  0  0  0  0  0  0  0  0  0  0  0
   39.9310   23.8480   35.9820 C   0  0  0  0  0  0  0  0  0  0  0  0
   39.6780   22.6290   36.8190 C   0  0  0  0  0  0  0  0  0  0  0  0
   39.2660   22.9990   38.2280 C   0  0  0  0  0  0  0  0  0  0  0  0
   38.2000   24.0510   38.2670 C   0  0  0  0  0  0  0  0  0  0  0  0
   37.6660   24.4080   36.8980 C   0  0  0  0  0  0  0  0  0  0  0  0
   39.0750   25.8210   36.1500 H   0  0  0  0  0  0  0  0  0  0  0  0
   40.1660   23.4630   34.9470 H   0  0  0  0  0  0  0  0  0  0  0  0
   40.8190   24.4020   36.3500 H   0  0  0  0  0  0  0  0  0  0  0  0
   40.6110   22.0590   36.8820 H   0  0  0  0  0  0  0  0  0  0  0  0
   38.8270   22.0730   36.3790 H   0  0  0  0  0  0  0  0  0  0  0  0
   40.1310   23.4250   38.8130 H   0  0  0  0  0  0  0  0  0  0  0  0
   39.0010   22.0680   38.7610 H   0  0  0  0  0  0  0  0  0  0  0  0
   38.4670   24.9580   38.8540 H   0  0  0  0  0  0  0  0  0  0  0  0
   37.3240   23.5890   38.8110 H   0  0  0  0  0  0  0  0  0  0  0  0
   36.9370   25.2070   37.0130 H   0  0  0  0  0  0  0  0  0  0  0  0
   37.1460   23.4850   36.5180 H   0  0  0  0  0  0  0  0  0  0  0  0
   38.1400   24.7720   34.5760 C   0  0  0  0  0  0  0  0  0  0  0  0
   37.7910   26.0320   34.0350 C   0  0  0  0  0  0  0  0  0  0  0  0
   37.2190   26.0410   32.7630 C   0  0  0  0  0  0  0  0  0  0  0  0
   37.0230   24.8470   32.0980 N   0  0  0  0  0  0  0  0  0  0  0  0
   37.3800   23.6550   32.6690 C   0  0  0  0  0  0  0  0  0  0  0  0
   37.9260   23.6290   33.8810 N   0  0  0  0  0  0  0  0  0  0  0  0
   37.9150   26.9770   34.4960 H   0  0  0  0  0  0  0  0  0  0  0  0
   37.1930   22.7660   32.0830 H   0  0  0  0  0  0  0  0  0  0  0  0
   36.8280   27.2950   32.1280 C   0  0  0  0  0  0  0  0  0  0  0  0
   36.1980   28.2620   32.8820 C   0  0  0  0  0  0  0  0  0  0  0  0
   35.9690   28.1560   33.9310 H   0  0  0  0  0  0  0  0  0  0  0  0
   35.8720   29.4180   32.1670 C   0  0  0  0  0  0  0  0  0  0  0  0
   35.3750   30.2120   32.7090 H   0  0  0  0  0  0  0  0  0  0  0  0
   36.1580   29.5700   30.8260 C   0  0  0  0  0  3  0  0  0  0  0  0
   36.7920   28.5570   30.1320 C   0  0  0  0  0  3  0  0  0  0  0  0
   37.1070   27.4450   30.8200 N   0  0  0  0  0  0  0  0  0  0  0  0
  1  2  1  0  0  0  0
  1  7  1  0  0  0  0
  1  6  1  0  0  0  0
  2  9  1  0  0  0  0
  2  3  1  0  0  0  0
  3 10  1  0  0  0  0
  3  4  1  0  0  0  0
  4  5  1  0  0  0  0
  4 13  1  0  0  0  0
  4 12  1  0  0  0  0
  5 15  1  0  0  0  0
  5 14  1  0  0  0  0
  6 16  1  0  0  0  0
  6  5  1  0  0  0  0
  8  2  1  0  0  0  0
 11  3  1  0  0  0  0
 17  6  1  0  0  0  0
 18  1  1  0  0  0  0
 19 24  1  0  0  0  0
 19 18  1  0  0  0  0
 20 19  2  0  0  0  0
 21 22  2  0  0  0  0
 21 20  1  0  0  0  0
 22 23  1  0  0  0  0
 23 18  2  0  0  0  0
 25 22  1  0  0  0  0
 26 20  1  0  0  0  0
 26 27  1  0  0  0  0
 27 28  1  0  0  0  0
 29 30  1  0  0  0  0
 29 27  2  0  0  0  0
 31 29  1  0  0  0  0
 32 33  1  0  0  0  0
 32 31  2  0  0  0  0
 33 26  2  0  0  0  0
M  END
>  <minimizedAffinity>
-5.07528257

$$$$
