
 OpenBabel03272506183D

 33 35  0  0  0  0  0  0  0  0999 V2000
   35.4700   30.3030   49.8770 C   0  0  0  0  0  0  0  0  0  0  0  0
   36.4610   31.1500   49.1040 C   0  0  0  0  0  0  0  0  0  0  0  0
   37.8800   30.6990   49.2890 C   0  0  0  0  0  0  0  0  0  0  0  0
   38.2630   30.6630   50.7530 C   0  0  0  0  0  0  0  0  0  0  0  0
   37.2440   29.9750   51.6070 C   0  0  0  0  0  0  0  0  0  0  0  0
   36.1280   29.3410   50.8060 C   0  0  0  0  0  0  0  0  0  0  0  0
   34.7800   30.9510   50.4400 H   0  0  0  0  0  0  0  0  0  0  0  0
   36.2620   31.0800   47.9940 H   0  0  0  0  0  0  0  0  0  0  0  0
   36.3410   32.2110   49.4060 H   0  0  0  0  0  0  0  0  0  0  0  0
   38.5340   31.4210   48.7890 H   0  0  0  0  0  0  0  0  0  0  0  0
   37.9690   29.6610   48.9150 H   0  0  0  0  0  0  0  0  0  0  0  0
   38.3620   31.7020   51.1810 H   0  0  0  0  0  0  0  0  0  0  0  0
   39.2790   30.2340   50.8280 H   0  0  0  0  0  0  0  0  0  0  0  0
   36.8490   30.5920   52.4440 H   0  0  0  0  0  0  0  0  0  0  0  0
   37.7780   29.1100   52.0980 H   0  0  0  0  0  0  0  0  0  0  0  0
   35.4110   28.9090   51.5010 H   0  0  0  0  0  0  0  0  0  0  0  0
   36.6060   28.5170   50.2080 H   0  0  0  0  0  0  0  0  0  0  0  0
   34.6550   29.4930   48.9190 C   0  0  0  0  0  0  0  0  0  0  0  0
   34.2230   30.1650   47.7520 C   0  0  0  0  0  0  0  0  0  0  0  0
   33.4560   29.4340   46.8450 C   0  0  0  0  0  0  0  0  0  0  0  0
   33.1570   28.1130   47.1180 N   0  0  0  0  0  0  0  0  0  0  0  0
   33.6020   27.5130   48.2650 C   0  0  0  0  0  0  0  0  0  0  0  0
   34.3340   28.1960   49.1390 N   0  0  0  0  0  0  0  0  0  0  0  0
   34.4170   31.1720   47.4900 H   0  0  0  0  0  0  0  0  0  0  0  0
   33.3250   26.4770   48.4040 H   0  0  0  0  0  0  0  0  0  0  0  0
   32.9660   30.0460   45.6140 C   0  0  0  0  0  0  0  0  0  0  0  0
   33.3190   29.4920   44.4020 C   0  0  0  0  0  0  0  0  0  0  0  0
   33.9450   28.6190   44.2960 H   0  0  0  0  0  0  0  0  0  0  0  0
   32.7920   30.1630   43.2960 C   0  0  0  0  0  0  0  0  0  0  0  0
   33.0370   29.7720   42.3160 H   0  0  0  0  0  0  0  0  0  0  0  0
   31.9910   31.2800   43.4130 C   0  0  0  0  0  0  0  0  0  0  0  0
   31.6780   31.7810   44.6620 C   0  0  0  0  0  0  0  0  0  0  0  0
   32.1840   31.1350   45.7280 N   0  0  0  0  0  0  0  0  0  0  0  0
  1  7  1  0  0  0  0
  1  6  1  0  0  0  0
  2  3  1  0  0  0  0
  2  9  1  0  0  0  0
  2  1  1  0  0  0  0
  3  4  1  0  0  0  0
  4 13  1  0  0  0  0
  4 12  1  0  0  0  0
  4  5  1  0  0  0  0
  5 15  1  0  0  0  0
  5 14  1  0  0  0  0
  6 16  1  0  0  0  0
  6  5  1  0  0  0  0
  8  2  1  0  0  0  0
 10  3  1  0  0  0  0
 11  3  1  0  0  0  0
 17  6  1  0  0  0  0
 18 23  1  0  0  0  0
 18  1  1  0  0  0  0
 19 18  2  0  0  0  0
 20 21  2  0  0  0  0
 20 19  1  0  0  0  0
 21 22  1  0  0  0  0
 22 25  1  0  0  0  0
 22 23  2  0  0  0  0
 24 19  1  0  0  0  0
 26 33  1  0  0  0  0
 26 20  1  0  0  0  0
 27 26  2  0  0  0  0
 28 27  1  0  0  0  0
 29 31  2  0  0  0  0
 29 27  1  0  0  0  0
 30 29  1  0  0  0  0
 31 32  1  0  0  0  0
 32 33  2  0  0  0  0
M  END
>  <minimizedAffinity>
-5.32841158

>  <minimizedRMSD>
0.320527226

$$$$
