
 OpenBabel03272506283D

 41 44  0  0  0  0  0  0  0  0999 V2000
   37.8450   22.2340   34.2200 C   0  0  0  0  0  0  0  0  0  0  0  0
   36.9410   21.2020   34.3860 C   0  0  0  0  0  0  0  0  0  0  0  0
   35.8550   20.9630   33.5440 C   0  0  0  0  0  0  0  0  0  0  0  0
   35.6610   21.8350   32.4470 C   0  0  0  0  0  0  0  0  0  0  0  0
   36.5730   22.8540   32.3020 C   0  0  0  0  0  0  0  0  0  0  0  0
   37.6330   23.0780   33.1300 C   0  0  0  0  0  0  0  0  0  0  0  0
   37.0590   20.5020   35.2300 H   0  0  0  0  0  0  0  0  0  0  0  0
   35.2020   20.1060   33.7790 H   0  0  0  0  0  0  0  0  0  0  0  0
   34.8050   21.5560   31.8770 H   0  0  0  0  0  0  0  0  0  0  0  0
   36.2520   23.3880   31.4440 H   0  0  0  0  0  0  0  0  0  0  0  0
   40.1850   21.9470   34.7610 C   0  0  0  0  0  0  0  0  0  0  0  0
   38.9020   22.3270   35.1880 C   0  0  0  0  0  0  0  0  0  0  0  0
   38.7530   22.7660   36.5070 C   0  0  0  0  0  0  0  0  0  0  0  0
   39.8430   22.8050   37.3160 N   0  0  0  0  0  0  0  0  0  0  0  0
   41.0790   22.4300   36.8780 C   0  0  0  0  0  0  0  0  0  0  0  0
   41.2440   22.0010   35.5950 N   0  0  0  0  0  0  0  0  0  0  0  0
   40.3390   21.6060   33.7560 H   0  0  0  0  0  0  0  0  0  0  0  0
   41.9160   22.4840   37.5700 H   0  0  0  0  0  0  0  0  0  0  0  0
   37.4550   23.1980   37.1000 C   0  0  0  0  0  0  0  0  0  0  0  0
   36.9740   24.3280   36.4070 F   0  0  0  0  0  0  0  0  0  0  0  0
   36.4790   22.2710   37.1330 F   0  0  0  0  0  0  0  0  0  0  0  0
   37.6640   23.6730   38.3880 F   0  0  0  0  0  0  0  0  0  0  0  0
   38.7870   24.3840   32.9210 S   0  0  0  0  0  0  0  0  0  0  0  0
   36.6210   26.3830   31.9330 Cl  0  0  0  0  0  0  0  0  0  0  0  0
   37.4540   26.6560   33.4470 C   0  0  0  0  0  0  0  0  0  0  0  0
   38.4500   25.8030   33.9250 C   0  0  0  0  0  0  0  0  0  0  0  0
   39.0860   26.0720   35.1000 C   0  0  0  0  0  0  0  0  0  0  0  0
   38.7240   27.2010   35.8100 C   0  0  0  0  0  0  0  0  0  0  0  0
   37.7280   28.0550   35.3350 C   0  0  0  0  0  0  0  0  0  0  0  0
   37.0850   27.7890   34.1470 C   0  0  0  0  0  0  0  0  0  0  0  0
   39.8750   25.5110   35.5290 H   0  0  0  0  0  0  0  0  0  0  0  0
   39.2010   27.4560   36.7530 H   0  0  0  0  0  0  0  0  0  0  0  0
   37.4930   28.9220   35.9370 H   0  0  0  0  0  0  0  0  0  0  0  0
   36.0420   28.6610   33.6220 C   0  0  0  0  0  0  0  0  0  0  0  0
   34.8730   28.9270   34.2790 C   0  0  0  0  0  0  0  0  0  0  0  0
   34.6720   28.4910   35.2350 H   0  0  0  0  0  0  0  0  0  0  0  0
   33.8710   29.7540   33.7920 C   0  0  0  0  0  0  0  0  0  0  0  0
   32.9620   29.9300   34.3560 H   0  0  0  0  0  0  0  0  0  0  0  0
   34.0440   30.3600   32.5640 C   0  0  0  0  0  3  0  0  0  0  0  0
   35.2270   30.0870   31.9070 C   0  0  0  0  0  3  0  0  0  0  0  0
   36.1650   29.2750   32.4270 N   0  0  0  0  0  0  0  0  0  0  0  0
  1  2  1  0  0  0  0
  1 12  1  0  0  0  0
  2  7  1  0  0  0  0
  3  8  1  0  0  0  0
  3  2  2  0  0  0  0
  4  3  1  0  0  0  0
  5  4  2  0  0  0  0
  5  6  1  0  0  0  0
  6  1  2  0  0  0  0
  9  4  1  0  0  0  0
 10  5  1  0  0  0  0
 11 12  2  0  0  0  0
 11 16  1  0  0  0  0
 12 13  1  0  0  0  0
 13 19  1  0  0  0  0
 13 14  2  0  0  0  0
 15 14  1  0  0  0  0
 15 18  1  0  0  0  0
 16 15  2  0  0  0  0
 17 11  1  0  0  0  0
 19 21  1  0  0  0  0
 19 22  1  0  0  0  0
 20 19  1  0  0  0  0
 23  6  1  0  0  0  0
 23 26  1  0  0  0  0
 24 25  1  0  0  0  0
 25 26  2  0  0  0  0
 25 30  1  0  0  0  0
 26 27  1  0  0  0  0
 27 31  1  0  0  0  0
 27 28  2  0  0  0  0
 28 32  1  0  0  0  0
 29 28  1  0  0  0  0
 29 33  1  0  0  0  0
 30 29  2  0  0  0  0
 34 30  1  0  0  0  0
 34 35  1  0  0  0  0
 35 36  1  0  0  0  0
 37 35  2  0  0  0  0
 37 38  1  0  0  0  0
 39 37  1  0  0  0  0
 40 41  1  0  0  0  0
 40 39  2  0  0  0  0
 41 34  2  0  0  0  0
M  END
>  <minimizedAffinity>
-6.42690945

$$$$

 OpenBabel03272506283D

 41 44  0  0  0  0  0  0  0  0999 V2000
   35.1890   29.8980   32.8260 C   0  0  0  0  0  0  0  0  0  0  0  0
   35.0410   30.7710   31.7650 C   0  0  0  0  0  0  0  0  0  0  0  0
   35.8710   30.7950   30.6440 C   0  0  0  0  0  0  0  0  0  0  0  0
   36.9360   29.8680   30.5860 C   0  0  0  0  0  0  0  0  0  0  0  0
   37.0640   29.0080   31.6530 C   0  0  0  0  0  0  0  0  0  0  0  0
   36.2470   28.9920   32.7440 C   0  0  0  0  0  0  0  0  0  0  0  0
   34.2220   31.5090   31.7740 H   0  0  0  0  0  0  0  0  0  0  0  0
   35.6520   31.5390   29.8590 H   0  0  0  0  0  0  0  0  0  0  0  0
   37.4990   29.9790   29.6880 H   0  0  0  0  0  0  0  0  0  0  0  0
   37.9110   28.4120   31.4250 H   0  0  0  0  0  0  0  0  0  0  0  0
   33.0070   29.3710   33.7270 C   0  0  0  0  0  0  0  0  0  0  0  0
   34.2410   30.0210   33.8990 C   0  0  0  0  0  0  0  0  0  0  0  0
   34.4520   30.7250   35.0870 C   0  0  0  0  0  0  0  0  0  0  0  0
   33.4660   30.7550   36.0190 N   0  0  0  0  0  0  0  0  0  0  0  0
   32.2750   30.1180   35.8300 C   0  0  0  0  0  0  0  0  0  0  0  0
   32.0520   29.4250   34.6780 N   0  0  0  0  0  0  0  0  0  0  0  0
   32.8090   28.8200   32.8290 H   0  0  0  0  0  0  0  0  0  0  0  0
   31.5220   30.1760   36.6120 H   0  0  0  0  0  0  0  0  0  0  0  0
   35.7080   31.4630   35.4070 C   0  0  0  0  0  0  0  0  0  0  0  0
   36.6860   30.5530   35.8570 F   0  0  0  0  0  0  0  0  0  0  0  0
   36.2360   32.1970   34.4090 F   0  0  0  0  0  0  0  0  0  0  0  0
   35.5010   32.2850   36.5060 F   0  0  0  0  0  0  0  0  0  0  0  0
   36.4270   27.8830   34.0920 S   0  0  0  0  0  0  0  0  0  0  0  0
   38.4460   26.5010   36.0110 Cl  0  0  0  0  0  0  0  0  0  0  0  0
   37.9380   25.7060   34.5370 C   0  0  0  0  0  0  0  0  0  0  0  0
   37.0530   26.2920   33.6300 C   0  0  0  0  0  0  0  0  0  0  0  0
   36.7060   25.6420   32.4840 C   0  0  0  0  0  0  0  0  0  0  0  0
   37.2430   24.3930   32.2380 C   0  0  0  0  0  0  0  0  0  0  0  0
   38.1290   23.8050   33.1430 C   0  0  0  0  0  0  0  0  0  0  0  0
   38.4840   24.4590   34.3000 C   0  0  0  0  0  0  0  0  0  0  0  0
   36.0740   26.0130   31.7190 H   0  0  0  0  0  0  0  0  0  0  0  0
   36.9950   23.8350   31.3390 H   0  0  0  0  0  0  0  0  0  0  0  0
   38.5140   22.8260   32.8910 H   0  0  0  0  0  0  0  0  0  0  0  0
   39.4060   23.8740   35.2660 C   0  0  0  0  0  0  0  0  0  0  0  0
   40.7660   23.9230   35.1440 C   0  0  0  0  0  0  0  0  0  0  0  0
   41.2210   24.4080   34.3060 H   0  0  0  0  0  0  0  0  0  0  0  0
   41.6550   23.3710   36.0540 C   0  0  0  0  0  0  0  0  0  0  0  0
   42.7270   23.4400   35.9060 H   0  0  0  0  0  0  0  0  0  0  0  0
   41.1560   22.7240   37.1660 C   0  0  0  0  0  3  0  0  0  0  0  0
   39.7810   22.6790   37.2830 C   0  0  0  0  0  3  0  0  0  0  0  0
   38.9650   23.2320   36.3680 N   0  0  0  0  0  0  0  0  0  0  0  0
  1 12  1  0  0  0  0
  2  7  1  0  0  0  0
  2  1  2  0  0  0  0
  3  2  1  0  0  0  0
  4  3  2  0  0  0  0
  4  5  1  0  0  0  0
  5  6  2  0  0  0  0
  6  1  1  0  0  0  0
  6 23  1  0  0  0  0
  8  3  1  0  0  0  0
  9  4  1  0  0  0  0
 10  5  1  0  0  0  0
 11 12  2  0  0  0  0
 11 16  1  0  0  0  0
 12 13  1  0  0  0  0
 13 19  1  0  0  0  0
 13 14  2  0  0  0  0
 15 14  1  0  0  0  0
 15 18  1  0  0  0  0
 16 15  2  0  0  0  0
 17 11  1  0  0  0  0
 19 20  1  0  0  0  0
 19 22  1  0  0  0  0
 21 19  1  0  0  0  0
 25 24  1  0  0  0  0
 26 23  1  0  0  0  0
 26 25  2  0  0  0  0
 27 26  1  0  0  0  0
 28 27  2  0  0  0  0
 28 29  1  0  0  0  0
 29 30  2  0  0  0  0
 30 25  1  0  0  0  0
 30 34  1  0  0  0  0
 31 27  1  0  0  0  0
 32 28  1  0  0  0  0
 33 29  1  0  0  0  0
 34 41  1  0  0  0  0
 35 34  2  0  0  0  0
 35 37  1  0  0  0  0
 36 35  1  0  0  0  0
 37 39  2  0  0  0  0
 38 37  1  0  0  0  0
 39 40  1  0  0  0  0
 41 40  2  0  0  0  0
M  END
>  <minimizedAffinity>
-6.3428812

$$$$

 OpenBabel03272506283D

 41 44  0  0  0  0  0  0  0  0999 V2000
   39.4270   24.0680   35.2260 C   0  0  0  0  0  0  0  0  0  0  0  0
   40.7090   23.5520   35.2510 C   0  0  0  0  0  0  0  0  0  0  0  0
   41.8680   24.3140   35.1000 C   0  0  0  0  0  0  0  0  0  0  0  0
   41.7250   25.7080   34.9050 C   0  0  0  0  0  0  0  0  0  0  0  0
   40.4400   26.1990   34.8840 C   0  0  0  0  0  0  0  0  0  0  0  0
   39.3140   25.4450   35.0340 C   0  0  0  0  0  0  0  0  0  0  0  0
   40.8610   22.4700   35.4000 H   0  0  0  0  0  0  0  0  0  0  0  0
   42.8370   23.7890   35.1380 H   0  0  0  0  0  0  0  0  0  0  0  0
   42.6730   26.1840   34.8030 H   0  0  0  0  0  0  0  0  0  0  0  0
   40.5480   27.2410   34.7220 H   0  0  0  0  0  0  0  0  0  0  0  0
   37.9000   22.4720   34.2400 C   0  0  0  0  0  0  0  0  0  0  0  0
   38.3520   23.1310   35.3960 C   0  0  0  0  0  0  0  0  0  0  0  0
   37.7310   22.8250   36.6090 C   0  0  0  0  0  0  0  0  0  0  0  0
   36.7240   21.9140   36.6240 N   0  0  0  0  0  0  0  0  0  0  0  0
   36.3020   21.2880   35.4890 C   0  0  0  0  0  0  0  0  0  0  0  0
   36.8970   21.5720   34.2960 N   0  0  0  0  0  0  0  0  0  0  0  0
   38.3530   22.6790   33.2900 H   0  0  0  0  0  0  0  0  0  0  0  0
   35.4930   20.5670   35.5610 H   0  0  0  0  0  0  0  0  0  0  0  0
   38.1020   23.4450   37.9140 C   0  0  0  0  0  0  0  0  0  0  0  0
   39.4350   23.1120   38.2310 F   0  0  0  0  0  0  0  0  0  0  0  0
   37.9650   24.7820   37.9980 F   0  0  0  0  0  0  0  0  0  0  0  0
   37.3690   22.8560   38.9370 F   0  0  0  0  0  0  0  0  0  0  0  0
   37.6840   26.0950   35.0080 S   0  0  0  0  0  0  0  0  0  0  0  0
   36.3480   28.8600   34.5200 Cl  0  0  0  0  0  0  0  0  0  0  0  0
   36.5100   27.7100   33.2100 C   0  0  0  0  0  0  0  0  0  0  0  0
   37.0800   26.4470   33.3810 C   0  0  0  0  0  0  0  0  0  0  0  0
   37.1630   25.5780   32.3350 C   0  0  0  0  0  0  0  0  0  0  0  0
   36.6760   25.9710   31.1030 C   0  0  0  0  0  0  0  0  0  0  0  0
   36.1060   27.2330   30.9290 C   0  0  0  0  0  0  0  0  0  0  0  0
   36.0180   28.1130   31.9840 C   0  0  0  0  0  0  0  0  0  0  0  0
   37.5430   24.5900   32.3680 H   0  0  0  0  0  0  0  0  0  0  0  0
   36.7220   25.3140   30.2390 H   0  0  0  0  0  0  0  0  0  0  0  0
   35.7430   27.4790   29.9410 H   0  0  0  0  0  0  0  0  0  0  0  0
   35.4280   29.4380   31.8370 C   0  0  0  0  0  0  0  0  0  0  0  0
   36.1080   30.5240   31.3630 C   0  0  0  0  0  0  0  0  0  0  0  0
   37.1340   30.4410   31.0730 H   0  0  0  0  0  0  0  0  0  0  0  0
   35.5600   31.7900   31.2180 C   0  0  0  0  0  0  0  0  0  0  0  0
   36.1480   32.6170   30.8370 H   0  0  0  0  0  0  0  0  0  0  0  0
   34.2400   31.9900   31.5690 C   0  0  0  0  0  3  0  0  0  0  0  0
   33.5590   30.8890   32.0460 C   0  0  0  0  0  3  0  0  0  0  0  0
   34.1420   29.6820   32.1660 N   0  0  0  0  0  0  0  0  0  0  0  0
  1  2  1  0  0  0  0
  1 12  1  0  0  0  0
  2  7  1  0  0  0  0
  3  8  1  0  0  0  0
  3  2  2  0  0  0  0
  4  3  1  0  0  0  0
  5  4  2  0  0  0  0
  5  6  1  0  0  0  0
  6  1  2  0  0  0  0
  9  4  1  0  0  0  0
 10  5  1  0  0  0  0
 11 16  2  0  0  0  0
 11 12  1  0  0  0  0
 12 13  2  0  0  0  0
 13 14  1  0  0  0  0
 13 19  1  0  0  0  0
 15 18  1  0  0  0  0
 15 14  2  0  0  0  0
 16 15  1  0  0  0  0
 17 11  1  0  0  0  0
 19 21  1  0  0  0  0
 19 20  1  0  0  0  0
 19 22  1  0  0  0  0
 23  6  1  0  0  0  0
 25 26  1  0  0  0  0
 25 24  1  0  0  0  0
 26 23  1  0  0  0  0
 27 31  1  0  0  0  0
 27 26  2  0  0  0  0
 28 27  1  0  0  0  0
 29 28  2  0  0  0  0
 29 30  1  0  0  0  0
 30 25  2  0  0  0  0
 32 28  1  0  0  0  0
 33 29  1  0  0  0  0
 34 30  1  0  0  0  0
 34 41  1  0  0  0  0
 35 34  2  0  0  0  0
 36 35  1  0  0  0  0
 37 35  1  0  0  0  0
 37 39  2  0  0  0  0
 38 37  1  0  0  0  0
 39 40  1  0  0  0  0
 40 41  2  0  0  0  0
M  END
>  <minimizedAffinity>
-6.3249898

$$$$

 OpenBabel03272506283D

 41 44  0  0  0  0  0  0  0  0999 V2000
   38.0900   23.6760   32.9160 C   0  0  0  0  0  0  0  0  0  0  0  0
   37.4500   22.4630   32.7460 C   0  0  0  0  0  0  0  0  0  0  0  0
   36.2330   22.2990   32.0850 C   0  0  0  0  0  0  0  0  0  0  0  0
   35.6070   23.4500   31.5530 C   0  0  0  0  0  0  0  0  0  0  0  0
   36.2620   24.6470   31.7330 C   0  0  0  0  0  0  0  0  0  0  0  0
   37.4520   24.7950   32.3800 C   0  0  0  0  0  0  0  0  0  0  0  0
   37.9080   21.5430   33.1470 H   0  0  0  0  0  0  0  0  0  0  0  0
   35.8200   21.2790   32.0130 H   0  0  0  0  0  0  0  0  0  0  0  0
   34.6880   23.2050   31.0730 H   0  0  0  0  0  0  0  0  0  0  0  0
   35.6360   25.3720   31.2780 H   0  0  0  0  0  0  0  0  0  0  0  0
   40.5020   23.5120   32.8530 C   0  0  0  0  0  0  0  0  0  0  0  0
   39.3380   23.6530   33.6260 C   0  0  0  0  0  0  0  0  0  0  0  0
   39.4800   23.7640   35.0120 C   0  0  0  0  0  0  0  0  0  0  0  0
   40.7260   23.7290   35.5520 N   0  0  0  0  0  0  0  0  0  0  0  0
   41.8420   23.5900   34.7810 C   0  0  0  0  0  0  0  0  0  0  0  0
   41.7220   23.4830   33.4270 N   0  0  0  0  0  0  0  0  0  0  0  0
   40.4330   23.4260   31.7870 H   0  0  0  0  0  0  0  0  0  0  0  0
   42.8130   23.5690   35.2680 H   0  0  0  0  0  0  0  0  0  0  0  0
   38.3380   23.9160   35.9580 C   0  0  0  0  0  0  0  0  0  0  0  0
   38.8290   24.0320   37.2740 F   0  0  0  0  0  0  0  0  0  0  0  0
   37.5050   24.9480   35.7220 F   0  0  0  0  0  0  0  0  0  0  0  0
   37.5970   22.7430   35.9910 F   0  0  0  0  0  0  0  0  0  0  0  0
   38.2710   26.3330   32.5930 S   0  0  0  0  0  0  0  0  0  0  0  0
   36.6650   27.7590   34.8410 Cl  0  0  0  0  0  0  0  0  0  0  0  0
   36.6040   28.3520   33.1960 C   0  0  0  0  0  0  0  0  0  0  0  0
   37.2870   27.7350   32.1460 C   0  0  0  0  0  0  0  0  0  0  0  0
   37.1890   28.2220   30.8770 C   0  0  0  0  0  0  0  0  0  0  0  0
   36.4050   29.3370   30.6500 C   0  0  0  0  0  0  0  0  0  0  0  0
   35.7220   29.9560   31.6980 C   0  0  0  0  0  0  0  0  0  0  0  0
   35.8160   29.4660   32.9810 C   0  0  0  0  0  0  0  0  0  0  0  0
   37.6350   27.8090   30.0100 H   0  0  0  0  0  0  0  0  0  0  0  0
   36.2980   29.7630   29.6560 H   0  0  0  0  0  0  0  0  0  0  0  0
   35.1250   30.8240   31.4540 H   0  0  0  0  0  0  0  0  0  0  0  0
   35.1150   30.0870   34.0980 C   0  0  0  0  0  0  0  0  0  0  0  0
   35.6770   31.0200   34.9230 C   0  0  0  0  0  0  0  0  0  0  0  0
   36.6870   31.3400   34.7760 H   0  0  0  0  0  0  0  0  0  0  0  0
   35.0230   31.6200   35.9890 C   0  0  0  0  0  0  0  0  0  0  0  0
   35.5190   32.3550   36.6120 H   0  0  0  0  0  0  0  0  0  0  0  0
   33.7150   31.2660   36.2530 C   0  0  0  0  0  3  0  0  0  0  0  0
   33.1540   30.3240   35.4160 C   0  0  0  0  0  3  0  0  0  0  0  0
   33.8360   29.7740   34.3950 N   0  0  0  0  0  0  0  0  0  0  0  0
  1 12  1  0  0  0  0
  2  1  1  0  0  0  0
  2  7  1  0  0  0  0
  3  2  2  0  0  0  0
  4  5  2  0  0  0  0
  4  3  1  0  0  0  0
  5  6  1  0  0  0  0
  6 23  1  0  0  0  0
  6  1  2  0  0  0  0
  8  3  1  0  0  0  0
  9  4  1  0  0  0  0
 10  5  1  0  0  0  0
 11 16  2  0  0  0  0
 11 12  1  0  0  0  0
 12 13  2  0  0  0  0
 13 14  1  0  0  0  0
 13 19  1  0  0  0  0
 15 18  1  0  0  0  0
 15 14  2  0  0  0  0
 16 15  1  0  0  0  0
 17 11  1  0  0  0  0
 19 22  1  0  0  0  0
 19 20  1  0  0  0  0
 21 19  1  0  0  0  0
 25 24  1  0  0  0  0
 26 23  1  0  0  0  0
 26 25  2  0  0  0  0
 27 26  1  0  0  0  0
 28 27  2  0  0  0  0
 28 29  1  0  0  0  0
 29 30  2  0  0  0  0
 30 25  1  0  0  0  0
 30 34  1  0  0  0  0
 31 27  1  0  0  0  0
 32 28  1  0  0  0  0
 33 29  1  0  0  0  0
 34 41  2  0  0  0  0
 34 35  1  0  0  0  0
 35 37  2  0  0  0  0
 36 35  1  0  0  0  0
 37 39  1  0  0  0  0
 37 38  1  0  0  0  0
 40 39  2  0  0  0  0
 41 40  1  0  0  0  0
M  END
>  <minimizedAffinity>
-6.32240629

$$$$

 OpenBabel03272506283D

 41 44  0  0  0  0  0  0  0  0999 V2000
   39.6060   24.9030   33.7470 C   0  0  0  0  0  0  0  0  0  0  0  0
   40.8590   24.8940   34.3310 C   0  0  0  0  0  0  0  0  0  0  0  0
   41.6830   26.0150   34.4440 C   0  0  0  0  0  0  0  0  0  0  0  0
   41.2080   27.2420   33.9280 C   0  0  0  0  0  0  0  0  0  0  0  0
   39.9590   27.2270   33.3520 C   0  0  0  0  0  0  0  0  0  0  0  0
   39.1610   26.1260   33.2470 C   0  0  0  0  0  0  0  0  0  0  0  0
   41.2640   23.9560   34.7440 H   0  0  0  0  0  0  0  0  0  0  0  0
   42.6640   25.8840   34.9310 H   0  0  0  0  0  0  0  0  0  0  0  0
   41.9190   28.0240   34.0700 H   0  0  0  0  0  0  0  0  0  0  0  0
   39.7950   28.2230   33.0260 H   0  0  0  0  0  0  0  0  0  0  0  0
   38.9740   22.9150   32.5230 C   0  0  0  0  0  0  0  0  0  0  0  0
   38.9010   23.6520   33.7170 C   0  0  0  0  0  0  0  0  0  0  0  0
   38.1600   23.1160   34.7730 C   0  0  0  0  0  0  0  0  0  0  0  0
   37.5440   21.9180   34.6060 N   0  0  0  0  0  0  0  0  0  0  0  0
   37.6280   21.2210   33.4360 C   0  0  0  0  0  0  0  0  0  0  0  0
   38.3480   21.7280   32.3960 N   0  0  0  0  0  0  0  0  0  0  0  0
   39.5340   23.2930   31.6900 H   0  0  0  0  0  0  0  0  0  0  0  0
   37.1150   20.2670   33.3600 H   0  0  0  0  0  0  0  0  0  0  0  0
   37.9920   23.7830   36.0960 C   0  0  0  0  0  0  0  0  0  0  0  0
   39.1960   23.6930   36.8250 F   0  0  0  0  0  0  0  0  0  0  0  0
   37.6080   25.0740   36.0670 F   0  0  0  0  0  0  0  0  0  0  0  0
   37.0910   23.0660   36.8710 F   0  0  0  0  0  0  0  0  0  0  0  0
   37.5670   26.1330   32.5130 S   0  0  0  0  0  0  0  0  0  0  0  0
   36.2810   27.6970   34.8720 Cl  0  0  0  0  0  0  0  0  0  0  0  0
   36.3910   28.4220   33.2830 C   0  0  0  0  0  0  0  0  0  0  0  0
   36.9370   27.7550   32.1850 C   0  0  0  0  0  0  0  0  0  0  0  0
   36.9790   28.3550   30.9620 C   0  0  0  0  0  0  0  0  0  0  0  0
   36.4750   29.6340   30.8300 C   0  0  0  0  0  0  0  0  0  0  0  0
   35.9290   30.3040   31.9270 C   0  0  0  0  0  0  0  0  0  0  0  0
   35.8820   29.7010   33.1630 C   0  0  0  0  0  0  0  0  0  0  0  0
   37.3380   27.9230   30.0640 H   0  0  0  0  0  0  0  0  0  0  0  0
   36.4880   30.1540   29.8760 H   0  0  0  0  0  0  0  0  0  0  0  0
   35.5500   31.3020   31.7560 H   0  0  0  0  0  0  0  0  0  0  0  0
   35.3180   30.3710   34.3270 C   0  0  0  0  0  0  0  0  0  0  0  0
   36.0420   31.1620   35.1740 C   0  0  0  0  0  0  0  0  0  0  0  0
   37.0870   31.3240   35.0090 H   0  0  0  0  0  0  0  0  0  0  0  0
   35.5190   31.8060   36.2860 C   0  0  0  0  0  0  0  0  0  0  0  0
   36.1420   32.4220   36.9240 H   0  0  0  0  0  0  0  0  0  0  0  0
   34.1790   31.6530   36.5760 C   0  0  0  0  0  3  0  0  0  0  0  0
   33.4530   30.8540   35.7170 C   0  0  0  0  0  3  0  0  0  0  0  0
   34.0130   30.2520   34.6520 N   0  0  0  0  0  0  0  0  0  0  0  0
  1  2  1  0  0  0  0
  2  3  2  0  0  0  0
  2  7  1  0  0  0  0
  3  8  1  0  0  0  0
  4  9  1  0  0  0  0
  4  3  1  0  0  0  0
  5  4  2  0  0  0  0
  6  5  1  0  0  0  0
  6  1  2  0  0  0  0
 10  5  1  0  0  0  0
 11 12  1  0  0  0  0
 12  1  1  0  0  0  0
 12 13  2  0  0  0  0
 13 19  1  0  0  0  0
 14 13  1  0  0  0  0
 15 14  2  0  0  0  0
 16 11  2  0  0  0  0
 16 15  1  0  0  0  0
 17 11  1  0  0  0  0
 18 15  1  0  0  0  0
 19 20  1  0  0  0  0
 19 22  1  0  0  0  0
 21 19  1  0  0  0  0
 23  6  1  0  0  0  0
 25 24  1  0  0  0  0
 26 23  1  0  0  0  0
 26 25  2  0  0  0  0
 27 26  1  0  0  0  0
 28 27  2  0  0  0  0
 28 29  1  0  0  0  0
 29 30  2  0  0  0  0
 30 25  1  0  0  0  0
 30 34  1  0  0  0  0
 31 27  1  0  0  0  0
 32 28  1  0  0  0  0
 33 29  1  0  0  0  0
 34 41  2  0  0  0  0
 34 35  1  0  0  0  0
 35 37  2  0  0  0  0
 36 35  1  0  0  0  0
 37 39  1  0  0  0  0
 37 38  1  0  0  0  0
 40 39  2  0  0  0  0
 41 40  1  0  0  0  0
M  END
>  <minimizedAffinity>
-6.18400955

$$$$

 OpenBabel03272506283D

 41 44  0  0  0  0  0  0  0  0999 V2000
   35.0470   30.3170   32.3030 C   0  0  0  0  0  0  0  0  0  0  0  0
   35.0540   31.6060   31.8040 C   0  0  0  0  0  0  0  0  0  0  0  0
   35.9610   32.0790   30.8560 C   0  0  0  0  0  0  0  0  0  0  0  0
   36.9420   31.1840   30.3700 C   0  0  0  0  0  0  0  0  0  0  0  0
   36.9150   29.9060   30.8800 C   0  0  0  0  0  0  0  0  0  0  0  0
   36.0230   29.4530   31.8060 C   0  0  0  0  0  0  0  0  0  0  0  0
   34.3050   32.3340   32.1590 H   0  0  0  0  0  0  0  0  0  0  0  0
   35.8670   33.1300   30.5340 H   0  0  0  0  0  0  0  0  0  0  0  0
   37.5750   31.6540   29.6540 H   0  0  0  0  0  0  0  0  0  0  0  0
   37.7200   29.4050   30.4040 H   0  0  0  0  0  0  0  0  0  0  0  0
   32.9190   29.2940   32.8230 C   0  0  0  0  0  0  0  0  0  0  0  0
   34.0390   30.0090   33.2780 C   0  0  0  0  0  0  0  0  0  0  0  0
   34.0900   30.3580   34.6300 C   0  0  0  0  0  0  0  0  0  0  0  0
   33.0630   29.9980   35.4430 N   0  0  0  0  0  0  0  0  0  0  0  0
   31.9850   29.3040   34.9780 C   0  0  0  0  0  0  0  0  0  0  0  0
   31.9190   28.9540   33.6630 N   0  0  0  0  0  0  0  0  0  0  0  0
   32.8450   29.0070   31.7920 H   0  0  0  0  0  0  0  0  0  0  0  0
   31.1930   29.0420   35.6750 H   0  0  0  0  0  0  0  0  0  0  0  0
   35.2120   31.1160   35.2540 C   0  0  0  0  0  0  0  0  0  0  0  0
   36.3810   30.3290   35.2310 F   0  0  0  0  0  0  0  0  0  0  0  0
   35.4940   32.3150   34.7090 F   0  0  0  0  0  0  0  0  0  0  0  0
   34.9640   31.2890   36.6090 F   0  0  0  0  0  0  0  0  0  0  0  0
   36.0070   27.8160   32.4380 S   0  0  0  0  0  0  0  0  0  0  0  0
   38.8330   27.1100   31.3520 Cl  0  0  0  0  0  0  0  0  0  0  0  0
   38.5430   27.2010   33.0750 C   0  0  0  0  0  0  0  0  0  0  0  0
   37.2890   27.4910   33.6150 C   0  0  0  0  0  0  0  0  0  0  0  0
   37.1090   27.5270   34.9650 C   0  0  0  0  0  0  0  0  0  0  0  0
   38.1900   27.2760   35.7880 C   0  0  0  0  0  0  0  0  0  0  0  0
   39.4450   26.9870   35.2510 C   0  0  0  0  0  0  0  0  0  0  0  0
   39.6310   26.9460   33.8880 C   0  0  0  0  0  0  0  0  0  0  0  0
   36.1950   27.7010   35.4720 H   0  0  0  0  0  0  0  0  0  0  0  0
   38.0960   27.2960   36.8710 H   0  0  0  0  0  0  0  0  0  0  0  0
   40.2490   26.7990   35.9490 H   0  0  0  0  0  0  0  0  0  0  0  0
   40.9280   26.6460   33.2950 C   0  0  0  0  0  0  0  0  0  0  0  0
   41.8940   27.5860   33.0650 C   0  0  0  0  0  0  0  0  0  0  0  0
   41.7280   28.6120   33.3190 H   0  0  0  0  0  0  0  0  0  0  0  0
   43.1320   27.3160   32.5010 C   0  0  0  0  0  0  0  0  0  0  0  0
   43.8610   28.1020   32.3410 H   0  0  0  0  0  0  0  0  0  0  0  0
   43.4310   26.0170   32.1400 C   0  0  0  0  0  3  0  0  0  0  0  0
   42.4520   25.0740   32.3750 C   0  0  0  0  0  3  0  0  0  0  0  0
   41.2670   25.3930   32.9260 N   0  0  0  0  0  0  0  0  0  0  0  0
  1 12  1  0  0  0  0
  2  7  1  0  0  0  0
  2  1  2  0  0  0  0
  3  2  1  0  0  0  0
  4  3  2  0  0  0  0
  4  5  1  0  0  0  0
  5  6  2  0  0  0  0
  6  1  1  0  0  0  0
  6 23  1  0  0  0  0
  8  3  1  0  0  0  0
  9  4  1  0  0  0  0
 10  5  1  0  0  0  0
 11 12  2  0  0  0  0
 11 16  1  0  0  0  0
 12 13  1  0  0  0  0
 13 19  1  0  0  0  0
 13 14  2  0  0  0  0
 15 14  1  0  0  0  0
 15 18  1  0  0  0  0
 16 15  2  0  0  0  0
 17 11  1  0  0  0  0
 19 22  1  0  0  0  0
 20 19  1  0  0  0  0
 21 19  1  0  0  0  0
 23 26  1  0  0  0  0
 24 25  1  0  0  0  0
 25 26  2  0  0  0  0
 25 30  1  0  0  0  0
 26 27  1  0  0  0  0
 27 31  1  0  0  0  0
 27 28  2  0  0  0  0
 28 32  1  0  0  0  0
 29 28  1  0  0  0  0
 29 33  1  0  0  0  0
 30 29  2  0  0  0  0
 34 30  1  0  0  0  0
 35 34  1  0  0  0  0
 35 36  1  0  0  0  0
 37 35  2  0  0  0  0
 38 37  1  0  0  0  0
 39 40  2  0  0  0  0
 39 37  1  0  0  0  0
 40 41  1  0  0  0  0
 41 34  2  0  0  0  0
M  END
>  <minimizedAffinity>
-6.04091549

$$$$

 OpenBabel03272506283D

 41 44  0  0  0  0  0  0  0  0999 V2000
   39.2730   26.0640   34.8410 C   0  0  0  0  0  0  0  0  0  0  0  0
   39.0900   26.8620   35.9540 C   0  0  0  0  0  0  0  0  0  0  0  0
   38.1460   27.8840   36.0440 C   0  0  0  0  0  0  0  0  0  0  0  0
   37.3180   28.1250   34.9230 C   0  0  0  0  0  0  0  0  0  0  0  0
   37.5180   27.3180   33.8260 C   0  0  0  0  0  0  0  0  0  0  0  0
   38.4440   26.3200   33.7490 C   0  0  0  0  0  0  0  0  0  0  0  0
   39.7170   26.7050   36.8480 H   0  0  0  0  0  0  0  0  0  0  0  0
   38.0940   28.4540   36.9870 H   0  0  0  0  0  0  0  0  0  0  0  0
   36.6390   28.9240   35.1060 H   0  0  0  0  0  0  0  0  0  0  0  0
   36.8190   27.6590   33.1050 H   0  0  0  0  0  0  0  0  0  0  0  0
   41.5680   25.4130   34.4410 C   0  0  0  0  0  0  0  0  0  0  0  0
   40.2980   25.0610   34.9270 C   0  0  0  0  0  0  0  0  0  0  0  0
   40.1300   23.7790   35.4560 C   0  0  0  0  0  0  0  0  0  0  0  0
   41.1900   22.9300   35.4770 N   0  0  0  0  0  0  0  0  0  0  0  0
   42.4140   23.2940   34.9980 C   0  0  0  0  0  0  0  0  0  0  0  0
   42.5960   24.5420   34.4810 N   0  0  0  0  0  0  0  0  0  0  0  0
   41.7360   26.3890   34.0290 H   0  0  0  0  0  0  0  0  0  0  0  0
   43.2260   22.5740   35.0420 H   0  0  0  0  0  0  0  0  0  0  0  0
   38.8420   23.2650   36.0060 C   0  0  0  0  0  0  0  0  0  0  0  0
   38.6300   23.8070   37.2900 F   0  0  0  0  0  0  0  0  0  0  0  0
   37.7450   23.4940   35.2600 F   0  0  0  0  0  0  0  0  0  0  0  0
   38.9450   21.9010   36.2420 F   0  0  0  0  0  0  0  0  0  0  0  0
   38.6760   25.3000   32.3400 S   0  0  0  0  0  0  0  0  0  0  0  0
   38.4960   22.2040   32.5540 Cl  0  0  0  0  0  0  0  0  0  0  0  0
   37.1550   23.1270   31.9120 C   0  0  0  0  0  0  0  0  0  0  0  0
   37.1930   24.5160   31.7730 C   0  0  0  0  0  0  0  0  0  0  0  0
   36.1310   25.1870   31.2450 C   0  0  0  0  0  0  0  0  0  0  0  0
   35.0160   24.4700   30.8550 C   0  0  0  0  0  0  0  0  0  0  0  0
   34.9750   23.0810   30.9940 C   0  0  0  0  0  0  0  0  0  0  0  0
   36.0470   22.3990   31.5240 C   0  0  0  0  0  0  0  0  0  0  0  0
   36.0740   26.2290   31.0650 H   0  0  0  0  0  0  0  0  0  0  0  0
   34.1440   24.9610   30.4320 H   0  0  0  0  0  0  0  0  0  0  0  0
   34.0740   22.5790   30.6700 H   0  0  0  0  0  0  0  0  0  0  0  0
   36.0370   20.9500   31.6820 C   0  0  0  0  0  0  0  0  0  0  0  0
   35.5080   20.3070   32.7660 C   0  0  0  0  0  0  0  0  0  0  0  0
   35.0670   20.8630   33.5670 H   0  0  0  0  0  0  0  0  0  0  0  0
   35.4920   18.9300   32.9300 C   0  0  0  0  0  0  0  0  0  0  0  0
   35.0580   18.4740   33.8130 H   0  0  0  0  0  0  0  0  0  0  0  0
   36.0400   18.1340   31.9450 C   0  0  0  0  0  3  0  0  0  0  0  0
   36.5720   18.7900   30.8530 C   0  0  0  0  0  3  0  0  0  0  0  0
   36.5610   20.1310   30.7460 N   0  0  0  0  0  0  0  0  0  0  0  0
  1 12  1  0  0  0  0
  1  2  1  0  0  0  0
  2  3  2  0  0  0  0
  2  7  1  0  0  0  0
  3  8  1  0  0  0  0
  4  9  1  0  0  0  0
  4  3  1  0  0  0  0
  5  4  2  0  0  0  0
  6  5  1  0  0  0  0
  6  1  2  0  0  0  0
 10  5  1  0  0  0  0
 11 16  2  0  0  0  0
 11 12  1  0  0  0  0
 12 13  2  0  0  0  0
 13 14  1  0  0  0  0
 13 19  1  0  0  0  0
 15 18  1  0  0  0  0
 15 14  2  0  0  0  0
 16 15  1  0  0  0  0
 17 11  1  0  0  0  0
 19 22  1  0  0  0  0
 19 20  1  0  0  0  0
 21 19  1  0  0  0  0
 23  6  1  0  0  0  0
 25 24  1  0  0  0  0
 26 25  1  0  0  0  0
 26 23  1  0  0  0  0
 27 26  2  0  0  0  0
 28 29  2  0  0  0  0
 28 27  1  0  0  0  0
 29 30  1  0  0  0  0
 30 34  1  0  0  0  0
 30 25  2  0  0  0  0
 31 27  1  0  0  0  0
 32 28  1  0  0  0  0
 33 29  1  0  0  0  0
 34 35  1  0  0  0  0
 35 37  2  0  0  0  0
 35 36  1  0  0  0  0
 37 38  1  0  0  0  0
 39 37  1  0  0  0  0
 40 39  2  0  0  0  0
 41 40  1  0  0  0  0
 41 34  2  0  0  0  0
M  END
>  <minimizedAffinity>
-6.03495407

$$$$

 OpenBabel03272506283D

 41 44  0  0  0  0  0  0  0  0999 V2000
   39.8940   25.5250   34.3170 C   0  0  0  0  0  0  0  0  0  0  0  0
   41.1930   25.7160   34.7480 C   0  0  0  0  0  0  0  0  0  0  0  0
   42.0800   26.6390   34.1930 C   0  0  0  0  0  0  0  0  0  0  0  0
   41.6240   27.4330   33.1160 C   0  0  0  0  0  0  0  0  0  0  0  0
   40.3270   27.2260   32.7040 C   0  0  0  0  0  0  0  0  0  0  0  0
   39.4680   26.3210   33.2540 C   0  0  0  0  0  0  0  0  0  0  0  0
   41.5850   25.1150   35.5860 H   0  0  0  0  0  0  0  0  0  0  0  0
   43.0940   26.7000   34.6240 H   0  0  0  0  0  0  0  0  0  0  0  0
   42.3830   28.0980   32.7750 H   0  0  0  0  0  0  0  0  0  0  0  0
   40.1860   27.8990   31.8970 H   0  0  0  0  0  0  0  0  0  0  0  0
   38.4030   24.9520   36.1330 C   0  0  0  0  0  0  0  0  0  0  0  0
   39.1260   24.5260   35.0070 C   0  0  0  0  0  0  0  0  0  0  0  0
   39.0420   23.1790   34.6440 C   0  0  0  0  0  0  0  0  0  0  0  0
   38.2730   22.3430   35.3890 N   0  0  0  0  0  0  0  0  0  0  0  0
   37.5810   22.7800   36.4790 C   0  0  0  0  0  0  0  0  0  0  0  0
   37.6500   24.0900   36.8470 N   0  0  0  0  0  0  0  0  0  0  0  0
   38.4430   25.9780   36.4420 H   0  0  0  0  0  0  0  0  0  0  0  0
   36.9810   22.0650   37.0370 H   0  0  0  0  0  0  0  0  0  0  0  0
   39.7530   22.5840   33.4770 C   0  0  0  0  0  0  0  0  0  0  0  0
   39.4350   21.2140   33.3810 F   0  0  0  0  0  0  0  0  0  0  0  0
   39.5200   23.1600   32.2820 F   0  0  0  0  0  0  0  0  0  0  0  0
   41.1210   22.5830   33.7130 F   0  0  0  0  0  0  0  0  0  0  0  0
   37.8160   26.0780   32.7140 S   0  0  0  0  0  0  0  0  0  0  0  0
   36.5600   27.7340   35.0260 Cl  0  0  0  0  0  0  0  0  0  0  0  0
   36.4470   28.2950   33.3720 C   0  0  0  0  0  0  0  0  0  0  0  0
   36.9730   27.5790   32.2950 C   0  0  0  0  0  0  0  0  0  0  0  0
   36.8390   28.0460   31.0220 C   0  0  0  0  0  0  0  0  0  0  0  0
   36.1780   29.2420   30.8180 C   0  0  0  0  0  0  0  0  0  0  0  0
   35.6520   29.9600   31.8930 C   0  0  0  0  0  0  0  0  0  0  0  0
   35.7820   29.4910   33.1800 C   0  0  0  0  0  0  0  0  0  0  0  0
   37.1690   27.5630   30.1390 H   0  0  0  0  0  0  0  0  0  0  0  0
   36.0480   29.6560   29.8210 H   0  0  0  0  0  0  0  0  0  0  0  0
   35.1450   30.8880   31.6660 H   0  0  0  0  0  0  0  0  0  0  0  0
   35.2440   30.2150   34.3240 C   0  0  0  0  0  0  0  0  0  0  0  0
   33.9400   30.1380   34.7280 C   0  0  0  0  0  0  0  0  0  0  0  0
   33.2420   29.5230   34.2010 H   0  0  0  0  0  0  0  0  0  0  0  0
   33.4140   30.8210   35.8140 C   0  0  0  0  0  0  0  0  0  0  0  0
   32.3700   30.7230   36.0890 H   0  0  0  0  0  0  0  0  0  0  0  0
   34.2440   31.6400   36.5530 C   0  0  0  0  0  3  0  0  0  0  0  0
   35.5590   31.7130   36.1400 C   0  0  0  0  0  3  0  0  0  0  0  0
   36.0160   31.0270   35.0760 N   0  0  0  0  0  0  0  0  0  0  0  0
  1  2  1  0  0  0  0
  1 12  1  0  0  0  0
  2  7  1  0  0  0  0
  3  8  1  0  0  0  0
  3  2  2  0  0  0  0
  4  3  1  0  0  0  0
  5  4  2  0  0  0  0
  5  6  1  0  0  0  0
  6  1  2  0  0  0  0
  9  4  1  0  0  0  0
 10  5  1  0  0  0  0
 11 17  1  0  0  0  0
 11 16  1  0  0  0  0
 12 11  2  0  0  0  0
 13 12  1  0  0  0  0
 13 14  2  0  0  0  0
 14 15  1  0  0  0  0
 15 16  2  0  0  0  0
 15 18  1  0  0  0  0
 19 22  1  0  0  0  0
 19 13  1  0  0  0  0
 20 19  1  0  0  0  0
 21 19  1  0  0  0  0
 23  6  1  0  0  0  0
 25 24  1  0  0  0  0
 26 23  1  0  0  0  0
 26 25  2  0  0  0  0
 27 26  1  0  0  0  0
 28 27  2  0  0  0  0
 28 29  1  0  0  0  0
 29 30  2  0  0  0  0
 30 25  1  0  0  0  0
 30 34  1  0  0  0  0
 31 27  1  0  0  0  0
 32 28  1  0  0  0  0
 33 29  1  0  0  0  0
 34 35  2  0  0  0  0
 34 41  1  0  0  0  0
 35 37  1  0  0  0  0
 36 35  1  0  0  0  0
 37 38  1  0  0  0  0
 37 39  2  0  0  0  0
 40 39  1  0  0  0  0
 41 40  2  0  0  0  0
M  END
>  <minimizedAffinity>
-6.00527668

$$$$

 OpenBabel03272506283D

 41 44  0  0  0  0  0  0  0  0999 V2000
   39.4510   25.8720   32.2540 C   0  0  0  0  0  0  0  0  0  0  0  0
   40.7950   25.7500   31.9540 C   0  0  0  0  0  0  0  0  0  0  0  0
   41.4330   26.4190   30.9100 C   0  0  0  0  0  0  0  0  0  0  0  0
   40.6570   27.2790   30.0990 C   0  0  0  0  0  0  0  0  0  0  0  0
   39.3220   27.3850   30.4160 C   0  0  0  0  0  0  0  0  0  0  0  0
   38.7080   26.7280   31.4400 C   0  0  0  0  0  0  0  0  0  0  0  0
   41.4330   25.0890   32.5640 H   0  0  0  0  0  0  0  0  0  0  0  0
   42.5130   26.2400   30.7690 H   0  0  0  0  0  0  0  0  0  0  0  0
   41.2480   27.7320   29.3370 H   0  0  0  0  0  0  0  0  0  0  0  0
   38.9230   28.0570   29.6980 H   0  0  0  0  0  0  0  0  0  0  0  0
   38.4480   23.8310   33.0760 C   0  0  0  0  0  0  0  0  0  0  0  0
   38.9660   25.1040   33.3660 C   0  0  0  0  0  0  0  0  0  0  0  0
   38.9740   25.5200   34.7000 C   0  0  0  0  0  0  0  0  0  0  0  0
   38.4840   24.6870   35.6540 N   0  0  0  0  0  0  0  0  0  0  0  0
   37.9850   23.4550   35.3470 C   0  0  0  0  0  0  0  0  0  0  0  0
   37.9700   23.0320   34.0520 N   0  0  0  0  0  0  0  0  0  0  0  0
   38.4260   23.4760   32.0640 H   0  0  0  0  0  0  0  0  0  0  0  0
   37.6060   22.8310   36.1520 H   0  0  0  0  0  0  0  0  0  0  0  0
   39.4900   26.8420   35.1580 C   0  0  0  0  0  0  0  0  0  0  0  0
   38.9850   27.1250   36.4430 F   0  0  0  0  0  0  0  0  0  0  0  0
   40.8300   26.9790   35.1870 F   0  0  0  0  0  0  0  0  0  0  0  0
   38.9560   27.8520   34.3700 F   0  0  0  0  0  0  0  0  0  0  0  0
   37.0030   26.8840   31.8280 S   0  0  0  0  0  0  0  0  0  0  0  0
   35.9600   28.1140   34.4860 Cl  0  0  0  0  0  0  0  0  0  0  0  0
   35.9760   29.0640   33.0160 C   0  0  0  0  0  0  0  0  0  0  0  0
   36.4120   28.5520   31.7920 C   0  0  0  0  0  0  0  0  0  0  0  0
   36.3830   29.3250   30.6700 C   0  0  0  0  0  0  0  0  0  0  0  0
   35.9180   30.6220   30.7670 C   0  0  0  0  0  0  0  0  0  0  0  0
   35.4820   31.1360   31.9890 C   0  0  0  0  0  0  0  0  0  0  0  0
   35.5070   30.3590   33.1240 C   0  0  0  0  0  0  0  0  0  0  0  0
   36.6550   29.0220   29.6920 H   0  0  0  0  0  0  0  0  0  0  0  0
   35.8780   31.2770   29.9000 H   0  0  0  0  0  0  0  0  0  0  0  0
   35.1300   32.1590   31.9970 H   0  0  0  0  0  0  0  0  0  0  0  0
   35.0590   30.8640   34.4160 C   0  0  0  0  0  0  0  0  0  0  0  0
   35.8500   31.5840   35.2660 C   0  0  0  0  0  0  0  0  0  0  0  0
   36.8630   31.8110   35.0080 H   0  0  0  0  0  0  0  0  0  0  0  0
   35.4380   32.0710   36.4980 C   0  0  0  0  0  0  0  0  0  0  0  0
   36.1100   32.6370   37.1330 H   0  0  0  0  0  0  0  0  0  0  0  0
   34.1450   31.8250   36.9130 C   0  0  0  0  0  3  0  0  0  0  0  0
   33.3510   31.0980   36.0500 C   0  0  0  0  0  3  0  0  0  0  0  0
   33.8050   30.6490   34.8650 N   0  0  0  0  0  0  0  0  0  0  0  0
  1 12  1  0  0  0  0
  2  1  1  0  0  0  0
  2  7  1  0  0  0  0
  3  2  2  0  0  0  0
  4  5  2  0  0  0  0
  4  3  1  0  0  0  0
  5  6  1  0  0  0  0
  6 23  1  0  0  0  0
  6  1  2  0  0  0  0
  8  3  1  0  0  0  0
  9  4  1  0  0  0  0
 10  5  1  0  0  0  0
 11 12  2  0  0  0  0
 11 16  1  0  0  0  0
 12 13  1  0  0  0  0
 13 19  1  0  0  0  0
 13 14  2  0  0  0  0
 15 14  1  0  0  0  0
 15 18  1  0  0  0  0
 16 15  2  0  0  0  0
 17 11  1  0  0  0  0
 19 21  1  0  0  0  0
 19 20  1  0  0  0  0
 22 19  1  0  0  0  0
 25 30  1  0  0  0  0
 25 24  1  0  0  0  0
 26 23  1  0  0  0  0
 26 25  2  0  0  0  0
 27 28  2  0  0  0  0
 27 26  1  0  0  0  0
 28 29  1  0  0  0  0
 29 33  1  0  0  0  0
 29 30  2  0  0  0  0
 30 34  1  0  0  0  0
 31 27  1  0  0  0  0
 32 28  1  0  0  0  0
 34 41  2  0  0  0  0
 34 35  1  0  0  0  0
 35 37  2  0  0  0  0
 36 35  1  0  0  0  0
 37 39  1  0  0  0  0
 37 38  1  0  0  0  0
 40 39  2  0  0  0  0
 41 40  1  0  0  0  0
M  END
>  <minimizedAffinity>
-6.00403261

$$$$
