
     RDKit          3D

 40 43  0  0  0  0  0  0  0  0999 V2000
   36.3879   30.9052   45.6976 Cl  0  0  0  0  0  0  0  0  0  0  0  0
   36.6740   30.7576   47.4098 C   0  0  0  0  0  0  0  0  0  0  0  0
   37.9391   31.0818   47.8678 C   0  0  0  0  0  0  0  0  0  0  0  0
   38.1812   30.9696   49.2242 C   0  0  0  0  0  0  0  0  0  0  0  0
   37.1787   30.5477   50.0635 C   0  0  0  0  0  0  0  0  0  0  0  0
   35.9281   30.2381   49.5313 C   0  0  0  0  0  0  0  0  0  0  0  0
   35.6200   30.3263   48.2028 C   0  0  0  0  0  0  0  0  0  0  0  0
   40.2018   33.3098   46.0834 C   0  0  0  0  0  0  0  0  0  0  0  0
   40.9154   32.4607   45.2139 C   0  0  0  0  0  0  0  0  0  0  0  0
   40.5971   31.0919   45.2564 C   0  0  0  0  0  0  0  0  0  0  0  0
   39.6315   30.6685   46.1221 N   0  0  0  0  0  0  0  0  0  0  0  0
   38.9834   31.5301   46.9296 C   0  0  0  0  0  0  0  0  0  0  0  0
   39.2660   32.8299   46.9086 N   0  0  0  0  0  0  0  0  0  0  0  0
   34.0501   29.9414   47.5079 S   0  0  0  0  0  0  0  0  0  0  0  0
   33.7474   29.1882   44.4733 Cl  0  0  0  0  0  0  0  0  0  0  0  0
   33.7796   27.9425   45.7155 C   0  0  0  0  0  0  0  0  0  0  0  0
   33.9101   28.2032   47.0790 C   0  0  0  0  0  0  0  0  0  0  0  0
   33.9227   27.1483   47.9741 C   0  0  0  0  0  0  0  0  0  0  0  0
   33.8090   25.8668   47.5316 C   0  0  0  0  0  0  0  0  0  0  0  0
   33.6781   25.5711   46.1884 C   0  0  0  0  0  0  0  0  0  0  0  0
   33.6665   26.6172   45.3111 C   0  0  0  0  0  0  0  0  0  0  0  0
   39.1720   31.2255   49.5684 H   0  0  0  0  0  0  0  0  0  0  0  0
   37.3593   30.4560   51.1336 H   0  0  0  0  0  0  0  0  0  0  0  0
   35.1601   29.9076   50.2274 H   0  0  0  0  0  0  0  0  0  0  0  0
   40.4648   34.3428   46.0289 H   0  0  0  0  0  0  0  0  0  0  0  0
   41.6789   32.7683   44.5241 H   0  0  0  0  0  0  0  0  0  0  0  0
   41.0624   30.3274   44.6478 H   0  0  0  0  0  0  0  0  0  0  0  0
   34.0299   27.4963   48.9988 H   0  0  0  0  0  0  0  0  0  0  0  0
   33.8284   25.1049   48.3010 H   0  0  0  0  0  0  0  0  0  0  0  0
   33.5969   24.5348   45.9589 H   0  0  0  0  0  0  0  0  0  0  0  0
   33.5304   26.3510   43.8837 C   0  0  0  0  0  0  0  0  0  0  0  0
   33.2117   27.3174   42.9589 C   0  0  0  0  0  0  0  0  0  0  0  0
   33.0450   28.3395   43.2615 H   0  0  0  0  0  0  0  0  0  0  0  0
   33.0757   27.0988   41.6038 C   0  0  0  0  0  0  0  0  0  0  0  0
   32.8246   27.8822   40.9093 H   0  0  0  0  0  0  0  0  0  0  0  0
   33.2697   25.8214   41.1184 C   0  0  0  0  0  0  0  0  0  0  0  0
   33.5875   24.8807   42.0752 C   0  0  0  0  0  0  0  0  0  0  0  0
   33.7086   25.1369   43.3748 N   0  0  0  0  0  0  0  0  0  0  0  0
   33.1701   25.6176   40.0606 H   0  0  0  0  0  0  0  0  0  0  0  0
   33.7489   23.8619   41.7384 H   0  0  0  0  0  0  0  0  0  0  0  0
  1  2  1  0
  2  3  2  0
  2  7  1  0
  3  4  1  0
  4  5  2  0
  6  5  1  0
  7  6  2  0
  8 13  2  0
  9 10  2  0
  9  8  1  0
 10 11  1  0
 11 12  2  0
 12  3  1  0
 13 12  1  0
 14  7  1  0
 15 16  1  0
 16 17  2  0
 17 14  1  0
 17 18  1  0
 19 18  2  0
 20 19  1  0
 21 16  1  0
 21 20  2  0
  4 22  1  0
  5 23  1  0
  6 24  1  0
  8 25  1  0
  9 26  1  0
 10 27  1  0
 18 28  1  0
 19 29  1  0
 20 30  1  0
 31 32  2  0
 32 33  1  0
 32 34  1  0
 34 35  1  0
 34 36  2  0
 36 37  1  0
 37 38  2  0
 38 31  1  0
 36 39  1  0
 37 40  1  0
 21 31  1  0
M  ISO  8  22  14  23  14  24  14  25  14  26  14  27  14  28  14  29  14
M  ISO  3  30  14  33  15  35  16
M  END
>  <DihAtoms>  (1) 
15,20,30,31

>  <DihDeg>  (1) 
179.99938274892529

$$$$
