REMARK  Name = 
REMARK  5 active torsions:
REMARK  status: ('A' for Active; 'I' for Inactive)
REMARK    1  A    between atoms: C_1  and  C_8
REMARK    2  A    between atoms: C_6  and  S_17
REMARK    3  A    between atoms: C_9  and  C_13
REMARK    4  A    between atoms: S_17  and  C_20
REMARK    5  A    between atoms: C_24  and  C_34
REMARK                            x       y       z     vdW  Elec       q    Type
REMARK                         _______ _______ _______ _____ _____    ______ ____
ROOT
ATOM      1  C   UNL     1      34.108  28.750  45.873  0.00  0.00    +0.000 A 
ATOM      2  C   UNL     1      34.325  28.293  44.587  0.00  0.00    +0.000 A 
ATOM      3  C   UNL     1      35.324  28.771  43.739  0.00  0.00    +0.000 A 
ATOM      4  C   UNL     1      36.173  29.793  44.223  0.00  0.00    +0.000 A 
ATOM      5  C   UNL     1      35.939  30.232  45.506  0.00  0.00    +0.000 A 
ATOM      6  C   UNL     1      34.960  29.757  46.327  0.00  0.00    +0.000 A 
ATOM      7  H   UNL     1      33.683  27.497  44.174  0.00  0.00    +0.000 HD
ATOM      8  H   UNL     1      35.399  28.327  42.732  0.00  0.00    +0.000 HD
ATOM      9  H   UNL     1      36.894  30.077  43.492  0.00  0.00    +0.000 HD
ATOM     10  H   UNL     1      36.662  30.990  45.672  0.00  0.00    +0.000 HD
ENDROOT
BRANCH   1  12
ATOM     11  C   UNL     1      33.334  26.980  47.328  0.00  0.00    +0.000 A 
ATOM     12  C   UNL     1      33.029  28.142  46.600  0.00  0.00    +0.000 A 
ATOM     13  C   UNL     1      31.715  28.615  46.641  0.00  0.00    +0.000 A 
ATOM     14  N   UNL     1      30.793  27.939  47.374  0.00  0.00    +0.000 NA
ATOM     15  C   UNL     1      31.113  26.812  48.072  0.00  0.00    +0.000 A 
ATOM     16  N   UNL     1      32.390  26.337  48.045  0.00  0.00    +0.000 NA
ATOM     17  H   UNL     1      34.332  26.587  47.322  0.00  0.00    +0.000 HD
ATOM     18  H   UNL     1      30.334  26.313  48.642  0.00  0.00    +0.000 HD
BRANCH  13  19
ATOM     19  C   UNL     1      31.244  29.832  45.919  0.00  0.00    +0.000 C 
ATOM     20  F   UNL     1      29.878  30.044  46.196  0.00  0.00    +0.000 F 
ATOM     21  F   UNL     1      31.913  30.972  46.177  0.00  0.00    +0.000 F 
ATOM     22  F   UNL     1      31.265  29.602  44.550  0.00  0.00    +0.000 F 
ENDBRANCH  13  19
ENDBRANCH   1  12
BRANCH   6  23
ATOM     23  S   UNL     1      34.684  30.330  47.963  0.00  0.00    +0.000 S 
BRANCH  23  26
ATOM     24 CL   UNL     1      34.994  29.158  50.826  0.00  0.00    +0.000 Cl
ATOM     25  C   UNL     1      36.269  30.129  50.123  0.00  0.00    +0.000 A 
ATOM     26  C   UNL     1      36.171  30.698  48.852  0.00  0.00    +0.000 A 
ATOM     27  C   UNL     1      37.182  31.466  48.358  0.00  0.00    +0.000 A 
ATOM     28  C   UNL     1      38.306  31.668  49.136  0.00  0.00    +0.000 A 
ATOM     29  C   UNL     1      38.407  31.100  50.407  0.00  0.00    +0.000 A 
ATOM     30  C   UNL     1      37.387  30.326  50.911  0.00  0.00    +0.000 A 
ATOM     31  H   UNL     1      37.190  31.969  47.426  0.00  0.00    +0.000 HD
ATOM     32  H   UNL     1      39.139  32.271  48.784  0.00  0.00    +0.000 HD
ATOM     33  H   UNL     1      39.312  31.297  50.965  0.00  0.00    +0.000 HD
BRANCH  30  34
ATOM     34  C   UNL     1      37.460  29.719  52.234  0.00  0.00    +0.000 A 
ATOM     35  C   UNL     1      37.695  28.390  52.449  0.00  0.00    +0.000 A 
ATOM     36  H   UNL     1      37.839  27.722  51.627  0.00  0.00    +0.000 HD
ATOM     37  C   UNL     1      37.767  27.800  53.702  0.00  0.00    +0.000 A 
ATOM     38  H   UNL     1      37.956  26.739  53.814  0.00  0.00    +0.000 HD
ATOM     39  C   UNL     1      37.592  28.587  54.822  0.00  0.00    +0.000 A 
ATOM     40  C   UNL     1      37.355  29.928  54.598  0.00  0.00    +0.000 A 
ATOM     41  N   UNL     1      37.296  30.448  53.358  0.00  0.00    +0.000 NA
ENDBRANCH  30  34
ENDBRANCH  23  26
ENDBRANCH   6  23
TORSDOF 5
