
 OpenBabel03272505113D

 38 41  0  0  0  0  0  0  0  0999 V2000
   36.3910   30.8570   45.6510 Cl  0  0  0  0  0  0  0  0  0  0  0  0
   36.6570   30.7140   47.3670 C   0  0  0  0  0  0  0  0  0  0  0  0
   37.9120   31.0530   47.8400 C   0  0  0  0  0  0  0  0  0  0  0  0
   38.1390   30.9440   49.1990 C   0  0  0  0  0  0  0  0  0  0  0  0
   37.1310   30.5110   50.0260 C   0  0  0  0  0  0  0  0  0  0  0  0
   35.8910   30.1850   49.4780 C   0  0  0  0  0  0  0  0  0  0  0  0
   35.5990   30.2690   48.1470 C   0  0  0  0  0  0  0  0  0  0  0  0
   39.1220   31.2120   49.5550 H   0  0  0  0  0  0  0  0  0  0  0  0
   37.2990   30.4210   51.0990 H   0  0  0  0  0  0  0  0  0  0  0  0
   35.1180   29.8460   50.1650 H   0  0  0  0  0  0  0  0  0  0  0  0
   40.1860   33.3040   46.0980 C   0  0  0  0  0  0  0  0  0  0  0  0
   40.9060   32.4660   45.2240 C   0  0  0  0  0  0  0  0  0  0  0  0
   40.5890   31.0970   45.2480 C   0  0  0  0  0  0  0  0  0  0  0  0
   39.6180   30.6620   46.1020 N   0  0  0  0  0  0  0  0  0  0  0  0
   38.9630   31.5130   46.9150 C   0  0  0  0  0  0  0  0  0  0  0  0
   39.2440   32.8140   46.9120 N   0  0  0  0  0  0  0  0  0  0  0  0
   40.4480   34.3380   46.0580 H   0  0  0  0  0  0  0  0  0  0  0  0
   41.6740   32.7820   44.5430 H   0  0  0  0  0  0  0  0  0  0  0  0
   41.0590   30.3390   44.6340 H   0  0  0  0  0  0  0  0  0  0  0  0
   34.0420   29.8650   47.4320 S   0  0  0  0  0  0  0  0  0  0  0  0
   33.8600   29.0490   44.4040 Cl  0  0  0  0  0  0  0  0  0  0  0  0
   33.8400   27.8290   45.6720 C   0  0  0  0  0  0  0  0  0  0  0  0
   33.9150   28.1190   47.0350 C   0  0  0  0  0  0  0  0  0  0  0  0
   33.8890   27.0830   47.9520 C   0  0  0  0  0  0  0  0  0  0  0  0
   33.7900   25.7930   47.5320 C   0  0  0  0  0  0  0  0  0  0  0  0
   33.7130   25.4690   46.1910 C   0  0  0  0  0  0  0  0  0  0  0  0
   33.7390   26.4960   45.2920 C   0  0  0  0  0  0  0  0  0  0  0  0
   33.9560   27.4520   48.9730 H   0  0  0  0  0  0  0  0  0  0  0  0
   33.7760   25.0470   48.3180 H   0  0  0  0  0  0  0  0  0  0  0  0
   33.6390   24.4280   45.9810 H   0  0  0  0  0  0  0  0  0  0  0  0
   33.6600   26.2000   43.8670 C   0  0  0  0  0  0  0  0  0  0  0  0
   32.4750   26.0660   43.1840 C   0  0  0  0  0  0  0  0  0  0  0  0
   31.5280   26.1780   43.6910 H   0  0  0  0  0  0  0  0  0  0  0  0
   32.3650   25.7870   41.8370 C   0  0  0  0  0  0  0  0  0  0  0  0
   31.4170   25.6890   41.3380 H   0  0  0  0  0  0  0  0  0  0  0  0
   33.5210   25.6260   41.1010 C   0  0  0  0  0  3  0  0  0  0  0  0
   34.6900   25.7680   41.8200 C   0  0  0  0  0  3  0  0  0  0  0  0
   34.7480   26.0380   43.1210 N   0  0  0  0  0  0  0  0  0  0  0  0
  1  2  1  0  0  0  0
  2  3  2  0  0  0  0
  2  7  1  0  0  0  0
  3  4  1  0  0  0  0
  4  8  1  0  0  0  0
  4  5  2  0  0  0  0
  5  9  1  0  0  0  0
  6  5  1  0  0  0  0
  6 10  1  0  0  0  0
  7  6  2  0  0  0  0
 11 16  1  0  0  0  0
 12 13  1  0  0  0  0
 12 11  2  0  0  0  0
 13 14  2  0  0  0  0
 14 15  1  0  0  0  0
 15  3  1  0  0  0  0
 16 15  2  0  0  0  0
 17 11  1  0  0  0  0
 18 12  1  0  0  0  0
 19 13  1  0  0  0  0
 20  7  1  0  0  0  0
 21 22  1  0  0  0  0
 22 23  1  0  0  0  0
 23 20  1  0  0  0  0
 23 24  2  0  0  0  0
 24 28  1  0  0  0  0
 25 24  1  0  0  0  0
 25 29  1  0  0  0  0
 26 25  2  0  0  0  0
 27 22  2  0  0  0  0
 27 26  1  0  0  0  0
 30 26  1  0  0  0  0
 31 27  1  0  0  0  0
 32 33  1  0  0  0  0
 32 31  1  0  0  0  0
 34 32  2  0  0  0  0
 35 34  1  0  0  0  0
 36 37  2  0  0  0  0
 36 34  1  0  0  0  0
 37 38  1  0  0  0  0
 38 31  2  0  0  0  0
M  END
>  <minimizedAffinity>
-5.60798502

>  <minimizedRMSD>
0.382076919

$$$$
