
 OpenBabel03272505113D

 38 41  0  0  0  0  0  0  0  0999 V2000
   36.4220   30.9090   45.7200 Cl  0  0  0  0  0  0  0  0  0  0  0  0
   36.7040   30.7980   47.4360 C   0  0  0  0  0  0  0  0  0  0  0  0
   37.9660   31.1370   47.8910 C   0  0  0  0  0  0  0  0  0  0  0  0
   38.2050   31.0540   49.2490 C   0  0  0  0  0  0  0  0  0  0  0  0
   37.2020   30.6450   50.0940 C   0  0  0  0  0  0  0  0  0  0  0  0
   35.9540   30.3180   49.5650 C   0  0  0  0  0  0  0  0  0  0  0  0
   35.6500   30.3770   48.2350 C   0  0  0  0  0  0  0  0  0  0  0  0
   39.1940   31.3220   49.5910 H   0  0  0  0  0  0  0  0  0  0  0  0
   37.3800   30.5750   51.1670 H   0  0  0  0  0  0  0  0  0  0  0  0
   35.1860   29.9980   50.2650 H   0  0  0  0  0  0  0  0  0  0  0  0
   40.2330   33.3370   46.0760 C   0  0  0  0  0  0  0  0  0  0  0  0
   40.9440   32.4760   45.2180 C   0  0  0  0  0  0  0  0  0  0  0  0
   40.6240   31.1080   45.2780 C   0  0  0  0  0  0  0  0  0  0  0  0
   39.6580   30.6980   46.1500 N   0  0  0  0  0  0  0  0  0  0  0  0
   39.0110   31.5710   46.9470 C   0  0  0  0  0  0  0  0  0  0  0  0
   39.2960   32.8700   46.9090 N   0  0  0  0  0  0  0  0  0  0  0  0
   40.4980   34.3690   46.0080 H   0  0  0  0  0  0  0  0  0  0  0  0
   41.7090   32.7720   44.5240 H   0  0  0  0  0  0  0  0  0  0  0  0
   41.0870   30.3340   44.6810 H   0  0  0  0  0  0  0  0  0  0  0  0
   34.0840   29.9710   47.5430 S   0  0  0  0  0  0  0  0  0  0  0  0
   33.9620   29.1790   44.5050 Cl  0  0  0  0  0  0  0  0  0  0  0  0
   33.9130   27.9500   45.7630 C   0  0  0  0  0  0  0  0  0  0  0  0
   33.9610   28.2280   47.1290 C   0  0  0  0  0  0  0  0  0  0  0  0
   33.9140   27.1850   48.0360 C   0  0  0  0  0  0  0  0  0  0  0  0
   33.8210   25.8990   47.6050 C   0  0  0  0  0  0  0  0  0  0  0  0
   33.7700   25.5850   46.2590 C   0  0  0  0  0  0  0  0  0  0  0  0
   33.8170   26.6200   45.3700 C   0  0  0  0  0  0  0  0  0  0  0  0
   33.9600   27.5460   49.0610 H   0  0  0  0  0  0  0  0  0  0  0  0
   33.7890   25.1470   48.3830 H   0  0  0  0  0  0  0  0  0  0  0  0
   33.6980   24.5470   46.0390 H   0  0  0  0  0  0  0  0  0  0  0  0
   33.7660   26.3360   43.9410 C   0  0  0  0  0  0  0  0  0  0  0  0
   34.8830   26.0920   43.1760 C   0  0  0  0  0  0  0  0  0  0  0  0
   35.8680   26.1010   43.6150 H   0  0  0  0  0  0  0  0  0  0  0  0
   34.8690   25.8200   41.8240 C   0  0  0  0  0  0  0  0  0  0  0  0
   35.7660   25.6340   41.2580 H   0  0  0  0  0  0  0  0  0  0  0  0
   33.6550   25.7860   41.1690 C   0  0  0  0  0  3  0  0  0  0  0  0
   32.5590   26.0350   41.9680 C   0  0  0  0  0  3  0  0  0  0  0  0
   32.6190   26.2930   43.2720 N   0  0  0  0  0  0  0  0  0  0  0  0
  1  2  1  0  0  0  0
  2  3  2  0  0  0  0
  2  7  1  0  0  0  0
  3  4  1  0  0  0  0
  4  8  1  0  0  0  0
  4  5  2  0  0  0  0
  5  9  1  0  0  0  0
  6  5  1  0  0  0  0
  6 10  1  0  0  0  0
  7  6  2  0  0  0  0
 11 16  1  0  0  0  0
 12 13  1  0  0  0  0
 12 11  2  0  0  0  0
 13 14  2  0  0  0  0
 14 15  1  0  0  0  0
 15  3  1  0  0  0  0
 16 15  2  0  0  0  0
 17 11  1  0  0  0  0
 18 12  1  0  0  0  0
 19 13  1  0  0  0  0
 20  7  1  0  0  0  0
 21 22  1  0  0  0  0
 22 23  1  0  0  0  0
 23 20  1  0  0  0  0
 23 24  2  0  0  0  0
 24 28  1  0  0  0  0
 25 24  1  0  0  0  0
 25 29  1  0  0  0  0
 26 25  2  0  0  0  0
 27 22  2  0  0  0  0
 27 26  1  0  0  0  0
 30 26  1  0  0  0  0
 31 27  1  0  0  0  0
 32 33  1  0  0  0  0
 32 31  2  0  0  0  0
 34 32  1  0  0  0  0
 35 34  1  0  0  0  0
 36 34  2  0  0  0  0
 36 37  1  0  0  0  0
 37 38  2  0  0  0  0
 38 31  1  0  0  0  0
M  END
>  <minimizedAffinity>
-5.67775869

>  <minimizedRMSD>
0.369670659

$$$$
