
 OpenBabel03272505123D

 38 41  0  0  0  0  0  0  0  0999 V2000
   36.4140   30.9070   45.7240 Cl  0  0  0  0  0  0  0  0  0  0  0  0
   36.7000   30.7940   47.4380 C   0  0  0  0  0  0  0  0  0  0  0  0
   37.9640   31.1310   47.8900 C   0  0  0  0  0  0  0  0  0  0  0  0
   38.2060   31.0450   49.2480 C   0  0  0  0  0  0  0  0  0  0  0  0
   37.2050   30.6360   50.0950 C   0  0  0  0  0  0  0  0  0  0  0  0
   35.9560   30.3110   49.5690 C   0  0  0  0  0  0  0  0  0  0  0  0
   35.6480   30.3730   48.2390 C   0  0  0  0  0  0  0  0  0  0  0  0
   39.1960   31.3110   49.5870 H   0  0  0  0  0  0  0  0  0  0  0  0
   37.3850   30.5650   51.1670 H   0  0  0  0  0  0  0  0  0  0  0  0
   35.1890   29.9920   50.2700 H   0  0  0  0  0  0  0  0  0  0  0  0
   40.2310   33.3300   46.0750 C   0  0  0  0  0  0  0  0  0  0  0  0
   40.9370   32.4700   45.2120 C   0  0  0  0  0  0  0  0  0  0  0  0
   40.6120   31.1030   45.2690 C   0  0  0  0  0  0  0  0  0  0  0  0
   39.6490   30.6930   46.1420 N   0  0  0  0  0  0  0  0  0  0  0  0
   39.0070   31.5650   46.9440 C   0  0  0  0  0  0  0  0  0  0  0  0
   39.2960   32.8630   46.9090 N   0  0  0  0  0  0  0  0  0  0  0  0
   40.4990   34.3620   46.0100 H   0  0  0  0  0  0  0  0  0  0  0  0
   41.7000   32.7660   44.5160 H   0  0  0  0  0  0  0  0  0  0  0  0
   41.0720   30.3300   44.6660 H   0  0  0  0  0  0  0  0  0  0  0  0
   34.0790   29.9690   47.5510 S   0  0  0  0  0  0  0  0  0  0  0  0
   33.9020   29.2000   44.5100 Cl  0  0  0  0  0  0  0  0  0  0  0  0
   33.8830   27.9610   45.7590 C   0  0  0  0  0  0  0  0  0  0  0  0
   33.9570   28.2290   47.1260 C   0  0  0  0  0  0  0  0  0  0  0  0
   33.9330   27.1790   48.0260 C   0  0  0  0  0  0  0  0  0  0  0  0
   33.8370   25.8950   47.5870 C   0  0  0  0  0  0  0  0  0  0  0  0
   33.7610   25.5920   46.2400 C   0  0  0  0  0  0  0  0  0  0  0  0
   33.7860   26.6330   45.3580 C   0  0  0  0  0  0  0  0  0  0  0  0
   33.9970   27.5320   49.0530 H   0  0  0  0  0  0  0  0  0  0  0  0
   33.8240   25.1370   48.3600 H   0  0  0  0  0  0  0  0  0  0  0  0
   33.6900   24.5550   46.0140 H   0  0  0  0  0  0  0  0  0  0  0  0
   33.7090   26.3600   43.9280 C   0  0  0  0  0  0  0  0  0  0  0  0
   34.8110   26.1250   43.1400 C   0  0  0  0  0  0  0  0  0  0  0  0
   35.8050   26.1350   43.5610 H   0  0  0  0  0  0  0  0  0  0  0  0
   34.7720   25.8630   41.7870 C   0  0  0  0  0  0  0  0  0  0  0  0
   35.6580   25.6860   41.2010 H   0  0  0  0  0  0  0  0  0  0  0  0
   33.5450   25.8300   41.1550 C   0  0  0  0  0  3  0  0  0  0  0  0
   32.4650   26.0690   41.9770 C   0  0  0  0  0  3  0  0  0  0  0  0
   32.5480   26.3170   43.2820 N   0  0  0  0  0  0  0  0  0  0  0  0
  1  2  1  0  0  0  0
  2  3  2  0  0  0  0
  2  7  1  0  0  0  0
  3  4  1  0  0  0  0
  4  8  1  0  0  0  0
  4  5  2  0  0  0  0
  5  9  1  0  0  0  0
  6  5  1  0  0  0  0
  6 10  1  0  0  0  0
  7  6  2  0  0  0  0
 11 16  1  0  0  0  0
 12 13  1  0  0  0  0
 12 11  2  0  0  0  0
 13 14  2  0  0  0  0
 14 15  1  0  0  0  0
 15  3  1  0  0  0  0
 16 15  2  0  0  0  0
 17 11  1  0  0  0  0
 18 12  1  0  0  0  0
 19 13  1  0  0  0  0
 20  7  1  0  0  0  0
 21 22  1  0  0  0  0
 22 23  1  0  0  0  0
 23 20  1  0  0  0  0
 23 24  2  0  0  0  0
 24 28  1  0  0  0  0
 25 24  1  0  0  0  0
 25 29  1  0  0  0  0
 26 25  2  0  0  0  0
 27 22  2  0  0  0  0
 27 26  1  0  0  0  0
 30 26  1  0  0  0  0
 31 27  1  0  0  0  0
 32 33  1  0  0  0  0
 32 31  2  0  0  0  0
 34 32  1  0  0  0  0
 35 34  1  0  0  0  0
 36 34  2  0  0  0  0
 36 37  1  0  0  0  0
 37 38  2  0  0  0  0
 38 31  1  0  0  0  0
M  END
>  <minimizedAffinity>
-5.66689062

>  <minimizedRMSD>
0.649320185

$$$$
