
 OpenBabel03272505123D

 38 41  0  0  0  0  0  0  0  0999 V2000
   36.3860   30.8980   45.6960 Cl  0  0  0  0  0  0  0  0  0  0  0  0
   36.6710   30.7540   47.4090 C   0  0  0  0  0  0  0  0  0  0  0  0
   37.9350   31.0810   47.8670 C   0  0  0  0  0  0  0  0  0  0  0  0
   38.1770   30.9720   49.2230 C   0  0  0  0  0  0  0  0  0  0  0  0
   37.1750   30.5500   50.0620 C   0  0  0  0  0  0  0  0  0  0  0  0
   35.9250   30.2370   49.5300 C   0  0  0  0  0  0  0  0  0  0  0  0
   35.6170   30.3220   48.2020 C   0  0  0  0  0  0  0  0  0  0  0  0
   39.1670   31.2300   49.5670 H   0  0  0  0  0  0  0  0  0  0  0  0
   37.3540   30.4600   51.1340 H   0  0  0  0  0  0  0  0  0  0  0  0
   35.1570   29.9070   50.2260 H   0  0  0  0  0  0  0  0  0  0  0  0
   40.2040   33.3080   46.0880 C   0  0  0  0  0  0  0  0  0  0  0  0
   40.9110   32.4600   45.2130 C   0  0  0  0  0  0  0  0  0  0  0  0
   40.5870   31.0920   45.2480 C   0  0  0  0  0  0  0  0  0  0  0  0
   39.6220   30.6690   46.1140 N   0  0  0  0  0  0  0  0  0  0  0  0
   38.9790   31.5290   46.9290 C   0  0  0  0  0  0  0  0  0  0  0  0
   39.2680   32.8280   46.9140 N   0  0  0  0  0  0  0  0  0  0  0  0
   40.4720   34.3400   46.0390 H   0  0  0  0  0  0  0  0  0  0  0  0
   41.6750   32.7670   44.5220 H   0  0  0  0  0  0  0  0  0  0  0  0
   41.0460   30.3280   44.6350 H   0  0  0  0  0  0  0  0  0  0  0  0
   34.0480   29.9330   47.5070 S   0  0  0  0  0  0  0  0  0  0  0  0
   33.7660   29.1690   44.4720 Cl  0  0  0  0  0  0  0  0  0  0  0  0
   33.7900   27.9280   45.7190 C   0  0  0  0  0  0  0  0  0  0  0  0
   33.9100   28.1940   47.0830 C   0  0  0  0  0  0  0  0  0  0  0  0
   33.9160   27.1420   47.9820 C   0  0  0  0  0  0  0  0  0  0  0  0
   33.8050   25.8590   47.5440 C   0  0  0  0  0  0  0  0  0  0  0  0
   33.6830   25.5590   46.2000 C   0  0  0  0  0  0  0  0  0  0  0  0
   33.6780   26.6010   45.3190 C   0  0  0  0  0  0  0  0  0  0  0  0
   34.0160   27.4940   49.0070 H   0  0  0  0  0  0  0  0  0  0  0  0
   33.8180   25.1000   48.3160 H   0  0  0  0  0  0  0  0  0  0  0  0
   33.6030   24.5220   45.9740 H   0  0  0  0  0  0  0  0  0  0  0  0
   33.5520   26.3300   43.8920 C   0  0  0  0  0  0  0  0  0  0  0  0
   33.4340   25.0640   43.3680 C   0  0  0  0  0  0  0  0  0  0  0  0
   33.4300   24.1980   44.0110 H   0  0  0  0  0  0  0  0  0  0  0  0
   33.3130   24.7750   42.0250 C   0  0  0  0  0  0  0  0  0  0  0  0
   33.2220   23.7680   41.6520 H   0  0  0  0  0  0  0  0  0  0  0  0
   33.3090   25.8180   41.1220 C   0  0  0  0  0  3  0  0  0  0  0  0
   33.4290   27.0710   41.6840 C   0  0  0  0  0  3  0  0  0  0  0  0
   33.5440   27.3050   42.9900 N   0  0  0  0  0  0  0  0  0  0  0  0
  1  2  1  0  0  0  0
  2  3  2  0  0  0  0
  2  7  1  0  0  0  0
  3  4  1  0  0  0  0
  4  8  1  0  0  0  0
  4  5  2  0  0  0  0
  5  9  1  0  0  0  0
  6  5  1  0  0  0  0
  6 10  1  0  0  0  0
  7  6  2  0  0  0  0
 11 16  1  0  0  0  0
 12 13  1  0  0  0  0
 12 11  2  0  0  0  0
 13 14  2  0  0  0  0
 14 15  1  0  0  0  0
 15  3  1  0  0  0  0
 16 15  2  0  0  0  0
 17 11  1  0  0  0  0
 18 12  1  0  0  0  0
 19 13  1  0  0  0  0
 20  7  1  0  0  0  0
 21 22  1  0  0  0  0
 22 23  1  0  0  0  0
 23 20  1  0  0  0  0
 23 24  2  0  0  0  0
 24 28  1  0  0  0  0
 25 24  1  0  0  0  0
 25 29  1  0  0  0  0
 26 25  2  0  0  0  0
 27 22  2  0  0  0  0
 27 26  1  0  0  0  0
 30 26  1  0  0  0  0
 31 27  1  0  0  0  0
 32 31  1  0  0  0  0
 32 33  1  0  0  0  0
 34 32  2  0  0  0  0
 35 34  1  0  0  0  0
 36 37  2  0  0  0  0
 36 34  1  0  0  0  0
 37 38  1  0  0  0  0
 38 31  2  0  0  0  0
M  END
>  <minimizedAffinity>
-5.59587097

>  <minimizedRMSD>
0.0227113813

$$$$
