
 OpenBabel03262520503D

 47 51  0  0  1  0  0  0  0  0999 V2000
   40.3720   30.9750   43.7440 C   0  0  0  0  0  0  0  0  0  0  0  0
   41.4340   31.2300   43.9780 H   0  0  0  0  0  0  0  0  0  0  0  0
   39.8290   31.8050   43.2480 H   0  0  0  0  0  0  0  0  0  0  0  0
   39.5480   28.7010   43.2250 C   0  0  0  0  0  0  0  0  0  0  0  0
   40.3090   29.7840   42.8340 C   0  0  0  0  0  0  0  0  0  0  0  0
   40.9870   29.7510   41.6210 C   0  0  0  0  0  0  0  0  0  0  0  0
   40.9080   28.6360   40.8000 C   0  0  0  0  0  0  0  0  0  0  0  0
   41.4770   28.3670   39.6200 N   0  0  0  0  0  0  0  0  0  0  0  0
   41.0890   27.1380   39.2690 C   0  0  0  0  0  0  0  0  0  0  0  0
   40.2680   26.5900   40.2060 C   0  0  0  0  0  0  0  0  0  0  0  0
   40.1460   27.5550   41.1960 C   0  0  0  0  0  0  0  0  0  0  0  0
   39.4670   27.5840   42.3980 C   0  0  0  0  0  0  0  0  0  0  0  0
   38.9890   28.6710   44.1470 H   0  0  0  0  0  0  0  0  0  0  0  0
   41.5770   30.5830   41.3080 H   0  0  0  0  0  0  0  0  0  0  0  0
   42.0960   29.0210   39.1090 H   0  0  0  0  0  0  0  0  0  0  0  0
   41.4070   26.6650   38.3480 H   0  0  0  0  0  0  0  0  0  0  0  0
   39.8560   25.6100   40.1400 H   0  0  0  0  0  0  0  0  0  0  0  0
   38.6600   26.4910   42.9110 C   0  0  0  0  0  0  0  0  0  0  0  0
   39.0270   25.3380   43.5470 C   0  0  0  0  0  0  0  0  0  0  0  0
   40.0650   25.1570   43.7310 H   0  0  0  0  0  0  0  0  0  0  0  0
   38.1950   24.3300   43.9520 C   0  0  0  0  0  0  0  0  0  0  0  0
   38.5720   23.4510   44.4510 H   0  0  0  0  0  0  0  0  0  0  0  0
   36.8470   24.4400   43.7170 C   0  0  0  0  0  0  0  0  0  0  0  0
   36.4700   25.5880   43.0790 C   0  0  0  0  0  0  0  0  0  0  0  0
   37.3350   26.5280   42.7150 N   0  0  0  0  0  0  0  0  0  0  0  0
   39.6060   30.6190   45.0110 C   0  0  0  0  0  0  0  0  0  0  0  0
   38.5300   30.6830   44.7620 H   0  0  0  0  0  0  0  0  0  0  0  0
   39.8700   29.5650   45.2380 H   0  0  0  0  0  0  0  0  0  0  0  0
   38.7870   32.1500   46.8450 C   0  0  1  0  0  0  0  0  0  0  0  0
   39.8670   32.9520   46.1470 C   0  0  0  0  0  0  0  0  0  0  0  0
   39.9320   31.4800   46.1770 C   0  0  2  0  0  0  0  0  0  0  0  0
   37.8090   32.1300   46.3220 H   0  0  0  0  0  0  0  0  0  0  0  0
   39.6330   33.4200   45.1650 H   0  0  0  0  0  0  0  0  0  0  0  0
   40.6190   33.5100   46.7410 H   0  0  0  0  0  0  0  0  0  0  0  0
   40.6590   31.0320   46.9050 H   0  0  0  0  0  0  0  0  0  0  0  0
   38.7210   32.3250   48.3230 C   0  0  0  0  0  0  0  0  0  0  0  0
   38.3230   33.3390   48.5640 H   0  0  0  0  0  0  0  0  0  0  0  0
   39.7690   32.3280   48.7110 H   0  0  0  0  0  0  0  0  0  0  0  0
   37.4410   30.0320   50.9860 C   0  0  0  0  0  0  0  0  0  0  0  0
   38.1640   31.0710   50.3310 C   0  0  0  0  0  0  0  0  0  0  0  0
   37.9680   31.2490   48.9830 C   0  0  0  0  0  0  0  0  0  0  0  0
   37.1120   30.4400   48.3630 N   0  0  0  0  0  0  0  0  0  0  0  0
   36.4310   29.4630   48.9730 C   0  0  0  0  0  0  0  0  0  0  0  0
   36.6120   29.2750   50.2910 N   0  0  0  0  0  0  0  0  0  0  0  0
   37.6590   29.9640   52.0560 H   0  0  0  0  0  0  0  0  0  0  0  0
   38.8520   31.7060   50.8780 H   0  0  0  0  0  0  0  0  0  0  0  0
   35.7400   28.8190   48.4440 H   0  0  0  0  0  0  0  0  0  0  0  0
  1  2  1  0  0  0  0
  1 26  1  0  0  0  0
  3  1  1  0  0  0  0
  4 13  1  0  0  0  0
  5  4  1  0  0  0  0
  5  1  1  0  0  0  0
  6  5  2  0  0  0  0
  7 11  2  0  0  0  0
  7  6  1  0  0  0  0
  8  7  1  0  0  0  0
  9  8  1  0  0  0  0
  9 10  2  0  0  0  0
 10 11  1  0  0  0  0
 11 12  1  0  0  0  0
 12 18  1  0  0  0  0
 12  4  2  0  0  0  0
 14  6  1  0  0  0  0
 15  8  1  0  0  0  0
 16  9  1  0  0  0  0
 17 10  1  0  0  0  0
 18 19  1  0  0  0  0
 19 20  1  0  0  0  0
 19 21  2  0  0  0  0
 21 22  1  0  0  0  0
 23 21  1  0  0  0  0
 24 23  2  0  0  0  0
 25 18  2  0  0  0  0
 25 24  1  0  0  0  0
 26 28  1  0  0  0  0
 26 31  1  0  0  0  0
 27 26  1  0  0  0  0
 29 32  1  6  0  0  0
 29 36  1  0  0  0  0
 30 31  1  0  0  0  0
 30 34  1  0  0  0  0
 30 29  1  0  0  0  0
 31 29  1  0  0  0  0
 31 35  1  1  0  0  0
 33 30  1  0  0  0  0
 36 37  1  0  0  0  0
 36 38  1  0  0  0  0
 36 41  1  0  0  0  0
 39 45  1  0  0  0  0
 40 46  1  0  0  0  0
 40 39  1  0  0  0  0
 41 40  2  0  0  0  0
 42 43  2  0  0  0  0
 42 41  1  0  0  0  0
 43 44  1  0  0  0  0
 44 39  2  0  0  0  0
 47 43  1  0  0  0  0
M  END
>  <minimizedAffinity>
-6.2308712

>  <minimizedRMSD>
0.371435344

$$$$
