
 OpenBabel03272506273D

 41 44  0  0  0  0  0  0  0  0999 V2000
   37.7620   30.6500   43.0900 C   0  0  0  0  0  0  0  0  0  0  0  0
   38.7390   30.4860   44.0540 C   0  0  0  0  0  0  0  0  0  0  0  0
   38.5000   30.4900   45.4280 C   0  0  0  0  0  0  0  0  0  0  0  0
   37.1690   30.6750   45.8690 C   0  0  0  0  0  0  0  0  0  0  0  0
   36.2130   30.8360   44.8930 C   0  0  0  0  0  0  0  0  0  0  0  0
   36.4580   30.8300   43.5520 C   0  0  0  0  0  0  0  0  0  0  0  0
   39.7890   30.3390   43.7480 H   0  0  0  0  0  0  0  0  0  0  0  0
   39.3630   30.3490   46.1000 H   0  0  0  0  0  0  0  0  0  0  0  0
   37.1080   30.6600   46.9330 H   0  0  0  0  0  0  0  0  0  0  0  0
   35.3020   30.9670   45.4210 H   0  0  0  0  0  0  0  0  0  0  0  0
   38.2070   29.3670   41.0890 C   0  0  0  0  0  0  0  0  0  0  0  0
   38.1950   30.6210   41.7210 C   0  0  0  0  0  0  0  0  0  0  0  0
   38.5960   31.7340   40.9770 C   0  0  0  0  0  0  0  0  0  0  0  0
   38.9800   31.5610   39.6860 N   0  0  0  0  0  0  0  0  0  0  0  0
   38.9850   30.3320   39.0950 C   0  0  0  0  0  0  0  0  0  0  0  0
   38.5950   29.2360   39.8040 N   0  0  0  0  0  0  0  0  0  0  0  0
   37.9050   28.4900   41.6270 H   0  0  0  0  0  0  0  0  0  0  0  0
   39.3010   30.2540   38.0580 H   0  0  0  0  0  0  0  0  0  0  0  0
   38.6360   33.1250   41.5140 C   0  0  0  0  0  0  0  0  0  0  0  0
   39.0330   34.0120   40.4920 F   0  0  0  0  0  0  0  0  0  0  0  0
   37.4940   33.5860   42.0570 F   0  0  0  0  0  0  0  0  0  0  0  0
   39.6540   33.2360   42.4520 F   0  0  0  0  0  0  0  0  0  0  0  0
   35.2200   31.0320   42.3250 S   0  0  0  0  0  0  0  0  0  0  0  0
   32.1970   30.4410   42.7460 Cl  0  0  0  0  0  0  0  0  0  0  0  0
   32.7980   32.0830   42.8230 C   0  0  0  0  0  0  0  0  0  0  0  0
   34.1400   32.4050   42.6180 C   0  0  0  0  0  0  0  0  0  0  0  0
   34.5550   33.7020   42.6650 C   0  0  0  0  0  0  0  0  0  0  0  0
   33.6240   34.6900   42.9220 C   0  0  0  0  0  0  0  0  0  0  0  0
   32.2810   34.3700   43.1280 C   0  0  0  0  0  0  0  0  0  0  0  0
   31.8570   33.0620   43.0780 C   0  0  0  0  0  0  0  0  0  0  0  0
   35.5390   34.0530   42.4890 H   0  0  0  0  0  0  0  0  0  0  0  0
   33.9070   35.7380   42.9720 H   0  0  0  0  0  0  0  0  0  0  0  0
   31.6030   35.1900   43.3240 H   0  0  0  0  0  0  0  0  0  0  0  0
   30.4620   32.6940   43.2880 C   0  0  0  0  0  0  0  0  0  0  0  0
   29.4990   32.7890   42.3240 C   0  0  0  0  0  0  0  0  0  0  0  0
   29.7390   33.1510   41.3460 H   0  0  0  0  0  0  0  0  0  0  0  0
   28.1690   32.4430   42.5080 C   0  0  0  0  0  0  0  0  0  0  0  0
   27.4460   32.5390   41.7070 H   0  0  0  0  0  0  0  0  0  0  0  0
   27.7670   31.9660   43.7400 C   0  0  0  0  0  3  0  0  0  0  0  0
   28.7460   31.8730   44.7090 C   0  0  0  0  0  3  0  0  0  0  0  0
   30.0230   32.2230   44.4740 N   0  0  0  0  0  0  0  0  0  0  0  0
  1  6  2  0  0  0  0
  1  2  1  0  0  0  0
  2  3  2  0  0  0  0
  3  4  1  0  0  0  0
  3  8  1  0  0  0  0
  4  9  1  0  0  0  0
  5 10  1  0  0  0  0
  5  4  2  0  0  0  0
  6  5  1  0  0  0  0
  7  2  1  0  0  0  0
 11 17  1  0  0  0  0
 11 12  1  0  0  0  0
 12  1  1  0  0  0  0
 13 19  1  0  0  0  0
 13 12  2  0  0  0  0
 14 13  1  0  0  0  0
 15 14  2  0  0  0  0
 15 16  1  0  0  0  0
 16 11  2  0  0  0  0
 18 15  1  0  0  0  0
 19 21  1  0  0  0  0
 19 22  1  0  0  0  0
 20 19  1  0  0  0  0
 23 26  1  0  0  0  0
 23  6  1  0  0  0  0
 24 25  1  0  0  0  0
 25 30  1  0  0  0  0
 26 27  1  0  0  0  0
 26 25  2  0  0  0  0
 27 28  2  0  0  0  0
 28 32  1  0  0  0  0
 28 29  1  0  0  0  0
 29 33  1  0  0  0  0
 30 29  2  0  0  0  0
 30 34  1  0  0  0  0
 31 27  1  0  0  0  0
 34 41  1  0  0  0  0
 35 37  1  0  0  0  0
 35 34  2  0  0  0  0
 36 35  1  0  0  0  0
 37 39  2  0  0  0  0
 38 37  1  0  0  0  0
 39 40  1  0  0  0  0
 41 40  2  0  0  0  0
M  END
>  <minimizedAffinity>
-3.98007774

>  <minimizedRMSD>
9.50782299

$$$$
