
 OpenBabel03272505123D

 38 41  0  0  0  0  0  0  0  0999 V2000
   36.4260   30.8200   45.5860 Cl  0  0  0  0  0  0  0  0  0  0  0  0
   36.6650   30.6820   47.3060 C   0  0  0  0  0  0  0  0  0  0  0  0
   37.9080   31.0380   47.8010 C   0  0  0  0  0  0  0  0  0  0  0  0
   38.1130   30.9340   49.1630 C   0  0  0  0  0  0  0  0  0  0  0  0
   37.0970   30.4890   49.9740 C   0  0  0  0  0  0  0  0  0  0  0  0
   35.8700   30.1470   49.4060 C   0  0  0  0  0  0  0  0  0  0  0  0
   35.6000   30.2250   48.0690 C   0  0  0  0  0  0  0  0  0  0  0  0
   39.0870   31.2150   49.5360 H   0  0  0  0  0  0  0  0  0  0  0  0
   37.2480   30.4030   51.0500 H   0  0  0  0  0  0  0  0  0  0  0  0
   35.0910   29.7990   50.0800 H   0  0  0  0  0  0  0  0  0  0  0  0
   40.1870   33.3150   46.1000 C   0  0  0  0  0  0  0  0  0  0  0  0
   40.9270   32.4860   45.2340 C   0  0  0  0  0  0  0  0  0  0  0  0
   40.6220   31.1140   45.2480 C   0  0  0  0  0  0  0  0  0  0  0  0
   39.6430   30.6680   46.0860 N   0  0  0  0  0  0  0  0  0  0  0  0
   38.9680   31.5110   46.8930 C   0  0  0  0  0  0  0  0  0  0  0  0
   39.2380   32.8130   46.8970 N   0  0  0  0  0  0  0  0  0  0  0  0
   40.4410   34.3510   46.0670 H   0  0  0  0  0  0  0  0  0  0  0  0
   41.7030   32.8110   44.5660 H   0  0  0  0  0  0  0  0  0  0  0  0
   41.1080   30.3630   44.6390 H   0  0  0  0  0  0  0  0  0  0  0  0
   34.0610   29.8010   47.3290 S   0  0  0  0  0  0  0  0  0  0  0  0
   34.1360   28.8840   44.3250 Cl  0  0  0  0  0  0  0  0  0  0  0  0
   33.9840   27.7090   45.6250 C   0  0  0  0  0  0  0  0  0  0  0  0
   33.9430   28.0440   46.9790 C   0  0  0  0  0  0  0  0  0  0  0  0
   33.8200   27.0400   47.9230 C   0  0  0  0  0  0  0  0  0  0  0  0
   33.7380   25.7380   47.5390 C   0  0  0  0  0  0  0  0  0  0  0  0
   33.7750   25.3690   46.2070 C   0  0  0  0  0  0  0  0  0  0  0  0
   33.8970   26.3650   45.2810 C   0  0  0  0  0  0  0  0  0  0  0  0
   33.8010   27.4430   48.9330 H   0  0  0  0  0  0  0  0  0  0  0  0
   33.6430   25.0190   48.3440 H   0  0  0  0  0  0  0  0  0  0  0  0
   33.7040   24.3230   46.0250 H   0  0  0  0  0  0  0  0  0  0  0  0
   33.9400   26.0220   43.8650 C   0  0  0  0  0  0  0  0  0  0  0  0
   32.8170   25.8690   43.0860 C   0  0  0  0  0  0  0  0  0  0  0  0
   31.8310   26.0010   43.5060 H   0  0  0  0  0  0  0  0  0  0  0  0
   32.8230   25.5460   41.7460 C   0  0  0  0  0  0  0  0  0  0  0  0
   31.9210   25.4350   41.1690 H   0  0  0  0  0  0  0  0  0  0  0  0
   34.0380   25.3560   41.1180 C   0  0  0  0  0  3  0  0  0  0  0  0
   35.1400   25.5180   41.9310 C   0  0  0  0  0  3  0  0  0  0  0  0
   35.0870   25.8310   43.2220 N   0  0  0  0  0  0  0  0  0  0  0  0
  1  2  1  0  0  0  0
  2  3  2  0  0  0  0
  2  7  1  0  0  0  0
  3  4  1  0  0  0  0
  4  8  1  0  0  0  0
  4  5  2  0  0  0  0
  5  9  1  0  0  0  0
  6  5  1  0  0  0  0
  6 10  1  0  0  0  0
  7  6  2  0  0  0  0
 11 16  1  0  0  0  0
 12 13  1  0  0  0  0
 12 11  2  0  0  0  0
 13 14  2  0  0  0  0
 14 15  1  0  0  0  0
 15 16  2  0  0  0  0
 15  3  1  0  0  0  0
 17 11  1  0  0  0  0
 18 12  1  0  0  0  0
 19 13  1  0  0  0  0
 20  7  1  0  0  0  0
 21 22  1  0  0  0  0
 22 23  1  0  0  0  0
 23 20  1  0  0  0  0
 23 24  2  0  0  0  0
 24 28  1  0  0  0  0
 25 24  1  0  0  0  0
 25 29  1  0  0  0  0
 26 25  2  0  0  0  0
 27 22  2  0  0  0  0
 27 26  1  0  0  0  0
 30 26  1  0  0  0  0
 31 27  1  0  0  0  0
 32 33  1  0  0  0  0
 32 31  2  0  0  0  0
 34 32  1  0  0  0  0
 35 34  1  0  0  0  0
 36 34  2  0  0  0  0
 36 37  1  0  0  0  0
 37 38  2  0  0  0  0
 38 31  1  0  0  0  0
M  END
>  <minimizedAffinity>
-5.64568806

>  <minimizedRMSD>
0.653274298

$$$$
