
     RDKit          3D

 43 46  0  0  0  0  0  0  0  0999 V2000
   34.1076   28.7496   45.8733 C   0  0  0  0  0  0  0  0  0  0  0  0
   34.3248   28.2925   44.5873 C   0  0  0  0  0  0  0  0  0  0  0  0
   35.3244   28.7715   43.7385 C   0  0  0  0  0  0  0  0  0  0  0  0
   36.1735   29.7928   44.2230 C   0  0  0  0  0  0  0  0  0  0  0  0
   35.9386   30.2323   45.5057 C   0  0  0  0  0  0  0  0  0  0  0  0
   34.9598   29.7572   46.3266 C   0  0  0  0  0  0  0  0  0  0  0  0
   33.3335   26.9803   47.3281 C   0  0  0  0  0  0  0  0  0  0  0  0
   33.0294   28.1425   46.6005 C   0  0  0  0  0  0  0  0  0  0  0  0
   31.7155   28.6149   46.6406 C   0  0  0  0  0  0  0  0  0  0  0  0
   30.7931   27.9388   47.3741 N   0  0  0  0  0  0  0  0  0  0  0  0
   31.1133   26.8121   48.0723 C   0  0  0  0  0  0  0  0  0  0  0  0
   32.3896   26.3370   48.0446 N   0  0  0  0  0  0  0  0  0  0  0  0
   31.2438   29.8324   45.9194 C   0  0  0  0  0  0  0  0  0  0  0  0
   29.8777   30.0442   46.1963 F   0  0  0  0  0  0  0  0  0  0  0  0
   31.9134   30.9717   46.1767 F   0  0  0  0  0  0  0  0  0  0  0  0
   31.2649   29.6025   44.5499 F   0  0  0  0  0  0  0  0  0  0  0  0
   34.6843   30.3300   47.9627 S   0  0  0  0  0  0  0  0  0  0  0  0
   34.9938   29.1582   50.8260 Cl  0  0  0  0  0  0  0  0  0  0  0  0
   36.2686   30.1292   50.1234 C   0  0  0  0  0  0  0  0  0  0  0  0
   36.1710   30.6977   48.8517 C   0  0  0  0  0  0  0  0  0  0  0  0
   37.1825   31.4658   48.3580 C   0  0  0  0  0  0  0  0  0  0  0  0
   38.3058   31.6678   49.1365 C   0  0  0  0  0  0  0  0  0  0  0  0
   38.4070   31.1001   50.4073 C   0  0  0  0  0  0  0  0  0  0  0  0
   37.3870   30.3257   50.9114 C   0  0  0  0  0  0  0  0  0  0  0  0
   33.6831   27.4969   44.1739 H   0  0  0  0  0  0  0  0  0  0  0  0
   35.3993   28.3267   42.7319 H   0  0  0  0  0  0  0  0  0  0  0  0
   36.8936   30.0769   43.4920 H   0  0  0  0  0  0  0  0  0  0  0  0
   36.6623   30.9898   45.6719 H   0  0  0  0  0  0  0  0  0  0  0  0
   34.3320   26.5865   47.3218 H   0  0  0  0  0  0  0  0  0  0  0  0
   30.3341   26.3128   48.6416 H   0  0  0  0  0  0  0  0  0  0  0  0
   37.1900   31.9693   47.4260 H   0  0  0  0  0  0  0  0  0  0  0  0
   39.1388   32.2712   48.7843 H   0  0  0  0  0  0  0  0  0  0  0  0
   39.3115   31.2967   50.9648 H   0  0  0  0  0  0  0  0  0  0  0  0
   37.4597   29.7193   52.2340 C   0  0  0  0  0  0  0  0  0  0  0  0
   38.4269   28.8302   52.6107 C   0  0  0  0  0  0  0  0  0  0  0  0
   39.1934   28.5358   51.9256 H   0  0  0  0  0  0  0  0  0  0  0  0
   38.5081   28.2456   53.8653 C   0  0  0  0  0  0  0  0  0  0  0  0
   39.2983   27.5454   54.1100 H   0  0  0  0  0  0  0  0  0  0  0  0
   37.5595   28.5676   54.8152 C   0  0  0  0  0  0  0  0  0  0  0  0
   36.5859   29.4657   54.4281 C   0  0  0  0  0  0  0  0  0  0  0  0
   36.5556   30.0030   53.1948 N   0  0  0  0  0  0  0  0  0  0  0  0
   37.5645   28.1480   55.8122 H   0  0  0  0  0  0  0  0  0  0  0  0
   35.8297   29.7297   55.1676 H   0  0  0  0  0  0  0  0  0  0  0  0
  1  6  1  0
  1  8  1  0
  2  1  2  0
  3  4  2  0
  3  2  1  0
  4  5  1  0
  5  6  2  0
  6 17  1  0
  7 12  2  0
  8  9  2  0
  8  7  1  0
  9 10  1  0
 10 11  2  0
 12 11  1  0
 13 15  1  0
 13 14  1  0
 13  9  1  0
 16 13  1  0
 17 20  1  0
 19 18  1  0
 19 24  2  0
 20 19  1  0
 21 20  2  0
 21 22  1  0
 22 23  2  0
 23 24  1  0
  2 25  1  0
  3 26  1  0
  4 27  1  0
  5 28  1  0
  7 29  1  0
 11 30  1  0
 21 31  1  0
 22 32  1  0
 23 33  1  0
 34 35  2  0
 35 36  1  0
 35 37  1  0
 37 38  1  0
 37 39  2  0
 39 40  1  0
 40 41  2  0
 41 34  1  0
 39 42  1  0
 40 43  1  0
 24 34  1  0
M  ISO  8  25  14  26  14  27  14  28  14  29  14  30  14  31  14  32  14
M  ISO  3  33  14  36  15  38  16
M  END
>  <DihAtoms>  (1) 
18,23,33,34

>  <DihDeg>  (1) 
179.971961261612

$$$$
