
 OpenBabel03272506273D

 41 44  0  0  0  0  0  0  0  0999 V2000
   38.1440   30.6140   44.7330 C   0  0  0  0  0  0  0  0  0  0  0  0
   39.4830   30.9130   44.9000 C   0  0  0  0  0  0  0  0  0  0  0  0
   40.0400   31.4030   46.0810 C   0  0  0  0  0  0  0  0  0  0  0  0
   39.1800   31.6100   47.1850 C   0  0  0  0  0  0  0  0  0  0  0  0
   37.8520   31.3050   46.9960 C   0  0  0  0  0  0  0  0  0  0  0  0
   37.3180   30.8260   45.8370 C   0  0  0  0  0  0  0  0  0  0  0  0
   40.1850   30.7650   44.0620 H   0  0  0  0  0  0  0  0  0  0  0  0
   41.1240   31.6050   46.0930 H   0  0  0  0  0  0  0  0  0  0  0  0
   39.7140   31.9840   48.0270 H   0  0  0  0  0  0  0  0  0  0  0  0
   37.3850   31.5340   47.9200 H   0  0  0  0  0  0  0  0  0  0  0  0
   37.8180   28.7320   43.2500 C   0  0  0  0  0  0  0  0  0  0  0  0
   37.7490   30.1220   43.4430 C   0  0  0  0  0  0  0  0  0  0  0  0
   37.3030   30.9100   42.3800 C   0  0  0  0  0  0  0  0  0  0  0  0
   36.9580   30.3090   41.2120 N   0  0  0  0  0  0  0  0  0  0  0  0
   37.0340   28.9570   41.0480 C   0  0  0  0  0  0  0  0  0  0  0  0
   37.4660   28.1720   42.0750 N   0  0  0  0  0  0  0  0  0  0  0  0
   38.1540   28.0940   44.0430 H   0  0  0  0  0  0  0  0  0  0  0  0
   36.7440   28.5310   40.0910 H   0  0  0  0  0  0  0  0  0  0  0  0
   37.1790   32.3950   42.4370 C   0  0  0  0  0  0  0  0  0  0  0  0
   36.7130   32.8770   41.1970 F   0  0  0  0  0  0  0  0  0  0  0  0
   36.3890   32.8890   43.4100 F   0  0  0  0  0  0  0  0  0  0  0  0
   38.4400   32.9660   42.5530 F   0  0  0  0  0  0  0  0  0  0  0  0
   35.6190   30.4390   45.6220 S   0  0  0  0  0  0  0  0  0  0  0  0
   34.1900   27.7290   45.0940 Cl  0  0  0  0  0  0  0  0  0  0  0  0
   34.2880   28.3780   46.7160 C   0  0  0  0  0  0  0  0  0  0  0  0
   34.8970   29.6010   47.0050 C   0  0  0  0  0  0  0  0  0  0  0  0
   34.9260   30.0750   48.2820 C   0  0  0  0  0  0  0  0  0  0  0  0
   34.3460   29.3220   49.2850 C   0  0  0  0  0  0  0  0  0  0  0  0
   33.7370   28.0990   49.0000 C   0  0  0  0  0  0  0  0  0  0  0  0
   33.7020   27.6180   47.7110 C   0  0  0  0  0  0  0  0  0  0  0  0
   35.3290   31.0020   48.5980 H   0  0  0  0  0  0  0  0  0  0  0  0
   34.3470   29.6570   50.3190 H   0  0  0  0  0  0  0  0  0  0  0  0
   33.3010   27.5590   49.8290 H   0  0  0  0  0  0  0  0  0  0  0  0
   33.0740   26.3460   47.3780 C   0  0  0  0  0  0  0  0  0  0  0  0
   33.7260   25.1450   47.4040 C   0  0  0  0  0  0  0  0  0  0  0  0
   34.7580   25.0920   47.6780 H   0  0  0  0  0  0  0  0  0  0  0  0
   33.1410   23.9290   47.0910 C   0  0  0  0  0  0  0  0  0  0  0  0
   33.7070   23.0050   47.1270 H   0  0  0  0  0  0  0  0  0  0  0  0
   31.8100   23.9020   46.7250 C   0  0  0  0  0  3  0  0  0  0  0  0
   31.1570   25.1170   46.7010 C   0  0  0  0  0  3  0  0  0  0  0  0
   31.7760   26.2690   47.0160 N   0  0  0  0  0  0  0  0  0  0  0  0
  1  2  2  0  0  0  0
  1  6  1  0  0  0  0
  2  3  1  0  0  0  0
  3  8  1  0  0  0  0
  3  4  2  0  0  0  0
  4  9  1  0  0  0  0
  5  4  1  0  0  0  0
  5 10  1  0  0  0  0
  6  5  2  0  0  0  0
  7  2  1  0  0  0  0
 11 12  1  0  0  0  0
 11 17  1  0  0  0  0
 12  1  1  0  0  0  0
 13 19  1  0  0  0  0
 13 12  2  0  0  0  0
 14 13  1  0  0  0  0
 15 14  2  0  0  0  0
 15 16  1  0  0  0  0
 16 11  2  0  0  0  0
 18 15  1  0  0  0  0
 19 22  1  0  0  0  0
 19 21  1  0  0  0  0
 20 19  1  0  0  0  0
 23  6  1  0  0  0  0
 23 26  1  0  0  0  0
 24 25  1  0  0  0  0
 25 26  2  0  0  0  0
 25 30  1  0  0  0  0
 26 27  1  0  0  0  0
 27 31  1  0  0  0  0
 27 28  2  0  0  0  0
 28 32  1  0  0  0  0
 29 28  1  0  0  0  0
 29 33  1  0  0  0  0
 30 29  2  0  0  0  0
 34 35  1  0  0  0  0
 34 30  1  0  0  0  0
 35 36  1  0  0  0  0
 37 38  1  0  0  0  0
 37 35  2  0  0  0  0
 39 37  1  0  0  0  0
 40 39  2  0  0  0  0
 40 41  1  0  0  0  0
 41 34  2  0  0  0  0
M  END
>  <minimizedAffinity>
-5.18551779

>  <minimizedRMSD>
6.81852436

$$$$
