
 OpenBabel03272508563D

 39 42  0  0  1  0  0  0  0  0999 V2000
   38.3290   31.8870   44.5540 C   0  0  0  0  0  0  0  0  0  0  0  0
   37.1550   32.3200   44.4430 O   0  0  0  0  0  0  0  0  0  0  0  0
   38.9500   31.7530   45.8610 N   0  0  0  0  0  0  0  0  0  0  0  0
   39.9580   31.6080   45.9860 H   0  0  0  0  0  0  0  0  0  0  0  0
   39.1140   31.5010   43.3700 C   0  0  0  0  0  0  0  0  0  0  0  0
   40.0960   30.5620   43.5100 C   0  0  0  0  0  0  0  0  0  0  0  0
   40.8270   30.2080   42.3880 C   0  0  0  0  0  0  0  0  0  0  0  0
   40.5140   30.8280   41.1950 C   0  0  0  0  0  0  0  0  0  0  0  0
   39.5150   31.7840   41.0520 C   0  0  0  0  0  0  0  0  0  0  0  0
   38.8470   32.0800   42.1790 N   0  0  0  0  0  0  0  0  0  0  0  0
   40.3390   30.0740   44.4590 H   0  0  0  0  0  0  0  0  0  0  0  0
   41.6020   29.4710   42.4840 H   0  0  0  0  0  0  0  0  0  0  0  0
   41.1150   30.5120   40.3630 H   0  0  0  0  0  0  0  0  0  0  0  0
   39.2380   32.3990   39.7620 C   0  0  0  0  0  0  0  0  0  0  0  0
   38.6260   33.4900   39.7230 O   0  0  0  0  0  0  0  0  0  0  0  0
   39.6460   31.7950   38.4990 C   0  0  0  0  0  0  0  0  0  0  0  0
   38.8250   30.8270   37.9580 C   0  0  0  0  0  0  0  0  0  0  0  0
   37.9140   30.5190   38.4400 H   0  0  0  0  0  0  0  0  0  0  0  0
   39.1510   30.2110   36.7600 C   0  0  0  0  0  0  0  0  0  0  0  0
   38.5290   29.4410   36.2990 H   0  0  0  0  0  0  0  0  0  0  0  0
   40.3230   30.6170   36.1560 C   0  0  0  0  0  3  0  0  0  0  0  0
   41.1610   31.5830   36.6760 C   0  0  0  0  0  3  0  0  0  0  0  0
   40.7750   32.1440   37.8560 N   0  0  0  0  0  0  0  0  0  0  0  0
   38.4510   31.1690   48.2230 C   0  0  2  0  0  0  0  0  0  0  0  0
   38.7110   32.6330   48.1850 C   0  0  0  0  0  0  0  0  0  0  0  0
   38.0860   31.8300   47.0130 C   0  0  1  0  0  0  0  0  0  0  0  0
   39.3630   30.5380   48.2830 H   0  0  0  0  0  0  0  0  0  0  0  0
   38.0520   33.3150   48.7510 H   0  0  0  0  0  0  0  0  0  0  0  0
   39.7420   32.9740   48.0790 H   0  0  0  0  0  0  0  0  0  0  0  0
   37.0190   32.1020   46.8390 H   0  0  0  0  0  0  0  0  0  0  0  0
   35.0820   30.2460   49.5050 C   0  0  0  0  0  0  0  0  0  0  0  0
   35.4160   29.5730   50.7210 C   0  0  0  0  0  0  0  0  0  0  0  0
   36.8130   29.4580   51.0850 C   0  0  0  0  0  0  0  0  0  0  0  0
   37.7720   29.9950   50.2590 N   0  0  0  0  0  0  0  0  0  0  0  0
   37.3630   30.6190   49.1190 C   0  0  0  0  0  0  0  0  0  0  0  0
   36.0420   30.7650   48.7090 N   0  0  0  0  0  0  0  0  0  0  0  0
   34.0600   30.3310   49.2370 H   0  0  0  0  0  0  0  0  0  0  0  0
   34.6700   29.1570   51.3600 H   0  0  0  0  0  0  0  0  0  0  0  0
   37.0540   28.9510   52.0000 H   0  0  0  0  0  0  0  0  0  0  0  0
  1  3  1  0  0  0  0
  2  1  2  0  0  0  0
  3  4  1  0  0  0  0
  3 26  1  0  0  0  0
  5  6  1  0  0  0  0
  5  1  1  0  0  0  0
  6 11  1  0  0  0  0
  7 12  1  0  0  0  0
  7  6  2  0  0  0  0
  8  7  1  0  0  0  0
  9  8  2  0  0  0  0
  9 10  1  0  0  0  0
 10  5  2  0  0  0  0
 13  8  1  0  0  0  0
 14  9  1  0  0  0  0
 15 14  2  0  0  0  0
 16 14  1  0  0  0  0
 17 18  1  0  0  0  0
 17 16  1  0  0  0  0
 19 17  2  0  0  0  0
 20 19  1  0  0  0  0
 21 22  2  0  0  0  0
 21 19  1  0  0  0  0
 22 23  1  0  0  0  0
 23 16  2  0  0  0  0
 24 27  1  6  0  0  0
 24 35  1  0  0  0  0
 25 24  1  0  0  0  0
 25 28  1  0  0  0  0
 26 30  1  6  0  0  0
 26 25  1  0  0  0  0
 26 24  1  0  0  0  0
 29 25  1  0  0  0  0
 31 32  1  0  0  0  0
 32 33  2  0  0  0  0
 32 38  1  0  0  0  0
 33 39  1  0  0  0  0
 34 33  1  0  0  0  0
 35 34  2  0  0  0  0
 36 35  1  0  0  0  0
 36 31  2  0  0  0  0
 37 31  1  0  0  0  0
M  END
>  <minimizedAffinity>
-4.96761322

>  <minimizedRMSD>
0.600848854

$$$$
