
 OpenBabel03272500553D

 31 33  0  0  0  0  0  0  0  0999 V2000
   39.6230   22.7240   36.8110 C   0  0  0  0  0  0  0  0  0  0  0  0
   39.8670   23.0020   38.1480 C   0  0  0  0  0  0  0  0  0  0  0  0
   38.9740   23.7170   38.9330 C   0  0  0  0  0  0  0  0  0  0  0  0
   37.7650   24.1840   38.3470 C   0  0  0  0  0  0  0  0  0  0  0  0
   37.5640   23.8870   37.0240 C   0  0  0  0  0  0  0  0  0  0  0  0
   38.4340   23.1840   36.2560 C   0  0  0  0  0  0  0  0  0  0  0  0
   40.7850   22.6590   38.6240 H   0  0  0  0  0  0  0  0  0  0  0  0
   39.2570   23.8850   39.9800 H   0  0  0  0  0  0  0  0  0  0  0  0
   37.1830   24.7190   39.0800 H   0  0  0  0  0  0  0  0  0  0  0  0
   36.6380   24.3720   36.7970 H   0  0  0  0  0  0  0  0  0  0  0  0
   41.5470   21.2590   36.9180 C   0  0  0  0  0  0  0  0  0  0  0  0
   40.6830   22.0230   36.1150 C   0  0  0  0  0  0  0  0  0  0  0  0
   40.9390   22.0260   34.7350 C   0  0  0  0  0  0  0  0  0  0  0  0
   41.9680   21.3210   34.2430 N   0  0  0  0  0  0  0  0  0  0  0  0
   42.7830   20.5970   35.0200 C   0  0  0  0  0  0  0  0  0  0  0  0
   42.5660   20.5740   36.3460 N   0  0  0  0  0  0  0  0  0  0  0  0
   41.4290   21.1970   37.9870 H   0  0  0  0  0  0  0  0  0  0  0  0
   40.2410   22.6340   34.1550 H   0  0  0  0  0  0  0  0  0  0  0  0
   43.6070   20.0340   34.6140 H   0  0  0  0  0  0  0  0  0  0  0  0
   37.1810   21.8430   34.8030 C   0  0  0  0  0  0  0  0  0  0  0  0
   36.6770   21.3390   35.8660 O   0  0  0  0  0  0  0  0  0  0  0  0
   38.1950   22.8600   34.9170 N   0  0  0  0  0  0  0  0  0  0  0  0
   38.6750   23.2910   34.1240 H   0  0  0  0  0  0  0  0  0  0  0  0
   36.7550   21.4140   33.4490 C   0  0  0  0  0  0  0  0  0  0  0  0
   35.6190   20.6400   33.3560 C   0  0  0  0  0  0  0  0  0  0  0  0
   35.0170   20.3210   34.1850 H   0  0  0  0  0  0  0  0  0  0  0  0
   35.2260   20.2430   32.0920 C   0  0  0  0  0  0  0  0  0  0  0  0
   34.3510   19.6290   31.8600 H   0  0  0  0  0  0  0  0  0  0  0  0
   35.9860   20.6400   30.9910 C   0  0  0  0  0  3  0  0  0  0  0  0
   37.1300   21.4240   31.1200 C   0  0  0  0  0  3  0  0  0  0  0  0
   37.4820   21.7910   32.3670 N   0  0  0  0  0  0  0  0  0  0  0  0
  1  2  1  0  0  0  0
  2  7  1  0  0  0  0
  2  3  2  0  0  0  0
  3  8  1  0  0  0  0
  4  3  1  0  0  0  0
  4  9  1  0  0  0  0
  5  4  2  0  0  0  0
  6  1  2  0  0  0  0
  6  5  1  0  0  0  0
 10  5  1  0  0  0  0
 11 17  1  0  0  0  0
 12  1  1  0  0  0  0
 12 11  2  0  0  0  0
 13 12  1  0  0  0  0
 14 13  2  0  0  0  0
 14 15  1  0  0  0  0
 15 16  2  0  0  0  0
 16 11  1  0  0  0  0
 18 13  1  0  0  0  0
 19 15  1  0  0  0  0
 20 22  1  0  0  0  0
 20 21  2  0  0  0  0
 22  6  1  0  0  0  0
 23 22  1  0  0  0  0
 24 20  1  0  0  0  0
 25 24  1  0  0  0  0
 25 26  1  0  0  0  0
 27 25  2  0  0  0  0
 28 27  1  0  0  0  0
 29 30  2  0  0  0  0
 29 27  1  0  0  0  0
 30 31  1  0  0  0  0
 31 24  2  0  0  0  0
M  END
>  <minimizedAffinity>
-5.43331623

$$$$

 OpenBabel03272500553D

 31 33  0  0  0  0  0  0  0  0999 V2000
   39.3980   25.5510   34.6680 C   0  0  0  0  0  0  0  0  0  0  0  0
   40.4850   26.4050   34.7830 C   0  0  0  0  0  0  0  0  0  0  0  0
   40.9620   27.1510   33.7140 C   0  0  0  0  0  0  0  0  0  0  0  0
   40.3140   27.0350   32.4530 C   0  0  0  0  0  0  0  0  0  0  0  0
   39.2440   26.1800   32.3840 C   0  0  0  0  0  0  0  0  0  0  0  0
   38.7740   25.4540   33.4300 C   0  0  0  0  0  0  0  0  0  0  0  0
   41.0030   26.5130   35.7360 H   0  0  0  0  0  0  0  0  0  0  0  0
   41.8270   27.7980   33.9050 H   0  0  0  0  0  0  0  0  0  0  0  0
   40.7980   27.6710   31.7300 H   0  0  0  0  0  0  0  0  0  0  0  0
   38.9590   26.2200   31.3530 H   0  0  0  0  0  0  0  0  0  0  0  0
   39.8420   23.6480   36.0970 C   0  0  0  0  0  0  0  0  0  0  0  0
   39.0680   24.7970   35.8600 C   0  0  0  0  0  0  0  0  0  0  0  0
   38.0640   25.0880   36.7980 C   0  0  0  0  0  0  0  0  0  0  0  0
   37.8820   24.2850   37.8560 N   0  0  0  0  0  0  0  0  0  0  0  0
   38.6270   23.1940   38.0690 C   0  0  0  0  0  0  0  0  0  0  0  0
   39.5960   22.8860   37.1900 N   0  0  0  0  0  0  0  0  0  0  0  0
   40.6340   23.3460   35.4320 H   0  0  0  0  0  0  0  0  0  0  0  0
   37.4910   25.9900   36.5690 H   0  0  0  0  0  0  0  0  0  0  0  0
   38.4730   22.5550   38.9220 H   0  0  0  0  0  0  0  0  0  0  0  0
   38.0100   23.3430   32.7700 C   0  0  0  0  0  0  0  0  0  0  0  0
   39.2110   23.1450   32.3720 O   0  0  0  0  0  0  0  0  0  0  0  0
   37.6590   24.6140   33.3480 N   0  0  0  0  0  0  0  0  0  0  0  0
   36.7200   24.8700   33.6590 H   0  0  0  0  0  0  0  0  0  0  0  0
   36.9620   22.3000   32.6570 C   0  0  0  0  0  0  0  0  0  0  0  0
   36.3200   22.1710   31.4440 C   0  0  0  0  0  0  0  0  0  0  0  0
   36.5190   22.7660   30.5730 H   0  0  0  0  0  0  0  0  0  0  0  0
   35.3440   21.1990   31.3450 C   0  0  0  0  0  0  0  0  0  0  0  0
   34.7520   20.9790   30.4520 H   0  0  0  0  0  0  0  0  0  0  0  0
   35.0610   20.4080   32.4590 C   0  0  0  0  0  3  0  0  0  0  0  0
   35.7290   20.5630   33.6710 C   0  0  0  0  0  3  0  0  0  0  0  0
   36.6740   21.5210   33.7310 N   0  0  0  0  0  0  0  0  0  0  0  0
  1  2  1  0  0  0  0
  1 12  1  0  0  0  0
  2  7  1  0  0  0  0
  3  8  1  0  0  0  0
  3  2  2  0  0  0  0
  4  3  1  0  0  0  0
  5  4  2  0  0  0  0
  5  6  1  0  0  0  0
  6  1  2  0  0  0  0
  9  4  1  0  0  0  0
 10  5  1  0  0  0  0
 11 16  1  0  0  0  0
 12 11  2  0  0  0  0
 12 13  1  0  0  0  0
 13 14  2  0  0  0  0
 14 15  1  0  0  0  0
 15 19  1  0  0  0  0
 16 15  2  0  0  0  0
 17 11  1  0  0  0  0
 18 13  1  0  0  0  0
 20 22  1  0  0  0  0
 21 20  2  0  0  0  0
 22  6  1  0  0  0  0
 22 23  1  0  0  0  0
 24 20  1  0  0  0  0
 24 31  1  0  0  0  0
 25 24  2  0  0  0  0
 26 25  1  0  0  0  0
 27 25  1  0  0  0  0
 27 29  2  0  0  0  0
 28 27  1  0  0  0  0
 29 30  1  0  0  0  0
 30 31  2  0  0  0  0
M  END
>  <minimizedAffinity>
-5.42200899

$$$$

 OpenBabel03272500553D

 31 33  0  0  0  0  0  0  0  0999 V2000
   36.3850   23.1710   31.9730 C   0  0  0  0  0  0  0  0  0  0  0  0
   35.3760   23.8300   31.2870 C   0  0  0  0  0  0  0  0  0  0  0  0
   35.4050   25.1970   31.0540 C   0  0  0  0  0  0  0  0  0  0  0  0
   36.5090   25.9530   31.5380 C   0  0  0  0  0  0  0  0  0  0  0  0
   37.4840   25.2630   32.2110 C   0  0  0  0  0  0  0  0  0  0  0  0
   37.4590   23.9240   32.4350 C   0  0  0  0  0  0  0  0  0  0  0  0
   34.5170   23.2770   30.9060 H   0  0  0  0  0  0  0  0  0  0  0  0
   34.5600   25.6260   30.5000 H   0  0  0  0  0  0  0  0  0  0  0  0
   36.3850   26.9930   31.2800 H   0  0  0  0  0  0  0  0  0  0  0  0
   38.1670   26.0280   32.5150 H   0  0  0  0  0  0  0  0  0  0  0  0
   36.4480   20.9160   31.0940 C   0  0  0  0  0  0  0  0  0  0  0  0
   36.1730   21.7540   32.1880 C   0  0  0  0  0  0  0  0  0  0  0  0
   35.7240   21.1310   33.3640 C   0  0  0  0  0  0  0  0  0  0  0  0
   35.5770   19.8000   33.4030 N   0  0  0  0  0  0  0  0  0  0  0  0
   35.8430   19.0140   32.3530 C   0  0  0  0  0  0  0  0  0  0  0  0
   36.2740   19.5780   31.2110 N   0  0  0  0  0  0  0  0  0  0  0  0
   36.7960   21.3040   30.1510 H   0  0  0  0  0  0  0  0  0  0  0  0
   35.5240   21.8250   34.1850 H   0  0  0  0  0  0  0  0  0  0  0  0
   35.7220   17.9450   32.3940 H   0  0  0  0  0  0  0  0  0  0  0  0
   38.5900   23.6540   34.4660 C   0  0  0  0  0  0  0  0  0  0  0  0
   37.8290   24.5880   34.8970 O   0  0  0  0  0  0  0  0  0  0  0  0
   38.4800   23.2330   33.0930 N   0  0  0  0  0  0  0  0  0  0  0  0
   39.0690   22.5210   32.6560 H   0  0  0  0  0  0  0  0  0  0  0  0
   39.5860   22.9840   35.3370 C   0  0  0  0  0  0  0  0  0  0  0  0
   39.3970   23.0670   36.6990 C   0  0  0  0  0  0  0  0  0  0  0  0
   38.5860   23.5780   37.1820 H   0  0  0  0  0  0  0  0  0  0  0  0
   40.3280   22.4420   37.5070 C   0  0  0  0  0  0  0  0  0  0  0  0
   40.3120   22.4210   38.6000 H   0  0  0  0  0  0  0  0  0  0  0  0
   41.3950   21.7680   36.9110 C   0  0  0  0  0  3  0  0  0  0  0  0
   41.5570   21.7030   35.5300 C   0  0  0  0  0  3  0  0  0  0  0  0
   40.6300   22.3240   34.7750 N   0  0  0  0  0  0  0  0  0  0  0  0
  1 12  1  0  0  0  0
  1  6  1  0  0  0  0
  2  1  2  0  0  0  0
  3  2  1  0  0  0  0
  3  4  2  0  0  0  0
  4  5  1  0  0  0  0
  5  6  2  0  0  0  0
  5 10  1  0  0  0  0
  6 22  1  0  0  0  0
  7  2  1  0  0  0  0
  8  3  1  0  0  0  0
  9  4  1  0  0  0  0
 11 16  2  0  0  0  0
 11 12  1  0  0  0  0
 12 13  2  0  0  0  0
 13 14  1  0  0  0  0
 13 18  1  0  0  0  0
 15 19  1  0  0  0  0
 15 14  2  0  0  0  0
 16 15  1  0  0  0  0
 17 11  1  0  0  0  0
 20 21  2  0  0  0  0
 20 24  1  0  0  0  0
 22 20  1  0  0  0  0
 23 22  1  0  0  0  0
 24 25  1  0  0  0  0
 25 26  1  0  0  0  0
 25 27  2  0  0  0  0
 27 28  1  0  0  0  0
 29 27  1  0  0  0  0
 30 29  2  0  0  0  0
 31 24  2  0  0  0  0
 31 30  1  0  0  0  0
M  END
>  <minimizedAffinity>
-5.16998005

$$$$

 OpenBabel03272500553D

 31 33  0  0  0  0  0  0  0  0999 V2000
   39.5530   23.8340   35.9610 C   0  0  0  0  0  0  0  0  0  0  0  0
   40.1640   23.1260   36.9850 C   0  0  0  0  0  0  0  0  0  0  0  0
   39.5750   22.9610   38.2300 C   0  0  0  0  0  0  0  0  0  0  0  0
   38.2990   23.5410   38.4680 C   0  0  0  0  0  0  0  0  0  0  0  0
   37.7300   24.2330   37.4300 C   0  0  0  0  0  0  0  0  0  0  0  0
   38.3030   24.3910   36.2090 C   0  0  0  0  0  0  0  0  0  0  0  0
   41.1430   22.6710   36.8320 H   0  0  0  0  0  0  0  0  0  0  0  0
   40.1370   22.3830   38.9740 H   0  0  0  0  0  0  0  0  0  0  0  0
   37.9780   23.3280   39.4750 H   0  0  0  0  0  0  0  0  0  0  0  0
   36.8220   24.6120   37.8490 H   0  0  0  0  0  0  0  0  0  0  0  0
   41.2960   24.9870   34.7390 C   0  0  0  0  0  0  0  0  0  0  0  0
   40.3290   23.9680   34.7450 C   0  0  0  0  0  0  0  0  0  0  0  0
   40.2190   23.1950   33.5780 C   0  0  0  0  0  0  0  0  0  0  0  0
   41.0150   23.4460   32.5300 N   0  0  0  0  0  0  0  0  0  0  0  0
   41.9320   24.4200   32.5390 C   0  0  0  0  0  0  0  0  0  0  0  0
   42.0630   25.1800   33.6400 N   0  0  0  0  0  0  0  0  0  0  0  0
   41.4520   25.6310   35.5890 H   0  0  0  0  0  0  0  0  0  0  0  0
   39.4530   22.4170   33.6320 H   0  0  0  0  0  0  0  0  0  0  0  0
   42.5680   24.6140   31.6910 H   0  0  0  0  0  0  0  0  0  0  0  0
   37.8480   26.4950   35.2920 C   0  0  0  0  0  0  0  0  0  0  0  0
   38.4430   26.9610   36.3250 O   0  0  0  0  0  0  0  0  0  0  0  0
   37.6930   25.0700   35.1510 N   0  0  0  0  0  0  0  0  0  0  0  0
   37.2020   24.6140   34.3790 H   0  0  0  0  0  0  0  0  0  0  0  0
   37.3110   27.3770   34.2280 C   0  0  0  0  0  0  0  0  0  0  0  0
   37.8680   27.2690   32.9720 C   0  0  0  0  0  0  0  0  0  0  0  0
   38.6610   26.5980   32.7020 H   0  0  0  0  0  0  0  0  0  0  0  0
   37.3650   28.0940   31.9830 C   0  0  0  0  0  0  0  0  0  0  0  0
   37.7040   28.1230   30.9440 H   0  0  0  0  0  0  0  0  0  0  0  0
   36.3340   28.9780   32.3010 C   0  0  0  0  0  3  0  0  0  0  0  0
   35.7920   29.0620   33.5810 C   0  0  0  0  0  3  0  0  0  0  0  0
   36.3080   28.2440   34.5180 N   0  0  0  0  0  0  0  0  0  0  0  0
  1  6  2  0  0  0  0
  1  2  1  0  0  0  0
  2  3  2  0  0  0  0
  3  4  1  0  0  0  0
  3  8  1  0  0  0  0
  4  9  1  0  0  0  0
  5 10  1  0  0  0  0
  5  4  2  0  0  0  0
  6  5  1  0  0  0  0
  7  2  1  0  0  0  0
 11 12  1  0  0  0  0
 11 17  1  0  0  0  0
 12  1  1  0  0  0  0
 13 18  1  0  0  0  0
 13 12  2  0  0  0  0
 14 15  2  0  0  0  0
 14 13  1  0  0  0  0
 15 16  1  0  0  0  0
 16 11  2  0  0  0  0
 19 15  1  0  0  0  0
 20 21  2  0  0  0  0
 22 20  1  0  0  0  0
 22  6  1  0  0  0  0
 23 22  1  0  0  0  0
 24 31  1  0  0  0  0
 24 20  1  0  0  0  0
 25 24  2  0  0  0  0
 26 25  1  0  0  0  0
 27 29  2  0  0  0  0
 27 25  1  0  0  0  0
 28 27  1  0  0  0  0
 29 30  1  0  0  0  0
 30 31  2  0  0  0  0
M  END
>  <minimizedAffinity>
-5.11545706

$$$$

 OpenBabel03272500553D

 31 33  0  0  0  0  0  0  0  0999 V2000
   37.0720   27.2090   32.4780 C   0  0  0  0  0  0  0  0  0  0  0  0
   36.7920   28.3900   31.8060 C   0  0  0  0  0  0  0  0  0  0  0  0
   36.2490   29.4970   32.4420 C   0  0  0  0  0  0  0  0  0  0  0  0
   35.9670   29.4190   33.8340 C   0  0  0  0  0  0  0  0  0  0  0  0
   36.2580   28.2340   34.4600 C   0  0  0  0  0  0  0  0  0  0  0  0
   36.7930   27.1520   33.8400 C   0  0  0  0  0  0  0  0  0  0  0  0
   36.9970   28.4780   30.7390 H   0  0  0  0  0  0  0  0  0  0  0  0
   36.0650   30.3850   31.8250 H   0  0  0  0  0  0  0  0  0  0  0  0
   35.5500   30.3520   34.1790 H   0  0  0  0  0  0  0  0  0  0  0  0
   35.9210   28.3920   35.4630 H   0  0  0  0  0  0  0  0  0  0  0  0
   38.9470   26.1720   31.3530 C   0  0  0  0  0  0  0  0  0  0  0  0
   37.5760   26.1270   31.6570 C   0  0  0  0  0  0  0  0  0  0  0  0
   36.8470   25.0460   31.1360 C   0  0  0  0  0  0  0  0  0  0  0  0
   37.4640   24.1210   30.3880 N   0  0  0  0  0  0  0  0  0  0  0  0
   38.7710   24.1760   30.1060 C   0  0  0  0  0  0  0  0  0  0  0  0
   39.4980   25.1980   30.5880 N   0  0  0  0  0  0  0  0  0  0  0  0
   39.5860   26.9630   31.7080 H   0  0  0  0  0  0  0  0  0  0  0  0
   35.7870   25.0570   31.4010 H   0  0  0  0  0  0  0  0  0  0  0  0
   39.2580   23.4270   29.5040 H   0  0  0  0  0  0  0  0  0  0  0  0
   38.3610   26.0910   35.2160 C   0  0  0  0  0  0  0  0  0  0  0  0
   39.0210   27.1840   35.1330 O   0  0  0  0  0  0  0  0  0  0  0  0
   37.1160   25.9640   34.5020 N   0  0  0  0  0  0  0  0  0  0  0  0
   36.5420   25.1180   34.4830 H   0  0  0  0  0  0  0  0  0  0  0  0
   38.8350   24.9430   36.0260 C   0  0  0  0  0  0  0  0  0  0  0  0
   38.1130   24.6210   37.1550 C   0  0  0  0  0  0  0  0  0  0  0  0
   37.2340   25.1350   37.4950 H   0  0  0  0  0  0  0  0  0  0  0  0
   38.5590   23.5510   37.9070 C   0  0  0  0  0  0  0  0  0  0  0  0
   38.0930   23.1790   38.8240 H   0  0  0  0  0  0  0  0  0  0  0  0
   39.6990   22.8610   37.4930 C   0  0  0  0  0  3  0  0  0  0  0  0
   40.4050   23.2120   36.3450 C   0  0  0  0  0  3  0  0  0  0  0  0
   39.9410   24.2600   35.6380 N   0  0  0  0  0  0  0  0  0  0  0  0
  1  6  1  0  0  0  0
  2  3  1  0  0  0  0
  2  1  2  0  0  0  0
  3  4  2  0  0  0  0
  4  9  1  0  0  0  0
  4  5  1  0  0  0  0
  5 10  1  0  0  0  0
  6  5  2  0  0  0  0
  6 22  1  0  0  0  0
  7  2  1  0  0  0  0
  8  3  1  0  0  0  0
 11 12  1  0  0  0  0
 11 17  1  0  0  0  0
 12  1  1  0  0  0  0
 13 18  1  0  0  0  0
 13 12  2  0  0  0  0
 14 13  1  0  0  0  0
 15 14  2  0  0  0  0
 15 16  1  0  0  0  0
 16 11  2  0  0  0  0
 19 15  1  0  0  0  0
 20 24  1  0  0  0  0
 21 20  2  0  0  0  0
 22 20  1  0  0  0  0
 23 22  1  0  0  0  0
 24 25  1  0  0  0  0
 25 26  1  0  0  0  0
 25 27  2  0  0  0  0
 27 28  1  0  0  0  0
 29 27  1  0  0  0  0
 30 29  2  0  0  0  0
 31 24  2  0  0  0  0
 31 30  1  0  0  0  0
M  END
>  <minimizedAffinity>
-5.04201984

$$$$

 OpenBabel03272500553D

 31 33  0  0  0  0  0  0  0  0999 V2000
   38.9240   26.5480   31.7170 C   0  0  0  0  0  0  0  0  0  0  0  0
   39.2940   27.6590   30.9740 C   0  0  0  0  0  0  0  0  0  0  0  0
   39.6980   27.5680   29.6490 C   0  0  0  0  0  0  0  0  0  0  0  0
   39.7360   26.2880   29.0300 C   0  0  0  0  0  0  0  0  0  0  0  0
   39.3620   25.2170   29.8000 C   0  0  0  0  0  0  0  0  0  0  0  0
   38.9620   25.3050   31.0940 C   0  0  0  0  0  0  0  0  0  0  0  0
   39.2770   28.6530   31.4220 H   0  0  0  0  0  0  0  0  0  0  0  0
   39.9710   28.5040   29.1460 H   0  0  0  0  0  0  0  0  0  0  0  0
   40.0690   26.3820   28.0090 H   0  0  0  0  0  0  0  0  0  0  0  0
   39.5150   24.3780   29.1530 H   0  0  0  0  0  0  0  0  0  0  0  0
   39.6730   26.8670   33.9960 C   0  0  0  0  0  0  0  0  0  0  0  0
   38.5900   26.8060   33.1020 C   0  0  0  0  0  0  0  0  0  0  0  0
   37.3100   27.0020   33.6460 C   0  0  0  0  0  0  0  0  0  0  0  0
   37.1670   27.2310   34.9580 N   0  0  0  0  0  0  0  0  0  0  0  0
   38.2080   27.2860   35.7980 C   0  0  0  0  0  0  0  0  0  0  0  0
   39.4470   27.1030   35.3110 N   0  0  0  0  0  0  0  0  0  0  0  0
   40.6900   26.7280   33.6710 H   0  0  0  0  0  0  0  0  0  0  0  0
   36.5030   26.9450   32.9110 H   0  0  0  0  0  0  0  0  0  0  0  0
   38.0820   27.4720   36.8520 H   0  0  0  0  0  0  0  0  0  0  0  0
   37.1890   23.8460   31.5480 C   0  0  0  0  0  0  0  0  0  0  0  0
   36.5270   24.5530   30.7110 O   0  0  0  0  0  0  0  0  0  0  0  0
   38.5500   24.2050   31.8520 N   0  0  0  0  0  0  0  0  0  0  0  0
   39.1400   23.7200   32.5320 H   0  0  0  0  0  0  0  0  0  0  0  0
   36.6000   22.6620   32.2170 C   0  0  0  0  0  0  0  0  0  0  0  0
   35.5200   22.0600   31.6100 C   0  0  0  0  0  0  0  0  0  0  0  0
   35.0690   22.3800   30.6900 H   0  0  0  0  0  0  0  0  0  0  0  0
   34.9740   20.9570   32.2390 C   0  0  0  0  0  0  0  0  0  0  0  0
   34.1190   20.3760   31.8800 H   0  0  0  0  0  0  0  0  0  0  0  0
   35.5360   20.5140   33.4370 C   0  0  0  0  0  3  0  0  0  0  0  0
   36.6300   21.1460   34.0240 C   0  0  0  0  0  3  0  0  0  0  0  0
   37.1340   22.2180   33.3840 N   0  0  0  0  0  0  0  0  0  0  0  0
  1 12  1  0  0  0  0
  2  7  1  0  0  0  0
  2  1  2  0  0  0  0
  3  2  1  0  0  0  0
  4  3  2  0  0  0  0
  4  5  1  0  0  0  0
  5  6  2  0  0  0  0
  6  1  1  0  0  0  0
  6 22  1  0  0  0  0
  8  3  1  0  0  0  0
  9  4  1  0  0  0  0
 10  5  1  0  0  0  0
 11 16  1  0  0  0  0
 12 13  1  0  0  0  0
 12 11  2  0  0  0  0
 13 14  2  0  0  0  0
 14 15  1  0  0  0  0
 15 19  1  0  0  0  0
 16 15  2  0  0  0  0
 17 11  1  0  0  0  0
 18 13  1  0  0  0  0
 20 22  1  0  0  0  0
 20 24  1  0  0  0  0
 21 20  2  0  0  0  0
 22 23  1  0  0  0  0
 24 31  1  0  0  0  0
 25 24  2  0  0  0  0
 25 27  1  0  0  0  0
 26 25  1  0  0  0  0
 27 29  2  0  0  0  0
 28 27  1  0  0  0  0
 29 30  1  0  0  0  0
 31 30  2  0  0  0  0
M  END
>  <minimizedAffinity>
-4.94585419

$$$$

 OpenBabel03272500553D

 31 33  0  0  0  0  0  0  0  0999 V2000
   38.0430   25.7830   33.7260 C   0  0  0  0  0  0  0  0  0  0  0  0
   37.0290   26.7200   33.5990 C   0  0  0  0  0  0  0  0  0  0  0  0
   36.8680   27.7680   34.4950 C   0  0  0  0  0  0  0  0  0  0  0  0
   37.7740   27.8840   35.5850 C   0  0  0  0  0  0  0  0  0  0  0  0
   38.7610   26.9360   35.6740 C   0  0  0  0  0  0  0  0  0  0  0  0
   38.9220   25.9140   34.7960 C   0  0  0  0  0  0  0  0  0  0  0  0
   36.3190   26.6560   32.7750 H   0  0  0  0  0  0  0  0  0  0  0  0
   36.0360   28.4590   34.3090 H   0  0  0  0  0  0  0  0  0  0  0  0
   37.5180   28.7410   36.1880 H   0  0  0  0  0  0  0  0  0  0  0  0
   39.2740   27.1930   36.5770 H   0  0  0  0  0  0  0  0  0  0  0  0
   38.6120   25.0180   31.5010 C   0  0  0  0  0  0  0  0  0  0  0  0
   38.0340   24.7160   32.7460 C   0  0  0  0  0  0  0  0  0  0  0  0
   37.5130   23.4220   32.9040 C   0  0  0  0  0  0  0  0  0  0  0  0
   37.5820   22.5440   31.8930 N   0  0  0  0  0  0  0  0  0  0  0  0
   38.1360   22.8460   30.7130 C   0  0  0  0  0  0  0  0  0  0  0  0
   38.6430   24.0760   30.5280 N   0  0  0  0  0  0  0  0  0  0  0  0
   39.0360   25.9850   31.2880 H   0  0  0  0  0  0  0  0  0  0  0  0
   37.0750   23.2370   33.8880 H   0  0  0  0  0  0  0  0  0  0  0  0
   38.1870   22.1330   29.9070 H   0  0  0  0  0  0  0  0  0  0  0  0
   39.6840   23.9990   35.9030 C   0  0  0  0  0  0  0  0  0  0  0  0
   38.6230   24.1090   36.6100 O   0  0  0  0  0  0  0  0  0  0  0  0
   39.9560   24.9780   34.8830 N   0  0  0  0  0  0  0  0  0  0  0  0
   40.7940   24.9870   34.2970 H   0  0  0  0  0  0  0  0  0  0  0  0
   40.6490   22.8900   36.0980 C   0  0  0  0  0  0  0  0  0  0  0  0
   40.7660   22.3650   37.3670 C   0  0  0  0  0  0  0  0  0  0  0  0
   40.2150   22.6960   38.2270 H   0  0  0  0  0  0  0  0  0  0  0  0
   41.6670   21.3320   37.5440 C   0  0  0  0  0  0  0  0  0  0  0  0
   41.8690   20.8180   38.4880 H   0  0  0  0  0  0  0  0  0  0  0  0
   42.3990   20.8780   36.4470 C   0  0  0  0  0  3  0  0  0  0  0  0
   42.2560   21.4300   35.1760 C   0  0  0  0  0  3  0  0  0  0  0  0
   41.3700   22.4350   35.0420 N   0  0  0  0  0  0  0  0  0  0  0  0
  1  6  1  0  0  0  0
  2  1  2  0  0  0  0
  2  3  1  0  0  0  0
  3  4  2  0  0  0  0
  4  5  1  0  0  0  0
  4  9  1  0  0  0  0
  5 10  1  0  0  0  0
  6 22  1  0  0  0  0
  6  5  2  0  0  0  0
  7  2  1  0  0  0  0
  8  3  1  0  0  0  0
 11 12  1  0  0  0  0
 12 13  2  0  0  0  0
 12  1  1  0  0  0  0
 13 18  1  0  0  0  0
 14 13  1  0  0  0  0
 15 14  2  0  0  0  0
 16 15  1  0  0  0  0
 16 11  2  0  0  0  0
 17 11  1  0  0  0  0
 19 15  1  0  0  0  0
 20 24  1  0  0  0  0
 20 21  2  0  0  0  0
 22 20  1  0  0  0  0
 23 22  1  0  0  0  0
 24 25  1  0  0  0  0
 25 27  2  0  0  0  0
 25 26  1  0  0  0  0
 27 28  1  0  0  0  0
 29 27  1  0  0  0  0
 30 29  2  0  0  0  0
 31 30  1  0  0  0  0
 31 24  2  0  0  0  0
M  END
>  <minimizedAffinity>
-4.94073486

$$$$

 OpenBabel03272500553D

 31 33  0  0  0  0  0  0  0  0999 V2000
   39.2790   27.1070   32.5550 C   0  0  0  0  0  0  0  0  0  0  0  0
   38.9940   27.6410   31.3080 C   0  0  0  0  0  0  0  0  0  0  0  0
   37.7390   28.1310   30.9770 C   0  0  0  0  0  0  0  0  0  0  0  0
   36.7040   28.0820   31.9530 C   0  0  0  0  0  0  0  0  0  0  0  0
   37.0280   27.5460   33.1720 C   0  0  0  0  0  0  0  0  0  0  0  0
   38.2570   27.0710   33.4980 C   0  0  0  0  0  0  0  0  0  0  0  0
   39.7670   27.6910   30.5400 H   0  0  0  0  0  0  0  0  0  0  0  0
   37.6130   28.5350   29.9650 H   0  0  0  0  0  0  0  0  0  0  0  0
   35.7950   28.4960   31.5470 H   0  0  0  0  0  0  0  0  0  0  0  0
   36.1030   27.5680   33.7080 H   0  0  0  0  0  0  0  0  0  0  0  0
   41.5760   27.4760   33.2240 C   0  0  0  0  0  0  0  0  0  0  0  0
   40.6180   26.5800   32.7180 C   0  0  0  0  0  0  0  0  0  0  0  0
   41.0610   25.2800   32.4280 C   0  0  0  0  0  0  0  0  0  0  0  0
   42.3430   24.9460   32.6350 N   0  0  0  0  0  0  0  0  0  0  0  0
   43.2440   25.8110   33.1180 C   0  0  0  0  0  0  0  0  0  0  0  0
   42.8530   27.0640   33.4060 N   0  0  0  0  0  0  0  0  0  0  0  0
   41.3290   28.4940   33.4760 H   0  0  0  0  0  0  0  0  0  0  0  0
   40.2810   24.6220   32.0370 H   0  0  0  0  0  0  0  0  0  0  0  0
   44.2720   25.5320   33.2810 H   0  0  0  0  0  0  0  0  0  0  0  0
   38.2700   25.1550   34.8430 C   0  0  0  0  0  0  0  0  0  0  0  0
   37.7250   24.5730   33.8410 O   0  0  0  0  0  0  0  0  0  0  0  0
   38.5780   26.5600   34.7590 N   0  0  0  0  0  0  0  0  0  0  0  0
   38.9790   27.1110   35.5200 H   0  0  0  0  0  0  0  0  0  0  0  0
   38.5980   24.4290   36.0930 C   0  0  0  0  0  0  0  0  0  0  0  0
   39.6560   23.5470   36.0570 C   0  0  0  0  0  0  0  0  0  0  0  0
   40.2630   23.3430   35.1950 H   0  0  0  0  0  0  0  0  0  0  0  0
   39.9580   22.8730   37.2250 C   0  0  0  0  0  0  0  0  0  0  0  0
   40.7650   22.1450   37.3500 H   0  0  0  0  0  0  0  0  0  0  0  0
   39.1900   23.1150   38.3630 C   0  0  0  0  0  3  0  0  0  0  0  0
   38.1260   24.0140   38.3660 C   0  0  0  0  0  3  0  0  0  0  0  0
   37.8610   24.6520   37.2100 N   0  0  0  0  0  0  0  0  0  0  0  0
  1 12  1  0  0  0  0
  1  6  1  0  0  0  0
  2  1  2  0  0  0  0
  3  2  1  0  0  0  0
  3  4  2  0  0  0  0
  4  5  1  0  0  0  0
  5  6  2  0  0  0  0
  5 10  1  0  0  0  0
  6 22  1  0  0  0  0
  7  2  1  0  0  0  0
  8  3  1  0  0  0  0
  9  4  1  0  0  0  0
 11 16  1  0  0  0  0
 11 17  1  0  0  0  0
 12 11  2  0  0  0  0
 13 14  2  0  0  0  0
 13 12  1  0  0  0  0
 14 15  1  0  0  0  0
 15 19  1  0  0  0  0
 15 16  2  0  0  0  0
 18 13  1  0  0  0  0
 20 24  1  0  0  0  0
 21 20  2  0  0  0  0
 22 20  1  0  0  0  0
 22 23  1  0  0  0  0
 24 31  1  0  0  0  0
 25 24  2  0  0  0  0
 25 27  1  0  0  0  0
 26 25  1  0  0  0  0
 27 28  1  0  0  0  0
 27 29  2  0  0  0  0
 29 30  1  0  0  0  0
 31 30  2  0  0  0  0
M  END
>  <minimizedAffinity>
-4.87903833

$$$$

 OpenBabel03272500553D

 31 33  0  0  0  0  0  0  0  0999 V2000
   36.9020   25.4760   31.9640 C   0  0  0  0  0  0  0  0  0  0  0  0
   36.6360   26.3550   30.9250 C   0  0  0  0  0  0  0  0  0  0  0  0
   36.6080   27.7310   31.1030 C   0  0  0  0  0  0  0  0  0  0  0  0
   36.8610   28.2610   32.3990 C   0  0  0  0  0  0  0  0  0  0  0  0
   37.1190   27.3570   33.3970 C   0  0  0  0  0  0  0  0  0  0  0  0
   37.1510   26.0110   33.2230 C   0  0  0  0  0  0  0  0  0  0  0  0
   36.4380   25.9790   29.9210 H   0  0  0  0  0  0  0  0  0  0  0  0
   36.3900   28.3440   30.2190 H   0  0  0  0  0  0  0  0  0  0  0  0
   36.8030   29.3370   32.3750 H   0  0  0  0  0  0  0  0  0  0  0  0
   37.2240   27.9690   34.2680 H   0  0  0  0  0  0  0  0  0  0  0  0
   38.0260   23.4790   31.1830 C   0  0  0  0  0  0  0  0  0  0  0  0
   36.8300   24.0690   31.6250 C   0  0  0  0  0  0  0  0  0  0  0  0
   35.7010   23.2370   31.6910 C   0  0  0  0  0  0  0  0  0  0  0  0
   35.7980   21.9470   31.3400 N   0  0  0  0  0  0  0  0  0  0  0  0
   36.9440   21.3990   30.9210 C   0  0  0  0  0  0  0  0  0  0  0  0
   38.0430   22.1680   30.8450 N   0  0  0  0  0  0  0  0  0  0  0  0
   38.9420   24.0390   31.0990 H   0  0  0  0  0  0  0  0  0  0  0  0
   34.7970   23.7420   32.0400 H   0  0  0  0  0  0  0  0  0  0  0  0
   37.0120   20.3600   30.6410 H   0  0  0  0  0  0  0  0  0  0  0  0
   38.8670   25.0690   34.5050 C   0  0  0  0  0  0  0  0  0  0  0  0
   39.6540   25.7790   33.7870 O   0  0  0  0  0  0  0  0  0  0  0  0
   37.4510   25.1070   34.2460 N   0  0  0  0  0  0  0  0  0  0  0  0
   36.7550   24.5480   34.7450 H   0  0  0  0  0  0  0  0  0  0  0  0
   39.3660   24.2040   35.6010 C   0  0  0  0  0  0  0  0  0  0  0  0
   38.5610   24.0550   36.7100 C   0  0  0  0  0  0  0  0  0  0  0  0
   37.6010   24.5160   36.8440 H   0  0  0  0  0  0  0  0  0  0  0  0
   39.0310   23.2490   37.7290 C   0  0  0  0  0  0  0  0  0  0  0  0
   38.5080   23.0360   38.6660 H   0  0  0  0  0  0  0  0  0  0  0  0
   40.2760   22.6350   37.5870 C   0  0  0  0  0  3  0  0  0  0  0  0
   41.0650   22.8060   36.4520 C   0  0  0  0  0  3  0  0  0  0  0  0
   40.5750   23.5990   35.4800 N   0  0  0  0  0  0  0  0  0  0  0  0
  1  6  1  0  0  0  0
  2  3  1  0  0  0  0
  2  1  2  0  0  0  0
  3  4  2  0  0  0  0
  4  5  1  0  0  0  0
  5 10  1  0  0  0  0
  6  5  2  0  0  0  0
  6 22  1  0  0  0  0
  7  2  1  0  0  0  0
  8  3  1  0  0  0  0
  9  4  1  0  0  0  0
 11 12  1  0  0  0  0
 12 13  2  0  0  0  0
 12  1  1  0  0  0  0
 13 18  1  0  0  0  0
 14 13  1  0  0  0  0
 15 14  2  0  0  0  0
 16 15  1  0  0  0  0
 16 11  2  0  0  0  0
 17 11  1  0  0  0  0
 19 15  1  0  0  0  0
 20 24  1  0  0  0  0
 21 20  2  0  0  0  0
 22 20  1  0  0  0  0
 22 23  1  0  0  0  0
 24 25  1  0  0  0  0
 25 26  1  0  0  0  0
 25 27  2  0  0  0  0
 27 28  1  0  0  0  0
 29 27  1  0  0  0  0
 30 29  2  0  0  0  0
 31 24  2  0  0  0  0
 31 30  1  0  0  0  0
M  END
>  <minimizedAffinity>
-4.877213

$$$$
