
     RDKit          3D

 41 44  0  0  0  0  0  0  0  0999 V2000
   38.4473   31.1260   48.1695 C   0  0  2  0  0  0  0  0  0  0  0  0
   38.6804   32.5917   48.0871 C   0  0  0  0  0  0  0  0  0  0  0  0
   38.0794   31.7418   46.9367 C   0  0  1  0  0  0  0  0  0  0  0  0
   35.0811   30.2502   49.4913 C   0  0  0  0  0  0  0  0  0  0  0  0
   35.4201   29.5524   50.6920 C   0  0  0  0  0  0  0  0  0  0  0  0
   36.8200   29.4051   51.0318 C   0  0  0  0  0  0  0  0  0  0  0  0
   37.7772   29.9348   50.1987 N   0  0  0  0  0  0  0  0  0  0  0  0
   37.3622   30.5841   49.0744 C   0  0  0  0  0  0  0  0  0  0  0  0
   36.0380   30.7622   48.6882 N   0  0  0  0  0  0  0  0  0  0  0  0
   38.3677   31.8969   44.4871 C   0  0  0  0  0  0  0  0  0  0  0  0
   37.2391   32.4371   44.3826 O   0  0  0  0  0  0  0  0  0  0  0  0
   38.9521   31.6448   45.7939 N   0  0  0  0  0  0  0  0  0  0  0  0
   39.1369   31.5008   43.2963 C   0  0  0  0  0  0  0  0  0  0  0  0
   40.1289   30.5717   43.4323 C   0  0  0  0  0  0  0  0  0  0  0  0
   40.8438   30.2079   42.3027 C   0  0  0  0  0  0  0  0  0  0  0  0
   40.5064   30.8104   41.1069 C   0  0  0  0  0  0  0  0  0  0  0  0
   39.4968   31.7563   40.9676 C   0  0  0  0  0  0  0  0  0  0  0  0
   38.8458   32.0615   42.1008 N   0  0  0  0  0  0  0  0  0  0  0  0
   39.1938   32.3514   39.6736 C   0  0  0  0  0  0  0  0  0  0  0  0
   38.8350   33.5480   39.6215 O   0  0  0  0  0  0  0  0  0  0  0  0
   39.3687   30.5141   48.2548 H   0  0  0  0  0  0  0  0  0  0  0  0
   38.0052   33.2792   48.6265 H   0  0  0  0  0  0  0  0  0  0  0  0
   39.7057   32.9486   47.9779 H   0  0  0  0  0  0  0  0  0  0  0  0
   37.0082   31.9891   46.7474 H   0  0  0  0  0  0  0  0  0  0  0  0
   34.0556   30.3590   49.2410 H   0  0  0  0  0  0  0  0  0  0  0  0
   34.6761   29.1419   51.3371 H   0  0  0  0  0  0  0  0  0  0  0  0
   37.0659   28.8797   51.9357 H   0  0  0  0  0  0  0  0  0  0  0  0
   39.9410   31.4061   45.9237 H   0  0  0  0  0  0  0  0  0  0  0  0
   40.3907   30.0988   44.3825 H   0  0  0  0  0  0  0  0  0  0  0  0
   41.6256   29.4790   42.3963 H   0  0  0  0  0  0  0  0  0  0  0  0
   41.0959   30.4873   40.2688 H   0  0  0  0  0  0  0  0  0  0  0  0
   39.2910   31.6072   38.4241 C   0  0  0  0  0  0  0  0  0  0  0  0
   40.4094   30.8218   38.2311 C   0  0  0  0  0  0  0  0  0  0  0  0
   41.1898   30.7517   38.9682 H   0  0  0  0  0  0  0  0  0  0  0  0
   40.5661   30.0879   37.0663 C   0  0  0  0  0  0  0  0  0  0  0  0
   41.4358   29.4546   36.8754 H   0  0  0  0  0  0  0  0  0  0  0  0
   39.5562   30.1888   36.1313 C   0  0  0  0  0  0  0  0  0  0  0  0
   38.4290   30.9666   36.3006 C   0  0  0  0  0  0  0  0  0  0  0  0
   38.3437   31.6596   37.4698 N   0  0  0  0  0  0  0  0  0  0  0  0
   39.6557   29.6182   35.2009 H   0  0  0  0  0  0  0  0  0  0  0  0
   37.6349   31.0492   35.5710 H   0  0  0  0  0  0  0  0  0  0  0  0
  1  8  1  0
  2  1  1  0
  3  2  1  0
  3  1  1  0
  4  5  2  0
  5  6  1  0
  7  6  2  0
  8  7  1  0
  9  8  2  0
  9  4  1  0
 10 12  1  0
 11 10  2  0
 12  3  1  0
 13 14  2  0
 13 10  1  0
 15 14  1  0
 16 15  2  0
 17 16  1  0
 17 18  2  0
 18 13  1  0
 19 17  1  0
 20 19  2  0
  1 21  1  6
  2 22  1  0
  2 23  1  0
  3 24  1  6
  4 25  1  0
  5 26  1  0
  6 27  1  0
 12 28  1  0
 14 29  1  0
 15 30  1  0
 16 31  1  0
 32 33  2  0
 33 34  1  0
 33 35  1  0
 35 36  1  0
 35 37  2  0
 37 38  1  0
 38 39  2  0
 39 32  1  0
 37 40  1  0
 38 41  1  0
 19 32  1  0
M  ISO  8  21  13  22  13  23  13  24  13  25  14  26  14  27  14  29  14
M  ISO  4  30  14  31  14  34  15  36  16
M  END
>  <DihAtoms>  (1) 
16,18,31,32

>  <DihDeg>  (1) 
-179.99888642719083

$$$$
