
 OpenBabel03272508563D

 39 42  0  0  1  0  0  0  0  0999 V2000
   38.3500   31.8660   44.6110 C   0  0  0  0  0  0  0  0  0  0  0  0
   37.1890   32.3300   44.4860 O   0  0  0  0  0  0  0  0  0  0  0  0
   38.9480   31.7100   45.9260 N   0  0  0  0  0  0  0  0  0  0  0  0
   39.9500   31.5390   46.0640 H   0  0  0  0  0  0  0  0  0  0  0  0
   39.1420   31.4660   43.4370 C   0  0  0  0  0  0  0  0  0  0  0  0
   40.1370   30.5440   43.5970 C   0  0  0  0  0  0  0  0  0  0  0  0
   40.8740   30.1760   42.4840 C   0  0  0  0  0  0  0  0  0  0  0  0
   40.5540   30.7670   41.2780 C   0  0  0  0  0  0  0  0  0  0  0  0
   39.5420   31.7060   41.1140 C   0  0  0  0  0  0  0  0  0  0  0  0
   38.8690   32.0170   42.2330 N   0  0  0  0  0  0  0  0  0  0  0  0
   40.3840   30.0800   44.5560 H   0  0  0  0  0  0  0  0  0  0  0  0
   41.6580   29.4520   42.5960 H   0  0  0  0  0  0  0  0  0  0  0  0
   41.1610   30.4420   40.4530 H   0  0  0  0  0  0  0  0  0  0  0  0
   39.2590   32.2900   39.8100 C   0  0  0  0  0  0  0  0  0  0  0  0
   38.6330   33.3710   39.7480 O   0  0  0  0  0  0  0  0  0  0  0  0
   39.6770   31.6650   38.5610 C   0  0  0  0  0  0  0  0  0  0  0  0
   38.8800   30.6610   38.0480 C   0  0  0  0  0  0  0  0  0  0  0  0
   37.9800   30.3400   38.5430 H   0  0  0  0  0  0  0  0  0  0  0  0
   39.2180   30.0240   36.8660 C   0  0  0  0  0  0  0  0  0  0  0  0
   38.6150   29.2260   36.4280 H   0  0  0  0  0  0  0  0  0  0  0  0
   40.3750   30.4480   36.2450 C   0  0  0  0  0  3  0  0  0  0  0  0
   41.1880   31.4480   36.7360 C   0  0  0  0  0  3  0  0  0  0  0  0
   40.7930   32.0280   37.9030 N   0  0  0  0  0  0  0  0  0  0  0  0
   38.4250   31.1690   48.2920 C   0  0  2  0  0  0  0  0  0  0  0  0
   38.6750   32.6330   48.2290 C   0  0  0  0  0  0  0  0  0  0  0  0
   38.0700   31.8030   47.0660 C   0  0  1  0  0  0  0  0  0  0  0  0
   39.3400   30.5450   48.3760 H   0  0  0  0  0  0  0  0  0  0  0  0
   38.0050   33.3210   48.7740 H   0  0  0  0  0  0  0  0  0  0  0  0
   39.7060   32.9800   48.1290 H   0  0  0  0  0  0  0  0  0  0  0  0
   37.0030   32.0650   46.8740 H   0  0  0  0  0  0  0  0  0  0  0  0
   35.0480   30.2380   49.5470 C   0  0  0  0  0  0  0  0  0  0  0  0
   35.3710   29.6000   50.7850 C   0  0  0  0  0  0  0  0  0  0  0  0
   36.7630   29.5110   51.1730 C   0  0  0  0  0  0  0  0  0  0  0  0
   37.7290   30.0380   50.3480 N   0  0  0  0  0  0  0  0  0  0  0  0
   37.3300   30.6280   49.1860 C   0  0  0  0  0  0  0  0  0  0  0  0
   36.0130   30.7490   48.7530 N   0  0  0  0  0  0  0  0  0  0  0  0
   34.0280   30.3040   49.2620 H   0  0  0  0  0  0  0  0  0  0  0  0
   34.6200   29.1920   51.4230 H   0  0  0  0  0  0  0  0  0  0  0  0
   36.9970   29.0300   52.1040 H   0  0  0  0  0  0  0  0  0  0  0  0
  1  3  1  0  0  0  0
  2  1  2  0  0  0  0
  3  4  1  0  0  0  0
  3 26  1  0  0  0  0
  5  6  1  0  0  0  0
  5  1  1  0  0  0  0
  6 11  1  0  0  0  0
  7 12  1  0  0  0  0
  7  6  2  0  0  0  0
  8  7  1  0  0  0  0
  9  8  2  0  0  0  0
  9 10  1  0  0  0  0
 10  5  2  0  0  0  0
 13  8  1  0  0  0  0
 14  9  1  0  0  0  0
 15 14  2  0  0  0  0
 16 14  1  0  0  0  0
 17 18  1  0  0  0  0
 17 16  1  0  0  0  0
 19 17  2  0  0  0  0
 20 19  1  0  0  0  0
 21 22  2  0  0  0  0
 21 19  1  0  0  0  0
 22 23  1  0  0  0  0
 23 16  2  0  0  0  0
 24 27  1  6  0  0  0
 24 35  1  0  0  0  0
 25 24  1  0  0  0  0
 25 28  1  0  0  0  0
 26 30  1  6  0  0  0
 26 25  1  0  0  0  0
 26 24  1  0  0  0  0
 29 25  1  0  0  0  0
 31 32  1  0  0  0  0
 32 33  2  0  0  0  0
 32 38  1  0  0  0  0
 33 39  1  0  0  0  0
 34 33  1  0  0  0  0
 35 34  2  0  0  0  0
 36 35  1  0  0  0  0
 36 31  2  0  0  0  0
 37 31  1  0  0  0  0
M  END
>  <minimizedAffinity>
-4.95084047

>  <minimizedRMSD>
0.542282104

$$$$
