
 OpenBabel03272508523D

 28 30  0  0  1  0  0  0  0  0999 V2000
   36.2490   23.0550   31.2460 C   0  0  2  0  0  0  0  0  0  0  0  0
   37.5590   23.4830   30.7760 C   0  0  0  0  0  0  0  0  0  0  0  0
   36.9550   24.0090   32.0930 C   0  0  1  0  0  0  0  0  0  0  0  0
   35.3100   23.4920   30.7740 H   0  0  0  0  0  0  0  0  0  0  0  0
   38.4330   22.7850   30.8480 H   0  0  0  0  0  0  0  0  0  0  0  0
   37.6540   24.2440   30.0040 H   0  0  0  0  0  0  0  0  0  0  0  0
   37.6270   23.8110   32.9490 H   0  0  0  0  0  0  0  0  0  0  0  0
   35.7280   19.3910   31.3690 C   0  0  0  0  0  0  0  0  0  0  0  0
   35.5050   19.1580   32.7540 C   0  0  0  0  0  0  0  0  0  0  0  0
   35.5410   20.2990   33.6240 C   0  0  0  0  0  0  0  0  0  0  0  0
   35.7820   21.5260   33.0990 N   0  0  0  0  0  0  0  0  0  0  0  0
   35.9880   21.6770   31.7640 C   0  0  0  0  0  0  0  0  0  0  0  0
   35.9660   20.6300   30.8810 N   0  0  0  0  0  0  0  0  0  0  0  0
   35.6850   18.4900   30.7760 H   0  0  0  0  0  0  0  0  0  0  0  0
   35.3170   18.1600   33.1240 H   0  0  0  0  0  0  0  0  0  0  0  0
   35.3740   20.1390   34.6720 H   0  0  0  0  0  0  0  0  0  0  0  0
   37.0920   26.3030   32.9910 C   0  0  0  0  0  0  0  0  0  0  0  0
   38.0430   25.9390   33.7270 O   0  0  0  0  0  0  0  0  0  0  0  0
   36.5200   25.4050   32.0220 N   0  0  0  0  0  0  0  0  0  0  0  0
   35.8450   25.7990   31.3450 H   0  0  0  0  0  0  0  0  0  0  0  0
   36.5260   27.6660   33.0950 C   0  0  0  0  0  0  0  0  0  0  0  0
   36.3700   28.2080   34.3540 C   0  0  0  0  0  0  0  0  0  0  0  0
   36.6450   27.6730   35.2490 H   0  0  0  0  0  0  0  0  0  0  0  0
   35.8390   29.4870   34.4440 C   0  0  0  0  0  0  0  0  0  0  0  0
   35.6910   29.9740   35.4070 H   0  0  0  0  0  0  0  0  0  0  0  0
   35.5030   30.1330   33.2850 C   0  0  0  0  0  3  0  0  0  0  0  0
   35.6580   29.5880   32.0120 C   0  0  0  0  0  3  0  0  0  0  0  0
   36.1770   28.3480   31.9940 N   0  0  0  0  0  0  0  0  0  0  0  0
  1  4  1  6  0  0  0
  1 12  1  0  0  0  0
  1  3  1  0  0  0  0
  2  5  1  0  0  0  0
  2  1  1  0  0  0  0
  2  3  1  0  0  0  0
  3  7  1  1  0  0  0
  6  2  1  0  0  0  0
  8  9  1  0  0  0  0
  9 15  1  0  0  0  0
  9 10  2  0  0  0  0
 10 16  1  0  0  0  0
 11 10  1  0  0  0  0
 12 11  2  0  0  0  0
 13  8  2  0  0  0  0
 13 12  1  0  0  0  0
 14  8  1  0  0  0  0
 17 21  1  0  0  0  0
 17 18  2  0  0  0  0
 19  3  1  0  0  0  0
 19 17  1  0  0  0  0
 20 19  1  0  0  0  0
 21 22  1  0  0  0  0
 22 24  2  0  0  0  0
 22 23  1  0  0  0  0
 24 25  1  0  0  0  0
 26 24  1  0  0  0  0
 27 26  2  0  0  0  0
 28 27  1  0  0  0  0
 28 21  2  0  0  0  0
M  END
>  <minimizedAffinity>
-4.59577847

$$$$

 OpenBabel03272508523D

 28 30  0  0  1  0  0  0  0  0999 V2000
   35.9300   27.3970   31.2430 C   0  0  2  0  0  0  0  0  0  0  0  0
   36.6130   28.4070   30.4460 C   0  0  0  0  0  0  0  0  0  0  0  0
   36.8280   28.2890   31.9680 C   0  0  1  0  0  0  0  0  0  0  0  0
   34.8370   27.5450   31.5230 H   0  0  0  0  0  0  0  0  0  0  0  0
   37.4620   28.1110   29.7780 H   0  0  0  0  0  0  0  0  0  0  0  0
   36.1040   29.3210   30.1470 H   0  0  0  0  0  0  0  0  0  0  0  0
   37.8970   28.1480   32.2120 H   0  0  0  0  0  0  0  0  0  0  0  0
   35.5770   23.7120   31.2010 C   0  0  0  0  0  0  0  0  0  0  0  0
   36.9150   23.2770   30.9970 C   0  0  0  0  0  0  0  0  0  0  0  0
   37.9240   24.2920   30.8780 C   0  0  0  0  0  0  0  0  0  0  0  0
   37.5640   25.5960   30.9630 N   0  0  0  0  0  0  0  0  0  0  0  0
   36.2630   25.9420   31.1580 C   0  0  0  0  0  0  0  0  0  0  0  0
   35.2550   25.0230   31.2800 N   0  0  0  0  0  0  0  0  0  0  0  0
   34.8740   22.8960   31.2820 H   0  0  0  0  0  0  0  0  0  0  0  0
   37.1510   22.2230   30.9370 H   0  0  0  0  0  0  0  0  0  0  0  0
   38.9380   23.9780   30.7240 H   0  0  0  0  0  0  0  0  0  0  0  0
   36.0880   29.1630   34.1530 C   0  0  0  0  0  0  0  0  0  0  0  0
   36.6530   28.1910   34.7140 O   0  0  0  0  0  0  0  0  0  0  0  0
   36.2070   29.3720   32.7340 N   0  0  0  0  0  0  0  0  0  0  0  0
   35.8510   30.2630   32.3500 H   0  0  0  0  0  0  0  0  0  0  0  0
   35.2820   30.1290   34.9320 C   0  0  0  0  0  0  0  0  0  0  0  0
   35.9500   31.0820   35.6730 C   0  0  0  0  0  0  0  0  0  0  0  0
   37.0260   31.1390   35.6990 H   0  0  0  0  0  0  0  0  0  0  0  0
   35.1880   31.9840   36.4010 C   0  0  0  0  0  0  0  0  0  0  0  0
   35.6530   32.7620   37.0070 H   0  0  0  0  0  0  0  0  0  0  0  0
   33.8240   31.8780   36.3430 C   0  0  0  0  0  3  0  0  0  0  0  0
   33.1460   30.9160   35.5960 C   0  0  0  0  0  3  0  0  0  0  0  0
   33.9420   30.0730   34.9140 N   0  0  0  0  0  0  0  0  0  0  0  0
  1  4  1  1  0  0  0
  1  3  1  0  0  0  0
  2  1  1  0  0  0  0
  2  3  1  0  0  0  0
  3  7  1  1  0  0  0
  3 19  1  0  0  0  0
  5  2  1  0  0  0  0
  6  2  1  0  0  0  0
  8 13  1  0  0  0  0
  8 14  1  0  0  0  0
  9  8  2  0  0  0  0
 10 11  2  0  0  0  0
 10  9  1  0  0  0  0
 11 12  1  0  0  0  0
 12  1  1  0  0  0  0
 12 13  2  0  0  0  0
 15  9  1  0  0  0  0
 16 10  1  0  0  0  0
 17 18  2  0  0  0  0
 17 21  1  0  0  0  0
 19 17  1  0  0  0  0
 20 19  1  0  0  0  0
 21 22  1  0  0  0  0
 22 23  1  0  0  0  0
 22 24  2  0  0  0  0
 24 25  1  0  0  0  0
 26 24  1  0  0  0  0
 27 26  2  0  0  0  0
 28 21  2  0  0  0  0
 28 27  1  0  0  0  0
M  END
>  <minimizedAffinity>
-4.55300617

$$$$

 OpenBabel03272508523D

 28 30  0  0  1  0  0  0  0  0999 V2000
   38.0430   26.4370   32.2430 C   0  0  2  0  0  0  0  0  0  0  0  0
   37.9410   25.2860   31.3570 C   0  0  0  0  0  0  0  0  0  0  0  0
   37.2190   25.3320   32.7180 C   0  0  1  0  0  0  0  0  0  0  0  0
   38.9830   26.5880   32.8660 H   0  0  0  0  0  0  0  0  0  0  0  0
   37.3110   25.3470   30.4330 H   0  0  0  0  0  0  0  0  0  0  0  0
   38.7370   24.5450   31.3100 H   0  0  0  0  0  0  0  0  0  0  0  0
   36.1310   25.1770   32.6000 H   0  0  0  0  0  0  0  0  0  0  0  0
   37.1060   29.5720   30.5100 C   0  0  0  0  0  0  0  0  0  0  0  0
   36.1790   30.1590   31.4140 C   0  0  0  0  0  0  0  0  0  0  0  0
   35.8990   29.4390   32.6240 C   0  0  0  0  0  0  0  0  0  0  0  0
   36.5170   28.2530   32.8480 N   0  0  0  0  0  0  0  0  0  0  0  0
   37.3930   27.7490   31.9380 C   0  0  0  0  0  0  0  0  0  0  0  0
   37.7040   28.3860   30.7670 N   0  0  0  0  0  0  0  0  0  0  0  0
   37.2690   30.1680   29.6240 H   0  0  0  0  0  0  0  0  0  0  0  0
   35.7120   31.1080   31.1900 H   0  0  0  0  0  0  0  0  0  0  0  0
   35.2010   29.8690   33.3160 H   0  0  0  0  0  0  0  0  0  0  0  0
   37.8450   24.9550   35.0750 C   0  0  0  0  0  0  0  0  0  0  0  0
   37.2340   26.0070   35.3870 O   0  0  0  0  0  0  0  0  0  0  0  0
   37.8120   24.4510   33.7270 N   0  0  0  0  0  0  0  0  0  0  0  0
   38.2040   23.5090   33.5580 H   0  0  0  0  0  0  0  0  0  0  0  0
   38.6210   24.1970   36.0810 C   0  0  0  0  0  0  0  0  0  0  0  0
   38.1040   24.0960   37.3560 C   0  0  0  0  0  0  0  0  0  0  0  0
   37.1660   24.5490   37.6330 H   0  0  0  0  0  0  0  0  0  0  0  0
   38.8370   23.3840   38.2950 C   0  0  0  0  0  0  0  0  0  0  0  0
   38.4850   23.2660   39.3190 H   0  0  0  0  0  0  0  0  0  0  0  0
   40.0240   22.8250   37.9040 C   0  0  0  0  0  3  0  0  0  0  0  0
   40.5490   22.9240   36.6170 C   0  0  0  0  0  3  0  0  0  0  0  0
   39.7910   23.6270   35.7560 N   0  0  0  0  0  0  0  0  0  0  0  0
  1  3  1  0  0  0  0
  1  4  1  1  0  0  0
  2  1  1  0  0  0  0
  2  3  1  0  0  0  0
  3  7  1  1  0  0  0
  3 19  1  0  0  0  0
  5  2  1  0  0  0  0
  6  2  1  0  0  0  0
  8 13  2  0  0  0  0
  8  9  1  0  0  0  0
  9 10  2  0  0  0  0
 10 11  1  0  0  0  0
 10 16  1  0  0  0  0
 12  1  1  0  0  0  0
 12 11  2  0  0  0  0
 13 12  1  0  0  0  0
 14  8  1  0  0  0  0
 15  9  1  0  0  0  0
 17 18  2  0  0  0  0
 17 21  1  0  0  0  0
 19 17  1  0  0  0  0
 20 19  1  0  0  0  0
 21 22  1  0  0  0  0
 22 23  1  0  0  0  0
 22 24  2  0  0  0  0
 24 25  1  0  0  0  0
 26 24  1  0  0  0  0
 27 26  2  0  0  0  0
 28 21  2  0  0  0  0
 28 27  1  0  0  0  0
M  END
>  <minimizedAffinity>
-4.49517918

$$$$

 OpenBabel03272508523D

 28 30  0  0  1  0  0  0  0  0999 V2000
   36.3810   28.2990   32.4440 C   0  0  2  0  0  0  0  0  0  0  0  0
   37.0950   28.8000   31.2780 C   0  0  0  0  0  0  0  0  0  0  0  0
   36.0610   27.6610   31.1720 C   0  0  1  0  0  0  0  0  0  0  0  0
   36.9080   27.5990   33.1710 H   0  0  0  0  0  0  0  0  0  0  0  0
   36.8190   29.7940   30.8390 H   0  0  0  0  0  0  0  0  0  0  0  0
   38.1150   28.4840   31.0700 H   0  0  0  0  0  0  0  0  0  0  0  0
   35.2610   27.9130   30.4530 H   0  0  0  0  0  0  0  0  0  0  0  0
   34.6980   30.5300   34.8730 C   0  0  0  0  0  0  0  0  0  0  0  0
   33.3550   30.5360   34.4070 C   0  0  0  0  0  0  0  0  0  0  0  0
   33.0630   29.7500   33.2410 C   0  0  0  0  0  0  0  0  0  0  0  0
   34.0600   29.0510   32.6460 N   0  0  0  0  0  0  0  0  0  0  0  0
   35.3240   29.0920   33.1450 C   0  0  0  0  0  0  0  0  0  0  0  0
   35.6680   29.8200   34.2530 N   0  0  0  0  0  0  0  0  0  0  0  0
   34.8440   31.1400   35.7520 H   0  0  0  0  0  0  0  0  0  0  0  0
   32.5940   31.1110   34.9170 H   0  0  0  0  0  0  0  0  0  0  0  0
   32.0530   29.7450   32.8780 H   0  0  0  0  0  0  0  0  0  0  0  0
   35.7730   25.2160   31.0070 C   0  0  0  0  0  0  0  0  0  0  0  0
   34.5310   25.3740   31.1060 O   0  0  0  0  0  0  0  0  0  0  0  0
   36.6590   26.3480   30.9230 N   0  0  0  0  0  0  0  0  0  0  0  0
   37.6500   26.1640   30.6940 H   0  0  0  0  0  0  0  0  0  0  0  0
   36.3700   23.8630   30.9740 C   0  0  0  0  0  0  0  0  0  0  0  0
   35.5850   22.7990   31.3680 C   0  0  0  0  0  0  0  0  0  0  0  0
   34.5660   22.9270   31.6950 H   0  0  0  0  0  0  0  0  0  0  0  0
   36.1500   21.5330   31.3340 C   0  0  0  0  0  0  0  0  0  0  0  0
   35.5860   20.6500   31.6320 H   0  0  0  0  0  0  0  0  0  0  0  0
   37.4480   21.4120   30.9140 C   0  0  0  0  0  3  0  0  0  0  0  0
   38.2440   22.4840   30.5150 C   0  0  0  0  0  3  0  0  0  0  0  0
   37.6370   23.6830   30.5720 N   0  0  0  0  0  0  0  0  0  0  0  0
  1 12  1  0  0  0  0
  1  4  1  1  0  0  0
  2  1  1  0  0  0  0
  3  7  1  6  0  0  0
  3  2  1  0  0  0  0
  3  1  1  0  0  0  0
  5  2  1  0  0  0  0
  6  2  1  0  0  0  0
  8 14  1  0  0  0  0
  9  8  1  0  0  0  0
  9 15  1  0  0  0  0
 10  9  2  0  0  0  0
 11 12  2  0  0  0  0
 11 10  1  0  0  0  0
 12 13  1  0  0  0  0
 13  8  2  0  0  0  0
 16 10  1  0  0  0  0
 17 18  2  0  0  0  0
 19 17  1  0  0  0  0
 19  3  1  0  0  0  0
 20 19  1  0  0  0  0
 21 17  1  0  0  0  0
 21 22  1  0  0  0  0
 22 23  1  0  0  0  0
 24 22  2  0  0  0  0
 24 25  1  0  0  0  0
 26 24  1  0  0  0  0
 27 28  1  0  0  0  0
 27 26  2  0  0  0  0
 28 21  2  0  0  0  0
M  END
>  <minimizedAffinity>
-4.47152567

$$$$

 OpenBabel03272508523D

 28 30  0  0  1  0  0  0  0  0999 V2000
   38.8690   26.2370   35.2070 C   0  0  2  0  0  0  0  0  0  0  0  0
   38.3340   27.1710   36.1870 C   0  0  0  0  0  0  0  0  0  0  0  0
   37.5020   26.6910   34.9820 C   0  0  1  0  0  0  0  0  0  0  0  0
   39.5960   26.6070   34.4130 H   0  0  0  0  0  0  0  0  0  0  0  0
   38.0350   26.8040   37.2030 H   0  0  0  0  0  0  0  0  0  0  0  0
   38.5890   28.2290   36.1490 H   0  0  0  0  0  0  0  0  0  0  0  0
   36.5540   26.2260   35.3090 H   0  0  0  0  0  0  0  0  0  0  0  0
   40.5850   22.9900   35.6820 C   0  0  0  0  0  0  0  0  0  0  0  0
   39.5230   22.1390   36.0950 C   0  0  0  0  0  0  0  0  0  0  0  0
   38.2170   22.7240   36.1990 C   0  0  0  0  0  0  0  0  0  0  0  0
   38.0530   24.0370   35.9050 N   0  0  0  0  0  0  0  0  0  0  0  0
   39.1140   24.7950   35.5170 C   0  0  0  0  0  0  0  0  0  0  0  0
   40.3840   24.2970   35.3980 N   0  0  0  0  0  0  0  0  0  0  0  0
   41.5370   22.4840   35.6250 H   0  0  0  0  0  0  0  0  0  0  0  0
   39.7050   21.0960   36.3180 H   0  0  0  0  0  0  0  0  0  0  0  0
   37.4060   22.0930   36.5100 H   0  0  0  0  0  0  0  0  0  0  0  0
   36.9590   27.2510   32.6410 C   0  0  0  0  0  0  0  0  0  0  0  0
   36.6610   26.0470   32.4410 O   0  0  0  0  0  0  0  0  0  0  0  0
   37.3080   27.7190   33.9570 N   0  0  0  0  0  0  0  0  0  0  0  0
   37.3980   28.7400   34.0930 H   0  0  0  0  0  0  0  0  0  0  0  0
   36.9620   28.2300   31.5320 C   0  0  0  0  0  0  0  0  0  0  0  0
   36.4610   29.4920   31.7790 C   0  0  0  0  0  0  0  0  0  0  0  0
   36.0730   29.7770   32.7440 H   0  0  0  0  0  0  0  0  0  0  0  0
   36.4660   30.4050   30.7350 C   0  0  0  0  0  0  0  0  0  0  0  0
   36.0860   31.4170   30.8630 H   0  0  0  0  0  0  0  0  0  0  0  0
   36.9670   30.0040   29.5250 C   0  0  0  0  0  3  0  0  0  0  0  0
   37.4730   28.7300   29.2710 C   0  0  0  0  0  3  0  0  0  0  0  0
   37.4390   27.8950   30.3240 N   0  0  0  0  0  0  0  0  0  0  0  0
  1  4  1  6  0  0  0
  1 12  1  0  0  0  0
  1  2  1  0  0  0  0
  2  5  1  0  0  0  0
  3  1  1  0  0  0  0
  3  7  1  1  0  0  0
  3  2  1  0  0  0  0
  6  2  1  0  0  0  0
  8  9  1  0  0  0  0
  9 10  2  0  0  0  0
  9 15  1  0  0  0  0
 10 16  1  0  0  0  0
 11 10  1  0  0  0  0
 12 11  2  0  0  0  0
 13 12  1  0  0  0  0
 13  8  2  0  0  0  0
 14  8  1  0  0  0  0
 17 19  1  0  0  0  0
 18 17  2  0  0  0  0
 19 20  1  0  0  0  0
 19  3  1  0  0  0  0
 21 22  1  0  0  0  0
 21 17  1  0  0  0  0
 22 23  1  0  0  0  0
 24 25  1  0  0  0  0
 24 22  2  0  0  0  0
 26 24  1  0  0  0  0
 27 26  2  0  0  0  0
 27 28  1  0  0  0  0
 28 21  2  0  0  0  0
M  END
>  <minimizedAffinity>
-4.44720888

$$$$

 OpenBabel03272508523D

 28 30  0  0  1  0  0  0  0  0999 V2000
   37.6200   25.8120   31.4890 C   0  0  2  0  0  0  0  0  0  0  0  0
   36.3020   25.2850   31.8150 C   0  0  0  0  0  0  0  0  0  0  0  0
   37.2280   25.8840   32.8920 C   0  0  1  0  0  0  0  0  0  0  0  0
   38.4850   25.0950   31.3070 H   0  0  0  0  0  0  0  0  0  0  0  0
   35.3850   25.8660   31.5380 H   0  0  0  0  0  0  0  0  0  0  0  0
   36.1400   24.2150   31.9250 H   0  0  0  0  0  0  0  0  0  0  0  0
   36.7320   26.7120   33.4320 H   0  0  0  0  0  0  0  0  0  0  0  0
   36.9290   29.0340   29.8010 C   0  0  0  0  0  0  0  0  0  0  0  0
   38.2110   29.4050   29.3100 C   0  0  0  0  0  0  0  0  0  0  0  0
   39.3010   28.5110   29.5810 C   0  0  0  0  0  0  0  0  0  0  0  0
   39.0660   27.3740   30.2800 N   0  0  0  0  0  0  0  0  0  0  0  0
   37.8140   27.0810   30.7230 C   0  0  0  0  0  0  0  0  0  0  0  0
   36.7330   27.8910   30.4970 N   0  0  0  0  0  0  0  0  0  0  0  0
   36.1590   29.7520   29.5600 H   0  0  0  0  0  0  0  0  0  0  0  0
   38.3460   30.3240   28.7560 H   0  0  0  0  0  0  0  0  0  0  0  0
   40.2740   28.7780   29.2160 H   0  0  0  0  0  0  0  0  0  0  0  0
   37.8730   25.2390   35.1850 C   0  0  0  0  0  0  0  0  0  0  0  0
   37.2990   26.2710   35.6170 O   0  0  0  0  0  0  0  0  0  0  0  0
   37.8050   24.8830   33.7920 N   0  0  0  0  0  0  0  0  0  0  0  0
   38.1650   23.9530   33.5180 H   0  0  0  0  0  0  0  0  0  0  0  0
   38.6360   24.3550   36.0920 C   0  0  0  0  0  0  0  0  0  0  0  0
   38.1630   24.1800   37.3760 C   0  0  0  0  0  0  0  0  0  0  0  0
   37.2660   24.6630   37.7290 H   0  0  0  0  0  0  0  0  0  0  0  0
   38.8840   23.3490   38.2220 C   0  0  0  0  0  0  0  0  0  0  0  0
   38.5650   23.1670   39.2480 H   0  0  0  0  0  0  0  0  0  0  0  0
   40.0170   22.7550   37.7370 C   0  0  0  0  0  3  0  0  0  0  0  0
   40.4990   22.9300   36.4400 C   0  0  0  0  0  3  0  0  0  0  0  0
   39.7550   23.7460   35.6730 N   0  0  0  0  0  0  0  0  0  0  0  0
  1  4  1  6  0  0  0
  1  2  1  0  0  0  0
  1  3  1  0  0  0  0
  2  6  1  0  0  0  0
  2  3  1  0  0  0  0
  3  7  1  1  0  0  0
  3 19  1  0  0  0  0
  5  2  1  0  0  0  0
  8 13  1  0  0  0  0
  9 10  1  0  0  0  0
  9  8  2  0  0  0  0
 10 11  2  0  0  0  0
 11 12  1  0  0  0  0
 12  1  1  0  0  0  0
 13 12  2  0  0  0  0
 14  8  1  0  0  0  0
 15  9  1  0  0  0  0
 16 10  1  0  0  0  0
 17 18  2  0  0  0  0
 17 21  1  0  0  0  0
 19 17  1  0  0  0  0
 20 19  1  0  0  0  0
 21 22  1  0  0  0  0
 22 23  1  0  0  0  0
 22 24  2  0  0  0  0
 24 25  1  0  0  0  0
 26 24  1  0  0  0  0
 27 26  2  0  0  0  0
 28 21  2  0  0  0  0
 28 27  1  0  0  0  0
M  END
>  <minimizedAffinity>
-4.43620491

$$$$

 OpenBabel03272508523D

 28 30  0  0  1  0  0  0  0  0999 V2000
   38.1600   23.9630   34.5410 C   0  0  2  0  0  0  0  0  0  0  0  0
   38.7970   23.2010   33.4770 C   0  0  0  0  0  0  0  0  0  0  0  0
   39.1290   24.6850   33.7250 C   0  0  1  0  0  0  0  0  0  0  0  0
   37.0950   24.3420   34.4030 H   0  0  0  0  0  0  0  0  0  0  0  0
   39.5850   22.4440   33.7270 H   0  0  0  0  0  0  0  0  0  0  0  0
   38.2840   23.0200   32.5340 H   0  0  0  0  0  0  0  0  0  0  0  0
   40.2110   24.8310   33.9000 H   0  0  0  0  0  0  0  0  0  0  0  0
   39.8070   22.7900   37.6430 C   0  0  0  0  0  0  0  0  0  0  0  0
   38.9690   23.3280   38.6580 C   0  0  0  0  0  0  0  0  0  0  0  0
   37.8340   24.0970   38.2320 C   0  0  0  0  0  0  0  0  0  0  0  0
   37.6130   24.2740   36.9070 N   0  0  0  0  0  0  0  0  0  0  0  0
   38.4570   23.7320   35.9880 C   0  0  0  0  0  0  0  0  0  0  0  0
   39.5560   22.9890   36.3280 N   0  0  0  0  0  0  0  0  0  0  0  0
   40.6380   22.2240   38.0350 H   0  0  0  0  0  0  0  0  0  0  0  0
   39.1880   23.1580   39.7030 H   0  0  0  0  0  0  0  0  0  0  0  0
   37.1930   24.5090   38.9880 H   0  0  0  0  0  0  0  0  0  0  0  0
   38.3460   26.9440   33.1110 C   0  0  0  0  0  0  0  0  0  0  0  0
   38.7460   27.3660   34.2250 O   0  0  0  0  0  0  0  0  0  0  0  0
   38.5920   25.5860   32.7020 N   0  0  0  0  0  0  0  0  0  0  0  0
   38.3760   25.3340   31.7230 H   0  0  0  0  0  0  0  0  0  0  0  0
   37.6100   27.8280   32.1810 C   0  0  0  0  0  0  0  0  0  0  0  0
   36.5320   28.5330   32.6740 C   0  0  0  0  0  0  0  0  0  0  0  0
   36.2170   28.4570   33.7020 H   0  0  0  0  0  0  0  0  0  0  0  0
   35.8460   29.3600   31.7960 C   0  0  0  0  0  0  0  0  0  0  0  0
   34.9860   29.9450   32.1200 H   0  0  0  0  0  0  0  0  0  0  0  0
   36.2770   29.4290   30.4980 C   0  0  0  0  0  3  0  0  0  0  0  0
   37.3660   28.7180   29.9960 C   0  0  0  0  0  3  0  0  0  0  0  0
   37.9860   27.9350   30.8980 N   0  0  0  0  0  0  0  0  0  0  0  0
  1  4  1  6  0  0  0
  1 12  1  0  0  0  0
  2  3  1  0  0  0  0
  2  5  1  0  0  0  0
  2  1  1  0  0  0  0
  3  7  1  1  0  0  0
  3  1  1  0  0  0  0
  6  2  1  0  0  0  0
  8 14  1  0  0  0  0
  8  9  1  0  0  0  0
  9 15  1  0  0  0  0
 10  9  2  0  0  0  0
 10 16  1  0  0  0  0
 11 10  1  0  0  0  0
 12 13  1  0  0  0  0
 12 11  2  0  0  0  0
 13  8  2  0  0  0  0
 17 18  2  0  0  0  0
 19 17  1  0  0  0  0
 19  3  1  0  0  0  0
 20 19  1  0  0  0  0
 21 22  1  0  0  0  0
 21 17  1  0  0  0  0
 22 23  1  0  0  0  0
 24 25  1  0  0  0  0
 24 22  2  0  0  0  0
 26 24  1  0  0  0  0
 27 26  2  0  0  0  0
 27 28  1  0  0  0  0
 28 21  2  0  0  0  0
M  END
>  <minimizedAffinity>
-4.43440914

$$$$

 OpenBabel03272508523D

 28 30  0  0  1  0  0  0  0  0999 V2000
   38.2680   26.2180   34.8050 C   0  0  2  0  0  0  0  0  0  0  0  0
   38.0920   27.2810   35.7850 C   0  0  0  0  0  0  0  0  0  0  0  0
   37.0580   27.0220   34.6720 C   0  0  1  0  0  0  0  0  0  0  0  0
   38.9940   26.3630   33.9410 H   0  0  0  0  0  0  0  0  0  0  0  0
   37.7980   27.0280   36.8360 H   0  0  0  0  0  0  0  0  0  0  0  0
   38.6180   28.2290   35.6820 H   0  0  0  0  0  0  0  0  0  0  0  0
   36.0530   26.8370   35.0940 H   0  0  0  0  0  0  0  0  0  0  0  0
   37.8410   23.1040   36.7620 C   0  0  0  0  0  0  0  0  0  0  0  0
   37.9190   22.0980   35.7600 C   0  0  0  0  0  0  0  0  0  0  0  0
   38.1220   22.5340   34.4070 C   0  0  0  0  0  0  0  0  0  0  0  0
   38.2280   23.8610   34.1480 N   0  0  0  0  0  0  0  0  0  0  0  0
   38.1430   24.7700   35.1550 C   0  0  0  0  0  0  0  0  0  0  0  0
   37.9500   24.4190   36.4650 N   0  0  0  0  0  0  0  0  0  0  0  0
   37.6890   22.7040   37.7530 H   0  0  0  0  0  0  0  0  0  0  0  0
   37.8280   21.0520   36.0180 H   0  0  0  0  0  0  0  0  0  0  0  0
   38.1830   21.7860   33.6400 H   0  0  0  0  0  0  0  0  0  0  0  0
   36.7020   27.6030   32.3000 C   0  0  0  0  0  0  0  0  0  0  0  0
   36.2440   26.4490   32.1050 O   0  0  0  0  0  0  0  0  0  0  0  0
   37.0560   28.0450   33.6240 N   0  0  0  0  0  0  0  0  0  0  0  0
   37.2850   29.0450   33.7490 H   0  0  0  0  0  0  0  0  0  0  0  0
   36.8920   28.5470   31.1780 C   0  0  0  0  0  0  0  0  0  0  0  0
   36.5880   29.8760   31.3900 C   0  0  0  0  0  0  0  0  0  0  0  0
   36.2210   30.2370   32.3380 H   0  0  0  0  0  0  0  0  0  0  0  0
   36.7680   30.7560   30.3330 C   0  0  0  0  0  0  0  0  0  0  0  0
   36.5470   31.8190   30.4340 H   0  0  0  0  0  0  0  0  0  0  0  0
   37.2350   30.2590   29.1460 C   0  0  0  0  0  3  0  0  0  0  0  0
   37.5430   28.9170   28.9280 C   0  0  0  0  0  3  0  0  0  0  0  0
   37.3460   28.1180   29.9910 N   0  0  0  0  0  0  0  0  0  0  0  0
  1  4  1  6  0  0  0
  1 12  1  0  0  0  0
  1  2  1  0  0  0  0
  2  5  1  0  0  0  0
  3  1  1  0  0  0  0
  3  7  1  1  0  0  0
  3  2  1  0  0  0  0
  6  2  1  0  0  0  0
  8 14  1  0  0  0  0
  9 15  1  0  0  0  0
  9  8  2  0  0  0  0
 10  9  1  0  0  0  0
 11 10  2  0  0  0  0
 11 12  1  0  0  0  0
 12 13  2  0  0  0  0
 13  8  1  0  0  0  0
 16 10  1  0  0  0  0
 17 19  1  0  0  0  0
 18 17  2  0  0  0  0
 19 20  1  0  0  0  0
 19  3  1  0  0  0  0
 21 22  1  0  0  0  0
 21 17  1  0  0  0  0
 22 23  1  0  0  0  0
 24 25  1  0  0  0  0
 24 22  2  0  0  0  0
 26 24  1  0  0  0  0
 27 26  2  0  0  0  0
 27 28  1  0  0  0  0
 28 21  2  0  0  0  0
M  END
>  <minimizedAffinity>
-4.43299484

$$$$

 OpenBabel03272508523D

 28 30  0  0  1  0  0  0  0  0999 V2000
   40.3290   23.0610   36.7750 C   0  0  2  0  0  0  0  0  0  0  0  0
   39.4330   22.9470   37.9160 C   0  0  0  0  0  0  0  0  0  0  0  0
   38.9180   22.8650   36.4660 C   0  0  1  0  0  0  0  0  0  0  0  0
   40.7130   24.0850   36.4600 H   0  0  0  0  0  0  0  0  0  0  0  0
   39.4210   22.0070   38.5260 H   0  0  0  0  0  0  0  0  0  0  0  0
   39.0930   23.8330   38.4510 H   0  0  0  0  0  0  0  0  0  0  0  0
   38.3720   21.9200   36.2880 H   0  0  0  0  0  0  0  0  0  0  0  0
   42.5160   20.8380   34.7790 C   0  0  0  0  0  0  0  0  0  0  0  0
   43.1120   20.0170   35.7750 C   0  0  0  0  0  0  0  0  0  0  0  0
   42.7320   20.2600   37.1380 C   0  0  0  0  0  0  0  0  0  0  0  0
   41.8390   21.2430   37.4120 N   0  0  0  0  0  0  0  0  0  0  0  0
   41.3090   21.9920   36.4090 C   0  0  0  0  0  0  0  0  0  0  0  0
   41.6290   21.8110   35.0900 N   0  0  0  0  0  0  0  0  0  0  0  0
   42.8470   20.5990   33.7790 H   0  0  0  0  0  0  0  0  0  0  0  0
   43.8200   19.2450   35.5050 H   0  0  0  0  0  0  0  0  0  0  0  0
   43.1730   19.6480   37.9010 H   0  0  0  0  0  0  0  0  0  0  0  0
   38.1770   24.3440   34.6350 C   0  0  0  0  0  0  0  0  0  0  0  0
   38.6570   23.5300   33.8070 O   0  0  0  0  0  0  0  0  0  0  0  0
   38.1630   24.0460   36.0430 N   0  0  0  0  0  0  0  0  0  0  0  0
   37.6250   24.6780   36.6610 H   0  0  0  0  0  0  0  0  0  0  0  0
   37.6110   25.6370   34.1920 C   0  0  0  0  0  0  0  0  0  0  0  0
   37.4830   26.6430   35.1280 C   0  0  0  0  0  0  0  0  0  0  0  0
   37.7790   26.5130   36.1560 H   0  0  0  0  0  0  0  0  0  0  0  0
   36.9500   27.8530   34.7050 C   0  0  0  0  0  0  0  0  0  0  0  0
   36.8220   28.6880   35.3930 H   0  0  0  0  0  0  0  0  0  0  0  0
   36.5860   27.9790   33.3920 C   0  0  0  0  0  3  0  0  0  0  0  0
   36.7140   26.9650   32.4440 C   0  0  0  0  0  3  0  0  0  0  0  0
   37.2360   25.8190   32.9170 N   0  0  0  0  0  0  0  0  0  0  0  0
  1  4  1  6  0  0  0
  1  2  1  0  0  0  0
  2  6  1  0  0  0  0
  2  5  1  0  0  0  0
  3  7  1  6  0  0  0
  3  1  1  0  0  0  0
  3  2  1  0  0  0  0
  8 13  2  0  0  0  0
  8  9  1  0  0  0  0
  9 10  2  0  0  0  0
 10 11  1  0  0  0  0
 10 16  1  0  0  0  0
 12  1  1  0  0  0  0
 12 11  2  0  0  0  0
 13 12  1  0  0  0  0
 14  8  1  0  0  0  0
 15  9  1  0  0  0  0
 17 19  1  0  0  0  0
 18 17  2  0  0  0  0
 19  3  1  0  0  0  0
 19 20  1  0  0  0  0
 21 17  1  0  0  0  0
 21 22  1  0  0  0  0
 22 23  1  0  0  0  0
 24 22  2  0  0  0  0
 24 25  1  0  0  0  0
 26 24  1  0  0  0  0
 27 28  1  0  0  0  0
 27 26  2  0  0  0  0
 28 21  2  0  0  0  0
M  END
>  <minimizedAffinity>
-4.41633844

$$$$
