
 OpenBabel03272507433D

 40 43  0  0  0  0  0  0  0  0999 V2000
   37.2210   25.6440   32.4800 O   0  0  0  0  0  0  0  0  0  0  0  0
   37.9410   25.0100   34.7510 C   0  0  0  0  0  0  0  0  0  0  0  0
   37.5860   25.9320   33.7750 C   0  0  0  0  0  0  0  0  0  0  0  0
   37.5820   27.2820   34.0680 C   0  0  0  0  0  0  0  0  0  0  0  0
   37.9310   27.7180   35.3390 C   0  0  0  0  0  0  0  0  0  0  0  0
   38.2830   26.7930   36.3090 C   0  0  0  0  0  0  0  0  0  0  0  0
   38.2780   25.4570   35.9850 C   0  0  0  0  0  0  0  0  0  0  0  0
   37.3180   28.0530   33.3580 H   0  0  0  0  0  0  0  0  0  0  0  0
   37.9390   28.7690   35.6030 H   0  0  0  0  0  0  0  0  0  0  0  0
   38.5530   27.1460   37.2950 H   0  0  0  0  0  0  0  0  0  0  0  0
   38.6550   24.4810   37.0290 C   0  0  0  0  0  0  0  0  0  0  0  0
   38.0790   24.2490   38.2600 C   0  0  0  0  0  0  0  0  0  0  0  0
   38.7960   23.2270   38.8770 C   0  0  0  0  0  0  0  0  0  0  0  0
   39.7830   22.8980   37.9570 C   0  0  0  0  0  0  0  0  0  0  0  0
   39.6780   23.6510   36.8750 O   0  0  0  0  0  0  0  0  0  0  0  0
   37.2160   24.7970   38.6350 H   0  0  0  0  0  0  0  0  0  0  0  0
   38.5970   22.8100   39.8540 H   0  0  0  0  0  0  0  0  0  0  0  0
   40.5370   22.1170   38.1250 H   0  0  0  0  0  0  0  0  0  0  0  0
   37.9240   22.5350   34.0590 N   0  0  0  0  0  0  0  0  0  0  0  0
   37.9220   23.6360   34.3730 C   0  0  0  0  0  0  0  0  0  0  0  0
   38.0130   25.8010   31.3990 C   0  0  0  0  0  0  0  0  0  0  0  0
   38.2790   24.5970   30.7430 C   0  0  0  0  0  0  0  0  0  0  0  0
   39.0720   24.5500   29.6150 C   0  0  0  0  0  0  0  0  0  0  0  0
   39.5890   25.7270   29.1650 N   0  0  0  0  0  0  0  0  0  0  0  0
   39.3220   26.9000   29.8160 C   0  0  0  0  0  0  0  0  0  0  0  0
   38.5590   26.9110   30.8940 N   0  0  0  0  0  0  0  0  0  0  0  0
   39.3210   23.6830   29.0600 H   0  0  0  0  0  0  0  0  0  0  0  0
   39.7420   27.8250   29.4450 H   0  0  0  0  0  0  0  0  0  0  0  0
   36.4190   23.0070   30.9860 C   0  0  0  0  0  0  0  0  0  0  0  0
   35.3810   23.7360   30.6880 O   0  0  0  0  0  0  0  0  0  0  0  0
   37.7920   23.3350   31.1140 N   0  0  0  0  0  0  0  0  0  0  0  0
   38.4530   22.6250   31.4930 H   0  0  0  0  0  0  0  0  0  0  0  0
   36.0700   21.5860   31.2260 C   0  0  0  0  0  0  0  0  0  0  0  0
   35.0560   21.1920   32.0700 C   0  0  0  0  0  0  0  0  0  0  0  0
   34.4760   21.9670   32.5920 H   0  0  0  0  0  0  0  0  0  0  0  0
   34.7230   19.8770   32.3020 C   0  0  0  0  0  0  0  0  0  0  0  0
   33.9190   19.6370   32.9730 H   0  0  0  0  0  0  0  0  0  0  0  0
   35.4280   18.8870   31.6660 C   0  0  0  0  0  3  0  0  0  0  0  0
   36.4450   19.2700   30.8190 C   0  0  0  0  0  3  0  0  0  0  0  0
   36.7120   20.5750   30.6420 N   0  0  0  0  0  0  0  0  0  0  0  0
  1  3  1  0  0  0  0
  2  7  1  0  0  0  0
  3  4  1  0  0  0  0
  3  2  2  0  0  0  0
  4  5  2  0  0  0  0
  5  9  1  0  0  0  0
  5  6  1  0  0  0  0
  6 10  1  0  0  0  0
  7  6  2  0  0  0  0
  7 11  1  0  0  0  0
  8  4  1  0  0  0  0
 11 12  2  0  0  0  0
 12 16  1  0  0  0  0
 12 13  1  0  0  0  0
 13 17  1  0  0  0  0
 14 18  1  0  0  0  0
 14 13  2  0  0  0  0
 15 11  1  0  0  0  0
 15 14  1  0  0  0  0
 19 20  3  0  0  0  0
 20  2  1  0  0  0  0
 21  1  1  0  0  0  0
 22 31  1  0  0  0  0
 22 21  2  0  0  0  0
 23 22  1  0  0  0  0
 24 23  2  0  0  0  0
 24 25  1  0  0  0  0
 25 26  2  0  0  0  0
 26 21  1  0  0  0  0
 27 23  1  0  0  0  0
 28 25  1  0  0  0  0
 29 31  1  0  0  0  0
 29 33  1  0  0  0  0
 30 29  2  0  0  0  0
 31 32  1  0  0  0  0
 33 34  1  0  0  0  0
 34 36  2  0  0  0  0
 34 35  1  0  0  0  0
 36 37  1  0  0  0  0
 38 36  1  0  0  0  0
 39 38  2  0  0  0  0
 40 39  1  0  0  0  0
 40 33  2  0  0  0  0
M  END
>  <minimizedAffinity>
-6.16490746

$$$$

 OpenBabel03272507433D

 40 43  0  0  0  0  0  0  0  0999 V2000
   37.5600   25.8410   33.9670 O   0  0  0  0  0  0  0  0  0  0  0  0
   39.3960   24.4220   34.7980 C   0  0  0  0  0  0  0  0  0  0  0  0
   38.8670   25.6190   34.3340 C   0  0  0  0  0  0  0  0  0  0  0  0
   39.6780   26.7300   34.2060 C   0  0  0  0  0  0  0  0  0  0  0  0
   41.0230   26.6500   34.5410 C   0  0  0  0  0  0  0  0  0  0  0  0
   41.5450   25.4520   35.0040 C   0  0  0  0  0  0  0  0  0  0  0  0
   40.7110   24.3660   35.1200 C   0  0  0  0  0  0  0  0  0  0  0  0
   39.3340   27.6910   33.8510 H   0  0  0  0  0  0  0  0  0  0  0  0
   41.6890   27.5010   34.4520 H   0  0  0  0  0  0  0  0  0  0  0  0
   42.5940   25.4040   35.2610 H   0  0  0  0  0  0  0  0  0  0  0  0
   41.2800   23.0950   35.6160 C   0  0  0  0  0  0  0  0  0  0  0  0
   41.3640   22.6170   36.9070 C   0  0  0  0  0  0  0  0  0  0  0  0
   41.9850   21.3710   36.8570 C   0  0  0  0  0  0  0  0  0  0  0  0
   42.2430   21.1720   35.5070 C   0  0  0  0  0  0  0  0  0  0  0  0
   41.8170   22.2020   34.7960 O   0  0  0  0  0  0  0  0  0  0  0  0
   40.9930   23.1590   37.7750 H   0  0  0  0  0  0  0  0  0  0  0  0
   42.2000   20.7340   37.7030 H   0  0  0  0  0  0  0  0  0  0  0  0
   42.7340   20.2740   35.1080 H   0  0  0  0  0  0  0  0  0  0  0  0
   37.7910   22.4240   34.9890 N   0  0  0  0  0  0  0  0  0  0  0  0
   38.4970   23.3210   34.9040 C   0  0  0  0  0  0  0  0  0  0  0  0
   37.1670   26.6200   32.9370 C   0  0  0  0  0  0  0  0  0  0  0  0
   36.4450   25.9160   31.9710 C   0  0  0  0  0  0  0  0  0  0  0  0
   35.9580   26.5370   30.8400 C   0  0  0  0  0  0  0  0  0  0  0  0
   36.2090   27.8680   30.6990 N   0  0  0  0  0  0  0  0  0  0  0  0
   36.9190   28.5470   31.6520 C   0  0  0  0  0  0  0  0  0  0  0  0
   37.3720   27.9230   32.7240 N   0  0  0  0  0  0  0  0  0  0  0  0
   35.4030   26.0790   30.0630 H   0  0  0  0  0  0  0  0  0  0  0  0
   37.1100   29.6040   31.5250 H   0  0  0  0  0  0  0  0  0  0  0  0
   36.8900   23.5870   31.3170 C   0  0  0  0  0  0  0  0  0  0  0  0
   37.8490   23.7160   30.4440 O   0  0  0  0  0  0  0  0  0  0  0  0
   36.1220   24.5510   32.0190 N   0  0  0  0  0  0  0  0  0  0  0  0
   35.3030   24.2400   32.5800 H   0  0  0  0  0  0  0  0  0  0  0  0
   36.5660   22.1700   31.6060 C   0  0  0  0  0  0  0  0  0  0  0  0
   35.3830   21.7730   32.1900 C   0  0  0  0  0  0  0  0  0  0  0  0
   34.6430   22.5420   32.4540 H   0  0  0  0  0  0  0  0  0  0  0  0
   35.0700   20.4610   32.4640 C   0  0  0  0  0  0  0  0  0  0  0  0
   34.1280   20.2180   32.9210 H   0  0  0  0  0  0  0  0  0  0  0  0
   35.9730   19.4780   32.1480 C   0  0  0  0  0  3  0  0  0  0  0  0
   37.1590   19.8650   31.5630 C   0  0  0  0  0  3  0  0  0  0  0  0
   37.3940   21.1670   31.3250 N   0  0  0  0  0  0  0  0  0  0  0  0
  1  3  1  0  0  0  0
  2 20  1  0  0  0  0
  2  7  1  0  0  0  0
  3  2  2  0  0  0  0
  4  3  1  0  0  0  0
  4  5  2  0  0  0  0
  5  6  1  0  0  0  0
  6  7  2  0  0  0  0
  6 10  1  0  0  0  0
  7 11  1  0  0  0  0
  8  4  1  0  0  0  0
  9  5  1  0  0  0  0
 11 12  2  0  0  0  0
 12 16  1  0  0  0  0
 13 12  1  0  0  0  0
 13 17  1  0  0  0  0
 14 13  2  0  0  0  0
 15 14  1  0  0  0  0
 15 11  1  0  0  0  0
 18 14  1  0  0  0  0
 20 19  3  0  0  0  0
 21  1  1  0  0  0  0
 22 31  1  0  0  0  0
 22 21  2  0  0  0  0
 23 22  1  0  0  0  0
 24 23  2  0  0  0  0
 24 25  1  0  0  0  0
 25 26  2  0  0  0  0
 26 21  1  0  0  0  0
 27 23  1  0  0  0  0
 28 25  1  0  0  0  0
 29 33  1  0  0  0  0
 29 31  1  0  0  0  0
 30 29  2  0  0  0  0
 31 32  1  0  0  0  0
 33 34  1  0  0  0  0
 34 35  1  0  0  0  0
 34 36  2  0  0  0  0
 36 37  1  0  0  0  0
 38 36  1  0  0  0  0
 39 38  2  0  0  0  0
 40 39  1  0  0  0  0
 40 33  2  0  0  0  0
M  END
>  <minimizedAffinity>
-5.78642178

$$$$

 OpenBabel03272507433D

 40 43  0  0  0  0  0  0  0  0999 V2000
   35.9860   27.8350   32.8820 O   0  0  0  0  0  0  0  0  0  0  0  0
   37.3760   25.9250   33.5870 C   0  0  0  0  0  0  0  0  0  0  0  0
   36.8770   27.2130   33.7260 C   0  0  0  0  0  0  0  0  0  0  0  0
   37.2750   27.9970   34.7920 C   0  0  0  0  0  0  0  0  0  0  0  0
   38.1730   27.4980   35.7250 C   0  0  0  0  0  0  0  0  0  0  0  0
   38.6670   26.2110   35.5800 C   0  0  0  0  0  0  0  0  0  0  0  0
   38.2520   25.4560   34.5080 C   0  0  0  0  0  0  0  0  0  0  0  0
   36.9280   29.0070   34.9620 H   0  0  0  0  0  0  0  0  0  0  0  0
   38.5070   28.0850   36.5730 H   0  0  0  0  0  0  0  0  0  0  0  0
   39.3670   25.8340   36.3140 H   0  0  0  0  0  0  0  0  0  0  0  0
   38.7860   24.0860   34.3670 C   0  0  0  0  0  0  0  0  0  0  0  0
   39.9720   23.6620   33.8040 C   0  0  0  0  0  0  0  0  0  0  0  0
   40.0180   22.2740   33.9120 C   0  0  0  0  0  0  0  0  0  0  0  0
   38.8290   21.9400   34.5470 C   0  0  0  0  0  0  0  0  0  0  0  0
   38.1200   23.0260   34.8050 O   0  0  0  0  0  0  0  0  0  0  0  0
   40.7060   24.3360   33.3680 H   0  0  0  0  0  0  0  0  0  0  0  0
   40.8190   21.6350   33.5660 H   0  0  0  0  0  0  0  0  0  0  0  0
   38.5380   20.9100   34.7920 H   0  0  0  0  0  0  0  0  0  0  0  0
   36.5470   24.5960   31.5500 N   0  0  0  0  0  0  0  0  0  0  0  0
   36.9190   25.1780   32.4620 C   0  0  0  0  0  0  0  0  0  0  0  0
   36.3240   28.5320   31.7770 C   0  0  0  0  0  0  0  0  0  0  0  0
   36.1560   29.9090   31.9330 C   0  0  0  0  0  0  0  0  0  0  0  0
   36.4480   30.7920   30.9140 C   0  0  0  0  0  0  0  0  0  0  0  0
   36.9070   30.2670   29.7440 N   0  0  0  0  0  0  0  0  0  0  0  0
   37.0680   28.9160   29.6030 C   0  0  0  0  0  0  0  0  0  0  0  0
   36.7790   28.0970   30.5980 N   0  0  0  0  0  0  0  0  0  0  0  0
   36.3490   31.8460   30.9500 H   0  0  0  0  0  0  0  0  0  0  0  0
   37.4340   28.5160   28.6670 H   0  0  0  0  0  0  0  0  0  0  0  0
   34.3320   30.5210   33.4650 C   0  0  0  0  0  0  0  0  0  0  0  0
   33.2760   30.0860   32.8370 O   0  0  0  0  0  0  0  0  0  0  0  0
   35.7000   30.5550   33.0930 N   0  0  0  0  0  0  0  0  0  0  0  0
   36.3780   31.0700   33.6900 H   0  0  0  0  0  0  0  0  0  0  0  0
   34.0150   31.0710   34.8040 C   0  0  0  0  0  0  0  0  0  0  0  0
   34.9790   31.4990   35.6900 C   0  0  0  0  0  0  0  0  0  0  0  0
   36.0360   31.4290   35.3900 H   0  0  0  0  0  0  0  0  0  0  0  0
   34.6990   32.0100   36.9360 C   0  0  0  0  0  0  0  0  0  0  0  0
   35.4990   32.3270   37.5790 H   0  0  0  0  0  0  0  0  0  0  0  0
   33.3910   32.1090   37.3390 C   0  0  0  0  0  3  0  0  0  0  0  0
   32.4180   31.6840   36.4610 C   0  0  0  0  0  3  0  0  0  0  0  0
   32.7690   31.1950   35.2590 N   0  0  0  0  0  0  0  0  0  0  0  0
  1  3  1  0  0  0  0
  2  3  2  0  0  0  0
  2  7  1  0  0  0  0
  3  4  1  0  0  0  0
  4  8  1  0  0  0  0
  4  5  2  0  0  0  0
  5  9  1  0  0  0  0
  6  5  1  0  0  0  0
  6 10  1  0  0  0  0
  7  6  2  0  0  0  0
 11  7  1  0  0  0  0
 11 15  1  0  0  0  0
 12 13  1  0  0  0  0
 12 11  2  0  0  0  0
 13 14  2  0  0  0  0
 14 18  1  0  0  0  0
 14 15  1  0  0  0  0
 16 12  1  0  0  0  0
 17 13  1  0  0  0  0
 19 20  3  0  0  0  0
 20  2  1  0  0  0  0
 21 22  1  0  0  0  0
 21  1  1  0  0  0  0
 22 31  1  0  0  0  0
 23 27  1  0  0  0  0
 23 22  2  0  0  0  0
 24 23  1  0  0  0  0
 25 24  2  0  0  0  0
 25 26  1  0  0  0  0
 26 21  2  0  0  0  0
 28 25  1  0  0  0  0
 29 33  1  0  0  0  0
 30 29  2  0  0  0  0
 31 29  1  0  0  0  0
 31 32  1  0  0  0  0
 33 40  2  0  0  0  0
 33 34  1  0  0  0  0
 34 36  2  0  0  0  0
 35 34  1  0  0  0  0
 36 38  1  0  0  0  0
 36 37  1  0  0  0  0
 39 38  2  0  0  0  0
 40 39  1  0  0  0  0
M  END
>  <minimizedAffinity>
-5.70637941

$$$$

 OpenBabel03272507433D

 40 43  0  0  0  0  0  0  0  0999 V2000
   35.4410   28.7040   33.8040 O   0  0  0  0  0  0  0  0  0  0  0  0
   33.7420   30.2460   34.7060 C   0  0  0  0  0  0  0  0  0  0  0  0
   35.0440   29.7900   34.5500 C   0  0  0  0  0  0  0  0  0  0  0  0
   36.0850   30.4450   35.1800 C   0  0  0  0  0  0  0  0  0  0  0  0
   35.8310   31.5590   35.9670 C   0  0  0  0  0  0  0  0  0  0  0  0
   34.5280   32.0090   36.1180 C   0  0  0  0  0  0  0  0  0  0  0  0
   33.5150   31.3350   35.4790 C   0  0  0  0  0  0  0  0  0  0  0  0
   37.1220   30.1450   35.1030 H   0  0  0  0  0  0  0  0  0  0  0  0
   36.6230   32.0970   36.4760 H   0  0  0  0  0  0  0  0  0  0  0  0
   34.3440   32.8780   36.7350 H   0  0  0  0  0  0  0  0  0  0  0  0
   32.1310   31.8260   35.6480 C   0  0  0  0  0  0  0  0  0  0  0  0
   31.2340   31.5830   36.6670 C   0  0  0  0  0  0  0  0  0  0  0  0
   30.0600   32.2720   36.3700 C   0  0  0  0  0  0  0  0  0  0  0  0
   30.3290   32.9010   35.1610 C   0  0  0  0  0  0  0  0  0  0  0  0
   31.5570   32.6240   34.7570 O   0  0  0  0  0  0  0  0  0  0  0  0
   31.4560   30.9560   37.5280 H   0  0  0  0  0  0  0  0  0  0  0  0
   29.1620   32.2870   36.9710 H   0  0  0  0  0  0  0  0  0  0  0  0
   29.6080   33.5380   34.6330 H   0  0  0  0  0  0  0  0  0  0  0  0
   31.9050   28.9460   33.4640 N   0  0  0  0  0  0  0  0  0  0  0  0
   32.7220   29.5180   34.0270 C   0  0  0  0  0  0  0  0  0  0  0  0
   35.9900   28.7710   32.5730 C   0  0  0  0  0  0  0  0  0  0  0  0
   36.7580   27.6480   32.2620 C   0  0  0  0  0  0  0  0  0  0  0  0
   37.4030   27.5290   31.0470 C   0  0  0  0  0  0  0  0  0  0  0  0
   37.2620   28.5530   30.1610 N   0  0  0  0  0  0  0  0  0  0  0  0
   36.5070   29.6490   30.4780 C   0  0  0  0  0  0  0  0  0  0  0  0
   35.9020   29.7320   31.6490 N   0  0  0  0  0  0  0  0  0  0  0  0
   38.0020   26.7130   30.7330 H   0  0  0  0  0  0  0  0  0  0  0  0
   36.4050   30.4540   29.7620 H   0  0  0  0  0  0  0  0  0  0  0  0
   38.1010   26.4450   33.9340 C   0  0  0  0  0  0  0  0  0  0  0  0
   39.1730   27.1800   34.0200 O   0  0  0  0  0  0  0  0  0  0  0  0
   36.9630   26.5360   33.0930 N   0  0  0  0  0  0  0  0  0  0  0  0
   36.2660   25.7630   33.0920 H   0  0  0  0  0  0  0  0  0  0  0  0
   38.0990   25.3210   34.9010 C   0  0  0  0  0  0  0  0  0  0  0  0
   38.0560   25.5020   36.2660 C   0  0  0  0  0  0  0  0  0  0  0  0
   38.0210   26.5290   36.6580 H   0  0  0  0  0  0  0  0  0  0  0  0
   38.0530   24.4690   37.1740 C   0  0  0  0  0  0  0  0  0  0  0  0
   38.0180   24.6790   38.2270 H   0  0  0  0  0  0  0  0  0  0  0  0
   38.0970   23.1760   36.7150 C   0  0  0  0  0  3  0  0  0  0  0  0
   38.1410   22.9840   35.3510 C   0  0  0  0  0  3  0  0  0  0  0  0
   38.1390   24.0440   34.5260 N   0  0  0  0  0  0  0  0  0  0  0  0
  1  3  1  0  0  0  0
  2  7  1  0  0  0  0
  3  2  2  0  0  0  0
  3  4  1  0  0  0  0
  4  5  2  0  0  0  0
  5  6  1  0  0  0  0
  5  9  1  0  0  0  0
  6 10  1  0  0  0  0
  7 11  1  0  0  0  0
  7  6  2  0  0  0  0
  8  4  1  0  0  0  0
 11 12  2  0  0  0  0
 12 16  1  0  0  0  0
 13 12  1  0  0  0  0
 13 17  1  0  0  0  0
 14 13  2  0  0  0  0
 15 14  1  0  0  0  0
 15 11  1  0  0  0  0
 18 14  1  0  0  0  0
 19 20  3  0  0  0  0
 20  2  1  0  0  0  0
 21  1  1  0  0  0  0
 22 21  1  0  0  0  0
 22 31  1  0  0  0  0
 23 22  2  0  0  0  0
 24 25  2  0  0  0  0
 24 23  1  0  0  0  0
 25 26  1  0  0  0  0
 26 21  2  0  0  0  0
 27 23  1  0  0  0  0
 28 25  1  0  0  0  0
 29 30  2  0  0  0  0
 29 33  1  0  0  0  0
 31 29  1  0  0  0  0
 32 31  1  0  0  0  0
 33 34  1  0  0  0  0
 34 35  1  0  0  0  0
 34 36  2  0  0  0  0
 36 37  1  0  0  0  0
 38 36  1  0  0  0  0
 39 38  2  0  0  0  0
 40 33  2  0  0  0  0
 40 39  1  0  0  0  0
M  END
>  <minimizedAffinity>
-5.70261192

$$$$

 OpenBabel03272507433D

 40 43  0  0  0  0  0  0  0  0999 V2000
   37.9720   26.3460   34.2750 O   0  0  0  0  0  0  0  0  0  0  0  0
   39.7080   24.7440   34.9790 C   0  0  0  0  0  0  0  0  0  0  0  0
   39.2770   25.9750   34.5040 C   0  0  0  0  0  0  0  0  0  0  0  0
   40.1970   26.9640   34.2140 C   0  0  0  0  0  0  0  0  0  0  0  0
   41.5520   26.7280   34.3970 C   0  0  0  0  0  0  0  0  0  0  0  0
   41.9760   25.4970   34.8720 C   0  0  0  0  0  0  0  0  0  0  0  0
   41.0350   24.5340   35.1510 C   0  0  0  0  0  0  0  0  0  0  0  0
   39.9320   27.9440   33.8410 H   0  0  0  0  0  0  0  0  0  0  0  0
   42.3010   27.4810   34.1790 H   0  0  0  0  0  0  0  0  0  0  0  0
   43.0350   25.3260   35.0100 H   0  0  0  0  0  0  0  0  0  0  0  0
   41.5000   23.2250   35.6570 C   0  0  0  0  0  0  0  0  0  0  0  0
   41.5220   22.7440   36.9490 C   0  0  0  0  0  0  0  0  0  0  0  0
   42.0520   21.4560   36.9110 C   0  0  0  0  0  0  0  0  0  0  0  0
   42.3240   21.2370   35.5670 C   0  0  0  0  0  0  0  0  0  0  0  0
   41.9890   22.2950   34.8480 O   0  0  0  0  0  0  0  0  0  0  0  0
   41.1730   23.3110   37.8100 H   0  0  0  0  0  0  0  0  0  0  0  0
   42.2020   20.8050   37.7610 H   0  0  0  0  0  0  0  0  0  0  0  0
   42.7560   20.3070   35.1770 H   0  0  0  0  0  0  0  0  0  0  0  0
   37.9040   22.9860   35.4890 N   0  0  0  0  0  0  0  0  0  0  0  0
   38.7000   23.7740   35.2550 C   0  0  0  0  0  0  0  0  0  0  0  0
   37.3670   26.3440   33.0680 C   0  0  0  0  0  0  0  0  0  0  0  0
   36.3730   27.3180   32.9590 C   0  0  0  0  0  0  0  0  0  0  0  0
   35.6390   27.4730   31.8010 C   0  0  0  0  0  0  0  0  0  0  0  0
   35.9220   26.6370   30.7650 N   0  0  0  0  0  0  0  0  0  0  0  0
   36.8980   25.6850   30.8840 C   0  0  0  0  0  0  0  0  0  0  0  0
   37.5820   25.5620   32.0070 N   0  0  0  0  0  0  0  0  0  0  0  0
   34.8710   28.1840   31.6370 H   0  0  0  0  0  0  0  0  0  0  0  0
   37.1090   25.0290   30.0500 H   0  0  0  0  0  0  0  0  0  0  0  0
   35.7840   29.6020   33.6560 C   0  0  0  0  0  0  0  0  0  0  0  0
   35.9890   30.2920   32.5700 O   0  0  0  0  0  0  0  0  0  0  0  0
   36.0070   28.2340   33.9570 N   0  0  0  0  0  0  0  0  0  0  0  0
   35.8990   27.9040   34.9390 H   0  0  0  0  0  0  0  0  0  0  0  0
   35.2150   30.4190   34.7550 C   0  0  0  0  0  0  0  0  0  0  0  0
   33.8870   30.3710   35.1190 C   0  0  0  0  0  0  0  0  0  0  0  0
   33.2160   29.6950   34.5680 H   0  0  0  0  0  0  0  0  0  0  0  0
   33.3470   31.1230   36.1350 C   0  0  0  0  0  0  0  0  0  0  0  0
   32.3010   31.0380   36.3690 H   0  0  0  0  0  0  0  0  0  0  0  0
   34.1580   31.9770   36.8400 C   0  0  0  0  0  3  0  0  0  0  0  0
   35.4880   32.0320   36.4840 C   0  0  0  0  0  3  0  0  0  0  0  0
   35.9440   31.2660   35.4790 N   0  0  0  0  0  0  0  0  0  0  0  0
  1  3  1  0  0  0  0
  2  7  1  0  0  0  0
  2 20  1  0  0  0  0
  3  2  2  0  0  0  0
  4  5  2  0  0  0  0
  4  3  1  0  0  0  0
  5  6  1  0  0  0  0
  6 10  1  0  0  0  0
  6  7  2  0  0  0  0
  7 11  1  0  0  0  0
  8  4  1  0  0  0  0
  9  5  1  0  0  0  0
 11 12  2  0  0  0  0
 12 16  1  0  0  0  0
 13 12  1  0  0  0  0
 13 17  1  0  0  0  0
 14 13  2  0  0  0  0
 15 14  1  0  0  0  0
 15 11  1  0  0  0  0
 18 14  1  0  0  0  0
 20 19  3  0  0  0  0
 21  1  1  0  0  0  0
 22 21  1  0  0  0  0
 22 31  1  0  0  0  0
 23 22  2  0  0  0  0
 24 25  2  0  0  0  0
 24 23  1  0  0  0  0
 25 26  1  0  0  0  0
 26 21  2  0  0  0  0
 27 23  1  0  0  0  0
 28 25  1  0  0  0  0
 29 31  1  0  0  0  0
 29 33  1  0  0  0  0
 30 29  2  0  0  0  0
 31 32  1  0  0  0  0
 33 34  2  0  0  0  0
 33 40  1  0  0  0  0
 34 36  1  0  0  0  0
 35 34  1  0  0  0  0
 36 37  1  0  0  0  0
 36 38  2  0  0  0  0
 39 38  1  0  0  0  0
 40 39  2  0  0  0  0
M  END
>  <minimizedAffinity>
-5.67481041

$$$$

 OpenBabel03272507433D

 40 43  0  0  0  0  0  0  0  0999 V2000
   36.2300   27.6970   32.1930 O   0  0  0  0  0  0  0  0  0  0  0  0
   36.4500   25.2460   32.0440 C   0  0  0  0  0  0  0  0  0  0  0  0
   36.8210   26.4970   32.5180 C   0  0  0  0  0  0  0  0  0  0  0  0
   37.8770   26.6170   33.4000 C   0  0  0  0  0  0  0  0  0  0  0  0
   38.5670   25.4870   33.8160 C   0  0  0  0  0  0  0  0  0  0  0  0
   38.1910   24.2400   33.3390 C   0  0  0  0  0  0  0  0  0  0  0  0
   37.1360   24.1550   32.4620 C   0  0  0  0  0  0  0  0  0  0  0  0
   38.2200   27.5580   33.8080 H   0  0  0  0  0  0  0  0  0  0  0  0
   39.4010   25.5440   34.5060 H   0  0  0  0  0  0  0  0  0  0  0  0
   38.7370   23.3670   33.6710 H   0  0  0  0  0  0  0  0  0  0  0  0
   36.7450   22.8200   31.9630 C   0  0  0  0  0  0  0  0  0  0  0  0
   35.6810   22.0250   32.3310 C   0  0  0  0  0  0  0  0  0  0  0  0
   35.7420   20.8580   31.5720 C   0  0  0  0  0  0  0  0  0  0  0  0
   36.8670   21.0270   30.7760 C   0  0  0  0  0  0  0  0  0  0  0  0
   37.4410   22.1920   31.0240 O   0  0  0  0  0  0  0  0  0  0  0  0
   34.9500   22.3070   33.0870 H   0  0  0  0  0  0  0  0  0  0  0  0
   35.0500   20.0300   31.6220 H   0  0  0  0  0  0  0  0  0  0  0  0
   37.2140   20.2830   30.0460 H   0  0  0  0  0  0  0  0  0  0  0  0
   34.4730   25.1480   30.4050 N   0  0  0  0  0  0  0  0  0  0  0  0
   35.3510   25.2030   31.1370 C   0  0  0  0  0  0  0  0  0  0  0  0
   36.5950   28.4840   31.1590 C   0  0  0  0  0  0  0  0  0  0  0  0
   36.5060   29.8450   31.4580 C   0  0  0  0  0  0  0  0  0  0  0  0
   36.8350   30.8100   30.5290 C   0  0  0  0  0  0  0  0  0  0  0  0
   37.2520   30.3840   29.3050 N   0  0  0  0  0  0  0  0  0  0  0  0
   37.3340   29.0480   29.0240 C   0  0  0  0  0  0  0  0  0  0  0  0
   37.0110   28.1480   29.9350 N   0  0  0  0  0  0  0  0  0  0  0  0
   36.7960   31.8590   30.6740 H   0  0  0  0  0  0  0  0  0  0  0  0
   37.6670   28.7260   28.0450 H   0  0  0  0  0  0  0  0  0  0  0  0
   34.7290   30.6140   32.9740 C   0  0  0  0  0  0  0  0  0  0  0  0
   33.6640   30.5330   32.2270 O   0  0  0  0  0  0  0  0  0  0  0  0
   36.0990   30.3920   32.6840 N   0  0  0  0  0  0  0  0  0  0  0  0
   36.8180   30.6410   33.3950 H   0  0  0  0  0  0  0  0  0  0  0  0
   34.4210   31.0100   34.3690 C   0  0  0  0  0  0  0  0  0  0  0  0
   35.3800   31.4460   35.2570 C   0  0  0  0  0  0  0  0  0  0  0  0
   36.4240   31.5040   34.9150 H   0  0  0  0  0  0  0  0  0  0  0  0
   35.1080   31.8160   36.5540 C   0  0  0  0  0  0  0  0  0  0  0  0
   35.9040   32.1480   37.1950 H   0  0  0  0  0  0  0  0  0  0  0  0
   33.8160   31.7540   37.0100 C   0  0  0  0  0  3  0  0  0  0  0  0
   32.8490   31.3180   36.1300 C   0  0  0  0  0  3  0  0  0  0  0  0
   33.1910   30.9740   34.8760 N   0  0  0  0  0  0  0  0  0  0  0  0
  1  3  1  0  0  0  0
  2  7  2  0  0  0  0
  2  3  1  0  0  0  0
  3  4  2  0  0  0  0
  4  8  1  0  0  0  0
  4  5  1  0  0  0  0
  5  9  1  0  0  0  0
  6 10  1  0  0  0  0
  6  5  2  0  0  0  0
  7  6  1  0  0  0  0
 11 12  2  0  0  0  0
 11  7  1  0  0  0  0
 12 16  1  0  0  0  0
 13 17  1  0  0  0  0
 13 12  1  0  0  0  0
 14 15  1  0  0  0  0
 14 13  2  0  0  0  0
 15 11  1  0  0  0  0
 18 14  1  0  0  0  0
 19 20  3  0  0  0  0
 20  2  1  0  0  0  0
 21 22  1  0  0  0  0
 21  1  1  0  0  0  0
 22 31  1  0  0  0  0
 23 27  1  0  0  0  0
 23 22  2  0  0  0  0
 24 23  1  0  0  0  0
 25 24  2  0  0  0  0
 25 26  1  0  0  0  0
 26 21  2  0  0  0  0
 28 25  1  0  0  0  0
 29 33  1  0  0  0  0
 30 29  2  0  0  0  0
 31 29  1  0  0  0  0
 31 32  1  0  0  0  0
 33 40  2  0  0  0  0
 33 34  1  0  0  0  0
 34 36  2  0  0  0  0
 35 34  1  0  0  0  0
 36 38  1  0  0  0  0
 36 37  1  0  0  0  0
 39 38  2  0  0  0  0
 40 39  1  0  0  0  0
M  END
>  <minimizedAffinity>
-5.66622448

$$$$

 OpenBabel03272507433D

 40 43  0  0  0  0  0  0  0  0999 V2000
   38.6220   26.1650   32.1730 O   0  0  0  0  0  0  0  0  0  0  0  0
   37.0010   27.8510   32.9520 C   0  0  0  0  0  0  0  0  0  0  0  0
   37.8060   27.2580   31.9890 C   0  0  0  0  0  0  0  0  0  0  0  0
   37.8360   27.7660   30.7040 C   0  0  0  0  0  0  0  0  0  0  0  0
   37.0610   28.8690   30.3750 C   0  0  0  0  0  0  0  0  0  0  0  0
   36.2590   29.4570   31.3420 C   0  0  0  0  0  0  0  0  0  0  0  0
   36.2520   28.9270   32.6100 C   0  0  0  0  0  0  0  0  0  0  0  0
   38.4390   27.3550   29.9060 H   0  0  0  0  0  0  0  0  0  0  0  0
   37.0600   29.2950   29.3780 H   0  0  0  0  0  0  0  0  0  0  0  0
   35.6600   30.3160   31.0720 H   0  0  0  0  0  0  0  0  0  0  0  0
   35.3920   29.5630   33.6300 C   0  0  0  0  0  0  0  0  0  0  0  0
   35.6650   30.6240   34.4680 C   0  0  0  0  0  0  0  0  0  0  0  0
   34.5330   30.8490   35.2480 C   0  0  0  0  0  0  0  0  0  0  0  0
   33.6270   29.8860   34.8220 C   0  0  0  0  0  0  0  0  0  0  0  0
   34.1580   29.1410   33.8670 O   0  0  0  0  0  0  0  0  0  0  0  0
   36.6140   31.1570   34.4760 H   0  0  0  0  0  0  0  0  0  0  0  0
   34.4240   31.6120   36.0050 H   0  0  0  0  0  0  0  0  0  0  0  0
   32.6160   29.7770   35.2350 H   0  0  0  0  0  0  0  0  0  0  0  0
   37.0590   26.7940   35.2940 N   0  0  0  0  0  0  0  0  0  0  0  0
   37.0240   27.2710   34.2530 C   0  0  0  0  0  0  0  0  0  0  0  0
   38.6940   25.1050   31.3410 C   0  0  0  0  0  0  0  0  0  0  0  0
   38.5800   23.8840   32.0090 C   0  0  0  0  0  0  0  0  0  0  0  0
   38.6300   22.6830   31.3310 C   0  0  0  0  0  0  0  0  0  0  0  0
   38.7980   22.7340   29.9810 N   0  0  0  0  0  0  0  0  0  0  0  0
   38.9100   23.9360   29.3370 C   0  0  0  0  0  0  0  0  0  0  0  0
   38.8570   25.0680   30.0150 N   0  0  0  0  0  0  0  0  0  0  0  0
   38.5510   21.7180   31.7600 H   0  0  0  0  0  0  0  0  0  0  0  0
   39.0420   23.9580   28.2640 H   0  0  0  0  0  0  0  0  0  0  0  0
   39.4470   23.2550   34.2220 C   0  0  0  0  0  0  0  0  0  0  0  0
   40.6270   22.7800   33.9400 O   0  0  0  0  0  0  0  0  0  0  0  0
   38.3960   23.7180   33.3900 N   0  0  0  0  0  0  0  0  0  0  0  0
   37.4700   23.9370   33.8120 H   0  0  0  0  0  0  0  0  0  0  0  0
   39.1860   23.3100   35.6800 C   0  0  0  0  0  0  0  0  0  0  0  0
   38.0320   23.8350   36.2190 C   0  0  0  0  0  0  0  0  0  0  0  0
   37.2670   24.2330   35.5360 H   0  0  0  0  0  0  0  0  0  0  0  0
   37.7770   23.8930   37.5700 C   0  0  0  0  0  0  0  0  0  0  0  0
   36.8560   24.3160   37.9250 H   0  0  0  0  0  0  0  0  0  0  0  0
   38.7130   23.4060   38.4480 C   0  0  0  0  0  3  0  0  0  0  0  0
   39.8710   22.8780   37.9190 C   0  0  0  0  0  3  0  0  0  0  0  0
   40.0480   22.8560   36.5870 N   0  0  0  0  0  0  0  0  0  0  0  0
  2 20  1  0  0  0  0
  3  1  1  0  0  0  0
  3  2  2  0  0  0  0
  4  3  1  0  0  0  0
  5  4  2  0  0  0  0
  5  6  1  0  0  0  0
  6  7  2  0  0  0  0
  7  2  1  0  0  0  0
  7 11  1  0  0  0  0
  8  4  1  0  0  0  0
  9  5  1  0  0  0  0
 10  6  1  0  0  0  0
 11 15  1  0  0  0  0
 11 12  2  0  0  0  0
 12 16  1  0  0  0  0
 12 13  1  0  0  0  0
 13 17  1  0  0  0  0
 14 18  1  0  0  0  0
 14 13  2  0  0  0  0
 15 14  1  0  0  0  0
 20 19  3  0  0  0  0
 21 22  1  0  0  0  0
 21  1  1  0  0  0  0
 22 31  1  0  0  0  0
 23 27  1  0  0  0  0
 23 22  2  0  0  0  0
 24 23  1  0  0  0  0
 25 24  2  0  0  0  0
 25 26  1  0  0  0  0
 26 21  2  0  0  0  0
 28 25  1  0  0  0  0
 29 33  1  0  0  0  0
 30 29  2  0  0  0  0
 31 32  1  0  0  0  0
 31 29  1  0  0  0  0
 33 34  2  0  0  0  0
 33 40  1  0  0  0  0
 34 36  1  0  0  0  0
 35 34  1  0  0  0  0
 36 37  1  0  0  0  0
 36 38  2  0  0  0  0
 39 38  1  0  0  0  0
 40 39  2  0  0  0  0
M  END
>  <minimizedAffinity>
-5.65229797

$$$$

 OpenBabel03272507433D

 40 43  0  0  0  0  0  0  0  0999 V2000
   37.4670   27.0030   31.7590 O   0  0  0  0  0  0  0  0  0  0  0  0
   36.3940   28.7640   33.1090 C   0  0  0  0  0  0  0  0  0  0  0  0
   36.8200   28.2070   31.9110 C   0  0  0  0  0  0  0  0  0  0  0  0
   36.6040   28.8780   30.7220 C   0  0  0  0  0  0  0  0  0  0  0  0
   35.9610   30.1080   30.7250 C   0  0  0  0  0  0  0  0  0  0  0  0
   35.5380   30.6580   31.9250 C   0  0  0  0  0  0  0  0  0  0  0  0
   35.7680   29.9660   33.0900 C   0  0  0  0  0  0  0  0  0  0  0  0
   36.9090   28.5050   29.7540 H   0  0  0  0  0  0  0  0  0  0  0  0
   35.7760   30.6620   29.8110 H   0  0  0  0  0  0  0  0  0  0  0  0
   35.0380   31.6170   31.9130 H   0  0  0  0  0  0  0  0  0  0  0  0
   35.3110   30.5640   34.3620 C   0  0  0  0  0  0  0  0  0  0  0  0
   36.0110   31.3310   35.2700 C   0  0  0  0  0  0  0  0  0  0  0  0
   35.1410   31.6540   36.3090 C   0  0  0  0  0  0  0  0  0  0  0  0
   33.9430   31.0460   35.9540 C   0  0  0  0  0  0  0  0  0  0  0  0
   34.0700   30.4100   34.8020 O   0  0  0  0  0  0  0  0  0  0  0  0
   37.0560   31.6060   35.1470 H   0  0  0  0  0  0  0  0  0  0  0  0
   35.3820   32.2470   37.1790 H   0  0  0  0  0  0  0  0  0  0  0  0
   33.0300   31.1000   36.5610 H   0  0  0  0  0  0  0  0  0  0  0  0
   36.8650   27.3950   35.2320 N   0  0  0  0  0  0  0  0  0  0  0  0
   36.6520   28.0140   34.2930 C   0  0  0  0  0  0  0  0  0  0  0  0
   36.8550   25.8040   31.6560 C   0  0  0  0  0  0  0  0  0  0  0  0
   37.6000   24.7670   32.2210 C   0  0  0  0  0  0  0  0  0  0  0  0
   37.1430   23.4640   32.2140 C   0  0  0  0  0  0  0  0  0  0  0  0
   35.9350   23.2290   31.6330 N   0  0  0  0  0  0  0  0  0  0  0  0
   35.2140   24.2530   31.0820 C   0  0  0  0  0  0  0  0  0  0  0  0
   35.6800   25.4890   31.1050 N   0  0  0  0  0  0  0  0  0  0  0  0
   37.6430   22.6230   32.6190 H   0  0  0  0  0  0  0  0  0  0  0  0
   34.2560   24.0480   30.6240 H   0  0  0  0  0  0  0  0  0  0  0  0
   39.0160   24.5890   34.2240 C   0  0  0  0  0  0  0  0  0  0  0  0
   38.1520   24.3030   35.1570 O   0  0  0  0  0  0  0  0  0  0  0  0
   38.8470   24.8980   32.8500 N   0  0  0  0  0  0  0  0  0  0  0  0
   39.6640   25.2310   32.2980 H   0  0  0  0  0  0  0  0  0  0  0  0
   40.4140   24.5820   34.7150 C   0  0  0  0  0  0  0  0  0  0  0  0
   40.9230   23.5870   35.5210 C   0  0  0  0  0  0  0  0  0  0  0  0
   40.2620   22.7590   35.8140 H   0  0  0  0  0  0  0  0  0  0  0  0
   42.2190   23.5680   35.9840 C   0  0  0  0  0  0  0  0  0  0  0  0
   42.5530   22.7610   36.6100 H   0  0  0  0  0  0  0  0  0  0  0  0
   43.0680   24.5880   35.6360 C   0  0  0  0  0  3  0  0  0  0  0  0
   42.5680   25.5880   34.8300 C   0  0  0  0  0  3  0  0  0  0  0  0
   41.2910   25.5380   34.4160 N   0  0  0  0  0  0  0  0  0  0  0  0
  1  3  1  0  0  0  0
  2 20  1  0  0  0  0
  3  2  2  0  0  0  0
  4  5  2  0  0  0  0
  4  3  1  0  0  0  0
  5  6  1  0  0  0  0
  6  7  2  0  0  0  0
  7  2  1  0  0  0  0
  7 11  1  0  0  0  0
  8  4  1  0  0  0  0
  9  5  1  0  0  0  0
 10  6  1  0  0  0  0
 11 15  1  0  0  0  0
 11 12  2  0  0  0  0
 12 13  1  0  0  0  0
 13 17  1  0  0  0  0
 14 13  2  0  0  0  0
 14 18  1  0  0  0  0
 15 14  1  0  0  0  0
 16 12  1  0  0  0  0
 20 19  3  0  0  0  0
 21  1  1  0  0  0  0
 21 22  1  0  0  0  0
 22 31  1  0  0  0  0
 23 22  2  0  0  0  0
 23 27  1  0  0  0  0
 24 23  1  0  0  0  0
 25 26  1  0  0  0  0
 25 24  2  0  0  0  0
 26 21  2  0  0  0  0
 28 25  1  0  0  0  0
 29 33  1  0  0  0  0
 29 30  2  0  0  0  0
 31 29  1  0  0  0  0
 32 31  1  0  0  0  0
 33 34  1  0  0  0  0
 34 35  1  0  0  0  0
 34 36  2  0  0  0  0
 36 37  1  0  0  0  0
 38 36  1  0  0  0  0
 39 38  2  0  0  0  0
 40 33  2  0  0  0  0
 40 39  1  0  0  0  0
M  END
>  <minimizedAffinity>
-5.59979534

$$$$

 OpenBabel03272507433D

 40 43  0  0  0  0  0  0  0  0999 V2000
   38.5640   26.7550   32.2740 O   0  0  0  0  0  0  0  0  0  0  0  0
   36.8610   28.3110   33.1430 C   0  0  0  0  0  0  0  0  0  0  0  0
   37.5700   27.6940   32.1210 C   0  0  0  0  0  0  0  0  0  0  0  0
   37.3000   28.0110   30.8030 C   0  0  0  0  0  0  0  0  0  0  0  0
   36.3200   28.9450   30.5000 C   0  0  0  0  0  0  0  0  0  0  0  0
   35.6150   29.5570   31.5240 C   0  0  0  0  0  0  0  0  0  0  0  0
   35.9070   29.2200   32.8250 C   0  0  0  0  0  0  0  0  0  0  0  0
   37.8130   27.5700   29.9590 H   0  0  0  0  0  0  0  0  0  0  0  0
   36.0830   29.2170   29.4780 H   0  0  0  0  0  0  0  0  0  0  0  0
   34.8540   30.2830   31.2740 H   0  0  0  0  0  0  0  0  0  0  0  0
   35.1480   29.8800   33.9070 C   0  0  0  0  0  0  0  0  0  0  0  0
   33.8930   29.5890   34.4000 C   0  0  0  0  0  0  0  0  0  0  0  0
   33.6180   30.4970   35.4200 C   0  0  0  0  0  0  0  0  0  0  0  0
   34.7520   31.2980   35.4800 C   0  0  0  0  0  0  0  0  0  0  0  0
   35.6400   30.9130   34.5790 O   0  0  0  0  0  0  0  0  0  0  0  0
   33.2700   28.7820   34.0220 H   0  0  0  0  0  0  0  0  0  0  0  0
   32.7140   30.5370   36.0100 H   0  0  0  0  0  0  0  0  0  0  0  0
   34.8730   32.1290   36.1870 H   0  0  0  0  0  0  0  0  0  0  0  0
   37.4670   27.6100   35.5400 N   0  0  0  0  0  0  0  0  0  0  0  0
   37.1950   27.9330   34.4750 C   0  0  0  0  0  0  0  0  0  0  0  0
   39.8870   27.0060   32.1820 C   0  0  0  0  0  0  0  0  0  0  0  0
   40.5880   26.6440   33.3330 C   0  0  0  0  0  0  0  0  0  0  0  0
   41.9520   26.8240   33.4330 C   0  0  0  0  0  0  0  0  0  0  0  0
   42.5910   27.3710   32.3630 N   0  0  0  0  0  0  0  0  0  0  0  0
   41.8930   27.7220   31.2400 C   0  0  0  0  0  0  0  0  0  0  0  0
   40.5870   27.5380   31.1760 N   0  0  0  0  0  0  0  0  0  0  0  0
   42.5570   26.5770   34.2670 H   0  0  0  0  0  0  0  0  0  0  0  0
   42.4170   28.1560   30.3980 H   0  0  0  0  0  0  0  0  0  0  0  0
   39.8050   24.6700   34.5740 C   0  0  0  0  0  0  0  0  0  0  0  0
   39.8860   23.7240   33.6830 O   0  0  0  0  0  0  0  0  0  0  0  0
   40.0330   26.0670   34.4860 N   0  0  0  0  0  0  0  0  0  0  0  0
   39.7830   26.6770   35.2910 H   0  0  0  0  0  0  0  0  0  0  0  0
   39.4010   24.1670   35.9090 C   0  0  0  0  0  0  0  0  0  0  0  0
   38.2340   24.5460   36.5350 C   0  0  0  0  0  0  0  0  0  0  0  0
   37.5690   25.2560   36.0210 H   0  0  0  0  0  0  0  0  0  0  0  0
   37.8480   24.0870   37.7730 C   0  0  0  0  0  0  0  0  0  0  0  0
   36.9230   24.4220   38.2050 H   0  0  0  0  0  0  0  0  0  0  0  0
   38.6560   23.2010   38.4400 C   0  0  0  0  0  3  0  0  0  0  0  0
   39.8260   22.8150   37.8220 C   0  0  0  0  0  3  0  0  0  0  0  0
   40.1370   23.3070   36.6100 N   0  0  0  0  0  0  0  0  0  0  0  0
  2 20  1  0  0  0  0
  3  1  1  0  0  0  0
  3  2  2  0  0  0  0
  4  3  1  0  0  0  0
  5  4  2  0  0  0  0
  5  6  1  0  0  0  0
  6  7  2  0  0  0  0
  7  2  1  0  0  0  0
  7 11  1  0  0  0  0
  8  4  1  0  0  0  0
  9  5  1  0  0  0  0
 10  6  1  0  0  0  0
 11 12  2  0  0  0  0
 11 15  1  0  0  0  0
 12 13  1  0  0  0  0
 13 14  2  0  0  0  0
 13 17  1  0  0  0  0
 14 18  1  0  0  0  0
 15 14  1  0  0  0  0
 16 12  1  0  0  0  0
 20 19  3  0  0  0  0
 21  1  1  0  0  0  0
 21 22  1  0  0  0  0
 22 23  2  0  0  0  0
 22 31  1  0  0  0  0
 23 27  1  0  0  0  0
 24 23  1  0  0  0  0
 25 24  2  0  0  0  0
 26 25  1  0  0  0  0
 26 21  2  0  0  0  0
 28 25  1  0  0  0  0
 29 33  1  0  0  0  0
 30 29  2  0  0  0  0
 31 29  1  0  0  0  0
 31 32  1  0  0  0  0
 33 34  2  0  0  0  0
 33 40  1  0  0  0  0
 34 36  1  0  0  0  0
 35 34  1  0  0  0  0
 36 37  1  0  0  0  0
 36 38  2  0  0  0  0
 39 38  1  0  0  0  0
 40 39  2  0  0  0  0
M  END
>  <minimizedAffinity>
-5.55041313

$$$$
