
 OpenBabel03262522083D

 19 20  0  0  0  0  0  0  0  0999 V2000
   37.9300   30.9780   47.8150 C   0  0  0  0  0  0  0  0  0  0  0  0
   37.9570   30.3290   46.7710 O   0  0  0  0  0  0  0  0  0  0  0  0
   37.7380   29.7880   49.9820 C   0  0  0  0  0  0  0  0  0  0  0  0
   37.1120   30.4410   48.9030 C   0  0  0  0  0  0  0  0  0  0  0  0
   35.7320   30.5470   48.9240 C   0  0  0  0  0  0  0  0  0  0  0  0
   35.0350   30.0220   49.9760 N   0  0  0  0  0  0  0  0  0  0  0  0
   35.6740   29.3990   51.0010 C   0  0  0  0  0  0  0  0  0  0  0  0
   36.9970   29.2850   51.0020 N   0  0  0  0  0  0  0  0  0  0  0  0
   38.8140   29.6850   50.0020 H   0  0  0  0  0  0  0  0  0  0  0  0
   35.2410   31.0420   48.1080 H   0  0  0  0  0  0  0  0  0  0  0  0
   35.0480   29.0150   51.7890 H   0  0  0  0  0  0  0  0  0  0  0  0
   38.6830   32.2230   47.9520 C   0  0  0  0  0  0  0  0  0  0  0  0
   38.5850   32.8830   49.1610 C   0  0  0  0  0  0  0  0  0  0  0  0
   37.9830   32.5070   49.9780 H   0  0  0  0  0  0  0  0  0  0  0  0
   39.2680   34.0680   49.3670 C   0  0  0  0  0  0  0  0  0  0  0  0
   39.1950   34.5830   50.3040 H   0  0  0  0  0  0  0  0  0  0  0  0
   40.0330   34.5170   48.2880 C   0  0  0  0  0  0  0  0  0  0  0  0
   40.1220   33.8470   47.0840 C   0  0  0  0  0  0  0  0  0  0  0  0
   39.4360   32.6820   46.9160 N   0  0  0  0  0  0  0  0  0  0  0  0
  1 12  1  0  0  0  0
  1  4  1  0  0  0  0
  2  1  2  0  0  0  0
  3  9  1  0  0  0  0
  3  8  1  0  0  0  0
  4  5  1  0  0  0  0
  4  3  2  0  0  0  0
  5  6  2  0  0  0  0
  6  7  1  0  0  0  0
  7  8  2  0  0  0  0
  7 11  1  0  0  0  0
 10  5  1  0  0  0  0
 12 13  1  0  0  0  0
 13 15  2  0  0  0  0
 13 14  1  0  0  0  0
 15 16  1  0  0  0  0
 17 15  1  0  0  0  0
 18 17  2  0  0  0  0
 19 18  1  0  0  0  0
 19 12  2  0  0  0  0
M  END
>  <minimizedAffinity>
-4.74884224

>  <minimizedRMSD>
3.0149579

$$$$
