
 OpenBabel03262522013D

 19 20  0  0  0  0  0  0  0  0999 V2000
   38.8400   22.8570   36.0460 C   0  0  0  0  0  0  0  0  0  0  0  0
   39.6720   22.2950   36.7950 O   0  0  0  0  0  0  0  0  0  0  0  0
   37.7360   22.1270   35.4490 C   0  0  0  0  0  0  0  0  0  0  0  0
   37.7130   21.9760   34.0550 C   0  0  0  0  0  0  0  0  0  0  0  0
   36.6490   21.2720   33.4710 C   0  0  0  0  0  0  0  0  0  0  0  0
   35.6960   20.7750   34.3140 N   0  0  0  0  0  0  0  0  0  0  0  0
   35.7510   20.9390   35.6390 C   0  0  0  0  0  0  0  0  0  0  0  0
   36.7580   21.6080   36.2170 N   0  0  0  0  0  0  0  0  0  0  0  0
   38.4990   22.3910   33.4130 H   0  0  0  0  0  0  0  0  0  0  0  0
   36.5920   21.1320   32.3990 H   0  0  0  0  0  0  0  0  0  0  0  0
   34.9350   20.4990   36.2060 H   0  0  0  0  0  0  0  0  0  0  0  0
   39.0100   24.2820   35.7850 C   0  0  0  0  0  0  0  0  0  0  0  0
   38.1340   25.1950   36.3390 C   0  0  0  0  0  0  0  0  0  0  0  0
   37.3040   24.8650   36.9800 H   0  0  0  0  0  0  0  0  0  0  0  0
   38.2220   26.5690   36.1430 C   0  0  0  0  0  0  0  0  0  0  0  0
   37.5400   27.2630   36.5760 H   0  0  0  0  0  0  0  0  0  0  0  0
   39.2820   26.9600   35.3290 C   0  0  0  0  0  3  0  0  0  0  0  0
   40.1790   26.0730   34.7560 C   0  0  0  0  0  3  0  0  0  0  0  0
   39.9970   24.7690   35.0150 N   0  0  0  0  0  0  0  0  0  0  0  0
  1  2  2  0  0  0  0
  3  1  1  0  0  0  0
  3  8  1  0  0  0  0
  4  3  2  0  0  0  0
  5  4  1  0  0  0  0
  5  6  2  0  0  0  0
  6  7  1  0  0  0  0
  7 11  1  0  0  0  0
  7  8  2  0  0  0  0
  9  4  1  0  0  0  0
 10  5  1  0  0  0  0
 12  1  1  0  0  0  0
 12 13  1  0  0  0  0
 13 14  1  0  0  0  0
 15 13  2  0  0  0  0
 15 16  1  0  0  0  0
 17 15  1  0  0  0  0
 18 19  1  0  0  0  0
 18 17  2  0  0  0  0
 19 12  2  0  0  0  0
M  END
>  <minimizedAffinity>
-4.17975426

$$$$

 OpenBabel03262522013D

 19 20  0  0  0  0  0  0  0  0999 V2000
   38.8880   22.9030   35.9910 C   0  0  0  0  0  0  0  0  0  0  0  0
   39.6350   22.2700   36.7710 O   0  0  0  0  0  0  0  0  0  0  0  0
   39.0660   24.3230   35.7480 C   0  0  0  0  0  0  0  0  0  0  0  0
   38.1250   25.2150   36.2830 C   0  0  0  0  0  0  0  0  0  0  0  0
   38.2910   26.5890   36.0510 C   0  0  0  0  0  0  0  0  0  0  0  0
   39.3730   26.9670   35.3100 N   0  0  0  0  0  0  0  0  0  0  0  0
   40.2500   26.0890   34.8150 C   0  0  0  0  0  0  0  0  0  0  0  0
   40.1100   24.7720   35.0240 N   0  0  0  0  0  0  0  0  0  0  0  0
   37.2690   24.8700   36.8740 H   0  0  0  0  0  0  0  0  0  0  0  0
   37.5890   27.3120   36.4460 H   0  0  0  0  0  0  0  0  0  0  0  0
   41.0710   26.5090   34.2400 H   0  0  0  0  0  0  0  0  0  0  0  0
   37.8180   22.1690   35.3250 C   0  0  0  0  0  0  0  0  0  0  0  0
   36.7930   21.6160   36.0670 C   0  0  0  0  0  0  0  0  0  0  0  0
   36.7680   21.7210   37.1620 H   0  0  0  0  0  0  0  0  0  0  0  0
   35.7360   20.9010   35.5150 C   0  0  0  0  0  0  0  0  0  0  0  0
   34.9510   20.4800   36.1000 H   0  0  0  0  0  0  0  0  0  0  0  0
   35.7910   20.7840   34.1290 C   0  0  0  0  0  3  0  0  0  0  0  0
   36.8030   21.3230   33.3520 C   0  0  0  0  0  3  0  0  0  0  0  0
   37.7730   21.9950   33.9940 N   0  0  0  0  0  0  0  0  0  0  0  0
  1  2  2  0  0  0  0
  3  1  1  0  0  0  0
  3  4  1  0  0  0  0
  4  9  1  0  0  0  0
  5  4  2  0  0  0  0
  5 10  1  0  0  0  0
  6  5  1  0  0  0  0
  7  8  1  0  0  0  0
  7  6  2  0  0  0  0
  8  3  2  0  0  0  0
 11  7  1  0  0  0  0
 12  1  1  0  0  0  0
 12 13  1  0  0  0  0
 13 14  1  0  0  0  0
 15 13  2  0  0  0  0
 15 16  1  0  0  0  0
 17 15  1  0  0  0  0
 18 19  1  0  0  0  0
 18 17  2  0  0  0  0
 19 12  2  0  0  0  0
M  END
>  <minimizedAffinity>
-4.0815115

$$$$

 OpenBabel03262522013D

 19 20  0  0  0  0  0  0  0  0999 V2000
   38.3780   24.0060   36.5510 C   0  0  0  0  0  0  0  0  0  0  0  0
   37.4500   23.5930   37.2840 O   0  0  0  0  0  0  0  0  0  0  0  0
   39.6810   23.3660   36.5360 C   0  0  0  0  0  0  0  0  0  0  0  0
   40.6230   23.7950   35.5900 C   0  0  0  0  0  0  0  0  0  0  0  0
   41.8850   23.1800   35.5690 C   0  0  0  0  0  0  0  0  0  0  0  0
   42.1100   22.1930   36.4850 N   0  0  0  0  0  0  0  0  0  0  0  0
   41.1870   21.8110   37.3730 C   0  0  0  0  0  0  0  0  0  0  0  0
   39.9760   22.3830   37.4100 N   0  0  0  0  0  0  0  0  0  0  0  0
   40.4030   24.5920   34.8710 H   0  0  0  0  0  0  0  0  0  0  0  0
   42.6420   23.4810   34.8560 H   0  0  0  0  0  0  0  0  0  0  0  0
   41.4820   21.0140   38.0510 H   0  0  0  0  0  0  0  0  0  0  0  0
   38.1130   25.1620   35.7030 C   0  0  0  0  0  0  0  0  0  0  0  0
   38.2480   26.4390   36.2120 C   0  0  0  0  0  0  0  0  0  0  0  0
   38.5550   26.6010   37.2560 H   0  0  0  0  0  0  0  0  0  0  0  0
   38.0160   27.5950   35.4750 C   0  0  0  0  0  0  0  0  0  0  0  0
   38.1250   28.5740   35.8810 H   0  0  0  0  0  0  0  0  0  0  0  0
   37.6310   27.3610   34.1580 C   0  0  0  0  0  3  0  0  0  0  0  0
   37.4840   26.0960   33.6130 C   0  0  0  0  0  3  0  0  0  0  0  0
   37.7350   25.0520   34.4180 N   0  0  0  0  0  0  0  0  0  0  0  0
  1  2  2  0  0  0  0
  3  1  1  0  0  0  0
  3  8  1  0  0  0  0
  4  3  2  0  0  0  0
  5  4  1  0  0  0  0
  5  6  2  0  0  0  0
  6  7  1  0  0  0  0
  7  8  2  0  0  0  0
  7 11  1  0  0  0  0
  9  4  1  0  0  0  0
 10  5  1  0  0  0  0
 12 13  1  0  0  0  0
 12  1  1  0  0  0  0
 13 14  1  0  0  0  0
 15 16  1  0  0  0  0
 15 13  2  0  0  0  0
 17 15  1  0  0  0  0
 18 17  2  0  0  0  0
 18 19  1  0  0  0  0
 19 12  2  0  0  0  0
M  END
>  <minimizedAffinity>
-4.04314137

$$$$

 OpenBabel03262522013D

 19 20  0  0  0  0  0  0  0  0999 V2000
   38.3690   26.4720   35.1810 C   0  0  0  0  0  0  0  0  0  0  0  0
   38.7530   27.5420   35.7060 O   0  0  0  0  0  0  0  0  0  0  0  0
   37.5640   26.4600   33.9730 C   0  0  0  0  0  0  0  0  0  0  0  0
   36.9910   27.6660   33.5420 C   0  0  0  0  0  0  0  0  0  0  0  0
   36.2110   27.6620   32.3750 C   0  0  0  0  0  0  0  0  0  0  0  0
   36.0610   26.4660   31.7330 N   0  0  0  0  0  0  0  0  0  0  0  0
   36.6220   25.3370   32.1740 C   0  0  0  0  0  0  0  0  0  0  0  0
   37.3710   25.3180   33.2850 N   0  0  0  0  0  0  0  0  0  0  0  0
   37.1360   28.6050   34.0870 H   0  0  0  0  0  0  0  0  0  0  0  0
   35.7510   28.5700   32.0070 H   0  0  0  0  0  0  0  0  0  0  0  0
   36.4320   24.4480   31.5780 H   0  0  0  0  0  0  0  0  0  0  0  0
   38.7560   25.2210   35.8230 C   0  0  0  0  0  0  0  0  0  0  0  0
   37.9790   24.6950   36.8360 C   0  0  0  0  0  0  0  0  0  0  0  0
   37.0640   25.2070   37.1700 H   0  0  0  0  0  0  0  0  0  0  0  0
   38.2720   23.5090   37.5020 C   0  0  0  0  0  0  0  0  0  0  0  0
   37.6630   23.1150   38.2820 H   0  0  0  0  0  0  0  0  0  0  0  0
   39.4340   22.8820   37.0590 C   0  0  0  0  0  3  0  0  0  0  0  0
   40.2390   23.3800   36.0470 C   0  0  0  0  0  3  0  0  0  0  0  0
   39.8560   24.5330   35.4750 N   0  0  0  0  0  0  0  0  0  0  0  0
  1  2  2  0  0  0  0
  1 12  1  0  0  0  0
  3  1  1  0  0  0  0
  4  3  1  0  0  0  0
  4  9  1  0  0  0  0
  5  4  2  0  0  0  0
  6  7  2  0  0  0  0
  6  5  1  0  0  0  0
  7  8  1  0  0  0  0
  8  3  2  0  0  0  0
 10  5  1  0  0  0  0
 11  7  1  0  0  0  0
 12 13  1  0  0  0  0
 13 14  1  0  0  0  0
 13 15  2  0  0  0  0
 15 16  1  0  0  0  0
 17 15  1  0  0  0  0
 18 17  2  0  0  0  0
 19 12  2  0  0  0  0
 19 18  1  0  0  0  0
M  END
>  <minimizedAffinity>
-3.98946786

$$$$

 OpenBabel03262522013D

 19 20  0  0  0  0  0  0  0  0999 V2000
   38.5060   23.2680   34.1400 C   0  0  0  0  0  0  0  0  0  0  0  0
   39.2630   23.9070   33.3750 O   0  0  0  0  0  0  0  0  0  0  0  0
   38.7110   23.2500   35.5770 C   0  0  0  0  0  0  0  0  0  0  0  0
   39.8440   22.5950   36.0810 C   0  0  0  0  0  0  0  0  0  0  0  0
   40.0490   22.5730   37.4690 C   0  0  0  0  0  0  0  0  0  0  0  0
   39.1160   23.2010   38.2430 N   0  0  0  0  0  0  0  0  0  0  0  0
   38.0470   23.8150   37.7280 C   0  0  0  0  0  0  0  0  0  0  0  0
   37.8320   23.8470   36.4060 N   0  0  0  0  0  0  0  0  0  0  0  0
   40.5700   22.1030   35.4230 H   0  0  0  0  0  0  0  0  0  0  0  0
   40.9100   22.0790   37.9000 H   0  0  0  0  0  0  0  0  0  0  0  0
   37.3740   24.2790   38.4450 H   0  0  0  0  0  0  0  0  0  0  0  0
   37.3970   22.5310   33.5430 C   0  0  0  0  0  0  0  0  0  0  0  0
   36.8600   22.9470   32.3410 C   0  0  0  0  0  0  0  0  0  0  0  0
   37.2560   23.8310   31.8200 H   0  0  0  0  0  0  0  0  0  0  0  0
   35.8040   22.3050   31.7020 C   0  0  0  0  0  0  0  0  0  0  0  0
   35.3990   22.6360   30.7740 H   0  0  0  0  0  0  0  0  0  0  0  0
   35.3230   21.1890   32.3810 C   0  0  0  0  0  3  0  0  0  0  0  0
   35.8350   20.7440   33.5890 C   0  0  0  0  0  3  0  0  0  0  0  0
   36.8560   21.4420   34.1120 N   0  0  0  0  0  0  0  0  0  0  0  0
  1  3  1  0  0  0  0
  2  1  2  0  0  0  0
  3  4  2  0  0  0  0
  3  8  1  0  0  0  0
  4  5  1  0  0  0  0
  5 10  1  0  0  0  0
  5  6  2  0  0  0  0
  7  6  1  0  0  0  0
  7 11  1  0  0  0  0
  8  7  2  0  0  0  0
  9  4  1  0  0  0  0
 12 19  1  0  0  0  0
 12  1  1  0  0  0  0
 13 12  2  0  0  0  0
 14 13  1  0  0  0  0
 15 13  1  0  0  0  0
 15 17  2  0  0  0  0
 16 15  1  0  0  0  0
 17 18  1  0  0  0  0
 18 19  2  0  0  0  0
M  END
>  <minimizedAffinity>
-3.96698785

$$$$

 OpenBabel03262522013D

 19 20  0  0  0  0  0  0  0  0999 V2000
   38.7500   23.9870   34.4320 C   0  0  0  0  0  0  0  0  0  0  0  0
   39.5110   24.8440   33.9280 O   0  0  0  0  0  0  0  0  0  0  0  0
   37.8140   23.2270   33.6240 C   0  0  0  0  0  0  0  0  0  0  0  0
   37.5410   21.9010   33.9890 C   0  0  0  0  0  0  0  0  0  0  0  0
   36.6380   21.1590   33.2120 C   0  0  0  0  0  0  0  0  0  0  0  0
   36.0800   21.7910   32.1380 N   0  0  0  0  0  0  0  0  0  0  0  0
   36.3640   23.0570   31.8190 C   0  0  0  0  0  0  0  0  0  0  0  0
   37.2240   23.7830   32.5470 N   0  0  0  0  0  0  0  0  0  0  0  0
   38.0110   21.4300   34.8610 H   0  0  0  0  0  0  0  0  0  0  0  0
   36.3990   20.1330   33.4590 H   0  0  0  0  0  0  0  0  0  0  0  0
   35.8580   23.4510   30.9420 H   0  0  0  0  0  0  0  0  0  0  0  0
   38.8270   23.7700   35.8720 C   0  0  0  0  0  0  0  0  0  0  0  0
   37.9100   24.3700   36.7120 C   0  0  0  0  0  0  0  0  0  0  0  0
   37.1130   25.0140   36.3110 H   0  0  0  0  0  0  0  0  0  0  0  0
   37.9100   24.2170   38.0950 C   0  0  0  0  0  0  0  0  0  0  0  0
   37.1950   24.6850   38.7310 H   0  0  0  0  0  0  0  0  0  0  0  0
   38.9270   23.3970   38.5750 C   0  0  0  0  0  3  0  0  0  0  0  0
   39.8650   22.7800   37.7640 C   0  0  0  0  0  3  0  0  0  0  0  0
   39.7670   22.9980   36.4430 N   0  0  0  0  0  0  0  0  0  0  0  0
  1 12  1  0  0  0  0
  2  1  2  0  0  0  0
  3  4  1  0  0  0  0
  3  1  1  0  0  0  0
  4  9  1  0  0  0  0
  5 10  1  0  0  0  0
  5  4  2  0  0  0  0
  6  5  1  0  0  0  0
  7  6  2  0  0  0  0
  7  8  1  0  0  0  0
  8  3  2  0  0  0  0
 11  7  1  0  0  0  0
 12 19  2  0  0  0  0
 12 13  1  0  0  0  0
 13 15  2  0  0  0  0
 14 13  1  0  0  0  0
 15 17  1  0  0  0  0
 15 16  1  0  0  0  0
 18 17  2  0  0  0  0
 19 18  1  0  0  0  0
M  END
>  <minimizedAffinity>
-3.96559572

$$$$

 OpenBabel03262522013D

 19 20  0  0  0  0  0  0  0  0999 V2000
   38.8780   26.3550   34.9370 C   0  0  0  0  0  0  0  0  0  0  0  0
   40.0000   26.8310   35.2260 O   0  0  0  0  0  0  0  0  0  0  0  0
   38.4660   25.0400   35.3940 C   0  0  0  0  0  0  0  0  0  0  0  0
   38.0890   24.8890   36.7360 C   0  0  0  0  0  0  0  0  0  0  0  0
   37.6890   23.6210   37.1850 C   0  0  0  0  0  0  0  0  0  0  0  0
   37.6980   22.6070   36.2700 N   0  0  0  0  0  0  0  0  0  0  0  0
   38.0650   22.7890   34.9980 C   0  0  0  0  0  0  0  0  0  0  0  0
   38.4500   23.9910   34.5490 N   0  0  0  0  0  0  0  0  0  0  0  0
   38.0950   25.7290   37.4400 H   0  0  0  0  0  0  0  0  0  0  0  0
   37.3890   23.4600   38.2130 H   0  0  0  0  0  0  0  0  0  0  0  0
   38.0310   21.9070   34.3630 H   0  0  0  0  0  0  0  0  0  0  0  0
   37.9840   27.1660   34.1180 C   0  0  0  0  0  0  0  0  0  0  0  0
   36.9330   27.8430   34.7050 C   0  0  0  0  0  0  0  0  0  0  0  0
   36.7570   27.7820   35.7890 H   0  0  0  0  0  0  0  0  0  0  0  0
   36.0340   28.6370   34.0010 C   0  0  0  0  0  0  0  0  0  0  0  0
   35.2270   29.1540   34.4670 H   0  0  0  0  0  0  0  0  0  0  0  0
   36.2800   28.6970   32.6330 C   0  0  0  0  0  3  0  0  0  0  0  0
   37.3230   28.0320   32.0090 C   0  0  0  0  0  3  0  0  0  0  0  0
   38.1290   27.2940   32.7890 N   0  0  0  0  0  0  0  0  0  0  0  0
  1  2  2  0  0  0  0
  1  3  1  0  0  0  0
  3  4  1  0  0  0  0
  4  5  2  0  0  0  0
  4  9  1  0  0  0  0
  5 10  1  0  0  0  0
  6  5  1  0  0  0  0
  7  6  2  0  0  0  0
  8  7  1  0  0  0  0
  8  3  2  0  0  0  0
 11  7  1  0  0  0  0
 12 13  1  0  0  0  0
 12  1  1  0  0  0  0
 13 14  1  0  0  0  0
 15 16  1  0  0  0  0
 15 13  2  0  0  0  0
 17 15  1  0  0  0  0
 18 17  2  0  0  0  0
 18 19  1  0  0  0  0
 19 12  2  0  0  0  0
M  END
>  <minimizedAffinity>
-3.96368361

$$$$

 OpenBabel03262522013D

 19 20  0  0  0  0  0  0  0  0999 V2000
   38.7260   22.8310   34.1750 C   0  0  0  0  0  0  0  0  0  0  0  0
   39.6420   23.1520   33.3840 O   0  0  0  0  0  0  0  0  0  0  0  0
   38.8720   22.9750   35.6120 C   0  0  0  0  0  0  0  0  0  0  0  0
   37.9580   23.7880   36.2970 C   0  0  0  0  0  0  0  0  0  0  0  0
   38.0940   23.9320   37.6870 C   0  0  0  0  0  0  0  0  0  0  0  0
   39.1220   23.2590   38.2830 N   0  0  0  0  0  0  0  0  0  0  0  0
   39.9740   22.4930   37.5970 C   0  0  0  0  0  0  0  0  0  0  0  0
   39.8630   22.3420   36.2700 N   0  0  0  0  0  0  0  0  0  0  0  0
   37.1460   24.3110   35.7810 H   0  0  0  0  0  0  0  0  0  0  0  0
   37.4100   24.5490   38.2550 H   0  0  0  0  0  0  0  0  0  0  0  0
   40.7530   22.0080   38.1800 H   0  0  0  0  0  0  0  0  0  0  0  0
   37.4910   22.3020   33.6080 C   0  0  0  0  0  0  0  0  0  0  0  0
   36.8500   21.2410   34.2170 C   0  0  0  0  0  0  0  0  0  0  0  0
   37.2570   20.7840   35.1310 H   0  0  0  0  0  0  0  0  0  0  0  0
   35.6700   20.6740   33.7450 C   0  0  0  0  0  0  0  0  0  0  0  0
   35.1860   19.8560   34.2260 H   0  0  0  0  0  0  0  0  0  0  0  0
   35.1770   21.2710   32.5890 C   0  0  0  0  0  3  0  0  0  0  0  0
   35.7920   22.3350   31.9490 C   0  0  0  0  0  3  0  0  0  0  0  0
   36.9270   22.8010   32.4960 N   0  0  0  0  0  0  0  0  0  0  0  0
  1  3  1  0  0  0  0
  2  1  2  0  0  0  0
  3  8  2  0  0  0  0
  3  4  1  0  0  0  0
  4  5  2  0  0  0  0
  5 10  1  0  0  0  0
  5  6  1  0  0  0  0
  7 11  1  0  0  0  0
  7  6  2  0  0  0  0
  8  7  1  0  0  0  0
  9  4  1  0  0  0  0
 12  1  1  0  0  0  0
 12 13  1  0  0  0  0
 13 14  1  0  0  0  0
 15 13  2  0  0  0  0
 15 16  1  0  0  0  0
 17 15  1  0  0  0  0
 18 19  1  0  0  0  0
 18 17  2  0  0  0  0
 19 12  2  0  0  0  0
M  END
>  <minimizedAffinity>
-3.93816304

$$$$

 OpenBabel03262522013D

 19 20  0  0  0  0  0  0  0  0999 V2000
   38.2120   23.6850   34.5100 C   0  0  0  0  0  0  0  0  0  0  0  0
   37.9720   22.6220   33.8920 O   0  0  0  0  0  0  0  0  0  0  0  0
   38.2520   24.9680   33.8330 C   0  0  0  0  0  0  0  0  0  0  0  0
   39.3910   25.7710   33.9920 C   0  0  0  0  0  0  0  0  0  0  0  0
   39.4360   27.0130   33.3400 C   0  0  0  0  0  0  0  0  0  0  0  0
   38.3510   27.3590   32.5860 N   0  0  0  0  0  0  0  0  0  0  0  0
   37.2830   26.5670   32.4580 C   0  0  0  0  0  0  0  0  0  0  0  0
   37.2180   25.3780   33.0710 N   0  0  0  0  0  0  0  0  0  0  0  0
   40.2420   25.4570   34.6070 H   0  0  0  0  0  0  0  0  0  0  0  0
   40.2960   27.6640   33.4360 H   0  0  0  0  0  0  0  0  0  0  0  0
   36.4810   26.9500   31.8320 H   0  0  0  0  0  0  0  0  0  0  0  0
   38.4560   23.5990   35.9450 C   0  0  0  0  0  0  0  0  0  0  0  0
   39.5490   22.9020   36.4200 C   0  0  0  0  0  0  0  0  0  0  0  0
   40.2470   22.4060   35.7300 H   0  0  0  0  0  0  0  0  0  0  0  0
   39.8560   22.7700   37.7710 C   0  0  0  0  0  0  0  0  0  0  0  0
   40.7030   22.2290   38.1230 H   0  0  0  0  0  0  0  0  0  0  0  0
   38.9580   23.4080   38.6220 C   0  0  0  0  0  3  0  0  0  0  0  0
   37.8510   24.1150   38.1830 C   0  0  0  0  0  3  0  0  0  0  0  0
   37.6540   24.1760   36.8560 N   0  0  0  0  0  0  0  0  0  0  0  0
  1 12  1  0  0  0  0
  2  1  2  0  0  0  0
  3  4  1  0  0  0  0
  3  1  1  0  0  0  0
  4  9  1  0  0  0  0
  5 10  1  0  0  0  0
  5  4  2  0  0  0  0
  6  5  1  0  0  0  0
  7  6  2  0  0  0  0
  7  8  1  0  0  0  0
  8  3  2  0  0  0  0
 11  7  1  0  0  0  0
 12 13  2  0  0  0  0
 12 19  1  0  0  0  0
 13 15  1  0  0  0  0
 14 13  1  0  0  0  0
 15 16  1  0  0  0  0
 15 17  2  0  0  0  0
 18 17  1  0  0  0  0
 19 18  2  0  0  0  0
M  END
>  <minimizedAffinity>
-3.9134028

$$$$
