
 OpenBabel03272509323D

 37 39  0  0  1  0  0  0  0  0999 V2000
   38.4420   25.8420   34.2030 C   0  0  2  0  0  0  0  0  0  0  0  0
   38.3560   27.2120   34.8060 C   0  0  0  0  0  0  0  0  0  0  0  0
   37.0180   27.8790   34.5650 C   0  0  0  0  0  0  0  0  0  0  0  0
   36.7370   27.9640   33.0660 C   0  0  0  0  0  0  0  0  0  0  0  0
   37.1740   26.7490   32.2930 C   0  0  0  0  0  0  0  0  0  0  0  0
   37.3070   25.5660   33.2700 C   0  0  1  0  0  0  0  0  0  0  0  0
   39.3770   25.6760   33.5870 H   0  0  0  0  0  0  0  0  0  0  0  0
   39.0750   27.8390   34.1780 H   0  0  0  0  0  0  0  0  0  0  0  0
   38.7040   27.3310   35.8140 H   0  0  0  0  0  0  0  0  0  0  0  0
   37.1180   28.9030   34.9320 H   0  0  0  0  0  0  0  0  0  0  0  0
   36.1670   27.3570   35.0180 H   0  0  0  0  0  0  0  0  0  0  0  0
   35.6500   28.1060   32.9540 H   0  0  0  0  0  0  0  0  0  0  0  0
   37.2290   28.8700   32.6740 H   0  0  0  0  0  0  0  0  0  0  0  0
   38.1760   26.9280   31.8660 H   0  0  0  0  0  0  0  0  0  0  0  0
   36.4350   26.4930   31.5050 H   0  0  0  0  0  0  0  0  0  0  0  0
   36.3770   25.6350   33.7820 H   0  0  0  0  0  0  0  0  0  0  0  0
   38.4590   24.7920   35.2520 C   0  0  0  0  0  0  0  0  0  0  0  0
   37.9120   25.1690   36.4950 C   0  0  0  0  0  0  0  0  0  0  0  0
   37.9130   24.1940   37.4990 C   0  0  0  0  0  0  0  0  0  0  0  0
   38.4370   22.9510   37.2230 N   0  0  0  0  0  0  0  0  0  0  0  0
   38.9570   22.6390   35.9910 C   0  0  0  0  0  0  0  0  0  0  0  0
   38.9570   23.5730   35.0250 N   0  0  0  0  0  0  0  0  0  0  0  0
   37.4730   26.0860   36.8320 H   0  0  0  0  0  0  0  0  0  0  0  0
   37.5290   24.3440   38.4920 H   0  0  0  0  0  0  0  0  0  0  0  0
   39.3540   21.6450   35.8290 H   0  0  0  0  0  0  0  0  0  0  0  0
   36.2850   23.6820   31.9100 C   0  0  0  0  0  0  0  0  0  0  0  0
   35.1480   24.1330   31.5340 O   0  0  0  0  0  0  0  0  0  0  0  0
   37.3280   24.2890   32.6590 N   0  0  0  0  0  0  0  0  0  0  0  0
   38.2060   23.6810   32.7440 H   0  0  0  0  0  0  0  0  0  0  0  0
   36.4700   22.2810   31.4480 C   0  0  0  0  0  0  0  0  0  0  0  0
   35.5320   21.2880   31.5990 C   0  0  0  0  0  0  0  0  0  0  0  0
   34.5900   21.5410   32.0880 H   0  0  0  0  0  0  0  0  0  0  0  0
   35.6980   19.9980   31.1770 C   0  0  0  0  0  0  0  0  0  0  0  0
   34.9180   19.2600   31.3260 H   0  0  0  0  0  0  0  0  0  0  0  0
   36.8660   19.6460   30.5610 C   0  0  0  0  0  3  0  0  0  0  0  0
   37.8230   20.6250   30.3970 C   0  0  0  0  0  3  0  0  0  0  0  0
   37.5970   21.8760   30.8360 N   0  0  0  0  0  0  0  0  0  0  0  0
  1  7  1  6  0  0  0
  1  2  1  0  0  0  0
  1 17  1  0  0  0  0
  2  9  1  0  0  0  0
  3  2  1  0  0  0  0
  3 10  1  0  0  0  0
  3 11  1  0  0  0  0
  4  3  1  0  0  0  0
  5  4  1  0  0  0  0
  5  6  1  0  0  0  0
  6 16  1  1  0  0  0
  6  1  1  0  0  0  0
  8  2  1  0  0  0  0
 12  4  1  0  0  0  0
 13  4  1  0  0  0  0
 14  5  1  0  0  0  0
 15  5  1  0  0  0  0
 17 18  1  0  0  0  0
 18 23  1  0  0  0  0
 18 19  2  0  0  0  0
 19 24  1  0  0  0  0
 20 19  1  0  0  0  0
 21 20  2  0  0  0  0
 22 17  2  0  0  0  0
 22 21  1  0  0  0  0
 25 21  1  0  0  0  0
 26 28  1  0  0  0  0
 27 26  2  0  0  0  0
 28 29  1  0  0  0  0
 28  6  1  0  0  0  0
 30 31  1  0  0  0  0
 30 26  1  0  0  0  0
 31 32  1  0  0  0  0
 33 34  1  0  0  0  0
 33 31  2  0  0  0  0
 35 33  1  0  0  0  0
 36 35  2  0  0  0  0
 36 37  1  0  0  0  0
 37 30  2  0  0  0  0
M  END
>  <minimizedAffinity>
-5.45305681

$$$$

 OpenBabel03272509323D

 37 39  0  0  1  0  0  0  0  0999 V2000
   36.1530   25.8040   32.0100 C   0  0  2  0  0  0  0  0  0  0  0  0
   35.9060   26.6360   30.7880 C   0  0  0  0  0  0  0  0  0  0  0  0
   36.9300   27.7370   30.6080 C   0  0  0  0  0  0  0  0  0  0  0  0
   36.9530   28.6380   31.8410 C   0  0  0  0  0  0  0  0  0  0  0  0
   36.7990   27.8970   33.1410 C   0  0  0  0  0  0  0  0  0  0  0  0
   37.1720   26.4200   32.9130 C   0  0  1  0  0  0  0  0  0  0  0  0
   35.2340   25.6610   32.6550 H   0  0  0  0  0  0  0  0  0  0  0  0
   34.9480   27.2100   31.0300 H   0  0  0  0  0  0  0  0  0  0  0  0
   35.6870   26.1180   29.8740 H   0  0  0  0  0  0  0  0  0  0  0  0
   36.5780   28.3460   29.7720 H   0  0  0  0  0  0  0  0  0  0  0  0
   37.9540   27.3780   30.4570 H   0  0  0  0  0  0  0  0  0  0  0  0
   37.9180   29.1700   31.8270 H   0  0  0  0  0  0  0  0  0  0  0  0
   36.1590   29.3950   31.7290 H   0  0  0  0  0  0  0  0  0  0  0  0
   35.7390   27.9160   33.4500 H   0  0  0  0  0  0  0  0  0  0  0  0
   37.4590   28.3260   33.9230 H   0  0  0  0  0  0  0  0  0  0  0  0
   38.1010   26.5340   32.4070 H   0  0  0  0  0  0  0  0  0  0  0  0
   36.6060   24.4370   31.6480 C   0  0  0  0  0  0  0  0  0  0  0  0
   35.5860   23.4740   31.5220 C   0  0  0  0  0  0  0  0  0  0  0  0
   35.9880   22.1780   31.1770 C   0  0  0  0  0  0  0  0  0  0  0  0
   37.3270   21.9250   30.9850 N   0  0  0  0  0  0  0  0  0  0  0  0
   38.2800   22.9040   31.1200 C   0  0  0  0  0  0  0  0  0  0  0  0
   37.8970   24.1490   31.4510 N   0  0  0  0  0  0  0  0  0  0  0  0
   34.5230   23.5420   31.6350 H   0  0  0  0  0  0  0  0  0  0  0  0
   35.3180   21.3480   31.0490 H   0  0  0  0  0  0  0  0  0  0  0  0
   39.3190   22.6480   30.9560 H   0  0  0  0  0  0  0  0  0  0  0  0
   38.6040   25.7990   34.9160 C   0  0  0  0  0  0  0  0  0  0  0  0
   39.5970   26.6040   34.8650 O   0  0  0  0  0  0  0  0  0  0  0  0
   37.4520   25.6870   34.0930 N   0  0  0  0  0  0  0  0  0  0  0  0
   36.7440   24.9620   34.4390 H   0  0  0  0  0  0  0  0  0  0  0  0
   38.7540   24.8530   36.0510 C   0  0  0  0  0  0  0  0  0  0  0  0
   37.9960   24.8970   37.1980 C   0  0  0  0  0  0  0  0  0  0  0  0
   37.2370   25.6740   37.2820 H   0  0  0  0  0  0  0  0  0  0  0  0
   38.1310   24.0290   38.2470 C   0  0  0  0  0  0  0  0  0  0  0  0
   37.5020   24.1170   39.1250 H   0  0  0  0  0  0  0  0  0  0  0  0
   39.0740   23.0420   38.1750 C   0  0  0  0  0  3  0  0  0  0  0  0
   39.8460   22.9760   37.0340 C   0  0  0  0  0  3  0  0  0  0  0  0
   39.6630   23.8620   36.0380 N   0  0  0  0  0  0  0  0  0  0  0  0
  1  7  1  1  0  0  0
  1  6  1  0  0  0  0
  2  8  1  0  0  0  0
  2  1  1  0  0  0  0
  3  2  1  0  0  0  0
  3  4  1  0  0  0  0
  4  5  1  0  0  0  0
  5 14  1  0  0  0  0
  5 15  1  0  0  0  0
  6 16  1  6  0  0  0
  6  5  1  0  0  0  0
  6 28  1  0  0  0  0
  9  2  1  0  0  0  0
 10  3  1  0  0  0  0
 11  3  1  0  0  0  0
 12  4  1  0  0  0  0
 13  4  1  0  0  0  0
 17  1  1  0  0  0  0
 18 23  1  0  0  0  0
 18 17  1  0  0  0  0
 19 18  2  0  0  0  0
 20 21  2  0  0  0  0
 20 19  1  0  0  0  0
 21 22  1  0  0  0  0
 22 17  2  0  0  0  0
 24 19  1  0  0  0  0
 25 21  1  0  0  0  0
 26 30  1  0  0  0  0
 27 26  2  0  0  0  0
 28 29  1  0  0  0  0
 28 26  1  0  0  0  0
 30 31  1  0  0  0  0
 31 32  1  0  0  0  0
 31 33  2  0  0  0  0
 33 34  1  0  0  0  0
 35 33  1  0  0  0  0
 36 35  2  0  0  0  0
 37 30  2  0  0  0  0
 37 36  1  0  0  0  0
M  END
>  <minimizedAffinity>
-5.37280369

$$$$

 OpenBabel03272509323D

 37 39  0  0  1  0  0  0  0  0999 V2000
   40.0790   24.6620   34.4310 C   0  0  2  0  0  0  0  0  0  0  0  0
   40.7680   25.9810   34.6120 C   0  0  0  0  0  0  0  0  0  0  0  0
   40.0320   27.1270   33.9490 C   0  0  0  0  0  0  0  0  0  0  0  0
   39.8560   26.8450   32.4590 C   0  0  0  0  0  0  0  0  0  0  0  0
   39.5450   25.4070   32.1420 C   0  0  0  0  0  0  0  0  0  0  0  0
   38.9890   24.7330   33.4090 C   0  0  1  0  0  0  0  0  0  0  0  0
   40.7650   23.8370   34.0720 H   0  0  0  0  0  0  0  0  0  0  0  0
   41.7180   25.8870   33.9860 H   0  0  0  0  0  0  0  0  0  0  0  0
   41.1160   26.2240   35.5970 H   0  0  0  0  0  0  0  0  0  0  0  0
   40.6850   27.9980   34.0370 H   0  0  0  0  0  0  0  0  0  0  0  0
   39.0320   27.3140   34.3570 H   0  0  0  0  0  0  0  0  0  0  0  0
   39.0350   27.4900   32.1080 H   0  0  0  0  0  0  0  0  0  0  0  0
   40.7730   27.1670   31.9370 H   0  0  0  0  0  0  0  0  0  0  0  0
   40.4800   24.8800   31.8810 H   0  0  0  0  0  0  0  0  0  0  0  0
   38.7950   25.3340   31.3270 H   0  0  0  0  0  0  0  0  0  0  0  0
   38.2520   25.4450   33.6970 H   0  0  0  0  0  0  0  0  0  0  0  0
   39.4990   24.1770   35.7080 C   0  0  0  0  0  0  0  0  0  0  0  0
   40.2970   23.2670   36.4290 C   0  0  0  0  0  0  0  0  0  0  0  0
   39.7730   22.7980   37.6390 C   0  0  0  0  0  0  0  0  0  0  0  0
   38.5360   23.2430   38.0480 N   0  0  0  0  0  0  0  0  0  0  0  0
   37.8010   24.1340   37.3050 C   0  0  0  0  0  0  0  0  0  0  0  0
   38.3020   24.5850   36.1420 N   0  0  0  0  0  0  0  0  0  0  0  0
   41.2640   22.8530   36.2290 H   0  0  0  0  0  0  0  0  0  0  0  0
   40.2720   22.1020   38.2890 H   0  0  0  0  0  0  0  0  0  0  0  0
   36.8350   24.4500   37.6750 H   0  0  0  0  0  0  0  0  0  0  0  0
   37.0540   23.3530   32.5150 C   0  0  0  0  0  0  0  0  0  0  0  0
   36.3140   24.1960   31.8980 O   0  0  0  0  0  0  0  0  0  0  0  0
   38.2970   23.5180   33.1830 N   0  0  0  0  0  0  0  0  0  0  0  0
   38.7210   22.6000   33.5350 H   0  0  0  0  0  0  0  0  0  0  0  0
   36.4440   21.9990   32.4840 C   0  0  0  0  0  0  0  0  0  0  0  0
   36.1260   21.3220   31.3310 C   0  0  0  0  0  0  0  0  0  0  0  0
   36.3340   21.8060   30.3760 H   0  0  0  0  0  0  0  0  0  0  0  0
   35.5630   20.0750   31.2970 C   0  0  0  0  0  0  0  0  0  0  0  0
   35.3360   19.5940   30.3530 H   0  0  0  0  0  0  0  0  0  0  0  0
   35.2890   19.4390   32.4750 C   0  0  0  0  0  3  0  0  0  0  0  0
   35.5990   20.0970   33.6460 C   0  0  0  0  0  3  0  0  0  0  0  0
   36.1510   21.3240   33.6100 N   0  0  0  0  0  0  0  0  0  0  0  0
  1  7  1  6  0  0  0
  1  2  1  0  0  0  0
  1 17  1  0  0  0  0
  2  9  1  0  0  0  0
  3 10  1  0  0  0  0
  3 11  1  0  0  0  0
  3  2  1  0  0  0  0
  4  3  1  0  0  0  0
  5  4  1  0  0  0  0
  5  6  1  0  0  0  0
  6 16  1  1  0  0  0
  6  1  1  0  0  0  0
  8  2  1  0  0  0  0
 12  4  1  0  0  0  0
 13  4  1  0  0  0  0
 14  5  1  0  0  0  0
 15  5  1  0  0  0  0
 17 22  2  0  0  0  0
 17 18  1  0  0  0  0
 18 19  2  0  0  0  0
 19 20  1  0  0  0  0
 19 24  1  0  0  0  0
 21 25  1  0  0  0  0
 21 20  2  0  0  0  0
 22 21  1  0  0  0  0
 23 18  1  0  0  0  0
 26 28  1  0  0  0  0
 27 26  2  0  0  0  0
 28  6  1  0  0  0  0
 28 29  1  0  0  0  0
 30 26  1  0  0  0  0
 30 37  1  0  0  0  0
 31 30  2  0  0  0  0
 32 31  1  0  0  0  0
 33 31  1  0  0  0  0
 33 35  2  0  0  0  0
 34 33  1  0  0  0  0
 35 36  1  0  0  0  0
 37 36  2  0  0  0  0
M  END
>  <minimizedAffinity>
-5.30599928

$$$$

 OpenBabel03272509323D

 37 39  0  0  1  0  0  0  0  0999 V2000
   36.4600   26.7480   32.1190 C   0  0  2  0  0  0  0  0  0  0  0  0
   36.1080   27.8490   31.1640 C   0  0  0  0  0  0  0  0  0  0  0  0
   36.5940   29.2070   31.6250 C   0  0  0  0  0  0  0  0  0  0  0  0
   36.0220   29.5280   33.0040 C   0  0  0  0  0  0  0  0  0  0  0  0
   35.9640   28.3440   33.9320 C   0  0  0  0  0  0  0  0  0  0  0  0
   36.9530   27.2760   33.4280 C   0  0  1  0  0  0  0  0  0  0  0  0
   35.5870   26.0790   32.3800 H   0  0  0  0  0  0  0  0  0  0  0  0
   34.9720   27.9380   31.2470 H   0  0  0  0  0  0  0  0  0  0  0  0
   36.2890   27.6740   30.1210 H   0  0  0  0  0  0  0  0  0  0  0  0
   36.1730   29.9340   30.9260 H   0  0  0  0  0  0  0  0  0  0  0  0
   37.6830   29.2910   31.7050 H   0  0  0  0  0  0  0  0  0  0  0  0
   36.6630   30.3120   33.4400 H   0  0  0  0  0  0  0  0  0  0  0  0
   35.0170   29.9630   32.8680 H   0  0  0  0  0  0  0  0  0  0  0  0
   34.9560   27.8950   33.8890 H   0  0  0  0  0  0  0  0  0  0  0  0
   36.2360   28.6380   34.9670 H   0  0  0  0  0  0  0  0  0  0  0  0
   37.8230   27.8720   33.2870 H   0  0  0  0  0  0  0  0  0  0  0  0
   37.4980   25.8530   31.5490 C   0  0  0  0  0  0  0  0  0  0  0  0
   37.0170   24.6700   30.9540 C   0  0  0  0  0  0  0  0  0  0  0  0
   37.9770   23.8110   30.4060 C   0  0  0  0  0  0  0  0  0  0  0  0
   39.3060   24.1620   30.4780 N   0  0  0  0  0  0  0  0  0  0  0  0
   39.7180   25.3310   31.0690 C   0  0  0  0  0  0  0  0  0  0  0  0
   38.7990   26.1570   31.5960 N   0  0  0  0  0  0  0  0  0  0  0  0
   36.0240   24.2880   30.8270 H   0  0  0  0  0  0  0  0  0  0  0  0
   37.7520   22.8770   29.9240 H   0  0  0  0  0  0  0  0  0  0  0  0
   40.7770   25.5570   31.0960 H   0  0  0  0  0  0  0  0  0  0  0  0
   38.2120   26.4270   35.4620 C   0  0  0  0  0  0  0  0  0  0  0  0
   38.8590   27.4450   35.8910 O   0  0  0  0  0  0  0  0  0  0  0  0
   37.3000   26.2890   34.3820 N   0  0  0  0  0  0  0  0  0  0  0  0
   36.8480   25.3200   34.3220 H   0  0  0  0  0  0  0  0  0  0  0  0
   38.5200   25.2270   36.2830 C   0  0  0  0  0  0  0  0  0  0  0  0
   37.9410   24.9560   37.5000 C   0  0  0  0  0  0  0  0  0  0  0  0
   37.2100   25.6640   37.8910 H   0  0  0  0  0  0  0  0  0  0  0  0
   38.2220   23.8530   38.2600 C   0  0  0  0  0  0  0  0  0  0  0  0
   37.7310   23.6960   39.2140 H   0  0  0  0  0  0  0  0  0  0  0  0
   39.1340   22.9450   37.8010 C   0  0  0  0  0  3  0  0  0  0  0  0
   39.7280   23.1950   36.5820 C   0  0  0  0  0  3  0  0  0  0  0  0
   39.4080   24.2990   35.8840 N   0  0  0  0  0  0  0  0  0  0  0  0
  1  7  1  1  0  0  0
  1  6  1  0  0  0  0
  2  8  1  0  0  0  0
  2  3  1  0  0  0  0
  2  1  1  0  0  0  0
  3 11  1  0  0  0  0
  3  4  1  0  0  0  0
  4 12  1  0  0  0  0
  4  5  1  0  0  0  0
  5 15  1  0  0  0  0
  6 16  1  6  0  0  0
  6  5  1  0  0  0  0
  6 28  1  0  0  0  0
  9  2  1  0  0  0  0
 10  3  1  0  0  0  0
 13  4  1  0  0  0  0
 14  5  1  0  0  0  0
 17 22  1  0  0  0  0
 17  1  1  0  0  0  0
 18 17  2  0  0  0  0
 19 20  2  0  0  0  0
 19 18  1  0  0  0  0
 20 21  1  0  0  0  0
 21 25  1  0  0  0  0
 21 22  2  0  0  0  0
 23 18  1  0  0  0  0
 24 19  1  0  0  0  0
 26 27  2  0  0  0  0
 26 30  1  0  0  0  0
 28 26  1  0  0  0  0
 29 28  1  0  0  0  0
 30 31  1  0  0  0  0
 31 32  1  0  0  0  0
 31 33  2  0  0  0  0
 33 34  1  0  0  0  0
 35 33  1  0  0  0  0
 36 35  2  0  0  0  0
 37 30  2  0  0  0  0
 37 36  1  0  0  0  0
M  END
>  <minimizedAffinity>
-5.16477776

$$$$

 OpenBabel03272509323D

 37 39  0  0  1  0  0  0  0  0999 V2000
   39.4030   25.1430   34.6130 C   0  0  2  0  0  0  0  0  0  0  0  0
   39.8290   26.5040   35.0760 C   0  0  0  0  0  0  0  0  0  0  0  0
   38.6920   27.3060   35.6730 C   0  0  0  0  0  0  0  0  0  0  0  0
   37.5590   27.4450   34.6580 C   0  0  0  0  0  0  0  0  0  0  0  0
   37.3180   26.2060   33.8390 C   0  0  0  0  0  0  0  0  0  0  0  0
   37.9150   24.9990   34.5850 C   0  0  1  0  0  0  0  0  0  0  0  0
   39.7430   24.8950   33.5630 H   0  0  0  0  0  0  0  0  0  0  0  0
   40.0640   27.0670   34.1100 H   0  0  0  0  0  0  0  0  0  0  0  0
   40.7310   26.5690   35.6530 H   0  0  0  0  0  0  0  0  0  0  0  0
   39.0880   28.3080   35.8520 H   0  0  0  0  0  0  0  0  0  0  0  0
   38.2560   26.8640   36.5760 H   0  0  0  0  0  0  0  0  0  0  0  0
   36.6500   27.6980   35.2280 H   0  0  0  0  0  0  0  0  0  0  0  0
   37.7860   28.3040   34.0040 H   0  0  0  0  0  0  0  0  0  0  0  0
   37.8580   26.2910   32.8800 H   0  0  0  0  0  0  0  0  0  0  0  0
   36.2320   26.0400   33.6820 H   0  0  0  0  0  0  0  0  0  0  0  0
   37.5060   25.1530   35.5550 H   0  0  0  0  0  0  0  0  0  0  0  0
   39.9660   24.0790   35.4820 C   0  0  0  0  0  0  0  0  0  0  0  0
   41.2210   23.5750   35.0870 C   0  0  0  0  0  0  0  0  0  0  0  0
   41.7730   22.5720   35.8920 C   0  0  0  0  0  0  0  0  0  0  0  0
   41.0750   22.1460   36.9990 N   0  0  0  0  0  0  0  0  0  0  0  0
   39.8540   22.6740   37.3380 C   0  0  0  0  0  0  0  0  0  0  0  0
   39.3210   23.6360   36.5660 N   0  0  0  0  0  0  0  0  0  0  0  0
   41.8620   23.8230   34.2660 H   0  0  0  0  0  0  0  0  0  0  0  0
   42.7210   22.0990   35.7100 H   0  0  0  0  0  0  0  0  0  0  0  0
   39.3500   22.3000   38.2200 H   0  0  0  0  0  0  0  0  0  0  0  0
   37.5140   23.2010   32.8380 C   0  0  0  0  0  0  0  0  0  0  0  0
   38.0710   23.6510   31.7770 O   0  0  0  0  0  0  0  0  0  0  0  0
   37.4420   23.7370   34.1510 N   0  0  0  0  0  0  0  0  0  0  0  0
   36.9740   23.0820   34.8580 H   0  0  0  0  0  0  0  0  0  0  0  0
   36.8530   21.8980   32.5700 C   0  0  0  0  0  0  0  0  0  0  0  0
   36.2130   21.1460   33.5270 C   0  0  0  0  0  0  0  0  0  0  0  0
   36.1880   21.5280   34.5480 H   0  0  0  0  0  0  0  0  0  0  0  0
   35.6030   19.9460   33.2860 C   0  0  0  0  0  0  0  0  0  0  0  0
   35.1150   19.4000   34.0850 H   0  0  0  0  0  0  0  0  0  0  0  0
   35.6150   19.4370   32.0170 C   0  0  0  0  0  3  0  0  0  0  0  0
   36.2500   20.1730   31.0390 C   0  0  0  0  0  3  0  0  0  0  0  0
   36.8320   21.3480   31.3430 N   0  0  0  0  0  0  0  0  0  0  0  0
  1  7  1  6  0  0  0
  1  2  1  0  0  0  0
  1 17  1  0  0  0  0
  2  9  1  0  0  0  0
  2  3  1  0  0  0  0
  3 10  1  0  0  0  0
  3 11  1  0  0  0  0
  4 12  1  0  0  0  0
  4  3  1  0  0  0  0
  5  6  1  0  0  0  0
  5  4  1  0  0  0  0
  6  1  1  0  0  0  0
  6 16  1  1  0  0  0
  8  2  1  0  0  0  0
 13  4  1  0  0  0  0
 14  5  1  0  0  0  0
 15  5  1  0  0  0  0
 17 22  1  0  0  0  0
 18 17  2  0  0  0  0
 18 19  1  0  0  0  0
 19 20  2  0  0  0  0
 20 21  1  0  0  0  0
 21 25  1  0  0  0  0
 22 21  2  0  0  0  0
 23 18  1  0  0  0  0
 24 19  1  0  0  0  0
 26 28  1  0  0  0  0
 27 26  2  0  0  0  0
 28  6  1  0  0  0  0
 28 29  1  0  0  0  0
 30 26  1  0  0  0  0
 30 31  1  0  0  0  0
 31 32  1  0  0  0  0
 33 31  2  0  0  0  0
 33 34  1  0  0  0  0
 35 33  1  0  0  0  0
 36 37  1  0  0  0  0
 36 35  2  0  0  0  0
 37 30  2  0  0  0  0
M  END
>  <minimizedAffinity>
-5.13064241

$$$$

 OpenBabel03272509323D

 37 39  0  0  1  0  0  0  0  0999 V2000
   37.9560   26.0040   32.5990 C   0  0  2  0  0  0  0  0  0  0  0  0
   38.1490   27.4910   32.5970 C   0  0  0  0  0  0  0  0  0  0  0  0
   36.8460   28.2550   32.4910 C   0  0  0  0  0  0  0  0  0  0  0  0
   36.0950   27.8380   31.2280 C   0  0  0  0  0  0  0  0  0  0  0  0
   36.1850   26.3680   30.9210 C   0  0  0  0  0  0  0  0  0  0  0  0
   36.5640   25.6180   32.2120 C   0  0  1  0  0  0  0  0  0  0  0  0
   38.6260   25.4590   31.8690 H   0  0  0  0  0  0  0  0  0  0  0  0
   38.6570   27.7050   31.5970 H   0  0  0  0  0  0  0  0  0  0  0  0
   38.8140   27.9030   33.3310 H   0  0  0  0  0  0  0  0  0  0  0  0
   37.1190   29.3060   32.3710 H   0  0  0  0  0  0  0  0  0  0  0  0
   36.1630   28.0970   33.3330 H   0  0  0  0  0  0  0  0  0  0  0  0
   35.0410   28.1240   31.3760 H   0  0  0  0  0  0  0  0  0  0  0  0
   36.4830   28.4340   30.3850 H   0  0  0  0  0  0  0  0  0  0  0  0
   37.0020   26.1940   30.1980 H   0  0  0  0  0  0  0  0  0  0  0  0
   35.2160   25.9810   30.5430 H   0  0  0  0  0  0  0  0  0  0  0  0
   35.8580   26.0360   32.8900 H   0  0  0  0  0  0  0  0  0  0  0  0
   38.2550   25.4240   33.9320 C   0  0  0  0  0  0  0  0  0  0  0  0
   37.8600   26.2050   35.0360 C   0  0  0  0  0  0  0  0  0  0  0  0
   38.1280   25.6770   36.3030 C   0  0  0  0  0  0  0  0  0  0  0  0
   38.7490   24.4520   36.3980 N   0  0  0  0  0  0  0  0  0  0  0  0
   39.1130   23.7320   35.2870 C   0  0  0  0  0  0  0  0  0  0  0  0
   38.8560   24.2370   34.0680 N   0  0  0  0  0  0  0  0  0  0  0  0
   37.3690   27.1550   35.0970 H   0  0  0  0  0  0  0  0  0  0  0  0
   37.8820   26.1630   37.2290 H   0  0  0  0  0  0  0  0  0  0  0  0
   39.5980   22.7740   35.4200 H   0  0  0  0  0  0  0  0  0  0  0  0
   36.8400   23.2750   31.2730 C   0  0  0  0  0  0  0  0  0  0  0  0
   37.7030   23.4020   30.3360 O   0  0  0  0  0  0  0  0  0  0  0  0
   36.3110   24.2250   32.1880 N   0  0  0  0  0  0  0  0  0  0  0  0
   35.6590   23.7970   32.9220 H   0  0  0  0  0  0  0  0  0  0  0  0
   36.3570   21.8730   31.3540 C   0  0  0  0  0  0  0  0  0  0  0  0
   35.2490   21.4780   32.0660 C   0  0  0  0  0  0  0  0  0  0  0  0
   34.6870   22.2410   32.6060 H   0  0  0  0  0  0  0  0  0  0  0  0
   34.8000   20.1880   32.1440 C   0  0  0  0  0  0  0  0  0  0  0  0
   33.9180   19.9420   32.7240 H   0  0  0  0  0  0  0  0  0  0  0  0
   35.4800   19.2070   31.4790 C   0  0  0  0  0  3  0  0  0  0  0  0
   36.5950   19.5780   30.7570 C   0  0  0  0  0  3  0  0  0  0  0  0
   36.9840   20.8650   30.7210 N   0  0  0  0  0  0  0  0  0  0  0  0
  1  7  1  6  0  0  0
  1 17  1  0  0  0  0
  2  1  1  0  0  0  0
  2  9  1  0  0  0  0
  3  2  1  0  0  0  0
  3 11  1  0  0  0  0
  4 12  1  0  0  0  0
  4  3  1  0  0  0  0
  5  4  1  0  0  0  0
  5  6  1  0  0  0  0
  6  1  1  0  0  0  0
  6 16  1  1  0  0  0
  8  2  1  0  0  0  0
 10  3  1  0  0  0  0
 13  4  1  0  0  0  0
 14  5  1  0  0  0  0
 15  5  1  0  0  0  0
 17 22  2  0  0  0  0
 17 18  1  0  0  0  0
 18 23  1  0  0  0  0
 18 19  2  0  0  0  0
 19 20  1  0  0  0  0
 19 24  1  0  0  0  0
 21 25  1  0  0  0  0
 21 20  2  0  0  0  0
 22 21  1  0  0  0  0
 26 30  1  0  0  0  0
 26 28  1  0  0  0  0
 27 26  2  0  0  0  0
 28  6  1  0  0  0  0
 28 29  1  0  0  0  0
 30 31  1  0  0  0  0
 31 33  2  0  0  0  0
 31 32  1  0  0  0  0
 33 34  1  0  0  0  0
 35 33  1  0  0  0  0
 36 35  2  0  0  0  0
 37 36  1  0  0  0  0
 37 30  2  0  0  0  0
M  END
>  <minimizedAffinity>
-5.0590415

$$$$

 OpenBabel03272509323D

 37 39  0  0  1  0  0  0  0  0999 V2000
   39.2740   23.7530   36.0940 C   0  0  2  0  0  0  0  0  0  0  0  0
   39.5400   22.9960   37.3600 C   0  0  0  0  0  0  0  0  0  0  0  0
   38.3820   23.0510   38.3340 C   0  0  0  0  0  0  0  0  0  0  0  0
   38.0480   24.5020   38.6700 C   0  0  0  0  0  0  0  0  0  0  0  0
   38.1490   25.4400   37.4970 C   0  0  0  0  0  0  0  0  0  0  0  0
   38.0570   24.6150   36.2000 C   0  0  1  0  0  0  0  0  0  0  0  0
   40.1090   24.4570   35.8020 H   0  0  0  0  0  0  0  0  0  0  0  0
   40.3500   23.6060   37.8850 H   0  0  0  0  0  0  0  0  0  0  0  0
   39.9600   22.0130   37.2680 H   0  0  0  0  0  0  0  0  0  0  0  0
   38.7370   22.5810   39.2540 H   0  0  0  0  0  0  0  0  0  0  0  0
   37.4600   22.5900   37.9620 H   0  0  0  0  0  0  0  0  0  0  0  0
   37.0190   24.5090   39.0650 H   0  0  0  0  0  0  0  0  0  0  0  0
   38.7150   24.8290   39.4860 H   0  0  0  0  0  0  0  0  0  0  0  0
   39.1410   25.9240   37.5000 H   0  0  0  0  0  0  0  0  0  0  0  0
   37.3290   26.1880   37.5150 H   0  0  0  0  0  0  0  0  0  0  0  0
   37.1970   24.0240   36.4090 H   0  0  0  0  0  0  0  0  0  0  0  0
   39.1030   22.8320   34.9420 C   0  0  0  0  0  0  0  0  0  0  0  0
   40.2890   22.4740   34.2710 C   0  0  0  0  0  0  0  0  0  0  0  0
   40.1540   21.6040   33.1830 C   0  0  0  0  0  0  0  0  0  0  0  0
   38.8990   21.1570   32.8380 N   0  0  0  0  0  0  0  0  0  0  0  0
   37.7750   21.5390   33.5290 C   0  0  0  0  0  0  0  0  0  0  0  0
   37.9020   22.3750   34.5740 N   0  0  0  0  0  0  0  0  0  0  0  0
   41.3130   22.7410   34.4410 H   0  0  0  0  0  0  0  0  0  0  0  0
   40.9720   21.2490   32.5830 H   0  0  0  0  0  0  0  0  0  0  0  0
   36.8130   21.1560   33.2130 H   0  0  0  0  0  0  0  0  0  0  0  0
   38.4270   26.5150   34.5570 C   0  0  0  0  0  0  0  0  0  0  0  0
   39.4890   27.0980   34.9700 O   0  0  0  0  0  0  0  0  0  0  0  0
   37.7480   25.3640   35.0380 N   0  0  0  0  0  0  0  0  0  0  0  0
   36.9220   25.0640   34.4250 H   0  0  0  0  0  0  0  0  0  0  0  0
   37.8680   27.2210   33.3750 C   0  0  0  0  0  0  0  0  0  0  0  0
   36.6640   27.8830   33.3690 C   0  0  0  0  0  0  0  0  0  0  0  0
   36.0780   27.8930   34.2890 H   0  0  0  0  0  0  0  0  0  0  0  0
   36.1450   28.5330   32.2830 C   0  0  0  0  0  0  0  0  0  0  0  0
   35.1870   29.0370   32.3430 H   0  0  0  0  0  0  0  0  0  0  0  0
   36.8510   28.5410   31.1130 C   0  0  0  0  0  3  0  0  0  0  0  0
   38.0640   27.8840   31.0940 C   0  0  0  0  0  3  0  0  0  0  0  0
   38.5180   27.2630   32.1980 N   0  0  0  0  0  0  0  0  0  0  0  0
  1  7  1  6  0  0  0
  1  6  1  0  0  0  0
  1  2  1  0  0  0  0
  2  8  1  0  0  0  0
  2  3  1  0  0  0  0
  3  4  1  0  0  0  0
  3 10  1  0  0  0  0
  4 12  1  0  0  0  0
  4 13  1  0  0  0  0
  5 14  1  0  0  0  0
  5 15  1  0  0  0  0
  5  4  1  0  0  0  0
  6 16  1  1  0  0  0
  6  5  1  0  0  0  0
  9  2  1  0  0  0  0
 11  3  1  0  0  0  0
 17  1  1  0  0  0  0
 18 23  1  0  0  0  0
 18 17  2  0  0  0  0
 19 18  1  0  0  0  0
 20 19  2  0  0  0  0
 20 21  1  0  0  0  0
 21 22  2  0  0  0  0
 22 17  1  0  0  0  0
 24 19  1  0  0  0  0
 25 21  1  0  0  0  0
 26 27  2  0  0  0  0
 26 28  1  0  0  0  0
 28  6  1  0  0  0  0
 29 28  1  0  0  0  0
 30 26  1  0  0  0  0
 31 30  1  0  0  0  0
 31 32  1  0  0  0  0
 33 34  1  0  0  0  0
 33 31  2  0  0  0  0
 35 33  1  0  0  0  0
 36 35  2  0  0  0  0
 36 37  1  0  0  0  0
 37 30  2  0  0  0  0
M  END
>  <minimizedAffinity>
-4.9336009

$$$$

 OpenBabel03272509323D

 37 39  0  0  1  0  0  0  0  0999 V2000
   38.8180   26.1970   34.4260 C   0  0  2  0  0  0  0  0  0  0  0  0
   39.9430   27.1490   34.7020 C   0  0  0  0  0  0  0  0  0  0  0  0
   41.2900   26.6110   34.2680 C   0  0  0  0  0  0  0  0  0  0  0  0
   41.5710   25.2790   34.9600 C   0  0  0  0  0  0  0  0  0  0  0  0
   40.3620   24.3920   35.0890 C   0  0  0  0  0  0  0  0  0  0  0  0
   39.3130   24.8360   34.0530 C   0  0  1  0  0  0  0  0  0  0  0  0
   38.1370   26.0300   35.3130 H   0  0  0  0  0  0  0  0  0  0  0  0
   40.0230   27.1630   35.8410 H   0  0  0  0  0  0  0  0  0  0  0  0
   39.7970   28.1760   34.4290 H   0  0  0  0  0  0  0  0  0  0  0  0
   42.0330   27.3250   34.6320 H   0  0  0  0  0  0  0  0  0  0  0  0
   41.3780   26.4340   33.1900 H   0  0  0  0  0  0  0  0  0  0  0  0
   42.3460   24.7690   34.3650 H   0  0  0  0  0  0  0  0  0  0  0  0
   42.0040   25.4910   35.9520 H   0  0  0  0  0  0  0  0  0  0  0  0
   39.9090   24.5340   36.0860 H   0  0  0  0  0  0  0  0  0  0  0  0
   40.6280   23.3300   34.9100 H   0  0  0  0  0  0  0  0  0  0  0  0
   39.9170   24.8840   33.1780 H   0  0  0  0  0  0  0  0  0  0  0  0
   37.9440   26.6970   33.3360 C   0  0  0  0  0  0  0  0  0  0  0  0
   36.9330   27.5950   33.7330 C   0  0  0  0  0  0  0  0  0  0  0  0
   36.0980   28.0840   32.7220 C   0  0  0  0  0  0  0  0  0  0  0  0
   36.3070   27.6700   31.4260 N   0  0  0  0  0  0  0  0  0  0  0  0
   37.3100   26.7930   31.0950 C   0  0  0  0  0  0  0  0  0  0  0  0
   38.1130   26.3210   32.0640 N   0  0  0  0  0  0  0  0  0  0  0  0
   36.6740   27.9970   34.6920 H   0  0  0  0  0  0  0  0  0  0  0  0
   35.2880   28.7720   32.8830 H   0  0  0  0  0  0  0  0  0  0  0  0
   37.4280   26.5030   30.0590 H   0  0  0  0  0  0  0  0  0  0  0  0
   38.3830   22.7790   32.8900 C   0  0  0  0  0  0  0  0  0  0  0  0
   39.3600   22.3290   32.1980 O   0  0  0  0  0  0  0  0  0  0  0  0
   38.3020   23.8820   33.7820 N   0  0  0  0  0  0  0  0  0  0  0  0
   37.3590   23.9600   34.2850 H   0  0  0  0  0  0  0  0  0  0  0  0
   37.1620   21.9610   32.6670 C   0  0  0  0  0  0  0  0  0  0  0  0
   36.4980   21.8780   31.4670 C   0  0  0  0  0  0  0  0  0  0  0  0
   36.8880   22.4470   30.6230 H   0  0  0  0  0  0  0  0  0  0  0  0
   35.3740   21.1270   31.2570 C   0  0  0  0  0  0  0  0  0  0  0  0
   34.8950   21.1030   30.2850 H   0  0  0  0  0  0  0  0  0  0  0  0
   34.8570   20.4010   32.2930 C   0  0  0  0  0  3  0  0  0  0  0  0
   35.5060   20.4680   33.5080 C   0  0  0  0  0  3  0  0  0  0  0  0
   36.6080   21.2270   33.6480 N   0  0  0  0  0  0  0  0  0  0  0  0
  1  2  1  0  0  0  0
  1  7  1  1  0  0  0
  2  8  1  0  0  0  0
  3 10  1  0  0  0  0
  3  2  1  0  0  0  0
  3  4  1  0  0  0  0
  4  5  1  0  0  0  0
  4 13  1  0  0  0  0
  5 14  1  0  0  0  0
  6 16  1  6  0  0  0
  6  1  1  0  0  0  0
  6  5  1  0  0  0  0
  9  2  1  0  0  0  0
 11  3  1  0  0  0  0
 12  4  1  0  0  0  0
 15  5  1  0  0  0  0
 17 18  1  0  0  0  0
 17  1  1  0  0  0  0
 18 23  1  0  0  0  0
 19 24  1  0  0  0  0
 19 18  2  0  0  0  0
 20 19  1  0  0  0  0
 21 20  2  0  0  0  0
 21 22  1  0  0  0  0
 22 17  2  0  0  0  0
 25 21  1  0  0  0  0
 26 28  1  0  0  0  0
 27 26  2  0  0  0  0
 28  6  1  0  0  0  0
 28 29  1  0  0  0  0
 30 26  1  0  0  0  0
 30 37  1  0  0  0  0
 31 30  2  0  0  0  0
 32 31  1  0  0  0  0
 33 31  1  0  0  0  0
 33 35  2  0  0  0  0
 34 33  1  0  0  0  0
 35 36  1  0  0  0  0
 36 37  2  0  0  0  0
M  END
>  <minimizedAffinity>
-4.89494944

$$$$

 OpenBabel03272509323D

 37 39  0  0  1  0  0  0  0  0999 V2000
   39.4560   25.2300   34.4730 C   0  0  2  0  0  0  0  0  0  0  0  0
   39.7050   26.5010   35.2280 C   0  0  0  0  0  0  0  0  0  0  0  0
   38.4300   27.1520   35.7230 C   0  0  0  0  0  0  0  0  0  0  0  0
   37.4950   27.4330   34.5490 C   0  0  0  0  0  0  0  0  0  0  0  0
   37.4840   26.3500   33.5040 C   0  0  0  0  0  0  0  0  0  0  0  0
   38.0090   25.0490   34.1390 C   0  0  1  0  0  0  0  0  0  0  0  0
   39.9960   25.1790   33.4810 H   0  0  0  0  0  0  0  0  0  0  0  0
   40.0760   27.2300   34.4320 H   0  0  0  0  0  0  0  0  0  0  0  0
   40.4810   26.4910   35.9680 H   0  0  0  0  0  0  0  0  0  0  0  0
   38.7250   28.1190   36.1380 H   0  0  0  0  0  0  0  0  0  0  0  0
   37.8660   26.5460   36.4410 H   0  0  0  0  0  0  0  0  0  0  0  0
   36.4840   27.5550   34.9700 H   0  0  0  0  0  0  0  0  0  0  0  0
   37.7840   28.3990   34.1020 H   0  0  0  0  0  0  0  0  0  0  0  0
   38.1840   26.6170   32.6930 H   0  0  0  0  0  0  0  0  0  0  0  0
   36.4570   26.1810   33.1180 H   0  0  0  0  0  0  0  0  0  0  0  0
   37.4220   25.0180   35.0260 H   0  0  0  0  0  0  0  0  0  0  0  0
   39.9150   24.0470   35.2430 C   0  0  0  0  0  0  0  0  0  0  0  0
   39.3330   23.8900   36.5170 C   0  0  0  0  0  0  0  0  0  0  0  0
   39.7480   22.7790   37.2610 C   0  0  0  0  0  0  0  0  0  0  0  0
   40.6800   21.9230   36.7190 N   0  0  0  0  0  0  0  0  0  0  0  0
   41.2140   22.1250   35.4700 C   0  0  0  0  0  0  0  0  0  0  0  0
   40.8180   23.1910   34.7530 N   0  0  0  0  0  0  0  0  0  0  0  0
   38.6030   24.4700   37.0430 H   0  0  0  0  0  0  0  0  0  0  0  0
   39.3890   22.5370   38.2440 H   0  0  0  0  0  0  0  0  0  0  0  0
   41.9430   21.4190   35.0930 H   0  0  0  0  0  0  0  0  0  0  0  0
   37.9980   23.5950   32.0580 C   0  0  0  0  0  0  0  0  0  0  0  0
   38.6600   24.2650   31.1910 O   0  0  0  0  0  0  0  0  0  0  0  0
   37.7020   23.8680   33.4200 N   0  0  0  0  0  0  0  0  0  0  0  0
   37.1930   23.0680   33.9190 H   0  0  0  0  0  0  0  0  0  0  0  0
   37.4850   22.3330   31.4640 C   0  0  0  0  0  0  0  0  0  0  0  0
   38.2390   21.4800   30.6940 C   0  0  0  0  0  0  0  0  0  0  0  0
   39.2810   21.7430   30.5060 H   0  0  0  0  0  0  0  0  0  0  0  0
   37.7720   20.3180   30.1440 C   0  0  0  0  0  0  0  0  0  0  0  0
   38.4180   19.6870   29.5450 H   0  0  0  0  0  0  0  0  0  0  0  0
   36.4710   19.9570   30.3600 C   0  0  0  0  0  3  0  0  0  0  0  0
   35.6940   20.7960   31.1300 C   0  0  0  0  0  3  0  0  0  0  0  0
   36.2160   21.9260   31.6420 N   0  0  0  0  0  0  0  0  0  0  0  0
  1  7  1  6  0  0  0
  1  2  1  0  0  0  0
  1 17  1  0  0  0  0
  2  3  1  0  0  0  0
  2  9  1  0  0  0  0
  3 10  1  0  0  0  0
  3 11  1  0  0  0  0
  4 12  1  0  0  0  0
  4  3  1  0  0  0  0
  5  6  1  0  0  0  0
  5  4  1  0  0  0  0
  6  1  1  0  0  0  0
  6 16  1  1  0  0  0
  8  2  1  0  0  0  0
 13  4  1  0  0  0  0
 14  5  1  0  0  0  0
 15  5  1  0  0  0  0
 17 18  1  0  0  0  0
 18 23  1  0  0  0  0
 18 19  2  0  0  0  0
 19 24  1  0  0  0  0
 20 19  1  0  0  0  0
 21 20  2  0  0  0  0
 22 17  2  0  0  0  0
 22 21  1  0  0  0  0
 25 21  1  0  0  0  0
 26 28  1  0  0  0  0
 27 26  2  0  0  0  0
 28 29  1  0  0  0  0
 28  6  1  0  0  0  0
 30 37  1  0  0  0  0
 30 26  1  0  0  0  0
 31 30  2  0  0  0  0
 32 31  1  0  0  0  0
 33 35  2  0  0  0  0
 33 31  1  0  0  0  0
 34 33  1  0  0  0  0
 35 36  1  0  0  0  0
 36 37  2  0  0  0  0
M  END
>  <minimizedAffinity>
-4.85915375

$$$$
