
 OpenBabel03272509303D

 37 39  0  0  1  0  0  0  0  0999 V2000
   36.4080   30.7570   48.9990 C   0  0  2  0  0  0  0  0  0  0  0  0
   37.4250   31.5910   49.7200 C   0  0  0  0  0  0  0  0  0  0  0  0
   38.2960   30.7800   50.6560 C   0  0  0  0  0  0  0  0  0  0  0  0
   37.4280   30.0430   51.6740 C   0  0  0  0  0  0  0  0  0  0  0  0
   36.1470   29.4980   51.1030 C   0  0  0  0  0  0  0  0  0  0  0  0
   36.3000   29.3820   49.5750 C   0  0  1  0  0  0  0  0  0  0  0  0
   35.3600   31.1800   49.0450 H   0  0  0  0  0  0  0  0  0  0  0  0
   36.8050   32.2320   50.4330 H   0  0  0  0  0  0  0  0  0  0  0  0
   37.9840   32.2980   49.1390 H   0  0  0  0  0  0  0  0  0  0  0  0
   38.9000   31.5020   51.2110 H   0  0  0  0  0  0  0  0  0  0  0  0
   38.9100   30.0230   50.1550 H   0  0  0  0  0  0  0  0  0  0  0  0
   38.0390   29.2180   52.0750 H   0  0  0  0  0  0  0  0  0  0  0  0
   37.2180   30.7320   52.5090 H   0  0  0  0  0  0  0  0  0  0  0  0
   35.3280   30.2150   51.2900 H   0  0  0  0  0  0  0  0  0  0  0  0
   35.9180   28.4980   51.5260 H   0  0  0  0  0  0  0  0  0  0  0  0
   37.2340   28.8760   49.5140 H   0  0  0  0  0  0  0  0  0  0  0  0
   36.7330   30.6420   47.5550 C   0  0  0  0  0  0  0  0  0  0  0  0
   38.0910   30.8170   47.2230 C   0  0  0  0  0  0  0  0  0  0  0  0
   38.4220   30.7100   45.8680 C   0  0  0  0  0  0  0  0  0  0  0  0
   37.4260   30.4440   44.9570 N   0  0  0  0  0  0  0  0  0  0  0  0
   36.1160   30.2810   45.3370 C   0  0  0  0  0  0  0  0  0  0  0  0
   35.7950   30.3840   46.6380 N   0  0  0  0  0  0  0  0  0  0  0  0
   38.9520   31.0170   47.8280 H   0  0  0  0  0  0  0  0  0  0  0  0
   39.4160   30.8210   45.4740 H   0  0  0  0  0  0  0  0  0  0  0  0
   35.3740   30.0720   44.5770 H   0  0  0  0  0  0  0  0  0  0  0  0
   33.9550   28.4850   49.1940 C   0  0  0  0  0  0  0  0  0  0  0  0
   33.2080   29.2010   49.9490 O   0  0  0  0  0  0  0  0  0  0  0  0
   35.3520   28.5390   48.9440 N   0  0  0  0  0  0  0  0  0  0  0  0
   35.6810   27.8550   48.1880 H   0  0  0  0  0  0  0  0  0  0  0  0
   33.1530   27.4450   48.4990 C   0  0  0  0  0  0  0  0  0  0  0  0
   33.6880   26.4760   47.6830 C   0  0  0  0  0  0  0  0  0  0  0  0
   34.7680   26.4680   47.5350 H   0  0  0  0  0  0  0  0  0  0  0  0
   32.9540   25.5170   47.0400 C   0  0  0  0  0  0  0  0  0  0  0  0
   33.4360   24.7800   46.4090 H   0  0  0  0  0  0  0  0  0  0  0  0
   31.5980   25.4980   47.2030 C   0  0  0  0  0  0  0  0  0  0  0  0
   31.0380   26.4600   48.0170 C   0  0  0  0  0  0  0  0  0  0  0  0
   31.8160   27.3760   48.6210 N   0  0  0  0  0  0  0  0  0  0  0  0
  1  7  1  1  0  0  0
  1  6  1  0  0  0  0
  1  2  1  0  0  0  0
  2  8  1  0  0  0  0
  2  3  1  0  0  0  0
  3 10  1  0  0  0  0
  3  4  1  0  0  0  0
  4 12  1  0  0  0  0
  4 13  1  0  0  0  0
  5 14  1  0  0  0  0
  5 15  1  0  0  0  0
  5  4  1  0  0  0  0
  6 16  1  6  0  0  0
  6  5  1  0  0  0  0
  9  2  1  0  0  0  0
 11  3  1  0  0  0  0
 17  1  1  0  0  0  0
 18 17  1  0  0  0  0
 18 23  1  0  0  0  0
 19 18  2  0  0  0  0
 20 21  2  0  0  0  0
 20 19  1  0  0  0  0
 21 22  1  0  0  0  0
 22 17  2  0  0  0  0
 24 19  1  0  0  0  0
 25 21  1  0  0  0  0
 26 27  2  0  0  0  0
 28 26  1  0  0  0  0
 28  6  1  0  0  0  0
 29 28  1  0  0  0  0
 30 37  1  0  0  0  0
 30 26  1  0  0  0  0
 31 30  2  0  0  0  0
 32 31  1  0  0  0  0
 33 35  2  0  0  0  0
 33 31  1  0  0  0  0
 34 33  1  0  0  0  0
 35 36  1  0  0  0  0
 36 37  2  0  0  0  0
M  END
>  <minimizedAffinity>
-6.08260059

>  <minimizedRMSD>
0.704437137

$$$$
