
 OpenBabel03272503253D

 31 33  0  0  1  0  0  0  0  0999 V2000
   36.4420   22.3870   32.2850 N   0  0  0  0  0  0  0  0  0  0  0  0
   36.5790   21.8500   33.5930 C   0  0  1  0  0  0  0  0  0  0  0  0
   35.8940   20.5090   33.5480 C   0  0  0  0  0  0  0  0  0  0  0  0
   35.3650   20.4130   32.0960 C   0  0  0  0  0  0  0  0  0  0  0  0
   36.3930   21.2580   31.3990 C   0  0  0  0  0  0  0  0  0  0  0  0
   35.8740   22.4580   34.3070 H   0  0  0  0  0  0  0  0  0  0  0  0
   35.1160   20.3480   34.2880 H   0  0  0  0  0  0  0  0  0  0  0  0
   36.7190   19.7480   33.5880 H   0  0  0  0  0  0  0  0  0  0  0  0
   34.4000   20.9160   32.0440 H   0  0  0  0  0  0  0  0  0  0  0  0
   35.3700   19.3680   31.7580 H   0  0  0  0  0  0  0  0  0  0  0  0
   37.3720   20.7450   31.3030 H   0  0  0  0  0  0  0  0  0  0  0  0
   36.0190   21.5440   30.3820 H   0  0  0  0  0  0  0  0  0  0  0  0
   36.3590   23.7680   31.9450 C   0  0  0  0  0  0  0  0  0  0  0  0
   35.2420   24.2090   31.2170 C   0  0  0  0  0  0  0  0  0  0  0  0
   35.1410   25.5580   30.8780 C   0  0  0  0  0  0  0  0  0  0  0  0
   36.1770   26.3800   31.2960 N   0  0  0  0  0  0  0  0  0  0  0  0
   37.2330   25.9130   31.9920 C   0  0  0  0  0  0  0  0  0  0  0  0
   37.3410   24.5930   32.3310 N   0  0  0  0  0  0  0  0  0  0  0  0
   34.4520   23.5680   30.9020 H   0  0  0  0  0  0  0  0  0  0  0  0
   34.3060   25.9310   30.3260 H   0  0  0  0  0  0  0  0  0  0  0  0
   37.9780   26.6430   32.2640 H   0  0  0  0  0  0  0  0  0  0  0  0
   37.8840   21.8720   34.2090 C   0  0  0  0  0  0  0  0  0  0  0  0
   38.8340   21.4480   33.6020 O   0  0  0  0  0  0  0  0  0  0  0  0
   38.3300   22.3290   35.5470 C   0  0  0  0  0  0  0  0  0  0  0  0
   39.6110   22.1930   36.0220 C   0  0  0  0  0  0  0  0  0  0  0  0
   40.3600   21.7250   35.3740 H   0  0  0  0  0  0  0  0  0  0  0  0
   40.0160   22.6110   37.2670 C   0  0  0  0  0  0  0  0  0  0  0  0
   41.0540   22.4570   37.5480 H   0  0  0  0  0  0  0  0  0  0  0  0
   39.1190   23.2060   38.1220 C   0  0  0  0  0  3  0  0  0  0  0  0
   37.8340   23.3440   37.6510 C   0  0  0  0  0  3  0  0  0  0  0  0
   37.5150   22.9160   36.4340 N   0  0  0  0  0  0  0  0  0  0  0  0
  1  2  1  0  0  0  0
  2 22  1  0  0  0  0
  2  6  1  1  0  0  0
  3  8  1  0  0  0  0
  3  2  1  0  0  0  0
  3  7  1  0  0  0  0
  4  3  1  0  0  0  0
  5  4  1  0  0  0  0
  5  1  1  0  0  0  0
  9  4  1  0  0  0  0
 10  4  1  0  0  0  0
 11  5  1  0  0  0  0
 12  5  1  0  0  0  0
 13  1  1  0  0  0  0
 13 18  1  0  0  0  0
 14 13  2  0  0  0  0
 15 14  1  0  0  0  0
 15 16  2  0  0  0  0
 16 17  1  0  0  0  0
 17 21  1  0  0  0  0
 17 18  2  0  0  0  0
 19 14  1  0  0  0  0
 20 15  1  0  0  0  0
 22 24  1  0  0  0  0
 23 22  2  0  0  0  0
 24 25  2  0  0  0  0
 24 31  1  0  0  0  0
 25 27  1  0  0  0  0
 26 25  1  0  0  0  0
 27 28  1  0  0  0  0
 27 29  2  0  0  0  0
 30 29  1  0  0  0  0
 31 30  2  0  0  0  0
M  END
>  <minimizedAffinity>
-5.19593906

$$$$

 OpenBabel03272503253D

 31 33  0  0  1  0  0  0  0  0999 V2000
   36.4740   27.6560   32.7180 N   0  0  0  0  0  0  0  0  0  0  0  0
   36.0900   29.0240   32.6770 C   0  0  1  0  0  0  0  0  0  0  0  0
   36.1410   29.4090   31.2210 C   0  0  0  0  0  0  0  0  0  0  0  0
   36.6140   28.1160   30.5130 C   0  0  0  0  0  0  0  0  0  0  0  0
   36.0600   27.0940   31.4640 C   0  0  0  0  0  0  0  0  0  0  0  0
   36.9690   29.6580   33.1260 H   0  0  0  0  0  0  0  0  0  0  0  0
   36.7580   30.2690   30.9790 H   0  0  0  0  0  0  0  0  0  0  0  0
   35.0700   29.5190   30.9020 H   0  0  0  0  0  0  0  0  0  0  0  0
   37.7020   28.0790   30.5490 H   0  0  0  0  0  0  0  0  0  0  0  0
   36.1730   28.0500   29.5090 H   0  0  0  0  0  0  0  0  0  0  0  0
   34.9570   26.9900   31.3820 H   0  0  0  0  0  0  0  0  0  0  0  0
   36.5440   26.1010   31.2740 H   0  0  0  0  0  0  0  0  0  0  0  0
   37.1430   27.0010   33.7900 C   0  0  0  0  0  0  0  0  0  0  0  0
   37.5420   27.7690   34.8960 C   0  0  0  0  0  0  0  0  0  0  0  0
   38.1960   27.1440   35.9580 C   0  0  0  0  0  0  0  0  0  0  0  0
   38.4060   25.7780   35.8370 N   0  0  0  0  0  0  0  0  0  0  0  0
   38.0070   25.0800   34.7560 C   0  0  0  0  0  0  0  0  0  0  0  0
   37.3640   25.6820   33.7100 N   0  0  0  0  0  0  0  0  0  0  0  0
   37.3750   28.8170   34.9770 H   0  0  0  0  0  0  0  0  0  0  0  0
   38.5150   27.6950   36.8160 H   0  0  0  0  0  0  0  0  0  0  0  0
   38.2230   24.0230   34.7710 H   0  0  0  0  0  0  0  0  0  0  0  0
   34.9030   29.4230   33.3950 C   0  0  0  0  0  0  0  0  0  0  0  0
   33.8230   29.0530   33.0100 O   0  0  0  0  0  0  0  0  0  0  0  0
   34.7230   30.2780   34.5930 C   0  0  0  0  0  0  0  0  0  0  0  0
   35.7310   31.0020   35.1830 C   0  0  0  0  0  0  0  0  0  0  0  0
   36.7320   30.9560   34.7420 H   0  0  0  0  0  0  0  0  0  0  0  0
   35.5590   31.7860   36.2990 C   0  0  0  0  0  0  0  0  0  0  0  0
   36.4210   32.3200   36.6890 H   0  0  0  0  0  0  0  0  0  0  0  0
   34.3240   31.8820   36.8940 C   0  0  0  0  0  3  0  0  0  0  0  0
   33.3120   31.1580   36.3060 C   0  0  0  0  0  3  0  0  0  0  0  0
   33.5520   30.4210   35.2270 N   0  0  0  0  0  0  0  0  0  0  0  0
  1 13  1  0  0  0  0
  2  1  1  0  0  0  0
  2  6  1  1  0  0  0
  2 22  1  0  0  0  0
  3  2  1  0  0  0  0
  4  9  1  0  0  0  0
  4  3  1  0  0  0  0
  4  5  1  0  0  0  0
  5  1  1  0  0  0  0
  7  3  1  0  0  0  0
  8  3  1  0  0  0  0
 10  4  1  0  0  0  0
 11  5  1  0  0  0  0
 12  5  1  0  0  0  0
 13 14  1  0  0  0  0
 14 19  1  0  0  0  0
 14 15  2  0  0  0  0
 15 20  1  0  0  0  0
 16 15  1  0  0  0  0
 17 21  1  0  0  0  0
 17 16  2  0  0  0  0
 18 13  2  0  0  0  0
 18 17  1  0  0  0  0
 22 24  1  0  0  0  0
 23 22  2  0  0  0  0
 24 25  2  0  0  0  0
 24 31  1  0  0  0  0
 25 27  1  0  0  0  0
 26 25  1  0  0  0  0
 27 28  1  0  0  0  0
 27 29  2  0  0  0  0
 30 29  1  0  0  0  0
 31 30  2  0  0  0  0
M  END
>  <minimizedAffinity>
-5.05983782

$$$$

 OpenBabel03272503253D

 31 33  0  0  1  0  0  0  0  0999 V2000
   38.5240   25.7530   35.3620 N   0  0  0  0  0  0  0  0  0  0  0  0
   37.4580   25.7540   34.4230 C   0  0  1  0  0  0  0  0  0  0  0  0
   36.9650   27.1780   34.3800 C   0  0  0  0  0  0  0  0  0  0  0  0
   37.8620   27.9100   35.4080 C   0  0  0  0  0  0  0  0  0  0  0  0
   39.1000   27.0660   35.3040 C   0  0  0  0  0  0  0  0  0  0  0  0
   36.5480   25.1980   34.9110 H   0  0  0  0  0  0  0  0  0  0  0  0
   35.9060   27.3190   34.5730 H   0  0  0  0  0  0  0  0  0  0  0  0
   37.3000   27.5820   33.3880 H   0  0  0  0  0  0  0  0  0  0  0  0
   37.4300   27.7820   36.3990 H   0  0  0  0  0  0  0  0  0  0  0  0
   38.0250   28.9500   35.0950 H   0  0  0  0  0  0  0  0  0  0  0  0
   39.6620   27.2480   34.3630 H   0  0  0  0  0  0  0  0  0  0  0  0
   39.7670   27.2660   36.1810 H   0  0  0  0  0  0  0  0  0  0  0  0
   38.9160   24.6630   36.1900 C   0  0  0  0  0  0  0  0  0  0  0  0
   38.1990   24.4370   37.3760 C   0  0  0  0  0  0  0  0  0  0  0  0
   38.5660   23.3710   38.1990 C   0  0  0  0  0  0  0  0  0  0  0  0
   39.6370   22.6000   37.7720 N   0  0  0  0  0  0  0  0  0  0  0  0
   40.2980   22.8550   36.6260 C   0  0  0  0  0  0  0  0  0  0  0  0
   39.9460   23.8950   35.8110 N   0  0  0  0  0  0  0  0  0  0  0  0
   37.3790   25.0360   37.6940 H   0  0  0  0  0  0  0  0  0  0  0  0
   38.0440   23.1670   39.1090 H   0  0  0  0  0  0  0  0  0  0  0  0
   41.1140   22.1890   36.3940 H   0  0  0  0  0  0  0  0  0  0  0  0
   37.6710   25.1210   33.1430 C   0  0  0  0  0  0  0  0  0  0  0  0
   38.3280   25.6830   32.3050 O   0  0  0  0  0  0  0  0  0  0  0  0
   37.1960   23.8270   32.5980 C   0  0  0  0  0  0  0  0  0  0  0  0
   36.1820   23.7020   31.6800 C   0  0  0  0  0  0  0  0  0  0  0  0
   35.6940   24.6120   31.3160 H   0  0  0  0  0  0  0  0  0  0  0  0
   35.7400   22.4980   31.1840 C   0  0  0  0  0  0  0  0  0  0  0  0
   34.9300   22.5070   30.4600 H   0  0  0  0  0  0  0  0  0  0  0  0
   36.3170   21.3240   31.6050 C   0  0  0  0  0  3  0  0  0  0  0  0
   37.3320   21.4440   32.5250 C   0  0  0  0  0  3  0  0  0  0  0  0
   37.7080   22.6430   32.9600 N   0  0  0  0  0  0  0  0  0  0  0  0
  1 13  1  0  0  0  0
  2  6  1  1  0  0  0
  2  1  1  0  0  0  0
  3  2  1  0  0  0  0
  3  7  1  0  0  0  0
  3  4  1  0  0  0  0
  4  9  1  0  0  0  0
  5  1  1  0  0  0  0
  5  4  1  0  0  0  0
  5 12  1  0  0  0  0
  8  3  1  0  0  0  0
 10  4  1  0  0  0  0
 11  5  1  0  0  0  0
 13 14  1  0  0  0  0
 14 19  1  0  0  0  0
 14 15  2  0  0  0  0
 15 20  1  0  0  0  0
 16 15  1  0  0  0  0
 17 16  2  0  0  0  0
 18 13  2  0  0  0  0
 18 17  1  0  0  0  0
 21 17  1  0  0  0  0
 22  2  1  0  0  0  0
 23 22  2  0  0  0  0
 24 31  1  0  0  0  0
 24 22  1  0  0  0  0
 25 24  2  0  0  0  0
 26 25  1  0  0  0  0
 27 29  2  0  0  0  0
 27 25  1  0  0  0  0
 28 27  1  0  0  0  0
 29 30  1  0  0  0  0
 30 31  2  0  0  0  0
M  END
>  <minimizedAffinity>
-4.98278236

$$$$

 OpenBabel03272503253D

 31 33  0  0  1  0  0  0  0  0999 V2000
   38.3250   24.1300   36.0760 N   0  0  0  0  0  0  0  0  0  0  0  0
   39.3250   23.1990   35.6870 C   0  0  1  0  0  0  0  0  0  0  0  0
   39.7960   22.5600   36.9680 C   0  0  0  0  0  0  0  0  0  0  0  0
   38.9620   23.2690   38.0630 C   0  0  0  0  0  0  0  0  0  0  0  0
   37.7300   23.5930   37.2670 C   0  0  0  0  0  0  0  0  0  0  0  0
   40.2720   23.8060   35.3560 H   0  0  0  0  0  0  0  0  0  0  0  0
   40.8640   22.6090   37.1580 H   0  0  0  0  0  0  0  0  0  0  0  0
   39.3890   21.5140   36.9490 H   0  0  0  0  0  0  0  0  0  0  0  0
   39.4610   24.1980   38.3330 H   0  0  0  0  0  0  0  0  0  0  0  0
   38.7650   22.5800   38.8950 H   0  0  0  0  0  0  0  0  0  0  0  0
   37.1030   22.6970   37.0690 H   0  0  0  0  0  0  0  0  0  0  0  0
   37.1210   24.3610   37.8100 H   0  0  0  0  0  0  0  0  0  0  0  0
   38.0030   25.3480   35.4130 C   0  0  0  0  0  0  0  0  0  0  0  0
   38.2240   26.5560   36.0940 C   0  0  0  0  0  0  0  0  0  0  0  0
   37.9190   27.7600   35.4590 C   0  0  0  0  0  0  0  0  0  0  0  0
   37.4080   27.6690   34.1720 N   0  0  0  0  0  0  0  0  0  0  0  0
   37.2110   26.4870   33.5570 C   0  0  0  0  0  0  0  0  0  0  0  0
   37.5070   25.3000   34.1690 N   0  0  0  0  0  0  0  0  0  0  0  0
   38.6170   26.6130   37.0820 H   0  0  0  0  0  0  0  0  0  0  0  0
   38.0730   28.6990   35.9450 H   0  0  0  0  0  0  0  0  0  0  0  0
   36.8090   26.5370   32.5570 H   0  0  0  0  0  0  0  0  0  0  0  0
   39.0330   22.2950   34.6000 C   0  0  0  0  0  0  0  0  0  0  0  0
   39.9390   21.7910   33.9880 O   0  0  0  0  0  0  0  0  0  0  0  0
   37.7460   21.8360   34.0250 C   0  0  0  0  0  0  0  0  0  0  0  0
   36.7930   21.1370   34.7260 C   0  0  0  0  0  0  0  0  0  0  0  0
   36.9860   20.9060   35.7790 H   0  0  0  0  0  0  0  0  0  0  0  0
   35.6050   20.7070   34.1850 C   0  0  0  0  0  0  0  0  0  0  0  0
   34.9170   20.1600   34.8240 H   0  0  0  0  0  0  0  0  0  0  0  0
   35.3100   20.9690   32.8680 C   0  0  0  0  0  3  0  0  0  0  0  0
   36.2610   21.6690   32.1620 C   0  0  0  0  0  3  0  0  0  0  0  0
   37.3880   22.0530   32.7530 N   0  0  0  0  0  0  0  0  0  0  0  0
  1  5  1  0  0  0  0
  2  6  1  6  0  0  0
  2  1  1  0  0  0  0
  2  3  1  0  0  0  0
  3  7  1  0  0  0  0
  3  4  1  0  0  0  0
  4  9  1  0  0  0  0
  4 10  1  0  0  0  0
  5 12  1  0  0  0  0
  5  4  1  0  0  0  0
  8  3  1  0  0  0  0
 11  5  1  0  0  0  0
 13  1  1  0  0  0  0
 13 14  1  0  0  0  0
 14 19  1  0  0  0  0
 15 20  1  0  0  0  0
 15 14  2  0  0  0  0
 16 15  1  0  0  0  0
 17 18  1  0  0  0  0
 17 16  2  0  0  0  0
 18 13  2  0  0  0  0
 21 17  1  0  0  0  0
 22  2  1  0  0  0  0
 23 22  2  0  0  0  0
 24 22  1  0  0  0  0
 24 25  1  0  0  0  0
 25 26  1  0  0  0  0
 27 25  2  0  0  0  0
 27 28  1  0  0  0  0
 29 27  1  0  0  0  0
 30 31  1  0  0  0  0
 30 29  2  0  0  0  0
 31 24  2  0  0  0  0
M  END
>  <minimizedAffinity>
-4.94264507

$$$$

 OpenBabel03272503253D

 31 33  0  0  1  0  0  0  0  0999 V2000
   38.8040   22.4130   35.8630 N   0  0  0  0  0  0  0  0  0  0  0  0
   38.6830   23.2440   37.0090 C   0  0  1  0  0  0  0  0  0  0  0  0
   39.8950   22.9410   37.8520 C   0  0  0  0  0  0  0  0  0  0  0  0
   40.6430   21.8520   37.0450 C   0  0  0  0  0  0  0  0  0  0  0  0
   40.2130   22.2310   35.6570 C   0  0  0  0  0  0  0  0  0  0  0  0
   37.8140   22.8190   37.6720 H   0  0  0  0  0  0  0  0  0  0  0  0
   39.6970   22.6410   38.8770 H   0  0  0  0  0  0  0  0  0  0  0  0
   40.5540   23.8450   37.7680 H   0  0  0  0  0  0  0  0  0  0  0  0
   40.2170   20.8810   37.2940 H   0  0  0  0  0  0  0  0  0  0  0  0
   41.7270   21.9440   37.1980 H   0  0  0  0  0  0  0  0  0  0  0  0
   40.7170   23.1500   35.2910 H   0  0  0  0  0  0  0  0  0  0  0  0
   40.4240   21.3850   34.9530 H   0  0  0  0  0  0  0  0  0  0  0  0
   37.7330   21.8720   35.0970 C   0  0  0  0  0  0  0  0  0  0  0  0
   36.6500   21.2950   35.7810 C   0  0  0  0  0  0  0  0  0  0  0  0
   35.5890   20.7630   35.0480 C   0  0  0  0  0  0  0  0  0  0  0  0
   35.6870   20.8470   33.6670 N   0  0  0  0  0  0  0  0  0  0  0  0
   36.7460   21.4100   33.0520 C   0  0  0  0  0  0  0  0  0  0  0  0
   37.7920   21.9350   33.7600 N   0  0  0  0  0  0  0  0  0  0  0  0
   36.5860   21.2360   36.8420 H   0  0  0  0  0  0  0  0  0  0  0  0
   34.7480   20.3160   35.5330 H   0  0  0  0  0  0  0  0  0  0  0  0
   36.7150   21.4200   31.9740 H   0  0  0  0  0  0  0  0  0  0  0  0
   38.3850   24.6430   36.8120 C   0  0  0  0  0  0  0  0  0  0  0  0
   37.9780   25.2990   37.7370 O   0  0  0  0  0  0  0  0  0  0  0  0
   38.4650   25.5020   35.6070 C   0  0  0  0  0  0  0  0  0  0  0  0
   39.5970   26.1730   35.2120 C   0  0  0  0  0  0  0  0  0  0  0  0
   40.5040   26.0660   35.8160 H   0  0  0  0  0  0  0  0  0  0  0  0
   39.6630   26.9760   34.0970 C   0  0  0  0  0  0  0  0  0  0  0  0
   40.6070   27.4630   33.8710 H   0  0  0  0  0  0  0  0  0  0  0  0
   38.5550   27.1460   33.3020 C   0  0  0  0  0  3  0  0  0  0  0  0
   37.4190   26.4760   33.6940 C   0  0  0  0  0  3  0  0  0  0  0  0
   37.4300   25.7160   34.7850 N   0  0  0  0  0  0  0  0  0  0  0  0
  1  2  1  0  0  0  0
  2  6  1  1  0  0  0
  2  3  1  0  0  0  0
  3  7  1  0  0  0  0
  4 10  1  0  0  0  0
  4  9  1  0  0  0  0
  4  3  1  0  0  0  0
  5  1  1  0  0  0  0
  5  4  1  0  0  0  0
  8  3  1  0  0  0  0
 11  5  1  0  0  0  0
 12  5  1  0  0  0  0
 13 14  1  0  0  0  0
 13  1  1  0  0  0  0
 14 19  1  0  0  0  0
 15 20  1  0  0  0  0
 15 14  2  0  0  0  0
 16 15  1  0  0  0  0
 17 16  2  0  0  0  0
 17 18  1  0  0  0  0
 18 13  2  0  0  0  0
 21 17  1  0  0  0  0
 22  2  1  0  0  0  0
 22 23  2  0  0  0  0
 24 22  1  0  0  0  0
 25 24  1  0  0  0  0
 25 26  1  0  0  0  0
 27 25  2  0  0  0  0
 28 27  1  0  0  0  0
 29 30  2  0  0  0  0
 29 27  1  0  0  0  0
 30 31  1  0  0  0  0
 31 24  2  0  0  0  0
M  END
>  <minimizedAffinity>
-4.86580563

$$$$

 OpenBabel03272503253D

 31 33  0  0  1  0  0  0  0  0999 V2000
   37.8120   25.9350   34.1970 N   0  0  0  0  0  0  0  0  0  0  0  0
   38.7970   25.7620   35.2050 C   0  0  1  0  0  0  0  0  0  0  0  0
   38.8010   27.0510   35.9860 C   0  0  0  0  0  0  0  0  0  0  0  0
   37.7390   27.9200   35.2690 C   0  0  0  0  0  0  0  0  0  0  0  0
   36.8390   26.8360   34.7480 C   0  0  0  0  0  0  0  0  0  0  0  0
   39.8500   25.7900   34.6880 H   0  0  0  0  0  0  0  0  0  0  0  0
   39.7610   27.5510   36.0740 H   0  0  0  0  0  0  0  0  0  0  0  0
   38.3290   26.8050   36.9750 H   0  0  0  0  0  0  0  0  0  0  0  0
   38.2120   28.4210   34.4260 H   0  0  0  0  0  0  0  0  0  0  0  0
   37.2400   28.5820   35.9900 H   0  0  0  0  0  0  0  0  0  0  0  0
   36.2270   26.3700   35.5490 H   0  0  0  0  0  0  0  0  0  0  0  0
   36.1640   27.2540   33.9580 H   0  0  0  0  0  0  0  0  0  0  0  0
   37.8140   25.3380   32.9050 C   0  0  0  0  0  0  0  0  0  0  0  0
   36.5830   25.1550   32.2530 C   0  0  0  0  0  0  0  0  0  0  0  0
   36.5650   24.5750   30.9850 C   0  0  0  0  0  0  0  0  0  0  0  0
   37.7940   24.2150   30.4510 N   0  0  0  0  0  0  0  0  0  0  0  0
   38.9520   24.4080   31.1130 C   0  0  0  0  0  0  0  0  0  0  0  0
   38.9820   24.9770   32.3570 N   0  0  0  0  0  0  0  0  0  0  0  0
   35.6460   25.4360   32.6730 H   0  0  0  0  0  0  0  0  0  0  0  0
   35.6480   24.4200   30.4580 H   0  0  0  0  0  0  0  0  0  0  0  0
   39.8460   24.0890   30.6020 H   0  0  0  0  0  0  0  0  0  0  0  0
   38.7710   24.5500   35.9880 C   0  0  0  0  0  0  0  0  0  0  0  0
   37.7910   24.2840   36.6370 O   0  0  0  0  0  0  0  0  0  0  0  0
   39.7870   23.4900   36.1880 C   0  0  0  0  0  0  0  0  0  0  0  0
   39.9900   22.8300   37.3760 C   0  0  0  0  0  0  0  0  0  0  0  0
   39.3600   23.0920   38.2320 H   0  0  0  0  0  0  0  0  0  0  0  0
   40.9400   21.8530   37.5580 C   0  0  0  0  0  0  0  0  0  0  0  0
   41.0210   21.3910   38.5380 H   0  0  0  0  0  0  0  0  0  0  0  0
   41.7590   21.4830   36.5180 C   0  0  0  0  0  3  0  0  0  0  0  0
   41.5600   22.1410   35.3270 C   0  0  0  0  0  3  0  0  0  0  0  0
   40.6200   23.0760   35.2240 N   0  0  0  0  0  0  0  0  0  0  0  0
  1  5  1  0  0  0  0
  1  2  1  0  0  0  0
  2  6  1  6  0  0  0
  2  3  1  0  0  0  0
  2 22  1  0  0  0  0
  3  7  1  0  0  0  0
  3  8  1  0  0  0  0
  4  3  1  0  0  0  0
  4 10  1  0  0  0  0
  5  4  1  0  0  0  0
  5 11  1  0  0  0  0
  9  4  1  0  0  0  0
 12  5  1  0  0  0  0
 13  1  1  0  0  0  0
 14 19  1  0  0  0  0
 14 13  2  0  0  0  0
 15 14  1  0  0  0  0
 16 15  2  0  0  0  0
 16 17  1  0  0  0  0
 17 18  2  0  0  0  0
 18 13  1  0  0  0  0
 20 15  1  0  0  0  0
 21 17  1  0  0  0  0
 22 24  1  0  0  0  0
 22 23  2  0  0  0  0
 24 25  1  0  0  0  0
 25 27  2  0  0  0  0
 25 26  1  0  0  0  0
 27 28  1  0  0  0  0
 29 27  1  0  0  0  0
 30 29  2  0  0  0  0
 31 30  1  0  0  0  0
 31 24  2  0  0  0  0
M  END
>  <minimizedAffinity>
-4.81705666

$$$$

 OpenBabel03272503253D

 31 33  0  0  1  0  0  0  0  0999 V2000
   37.1480   25.1680   32.4810 N   0  0  0  0  0  0  0  0  0  0  0  0
   38.0980   25.7150   33.3860 C   0  0  1  0  0  0  0  0  0  0  0  0
   38.4130   27.0890   32.8520 C   0  0  0  0  0  0  0  0  0  0  0  0
   37.5540   27.1920   31.5680 C   0  0  0  0  0  0  0  0  0  0  0  0
   36.4190   26.2860   31.9540 C   0  0  0  0  0  0  0  0  0  0  0  0
   39.1150   25.1530   33.2220 H   0  0  0  0  0  0  0  0  0  0  0  0
   39.4620   27.2990   32.6710 H   0  0  0  0  0  0  0  0  0  0  0  0
   37.9260   27.8060   33.5650 H   0  0  0  0  0  0  0  0  0  0  0  0
   38.1030   26.7380   30.7450 H   0  0  0  0  0  0  0  0  0  0  0  0
   37.2360   28.2310   31.4070 H   0  0  0  0  0  0  0  0  0  0  0  0
   35.7400   26.7480   32.7020 H   0  0  0  0  0  0  0  0  0  0  0  0
   35.8330   26.0070   31.0400 H   0  0  0  0  0  0  0  0  0  0  0  0
   36.9800   23.7890   32.1670 C   0  0  0  0  0  0  0  0  0  0  0  0
   35.7960   23.3930   31.5240 C   0  0  0  0  0  0  0  0  0  0  0  0
   35.6150   22.0470   31.2040 C   0  0  0  0  0  0  0  0  0  0  0  0
   36.6420   21.1830   31.5550 N   0  0  0  0  0  0  0  0  0  0  0  0
   37.7610   21.6080   32.1730 C   0  0  0  0  0  0  0  0  0  0  0  0
   37.9510   22.9250   32.4900 N   0  0  0  0  0  0  0  0  0  0  0  0
   35.0140   24.0650   31.2590 H   0  0  0  0  0  0  0  0  0  0  0  0
   34.7270   21.7070   30.7140 H   0  0  0  0  0  0  0  0  0  0  0  0
   38.4930   20.8490   32.3980 H   0  0  0  0  0  0  0  0  0  0  0  0
   37.8220   25.6340   34.8000 C   0  0  0  0  0  0  0  0  0  0  0  0
   37.0420   26.4070   35.2970 O   0  0  0  0  0  0  0  0  0  0  0  0
   38.3550   24.7390   35.8540 C   0  0  0  0  0  0  0  0  0  0  0  0
   39.4550   23.9310   35.6960 C   0  0  0  0  0  0  0  0  0  0  0  0
   39.9820   23.9500   34.7370 H   0  0  0  0  0  0  0  0  0  0  0  0
   39.9400   23.0960   36.6750 C   0  0  0  0  0  0  0  0  0  0  0  0
   40.8180   22.4970   36.4500 H   0  0  0  0  0  0  0  0  0  0  0  0
   39.3180   23.0320   37.9000 C   0  0  0  0  0  3  0  0  0  0  0  0
   38.2160   23.8390   38.0620 C   0  0  0  0  0  3  0  0  0  0  0  0
   37.8040   24.6220   37.0700 N   0  0  0  0  0  0  0  0  0  0  0  0
  1  2  1  0  0  0  0
  2  6  1  6  0  0  0
  2 22  1  0  0  0  0
  3  2  1  0  0  0  0
  3  8  1  0  0  0  0
  4  5  1  0  0  0  0
  4  3  1  0  0  0  0
  5  1  1  0  0  0  0
  5 11  1  0  0  0  0
  7  3  1  0  0  0  0
  9  4  1  0  0  0  0
 10  4  1  0  0  0  0
 12  5  1  0  0  0  0
 13  1  1  0  0  0  0
 13 18  1  0  0  0  0
 14 13  2  0  0  0  0
 15 14  1  0  0  0  0
 15 16  2  0  0  0  0
 16 17  1  0  0  0  0
 17 21  1  0  0  0  0
 17 18  2  0  0  0  0
 19 14  1  0  0  0  0
 20 15  1  0  0  0  0
 22 23  2  0  0  0  0
 22 24  1  0  0  0  0
 24 31  1  0  0  0  0
 25 24  2  0  0  0  0
 25 27  1  0  0  0  0
 26 25  1  0  0  0  0
 27 29  2  0  0  0  0
 28 27  1  0  0  0  0
 29 30  1  0  0  0  0
 31 30  2  0  0  0  0
M  END
>  <minimizedAffinity>
-4.81435776

$$$$

 OpenBabel03272503253D

 31 33  0  0  1  0  0  0  0  0999 V2000
   38.0740   25.8190   34.0640 N   0  0  0  0  0  0  0  0  0  0  0  0
   39.4940   25.8540   34.0250 C   0  0  1  0  0  0  0  0  0  0  0  0
   39.8960   26.8790   35.0540 C   0  0  0  0  0  0  0  0  0  0  0  0
   38.5460   27.3900   35.6130 C   0  0  0  0  0  0  0  0  0  0  0  0
   37.7090   26.1600   35.4100 C   0  0  0  0  0  0  0  0  0  0  0  0
   39.8130   26.3780   33.0250 H   0  0  0  0  0  0  0  0  0  0  0  0
   40.5350   27.6820   34.7000 H   0  0  0  0  0  0  0  0  0  0  0  0
   40.3390   26.2930   35.9040 H   0  0  0  0  0  0  0  0  0  0  0  0
   38.1770   28.1800   34.9610 H   0  0  0  0  0  0  0  0  0  0  0  0
   38.6540   27.6650   36.6720 H   0  0  0  0  0  0  0  0  0  0  0  0
   37.9500   25.3560   36.1380 H   0  0  0  0  0  0  0  0  0  0  0  0
   36.6240   26.4250   35.4920 H   0  0  0  0  0  0  0  0  0  0  0  0
   37.2080   25.5160   32.9750 C   0  0  0  0  0  0  0  0  0  0  0  0
   37.0910   24.1760   32.5700 C   0  0  0  0  0  0  0  0  0  0  0  0
   36.2430   23.8590   31.5080 C   0  0  0  0  0  0  0  0  0  0  0  0
   35.5660   24.9180   30.9190 N   0  0  0  0  0  0  0  0  0  0  0  0
   35.7110   26.1900   31.3400 C   0  0  0  0  0  0  0  0  0  0  0  0
   36.5370   26.5120   32.3820 N   0  0  0  0  0  0  0  0  0  0  0  0
   37.6150   23.3720   33.0300 H   0  0  0  0  0  0  0  0  0  0  0  0
   36.1280   22.8520   31.1710 H   0  0  0  0  0  0  0  0  0  0  0  0
   35.1350   26.9300   30.8090 H   0  0  0  0  0  0  0  0  0  0  0  0
   40.2120   24.6020   34.0660 C   0  0  0  0  0  0  0  0  0  0  0  0
   40.6610   24.1420   33.0470 O   0  0  0  0  0  0  0  0  0  0  0  0
   40.5190   23.6840   35.1880 C   0  0  0  0  0  0  0  0  0  0  0  0
   39.6870   23.4700   36.2590 C   0  0  0  0  0  0  0  0  0  0  0  0
   38.7300   24.0000   36.2900 H   0  0  0  0  0  0  0  0  0  0  0  0
   39.9810   22.6230   37.3020 C   0  0  0  0  0  0  0  0  0  0  0  0
   39.2540   22.5220   38.1030 H   0  0  0  0  0  0  0  0  0  0  0  0
   41.1680   21.9300   37.3150 C   0  0  0  0  0  3  0  0  0  0  0  0
   42.0050   22.1430   36.2450 C   0  0  0  0  0  3  0  0  0  0  0  0
   41.6530   22.9770   35.2710 N   0  0  0  0  0  0  0  0  0  0  0  0
  1  5  1  0  0  0  0
  2  6  1  6  0  0  0
  2  1  1  0  0  0  0
  2 22  1  0  0  0  0
  2  3  1  0  0  0  0
  3  4  1  0  0  0  0
  3  8  1  0  0  0  0
  4 10  1  0  0  0  0
  5 12  1  0  0  0  0
  5  4  1  0  0  0  0
  5 11  1  0  0  0  0
  7  3  1  0  0  0  0
  9  4  1  0  0  0  0
 13  1  1  0  0  0  0
 14 13  1  0  0  0  0
 14 19  1  0  0  0  0
 15 14  2  0  0  0  0
 16 17  2  0  0  0  0
 16 15  1  0  0  0  0
 17 18  1  0  0  0  0
 18 13  2  0  0  0  0
 20 15  1  0  0  0  0
 21 17  1  0  0  0  0
 22 24  1  0  0  0  0
 23 22  2  0  0  0  0
 24 31  2  0  0  0  0
 24 25  1  0  0  0  0
 25 26  1  0  0  0  0
 25 27  2  0  0  0  0
 27 29  1  0  0  0  0
 27 28  1  0  0  0  0
 30 29  2  0  0  0  0
 31 30  1  0  0  0  0
M  END
>  <minimizedAffinity>
-4.80121708

$$$$

 OpenBabel03272503253D

 31 33  0  0  1  0  0  0  0  0999 V2000
   38.8600   26.4220   33.6830 N   0  0  0  0  0  0  0  0  0  0  0  0
   39.3830   25.1030   33.6020 C   0  0  1  0  0  0  0  0  0  0  0  0
   40.8750   25.2550   33.7500 C   0  0  0  0  0  0  0  0  0  0  0  0
   41.0780   26.7840   33.8890 C   0  0  0  0  0  0  0  0  0  0  0  0
   39.7670   27.1530   34.5220 C   0  0  0  0  0  0  0  0  0  0  0  0
   39.2850   24.7450   32.4890 H   0  0  0  0  0  0  0  0  0  0  0  0
   41.4770   24.8240   32.9560 H   0  0  0  0  0  0  0  0  0  0  0  0
   41.1180   24.8530   34.7690 H   0  0  0  0  0  0  0  0  0  0  0  0
   41.1250   27.2210   32.8930 H   0  0  0  0  0  0  0  0  0  0  0  0
   41.9400   26.9940   34.5370 H   0  0  0  0  0  0  0  0  0  0  0  0
   39.7070   26.8480   35.5880 H   0  0  0  0  0  0  0  0  0  0  0  0
   39.6070   28.2590   34.4410 H   0  0  0  0  0  0  0  0  0  0  0  0
   37.6810   26.9020   33.0450 C   0  0  0  0  0  0  0  0  0  0  0  0
   36.9680   27.9440   33.6590 C   0  0  0  0  0  0  0  0  0  0  0  0
   35.8140   28.4310   33.0460 C   0  0  0  0  0  0  0  0  0  0  0  0
   35.4500   27.8340   31.8480 N   0  0  0  0  0  0  0  0  0  0  0  0
   36.1640   26.8340   31.2950 C   0  0  0  0  0  0  0  0  0  0  0  0
   37.2980   26.3500   31.8850 N   0  0  0  0  0  0  0  0  0  0  0  0
   37.2580   28.3950   34.5790 H   0  0  0  0  0  0  0  0  0  0  0  0
   35.2450   29.2240   33.4830 H   0  0  0  0  0  0  0  0  0  0  0  0
   35.7870   26.4460   30.3620 H   0  0  0  0  0  0  0  0  0  0  0  0
   38.7700   24.0730   34.4060 C   0  0  0  0  0  0  0  0  0  0  0  0
   38.0840   23.2360   33.8770 O   0  0  0  0  0  0  0  0  0  0  0  0
   38.7990   23.8230   35.8670 C   0  0  0  0  0  0  0  0  0  0  0  0
   39.7470   23.0570   36.5010 C   0  0  0  0  0  0  0  0  0  0  0  0
   40.5410   22.6060   35.8960 H   0  0  0  0  0  0  0  0  0  0  0  0
   39.7640   22.8220   37.8550 C   0  0  0  0  0  0  0  0  0  0  0  0
   40.5580   22.2020   38.2590 H   0  0  0  0  0  0  0  0  0  0  0  0
   38.7920   23.3650   38.6630 C   0  0  0  0  0  3  0  0  0  0  0  0
   37.8400   24.1320   38.0320 C   0  0  0  0  0  3  0  0  0  0  0  0
   37.8880   24.3160   36.7170 N   0  0  0  0  0  0  0  0  0  0  0  0
  1  5  1  0  0  0  0
  2  6  1  6  0  0  0
  2  1  1  0  0  0  0
  2  3  1  0  0  0  0
  2 22  1  0  0  0  0
  3  4  1  0  0  0  0
  3  8  1  0  0  0  0
  4  5  1  0  0  0  0
  4 10  1  0  0  0  0
  5 11  1  0  0  0  0
  7  3  1  0  0  0  0
  9  4  1  0  0  0  0
 12  5  1  0  0  0  0
 13 14  1  0  0  0  0
 13  1  1  0  0  0  0
 14 19  1  0  0  0  0
 15 20  1  0  0  0  0
 15 14  2  0  0  0  0
 16 15  1  0  0  0  0
 17 16  2  0  0  0  0
 17 18  1  0  0  0  0
 18 13  2  0  0  0  0
 21 17  1  0  0  0  0
 22 24  1  0  0  0  0
 23 22  2  0  0  0  0
 24 25  2  0  0  0  0
 24 31  1  0  0  0  0
 25 27  1  0  0  0  0
 26 25  1  0  0  0  0
 27 28  1  0  0  0  0
 27 29  2  0  0  0  0
 30 29  1  0  0  0  0
 31 30  2  0  0  0  0
M  END
>  <minimizedAffinity>
-4.78600025

$$$$
