
 OpenBabel03272509293D

 37 39  0  0  1  0  0  0  0  0999 V2000
   36.4140   30.7600   49.0020 C   0  0  2  0  0  0  0  0  0  0  0  0
   37.4360   31.5880   49.7210 C   0  0  0  0  0  0  0  0  0  0  0  0
   38.3040   30.7720   50.6550 C   0  0  0  0  0  0  0  0  0  0  0  0
   37.4340   30.0400   51.6750 C   0  0  0  0  0  0  0  0  0  0  0  0
   36.1490   29.5020   51.1060 C   0  0  0  0  0  0  0  0  0  0  0  0
   36.2980   29.3850   49.5780 C   0  0  1  0  0  0  0  0  0  0  0  0
   35.3680   31.1880   49.0500 H   0  0  0  0  0  0  0  0  0  0  0  0
   36.8210   32.2320   50.4350 H   0  0  0  0  0  0  0  0  0  0  0  0
   37.9990   32.2920   49.1390 H   0  0  0  0  0  0  0  0  0  0  0  0
   38.9130   31.4900   51.2090 H   0  0  0  0  0  0  0  0  0  0  0  0
   38.9130   30.0110   50.1530 H   0  0  0  0  0  0  0  0  0  0  0  0
   38.0400   29.2110   52.0750 H   0  0  0  0  0  0  0  0  0  0  0  0
   37.2290   30.7300   52.5110 H   0  0  0  0  0  0  0  0  0  0  0  0
   35.3350   30.2240   51.2950 H   0  0  0  0  0  0  0  0  0  0  0  0
   35.9150   28.5030   51.5300 H   0  0  0  0  0  0  0  0  0  0  0  0
   37.2300   28.8740   49.5150 H   0  0  0  0  0  0  0  0  0  0  0  0
   36.7350   30.6420   47.5570 C   0  0  0  0  0  0  0  0  0  0  0  0
   38.0930   30.8150   47.2220 C   0  0  0  0  0  0  0  0  0  0  0  0
   38.4210   30.7050   45.8670 C   0  0  0  0  0  0  0  0  0  0  0  0
   37.4220   30.4400   44.9570 N   0  0  0  0  0  0  0  0  0  0  0  0
   36.1140   30.2800   45.3400 C   0  0  0  0  0  0  0  0  0  0  0  0
   35.7950   30.3850   46.6420 N   0  0  0  0  0  0  0  0  0  0  0  0
   38.9560   31.0140   47.8250 H   0  0  0  0  0  0  0  0  0  0  0  0
   39.4150   30.8140   45.4710 H   0  0  0  0  0  0  0  0  0  0  0  0
   35.3690   30.0720   44.5820 H   0  0  0  0  0  0  0  0  0  0  0  0
   33.9480   28.4990   49.2030 C   0  0  0  0  0  0  0  0  0  0  0  0
   33.2070   29.2170   49.9610 O   0  0  0  0  0  0  0  0  0  0  0  0
   35.3450   28.5480   48.9480 N   0  0  0  0  0  0  0  0  0  0  0  0
   35.6680   27.8630   48.1900 H   0  0  0  0  0  0  0  0  0  0  0  0
   33.1400   27.4640   48.5090 C   0  0  0  0  0  0  0  0  0  0  0  0
   31.7680   27.3960   48.5540 C   0  0  0  0  0  0  0  0  0  0  0  0
   31.2360   28.1480   49.1370 H   0  0  0  0  0  0  0  0  0  0  0  0
   31.0200   26.4440   47.9170 C   0  0  0  0  0  0  0  0  0  0  0  0
   29.9390   26.4450   47.9920 H   0  0  0  0  0  0  0  0  0  0  0  0
   31.6540   25.4860   47.1770 C   0  0  0  0  0  3  0  0  0  0  0  0
   33.0310   25.5330   47.1160 C   0  0  0  0  0  3  0  0  0  0  0  0
   33.7080   26.4960   47.7670 N   0  0  0  0  0  0  0  0  0  0  0  0
  1  7  1  1  0  0  0
  1  6  1  0  0  0  0
  1  2  1  0  0  0  0
  2  8  1  0  0  0  0
  2  3  1  0  0  0  0
  3 10  1  0  0  0  0
  3  4  1  0  0  0  0
  4 12  1  0  0  0  0
  4 13  1  0  0  0  0
  5 14  1  0  0  0  0
  5 15  1  0  0  0  0
  5  4  1  0  0  0  0
  6 16  1  6  0  0  0
  6  5  1  0  0  0  0
  9  2  1  0  0  0  0
 11  3  1  0  0  0  0
 17  1  1  0  0  0  0
 18 17  1  0  0  0  0
 18 23  1  0  0  0  0
 19 18  2  0  0  0  0
 20 21  2  0  0  0  0
 20 19  1  0  0  0  0
 21 22  1  0  0  0  0
 22 17  2  0  0  0  0
 24 19  1  0  0  0  0
 25 21  1  0  0  0  0
 26 27  2  0  0  0  0
 28 26  1  0  0  0  0
 28  6  1  0  0  0  0
 29 28  1  0  0  0  0
 30 31  1  0  0  0  0
 30 26  1  0  0  0  0
 31 32  1  0  0  0  0
 33 34  1  0  0  0  0
 33 31  2  0  0  0  0
 35 33  1  0  0  0  0
 36 35  2  0  0  0  0
 36 37  1  0  0  0  0
 37 30  2  0  0  0  0
M  END
>  <minimizedAffinity>
-5.99921179

>  <minimizedRMSD>
0.512711108

$$$$
