
 OpenBabel03272505083D

 28 30  0  0  0  0  0  0  0  0999 V2000
   36.3460   30.9030   45.8530 Cl  0  0  0  0  0  0  0  0  0  0  0  0
   36.7210   30.7780   47.5630 C   0  0  0  0  0  0  0  0  0  0  0  0
   37.9960   31.1000   47.9260 C   0  0  0  0  0  0  0  0  0  0  0  0
   38.3190   31.0090   49.2870 C   0  0  0  0  0  0  0  0  0  0  0  0
   37.3770   30.6110   50.1880 C   0  0  0  0  0  0  0  0  0  0  0  0
   36.1060   30.3030   49.7380 C   0  0  0  0  0  0  0  0  0  0  0  0
   35.7180   30.3700   48.4150 C   0  0  0  0  0  0  0  0  0  0  0  0
   39.3310   31.2610   49.5930 H   0  0  0  0  0  0  0  0  0  0  0  0
   37.6430   30.5450   51.2360 H   0  0  0  0  0  0  0  0  0  0  0  0
   35.3630   29.9850   50.4750 H   0  0  0  0  0  0  0  0  0  0  0  0
   40.1950   33.2660   45.9740 C   0  0  0  0  0  0  0  0  0  0  0  0
   40.8520   32.3840   45.0980 C   0  0  0  0  0  0  0  0  0  0  0  0
   40.5230   31.0400   45.1940 C   0  0  0  0  0  0  0  0  0  0  0  0
   39.5990   30.6570   46.1150 N   0  0  0  0  0  0  0  0  0  0  0  0
   38.9900   31.5250   46.9380 C   0  0  0  0  0  0  0  0  0  0  0  0
   39.2940   32.8330   46.8610 N   0  0  0  0  0  0  0  0  0  0  0  0
   40.4770   34.3040   45.8710 H   0  0  0  0  0  0  0  0  0  0  0  0
   41.5790   32.6150   44.3600 H   0  0  0  0  0  0  0  0  0  0  0  0
   40.9100   30.2080   44.6170 H   0  0  0  0  0  0  0  0  0  0  0  0
   34.0980   29.9800   47.8260 S   0  0  0  0  0  0  0  0  0  0  0  0
   34.0010   28.3340   47.1510 C   0  0  0  0  0  0  0  0  0  0  0  0
   33.9140   27.2350   47.9690 C   0  0  0  0  0  0  0  0  0  0  0  0
   33.9020   27.3460   49.0450 H   0  0  0  0  0  0  0  0  0  0  0  0
   33.8380   25.9400   47.4560 C   0  0  0  0  0  0  0  0  0  0  0  0
   33.7700   25.0800   48.0830 H   0  0  0  0  0  0  0  0  0  0  0  0
   33.8580   25.8700   46.0750 C   0  0  0  0  0  3  0  0  0  0  0  0
   33.9460   26.9850   45.2640 C   0  0  0  0  0  3  0  0  0  0  0  0
   34.0180   28.2190   45.8110 N   0  0  0  0  0  0  0  0  0  0  0  0
  1  2  1  0  0  0  0
  2  3  2  0  0  0  0
  2  7  1  0  0  0  0
  3  4  1  0  0  0  0
  4  8  1  0  0  0  0
  4  5  2  0  0  0  0
  5  9  1  0  0  0  0
  6  5  1  0  0  0  0
  6 10  1  0  0  0  0
  7  6  2  0  0  0  0
 11 16  1  0  0  0  0
 12 13  1  0  0  0  0
 12 11  2  0  0  0  0
 13 14  2  0  0  0  0
 14 15  1  0  0  0  0
 15  3  1  0  0  0  0
 16 15  2  0  0  0  0
 17 11  1  0  0  0  0
 18 12  1  0  0  0  0
 19 13  1  0  0  0  0
 20  7  1  0  0  0  0
 21 20  1  0  0  0  0
 21 22  1  0  0  0  0
 22 23  1  0  0  0  0
 24 22  2  0  0  0  0
 24 25  1  0  0  0  0
 26 24  1  0  0  0  0
 27 28  1  0  0  0  0
 27 26  2  0  0  0  0
 28 21  2  0  0  0  0
M  END
>  <minimizedAffinity>
-5.66075706

>  <minimizedRMSD>
1.0220232

$$$$
