
 OpenBabel03272505083D

 28 30  0  0  0  0  0  0  0  0999 V2000
   36.2790   30.8850   45.3910 Cl  0  0  0  0  0  0  0  0  0  0  0  0
   36.5000   30.4770   47.0840 C   0  0  0  0  0  0  0  0  0  0  0  0
   37.7360   30.7230   47.6070 C   0  0  0  0  0  0  0  0  0  0  0  0
   37.9370   30.4070   48.9580 C   0  0  0  0  0  0  0  0  0  0  0  0
   36.9210   29.8740   49.6940 C   0  0  0  0  0  0  0  0  0  0  0  0
   35.6980   29.6550   49.0880 C   0  0  0  0  0  0  0  0  0  0  0  0
   35.4290   29.9430   47.7650 C   0  0  0  0  0  0  0  0  0  0  0  0
   38.9160   30.5960   49.3900 H   0  0  0  0  0  0  0  0  0  0  0  0
   37.0930   29.6340   50.7360 H   0  0  0  0  0  0  0  0  0  0  0  0
   34.8940   29.2270   49.6930 H   0  0  0  0  0  0  0  0  0  0  0  0
   40.0480   33.1760   46.2010 C   0  0  0  0  0  0  0  0  0  0  0  0
   40.8230   32.4330   45.2930 C   0  0  0  0  0  0  0  0  0  0  0  0
   40.5340   31.0810   45.1780 C   0  0  0  0  0  0  0  0  0  0  0  0
   39.5330   30.5590   45.9370 N   0  0  0  0  0  0  0  0  0  0  0  0
   38.8110   31.2970   46.7950 C   0  0  0  0  0  0  0  0  0  0  0  0
   39.0760   32.6090   46.9210 N   0  0  0  0  0  0  0  0  0  0  0  0
   40.3010   34.2250   46.2630 H   0  0  0  0  0  0  0  0  0  0  0  0
   41.6140   32.7750   44.6740 H   0  0  0  0  0  0  0  0  0  0  0  0
   41.0080   30.3410   44.5440 H   0  0  0  0  0  0  0  0  0  0  0  0
   33.8700   29.6680   46.9770 S   0  0  0  0  0  0  0  0  0  0  0  0
   33.2000   28.0580   47.3430 C   0  0  0  0  0  0  0  0  0  0  0  0
   31.9780   27.9200   47.9530 C   0  0  0  0  0  0  0  0  0  0  0  0
   31.3930   28.7890   48.2260 H   0  0  0  0  0  0  0  0  0  0  0  0
   31.4390   26.6680   48.2460 C   0  0  0  0  0  0  0  0  0  0  0  0
   30.4920   26.5490   48.7180 H   0  0  0  0  0  0  0  0  0  0  0  0
   32.2370   25.6000   47.8700 C   0  0  0  0  0  3  0  0  0  0  0  0
   33.4640   25.7560   47.2570 C   0  0  0  0  0  3  0  0  0  0  0  0
   33.9430   26.9920   46.9950 N   0  0  0  0  0  0  0  0  0  0  0  0
  1  2  1  0  0  0  0
  2  3  2  0  0  0  0
  2  7  1  0  0  0  0
  3  4  1  0  0  0  0
  4  8  1  0  0  0  0
  4  5  2  0  0  0  0
  5  9  1  0  0  0  0
  6 10  1  0  0  0  0
  6  5  1  0  0  0  0
  7  6  2  0  0  0  0
 11 17  1  0  0  0  0
 11 16  1  0  0  0  0
 12 11  2  0  0  0  0
 13 12  1  0  0  0  0
 13 14  2  0  0  0  0
 14 15  1  0  0  0  0
 15 16  2  0  0  0  0
 15  3  1  0  0  0  0
 18 12  1  0  0  0  0
 19 13  1  0  0  0  0
 20 21  1  0  0  0  0
 20  7  1  0  0  0  0
 21 22  1  0  0  0  0
 22 23  1  0  0  0  0
 22 24  2  0  0  0  0
 24 25  1  0  0  0  0
 26 24  1  0  0  0  0
 27 26  2  0  0  0  0
 28 27  1  0  0  0  0
 28 21  2  0  0  0  0
M  END
>  <minimizedAffinity>
-5.50515413

>  <minimizedRMSD>
1.42258012

$$$$
