
 OpenBabel03272509423D

 37 39  0  0  1  0  0  0  0  0999 V2000
   37.0300   30.9240   49.0340 C   0  0  0  0  0  0  0  0  0  0  0  0
   36.7390   31.8060   50.0780 C   0  0  0  0  0  0  0  0  0  0  0  0
   37.3280   33.0580   50.1630 C   0  0  0  0  0  0  0  0  0  0  0  0
   38.2400   33.4560   49.1750 C   0  0  0  0  0  0  0  0  0  0  0  0
   38.5110   32.5840   48.1670 C   0  0  0  0  0  0  0  0  0  0  0  0
   37.9050   31.3360   48.1100 C   0  0  0  0  0  0  0  0  0  0  0  0
   36.0180   31.4460   50.8230 H   0  0  0  0  0  0  0  0  0  0  0  0
   37.0050   33.6260   51.0240 H   0  0  0  0  0  0  0  0  0  0  0  0
   38.6420   34.4350   49.3210 H   0  0  0  0  0  0  0  0  0  0  0  0
   39.2370   33.0290   47.4800 H   0  0  0  0  0  0  0  0  0  0  0  0
   36.4420   29.6040   48.9680 C   0  0  2  0  0  0  0  0  0  0  0  0
   36.9760   29.0790   48.0870 H   0  0  0  0  0  0  0  0  0  0  0  0
   33.5650   30.1350   46.8120 C   0  0  0  0  0  0  0  0  0  0  0  0
   32.9030   28.9210   46.8320 C   0  0  0  0  0  0  0  0  0  0  0  0
   33.4060   27.9180   47.6410 C   0  0  0  0  0  0  0  0  0  0  0  0
   34.5360   28.1590   48.3890 N   0  0  0  0  0  0  0  0  0  0  0  0
   35.1240   29.3360   48.3250 C   0  0  0  0  0  0  0  0  0  0  0  0
   34.6450   30.3310   47.5420 N   0  0  0  0  0  0  0  0  0  0  0  0
   33.1690   30.9300   46.1730 H   0  0  0  0  0  0  0  0  0  0  0  0
   32.0240   28.7300   46.2500 H   0  0  0  0  0  0  0  0  0  0  0  0
   32.9590   26.9390   47.7260 H   0  0  0  0  0  0  0  0  0  0  0  0
   36.8740   28.8240   49.8940 O   0  0  0  0  0  0  0  0  0  0  0  0
   36.3320   28.1000   50.2850 H   0  0  0  0  0  0  0  0  0  0  0  0
   38.3070   30.5020   47.0020 C   0  0  0  0  0  3  0  0  0  0  0  0
   39.0370   30.9400   45.9700 C   0  0  0  0  0  3  0  0  0  0  0  0
   39.5440   30.1690   44.8120 C   0  0  0  0  0  0  0  0  0  0  0  0
   40.6510   30.2420   44.8250 H   0  0  0  0  0  0  0  0  0  0  0  0
   39.1730   29.1320   44.8900 H   0  0  0  0  0  0  0  0  0  0  0  0
   38.9730   30.9300   43.2850 S   0  0  0  0  0  0  0  0  0  0  0  0
   37.1780   31.0020   43.2290 C   0  0  0  0  0  0  0  0  0  0  0  0
   36.6170   29.7580   43.5390 C   0  0  0  0  0  0  0  0  0  0  0  0
   37.1400   28.8530   43.7790 H   0  0  0  0  0  0  0  0  0  0  0  0
   35.2280   29.6530   43.5410 C   0  0  0  0  0  0  0  0  0  0  0  0
   34.7340   28.7170   43.7740 H   0  0  0  0  0  0  0  0  0  0  0  0
   34.4750   30.7830   43.2390 C   0  0  0  0  0  3  0  0  0  0  0  0
   35.1020   31.9710   42.9450 C   0  0  0  0  0  3  0  0  0  0  0  0
   36.4350   32.0760   42.9410 N   0  0  0  0  0  0  0  0  0  0  0  0
  1  2  1  0  0  0  0
  2  3  2  0  0  0  0
  2  7  1  0  0  0  0
  3  8  1  0  0  0  0
  4  9  1  0  0  0  0
  4  3  1  0  0  0  0
  5  4  2  0  0  0  0
  6  5  1  0  0  0  0
  6  1  2  0  0  0  0
 10  5  1  0  0  0  0
 11 12  1  6  0  0  0
 11  1  1  0  0  0  0
 11 22  1  0  0  0  0
 13 14  2  0  0  0  0
 13 18  1  0  0  0  0
 14 15  1  0  0  0  0
 15 21  1  0  0  0  0
 15 16  2  0  0  0  0
 17 16  1  0  0  0  0
 17 11  1  0  0  0  0
 18 17  2  0  0  0  0
 19 13  1  0  0  0  0
 20 14  1  0  0  0  0
 22 23  1  0  0  0  0
 24  6  1  0  0  0  0
 25 24  2  0  0  0  0
 26 27  1  0  0  0  0
 26 28  1  0  0  0  0
 26 25  1  0  0  0  0
 29 26  1  0  0  0  0
 30 29  1  0  0  0  0
 30 31  1  0  0  0  0
 31 33  2  0  0  0  0
 31 32  1  0  0  0  0
 33 34  1  0  0  0  0
 35 33  1  0  0  0  0
 36 35  2  0  0  0  0
 37 36  1  0  0  0  0
 37 30  2  0  0  0  0
M  END
>  <minimizedAffinity>
-5.46920872

>  <minimizedRMSD>
0.717498839

$$$$
