
 OpenBabel03272509423D

 37 39  0  0  1  0  0  0  0  0999 V2000
   37.0210   30.9120   49.0510 C   0  0  0  0  0  0  0  0  0  0  0  0
   36.7280   31.8120   50.0790 C   0  0  0  0  0  0  0  0  0  0  0  0
   37.3200   33.0630   50.1470 C   0  0  0  0  0  0  0  0  0  0  0  0
   38.2400   33.4420   49.1580 C   0  0  0  0  0  0  0  0  0  0  0  0
   38.5130   32.5530   48.1660 C   0  0  0  0  0  0  0  0  0  0  0  0
   37.9030   31.3060   48.1250 C   0  0  0  0  0  0  0  0  0  0  0  0
   36.0010   31.4650   50.8260 H   0  0  0  0  0  0  0  0  0  0  0  0
   36.9950   33.6450   50.9970 H   0  0  0  0  0  0  0  0  0  0  0  0
   38.6440   34.4210   49.2910 H   0  0  0  0  0  0  0  0  0  0  0  0
   39.2440   32.9850   47.4760 H   0  0  0  0  0  0  0  0  0  0  0  0
   36.4290   29.5930   49.0020 C   0  0  2  0  0  0  0  0  0  0  0  0
   36.9550   29.0580   48.1220 H   0  0  0  0  0  0  0  0  0  0  0  0
   33.5790   30.0630   46.7960 C   0  0  0  0  0  0  0  0  0  0  0  0
   32.8770   28.8750   46.8990 C   0  0  0  0  0  0  0  0  0  0  0  0
   33.3440   27.9170   47.7800 C   0  0  0  0  0  0  0  0  0  0  0  0
   34.4790   28.1740   48.5150 N   0  0  0  0  0  0  0  0  0  0  0  0
   35.1050   29.3230   48.3720 C   0  0  0  0  0  0  0  0  0  0  0  0
   34.6620   30.2740   47.5170 N   0  0  0  0  0  0  0  0  0  0  0  0
   33.2110   30.8230   46.1010 H   0  0  0  0  0  0  0  0  0  0  0  0
   31.9940   28.6720   46.3260 H   0  0  0  0  0  0  0  0  0  0  0  0
   32.8650   26.9610   47.9310 H   0  0  0  0  0  0  0  0  0  0  0  0
   36.8660   28.8210   49.9320 O   0  0  0  0  0  0  0  0  0  0  0  0
   36.3250   28.1030   50.3340 H   0  0  0  0  0  0  0  0  0  0  0  0
   38.3080   30.4540   47.0320 C   0  0  0  0  0  3  0  0  0  0  0  0
   38.9180   30.9010   45.9280 C   0  0  0  0  0  3  0  0  0  0  0  0
   39.4170   30.1190   44.7750 C   0  0  0  0  0  0  0  0  0  0  0  0
   40.1950   29.4250   45.1580 H   0  0  0  0  0  0  0  0  0  0  0  0
   38.5630   29.6010   44.3040 H   0  0  0  0  0  0  0  0  0  0  0  0
   40.2120   31.2210   43.5980 S   0  0  0  0  0  0  0  0  0  0  0  0
   39.0000   32.0190   42.5380 C   0  0  0  0  0  0  0  0  0  0  0  0
   39.4080   31.9880   41.1990 C   0  0  0  0  0  0  0  0  0  0  0  0
   40.3110   31.5620   40.8060 H   0  0  0  0  0  0  0  0  0  0  0  0
   38.5680   32.5640   40.2480 C   0  0  0  0  0  0  0  0  0  0  0  0
   38.8290   32.5710   39.1970 H   0  0  0  0  0  0  0  0  0  0  0  0
   37.3760   33.1380   40.6760 C   0  0  0  0  0  3  0  0  0  0  0  0
   37.0450   33.1290   42.0100 C   0  0  0  0  0  3  0  0  0  0  0  0
   37.8490   32.5760   42.9270 N   0  0  0  0  0  0  0  0  0  0  0  0
  1  2  1  0  0  0  0
  2  3  2  0  0  0  0
  2  7  1  0  0  0  0
  3  8  1  0  0  0  0
  4  9  1  0  0  0  0
  4  3  1  0  0  0  0
  5  4  2  0  0  0  0
  6  5  1  0  0  0  0
  6  1  2  0  0  0  0
 10  5  1  0  0  0  0
 11 12  1  6  0  0  0
 11  1  1  0  0  0  0
 11 22  1  0  0  0  0
 13 14  2  0  0  0  0
 13 18  1  0  0  0  0
 14 15  1  0  0  0  0
 15 21  1  0  0  0  0
 15 16  2  0  0  0  0
 17 16  1  0  0  0  0
 17 11  1  0  0  0  0
 18 17  2  0  0  0  0
 19 13  1  0  0  0  0
 20 14  1  0  0  0  0
 22 23  1  0  0  0  0
 24  6  1  0  0  0  0
 25 24  2  0  0  0  0
 26 27  1  0  0  0  0
 26 25  1  0  0  0  0
 28 26  1  0  0  0  0
 29 26  1  0  0  0  0
 30 37  1  0  0  0  0
 30 29  1  0  0  0  0
 31 30  2  0  0  0  0
 32 31  1  0  0  0  0
 33 35  2  0  0  0  0
 33 31  1  0  0  0  0
 34 33  1  0  0  0  0
 35 36  1  0  0  0  0
 36 37  2  0  0  0  0
M  END
>  <minimizedAffinity>
-5.71325493

>  <minimizedRMSD>
1.22036648

$$$$
