
 OpenBabel03272509423D

 37 39  0  0  1  0  0  0  0  0999 V2000
   37.0700   30.9330   49.0480 C   0  0  0  0  0  0  0  0  0  0  0  0
   36.7890   31.8420   50.0710 C   0  0  0  0  0  0  0  0  0  0  0  0
   37.3710   33.0980   50.1140 C   0  0  0  0  0  0  0  0  0  0  0  0
   38.2680   33.4740   49.1040 C   0  0  0  0  0  0  0  0  0  0  0  0
   38.5300   32.5770   48.1160 C   0  0  0  0  0  0  0  0  0  0  0  0
   37.9310   31.3240   48.1010 C   0  0  0  0  0  0  0  0  0  0  0  0
   36.0800   31.4970   50.8360 H   0  0  0  0  0  0  0  0  0  0  0  0
   37.0570   33.6880   50.9640 H   0  0  0  0  0  0  0  0  0  0  0  0
   38.6660   34.4590   49.2180 H   0  0  0  0  0  0  0  0  0  0  0  0
   39.2440   33.0070   47.4070 H   0  0  0  0  0  0  0  0  0  0  0  0
   36.4890   29.6090   49.0250 C   0  0  2  0  0  0  0  0  0  0  0  0
   36.9810   29.0780   48.1230 H   0  0  0  0  0  0  0  0  0  0  0  0
   33.6030   29.9600   46.8450 C   0  0  0  0  0  0  0  0  0  0  0  0
   32.8630   28.8150   47.0820 C   0  0  0  0  0  0  0  0  0  0  0  0
   33.3190   27.9320   48.0440 C   0  0  0  0  0  0  0  0  0  0  0  0
   34.4800   28.2200   48.7260 N   0  0  0  0  0  0  0  0  0  0  0  0
   35.1420   29.3260   48.4540 C   0  0  0  0  0  0  0  0  0  0  0  0
   34.7100   30.2030   47.5180 N   0  0  0  0  0  0  0  0  0  0  0  0
   33.2440   30.6600   46.0850 H   0  0  0  0  0  0  0  0  0  0  0  0
   31.9600   28.5880   46.5520 H   0  0  0  0  0  0  0  0  0  0  0  0
   32.8120   27.0150   48.3010 H   0  0  0  0  0  0  0  0  0  0  0  0
   36.9740   28.8410   49.9360 O   0  0  0  0  0  0  0  0  0  0  0  0
   36.4580   28.1180   50.3610 H   0  0  0  0  0  0  0  0  0  0  0  0
   38.3230   30.4640   47.0100 C   0  0  0  0  0  3  0  0  0  0  0  0
   38.9970   30.8860   45.9350 C   0  0  0  0  0  3  0  0  0  0  0  0
   39.4890   30.0900   44.7880 C   0  0  0  0  0  0  0  0  0  0  0  0
   40.5750   29.9240   44.9430 H   0  0  0  0  0  0  0  0  0  0  0  0
   38.9070   29.1540   44.7340 H   0  0  0  0  0  0  0  0  0  0  0  0
   39.3010   31.0380   43.2710 S   0  0  0  0  0  0  0  0  0  0  0  0
   37.5670   31.2250   42.8360 C   0  0  0  0  0  0  0  0  0  0  0  0
   37.1380   32.5400   43.0440 C   0  0  0  0  0  0  0  0  0  0  0  0
   37.7190   33.3630   43.4150 H   0  0  0  0  0  0  0  0  0  0  0  0
   35.8110   32.8470   42.7470 C   0  0  0  0  0  0  0  0  0  0  0  0
   35.4190   33.8480   42.8870 H   0  0  0  0  0  0  0  0  0  0  0  0
   34.9870   31.8380   42.2610 C   0  0  0  0  0  3  0  0  0  0  0  0
   35.4850   30.5680   42.0830 C   0  0  0  0  0  3  0  0  0  0  0  0
   36.7580   30.2690   42.3680 N   0  0  0  0  0  0  0  0  0  0  0  0
  1  2  1  0  0  0  0
  2  3  2  0  0  0  0
  2  7  1  0  0  0  0
  3  8  1  0  0  0  0
  4  9  1  0  0  0  0
  4  3  1  0  0  0  0
  5  4  2  0  0  0  0
  6  5  1  0  0  0  0
  6  1  2  0  0  0  0
 10  5  1  0  0  0  0
 11 12  1  6  0  0  0
 11  1  1  0  0  0  0
 11 22  1  0  0  0  0
 13 14  2  0  0  0  0
 13 18  1  0  0  0  0
 14 15  1  0  0  0  0
 15 21  1  0  0  0  0
 15 16  2  0  0  0  0
 17 16  1  0  0  0  0
 17 11  1  0  0  0  0
 18 17  2  0  0  0  0
 19 13  1  0  0  0  0
 20 14  1  0  0  0  0
 22 23  1  0  0  0  0
 24  6  1  0  0  0  0
 25 24  2  0  0  0  0
 26 27  1  0  0  0  0
 26 25  1  0  0  0  0
 28 26  1  0  0  0  0
 29 26  1  0  0  0  0
 30 31  1  0  0  0  0
 30 29  1  0  0  0  0
 31 32  1  0  0  0  0
 33 34  1  0  0  0  0
 33 31  2  0  0  0  0
 35 33  1  0  0  0  0
 36 35  2  0  0  0  0
 36 37  1  0  0  0  0
 37 30  2  0  0  0  0
M  END
>  <minimizedAffinity>
-5.52588081

>  <minimizedRMSD>
0.216522142

$$$$
