
 OpenBabel03272505493D

 39 43  0  0  0  0  0  0  0  0999 V2000
   35.5460   29.9940   33.8110 C   0  0  0  0  0  0  0  0  0  0  0  0
   35.3800   30.3920   32.5270 C   0  0  0  0  0  0  0  0  0  0  0  0
   35.7650   29.5660   31.4770 C   0  0  0  0  0  0  0  0  0  0  0  0
   36.3220   28.3320   31.7910 C   0  0  0  0  0  0  0  0  0  0  0  0
   36.4910   27.9290   33.1060 C   0  0  0  0  0  0  0  0  0  0  0  0
   36.0890   28.7920   34.0700 N   0  0  0  0  0  0  0  0  0  0  0  0
   34.9460   31.3530   32.2810 H   0  0  0  0  0  0  0  0  0  0  0  0
   35.6370   29.8720   30.4510 H   0  0  0  0  0  0  0  0  0  0  0  0
   36.6380   27.6540   31.0030 H   0  0  0  0  0  0  0  0  0  0  0  0
   35.1300   30.8840   34.9650 C   0  0  0  0  0  0  0  0  0  0  0  0
   36.1880   31.4740   35.8150 C   0  0  0  0  0  0  0  0  0  0  0  0
   35.4370   32.3510   34.8380 C   0  0  0  0  0  0  0  0  0  0  0  0
   37.2300   31.2750   35.5360 H   0  0  0  0  0  0  0  0  0  0  0  0
   35.9760   31.7030   36.8700 H   0  0  0  0  0  0  0  0  0  0  0  0
   35.9200   32.6410   33.8760 H   0  0  0  0  0  0  0  0  0  0  0  0
   34.6780   33.0640   35.2060 H   0  0  0  0  0  0  0  0  0  0  0  0
   31.8740   29.1880   35.3920 C   0  0  0  0  0  0  0  0  0  0  0  0
   31.3220   29.8630   36.4850 C   0  0  0  0  0  0  0  0  0  0  0  0
   32.0730   30.8980   37.0680 C   0  0  0  0  0  0  0  0  0  0  0  0
   33.2920   31.1920   36.5480 N   0  0  0  0  0  0  0  0  0  0  0  0
   33.8020   30.5180   35.4850 C   0  0  0  0  0  0  0  0  0  0  0  0
   33.1010   29.5200   34.9060 N   0  0  0  0  0  0  0  0  0  0  0  0
   31.3830   28.3780   34.8700 H   0  0  0  0  0  0  0  0  0  0  0  0
   30.3390   29.5550   36.8290 H   0  0  0  0  0  0  0  0  0  0  0  0
   31.6460   31.4160   37.9100 H   0  0  0  0  0  0  0  0  0  0  0  0
   37.0730   26.6380   33.4940 C   0  0  0  0  0  0  0  0  0  0  0  0
   37.3670   25.5370   32.7510 N   0  0  0  0  0  0  0  0  0  0  0  0
   37.8930   24.5980   33.5750 C   0  0  0  0  0  0  0  0  0  0  0  0
   37.9280   25.1190   34.8400 N   0  0  0  0  0  0  0  0  0  0  0  0
   37.4290   26.3570   34.7840 N   0  0  0  0  0  0  0  0  0  0  0  0
   38.2050   23.6290   33.2040 H   0  0  0  0  0  0  0  0  0  0  0  0
   38.4230   24.4100   35.9710 C   0  0  0  0  0  0  0  0  0  0  0  0
   37.8320   24.4540   37.2380 C   0  0  0  0  0  0  0  0  0  0  0  0
   36.9570   25.0580   37.3580 H   0  0  0  0  0  0  0  0  0  0  0  0
   38.3840   23.7310   38.2780 C   0  0  0  0  0  0  0  0  0  0  0  0
   37.9460   23.7470   39.2690 H   0  0  0  0  0  0  0  0  0  0  0  0
   39.5270   22.9560   38.0770 C   0  0  0  0  0  3  0  0  0  0  0  0
   40.0660   22.9550   36.7910 C   0  0  0  0  0  3  0  0  0  0  0  0
   39.5240   23.6650   35.7680 N   0  0  0  0  0  0  0  0  0  0  0  0
  1  6  1  0  0  0  0
  1 10  1  0  0  0  0
  2  1  2  0  0  0  0
  3  4  2  0  0  0  0
  3  2  1  0  0  0  0
  4  5  1  0  0  0  0
  5 26  1  0  0  0  0
  5  6  2  0  0  0  0
  7  2  1  0  0  0  0
  8  3  1  0  0  0  0
  9  4  1  0  0  0  0
 10 21  1  0  0  0  0
 10 11  1  0  0  0  0
 11 14  1  0  0  0  0
 12 10  1  0  0  0  0
 12 16  1  0  0  0  0
 12 11  1  0  0  0  0
 13 11  1  0  0  0  0
 15 12  1  0  0  0  0
 17 18  1  0  0  0  0
 18 24  1  0  0  0  0
 18 19  2  0  0  0  0
 19 25  1  0  0  0  0
 20 19  1  0  0  0  0
 21 20  2  0  0  0  0
 22 17  2  0  0  0  0
 22 21  1  0  0  0  0
 23 17  1  0  0  0  0
 26 30  2  0  0  0  0
 27 26  1  0  0  0  0
 27 28  2  0  0  0  0
 28 29  1  0  0  0  0
 29 32  1  0  0  0  0
 30 29  1  0  0  0  0
 31 28  1  0  0  0  0
 32 33  1  0  0  0  0
 33 34  1  0  0  0  0
 33 35  2  0  0  0  0
 35 36  1  0  0  0  0
 37 35  1  0  0  0  0
 38 37  2  0  0  0  0
 39 32  2  0  0  0  0
 39 38  1  0  0  0  0
M  END
>  <minimizedAffinity>
-6.55342102

$$$$

 OpenBabel03272505493D

 39 43  0  0  0  0  0  0  0  0999 V2000
   35.3010   29.4270   32.5000 C   0  0  0  0  0  0  0  0  0  0  0  0
   35.9110   30.0200   31.4470 C   0  0  0  0  0  0  0  0  0  0  0  0
   37.0300   29.4380   30.8610 C   0  0  0  0  0  0  0  0  0  0  0  0
   37.4930   28.2390   31.3900 C   0  0  0  0  0  0  0  0  0  0  0  0
   36.8650   27.6360   32.4680 C   0  0  0  0  0  0  0  0  0  0  0  0
   35.7810   28.2670   32.9820 N   0  0  0  0  0  0  0  0  0  0  0  0
   35.5520   30.9540   31.0320 H   0  0  0  0  0  0  0  0  0  0  0  0
   37.5240   29.9010   30.0210 H   0  0  0  0  0  0  0  0  0  0  0  0
   38.3640   27.7490   30.9650 H   0  0  0  0  0  0  0  0  0  0  0  0
   34.0810   30.0500   33.1480 C   0  0  0  0  0  0  0  0  0  0  0  0
   32.9740   30.5020   32.2750 C   0  0  0  0  0  0  0  0  0  0  0  0
   32.8060   29.2510   33.1080 C   0  0  0  0  0  0  0  0  0  0  0  0
   33.0730   30.3190   31.1970 H   0  0  0  0  0  0  0  0  0  0  0  0
   32.3330   31.3370   32.5950 H   0  0  0  0  0  0  0  0  0  0  0  0
   32.9020   28.2510   32.6240 H   0  0  0  0  0  0  0  0  0  0  0  0
   32.1660   29.2680   34.0080 H   0  0  0  0  0  0  0  0  0  0  0  0
   35.9830   31.7450   35.8240 C   0  0  0  0  0  0  0  0  0  0  0  0
   35.0070   31.9560   36.8030 C   0  0  0  0  0  0  0  0  0  0  0  0
   33.7000   31.5130   36.5360 C   0  0  0  0  0  0  0  0  0  0  0  0
   33.4460   30.9060   35.3490 N   0  0  0  0  0  0  0  0  0  0  0  0
   34.4170   30.7160   34.4170 C   0  0  0  0  0  0  0  0  0  0  0  0
   35.6800   31.1310   34.6480 N   0  0  0  0  0  0  0  0  0  0  0  0
   37.0170   32.0450   35.9270 H   0  0  0  0  0  0  0  0  0  0  0  0
   35.3060   32.4510   37.7220 H   0  0  0  0  0  0  0  0  0  0  0  0
   32.9500   31.6770   37.2910 H   0  0  0  0  0  0  0  0  0  0  0  0
   37.3110   26.3720   33.0680 C   0  0  0  0  0  0  0  0  0  0  0  0
   37.5600   25.1600   32.5020 N   0  0  0  0  0  0  0  0  0  0  0  0
   37.9510   24.3080   33.4820 C   0  0  0  0  0  0  0  0  0  0  0  0
   37.9460   24.9950   34.6650 N   0  0  0  0  0  0  0  0  0  0  0  0
   37.5560   26.2470   34.4070 N   0  0  0  0  0  0  0  0  0  0  0  0
   38.2050   23.2770   33.2670 H   0  0  0  0  0  0  0  0  0  0  0  0
   38.3040   24.4150   35.9150 C   0  0  0  0  0  0  0  0  0  0  0  0
   37.6410   24.6830   37.1170 C   0  0  0  0  0  0  0  0  0  0  0  0
   36.8180   25.3660   37.0890 H   0  0  0  0  0  0  0  0  0  0  0  0
   38.0610   24.0720   38.2830 C   0  0  0  0  0  0  0  0  0  0  0  0
   37.5650   24.2620   39.2280 H   0  0  0  0  0  0  0  0  0  0  0  0
   39.1400   23.1880   38.2730 C   0  0  0  0  0  3  0  0  0  0  0  0
   39.7560   22.9630   37.0420 C   0  0  0  0  0  3  0  0  0  0  0  0
   39.3450   23.5640   35.8960 N   0  0  0  0  0  0  0  0  0  0  0  0
  1  6  1  0  0  0  0
  1 10  1  0  0  0  0
  2  1  2  0  0  0  0
  3  4  2  0  0  0  0
  3  2  1  0  0  0  0
  4  5  1  0  0  0  0
  5  6  2  0  0  0  0
  5 26  1  0  0  0  0
  7  2  1  0  0  0  0
  8  3  1  0  0  0  0
  9  4  1  0  0  0  0
 10 21  1  0  0  0  0
 11 14  1  0  0  0  0
 11 12  1  0  0  0  0
 11 10  1  0  0  0  0
 12 10  1  0  0  0  0
 12 16  1  0  0  0  0
 13 11  1  0  0  0  0
 15 12  1  0  0  0  0
 17 23  1  0  0  0  0
 17 18  1  0  0  0  0
 18 24  1  0  0  0  0
 19 18  2  0  0  0  0
 19 25  1  0  0  0  0
 20 19  1  0  0  0  0
 21 22  1  0  0  0  0
 21 20  2  0  0  0  0
 22 17  2  0  0  0  0
 26 30  2  0  0  0  0
 27 26  1  0  0  0  0
 27 28  2  0  0  0  0
 28 29  1  0  0  0  0
 29 32  1  0  0  0  0
 30 29  1  0  0  0  0
 31 28  1  0  0  0  0
 32 33  1  0  0  0  0
 33 35  2  0  0  0  0
 34 33  1  0  0  0  0
 35 36  1  0  0  0  0
 37 35  1  0  0  0  0
 38 37  2  0  0  0  0
 39 32  2  0  0  0  0
 39 38  1  0  0  0  0
M  END
>  <minimizedAffinity>
-6.33191919

$$$$

 OpenBabel03272505493D

 39 43  0  0  0  0  0  0  0  0999 V2000
   38.6440   25.2770   33.6760 C   0  0  0  0  0  0  0  0  0  0  0  0
   38.2740   24.3020   32.8130 C   0  0  0  0  0  0  0  0  0  0  0  0
   37.1800   24.4800   31.9730 C   0  0  0  0  0  0  0  0  0  0  0  0
   36.4870   25.6830   32.0530 C   0  0  0  0  0  0  0  0  0  0  0  0
   36.8690   26.6780   32.9380 C   0  0  0  0  0  0  0  0  0  0  0  0
   37.9460   26.4260   33.7220 N   0  0  0  0  0  0  0  0  0  0  0  0
   38.8120   23.3650   32.7490 H   0  0  0  0  0  0  0  0  0  0  0  0
   36.8770   23.7100   31.2810 H   0  0  0  0  0  0  0  0  0  0  0  0
   35.6260   25.8660   31.4170 H   0  0  0  0  0  0  0  0  0  0  0  0
   39.8340   25.0970   34.5960 C   0  0  0  0  0  0  0  0  0  0  0  0
   41.1790   24.9720   33.9900 C   0  0  0  0  0  0  0  0  0  0  0  0
   40.7950   26.2500   34.7010 C   0  0  0  0  0  0  0  0  0  0  0  0
   41.2520   25.0640   32.8990 H   0  0  0  0  0  0  0  0  0  0  0  0
   41.9590   24.3930   34.5080 H   0  0  0  0  0  0  0  0  0  0  0  0
   40.5080   27.1460   34.1030 H   0  0  0  0  0  0  0  0  0  0  0  0
   41.2130   26.4750   35.6980 H   0  0  0  0  0  0  0  0  0  0  0  0
   39.8530   22.7750   37.4710 C   0  0  0  0  0  0  0  0  0  0  0  0
   38.7240   23.1780   38.1930 C   0  0  0  0  0  0  0  0  0  0  0  0
   37.9640   24.2460   37.6860 C   0  0  0  0  0  0  0  0  0  0  0  0
   38.3570   24.8340   36.5280 N   0  0  0  0  0  0  0  0  0  0  0  0
   39.4580   24.4200   35.8490 C   0  0  0  0  0  0  0  0  0  0  0  0
   40.2060   23.3970   36.3130 N   0  0  0  0  0  0  0  0  0  0  0  0
   40.5060   21.9670   37.7710 H   0  0  0  0  0  0  0  0  0  0  0  0
   38.4910   22.6450   39.1100 H   0  0  0  0  0  0  0  0  0  0  0  0
   37.0960   24.5540   38.2440 H   0  0  0  0  0  0  0  0  0  0  0  0
   36.1750   27.9660   33.0650 C   0  0  0  0  0  0  0  0  0  0  0  0
   35.6540   28.7910   32.1170 N   0  0  0  0  0  0  0  0  0  0  0  0
   35.1120   29.8650   32.7420 C   0  0  0  0  0  0  0  0  0  0  0  0
   35.2960   29.7070   34.0890 N   0  0  0  0  0  0  0  0  0  0  0  0
   35.9410   28.5520   34.2790 N   0  0  0  0  0  0  0  0  0  0  0  0
   34.6350   30.6630   32.1860 H   0  0  0  0  0  0  0  0  0  0  0  0
   34.8520   30.6470   35.0610 C   0  0  0  0  0  0  0  0  0  0  0  0
   35.7110   31.4520   35.8160 C   0  0  0  0  0  0  0  0  0  0  0  0
   36.7630   31.3500   35.6490 H   0  0  0  0  0  0  0  0  0  0  0  0
   35.1870   32.3370   36.7390 C   0  0  0  0  0  0  0  0  0  0  0  0
   35.8310   32.9720   37.3370 H   0  0  0  0  0  0  0  0  0  0  0  0
   33.8080   32.4380   36.9240 C   0  0  0  0  0  3  0  0  0  0  0  0
   33.0070   31.6080   36.1390 C   0  0  0  0  0  3  0  0  0  0  0  0
   33.5210   30.7370   35.2330 N   0  0  0  0  0  0  0  0  0  0  0  0
  1  6  1  0  0  0  0
  1 10  1  0  0  0  0
  2  1  2  0  0  0  0
  3  4  2  0  0  0  0
  3  2  1  0  0  0  0
  4  5  1  0  0  0  0
  5 26  1  0  0  0  0
  5  6  2  0  0  0  0
  7  2  1  0  0  0  0
  8  3  1  0  0  0  0
  9  4  1  0  0  0  0
 10 12  1  0  0  0  0
 10 21  1  0  0  0  0
 11 14  1  0  0  0  0
 11 10  1  0  0  0  0
 11 12  1  0  0  0  0
 12 16  1  0  0  0  0
 13 11  1  0  0  0  0
 15 12  1  0  0  0  0
 17 23  1  0  0  0  0
 17 18  1  0  0  0  0
 18 24  1  0  0  0  0
 19 18  2  0  0  0  0
 19 25  1  0  0  0  0
 20 19  1  0  0  0  0
 21 22  1  0  0  0  0
 21 20  2  0  0  0  0
 22 17  2  0  0  0  0
 26 30  2  0  0  0  0
 27 28  2  0  0  0  0
 27 26  1  0  0  0  0
 28 29  1  0  0  0  0
 29 30  1  0  0  0  0
 29 32  1  0  0  0  0
 31 28  1  0  0  0  0
 32 39  2  0  0  0  0
 32 33  1  0  0  0  0
 33 35  2  0  0  0  0
 34 33  1  0  0  0  0
 35 37  1  0  0  0  0
 35 36  1  0  0  0  0
 38 37  2  0  0  0  0
 39 38  1  0  0  0  0
M  END
>  <minimizedAffinity>
-6.12578249

$$$$

 OpenBabel03272505493D

 39 43  0  0  0  0  0  0  0  0999 V2000
   39.0140   24.4270   35.6170 C   0  0  0  0  0  0  0  0  0  0  0  0
   40.3120   24.5120   35.2420 C   0  0  0  0  0  0  0  0  0  0  0  0
   40.7330   25.5190   34.3810 C   0  0  0  0  0  0  0  0  0  0  0  0
   39.7820   26.4250   33.9250 C   0  0  0  0  0  0  0  0  0  0  0  0
   38.4550   26.3350   34.3120 C   0  0  0  0  0  0  0  0  0  0  0  0
   38.1260   25.3240   35.1530 N   0  0  0  0  0  0  0  0  0  0  0  0
   41.0540   23.8080   35.5960 H   0  0  0  0  0  0  0  0  0  0  0  0
   41.7650   25.5960   34.0750 H   0  0  0  0  0  0  0  0  0  0  0  0
   40.0650   27.2280   33.2500 H   0  0  0  0  0  0  0  0  0  0  0  0
   38.5420   23.3350   36.5560 C   0  0  0  0  0  0  0  0  0  0  0  0
   39.4480   22.9010   37.6420 C   0  0  0  0  0  0  0  0  0  0  0  0
   38.2340   23.7400   37.9720 C   0  0  0  0  0  0  0  0  0  0  0  0
   40.4050   23.4280   37.7440 H   0  0  0  0  0  0  0  0  0  0  0  0
   39.3900   21.8690   38.0210 H   0  0  0  0  0  0  0  0  0  0  0  0
   38.3590   24.8280   38.1790 H   0  0  0  0  0  0  0  0  0  0  0  0
   37.3560   23.2760   38.4550 H   0  0  0  0  0  0  0  0  0  0  0  0
   36.8450   21.2970   33.9820 C   0  0  0  0  0  0  0  0  0  0  0  0
   35.7980   20.7120   34.7010 C   0  0  0  0  0  0  0  0  0  0  0  0
   35.6830   21.0210   36.0670 C   0  0  0  0  0  0  0  0  0  0  0  0
   36.5860   21.8680   36.6220 N   0  0  0  0  0  0  0  0  0  0  0  0
   37.5920   22.4220   35.8970 C   0  0  0  0  0  0  0  0  0  0  0  0
   37.7260   22.1420   34.5840 N   0  0  0  0  0  0  0  0  0  0  0  0
   37.0250   21.1280   32.9290 H   0  0  0  0  0  0  0  0  0  0  0  0
   35.1260   20.0450   34.1680 H   0  0  0  0  0  0  0  0  0  0  0  0
   34.8760   20.5680   36.6180 H   0  0  0  0  0  0  0  0  0  0  0  0
   37.4100   27.2620   33.8610 C   0  0  0  0  0  0  0  0  0  0  0  0
   36.9140   27.5040   32.6170 N   0  0  0  0  0  0  0  0  0  0  0  0
   35.9530   28.4550   32.7230 C   0  0  0  0  0  0  0  0  0  0  0  0
   35.8500   28.8070   34.0410 N   0  0  0  0  0  0  0  0  0  0  0  0
   36.7370   28.0790   34.7270 N   0  0  0  0  0  0  0  0  0  0  0  0
   35.4130   28.8140   31.8540 H   0  0  0  0  0  0  0  0  0  0  0  0
   34.9370   29.7850   34.5270 C   0  0  0  0  0  0  0  0  0  0  0  0
   33.5700   29.5510   34.7110 C   0  0  0  0  0  0  0  0  0  0  0  0
   33.1950   28.5790   34.4720 H   0  0  0  0  0  0  0  0  0  0  0  0
   32.7600   30.5640   35.1880 C   0  0  0  0  0  0  0  0  0  0  0  0
   31.6970   30.4090   35.3410 H   0  0  0  0  0  0  0  0  0  0  0  0
   33.2910   31.8180   35.4880 C   0  0  0  0  0  3  0  0  0  0  0  0
   34.6610   31.9850   35.2830 C   0  0  0  0  0  3  0  0  0  0  0  0
   35.4580   30.9910   34.8140 N   0  0  0  0  0  0  0  0  0  0  0  0
  1 10  1  0  0  0  0
  2  7  1  0  0  0  0
  2  1  1  0  0  0  0
  3  2  2  0  0  0  0
  4  5  2  0  0  0  0
  4  3  1  0  0  0  0
  5  6  1  0  0  0  0
  6  1  2  0  0  0  0
  8  3  1  0  0  0  0
  9  4  1  0  0  0  0
 10 11  1  0  0  0  0
 10 12  1  0  0  0  0
 11 13  1  0  0  0  0
 11 12  1  0  0  0  0
 11 14  1  0  0  0  0
 12 15  1  0  0  0  0
 12 16  1  0  0  0  0
 17 22  2  0  0  0  0
 17 18  1  0  0  0  0
 18 19  2  0  0  0  0
 19 25  1  0  0  0  0
 19 20  1  0  0  0  0
 21 10  1  0  0  0  0
 21 20  2  0  0  0  0
 22 21  1  0  0  0  0
 23 17  1  0  0  0  0
 24 18  1  0  0  0  0
 26  5  1  0  0  0  0
 26 30  2  0  0  0  0
 27 28  2  0  0  0  0
 27 26  1  0  0  0  0
 28 29  1  0  0  0  0
 29 32  1  0  0  0  0
 29 30  1  0  0  0  0
 31 28  1  0  0  0  0
 32 33  2  0  0  0  0
 32 39  1  0  0  0  0
 33 35  1  0  0  0  0
 34 33  1  0  0  0  0
 35 36  1  0  0  0  0
 35 37  2  0  0  0  0
 38 37  1  0  0  0  0
 39 38  2  0  0  0  0
M  END
>  <minimizedAffinity>
-6.06274986

$$$$

 OpenBabel03272505493D

 39 43  0  0  0  0  0  0  0  0999 V2000
   35.6200   29.3340   32.7840 C   0  0  0  0  0  0  0  0  0  0  0  0
   35.9210   29.9450   31.6130 C   0  0  0  0  0  0  0  0  0  0  0  0
   36.5760   29.2500   30.6030 C   0  0  0  0  0  0  0  0  0  0  0  0
   36.9060   27.9200   30.8360 C   0  0  0  0  0  0  0  0  0  0  0  0
   36.5970   27.2990   32.0350 C   0  0  0  0  0  0  0  0  0  0  0  0
   35.9580   28.0460   32.9690 N   0  0  0  0  0  0  0  0  0  0  0  0
   35.6650   30.9810   31.4300 H   0  0  0  0  0  0  0  0  0  0  0  0
   36.8200   29.7270   29.6660 H   0  0  0  0  0  0  0  0  0  0  0  0
   37.4180   27.3380   30.0750 H   0  0  0  0  0  0  0  0  0  0  0  0
   34.9070   30.0800   33.8940 C   0  0  0  0  0  0  0  0  0  0  0  0
   35.7190   30.6540   34.9900 C   0  0  0  0  0  0  0  0  0  0  0  0
   35.1090   31.5700   33.9530 C   0  0  0  0  0  0  0  0  0  0  0  0
   36.8090   30.5510   34.9190 H   0  0  0  0  0  0  0  0  0  0  0  0
   35.2800   30.7650   35.9930 H   0  0  0  0  0  0  0  0  0  0  0  0
   35.7510   31.9810   33.1390 H   0  0  0  0  0  0  0  0  0  0  0  0
   34.2350   32.1920   34.2110 H   0  0  0  0  0  0  0  0  0  0  0  0
   31.5110   28.7840   33.2240 C   0  0  0  0  0  0  0  0  0  0  0  0
   30.9800   28.6490   34.5100 C   0  0  0  0  0  0  0  0  0  0  0  0
   31.7930   29.0040   35.6000 C   0  0  0  0  0  0  0  0  0  0  0  0
   33.0480   29.4590   35.3570 N   0  0  0  0  0  0  0  0  0  0  0  0
   33.5370   29.5790   34.0950 C   0  0  0  0  0  0  0  0  0  0  0  0
   32.7770   29.2460   33.0310 N   0  0  0  0  0  0  0  0  0  0  0  0
   30.9730   28.5400   32.3180 H   0  0  0  0  0  0  0  0  0  0  0  0
   29.9640   28.2750   34.6040 H   0  0  0  0  0  0  0  0  0  0  0  0
   31.3810   28.8980   36.5890 H   0  0  0  0  0  0  0  0  0  0  0  0
   36.9220   25.8990   32.3350 C   0  0  0  0  0  0  0  0  0  0  0  0
   37.8340   25.3640   33.1910 N   0  0  0  0  0  0  0  0  0  0  0  0
   37.7500   24.0130   33.1080 C   0  0  0  0  0  0  0  0  0  0  0  0
   36.7790   23.7060   32.1940 N   0  0  0  0  0  0  0  0  0  0  0  0
   36.2810   24.8550   31.7280 N   0  0  0  0  0  0  0  0  0  0  0  0
   38.3860   23.3680   33.7030 H   0  0  0  0  0  0  0  0  0  0  0  0
   36.4170   22.3740   31.8470 C   0  0  0  0  0  0  0  0  0  0  0  0
   35.2630   21.7340   32.3150 C   0  0  0  0  0  0  0  0  0  0  0  0
   34.6210   22.2830   32.9700 H   0  0  0  0  0  0  0  0  0  0  0  0
   34.9940   20.4360   31.9240 C   0  0  0  0  0  0  0  0  0  0  0  0
   34.1070   19.9170   32.2710 H   0  0  0  0  0  0  0  0  0  0  0  0
   35.8590   19.7570   31.0660 C   0  0  0  0  0  3  0  0  0  0  0  0
   36.9900   20.4520   30.6370 C   0  0  0  0  0  3  0  0  0  0  0  0
   37.2570   21.7270   31.0200 N   0  0  0  0  0  0  0  0  0  0  0  0
  1  6  1  0  0  0  0
  1 10  1  0  0  0  0
  2  1  2  0  0  0  0
  3  4  2  0  0  0  0
  3  2  1  0  0  0  0
  4  5  1  0  0  0  0
  5 26  1  0  0  0  0
  5  6  2  0  0  0  0
  7  2  1  0  0  0  0
  8  3  1  0  0  0  0
  9  4  1  0  0  0  0
 10 12  1  0  0  0  0
 10 21  1  0  0  0  0
 10 11  1  0  0  0  0
 11 14  1  0  0  0  0
 12 16  1  0  0  0  0
 12 11  1  0  0  0  0
 13 11  1  0  0  0  0
 15 12  1  0  0  0  0
 17 18  1  0  0  0  0
 18 24  1  0  0  0  0
 18 19  2  0  0  0  0
 19 25  1  0  0  0  0
 20 19  1  0  0  0  0
 21 20  2  0  0  0  0
 22 17  2  0  0  0  0
 22 21  1  0  0  0  0
 23 17  1  0  0  0  0
 26 27  1  0  0  0  0
 28 27  2  0  0  0  0
 28 31  1  0  0  0  0
 29 28  1  0  0  0  0
 30 29  1  0  0  0  0
 30 26  2  0  0  0  0
 32 29  1  0  0  0  0
 32 33  1  0  0  0  0
 33 34  1  0  0  0  0
 35 36  1  0  0  0  0
 35 33  2  0  0  0  0
 37 35  1  0  0  0  0
 38 39  1  0  0  0  0
 38 37  2  0  0  0  0
 39 32  2  0  0  0  0
M  END
>  <minimizedAffinity>
-6.01901531

$$$$

 OpenBabel03272505493D

 39 43  0  0  0  0  0  0  0  0999 V2000
   36.1370   28.8480   33.6280 C   0  0  0  0  0  0  0  0  0  0  0  0
   36.4710   28.8510   32.3160 C   0  0  0  0  0  0  0  0  0  0  0  0
   37.3130   27.8720   31.8000 C   0  0  0  0  0  0  0  0  0  0  0  0
   37.7930   26.9010   32.6720 C   0  0  0  0  0  0  0  0  0  0  0  0
   37.4490   26.9020   34.0140 C   0  0  0  0  0  0  0  0  0  0  0  0
   36.6240   27.8910   34.4370 N   0  0  0  0  0  0  0  0  0  0  0  0
   36.0980   29.6050   31.6350 H   0  0  0  0  0  0  0  0  0  0  0  0
   37.5850   27.8640   30.7560 H   0  0  0  0  0  0  0  0  0  0  0  0
   38.4540   26.1170   32.3130 H   0  0  0  0  0  0  0  0  0  0  0  0
   35.2210   29.9090   34.2030 C   0  0  0  0  0  0  0  0  0  0  0  0
   35.7690   30.8360   35.2190 C   0  0  0  0  0  0  0  0  0  0  0  0
   35.5030   31.3350   33.8170 C   0  0  0  0  0  0  0  0  0  0  0  0
   36.8320   30.7380   35.4720 H   0  0  0  0  0  0  0  0  0  0  0  0
   35.1000   31.2700   35.9780 H   0  0  0  0  0  0  0  0  0  0  0  0
   36.3550   31.4620   33.1080 H   0  0  0  0  0  0  0  0  0  0  0  0
   34.6360   31.9900   33.6180 H   0  0  0  0  0  0  0  0  0  0  0  0
   31.8810   28.8530   33.0250 C   0  0  0  0  0  0  0  0  0  0  0  0
   31.1810   28.6720   34.2220 C   0  0  0  0  0  0  0  0  0  0  0  0
   31.8620   28.9130   35.4270 C   0  0  0  0  0  0  0  0  0  0  0  0
   33.1590   29.3090   35.3750 N   0  0  0  0  0  0  0  0  0  0  0  0
   33.8130   29.4770   34.1960 C   0  0  0  0  0  0  0  0  0  0  0  0
   33.1820   29.2520   33.0250 N   0  0  0  0  0  0  0  0  0  0  0  0
   31.4530   28.6950   32.0440 H   0  0  0  0  0  0  0  0  0  0  0  0
   30.1450   28.3520   34.1610 H   0  0  0  0  0  0  0  0  0  0  0  0
   31.3210   28.7720   36.3470 H   0  0  0  0  0  0  0  0  0  0  0  0
   37.9270   25.9030   34.9780 C   0  0  0  0  0  0  0  0  0  0  0  0
   37.3550   25.4220   36.1150 N   0  0  0  0  0  0  0  0  0  0  0  0
   38.1970   24.5080   36.6580 C   0  0  0  0  0  0  0  0  0  0  0  0
   39.3000   24.4200   35.8530 N   0  0  0  0  0  0  0  0  0  0  0  0
   39.1300   25.2690   34.8350 N   0  0  0  0  0  0  0  0  0  0  0  0
   37.9510   23.9880   37.5760 H   0  0  0  0  0  0  0  0  0  0  0  0
   40.3980   23.5530   36.1150 C   0  0  0  0  0  0  0  0  0  0  0  0
   41.6830   23.7460   35.5950 C   0  0  0  0  0  0  0  0  0  0  0  0
   41.8420   24.5950   34.9650 H   0  0  0  0  0  0  0  0  0  0  0  0
   42.6890   22.8500   35.9040 C   0  0  0  0  0  0  0  0  0  0  0  0
   43.6930   22.9750   35.5150 H   0  0  0  0  0  0  0  0  0  0  0  0
   42.4360   21.7550   36.7310 C   0  0  0  0  0  3  0  0  0  0  0  0
   41.1350   21.6220   37.2160 C   0  0  0  0  0  3  0  0  0  0  0  0
   40.1460   22.5010   36.9130 N   0  0  0  0  0  0  0  0  0  0  0  0
  1 10  1  0  0  0  0
  1  6  1  0  0  0  0
  2  1  2  0  0  0  0
  3  2  1  0  0  0  0
  3  4  2  0  0  0  0
  4  5  1  0  0  0  0
  5  6  2  0  0  0  0
  5 26  1  0  0  0  0
  7  2  1  0  0  0  0
  8  3  1  0  0  0  0
  9  4  1  0  0  0  0
 10 11  1  0  0  0  0
 11 13  1  0  0  0  0
 11 14  1  0  0  0  0
 12 10  1  0  0  0  0
 12 11  1  0  0  0  0
 15 12  1  0  0  0  0
 16 12  1  0  0  0  0
 17 18  1  0  0  0  0
 18 19  2  0  0  0  0
 19 25  1  0  0  0  0
 20 19  1  0  0  0  0
 21 10  1  0  0  0  0
 21 20  2  0  0  0  0
 22 17  2  0  0  0  0
 22 21  1  0  0  0  0
 23 17  1  0  0  0  0
 24 18  1  0  0  0  0
 26 27  1  0  0  0  0
 27 28  2  0  0  0  0
 28 31  1  0  0  0  0
 29 32  1  0  0  0  0
 29 28  1  0  0  0  0
 30 26  2  0  0  0  0
 30 29  1  0  0  0  0
 32 39  1  0  0  0  0
 33 35  1  0  0  0  0
 33 32  2  0  0  0  0
 34 33  1  0  0  0  0
 35 37  2  0  0  0  0
 36 35  1  0  0  0  0
 37 38  1  0  0  0  0
 39 38  2  0  0  0  0
M  END
>  <minimizedAffinity>
-5.9504137

$$$$

 OpenBabel03272505493D

 39 43  0  0  0  0  0  0  0  0999 V2000
   34.9190   29.5180   32.1010 C   0  0  0  0  0  0  0  0  0  0  0  0
   35.5250   30.2070   31.1050 C   0  0  0  0  0  0  0  0  0  0  0  0
   36.5630   29.6330   30.3800 C   0  0  0  0  0  0  0  0  0  0  0  0
   36.9520   28.3400   30.7120 C   0  0  0  0  0  0  0  0  0  0  0  0
   36.3290   27.6380   31.7320 C   0  0  0  0  0  0  0  0  0  0  0  0
   35.3250   28.2690   32.3900 N   0  0  0  0  0  0  0  0  0  0  0  0
   35.2240   31.2140   30.8450 H   0  0  0  0  0  0  0  0  0  0  0  0
   37.0530   30.1720   29.5850 H   0  0  0  0  0  0  0  0  0  0  0  0
   37.7580   27.8520   30.1730 H   0  0  0  0  0  0  0  0  0  0  0  0
   33.7860   30.1310   32.8980 C   0  0  0  0  0  0  0  0  0  0  0  0
   32.6170   30.6660   32.1630 C   0  0  0  0  0  0  0  0  0  0  0  0
   32.4870   29.3710   32.9320 C   0  0  0  0  0  0  0  0  0  0  0  0
   32.6090   30.5480   31.0730 H   0  0  0  0  0  0  0  0  0  0  0  0
   32.0370   31.4970   32.5920 H   0  0  0  0  0  0  0  0  0  0  0  0
   32.5060   28.4010   32.3830 H   0  0  0  0  0  0  0  0  0  0  0  0
   31.9360   29.3490   33.8890 H   0  0  0  0  0  0  0  0  0  0  0  0
   35.9930   31.5650   35.4920 C   0  0  0  0  0  0  0  0  0  0  0  0
   35.1110   31.7810   36.5550 C   0  0  0  0  0  0  0  0  0  0  0  0
   33.7620   31.4320   36.3730 C   0  0  0  0  0  0  0  0  0  0  0  0
   33.3790   30.9050   35.1820 N   0  0  0  0  0  0  0  0  0  0  0  0
   34.2600   30.7070   34.1680 C   0  0  0  0  0  0  0  0  0  0  0  0
   35.5610   31.0330   34.3160 N   0  0  0  0  0  0  0  0  0  0  0  0
   37.0490   31.7970   35.5250 H   0  0  0  0  0  0  0  0  0  0  0  0
   35.5120   32.2080   37.4700 H   0  0  0  0  0  0  0  0  0  0  0  0
   33.0840   31.6000   37.1930 H   0  0  0  0  0  0  0  0  0  0  0  0
   36.6980   26.2730   32.1250 C   0  0  0  0  0  0  0  0  0  0  0  0
   37.5430   25.8260   33.0940 N   0  0  0  0  0  0  0  0  0  0  0  0
   37.5440   24.4700   33.0610 C   0  0  0  0  0  0  0  0  0  0  0  0
   36.6930   24.0710   32.0660 N   0  0  0  0  0  0  0  0  0  0  0  0
   36.1830   25.1700   31.5020 N   0  0  0  0  0  0  0  0  0  0  0  0
   38.1480   23.8880   33.7470 H   0  0  0  0  0  0  0  0  0  0  0  0
   36.4440   22.7080   31.7430 C   0  0  0  0  0  0  0  0  0  0  0  0
   35.2910   22.0140   32.1270 C   0  0  0  0  0  0  0  0  0  0  0  0
   34.5580   22.5450   32.6960 H   0  0  0  0  0  0  0  0  0  0  0  0
   35.1360   20.6890   31.7660 C   0  0  0  0  0  0  0  0  0  0  0  0
   34.2520   20.1290   32.0500 H   0  0  0  0  0  0  0  0  0  0  0  0
   36.1180   20.0350   31.0220 C   0  0  0  0  0  3  0  0  0  0  0  0
   37.2420   20.7830   30.6720 C   0  0  0  0  0  3  0  0  0  0  0  0
   37.3950   22.0850   31.0250 N   0  0  0  0  0  0  0  0  0  0  0  0
  1  6  1  0  0  0  0
  1 10  1  0  0  0  0
  2  1  2  0  0  0  0
  3  4  2  0  0  0  0
  3  2  1  0  0  0  0
  4  5  1  0  0  0  0
  5 26  1  0  0  0  0
  5  6  2  0  0  0  0
  7  2  1  0  0  0  0
  8  3  1  0  0  0  0
  9  4  1  0  0  0  0
 10 12  1  0  0  0  0
 10 21  1  0  0  0  0
 11 14  1  0  0  0  0
 11 10  1  0  0  0  0
 11 12  1  0  0  0  0
 12 16  1  0  0  0  0
 13 11  1  0  0  0  0
 15 12  1  0  0  0  0
 17 23  1  0  0  0  0
 17 18  1  0  0  0  0
 18 24  1  0  0  0  0
 19 18  2  0  0  0  0
 19 25  1  0  0  0  0
 20 19  1  0  0  0  0
 21 22  1  0  0  0  0
 21 20  2  0  0  0  0
 22 17  2  0  0  0  0
 26 27  1  0  0  0  0
 28 27  2  0  0  0  0
 28 31  1  0  0  0  0
 29 28  1  0  0  0  0
 30 29  1  0  0  0  0
 30 26  2  0  0  0  0
 32 29  1  0  0  0  0
 32 33  1  0  0  0  0
 33 34  1  0  0  0  0
 35 36  1  0  0  0  0
 35 33  2  0  0  0  0
 37 35  1  0  0  0  0
 38 37  2  0  0  0  0
 38 39  1  0  0  0  0
 39 32  2  0  0  0  0
M  END
>  <minimizedAffinity>
-5.93338156

$$$$

 OpenBabel03272505493D

 39 43  0  0  0  0  0  0  0  0999 V2000
   37.0150   26.5580   32.8680 C   0  0  0  0  0  0  0  0  0  0  0  0
   36.6760   27.7710   33.3660 C   0  0  0  0  0  0  0  0  0  0  0  0
   36.9350   28.0840   34.6960 C   0  0  0  0  0  0  0  0  0  0  0  0
   37.5480   27.1180   35.4850 C   0  0  0  0  0  0  0  0  0  0  0  0
   37.8930   25.8780   34.9710 C   0  0  0  0  0  0  0  0  0  0  0  0
   37.6070   25.6520   33.6650 N   0  0  0  0  0  0  0  0  0  0  0  0
   36.1990   28.5250   32.7540 H   0  0  0  0  0  0  0  0  0  0  0  0
   36.6700   29.0470   35.1040 H   0  0  0  0  0  0  0  0  0  0  0  0
   37.7700   27.3190   36.5290 H   0  0  0  0  0  0  0  0  0  0  0  0
   36.7390   26.2030   31.4210 C   0  0  0  0  0  0  0  0  0  0  0  0
   36.3900   24.8020   31.0940 C   0  0  0  0  0  0  0  0  0  0  0  0
   35.3170   25.8670   31.0620 C   0  0  0  0  0  0  0  0  0  0  0  0
   36.3020   24.0960   31.9290 H   0  0  0  0  0  0  0  0  0  0  0  0
   36.6410   24.3940   30.1030 H   0  0  0  0  0  0  0  0  0  0  0  0
   34.5960   25.9460   31.9080 H   0  0  0  0  0  0  0  0  0  0  0  0
   34.9350   26.2370   30.0940 H   0  0  0  0  0  0  0  0  0  0  0  0
   39.4540   27.6470   29.3710 C   0  0  0  0  0  0  0  0  0  0  0  0
   38.8240   28.7330   28.7560 C   0  0  0  0  0  0  0  0  0  0  0  0
   37.4690   28.9620   29.0490 C   0  0  0  0  0  0  0  0  0  0  0  0
   36.8370   28.1250   29.9100 N   0  0  0  0  0  0  0  0  0  0  0  0
   37.4770   27.0770   30.4930 C   0  0  0  0  0  0  0  0  0  0  0  0
   38.7780   26.8350   30.2290 N   0  0  0  0  0  0  0  0  0  0  0  0
   40.4910   27.3820   29.2160 H   0  0  0  0  0  0  0  0  0  0  0  0
   39.4130   29.3470   28.0800 H   0  0  0  0  0  0  0  0  0  0  0  0
   36.9860   29.7990   28.5730 H   0  0  0  0  0  0  0  0  0  0  0  0
   38.5410   24.8210   35.7580 C   0  0  0  0  0  0  0  0  0  0  0  0
   38.1220   24.1600   36.8710 N   0  0  0  0  0  0  0  0  0  0  0  0
   39.0820   23.2690   37.2200 C   0  0  0  0  0  0  0  0  0  0  0  0
   40.1050   23.3760   36.3180 N   0  0  0  0  0  0  0  0  0  0  0  0
   39.7710   24.3200   35.4330 N   0  0  0  0  0  0  0  0  0  0  0  0
   38.9690   22.6240   38.0830 H   0  0  0  0  0  0  0  0  0  0  0  0
   41.2900   22.5880   36.3730 C   0  0  0  0  0  0  0  0  0  0  0  0
   42.4440   22.8650   35.6320 C   0  0  0  0  0  0  0  0  0  0  0  0
   42.4300   23.7190   34.9890 H   0  0  0  0  0  0  0  0  0  0  0  0
   43.5480   22.0410   35.7510 C   0  0  0  0  0  0  0  0  0  0  0  0
   44.4550   22.2330   35.1890 H   0  0  0  0  0  0  0  0  0  0  0  0
   43.5230   20.9370   36.6020 C   0  0  0  0  0  3  0  0  0  0  0  0
   42.3420   20.7180   37.3120 C   0  0  0  0  0  3  0  0  0  0  0  0
   41.2570   21.5260   37.1960 N   0  0  0  0  0  0  0  0  0  0  0  0
  1  2  2  0  0  0  0
  1  6  1  0  0  0  0
  2  3  1  0  0  0  0
  3  8  1  0  0  0  0
  3  4  2  0  0  0  0
  4  9  1  0  0  0  0
  5  4  1  0  0  0  0
  5 26  1  0  0  0  0
  6  5  2  0  0  0  0
  7  2  1  0  0  0  0
 10  1  1  0  0  0  0
 11 10  1  0  0  0  0
 11 13  1  0  0  0  0
 12 11  1  0  0  0  0
 12 10  1  0  0  0  0
 12 15  1  0  0  0  0
 14 11  1  0  0  0  0
 16 12  1  0  0  0  0
 17 22  1  0  0  0  0
 18 19  1  0  0  0  0
 18 17  2  0  0  0  0
 19 20  2  0  0  0  0
 20 21  1  0  0  0  0
 21 10  1  0  0  0  0
 22 21  2  0  0  0  0
 23 17  1  0  0  0  0
 24 18  1  0  0  0  0
 25 19  1  0  0  0  0
 26 27  1  0  0  0  0
 27 28  2  0  0  0  0
 28 31  1  0  0  0  0
 29 32  1  0  0  0  0
 29 28  1  0  0  0  0
 30 26  2  0  0  0  0
 30 29  1  0  0  0  0
 32 39  1  0  0  0  0
 33 35  1  0  0  0  0
 33 32  2  0  0  0  0
 34 33  1  0  0  0  0
 35 37  2  0  0  0  0
 36 35  1  0  0  0  0
 37 38  1  0  0  0  0
 39 38  2  0  0  0  0
M  END
>  <minimizedAffinity>
-5.78487158

$$$$

 OpenBabel03272505493D

 39 43  0  0  0  0  0  0  0  0999 V2000
   37.4430   23.5980   32.7430 C   0  0  0  0  0  0  0  0  0  0  0  0
   36.6370   22.7380   32.0780 C   0  0  0  0  0  0  0  0  0  0  0  0
   35.6460   23.2150   31.2270 C   0  0  0  0  0  0  0  0  0  0  0  0
   35.5160   24.5910   31.0860 C   0  0  0  0  0  0  0  0  0  0  0  0
   36.3430   25.4680   31.7690 C   0  0  0  0  0  0  0  0  0  0  0  0
   37.2830   24.9230   32.5790 N   0  0  0  0  0  0  0  0  0  0  0  0
   36.7360   21.6650   32.1850 H   0  0  0  0  0  0  0  0  0  0  0  0
   34.9980   22.5380   30.6910 H   0  0  0  0  0  0  0  0  0  0  0  0
   34.7560   25.0090   30.4320 H   0  0  0  0  0  0  0  0  0  0  0  0
   38.5270   23.0920   33.6740 C   0  0  0  0  0  0  0  0  0  0  0  0
   39.2910   21.8890   33.2750 C   0  0  0  0  0  0  0  0  0  0  0  0
   39.9500   23.2480   33.2100 C   0  0  0  0  0  0  0  0  0  0  0  0
   39.0650   21.4480   32.2960 H   0  0  0  0  0  0  0  0  0  0  0  0
   39.7120   21.2280   34.0480 H   0  0  0  0  0  0  0  0  0  0  0  0
   40.0610   23.7590   32.2260 H   0  0  0  0  0  0  0  0  0  0  0  0
   40.7020   23.5340   33.9660 H   0  0  0  0  0  0  0  0  0  0  0  0
   37.3700   22.8270   37.1740 C   0  0  0  0  0  0  0  0  0  0  0  0
   37.7130   24.0760   37.7010 C   0  0  0  0  0  0  0  0  0  0  0  0
   38.3400   25.0020   36.8500 C   0  0  0  0  0  0  0  0  0  0  0  0
   38.5830   24.6440   35.5630 N   0  0  0  0  0  0  0  0  0  0  0  0
   38.2380   23.4220   35.0800 C   0  0  0  0  0  0  0  0  0  0  0  0
   37.6340   22.5150   35.8760 N   0  0  0  0  0  0  0  0  0  0  0  0
   36.8850   22.0440   37.7400 H   0  0  0  0  0  0  0  0  0  0  0  0
   37.4780   24.2700   38.7440 H   0  0  0  0  0  0  0  0  0  0  0  0
   38.6040   25.9620   37.2580 H   0  0  0  0  0  0  0  0  0  0  0  0
   36.2500   26.9290   31.6600 C   0  0  0  0  0  0  0  0  0  0  0  0
   36.2980   27.7430   30.5700 N   0  0  0  0  0  0  0  0  0  0  0  0
   36.1650   29.0240   30.9930 C   0  0  0  0  0  0  0  0  0  0  0  0
   36.0320   29.0080   32.3550 N   0  0  0  0  0  0  0  0  0  0  0  0
   36.0850   27.7330   32.7540 N   0  0  0  0  0  0  0  0  0  0  0  0
   36.1740   29.8540   30.2960 H   0  0  0  0  0  0  0  0  0  0  0  0
   35.8710   30.1810   33.1450 C   0  0  0  0  0  0  0  0  0  0  0  0
   35.6300   30.1650   34.5230 C   0  0  0  0  0  0  0  0  0  0  0  0
   35.5640   29.2130   35.0050 H   0  0  0  0  0  0  0  0  0  0  0  0
   35.4860   31.3570   35.2070 C   0  0  0  0  0  0  0  0  0  0  0  0
   35.2990   31.3730   36.2750 H   0  0  0  0  0  0  0  0  0  0  0  0
   35.5800   32.5770   34.5380 C   0  0  0  0  0  3  0  0  0  0  0  0
   35.8220   32.5230   33.1650 C   0  0  0  0  0  3  0  0  0  0  0  0
   35.9630   31.3520   32.4910 N   0  0  0  0  0  0  0  0  0  0  0  0
  1 10  1  0  0  0  0
  2  7  1  0  0  0  0
  2  1  2  0  0  0  0
  3  2  1  0  0  0  0
  4  3  2  0  0  0  0
  4  5  1  0  0  0  0
  5  6  2  0  0  0  0
  6  1  1  0  0  0  0
  8  3  1  0  0  0  0
  9  4  1  0  0  0  0
 10 21  1  0  0  0  0
 11 10  1  0  0  0  0
 11 14  1  0  0  0  0
 12 11  1  0  0  0  0
 12 10  1  0  0  0  0
 12 16  1  0  0  0  0
 13 11  1  0  0  0  0
 15 12  1  0  0  0  0
 17 18  1  0  0  0  0
 17 23  1  0  0  0  0
 18 24  1  0  0  0  0
 19 25  1  0  0  0  0
 19 18  2  0  0  0  0
 20 19  1  0  0  0  0
 21 20  2  0  0  0  0
 21 22  1  0  0  0  0
 22 17  2  0  0  0  0
 26  5  1  0  0  0  0
 26 30  2  0  0  0  0
 27 28  2  0  0  0  0
 27 26  1  0  0  0  0
 28 29  1  0  0  0  0
 29 30  1  0  0  0  0
 29 32  1  0  0  0  0
 31 28  1  0  0  0  0
 32 33  1  0  0  0  0
 33 34  1  0  0  0  0
 33 35  2  0  0  0  0
 35 36  1  0  0  0  0
 37 35  1  0  0  0  0
 38 37  2  0  0  0  0
 39 32  2  0  0  0  0
 39 38  1  0  0  0  0
M  END
>  <minimizedAffinity>
-5.76461267

$$$$
