
 OpenBabel03272502263D

 29 31  0  0  0  0  0  0  0  0999 V2000
   37.9710   27.4510   32.1260 C   0  0  0  0  0  0  0  0  0  0  0  0
   38.3650   26.2730   32.8040 C   0  0  0  0  0  0  0  0  0  0  0  0
   37.7780   26.0120   34.0450 C   0  0  0  0  0  0  0  0  0  0  0  0
   36.8770   26.9000   34.5150 N   0  0  0  0  0  0  0  0  0  0  0  0
   36.5180   28.0150   33.8520 C   0  0  0  0  0  0  0  0  0  0  0  0
   37.0660   28.2880   32.6590 N   0  0  0  0  0  0  0  0  0  0  0  0
   38.4600   27.5940   31.1750 H   0  0  0  0  0  0  0  0  0  0  0  0
   39.0860   25.5720   32.4150 H   0  0  0  0  0  0  0  0  0  0  0  0
   38.0930   24.8420   34.8380 C   0  0  0  0  0  0  0  0  0  0  0  0
   38.4740   23.6580   34.2350 C   0  0  0  0  0  0  0  0  0  0  0  0
   38.7840   22.5230   34.9600 C   0  0  0  0  0  0  0  0  0  0  0  0
   38.7130   22.5620   36.3110 N   0  0  0  0  0  0  0  0  0  0  0  0
   38.3420   23.7160   36.8690 C   0  0  0  0  0  0  0  0  0  0  0  0
   38.0370   24.8310   36.1840 N   0  0  0  0  0  0  0  0  0  0  0  0
   38.5540   23.5480   33.1620 H   0  0  0  0  0  0  0  0  0  0  0  0
   39.0830   21.5980   34.4640 H   0  0  0  0  0  0  0  0  0  0  0  0
   38.2570   23.7920   38.3480 C   0  0  0  0  0  0  0  0  0  0  0  0
   39.4970   23.4010   38.8710 F   0  0  0  0  0  0  0  0  0  0  0  0
   37.9200   25.0510   38.7830 F   0  0  0  0  0  0  0  0  0  0  0  0
   37.3420   22.9010   38.8580 F   0  0  0  0  0  0  0  0  0  0  0  0
   35.5810   28.8300   34.4600 O   0  0  0  0  0  0  0  0  0  0  0  0
   35.5870   30.1880   34.3890 C   0  0  0  0  0  0  0  0  0  0  0  0
   36.0570   30.7490   35.5830 C   0  0  0  0  0  0  0  0  0  0  0  0
   36.3860   30.1980   36.4780 H   0  0  0  0  0  0  0  0  0  0  0  0
   36.1600   32.1280   35.7700 C   0  0  0  0  0  0  0  0  0  0  0  0
   36.5120   32.5870   36.6610 H   0  0  0  0  0  0  0  0  0  0  0  0
   35.7860   32.9660   34.7410 C   0  0  0  0  0  3  0  0  0  0  0  0
   35.3280   32.3810   33.5800 C   0  0  0  0  0  3  0  0  0  0  0  0
   35.2400   31.0580   33.4330 N   0  0  0  0  0  0  0  0  0  0  0  0
  1  6  2  0  0  0  0
  1  2  1  0  0  0  0
  2  3  2  0  0  0  0
  3  4  1  0  0  0  0
  3  9  1  0  0  0  0
  5 21  1  0  0  0  0
  5  4  2  0  0  0  0
  6  5  1  0  0  0  0
  7  1  1  0  0  0  0
  8  2  1  0  0  0  0
  9 14  1  0  0  0  0
 10  9  2  0  0  0  0
 10 11  1  0  0  0  0
 11 12  2  0  0  0  0
 12 13  1  0  0  0  0
 13 17  1  0  0  0  0
 14 13  2  0  0  0  0
 15 10  1  0  0  0  0
 16 11  1  0  0  0  0
 17 19  1  0  0  0  0
 17 20  1  0  0  0  0
 17 18  1  0  0  0  0
 22 21  1  0  0  0  0
 22 23  1  0  0  0  0
 23 25  2  0  0  0  0
 23 24  1  0  0  0  0
 25 26  1  0  0  0  0
 27 25  1  0  0  0  0
 28 27  2  0  0  0  0
 29 28  1  0  0  0  0
 29 22  2  0  0  0  0
M  END
>  <minimizedAffinity>
-6.0497098

$$$$

 OpenBabel03272502263D

 29 31  0  0  0  0  0  0  0  0999 V2000
   37.3310   25.7740   31.9960 C   0  0  0  0  0  0  0  0  0  0  0  0
   38.0430   25.3920   33.1580 C   0  0  0  0  0  0  0  0  0  0  0  0
   37.9100   24.0710   33.5950 C   0  0  0  0  0  0  0  0  0  0  0  0
   37.1110   23.2490   32.8820 N   0  0  0  0  0  0  0  0  0  0  0  0
   36.4430   23.6350   31.7790 C   0  0  0  0  0  0  0  0  0  0  0  0
   36.5550   24.8970   31.3390 N   0  0  0  0  0  0  0  0  0  0  0  0
   37.4770   26.8040   31.7120 H   0  0  0  0  0  0  0  0  0  0  0  0
   38.6780   26.0600   33.7170 H   0  0  0  0  0  0  0  0  0  0  0  0
   38.5850   23.5540   34.7670 C   0  0  0  0  0  0  0  0  0  0  0  0
   39.6970   22.7420   34.6440 C   0  0  0  0  0  0  0  0  0  0  0  0
   40.3690   22.2330   35.7390 C   0  0  0  0  0  0  0  0  0  0  0  0
   39.9270   22.5330   36.9830 N   0  0  0  0  0  0  0  0  0  0  0  0
   38.8510   23.3180   37.0750 C   0  0  0  0  0  0  0  0  0  0  0  0
   38.1840   23.8240   36.0240 N   0  0  0  0  0  0  0  0  0  0  0  0
   40.1100   22.4580   33.6850 H   0  0  0  0  0  0  0  0  0  0  0  0
   41.2450   21.5940   35.6200 H   0  0  0  0  0  0  0  0  0  0  0  0
   38.3430   23.6660   38.4250 C   0  0  0  0  0  0  0  0  0  0  0  0
   37.8660   24.9830   38.3780 F   0  0  0  0  0  0  0  0  0  0  0  0
   37.3570   22.8060   38.8430 F   0  0  0  0  0  0  0  0  0  0  0  0
   39.3430   23.6680   39.3680 F   0  0  0  0  0  0  0  0  0  0  0  0
   35.6640   22.6800   31.1540 O   0  0  0  0  0  0  0  0  0  0  0  0
   35.9000   21.3420   31.2090 C   0  0  0  0  0  0  0  0  0  0  0  0
   34.9110   20.6910   31.9560 C   0  0  0  0  0  0  0  0  0  0  0  0
   34.0450   21.1640   32.4460 H   0  0  0  0  0  0  0  0  0  0  0  0
   34.9210   19.3110   32.1660 C   0  0  0  0  0  0  0  0  0  0  0  0
   34.1880   18.7850   32.7260 H   0  0  0  0  0  0  0  0  0  0  0  0
   35.9430   18.5650   31.6180 C   0  0  0  0  0  3  0  0  0  0  0  0
   36.9010   19.2380   30.8880 C   0  0  0  0  0  3  0  0  0  0  0  0
   36.8620   20.5590   30.7060 N   0  0  0  0  0  0  0  0  0  0  0  0
  1  2  1  0  0  0  0
  2  3  2  0  0  0  0
  2  8  1  0  0  0  0
  3  9  1  0  0  0  0
  4  3  1  0  0  0  0
  5  4  2  0  0  0  0
  6  5  1  0  0  0  0
  6  1  2  0  0  0  0
  7  1  1  0  0  0  0
  9 14  1  0  0  0  0
 10  9  2  0  0  0  0
 10 11  1  0  0  0  0
 11 12  2  0  0  0  0
 12 13  1  0  0  0  0
 13 17  1  0  0  0  0
 14 13  2  0  0  0  0
 15 10  1  0  0  0  0
 16 11  1  0  0  0  0
 17 19  1  0  0  0  0
 17 20  1  0  0  0  0
 18 17  1  0  0  0  0
 21 22  1  0  0  0  0
 21  5  1  0  0  0  0
 22 23  1  0  0  0  0
 23 25  2  0  0  0  0
 23 24  1  0  0  0  0
 25 26  1  0  0  0  0
 27 25  1  0  0  0  0
 28 27  2  0  0  0  0
 29 28  1  0  0  0  0
 29 22  2  0  0  0  0
M  END
>  <minimizedAffinity>
-5.94694424

$$$$

 OpenBabel03272502263D

 29 31  0  0  0  0  0  0  0  0999 V2000
   37.0190   27.4560   34.1460 C   0  0  0  0  0  0  0  0  0  0  0  0
   37.4960   26.7380   35.2690 C   0  0  0  0  0  0  0  0  0  0  0  0
   37.9190   25.4220   35.0640 C   0  0  0  0  0  0  0  0  0  0  0  0
   37.8440   24.9240   33.8120 N   0  0  0  0  0  0  0  0  0  0  0  0
   37.3860   25.6260   32.7600 C   0  0  0  0  0  0  0  0  0  0  0  0
   36.9740   26.8900   32.9290 N   0  0  0  0  0  0  0  0  0  0  0  0
   36.7080   28.4650   34.3700 H   0  0  0  0  0  0  0  0  0  0  0  0
   37.5500   27.1510   36.2630 H   0  0  0  0  0  0  0  0  0  0  0  0
   38.4290   24.5810   36.1270 C   0  0  0  0  0  0  0  0  0  0  0  0
   37.7780   24.5030   37.3440 C   0  0  0  0  0  0  0  0  0  0  0  0
   38.2330   23.7090   38.3790 C   0  0  0  0  0  0  0  0  0  0  0  0
   39.3590   22.9780   38.2060 N   0  0  0  0  0  0  0  0  0  0  0  0
   39.9700   23.0720   37.0220 C   0  0  0  0  0  0  0  0  0  0  0  0
   39.5440   23.8360   36.0030 N   0  0  0  0  0  0  0  0  0  0  0  0
   36.8730   25.0550   37.5590 H   0  0  0  0  0  0  0  0  0  0  0  0
   37.7030   23.6620   39.3320 H   0  0  0  0  0  0  0  0  0  0  0  0
   41.2060   22.2820   36.8000 C   0  0  0  0  0  0  0  0  0  0  0  0
   41.3440   21.3890   37.8710 F   0  0  0  0  0  0  0  0  0  0  0  0
   41.1800   21.6080   35.6030 F   0  0  0  0  0  0  0  0  0  0  0  0
   42.3330   23.0690   36.8270 F   0  0  0  0  0  0  0  0  0  0  0  0
   37.3690   24.9800   31.5370 O   0  0  0  0  0  0  0  0  0  0  0  0
   37.2360   23.6350   31.3820 C   0  0  0  0  0  0  0  0  0  0  0  0
   35.8870   23.2610   31.4160 C   0  0  0  0  0  0  0  0  0  0  0  0
   35.0250   23.9330   31.5470 H   0  0  0  0  0  0  0  0  0  0  0  0
   35.4780   21.9330   31.2800 C   0  0  0  0  0  0  0  0  0  0  0  0
   34.4660   21.6130   31.2990 H   0  0  0  0  0  0  0  0  0  0  0  0
   36.4380   20.9580   31.1070 C   0  0  0  0  0  3  0  0  0  0  0  0
   37.7560   21.3620   31.0790 C   0  0  0  0  0  3  0  0  0  0  0  0
   38.1150   22.6400   31.2120 N   0  0  0  0  0  0  0  0  0  0  0  0
  1  7  1  0  0  0  0
  1  2  1  0  0  0  0
  2  8  1  0  0  0  0
  3  2  2  0  0  0  0
  3  9  1  0  0  0  0
  4  3  1  0  0  0  0
  5  6  1  0  0  0  0
  5  4  2  0  0  0  0
  6  1  2  0  0  0  0
  9 10  1  0  0  0  0
 10 15  1  0  0  0  0
 10 11  2  0  0  0  0
 11 16  1  0  0  0  0
 12 11  1  0  0  0  0
 13 12  2  0  0  0  0
 14  9  2  0  0  0  0
 14 13  1  0  0  0  0
 17 20  1  0  0  0  0
 17 13  1  0  0  0  0
 17 18  1  0  0  0  0
 19 17  1  0  0  0  0
 21  5  1  0  0  0  0
 22 23  1  0  0  0  0
 22 21  1  0  0  0  0
 23 24  1  0  0  0  0
 25 26  1  0  0  0  0
 25 23  2  0  0  0  0
 27 25  1  0  0  0  0
 28 27  2  0  0  0  0
 28 29  1  0  0  0  0
 29 22  2  0  0  0  0
M  END
>  <minimizedAffinity>
-5.77561522

$$$$

 OpenBabel03272502263D

 29 31  0  0  0  0  0  0  0  0999 V2000
   35.7060   21.2230   32.4470 C   0  0  0  0  0  0  0  0  0  0  0  0
   36.5480   21.2550   33.5840 C   0  0  0  0  0  0  0  0  0  0  0  0
   37.4340   22.3290   33.7040 C   0  0  0  0  0  0  0  0  0  0  0  0
   37.4300   23.2620   32.7290 N   0  0  0  0  0  0  0  0  0  0  0  0
   36.6210   23.2100   31.6560 C   0  0  0  0  0  0  0  0  0  0  0  0
   35.7610   22.1910   31.5170 N   0  0  0  0  0  0  0  0  0  0  0  0
   35.0460   20.3710   32.4140 H   0  0  0  0  0  0  0  0  0  0  0  0
   36.5390   20.5020   34.3560 H   0  0  0  0  0  0  0  0  0  0  0  0
   38.3470   22.4800   34.8190 C   0  0  0  0  0  0  0  0  0  0  0  0
   39.6790   22.1280   34.6990 C   0  0  0  0  0  0  0  0  0  0  0  0
   40.5780   22.2620   35.7390 C   0  0  0  0  0  0  0  0  0  0  0  0
   40.1490   22.7540   36.9250 N   0  0  0  0  0  0  0  0  0  0  0  0
   38.8590   23.0860   37.0150 C   0  0  0  0  0  0  0  0  0  0  0  0
   37.9680   22.9650   36.0180 N   0  0  0  0  0  0  0  0  0  0  0  0
   40.0970   21.7290   33.7840 H   0  0  0  0  0  0  0  0  0  0  0  0
   41.6250   21.9780   35.6220 H   0  0  0  0  0  0  0  0  0  0  0  0
   38.3570   23.6290   38.3020 C   0  0  0  0  0  0  0  0  0  0  0  0
   39.4030   23.5640   39.2330 F   0  0  0  0  0  0  0  0  0  0  0  0
   37.8980   24.9180   38.1750 F   0  0  0  0  0  0  0  0  0  0  0  0
   37.3450   22.8610   38.8270 F   0  0  0  0  0  0  0  0  0  0  0  0
   36.7300   24.2390   30.7390 O   0  0  0  0  0  0  0  0  0  0  0  0
   36.9980   25.5320   31.0680 C   0  0  0  0  0  0  0  0  0  0  0  0
   35.8180   26.2300   31.3490 C   0  0  0  0  0  0  0  0  0  0  0  0
   34.7950   25.8230   31.3190 H   0  0  0  0  0  0  0  0  0  0  0  0
   35.8170   27.5790   31.7120 C   0  0  0  0  0  0  0  0  0  0  0  0
   34.9420   28.1380   31.9320 H   0  0  0  0  0  0  0  0  0  0  0  0
   37.0220   28.2430   31.7970 C   0  0  0  0  0  3  0  0  0  0  0  0
   38.1650   27.5250   31.5130 C   0  0  0  0  0  3  0  0  0  0  0  0
   38.1320   26.2370   31.1680 N   0  0  0  0  0  0  0  0  0  0  0  0
  1  2  1  0  0  0  0
  2  3  2  0  0  0  0
  2  8  1  0  0  0  0
  3  9  1  0  0  0  0
  4  3  1  0  0  0  0
  5  4  2  0  0  0  0
  6  5  1  0  0  0  0
  6  1  2  0  0  0  0
  7  1  1  0  0  0  0
  9 14  1  0  0  0  0
 10  9  2  0  0  0  0
 10 11  1  0  0  0  0
 11 12  2  0  0  0  0
 12 13  1  0  0  0  0
 13 17  1  0  0  0  0
 14 13  2  0  0  0  0
 15 10  1  0  0  0  0
 16 11  1  0  0  0  0
 17 20  1  0  0  0  0
 17 18  1  0  0  0  0
 19 17  1  0  0  0  0
 21 22  1  0  0  0  0
 21  5  1  0  0  0  0
 22 29  2  0  0  0  0
 22 23  1  0  0  0  0
 23 25  2  0  0  0  0
 24 23  1  0  0  0  0
 25 27  1  0  0  0  0
 25 26  1  0  0  0  0
 28 27  2  0  0  0  0
 29 28  1  0  0  0  0
M  END
>  <minimizedAffinity>
-5.73406506

$$$$

 OpenBabel03272502263D

 29 31  0  0  0  0  0  0  0  0999 V2000
   36.5250   26.1980   32.1760 C   0  0  0  0  0  0  0  0  0  0  0  0
   36.3710   24.9030   31.6250 C   0  0  0  0  0  0  0  0  0  0  0  0
   37.1170   23.8660   32.1900 C   0  0  0  0  0  0  0  0  0  0  0  0
   37.9330   24.1660   33.2230 N   0  0  0  0  0  0  0  0  0  0  0  0
   38.0630   25.4050   33.7300 C   0  0  0  0  0  0  0  0  0  0  0  0
   37.3580   26.4190   33.2060 N   0  0  0  0  0  0  0  0  0  0  0  0
   35.9230   26.9530   31.6960 H   0  0  0  0  0  0  0  0  0  0  0  0
   35.7150   24.6790   30.8000 H   0  0  0  0  0  0  0  0  0  0  0  0
   37.0510   22.4970   31.7210 C   0  0  0  0  0  0  0  0  0  0  0  0
   37.9320   22.0330   30.7620 C   0  0  0  0  0  0  0  0  0  0  0  0
   37.9010   20.7340   30.2930 C   0  0  0  0  0  0  0  0  0  0  0  0
   36.9760   19.8760   30.7830 N   0  0  0  0  0  0  0  0  0  0  0  0
   36.1370   20.3490   31.7080 C   0  0  0  0  0  0  0  0  0  0  0  0
   36.1500   21.6060   32.1780 N   0  0  0  0  0  0  0  0  0  0  0  0
   38.6980   22.6570   30.3220 H   0  0  0  0  0  0  0  0  0  0  0  0
   38.6060   20.3880   29.5350 H   0  0  0  0  0  0  0  0  0  0  0  0
   35.1120   19.4320   32.2670 C   0  0  0  0  0  0  0  0  0  0  0  0
   35.2730   19.4060   33.6590 F   0  0  0  0  0  0  0  0  0  0  0  0
   33.8370   19.8180   31.9320 F   0  0  0  0  0  0  0  0  0  0  0  0
   35.2950   18.1360   31.8480 F   0  0  0  0  0  0  0  0  0  0  0  0
   38.9380   25.5590   34.7890 O   0  0  0  0  0  0  0  0  0  0  0  0
   39.0270   24.7000   35.8410 C   0  0  0  0  0  0  0  0  0  0  0  0
   38.0810   25.0150   36.8240 C   0  0  0  0  0  0  0  0  0  0  0  0
   37.3490   25.8370   36.7870 H   0  0  0  0  0  0  0  0  0  0  0  0
   37.9640   24.2850   38.0080 C   0  0  0  0  0  0  0  0  0  0  0  0
   37.2590   24.4950   38.7740 H   0  0  0  0  0  0  0  0  0  0  0  0
   38.8110   23.2160   38.2140 C   0  0  0  0  0  3  0  0  0  0  0  0
   39.7300   22.9340   37.2250 C   0  0  0  0  0  3  0  0  0  0  0  0
   39.8170   23.6530   36.1040 N   0  0  0  0  0  0  0  0  0  0  0  0
  1  6  1  0  0  0  0
  2  1  2  0  0  0  0
  2  3  1  0  0  0  0
  3  4  2  0  0  0  0
  4  5  1  0  0  0  0
  5 21  1  0  0  0  0
  6  5  2  0  0  0  0
  7  1  1  0  0  0  0
  8  2  1  0  0  0  0
  9 14  1  0  0  0  0
  9  3  1  0  0  0  0
 10  9  2  0  0  0  0
 11 10  1  0  0  0  0
 11 12  2  0  0  0  0
 12 13  1  0  0  0  0
 13 14  2  0  0  0  0
 13 17  1  0  0  0  0
 15 10  1  0  0  0  0
 16 11  1  0  0  0  0
 17 18  1  0  0  0  0
 19 17  1  0  0  0  0
 20 17  1  0  0  0  0
 21 22  1  0  0  0  0
 22 29  2  0  0  0  0
 22 23  1  0  0  0  0
 23 25  2  0  0  0  0
 24 23  1  0  0  0  0
 25 27  1  0  0  0  0
 25 26  1  0  0  0  0
 28 27  2  0  0  0  0
 29 28  1  0  0  0  0
M  END
>  <minimizedAffinity>
-5.72573185

$$$$

 OpenBabel03272502263D

 29 31  0  0  0  0  0  0  0  0999 V2000
   38.8560   24.5950   30.5450 C   0  0  0  0  0  0  0  0  0  0  0  0
   39.0360   25.1930   31.8150 C   0  0  0  0  0  0  0  0  0  0  0  0
   38.0880   24.9150   32.8030 C   0  0  0  0  0  0  0  0  0  0  0  0
   37.0650   24.0960   32.4820 N   0  0  0  0  0  0  0  0  0  0  0  0
   36.9140   23.5380   31.2660 C   0  0  0  0  0  0  0  0  0  0  0  0
   37.8100   23.7900   30.3010 N   0  0  0  0  0  0  0  0  0  0  0  0
   39.6210   24.8500   29.8290 H   0  0  0  0  0  0  0  0  0  0  0  0
   39.8600   25.8460   32.0580 H   0  0  0  0  0  0  0  0  0  0  0  0
   38.1570   25.4610   34.1430 C   0  0  0  0  0  0  0  0  0  0  0  0
   38.2790   26.8230   34.3480 C   0  0  0  0  0  0  0  0  0  0  0  0
   38.3450   27.3810   35.6100 C   0  0  0  0  0  0  0  0  0  0  0  0
   38.2910   26.5700   36.6940 N   0  0  0  0  0  0  0  0  0  0  0  0
   38.1730   25.2600   36.4690 C   0  0  0  0  0  0  0  0  0  0  0  0
   38.1070   24.6980   35.2510 N   0  0  0  0  0  0  0  0  0  0  0  0
   38.3290   27.5340   33.5340 H   0  0  0  0  0  0  0  0  0  0  0  0
   38.4410   28.4580   35.7500 H   0  0  0  0  0  0  0  0  0  0  0  0
   38.1090   24.3450   37.6360 C   0  0  0  0  0  0  0  0  0  0  0  0
   39.2780   23.5700   37.6390 F   0  0  0  0  0  0  0  0  0  0  0  0
   37.9750   25.0280   38.8210 F   0  0  0  0  0  0  0  0  0  0  0  0
   37.0710   23.4500   37.5340 F   0  0  0  0  0  0  0  0  0  0  0  0
   35.8140   22.7200   31.0860 O   0  0  0  0  0  0  0  0  0  0  0  0
   35.7030   21.4630   31.5940 C   0  0  0  0  0  0  0  0  0  0  0  0
   36.1910   20.5130   30.6880 C   0  0  0  0  0  0  0  0  0  0  0  0
   36.6130   20.7170   29.6920 H   0  0  0  0  0  0  0  0  0  0  0  0
   36.1900   19.1450   30.9680 C   0  0  0  0  0  0  0  0  0  0  0  0
   36.5510   18.3990   30.3060 H   0  0  0  0  0  0  0  0  0  0  0  0
   35.6910   18.7180   32.1810 C   0  0  0  0  0  3  0  0  0  0  0  0
   35.2190   19.6800   33.0490 C   0  0  0  0  0  3  0  0  0  0  0  0
   35.2330   20.9800   32.7510 N   0  0  0  0  0  0  0  0  0  0  0  0
  1  2  1  0  0  0  0
  2  8  1  0  0  0  0
  2  3  2  0  0  0  0
  3  9  1  0  0  0  0
  4  3  1  0  0  0  0
  5  4  2  0  0  0  0
  6  1  2  0  0  0  0
  6  5  1  0  0  0  0
  7  1  1  0  0  0  0
  9 10  2  0  0  0  0
  9 14  1  0  0  0  0
 10 11  1  0  0  0  0
 11 16  1  0  0  0  0
 11 12  2  0  0  0  0
 13 12  1  0  0  0  0
 13 17  1  0  0  0  0
 14 13  2  0  0  0  0
 15 10  1  0  0  0  0
 17 18  1  0  0  0  0
 17 19  1  0  0  0  0
 20 17  1  0  0  0  0
 21  5  1  0  0  0  0
 21 22  1  0  0  0  0
 22 29  1  0  0  0  0
 23 25  1  0  0  0  0
 23 22  2  0  0  0  0
 24 23  1  0  0  0  0
 25 27  2  0  0  0  0
 26 25  1  0  0  0  0
 27 28  1  0  0  0  0
 29 28  2  0  0  0  0
M  END
>  <minimizedAffinity>
-5.69695187

$$$$

 OpenBabel03272502263D

 29 31  0  0  0  0  0  0  0  0999 V2000
   36.6540   23.9090   31.9440 C   0  0  0  0  0  0  0  0  0  0  0  0
   36.1940   25.2340   31.7600 C   0  0  0  0  0  0  0  0  0  0  0  0
   36.7590   26.2330   32.5560 C   0  0  0  0  0  0  0  0  0  0  0  0
   37.7040   25.8690   33.4480 N   0  0  0  0  0  0  0  0  0  0  0  0
   38.1270   24.6010   33.6060 C   0  0  0  0  0  0  0  0  0  0  0  0
   37.6010   23.6240   32.8530 N   0  0  0  0  0  0  0  0  0  0  0  0
   36.1790   23.1860   31.2990 H   0  0  0  0  0  0  0  0  0  0  0  0
   35.4370   25.5100   31.0430 H   0  0  0  0  0  0  0  0  0  0  0  0
   36.3770   27.6280   32.4660 C   0  0  0  0  0  0  0  0  0  0  0  0
   36.2470   28.2490   31.2380 C   0  0  0  0  0  0  0  0  0  0  0  0
   35.8820   29.5760   31.1130 C   0  0  0  0  0  0  0  0  0  0  0  0
   35.6420   30.3030   32.2300 N   0  0  0  0  0  0  0  0  0  0  0  0
   35.7740   29.6800   33.4030 C   0  0  0  0  0  0  0  0  0  0  0  0
   36.1270   28.3920   33.5470 N   0  0  0  0  0  0  0  0  0  0  0  0
   36.4220   27.7360   30.3020 H   0  0  0  0  0  0  0  0  0  0  0  0
   35.7860   30.0470   30.1340 H   0  0  0  0  0  0  0  0  0  0  0  0
   35.5160   30.4490   34.6450 C   0  0  0  0  0  0  0  0  0  0  0  0
   35.6610   31.8110   34.3460 F   0  0  0  0  0  0  0  0  0  0  0  0
   34.2680   30.1940   35.1610 F   0  0  0  0  0  0  0  0  0  0  0  0
   36.4480   30.1830   35.6200 F   0  0  0  0  0  0  0  0  0  0  0  0
   39.1030   24.3810   34.5590 O   0  0  0  0  0  0  0  0  0  0  0  0
   38.8500   24.1440   35.8750 C   0  0  0  0  0  0  0  0  0  0  0  0
   39.8110   23.2840   36.4200 C   0  0  0  0  0  0  0  0  0  0  0  0
   40.6680   22.8420   35.8900 H   0  0  0  0  0  0  0  0  0  0  0  0
   39.7790   22.8810   37.7570 C   0  0  0  0  0  0  0  0  0  0  0  0
   40.4900   22.2320   38.2040 H   0  0  0  0  0  0  0  0  0  0  0  0
   38.7630   23.3480   38.5650 C   0  0  0  0  0  3  0  0  0  0  0  0
   37.8340   24.1920   37.9950 C   0  0  0  0  0  3  0  0  0  0  0  0
   37.8920   24.5580   36.7130 N   0  0  0  0  0  0  0  0  0  0  0  0
  1  6  1  0  0  0  0
  2  1  2  0  0  0  0
  2  3  1  0  0  0  0
  3  4  2  0  0  0  0
  4  5  1  0  0  0  0
  5 21  1  0  0  0  0
  6  5  2  0  0  0  0
  7  1  1  0  0  0  0
  8  2  1  0  0  0  0
  9  3  1  0  0  0  0
  9 14  1  0  0  0  0
 10  9  2  0  0  0  0
 11 10  1  0  0  0  0
 11 12  2  0  0  0  0
 12 13  1  0  0  0  0
 13 14  2  0  0  0  0
 13 17  1  0  0  0  0
 15 10  1  0  0  0  0
 16 11  1  0  0  0  0
 17 19  1  0  0  0  0
 17 20  1  0  0  0  0
 18 17  1  0  0  0  0
 21 22  1  0  0  0  0
 22 23  2  0  0  0  0
 22 29  1  0  0  0  0
 23 25  1  0  0  0  0
 24 23  1  0  0  0  0
 25 26  1  0  0  0  0
 25 27  2  0  0  0  0
 28 27  1  0  0  0  0
 29 28  2  0  0  0  0
M  END
>  <minimizedAffinity>
-5.69462919

$$$$

 OpenBabel03272502263D

 29 31  0  0  0  0  0  0  0  0999 V2000
   36.2370   28.4980   34.1330 C   0  0  0  0  0  0  0  0  0  0  0  0
   36.8130   27.4920   34.9440 C   0  0  0  0  0  0  0  0  0  0  0  0
   37.4090   26.4030   34.3020 C   0  0  0  0  0  0  0  0  0  0  0  0
   37.3960   26.3830   32.9530 N   0  0  0  0  0  0  0  0  0  0  0  0
   36.8420   27.3520   32.2010 C   0  0  0  0  0  0  0  0  0  0  0  0
   36.2640   28.4070   32.7930 N   0  0  0  0  0  0  0  0  0  0  0  0
   35.7950   29.3100   34.6890 H   0  0  0  0  0  0  0  0  0  0  0  0
   36.8160   27.5210   36.0220 H   0  0  0  0  0  0  0  0  0  0  0  0
   38.0340   25.3080   35.0160 C   0  0  0  0  0  0  0  0  0  0  0  0
   38.8370   24.3980   34.3550 C   0  0  0  0  0  0  0  0  0  0  0  0
   39.4520   23.3440   35.0030 C   0  0  0  0  0  0  0  0  0  0  0  0
   39.2640   23.1870   36.3350 N   0  0  0  0  0  0  0  0  0  0  0  0
   38.4840   24.0790   36.9490 C   0  0  0  0  0  0  0  0  0  0  0  0
   37.8780   25.1100   36.3390 N   0  0  0  0  0  0  0  0  0  0  0  0
   39.0350   24.4560   33.2930 H   0  0  0  0  0  0  0  0  0  0  0  0
   40.0820   22.6360   34.4620 H   0  0  0  0  0  0  0  0  0  0  0  0
   38.2600   23.9350   38.4090 C   0  0  0  0  0  0  0  0  0  0  0  0
   39.4320   23.4140   38.9750 F   0  0  0  0  0  0  0  0  0  0  0  0
   37.9220   25.1290   39.0000 F   0  0  0  0  0  0  0  0  0  0  0  0
   37.2730   23.0200   38.6920 F   0  0  0  0  0  0  0  0  0  0  0  0
   36.9070   27.1940   30.8300 O   0  0  0  0  0  0  0  0  0  0  0  0
   37.5900   28.0220   29.9940 C   0  0  0  0  0  0  0  0  0  0  0  0
   38.9560   28.0250   30.3010 C   0  0  0  0  0  0  0  0  0  0  0  0
   39.4460   27.4500   31.1010 H   0  0  0  0  0  0  0  0  0  0  0  0
   39.8790   28.7950   29.5910 C   0  0  0  0  0  0  0  0  0  0  0  0
   40.9200   28.8210   29.7960 H   0  0  0  0  0  0  0  0  0  0  0  0
   39.4260   29.5790   28.5510 C   0  0  0  0  0  3  0  0  0  0  0  0
   38.0750   29.5530   28.2760 C   0  0  0  0  0  3  0  0  0  0  0  0
   37.2180   28.8060   28.9740 N   0  0  0  0  0  0  0  0  0  0  0  0
  1  7  1  0  0  0  0
  1  2  1  0  0  0  0
  2  8  1  0  0  0  0
  3  2  2  0  0  0  0
  3  9  1  0  0  0  0
  4  3  1  0  0  0  0
  5  6  1  0  0  0  0
  5  4  2  0  0  0  0
  6  1  2  0  0  0  0
  9 14  1  0  0  0  0
 10 11  1  0  0  0  0
 10  9  2  0  0  0  0
 11 12  2  0  0  0  0
 12 13  1  0  0  0  0
 13 17  1  0  0  0  0
 14 13  2  0  0  0  0
 15 10  1  0  0  0  0
 16 11  1  0  0  0  0
 17 20  1  0  0  0  0
 17 18  1  0  0  0  0
 17 19  1  0  0  0  0
 21  5  1  0  0  0  0
 22 23  1  0  0  0  0
 22 21  1  0  0  0  0
 23 24  1  0  0  0  0
 25 26  1  0  0  0  0
 25 23  2  0  0  0  0
 27 25  1  0  0  0  0
 28 27  2  0  0  0  0
 28 29  1  0  0  0  0
 29 22  2  0  0  0  0
M  END
>  <minimizedAffinity>
-5.64557886

$$$$

 OpenBabel03272502263D

 29 31  0  0  0  0  0  0  0  0999 V2000
   36.9970   26.9060   31.9910 C   0  0  0  0  0  0  0  0  0  0  0  0
   37.5030   25.7710   32.6700 C   0  0  0  0  0  0  0  0  0  0  0  0
   37.5470   25.8170   34.0660 C   0  0  0  0  0  0  0  0  0  0  0  0
   37.1070   26.9390   34.6740 N   0  0  0  0  0  0  0  0  0  0  0  0
   36.6300   28.0060   34.0080 C   0  0  0  0  0  0  0  0  0  0  0  0
   36.5770   27.9870   32.6680 N   0  0  0  0  0  0  0  0  0  0  0  0
   36.9900   26.8070   30.9170 H   0  0  0  0  0  0  0  0  0  0  0  0
   37.8510   24.8820   32.1700 H   0  0  0  0  0  0  0  0  0  0  0  0
   38.0400   24.7240   34.8780 C   0  0  0  0  0  0  0  0  0  0  0  0
   38.6420   23.6230   34.2960 C   0  0  0  0  0  0  0  0  0  0  0  0
   39.1260   22.5630   35.0380 C   0  0  0  0  0  0  0  0  0  0  0  0
   39.0110   22.5940   36.3870 N   0  0  0  0  0  0  0  0  0  0  0  0
   38.4270   23.6680   36.9240 C   0  0  0  0  0  0  0  0  0  0  0  0
   37.9500   24.7080   36.2220 N   0  0  0  0  0  0  0  0  0  0  0  0
   38.7700   23.5250   33.2260 H   0  0  0  0  0  0  0  0  0  0  0  0
   39.5970   21.7040   34.5590 H   0  0  0  0  0  0  0  0  0  0  0  0
   38.2870   23.7320   38.4000 C   0  0  0  0  0  0  0  0  0  0  0  0
   39.5060   23.3340   38.9650 F   0  0  0  0  0  0  0  0  0  0  0  0
   37.9380   24.9890   38.8310 F   0  0  0  0  0  0  0  0  0  0  0  0
   37.3520   22.8400   38.8690 F   0  0  0  0  0  0  0  0  0  0  0  0
   36.2150   29.0830   34.7680 O   0  0  0  0  0  0  0  0  0  0  0  0
   35.1370   29.8590   34.4720 C   0  0  0  0  0  0  0  0  0  0  0  0
   35.5120   31.2020   34.3360 C   0  0  0  0  0  0  0  0  0  0  0  0
   36.5280   31.6110   34.4460 H   0  0  0  0  0  0  0  0  0  0  0  0
   34.5900   32.2070   34.0330 C   0  0  0  0  0  0  0  0  0  0  0  0
   34.8390   33.2330   33.9220 H   0  0  0  0  0  0  0  0  0  0  0  0
   33.2660   31.8620   33.8620 C   0  0  0  0  0  3  0  0  0  0  0  0
   32.9320   30.5310   34.0030 C   0  0  0  0  0  3  0  0  0  0  0  0
   33.8370   29.5950   34.2940 N   0  0  0  0  0  0  0  0  0  0  0  0
  1  6  2  0  0  0  0
  1  2  1  0  0  0  0
  2  3  2  0  0  0  0
  3  4  1  0  0  0  0
  3  9  1  0  0  0  0
  5  4  2  0  0  0  0
  5 21  1  0  0  0  0
  6  5  1  0  0  0  0
  7  1  1  0  0  0  0
  8  2  1  0  0  0  0
  9 14  1  0  0  0  0
 10  9  2  0  0  0  0
 10 11  1  0  0  0  0
 11 12  2  0  0  0  0
 12 13  1  0  0  0  0
 13 17  1  0  0  0  0
 14 13  2  0  0  0  0
 15 10  1  0  0  0  0
 16 11  1  0  0  0  0
 17 19  1  0  0  0  0
 17 20  1  0  0  0  0
 17 18  1  0  0  0  0
 22 21  1  0  0  0  0
 23 24  1  0  0  0  0
 23 22  1  0  0  0  0
 25 23  2  0  0  0  0
 26 25  1  0  0  0  0
 27 28  2  0  0  0  0
 27 25  1  0  0  0  0
 28 29  1  0  0  0  0
 29 22  2  0  0  0  0
M  END
>  <minimizedAffinity>
-5.62101078

$$$$
