
     RDKit          3D

 41 43  0  0  0  0  0  0  0  0999 V2000
   37.0798   30.9492   49.0273 C   0  0  0  0  0  0  0  0  0  0  0  0
   36.8093   31.8795   50.0328 C   0  0  0  0  0  0  0  0  0  0  0  0
   37.4215   33.1219   50.0642 C   0  0  0  0  0  0  0  0  0  0  0  0
   38.3400   33.4602   49.0594 C   0  0  0  0  0  0  0  0  0  0  0  0
   38.5909   32.5413   48.0881 C   0  0  0  0  0  0  0  0  0  0  0  0
   37.9611   31.3044   48.0853 C   0  0  0  0  0  0  0  0  0  0  0  0
   36.4656   29.6386   49.0175 C   0  0  1  0  0  0  0  0  0  0  0  0
   36.8633   28.9001   49.9923 O   0  0  0  0  0  0  0  0  0  0  0  0
   33.6138   30.1479   46.8229 C   0  0  0  0  0  0  0  0  0  0  0  0
   32.9531   28.9330   46.8460 C   0  0  0  0  0  0  0  0  0  0  0  0
   33.4476   27.9384   47.6690 C   0  0  0  0  0  0  0  0  0  0  0  0
   34.5694   28.1868   48.4284 N   0  0  0  0  0  0  0  0  0  0  0  0
   35.1561   29.3640   48.3611 C   0  0  0  0  0  0  0  0  0  0  0  0
   34.6855   30.3508   47.5638 N   0  0  0  0  0  0  0  0  0  0  0  0
   38.3438   30.4168   47.0119 C   0  0  0  0  0  0  0  0  0  0  0  0
   38.8211   30.8365   45.8352 C   0  0  0  0  0  0  0  0  0  0  0  0
   39.2870   30.0233   44.6899 C   0  0  0  0  0  0  0  0  0  0  0  0
   39.1840   30.9932   43.1790 S   0  0  0  0  0  0  0  0  0  0  0  0
   36.0831   31.5646   50.7938 H   0  0  0  0  0  0  0  0  0  0  0  0
   37.1132   33.7317   50.9007 H   0  0  0  0  0  0  0  0  0  0  0  0
   38.7613   34.4364   49.1635 H   0  0  0  0  0  0  0  0  0  0  0  0
   39.3240   32.9434   47.3817 H   0  0  0  0  0  0  0  0  0  0  0  0
   37.0074   29.0578   48.1763 H   0  0  0  0  0  0  0  0  0  0  0  0
   36.2983   28.2085   50.4079 H   0  0  0  0  0  0  0  0  0  0  0  0
   33.2237   30.9368   46.1728 H   0  0  0  0  0  0  0  0  0  0  0  0
   32.0815   28.7363   46.2552 H   0  0  0  0  0  0  0  0  0  0  0  0
   33.0008   26.9585   47.7569 H   0  0  0  0  0  0  0  0  0  0  0  0
   38.3586   29.3276   46.8955 H   0  0  0  0  0  0  0  0  0  0  0  0
   38.9190   31.9328   45.6903 H   0  0  0  0  0  0  0  0  0  0  0  0
   40.3575   29.7908   44.8630 H   0  0  0  0  0  0  0  0  0  0  0  0
   38.6510   29.1228   44.6161 H   0  0  0  0  0  0  0  0  0  0  0  0
   37.4747   31.3558   42.7576 C   0  0  0  0  0  0  0  0  0  0  0  0
   36.9402   30.3595   41.9331 C   0  0  0  0  0  0  0  0  0  0  0  0
   37.4388   29.4815   41.5697 H   0  0  0  0  0  0  0  0  0  0  0  0
   35.6156   30.4955   41.5222 C   0  0  0  0  0  0  0  0  0  0  0  0
   35.1458   29.7572   40.8835 H   0  0  0  0  0  0  0  0  0  0  0  0
   34.8976   31.6067   41.9496 C   0  0  0  0  0  0  0  0  0  0  0  0
   35.4945   32.5440   42.7605 C   0  0  0  0  0  0  0  0  0  0  0  0
   36.7660   32.4167   43.1568 N   0  0  0  0  0  0  0  0  0  0  0  0
   33.8661   31.6697   41.6027 H   0  0  0  0  0  0  0  0  0  0  0  0
   34.9316   33.3984   43.0865 H   0  0  0  0  0  0  0  0  0  0  0  0
  1  7  1  0
  1  2  2  0
  2  3  1  0
  4  3  2  0
  5  6  2  0
  5  4  1  0
  6  1  1  0
  7  8  1  0
  9 10  2  0
  9 14  1  0
 10 11  1  0
 11 12  2  0
 13 12  1  0
 13  7  1  0
 14 13  2  0
 15  6  1  0
 16 15  2  0
 17 16  1  0
 18 17  1  0
  2 19  1  0
  3 20  1  0
  4 21  1  0
  5 22  1  0
  7 23  1  6
  8 24  1  0
  9 25  1  0
 10 26  1  0
 11 27  1  0
 15 28  1  0
 16 29  1  0
 17 30  1  0
 17 31  1  0
 32 33  2  0
 33 34  1  0
 33 35  1  0
 35 36  1  0
 35 37  2  0
 37 38  1  0
 38 39  2  0
 39 32  1  0
 37 40  1  0
 38 41  1  0
 18 32  1  0
M  ISO  8  19  14  20  14  21  14  22  14  23   8  24   3  25  14  26  14
M  ISO  5  27  14  30   8  31   8  34  15  36  16
M  END
>  <DihAtoms>  (1) 
16,17,31,32

>  <DihDeg>  (1) 
-90.2643587219711

$$$$
