REMARK  Name = 
REMARK  3 active torsions:
REMARK  status: ('A' for Active; 'I' for Inactive)
REMARK    1  A    between atoms: C_1  and  C_7
REMARK    2  A    between atoms: C_8  and  O_10
REMARK    3  A    between atoms: O_10  and  C_18
REMARK                            x       y       z     vdW  Elec       q    Type
REMARK                         _______ _______ _______ _____ _____    ______ ____
ROOT
ATOM      1  C   UNL     1      36.635  31.035  50.492  0.00  0.00    +0.000 C 
ATOM      2  C   UNL     1      36.139  29.688  50.660  0.00  0.00    +0.000 C 
ATOM      3  C   UNL     1      37.341  30.105  51.481  0.00  0.00    +0.000 C 
ATOM      4  H   UNL     1      36.078  31.891  50.953  0.00  0.00    +0.000 HD
ATOM      5  H   UNL     1      35.166  29.526  51.169  0.00  0.00    +0.000 HD
ATOM      6  H   UNL     1      37.088  30.314  52.536  0.00  0.00    +0.000 HD
ATOM      7  H   UNL     1      38.330  29.724  51.240  0.00  0.00    +0.000 HD
ENDROOT
BRANCH   1   8
ATOM      8  C   UNL     1      37.520  31.404  49.330  0.00  0.00    +0.000 A 
ATOM      9  C   UNL     1      38.154  32.644  49.411  0.00  0.00    +0.000 A 
ATOM     10  C   UNL     1      38.948  32.977  48.305  0.00  0.00    +0.000 A 
ATOM     11  N   UNL     1      39.069  32.115  47.234  0.00  0.00    +0.000 NA
ATOM     12  C   UNL     1      38.423  30.921  47.220  0.00  0.00    +0.000 A 
ATOM     13  N   UNL     1      37.644  30.568  48.281  0.00  0.00    +0.000 NA
ATOM     14  H   UNL     1      38.053  33.310  50.254  0.00  0.00    +0.000 HD
ATOM     15  H   UNL     1      39.476  33.936  48.299  0.00  0.00    +0.000 HD
ATOM     16  H   UNL     1      38.564  30.298  46.348  0.00  0.00    +0.000 HD
ENDBRANCH   1   8
BRANCH   2  17
ATOM     17  O   UNL     1      36.403  28.732  49.665  0.00  0.00    +0.000 OA
BRANCH  17  18
ATOM     18  C   UNL     1      35.540  27.695  49.350  0.00  0.00    +0.000 A 
ATOM     19  C   UNL     1      35.789  26.550  50.100  0.00  0.00    +0.000 A 
ATOM     20  H   UNL     1      36.571  26.450  50.861  0.00  0.00    +0.000 HD
ATOM     21  C   UNL     1      34.992  25.426  49.885  0.00  0.00    +0.000 A 
ATOM     22  H   UNL     1      35.101  24.475  50.418  0.00  0.00    +0.000 HD
ATOM     23  C   UNL     1      33.990  25.443  48.961  0.00  0.00    +0.000 A 
ATOM     24  C   UNL     1      33.791  26.604  48.249  0.00  0.00    +0.000 A 
ATOM     25  N   UNL     1      34.547  27.702  48.439  0.00  0.00    +0.000 NA
ENDBRANCH  17  18
ENDBRANCH   2  17
TORSDOF 3
