
 OpenBabel03272508023D

 27 29  0  0  0  0  0  0  0  0999 V2000
   34.9890   31.3250   43.3780 C   0  0  0  0  0  0  0  0  0  0  0  0
   35.1650   30.1550   44.0760 C   0  0  0  0  0  0  0  0  0  0  0  0
   36.4580   30.1440   44.6280 C   0  0  0  0  0  0  0  0  0  0  0  0
   37.0070   31.3250   44.2310 N   0  0  0  0  0  0  0  0  0  0  0  0
   36.1410   31.9910   43.5100 N   0  0  0  0  0  0  0  0  0  0  0  0
   34.3720   29.4120   44.1350 H   0  0  0  0  0  0  0  0  0  0  0  0
   36.7340   29.2920   45.1980 H   0  0  0  0  0  0  0  0  0  0  0  0
   33.8000   31.7570   42.6450 C   0  0  0  0  0  0  0  0  0  0  0  0
   33.5880   33.1440   42.4820 C   0  0  0  0  0  0  0  0  0  0  0  0
   32.4520   33.5630   41.7820 C   0  0  0  0  0  0  0  0  0  0  0  0
   31.6220   32.6000   41.3010 N   0  0  0  0  0  0  0  0  0  0  0  0
   31.8390   31.2840   41.4660 C   0  0  0  0  0  0  0  0  0  0  0  0
   32.9370   30.8840   42.1430 N   0  0  0  0  0  0  0  0  0  0  0  0
   34.2590   33.8770   42.8700 H   0  0  0  0  0  0  0  0  0  0  0  0
   31.1290   30.5790   41.0530 H   0  0  0  0  0  0  0  0  0  0  0  0
   32.2220   35.0230   41.6040 C   0  0  0  0  0  0  0  0  0  0  0  0
   31.8920   35.1980   40.2850 F   0  0  0  0  0  0  0  0  0  0  0  0
   31.1690   35.4830   42.3820 F   0  0  0  0  0  0  0  0  0  0  0  0
   33.3590   35.7680   41.8750 F   0  0  0  0  0  0  0  0  0  0  0  0
   38.3400   31.6110   44.6420 C   0  0  0  0  0  0  0  0  0  0  0  0
   39.2140   30.7640   45.2860 C   0  0  0  0  0  0  0  0  0  0  0  0
   38.8190   29.7770   45.4900 H   0  0  0  0  0  0  0  0  0  0  0  0
   40.4700   31.1950   45.6150 C   0  0  0  0  0  0  0  0  0  0  0  0
   41.1430   30.4980   46.1260 H   0  0  0  0  0  0  0  0  0  0  0  0
   40.9180   32.4630   45.3290 C   0  0  0  0  0  3  0  0  0  0  0  0
   39.9940   33.2860   44.6750 C   0  0  0  0  0  3  0  0  0  0  0  0
   38.7340   32.8780   44.3370 N   0  0  0  0  0  0  0  0  0  0  0  0
  1  5  2  0  0  0  0
  1  2  1  0  0  0  0
  2  6  1  0  0  0  0
  2  3  2  0  0  0  0
  3  7  1  0  0  0  0
  4  3  1  0  0  0  0
  4 20  1  0  0  0  0
  5  4  1  0  0  0  0
  8  1  1  0  0  0  0
  9  8  1  0  0  0  0
  9 14  1  0  0  0  0
 10  9  2  0  0  0  0
 11 12  2  0  0  0  0
 11 10  1  0  0  0  0
 12 13  1  0  0  0  0
 13  8  2  0  0  0  0
 15 12  1  0  0  0  0
 16 10  1  0  0  0  0
 16 19  1  0  0  0  0
 16 18  1  0  0  0  0
 17 16  1  0  0  0  0
 20 21  1  0  0  0  0
 21 22  1  0  0  0  0
 21 23  2  0  0  0  0
 23 24  1  0  0  0  0
 25 23  1  0  0  0  0
 26 25  2  0  0  0  0
 27 20  2  0  0  0  0
 27 26  1  0  0  0  0
M  END
>  <minimizedAffinity>
-4.08862925

>  <minimizedRMSD>
7.1160903

$$$$
