
 OpenBabel03272504433D

 44 46  0  0  0  0  0  0  0  0999 V2000
   39.1850   25.5970   30.7140 C   0  0  0  0  0  0  0  0  0  0  0  0
   39.8280   24.6980   30.5680 H   0  0  0  0  0  0  0  0  0  0  0  0
   39.2130   26.0930   29.6980 H   0  0  0  0  0  0  0  0  0  0  0  0
   38.8510   22.7480   31.5050 Cl  0  0  0  0  0  0  0  0  0  0  0  0
   37.5120   23.8800   31.3090 C   0  0  0  0  0  0  0  0  0  0  0  0
   36.2510   23.4500   31.5230 C   0  0  0  0  0  0  0  0  0  0  0  0
   35.1930   24.3230   31.3750 C   0  0  0  0  0  0  0  0  0  0  0  0
   35.4520   25.6370   31.0030 C   0  0  0  0  0  0  0  0  0  0  0  0
   36.7960   26.0070   30.7960 C   0  0  0  0  0  0  0  0  0  0  0  0
   37.8370   25.1660   30.9380 C   0  0  0  0  0  0  0  0  0  0  0  0
   34.1780   23.9490   31.5560 H   0  0  0  0  0  0  0  0  0  0  0  0
   34.5700   26.2310   30.9140 H   0  0  0  0  0  0  0  0  0  0  0  0
   36.7800   27.0000   30.5280 H   0  0  0  0  0  0  0  0  0  0  0  0
   35.5900   19.8260   31.4000 C   0  0  0  0  0  0  0  0  0  0  0  0
   35.4700   19.5280   32.7940 C   0  0  0  0  0  0  0  0  0  0  0  0
   35.6210   20.5780   33.7010 C   0  0  0  0  0  0  0  0  0  0  0  0
   35.8740   21.8330   33.2390 N   0  0  0  0  0  0  0  0  0  0  0  0
   35.9810   22.0760   31.9100 C   0  0  0  0  0  0  0  0  0  0  0  0
   35.8400   21.0850   31.0270 N   0  0  0  0  0  0  0  0  0  0  0  0
   35.4760   19.0190   30.6870 H   0  0  0  0  0  0  0  0  0  0  0  0
   35.2690   18.4990   33.0360 H   0  0  0  0  0  0  0  0  0  0  0  0
   35.4940   20.2560   35.0690 N   0  0  0  0  0  0  0  0  0  0  0  0
   34.4950   19.9900   35.2810 H   0  0  0  0  0  0  0  0  0  0  0  0
   36.2260   20.2580   35.8160 H   0  0  0  0  0  0  0  0  0  0  0  0
   39.8540   26.4670   31.6830 C   0  0  0  0  0  0  0  0  0  0  0  0
   40.7330   26.9580   31.1760 H   0  0  0  0  0  0  0  0  0  0  0  0
   39.2260   27.3210   32.0320 H   0  0  0  0  0  0  0  0  0  0  0  0
   40.2330   25.7760   32.8040 O   0  0  0  0  0  0  0  0  0  0  0  0
   40.2430   26.7980   35.2240 O   0  0  0  0  0  0  0  0  0  0  0  0
   39.3520   26.2700   34.1270 P   0  0  2  0  0  0  0  0  0  0  0  0
   38.5100   24.8660   34.6950 O   0  0  0  0  0  0  0  0  0  0  0  0
   38.6720   24.3340   35.9450 C   0  0  0  0  0  0  0  0  0  0  0  0
   37.9570   24.5550   37.0980 C   0  0  0  0  0  0  0  0  0  0  0  0
   37.1590   25.2480   36.9870 H   0  0  0  0  0  0  0  0  0  0  0  0
   38.2720   23.9200   38.2800 C   0  0  0  0  0  0  0  0  0  0  0  0
   37.6820   24.1270   39.1530 H   0  0  0  0  0  0  0  0  0  0  0  0
   39.3280   23.0380   38.3180 C   0  0  0  0  0  3  0  0  0  0  0  0
   40.0350   22.8270   37.1530 C   0  0  0  0  0  3  0  0  0  0  0  0
   39.7190   23.4590   35.9890 N   0  0  0  0  0  0  0  0  0  0  0  0
   38.1920   27.3890   33.7600 O   0  0  0  0  0  0  0  0  0  0  0  0
   37.3580   27.6050   34.8380 C   0  0  0  0  0  0  0  0  0  0  0  0
   38.0600   27.6990   36.0390 F   0  0  0  0  0  0  0  0  0  0  0  0
   36.6850   28.8010   34.7150 F   0  0  0  0  0  0  0  0  0  0  0  0
   36.4420   26.5640   34.9510 F   0  0  0  0  0  0  0  0  0  0  0  0
  1 10  1  0  0  0  0
  1 25  1  0  0  0  0
  2  1  1  0  0  0  0
  3  1  1  0  0  0  0
  5  4  1  0  0  0  0
  5  6  1  0  0  0  0
  6 18  1  0  0  0  0
  7  6  2  0  0  0  0
  7 11  1  0  0  0  0
  8  7  1  0  0  0  0
  9 10  1  0  0  0  0
  9  8  2  0  0  0  0
 10  5  2  0  0  0  0
 12  8  1  0  0  0  0
 13  9  1  0  0  0  0
 14 15  1  0  0  0  0
 15 21  1  0  0  0  0
 15 16  2  0  0  0  0
 16 22  1  0  0  0  0
 17 16  1  0  0  0  0
 18 17  2  0  0  0  0
 19 14  2  0  0  0  0
 19 18  1  0  0  0  0
 20 14  1  0  0  0  0
 22 23  1  0  0  0  0
 22 24  1  0  0  0  0
 25 27  1  0  0  0  0
 25 28  1  0  0  0  0
 26 25  1  0  0  0  0
 28 30  1  0  0  0  0
 30 31  1  0  0  0  0
 30 29  2  1  0  0  0
 31 32  1  0  0  0  0
 32 39  2  0  0  0  0
 32 33  1  0  0  0  0
 33 35  2  0  0  0  0
 34 33  1  0  0  0  0
 35 37  1  0  0  0  0
 35 36  1  0  0  0  0
 38 37  2  0  0  0  0
 39 38  1  0  0  0  0
 40 30  1  0  0  0  0
 40 41  1  0  0  0  0
 41 44  1  0  0  0  0
 41 42  1  0  0  0  0
 43 41  1  0  0  0  0
M  END
>  <minimizedAffinity>
-6.26516819

$$$$

 OpenBabel03272504433D

 44 46  0  0  0  0  0  0  0  0999 V2000
   36.7230   28.0020   33.6510 C   0  0  0  0  0  0  0  0  0  0  0  0
   35.8930   28.0780   34.3900 H   0  0  0  0  0  0  0  0  0  0  0  0
   37.5730   28.5350   34.1730 H   0  0  0  0  0  0  0  0  0  0  0  0
   38.4270   26.9170   35.8350 Cl  0  0  0  0  0  0  0  0  0  0  0  0
   37.8870   25.9740   34.4460 C   0  0  0  0  0  0  0  0  0  0  0  0
   38.2580   24.6800   34.3450 C   0  0  0  0  0  0  0  0  0  0  0  0
   37.8430   23.9290   33.2660 C   0  0  0  0  0  0  0  0  0  0  0  0
   37.0460   24.5270   32.2950 C   0  0  0  0  0  0  0  0  0  0  0  0
   36.7040   25.8820   32.4730 C   0  0  0  0  0  0  0  0  0  0  0  0
   37.1010   26.6260   33.5220 C   0  0  0  0  0  0  0  0  0  0  0  0
   38.1570   22.8800   33.2070 H   0  0  0  0  0  0  0  0  0  0  0  0
   36.7800   23.8640   31.5030 H   0  0  0  0  0  0  0  0  0  0  0  0
   36.1240   26.1380   31.6630 H   0  0  0  0  0  0  0  0  0  0  0  0
   41.1510   23.2590   36.1330 C   0  0  0  0  0  0  0  0  0  0  0  0
   40.5380   22.8660   37.3640 C   0  0  0  0  0  0  0  0  0  0  0  0
   39.1720   23.1060   37.5190 C   0  0  0  0  0  0  0  0  0  0  0  0
   38.4760   23.6980   36.5110 N   0  0  0  0  0  0  0  0  0  0  0  0
   39.0920   24.0570   35.3580 C   0  0  0  0  0  0  0  0  0  0  0  0
   40.3980   23.8350   35.1910 N   0  0  0  0  0  0  0  0  0  0  0  0
   42.2100   23.0780   36.0020 H   0  0  0  0  0  0  0  0  0  0  0  0
   41.1920   22.4070   38.0860 H   0  0  0  0  0  0  0  0  0  0  0  0
   38.5940   22.7050   38.7420 N   0  0  0  0  0  0  0  0  0  0  0  0
   38.5890   21.6520   38.8060 H   0  0  0  0  0  0  0  0  0  0  0  0
   38.2070   23.2970   39.5130 H   0  0  0  0  0  0  0  0  0  0  0  0
   36.3350   28.7760   32.4690 C   0  0  0  0  0  0  0  0  0  0  0  0
   36.8100   29.7960   32.5390 H   0  0  0  0  0  0  0  0  0  0  0  0
   36.7210   28.3570   31.5090 H   0  0  0  0  0  0  0  0  0  0  0  0
   34.9730   28.8550   32.3430 O   0  0  0  0  0  0  0  0  0  0  0  0
   34.4550   30.9900   30.9040 O   0  0  0  0  0  0  0  0  0  0  0  0
   34.4750   30.4430   32.3100 P   0  0  2  0  0  0  0  0  0  0  0  0
   35.6290   31.3280   33.2530 O   0  0  0  0  0  0  0  0  0  0  0  0
   35.3510   31.8860   34.4700 C   0  0  0  0  0  0  0  0  0  0  0  0
   35.4350   31.3450   35.7310 C   0  0  0  0  0  0  0  0  0  0  0  0
   35.7680   30.3360   35.7470 H   0  0  0  0  0  0  0  0  0  0  0  0
   35.1070   32.0700   36.8560 C   0  0  0  0  0  0  0  0  0  0  0  0
   35.1890   31.6010   37.8180 H   0  0  0  0  0  0  0  0  0  0  0  0
   34.6850   33.3740   36.7250 C   0  0  0  0  0  3  0  0  0  0  0  0
   34.6060   33.9030   35.4540 C   0  0  0  0  0  3  0  0  0  0  0  0
   34.9310   33.1790   34.3470 N   0  0  0  0  0  0  0  0  0  0  0  0
   33.0060   30.6850   33.0270 O   0  0  0  0  0  0  0  0  0  0  0  0
   32.5680   29.5350   33.6490 C   0  0  0  0  0  0  0  0  0  0  0  0
   33.4930   29.0450   34.5690 F   0  0  0  0  0  0  0  0  0  0  0  0
   31.4210   29.7690   34.3770 F   0  0  0  0  0  0  0  0  0  0  0  0
   32.3260   28.5410   32.7060 F   0  0  0  0  0  0  0  0  0  0  0  0
  1  3  1  0  0  0  0
  1  2  1  0  0  0  0
  5  4  1  0  0  0  0
  6  5  1  0  0  0  0
  6 18  1  0  0  0  0
  7  6  2  0  0  0  0
  8  9  2  0  0  0  0
  8  7  1  0  0  0  0
  9 10  1  0  0  0  0
 10  1  1  0  0  0  0
 10  5  2  0  0  0  0
 11  7  1  0  0  0  0
 12  8  1  0  0  0  0
 13  9  1  0  0  0  0
 14 15  1  0  0  0  0
 15 16  2  0  0  0  0
 15 21  1  0  0  0  0
 16 22  1  0  0  0  0
 17 16  1  0  0  0  0
 18 17  2  0  0  0  0
 19 18  1  0  0  0  0
 19 14  2  0  0  0  0
 20 14  1  0  0  0  0
 22 23  1  0  0  0  0
 22 24  1  0  0  0  0
 25 26  1  0  0  0  0
 25  1  1  0  0  0  0
 27 25  1  0  0  0  0
 28 25  1  0  0  0  0
 30 29  2  6  0  0  0
 30 28  1  0  0  0  0
 30 40  1  0  0  0  0
 30 31  1  0  0  0  0
 31 32  1  0  0  0  0
 32 33  1  0  0  0  0
 33 34  1  0  0  0  0
 33 35  2  0  0  0  0
 35 36  1  0  0  0  0
 37 35  1  0  0  0  0
 38 37  2  0  0  0  0
 39 32  2  0  0  0  0
 39 38  1  0  0  0  0
 40 41  1  0  0  0  0
 41 43  1  0  0  0  0
 41 42  1  0  0  0  0
 44 41  1  0  0  0  0
M  END
>  <minimizedAffinity>
-6.0120306

$$$$

 OpenBabel03272504433D

 44 46  0  0  0  0  0  0  0  0999 V2000
   38.9970   26.4560   33.6600 C   0  0  0  0  0  0  0  0  0  0  0  0
   40.0570   26.7980   33.6700 H   0  0  0  0  0  0  0  0  0  0  0  0
   38.6330   26.7330   34.6940 H   0  0  0  0  0  0  0  0  0  0  0  0
   36.6580   27.9240   34.7650 Cl  0  0  0  0  0  0  0  0  0  0  0  0
   37.1560   27.9940   33.0750 C   0  0  0  0  0  0  0  0  0  0  0  0
   36.4480   28.7520   32.2110 C   0  0  0  0  0  0  0  0  0  0  0  0
   36.8250   28.8190   30.8860 C   0  0  0  0  0  0  0  0  0  0  0  0
   37.9360   28.0950   30.4660 C   0  0  0  0  0  0  0  0  0  0  0  0
   38.6210   27.3280   31.4280 C   0  0  0  0  0  0  0  0  0  0  0  0
   38.2640   27.2550   32.7230 C   0  0  0  0  0  0  0  0  0  0  0  0
   36.2340   29.4420   30.2050 H   0  0  0  0  0  0  0  0  0  0  0  0
   38.1450   28.2120   29.4260 H   0  0  0  0  0  0  0  0  0  0  0  0
   39.3970   26.8720   30.9300 H   0  0  0  0  0  0  0  0  0  0  0  0
   34.2850   31.4170   33.5540 C   0  0  0  0  0  0  0  0  0  0  0  0
   32.9990   30.8000   33.4420 C   0  0  0  0  0  0  0  0  0  0  0  0
   32.9380   29.5100   32.9150 C   0  0  0  0  0  0  0  0  0  0  0  0
   34.0860   28.8870   32.5290 N   0  0  0  0  0  0  0  0  0  0  0  0
   35.2860   29.5050   32.6500 C   0  0  0  0  0  0  0  0  0  0  0  0
   35.3650   30.7390   33.1530 N   0  0  0  0  0  0  0  0  0  0  0  0
   34.3440   32.4180   33.9620 H   0  0  0  0  0  0  0  0  0  0  0  0
   32.1660   31.3920   33.7800 H   0  0  0  0  0  0  0  0  0  0  0  0
   31.6580   28.9250   32.8190 N   0  0  0  0  0  0  0  0  0  0  0  0
   31.2810   28.7310   33.7850 H   0  0  0  0  0  0  0  0  0  0  0  0
   31.1050   28.6890   31.9630 H   0  0  0  0  0  0  0  0  0  0  0  0
   39.0060   24.9960   33.5380 C   0  0  0  0  0  0  0  0  0  0  0  0
   38.8910   24.7270   32.4490 H   0  0  0  0  0  0  0  0  0  0  0  0
   39.9720   24.5240   33.8370 H   0  0  0  0  0  0  0  0  0  0  0  0
   38.0330   24.4190   34.3110 O   0  0  0  0  0  0  0  0  0  0  0  0
   40.1300   23.3710   35.4950 O   0  0  0  0  0  0  0  0  0  0  0  0
   38.6610   23.1710   35.2160 P   0  0  2  0  0  0  0  0  0  0  0  0
   38.4470   21.7360   34.2680 O   0  0  0  0  0  0  0  0  0  0  0  0
   37.4000   21.5390   33.4100 C   0  0  0  0  0  0  0  0  0  0  0  0
   36.1240   21.0950   33.6600 C   0  0  0  0  0  0  0  0  0  0  0  0
   35.9350   20.8750   34.6830 H   0  0  0  0  0  0  0  0  0  0  0  0
   35.1930   20.9560   32.6540 C   0  0  0  0  0  0  0  0  0  0  0  0
   34.2090   20.6050   32.9020 H   0  0  0  0  0  0  0  0  0  0  0  0
   35.5400   21.2690   31.3590 C   0  0  0  0  0  3  0  0  0  0  0  0
   36.8240   21.7130   31.1230 C   0  0  0  0  0  3  0  0  0  0  0  0
   37.7390   21.8470   32.1240 N   0  0  0  0  0  0  0  0  0  0  0  0
   37.8510   22.9170   36.6330 O   0  0  0  0  0  0  0  0  0  0  0  0
   38.2640   23.8070   37.6030 C   0  0  0  0  0  0  0  0  0  0  0  0
   38.4310   25.0960   37.1010 F   0  0  0  0  0  0  0  0  0  0  0  0
   37.3240   23.9250   38.6040 F   0  0  0  0  0  0  0  0  0  0  0  0
   39.4760   23.3940   38.1480 F   0  0  0  0  0  0  0  0  0  0  0  0
  1  2  1  0  0  0  0
  1  3  1  0  0  0  0
  5  4  1  0  0  0  0
  6 18  1  0  0  0  0
  6  5  2  0  0  0  0
  7  6  1  0  0  0  0
  8  7  2  0  0  0  0
  8  9  1  0  0  0  0
  9 10  2  0  0  0  0
 10  5  1  0  0  0  0
 10  1  1  0  0  0  0
 11  7  1  0  0  0  0
 12  8  1  0  0  0  0
 13  9  1  0  0  0  0
 14 20  1  0  0  0  0
 15 14  1  0  0  0  0
 15 21  1  0  0  0  0
 16 15  2  0  0  0  0
 17 18  2  0  0  0  0
 17 16  1  0  0  0  0
 18 19  1  0  0  0  0
 19 14  2  0  0  0  0
 22 16  1  0  0  0  0
 22 23  1  0  0  0  0
 24 22  1  0  0  0  0
 25  1  1  0  0  0  0
 25 27  1  0  0  0  0
 25 28  1  0  0  0  0
 26 25  1  0  0  0  0
 28 30  1  0  0  0  0
 30 29  2  1  0  0  0
 30 40  1  0  0  0  0
 31 30  1  0  0  0  0
 32 33  1  0  0  0  0
 32 31  1  0  0  0  0
 33 34  1  0  0  0  0
 35 36  1  0  0  0  0
 35 33  2  0  0  0  0
 37 35  1  0  0  0  0
 38 37  2  0  0  0  0
 38 39  1  0  0  0  0
 39 32  2  0  0  0  0
 40 41  1  0  0  0  0
 41 44  1  0  0  0  0
 41 43  1  0  0  0  0
 42 41  1  0  0  0  0
M  END
>  <minimizedAffinity>
-6.00086451

$$$$

 OpenBabel03272504433D

 44 46  0  0  0  0  0  0  0  0999 V2000
   38.8960   24.3050   32.3470 C   0  0  0  0  0  0  0  0  0  0  0  0
   39.0890   23.3870   31.7450 H   0  0  0  0  0  0  0  0  0  0  0  0
   39.7320   24.9960   32.0270 H   0  0  0  0  0  0  0  0  0  0  0  0
   38.7080   27.2620   32.6160 Cl  0  0  0  0  0  0  0  0  0  0  0  0
   37.4210   26.2480   31.9630 C   0  0  0  0  0  0  0  0  0  0  0  0
   36.2710   26.8260   31.5560 C   0  0  0  0  0  0  0  0  0  0  0  0
   35.2540   26.0480   31.0430 C   0  0  0  0  0  0  0  0  0  0  0  0
   35.4390   24.6720   30.9570 C   0  0  0  0  0  0  0  0  0  0  0  0
   36.6660   24.1460   31.4030 C   0  0  0  0  0  0  0  0  0  0  0  0
   37.6660   24.8940   31.9050 C   0  0  0  0  0  0  0  0  0  0  0  0
   34.3310   26.5420   30.7190 H   0  0  0  0  0  0  0  0  0  0  0  0
   34.5970   24.1600   30.5480 H   0  0  0  0  0  0  0  0  0  0  0  0
   36.6090   23.1290   31.2630 H   0  0  0  0  0  0  0  0  0  0  0  0
   35.4670   30.1930   32.8220 C   0  0  0  0  0  0  0  0  0  0  0  0
   35.7620   30.9900   31.6720 C   0  0  0  0  0  0  0  0  0  0  0  0
   36.2200   30.3370   30.5260 C   0  0  0  0  0  0  0  0  0  0  0  0
   36.3690   28.9840   30.5390 N   0  0  0  0  0  0  0  0  0  0  0  0
   36.0780   28.2630   31.6500 C   0  0  0  0  0  0  0  0  0  0  0  0
   35.6400   28.8700   32.7550 N   0  0  0  0  0  0  0  0  0  0  0  0
   35.1120   30.6900   33.7170 H   0  0  0  0  0  0  0  0  0  0  0  0
   35.6050   32.0480   31.7830 H   0  0  0  0  0  0  0  0  0  0  0  0
   36.5000   31.1470   29.4050 N   0  0  0  0  0  0  0  0  0  0  0  0
   35.6030   31.5510   29.0240 H   0  0  0  0  0  0  0  0  0  0  0  0
   37.4230   31.3600   28.9620 H   0  0  0  0  0  0  0  0  0  0  0  0
   39.0840   23.9570   33.7570 C   0  0  0  0  0  0  0  0  0  0  0  0
   39.6740   22.9980   33.8130 H   0  0  0  0  0  0  0  0  0  0  0  0
   39.7020   24.6940   34.3240 H   0  0  0  0  0  0  0  0  0  0  0  0
   37.8870   23.8590   34.4160 O   0  0  0  0  0  0  0  0  0  0  0  0
   39.2940   22.0020   35.6290 O   0  0  0  0  0  0  0  0  0  0  0  0
   37.9140   22.5970   35.5010 P   0  0  2  0  0  0  0  0  0  0  0  0
   36.8290   21.4000   34.8710 O   0  0  0  0  0  0  0  0  0  0  0  0
   36.7180   21.0960   33.5420 C   0  0  0  0  0  0  0  0  0  0  0  0
   37.6920   20.7950   32.6200 C   0  0  0  0  0  0  0  0  0  0  0  0
   38.6780   20.8050   33.0140 H   0  0  0  0  0  0  0  0  0  0  0  0
   37.3850   20.5120   31.3060 C   0  0  0  0  0  0  0  0  0  0  0  0
   38.1830   20.2840   30.6260 H   0  0  0  0  0  0  0  0  0  0  0  0
   36.0710   20.5270   30.8970 C   0  0  0  0  0  3  0  0  0  0  0  0
   35.1050   20.8310   31.8340 C   0  0  0  0  0  3  0  0  0  0  0  0
   35.4160   21.1100   33.1300 N   0  0  0  0  0  0  0  0  0  0  0  0
   37.3380   23.0040   36.9950 O   0  0  0  0  0  0  0  0  0  0  0  0
   38.2320   23.8160   37.6620 C   0  0  0  0  0  0  0  0  0  0  0  0
   38.7730   24.7980   36.8350 F   0  0  0  0  0  0  0  0  0  0  0  0
   37.6140   24.5020   38.6850 F   0  0  0  0  0  0  0  0  0  0  0  0
   39.2780   23.0560   38.1760 F   0  0  0  0  0  0  0  0  0  0  0  0
  1 25  1  0  0  0  0
  2  1  1  0  0  0  0
  3  1  1  0  0  0  0
  5  4  1  0  0  0  0
  6 18  1  0  0  0  0
  6  5  2  0  0  0  0
  7  6  1  0  0  0  0
  8  7  2  0  0  0  0
  8  9  1  0  0  0  0
  9 10  2  0  0  0  0
 10  5  1  0  0  0  0
 10  1  1  0  0  0  0
 11  7  1  0  0  0  0
 12  8  1  0  0  0  0
 13  9  1  0  0  0  0
 14 20  1  0  0  0  0
 15 21  1  0  0  0  0
 15 14  2  0  0  0  0
 16 17  2  0  0  0  0
 16 15  1  0  0  0  0
 17 18  1  0  0  0  0
 18 19  2  0  0  0  0
 19 14  1  0  0  0  0
 22 16  1  0  0  0  0
 23 22  1  0  0  0  0
 24 22  1  0  0  0  0
 25 26  1  0  0  0  0
 25 27  1  0  0  0  0
 25 28  1  0  0  0  0
 28 30  1  0  0  0  0
 30 29  2  1  0  0  0
 30 40  1  0  0  0  0
 31 30  1  0  0  0  0
 32 31  1  0  0  0  0
 33 34  1  0  0  0  0
 33 32  2  0  0  0  0
 35 33  1  0  0  0  0
 36 35  1  0  0  0  0
 37 35  2  0  0  0  0
 37 38  1  0  0  0  0
 38 39  2  0  0  0  0
 39 32  1  0  0  0  0
 40 41  1  0  0  0  0
 41 44  1  0  0  0  0
 41 43  1  0  0  0  0
 42 41  1  0  0  0  0
M  END
>  <minimizedAffinity>
-5.94261646

$$$$

 OpenBabel03272504433D

 44 46  0  0  0  0  0  0  0  0999 V2000
   38.3910   26.8090   32.5800 C   0  0  0  0  0  0  0  0  0  0  0  0
   39.3400   27.0480   32.0480 H   0  0  0  0  0  0  0  0  0  0  0  0
   38.6820   26.9030   33.6680 H   0  0  0  0  0  0  0  0  0  0  0  0
   36.7820   27.7380   34.9040 Cl  0  0  0  0  0  0  0  0  0  0  0  0
   36.6150   28.3810   33.2700 C   0  0  0  0  0  0  0  0  0  0  0  0
   35.7080   29.3530   33.0350 C   0  0  0  0  0  0  0  0  0  0  0  0
   35.5670   29.8680   31.7630 C   0  0  0  0  0  0  0  0  0  0  0  0
   36.3670   29.3680   30.7420 C   0  0  0  0  0  0  0  0  0  0  0  0
   37.2880   28.3530   31.0680 C   0  0  0  0  0  0  0  0  0  0  0  0
   37.4370   27.8430   32.3040 C   0  0  0  0  0  0  0  0  0  0  0  0
   34.8240   30.6570   31.5990 H   0  0  0  0  0  0  0  0  0  0  0  0
   36.1820   29.8290   29.7980 H   0  0  0  0  0  0  0  0  0  0  0  0
   37.7760   28.1190   30.1930 H   0  0  0  0  0  0  0  0  0  0  0  0
   32.8470   29.9820   35.2720 C   0  0  0  0  0  0  0  0  0  0  0  0
   33.4110   30.9470   36.1630 C   0  0  0  0  0  0  0  0  0  0  0  0
   34.7370   31.3310   35.9550 C   0  0  0  0  0  0  0  0  0  0  0  0
   35.4400   30.7850   34.9260 N   0  0  0  0  0  0  0  0  0  0  0  0
   34.8710   29.8720   34.1020 C   0  0  0  0  0  0  0  0  0  0  0  0
   33.6040   29.4920   34.2850 N   0  0  0  0  0  0  0  0  0  0  0  0
   31.8200   29.6760   35.4240 H   0  0  0  0  0  0  0  0  0  0  0  0
   32.7560   31.3060   36.9380 H   0  0  0  0  0  0  0  0  0  0  0  0
   35.2660   32.2870   36.8480 N   0  0  0  0  0  0  0  0  0  0  0  0
   34.7930   33.2180   36.6960 H   0  0  0  0  0  0  0  0  0  0  0  0
   36.0100   32.1690   37.5730 H   0  0  0  0  0  0  0  0  0  0  0  0
   38.0650   25.4090   32.2970 C   0  0  0  0  0  0  0  0  0  0  0  0
   37.2850   25.3810   31.4840 H   0  0  0  0  0  0  0  0  0  0  0  0
   38.9190   24.8230   31.8800 H   0  0  0  0  0  0  0  0  0  0  0  0
   37.6510   24.7510   33.4250 O   0  0  0  0  0  0  0  0  0  0  0  0
   40.2120   24.2300   33.6820 O   0  0  0  0  0  0  0  0  0  0  0  0
   38.8270   23.7010   33.9590 P   0  0  2  0  0  0  0  0  0  0  0  0
   38.5890   22.2260   33.0820 O   0  0  0  0  0  0  0  0  0  0  0  0
   37.3680   21.7810   32.6550 C   0  0  0  0  0  0  0  0  0  0  0  0
   36.7720   21.8860   31.4200 C   0  0  0  0  0  0  0  0  0  0  0  0
   37.3620   22.3930   30.6970 H   0  0  0  0  0  0  0  0  0  0  0  0
   35.5180   21.3700   31.1740 C   0  0  0  0  0  0  0  0  0  0  0  0
   35.0970   21.4780   30.1920 H   0  0  0  0  0  0  0  0  0  0  0  0
   34.8360   20.7290   32.1830 C   0  0  0  0  0  3  0  0  0  0  0  0
   35.4470   20.6330   33.4160 C   0  0  0  0  0  3  0  0  0  0  0  0
   36.6860   21.1460   33.6520 N   0  0  0  0  0  0  0  0  0  0  0  0
   38.6830   23.3170   35.5600 O   0  0  0  0  0  0  0  0  0  0  0  0
   38.4380   24.4440   36.3170 C   0  0  0  0  0  0  0  0  0  0  0  0
   39.1700   25.5460   35.8770 F   0  0  0  0  0  0  0  0  0  0  0  0
   37.1170   24.8260   36.2270 F   0  0  0  0  0  0  0  0  0  0  0  0
   38.7660   24.2090   37.6480 F   0  0  0  0  0  0  0  0  0  0  0  0
  1  3  1  0  0  0  0
  2  1  1  0  0  0  0
  5  4  1  0  0  0  0
  6  5  1  0  0  0  0
  6 18  1  0  0  0  0
  7  6  2  0  0  0  0
  8  9  2  0  0  0  0
  8  7  1  0  0  0  0
  9 10  1  0  0  0  0
 10  1  1  0  0  0  0
 10  5  2  0  0  0  0
 11  7  1  0  0  0  0
 12  8  1  0  0  0  0
 13  9  1  0  0  0  0
 14 20  1  0  0  0  0
 14 15  1  0  0  0  0
 15 21  1  0  0  0  0
 16 15  2  0  0  0  0
 16 22  1  0  0  0  0
 17 16  1  0  0  0  0
 18 19  1  0  0  0  0
 18 17  2  0  0  0  0
 19 14  2  0  0  0  0
 22 24  1  0  0  0  0
 23 22  1  0  0  0  0
 25  1  1  0  0  0  0
 25 28  1  0  0  0  0
 26 25  1  0  0  0  0
 27 25  1  0  0  0  0
 28 30  1  0  0  0  0
 30 29  2  6  0  0  0
 30 40  1  0  0  0  0
 31 30  1  0  0  0  0
 32 31  1  0  0  0  0
 32 39  1  0  0  0  0
 33 32  2  0  0  0  0
 34 33  1  0  0  0  0
 35 33  1  0  0  0  0
 35 37  2  0  0  0  0
 36 35  1  0  0  0  0
 37 38  1  0  0  0  0
 38 39  2  0  0  0  0
 40 41  1  0  0  0  0
 41 44  1  0  0  0  0
 42 41  1  0  0  0  0
 43 41  1  0  0  0  0
M  END
>  <minimizedAffinity>
-5.91258144

$$$$

 OpenBabel03272504433D

 44 46  0  0  0  0  0  0  0  0999 V2000
   39.8430   26.6850   31.6720 C   0  0  0  0  0  0  0  0  0  0  0  0
   40.4320   27.2030   32.4630 H   0  0  0  0  0  0  0  0  0  0  0  0
   40.6240   26.4550   30.8880 H   0  0  0  0  0  0  0  0  0  0  0  0
   39.7790   26.4540   34.6370 Cl  0  0  0  0  0  0  0  0  0  0  0  0
   39.2890   25.1660   33.5380 C   0  0  0  0  0  0  0  0  0  0  0  0
   38.8560   23.9930   34.0490 C   0  0  0  0  0  0  0  0  0  0  0  0
   38.4680   22.9760   33.2030 C   0  0  0  0  0  0  0  0  0  0  0  0
   38.5330   23.1810   31.8290 C   0  0  0  0  0  0  0  0  0  0  0  0
   38.9970   24.4310   31.3750 C   0  0  0  0  0  0  0  0  0  0  0  0
   39.3770   25.4330   32.1900 C   0  0  0  0  0  0  0  0  0  0  0  0
   38.1210   22.0340   33.6440 H   0  0  0  0  0  0  0  0  0  0  0  0
   38.2130   22.3360   31.2620 H   0  0  0  0  0  0  0  0  0  0  0  0
   38.9750   24.3870   30.3480 H   0  0  0  0  0  0  0  0  0  0  0  0
   37.8460   24.1640   37.5900 C   0  0  0  0  0  0  0  0  0  0  0  0
   38.7970   23.2760   38.1830 C   0  0  0  0  0  0  0  0  0  0  0  0
   39.7310   22.6660   37.3450 C   0  0  0  0  0  0  0  0  0  0  0  0
   39.7090   22.9300   36.0100 N   0  0  0  0  0  0  0  0  0  0  0  0
   38.7920   23.7790   35.4840 C   0  0  0  0  0  0  0  0  0  0  0  0
   37.8900   24.3720   36.2700 N   0  0  0  0  0  0  0  0  0  0  0  0
   37.1160   24.6420   38.2310 H   0  0  0  0  0  0  0  0  0  0  0  0
   38.7140   23.1460   39.2480 H   0  0  0  0  0  0  0  0  0  0  0  0
   40.6590   21.7970   37.9580 N   0  0  0  0  0  0  0  0  0  0  0  0
   41.3160   22.3500   38.5690 H   0  0  0  0  0  0  0  0  0  0  0  0
   40.7460   20.7580   37.8680 H   0  0  0  0  0  0  0  0  0  0  0  0
   38.8930   27.6560   31.1210 C   0  0  0  0  0  0  0  0  0  0  0  0
   39.4460   28.6160   30.9100 H   0  0  0  0  0  0  0  0  0  0  0  0
   38.4680   27.3600   30.1330 H   0  0  0  0  0  0  0  0  0  0  0  0
   37.8310   27.8550   31.9630 O   0  0  0  0  0  0  0  0  0  0  0  0
   36.5100   29.2080   30.1400 O   0  0  0  0  0  0  0  0  0  0  0  0
   36.4220   28.0460   31.0970 P   0  0  2  0  0  0  0  0  0  0  0  0
   35.1790   28.3560   32.2650 O   0  0  0  0  0  0  0  0  0  0  0  0
   35.2170   29.3880   33.1620 C   0  0  0  0  0  0  0  0  0  0  0  0
   35.7860   29.4510   34.4120 C   0  0  0  0  0  0  0  0  0  0  0  0
   36.2670   28.5530   34.7140 H   0  0  0  0  0  0  0  0  0  0  0  0
   35.7210   30.5920   35.1820 C   0  0  0  0  0  0  0  0  0  0  0  0
   36.1820   30.5900   36.1520 H   0  0  0  0  0  0  0  0  0  0  0  0
   35.0710   31.7040   34.6960 C   0  0  0  0  0  3  0  0  0  0  0  0
   34.5050   31.6250   33.4410 C   0  0  0  0  0  3  0  0  0  0  0  0
   34.5740   30.4940   32.6860 N   0  0  0  0  0  0  0  0  0  0  0  0
   35.9630   26.6830   30.2830 O   0  0  0  0  0  0  0  0  0  0  0  0
   35.5240   25.7110   31.1570 C   0  0  0  0  0  0  0  0  0  0  0  0
   34.1440   25.7580   31.3500 F   0  0  0  0  0  0  0  0  0  0  0  0
   35.7810   24.4480   30.6690 F   0  0  0  0  0  0  0  0  0  0  0  0
   36.1400   25.8670   32.3950 F   0  0  0  0  0  0  0  0  0  0  0  0
  1 10  1  0  0  0  0
  1  2  1  0  0  0  0
  3  1  1  0  0  0  0
  5  6  1  0  0  0  0
  5  4  1  0  0  0  0
  6 18  1  0  0  0  0
  7 11  1  0  0  0  0
  7  6  2  0  0  0  0
  8  7  1  0  0  0  0
  9  8  2  0  0  0  0
  9 10  1  0  0  0  0
 10  5  2  0  0  0  0
 12  8  1  0  0  0  0
 13  9  1  0  0  0  0
 14 15  1  0  0  0  0
 14 20  1  0  0  0  0
 15 21  1  0  0  0  0
 16 22  1  0  0  0  0
 16 15  2  0  0  0  0
 17 16  1  0  0  0  0
 18 17  2  0  0  0  0
 18 19  1  0  0  0  0
 19 14  2  0  0  0  0
 22 23  1  0  0  0  0
 24 22  1  0  0  0  0
 25  1  1  0  0  0  0
 25 28  1  0  0  0  0
 26 25  1  0  0  0  0
 27 25  1  0  0  0  0
 30 29  2  6  0  0  0
 30 28  1  0  0  0  0
 30 31  1  0  0  0  0
 31 32  1  0  0  0  0
 32 33  1  0  0  0  0
 33 34  1  0  0  0  0
 33 35  2  0  0  0  0
 35 36  1  0  0  0  0
 37 35  1  0  0  0  0
 38 37  2  0  0  0  0
 39 32  2  0  0  0  0
 39 38  1  0  0  0  0
 40 30  1  0  0  0  0
 40 41  1  0  0  0  0
 41 42  1  0  0  0  0
 41 44  1  0  0  0  0
 43 41  1  0  0  0  0
M  END
>  <minimizedAffinity>
-5.80976486

$$$$

 OpenBabel03272504433D

 44 46  0  0  0  0  0  0  0  0999 V2000
   37.4090   27.1620   32.2570 C   0  0  0  0  0  0  0  0  0  0  0  0
   36.7530   26.3510   32.6490 H   0  0  0  0  0  0  0  0  0  0  0  0
   37.5780   26.8500   31.1830 H   0  0  0  0  0  0  0  0  0  0  0  0
   36.4600   28.1510   34.8970 Cl  0  0  0  0  0  0  0  0  0  0  0  0
   36.1540   28.9750   33.3670 C   0  0  0  0  0  0  0  0  0  0  0  0
   35.4470   30.1250   33.3700 C   0  0  0  0  0  0  0  0  0  0  0  0
   35.2010   30.7830   32.1830 C   0  0  0  0  0  0  0  0  0  0  0  0
   35.6880   30.2400   30.9990 C   0  0  0  0  0  0  0  0  0  0  0  0
   36.4150   29.0360   31.0810 C   0  0  0  0  0  0  0  0  0  0  0  0
   36.6640   28.3850   32.2320 C   0  0  0  0  0  0  0  0  0  0  0  0
   34.6250   31.7150   32.2120 H   0  0  0  0  0  0  0  0  0  0  0  0
   35.4450   30.8210   30.1380 H   0  0  0  0  0  0  0  0  0  0  0  0
   36.6830   28.7990   30.1160 H   0  0  0  0  0  0  0  0  0  0  0  0
   35.1700   31.9990   36.5310 C   0  0  0  0  0  0  0  0  0  0  0  0
   33.8310   31.6780   36.9170 C   0  0  0  0  0  0  0  0  0  0  0  0
   33.0940   30.8400   36.0790 C   0  0  0  0  0  0  0  0  0  0  0  0
   33.6630   30.3620   34.9380 N   0  0  0  0  0  0  0  0  0  0  0  0
   34.9360   30.6900   34.6060 C   0  0  0  0  0  0  0  0  0  0  0  0
   35.6560   31.4890   35.3950 N   0  0  0  0  0  0  0  0  0  0  0  0
   35.7510   32.6490   37.1740 H   0  0  0  0  0  0  0  0  0  0  0  0
   33.4920   32.1160   37.8400 H   0  0  0  0  0  0  0  0  0  0  0  0
   31.7770   30.5370   36.4850 N   0  0  0  0  0  0  0  0  0  0  0  0
   31.8010   29.9340   37.3500 H   0  0  0  0  0  0  0  0  0  0  0  0
   30.8710   30.8260   36.0500 H   0  0  0  0  0  0  0  0  0  0  0  0
   38.6840   27.0860   32.9750 C   0  0  0  0  0  0  0  0  0  0  0  0
   39.1320   28.1200   33.0170 H   0  0  0  0  0  0  0  0  0  0  0  0
   38.5800   26.7870   34.0460 H   0  0  0  0  0  0  0  0  0  0  0  0
   39.5360   26.1840   32.3960 O   0  0  0  0  0  0  0  0  0  0  0  0
   39.4920   23.5830   32.7620 O   0  0  0  0  0  0  0  0  0  0  0  0
   39.8200   24.9010   33.4190 P   0  0  2  0  0  0  0  0  0  0  0  0
   38.7790   25.1380   34.7840 O   0  0  0  0  0  0  0  0  0  0  0  0
   38.8960   24.4480   35.9600 C   0  0  0  0  0  0  0  0  0  0  0  0
   39.7420   23.4190   36.3010 C   0  0  0  0  0  0  0  0  0  0  0  0
   40.3990   23.1240   35.5210 H   0  0  0  0  0  0  0  0  0  0  0  0
   39.7140   22.8400   37.5520 C   0  0  0  0  0  0  0  0  0  0  0  0
   40.3950   22.0390   37.7670 H   0  0  0  0  0  0  0  0  0  0  0  0
   38.8200   23.2990   38.4930 C   0  0  0  0  0  3  0  0  0  0  0  0
   37.9780   24.3320   38.1360 C   0  0  0  0  0  3  0  0  0  0  0  0
   38.0120   24.8980   36.8980 N   0  0  0  0  0  0  0  0  0  0  0  0
   41.3620   24.8640   34.0110 O   0  0  0  0  0  0  0  0  0  0  0  0
   41.8350   26.1410   34.2330 C   0  0  0  0  0  0  0  0  0  0  0  0
   43.0960   26.1420   34.8260 F   0  0  0  0  0  0  0  0  0  0  0  0
   41.9890   26.8280   33.0480 F   0  0  0  0  0  0  0  0  0  0  0  0
   40.9630   26.8370   35.0650 F   0  0  0  0  0  0  0  0  0  0  0  0
  1  2  1  0  0  0  0
  1 25  1  0  0  0  0
  3  1  1  0  0  0  0
  5  6  1  0  0  0  0
  5  4  1  0  0  0  0
  6 18  1  0  0  0  0
  7 11  1  0  0  0  0
  7  6  2  0  0  0  0
  8  9  2  0  0  0  0
  8  7  1  0  0  0  0
  9 10  1  0  0  0  0
 10  1  1  0  0  0  0
 10  5  2  0  0  0  0
 12  8  1  0  0  0  0
 13  9  1  0  0  0  0
 14 15  1  0  0  0  0
 14 20  1  0  0  0  0
 15 21  1  0  0  0  0
 16 22  1  0  0  0  0
 16 15  2  0  0  0  0
 17 16  1  0  0  0  0
 18 17  2  0  0  0  0
 18 19  1  0  0  0  0
 19 14  2  0  0  0  0
 22 23  1  0  0  0  0
 24 22  1  0  0  0  0
 25 26  1  0  0  0  0
 25 27  1  0  0  0  0
 28 25  1  0  0  0  0
 28 30  1  0  0  0  0
 30 29  2  6  0  0  0
 30 40  1  0  0  0  0
 30 31  1  0  0  0  0
 31 32  1  0  0  0  0
 32 33  2  0  0  0  0
 32 39  1  0  0  0  0
 33 35  1  0  0  0  0
 34 33  1  0  0  0  0
 35 36  1  0  0  0  0
 35 37  2  0  0  0  0
 38 37  1  0  0  0  0
 39 38  2  0  0  0  0
 40 41  1  0  0  0  0
 41 42  1  0  0  0  0
 41 44  1  0  0  0  0
 43 41  1  0  0  0  0
M  END
>  <minimizedAffinity>
-5.69961739

$$$$

 OpenBabel03272504433D

 44 46  0  0  0  0  0  0  0  0999 V2000
   40.4930   26.4340   34.8490 C   0  0  0  0  0  0  0  0  0  0  0  0
   41.2980   27.1380   34.5350 H   0  0  0  0  0  0  0  0  0  0  0  0
   40.3990   26.6370   35.9570 H   0  0  0  0  0  0  0  0  0  0  0  0
   40.6920   27.3390   32.0220 Cl  0  0  0  0  0  0  0  0  0  0  0  0
   39.1840   27.2840   32.9350 C   0  0  0  0  0  0  0  0  0  0  0  0
   38.0380   27.6730   32.3370 C   0  0  0  0  0  0  0  0  0  0  0  0
   36.8500   27.6350   33.0370 C   0  0  0  0  0  0  0  0  0  0  0  0
   36.8610   27.1940   34.3560 C   0  0  0  0  0  0  0  0  0  0  0  0
   38.0970   26.8070   34.9080 C   0  0  0  0  0  0  0  0  0  0  0  0
   39.2630   26.8380   34.2360 C   0  0  0  0  0  0  0  0  0  0  0  0
   35.9340   27.9560   32.5290 H   0  0  0  0  0  0  0  0  0  0  0  0
   35.8950   27.2020   34.8100 H   0  0  0  0  0  0  0  0  0  0  0  0
   37.9000   26.5210   35.8760 H   0  0  0  0  0  0  0  0  0  0  0  0
   38.5920   27.9080   28.7010 C   0  0  0  0  0  0  0  0  0  0  0  0
   37.9310   29.1410   28.4080 C   0  0  0  0  0  0  0  0  0  0  0  0
   37.3310   29.8270   29.4650 C   0  0  0  0  0  0  0  0  0  0  0  0
   37.3930   29.3090   30.7220 N   0  0  0  0  0  0  0  0  0  0  0  0
   38.0290   28.1360   30.9610 C   0  0  0  0  0  0  0  0  0  0  0  0
   38.6090   27.4660   29.9620 N   0  0  0  0  0  0  0  0  0  0  0  0
   39.0610   27.3670   27.8880 H   0  0  0  0  0  0  0  0  0  0  0  0
   37.9490   29.4480   27.3760 H   0  0  0  0  0  0  0  0  0  0  0  0
   36.6890   31.0430   29.1480 N   0  0  0  0  0  0  0  0  0  0  0  0
   37.4060   31.7620   28.8640 H   0  0  0  0  0  0  0  0  0  0  0  0
   35.6680   31.2720   29.1670 H   0  0  0  0  0  0  0  0  0  0  0  0
   41.0000   25.0720   34.6600 C   0  0  0  0  0  0  0  0  0  0  0  0
   40.5240   24.6380   33.7350 H   0  0  0  0  0  0  0  0  0  0  0  0
   42.0960   25.0230   34.4560 H   0  0  0  0  0  0  0  0  0  0  0  0
   40.7720   24.2920   35.7640 O   0  0  0  0  0  0  0  0  0  0  0  0
   40.0570   21.7690   35.9080 O   0  0  0  0  0  0  0  0  0  0  0  0
   39.6210   23.1350   35.4400 P   0  0  2  0  0  0  0  0  0  0  0  0
   39.4300   23.1170   33.7170 O   0  0  0  0  0  0  0  0  0  0  0  0
   38.2190   23.0450   33.0850 C   0  0  0  0  0  0  0  0  0  0  0  0
   37.5220   24.0100   32.3980 C   0  0  0  0  0  0  0  0  0  0  0  0
   38.0110   24.9520   32.3600 H   0  0  0  0  0  0  0  0  0  0  0  0
   36.2980   23.7490   31.8200 C   0  0  0  0  0  0  0  0  0  0  0  0
   35.7940   24.5380   31.2940 H   0  0  0  0  0  0  0  0  0  0  0  0
   35.7500   22.4910   31.9280 C   0  0  0  0  0  3  0  0  0  0  0  0
   36.4610   21.5330   32.6200 C   0  0  0  0  0  3  0  0  0  0  0  0
   37.6700   21.7990   33.1890 N   0  0  0  0  0  0  0  0  0  0  0  0
   38.1350   23.4940   36.0680 O   0  0  0  0  0  0  0  0  0  0  0  0
   38.2160   23.7150   37.4270 C   0  0  0  0  0  0  0  0  0  0  0  0
   39.4450   23.3220   37.9540 F   0  0  0  0  0  0  0  0  0  0  0  0
   38.1060   25.0570   37.7210 F   0  0  0  0  0  0  0  0  0  0  0  0
   37.2150   23.0100   38.0880 F   0  0  0  0  0  0  0  0  0  0  0  0
  1  3  1  0  0  0  0
  2  1  1  0  0  0  0
  4  5  1  0  0  0  0
  5 10  1  0  0  0  0
  6  5  2  0  0  0  0
  6  7  1  0  0  0  0
  7  8  2  0  0  0  0
  8 12  1  0  0  0  0
  8  9  1  0  0  0  0
  9 13  1  0  0  0  0
 10  1  1  0  0  0  0
 10  9  2  0  0  0  0
 11  7  1  0  0  0  0
 14 19  1  0  0  0  0
 15 14  2  0  0  0  0
 15 16  1  0  0  0  0
 16 17  2  0  0  0  0
 17 18  1  0  0  0  0
 18  6  1  0  0  0  0
 19 18  2  0  0  0  0
 20 14  1  0  0  0  0
 21 15  1  0  0  0  0
 22 24  1  0  0  0  0
 22 16  1  0  0  0  0
 23 22  1  0  0  0  0
 25  1  1  0  0  0  0
 25 28  1  0  0  0  0
 26 25  1  0  0  0  0
 27 25  1  0  0  0  0
 30 28  1  0  0  0  0
 30 29  2  1  0  0  0
 30 40  1  0  0  0  0
 31 30  1  0  0  0  0
 32 39  1  0  0  0  0
 32 31  1  0  0  0  0
 33 32  2  0  0  0  0
 34 33  1  0  0  0  0
 35 37  2  0  0  0  0
 35 33  1  0  0  0  0
 36 35  1  0  0  0  0
 37 38  1  0  0  0  0
 38 39  2  0  0  0  0
 40 41  1  0  0  0  0
 41 43  1  0  0  0  0
 41 42  1  0  0  0  0
 41 44  1  0  0  0  0
M  END
>  <minimizedAffinity>
-5.6397171

$$$$

 OpenBabel03272504433D

 44 46  0  0  0  0  0  0  0  0999 V2000
   38.2740   26.4290   32.5960 C   0  0  0  0  0  0  0  0  0  0  0  0
   39.1240   26.4130   31.8750 H   0  0  0  0  0  0  0  0  0  0  0  0
   38.7850   26.6490   33.5810 H   0  0  0  0  0  0  0  0  0  0  0  0
   36.6460   27.4730   34.8560 Cl  0  0  0  0  0  0  0  0  0  0  0  0
   36.6200   28.1490   33.2280 C   0  0  0  0  0  0  0  0  0  0  0  0
   35.8180   29.2040   32.9660 C   0  0  0  0  0  0  0  0  0  0  0  0
   35.7870   29.7460   31.6980 C   0  0  0  0  0  0  0  0  0  0  0  0
   36.5870   29.1870   30.7080 C   0  0  0  0  0  0  0  0  0  0  0  0
   37.3940   28.0870   31.0600 C   0  0  0  0  0  0  0  0  0  0  0  0
   37.4350   27.5500   32.2930 C   0  0  0  0  0  0  0  0  0  0  0  0
   35.1280   30.6020   31.5120 H   0  0  0  0  0  0  0  0  0  0  0  0
   36.4910   29.6760   29.7640 H   0  0  0  0  0  0  0  0  0  0  0  0
   37.9000   27.8200   30.2050 H   0  0  0  0  0  0  0  0  0  0  0  0
   32.9310   30.0340   35.1010 C   0  0  0  0  0  0  0  0  0  0  0  0
   33.5260   30.9690   36.0050 C   0  0  0  0  0  0  0  0  0  0  0  0
   34.8790   31.2650   35.8400 C   0  0  0  0  0  0  0  0  0  0  0  0
   35.5800   30.6660   34.8390 N   0  0  0  0  0  0  0  0  0  0  0  0
   34.9810   29.7850   34.0010 C   0  0  0  0  0  0  0  0  0  0  0  0
   33.6870   29.4890   34.1440 N   0  0  0  0  0  0  0  0  0  0  0  0
   31.8810   29.7960   35.2210 H   0  0  0  0  0  0  0  0  0  0  0  0
   32.8700   31.3760   36.7560 H   0  0  0  0  0  0  0  0  0  0  0  0
   35.4390   32.1930   36.7440 N   0  0  0  0  0  0  0  0  0  0  0  0
   35.0330   33.1500   36.5700 H   0  0  0  0  0  0  0  0  0  0  0  0
   36.1500   32.0330   37.4950 H   0  0  0  0  0  0  0  0  0  0  0  0
   37.7120   25.0770   32.6470 C   0  0  0  0  0  0  0  0  0  0  0  0
   36.6620   25.1420   33.0510 H   0  0  0  0  0  0  0  0  0  0  0  0
   37.5940   24.6000   31.6450 H   0  0  0  0  0  0  0  0  0  0  0  0
   38.4940   24.2340   33.3920 O   0  0  0  0  0  0  0  0  0  0  0  0
   36.8150   22.5480   32.2810 O   0  0  0  0  0  0  0  0  0  0  0  0
   37.9910   22.6570   33.2180 P   0  0  2  0  0  0  0  0  0  0  0  0
   37.5180   22.1270   34.7990 O   0  0  0  0  0  0  0  0  0  0  0  0
   38.1820   22.4630   35.9470 C   0  0  0  0  0  0  0  0  0  0  0  0
   39.5110   22.3300   36.2700 C   0  0  0  0  0  0  0  0  0  0  0  0
   40.1020   21.8960   35.5010 H   0  0  0  0  0  0  0  0  0  0  0  0
   40.0050   22.7300   37.4930 C   0  0  0  0  0  0  0  0  0  0  0  0
   41.0510   22.6040   37.6960 H   0  0  0  0  0  0  0  0  0  0  0  0
   39.1520   23.2820   38.4220 C   0  0  0  0  0  3  0  0  0  0  0  0
   37.8210   23.4090   38.0830 C   0  0  0  0  0  3  0  0  0  0  0  0
   37.3410   23.0100   36.8730 N   0  0  0  0  0  0  0  0  0  0  0  0
   39.1950   21.6360   32.7270 O   0  0  0  0  0  0  0  0  0  0  0  0
   40.0090   22.2470   31.7970 C   0  0  0  0  0  0  0  0  0  0  0  0
   40.8200   23.2270   32.3660 F   0  0  0  0  0  0  0  0  0  0  0  0
   40.8780   21.3430   31.2250 F   0  0  0  0  0  0  0  0  0  0  0  0
   39.2390   22.8440   30.8040 F   0  0  0  0  0  0  0  0  0  0  0  0
  1 25  1  0  0  0  0
  1  3  1  0  0  0  0
  2  1  1  0  0  0  0
  5  4  1  0  0  0  0
  6  5  1  0  0  0  0
  6 18  1  0  0  0  0
  7  6  2  0  0  0  0
  8  9  2  0  0  0  0
  8  7  1  0  0  0  0
  9 10  1  0  0  0  0
 10  1  1  0  0  0  0
 10  5  2  0  0  0  0
 11  7  1  0  0  0  0
 12  8  1  0  0  0  0
 13  9  1  0  0  0  0
 14 20  1  0  0  0  0
 14 15  1  0  0  0  0
 15 21  1  0  0  0  0
 16 15  2  0  0  0  0
 16 22  1  0  0  0  0
 17 16  1  0  0  0  0
 18 19  1  0  0  0  0
 18 17  2  0  0  0  0
 19 14  2  0  0  0  0
 22 24  1  0  0  0  0
 23 22  1  0  0  0  0
 25 26  1  0  0  0  0
 25 28  1  0  0  0  0
 27 25  1  0  0  0  0
 30 29  2  6  0  0  0
 30 28  1  0  0  0  0
 30 31  1  0  0  0  0
 31 32  1  0  0  0  0
 32 33  2  0  0  0  0
 32 39  1  0  0  0  0
 33 35  1  0  0  0  0
 34 33  1  0  0  0  0
 35 36  1  0  0  0  0
 35 37  2  0  0  0  0
 38 37  1  0  0  0  0
 39 38  2  0  0  0  0
 40 30  1  0  0  0  0
 41 42  1  0  0  0  0
 41 40  1  0  0  0  0
 43 41  1  0  0  0  0
 44 41  1  0  0  0  0
M  END
>  <minimizedAffinity>
-5.59531307

$$$$
