
 OpenBabel03272507163D

 25 27  0  0  1  0  0  0  0  0999 V2000
   36.7320   31.1170   50.3880 C   0  0  1  0  0  0  0  0  0  0  0  0
   36.0110   29.8680   50.2960 C   0  0  2  0  0  0  0  0  0  0  0  0
   37.3590   29.8550   50.9860 C   0  0  0  0  0  0  0  0  0  0  0  0
   36.4070   31.8890   51.1320 H   0  0  0  0  0  0  0  0  0  0  0  0
   35.0920   29.7240   50.9010 H   0  0  0  0  0  0  0  0  0  0  0  0
   37.2760   29.8040   52.0860 H   0  0  0  0  0  0  0  0  0  0  0  0
   38.2210   29.4080   50.4990 H   0  0  0  0  0  0  0  0  0  0  0  0
   37.5280   31.6490   49.2250 C   0  0  0  0  0  0  0  0  0  0  0  0
   38.3740   32.7240   49.5010 C   0  0  0  0  0  0  0  0  0  0  0  0
   39.0810   33.2200   48.3970 C   0  0  0  0  0  0  0  0  0  0  0  0
   38.9250   32.6590   47.1450 N   0  0  0  0  0  0  0  0  0  0  0  0
   38.0830   31.6130   46.9470 C   0  0  0  0  0  0  0  0  0  0  0  0
   37.3820   31.1080   48.0000 N   0  0  0  0  0  0  0  0  0  0  0  0
   38.4890   33.1530   50.4840 H   0  0  0  0  0  0  0  0  0  0  0  0
   39.7650   34.0630   48.5390 H   0  0  0  0  0  0  0  0  0  0  0  0
   38.0110   31.2270   45.9400 H   0  0  0  0  0  0  0  0  0  0  0  0
   35.9680   29.1920   49.0650 O   0  0  0  0  0  0  0  0  0  0  0  0
   34.7950   28.9240   48.3780 C   0  0  0  0  0  0  0  0  0  0  0  0
   34.1640   27.7710   48.8330 C   0  0  0  0  0  0  0  0  0  0  0  0
   34.5290   27.1270   49.6420 H   0  0  0  0  0  0  0  0  0  0  0  0
   32.9690   27.3820   48.2280 C   0  0  0  0  0  0  0  0  0  0  0  0
   32.3910   26.4940   48.5070 H   0  0  0  0  0  0  0  0  0  0  0  0
   32.4280   28.1110   47.2120 C   0  0  0  0  0  3  0  0  0  0  0  0
   33.0970   29.2420   46.8040 C   0  0  0  0  0  3  0  0  0  0  0  0
   34.2520   29.6380   47.3730 N   0  0  0  0  0  0  0  0  0  0  0  0
  1  3  1  0  0  0  0
  1  4  1  1  0  0  0
  2  1  1  0  0  0  0
  2  5  1  1  0  0  0
  2  3  1  0  0  0  0
  3  6  1  0  0  0  0
  7  3  1  0  0  0  0
  8  9  1  0  0  0  0
  8  1  1  0  0  0  0
  9 14  1  0  0  0  0
 10 15  1  0  0  0  0
 10  9  2  0  0  0  0
 11 10  1  0  0  0  0
 12 11  2  0  0  0  0
 12 13  1  0  0  0  0
 13  8  2  0  0  0  0
 16 12  1  0  0  0  0
 17  2  1  0  0  0  0
 18 19  1  0  0  0  0
 18 17  1  0  0  0  0
 19 20  1  0  0  0  0
 21 22  1  0  0  0  0
 21 19  2  0  0  0  0
 23 21  1  0  0  0  0
 24 23  2  0  0  0  0
 24 25  1  0  0  0  0
 25 18  2  0  0  0  0
M  END
>  <minimizedAffinity>
-5.14273834

>  <minimizedRMSD>
1.75815904

$$$$
