REMARK  Name = 
REMARK  4 active torsions:
REMARK  status: ('A' for Active; 'I' for Inactive)
REMARK    1  A    between atoms: C_1  and  C_8
REMARK    2  A    between atoms: C_4  and  O_13
REMARK    3  A    between atoms: O_13  and  C_14
REMARK    4  A    between atoms: N_17  and  C_27
REMARK                            x       y       z     vdW  Elec       q    Type
REMARK                         _______ _______ _______ _____ _____    ______ ____
ROOT
ATOM      1  C   UNL     1      33.839  28.782  48.281  0.00  0.00    +0.000 A 
ATOM      2  C   UNL     1      34.434  28.419  49.437  0.00  0.00    +0.000 A 
ATOM      3  C   UNL     1      35.708  28.792  49.813  0.00  0.00    +0.000 A 
ATOM      4  C   UNL     1      36.457  29.581  48.993  0.00  0.00    +0.000 A 
ATOM      5  C   UNL     1      35.850  29.964  47.792  0.00  0.00    +0.000 A 
ATOM      6  N   UNL     1      34.603  29.574  47.469  0.00  0.00    +0.000 NA
ATOM      7  H   UNL     1      33.913  27.793  50.147  0.00  0.00    +0.000 HD
ATOM      8  H   UNL     1      36.177  28.495  50.743  0.00  0.00    +0.000 HD
ATOM      9  H   UNL     1      36.401  30.591  47.102  0.00  0.00    +0.000 HD
ENDROOT
BRANCH   1  11
ATOM     10  C   UNL     1      31.651  27.650  48.686  0.00  0.00    +0.000 A 
ATOM     11  C   UNL     1      32.518  28.402  47.881  0.00  0.00    +0.000 A 
ATOM     12  C   UNL     1      32.029  28.773  46.642  0.00  0.00    +0.000 A 
ATOM     13  N   UNL     1      30.767  28.405  46.269  0.00  0.00    +0.000 NA
ATOM     14  C   UNL     1      29.982  27.675  47.103  0.00  0.00    +0.000 A 
ATOM     15  N   UNL     1      30.413  27.289  48.321  0.00  0.00    +0.000 NA
ATOM     16  H   UNL     1      31.985  27.334  49.664  0.00  0.00    +0.000 HD
ATOM     17  H   UNL     1      32.684  29.353  46.008  0.00  0.00    +0.000 HD
ATOM     18  H   UNL     1      29.015  27.463  46.671  0.00  0.00    +0.000 HD
ENDBRANCH   1  11
BRANCH   4  19
ATOM     19  O   UNL     1      37.758  30.046  49.222  0.00  0.00    +0.000 OA
BRANCH  19  20
ATOM     20  C   UNL     1      38.161  31.297  48.784  0.00  0.00    +0.000 A 
ATOM     21  C   UNL     1      37.866  32.334  49.672  0.00  0.00    +0.000 A 
ATOM     22  C   UNL     1      38.327  33.529  49.103  0.00  0.00    +0.000 A 
ATOM     23  N   UNL     1      38.868  33.164  47.923  0.00  0.00    +0.000 N 
ATOM     24  N   UNL     1      38.776  31.872  47.731  0.00  0.00    +0.000 NA
ATOM     25  H   UNL     1      37.388  32.409  50.642  0.00  0.00    +0.000 HD
ATOM     26  H   UNL     1      38.302  34.553  49.449  0.00  0.00    +0.000 HD
BRANCH  23  27
ATOM     27  C   UNL     1      39.471  34.054  46.983  0.00  0.00    +0.000 A 
ATOM     28  C   UNL     1      38.980  34.066  45.693  0.00  0.00    +0.000 A 
ATOM     29  H   UNL     1      38.182  33.458  45.342  0.00  0.00    +0.000 HD
ATOM     30  C   UNL     1      39.564  34.926  44.788  0.00  0.00    +0.000 A 
ATOM     31  H   UNL     1      39.233  34.994  43.747  0.00  0.00    +0.000 HD
ATOM     32  C   UNL     1      40.621  35.784  45.101  0.00  0.00    +0.000 A 
ATOM     33  C   UNL     1      41.056  35.710  46.423  0.00  0.00    +0.000 A 
ATOM     34  N   UNL     1      40.490  34.868  47.324  0.00  0.00    +0.000 NA
ENDBRANCH  23  27
ENDBRANCH  19  20
ENDBRANCH   4  19
TORSDOF 4
