REMARK  Name = 
REMARK  3 active torsions:
REMARK  status: ('A' for Active; 'I' for Inactive)
REMARK    1  A    between atoms: C_1  and  C_7
REMARK    2  A    between atoms: C_3  and  C_12
REMARK    3  A    between atoms: N_10  and  C_20
REMARK                            x       y       z     vdW  Elec       q    Type
REMARK                         _______ _______ _______ _____ _____    ______ ____
ROOT
ATOM      1  C   UNL     1      39.101  31.109  45.906  0.00  0.00    +0.000 A 
ATOM      2  C   UNL     1      39.921  32.212  45.904  0.00  0.00    +0.000 A 
ATOM      3  C   UNL     1      40.936  32.023  44.950  0.00  0.00    +0.000 A 
ATOM      4  N   UNL     1      40.676  30.798  44.414  0.00  0.00    +0.000 N 
ATOM      5  N   UNL     1      39.612  30.289  44.982  0.00  0.00    +0.000 NA
ATOM      6  H   UNL     1      39.735  33.051  46.572  0.00  0.00    +0.000 HD
ATOM      7  H   UNL     1      41.648  32.803  44.839  0.00  0.00    +0.000 HD
ENDROOT
BRANCH   1   8
ATOM      8  C   UNL     1      37.922  30.875  46.737  0.00  0.00    +0.000 A 
ATOM      9  C   UNL     1      38.050  31.040  48.134  0.00  0.00    +0.000 A 
ATOM     10  C   UNL     1      36.925  30.817  48.934  0.00  0.00    +0.000 A 
ATOM     11  N   UNL     1      35.774  30.454  48.309  0.00  0.00    +0.000 NA
ATOM     12  C   UNL     1      35.669  30.301  46.978  0.00  0.00    +0.000 A 
ATOM     13  N   UNL     1      36.759  30.517  46.209  0.00  0.00    +0.000 NA
ATOM     14  H   UNL     1      38.968  31.327  48.596  0.00  0.00    +0.000 HD
ATOM     15  H   UNL     1      34.716  30.009  46.556  0.00  0.00    +0.000 HD
BRANCH  10  16
ATOM     16  C   UNL     1      37.051  30.990  50.407  0.00  0.00    +0.000 C 
ATOM     17  F   UNL     1      36.554  32.236  50.688  0.00  0.00    +0.000 F 
ATOM     18  F   UNL     1      36.304  30.053  51.108  0.00  0.00    +0.000 F 
ATOM     19  F   UNL     1      38.371  30.939  50.828  0.00  0.00    +0.000 F 
ENDBRANCH  10  16
ENDBRANCH   1   8
BRANCH   4  20
ATOM     20  C   UNL     1      41.549  30.317  43.398  0.00  0.00    +0.000 A 
ATOM     21  C   UNL     1      42.303  31.065  42.522  0.00  0.00    +0.000 A 
ATOM     22  H   UNL     1      42.202  32.136  42.640  0.00  0.00    +0.000 HD
ATOM     23  C   UNL     1      43.097  30.445  41.598  0.00  0.00    +0.000 A 
ATOM     24  H   UNL     1      43.685  31.067  40.914  0.00  0.00    +0.000 HD
ATOM     25  C   UNL     1      43.185  29.076  41.494  0.00  0.00    +0.000 A 
ATOM     26  C   UNL     1      42.402  28.360  42.405  0.00  0.00    +0.000 A 
ATOM     27  N   UNL     1      41.601  28.956  43.337  0.00  0.00    +0.000 NA
ENDBRANCH   4  20
TORSDOF 3
