
 OpenBabel03272507173D

 25 27  0  0  1  0  0  0  0  0999 V2000
   37.7940   22.2250   34.6450 C   0  0  1  0  0  0  0  0  0  0  0  0
   38.0820   23.0570   33.4990 C   0  0  2  0  0  0  0  0  0  0  0  0
   38.8220   21.7410   33.6200 C   0  0  0  0  0  0  0  0  0  0  0  0
   36.8380   21.6410   34.6780 H   0  0  0  0  0  0  0  0  0  0  0  0
   37.3150   23.1760   32.7060 H   0  0  0  0  0  0  0  0  0  0  0  0
   38.4290   20.9650   32.9390 H   0  0  0  0  0  0  0  0  0  0  0  0
   39.8740   21.7250   33.8900 H   0  0  0  0  0  0  0  0  0  0  0  0
   38.4180   22.5000   35.9890 C   0  0  0  0  0  0  0  0  0  0  0  0
   37.6100   23.1550   36.9180 C   0  0  0  0  0  0  0  0  0  0  0  0
   38.2230   23.4250   38.1500 C   0  0  0  0  0  0  0  0  0  0  0  0
   39.5310   23.0530   38.3870 N   0  0  0  0  0  0  0  0  0  0  0  0
   40.2620   22.4170   37.4360 C   0  0  0  0  0  0  0  0  0  0  0  0
   39.6940   22.1400   36.2280 N   0  0  0  0  0  0  0  0  0  0  0  0
   36.5880   23.4400   36.7220 H   0  0  0  0  0  0  0  0  0  0  0  0
   37.6490   23.9370   38.9280 H   0  0  0  0  0  0  0  0  0  0  0  0
   41.2790   22.1570   37.6920 H   0  0  0  0  0  0  0  0  0  0  0  0
   38.8780   24.2020   33.6670 O   0  0  0  0  0  0  0  0  0  0  0  0
   38.4000   25.4010   34.1700 C   0  0  0  0  0  0  0  0  0  0  0  0
   39.2560   25.9620   35.1120 C   0  0  0  0  0  0  0  0  0  0  0  0
   40.2070   25.5280   35.4410 H   0  0  0  0  0  0  0  0  0  0  0  0
   38.8970   27.1740   35.7020 C   0  0  0  0  0  0  0  0  0  0  0  0
   39.4950   27.7020   36.4540 H   0  0  0  0  0  0  0  0  0  0  0  0
   37.7330   27.8000   35.3660 C   0  0  0  0  0  3  0  0  0  0  0  0
   36.9270   27.1980   34.4270 C   0  0  0  0  0  3  0  0  0  0  0  0
   37.2520   26.0280   33.8440 N   0  0  0  0  0  0  0  0  0  0  0  0
  1  4  1  1  0  0  0
  1  8  1  0  0  0  0
  2  5  1  6  0  0  0
  2  3  1  0  0  0  0
  2 17  1  0  0  0  0
  2  1  1  0  0  0  0
  3  7  1  0  0  0  0
  3  1  1  0  0  0  0
  6  3  1  0  0  0  0
  8 13  2  0  0  0  0
  8  9  1  0  0  0  0
  9 10  2  0  0  0  0
 10 11  1  0  0  0  0
 10 15  1  0  0  0  0
 12 16  1  0  0  0  0
 12 11  2  0  0  0  0
 13 12  1  0  0  0  0
 14  9  1  0  0  0  0
 17 18  1  0  0  0  0
 18 19  1  0  0  0  0
 19 20  1  0  0  0  0
 19 21  2  0  0  0  0
 21 22  1  0  0  0  0
 23 21  1  0  0  0  0
 24 23  2  0  0  0  0
 25 18  2  0  0  0  0
 25 24  1  0  0  0  0
M  END
>  <minimizedAffinity>
-4.58023024

$$$$

 OpenBabel03272507173D

 25 27  0  0  1  0  0  0  0  0999 V2000
   37.8980   27.4400   34.5040 C   0  0  1  0  0  0  0  0  0  0  0  0
   37.7990   26.7390   35.7640 C   0  0  2  0  0  0  0  0  0  0  0  0
   39.1760   27.1660   35.3000 C   0  0  0  0  0  0  0  0  0  0  0  0
   37.5920   28.5160   34.4440 H   0  0  0  0  0  0  0  0  0  0  0  0
   37.3390   27.2490   36.6350 H   0  0  0  0  0  0  0  0  0  0  0  0
   39.5540   28.0520   35.8400 H   0  0  0  0  0  0  0  0  0  0  0  0
   39.8850   26.4290   34.9320 H   0  0  0  0  0  0  0  0  0  0  0  0
   37.8780   26.6980   33.1920 C   0  0  0  0  0  0  0  0  0  0  0  0
   38.8620   27.0560   32.2700 C   0  0  0  0  0  0  0  0  0  0  0  0
   38.8040   26.3740   31.0470 C   0  0  0  0  0  0  0  0  0  0  0  0
   37.8300   25.4240   30.8100 N   0  0  0  0  0  0  0  0  0  0  0  0
   36.9010   25.1240   31.7540 C   0  0  0  0  0  0  0  0  0  0  0  0
   36.9320   25.7700   32.9540 N   0  0  0  0  0  0  0  0  0  0  0  0
   39.6190   27.7990   32.4660 H   0  0  0  0  0  0  0  0  0  0  0  0
   39.5450   26.6030   30.2750 H   0  0  0  0  0  0  0  0  0  0  0  0
   36.1690   24.3710   31.4980 H   0  0  0  0  0  0  0  0  0  0  0  0
   37.5750   25.3520   35.7600 O   0  0  0  0  0  0  0  0  0  0  0  0
   38.4230   24.4370   36.3640 C   0  0  0  0  0  0  0  0  0  0  0  0
   38.1310   24.2520   37.7120 C   0  0  0  0  0  0  0  0  0  0  0  0
   37.3290   24.7590   38.2610 H   0  0  0  0  0  0  0  0  0  0  0  0
   38.9080   23.3560   38.4460 C   0  0  0  0  0  0  0  0  0  0  0  0
   38.7660   23.1360   39.5100 H   0  0  0  0  0  0  0  0  0  0  0  0
   39.9320   22.6730   37.8590 C   0  0  0  0  0  3  0  0  0  0  0  0
   40.1720   22.8960   36.5230 C   0  0  0  0  0  3  0  0  0  0  0  0
   39.4370   23.7570   35.7940 N   0  0  0  0  0  0  0  0  0  0  0  0
  1  4  1  6  0  0  0
  1  3  1  0  0  0  0
  1  2  1  0  0  0  0
  2  5  1  1  0  0  0
  3  2  1  0  0  0  0
  3  6  1  0  0  0  0
  7  3  1  0  0  0  0
  8  1  1  0  0  0  0
  9 14  1  0  0  0  0
  9  8  2  0  0  0  0
 10  9  1  0  0  0  0
 11 10  2  0  0  0  0
 11 12  1  0  0  0  0
 12 13  2  0  0  0  0
 13  8  1  0  0  0  0
 15 10  1  0  0  0  0
 16 12  1  0  0  0  0
 17  2  1  0  0  0  0
 17 18  1  0  0  0  0
 18 19  1  0  0  0  0
 19 20  1  0  0  0  0
 19 21  2  0  0  0  0
 21 22  1  0  0  0  0
 23 21  1  0  0  0  0
 24 23  2  0  0  0  0
 25 18  2  0  0  0  0
 25 24  1  0  0  0  0
M  END
>  <minimizedAffinity>
-4.5410614

$$$$

 OpenBabel03272507173D

 25 27  0  0  1  0  0  0  0  0999 V2000
   37.3960   27.3450   34.6460 C   0  0  1  0  0  0  0  0  0  0  0  0
   37.5040   26.2940   35.6320 C   0  0  2  0  0  0  0  0  0  0  0  0
   38.5750   27.3640   35.6220 C   0  0  0  0  0  0  0  0  0  0  0  0
   36.6430   28.1620   34.7900 H   0  0  0  0  0  0  0  0  0  0  0  0
   36.7810   26.2600   36.4730 H   0  0  0  0  0  0  0  0  0  0  0  0
   38.4560   28.0980   36.4390 H   0  0  0  0  0  0  0  0  0  0  0  0
   39.5730   27.1390   35.2540 H   0  0  0  0  0  0  0  0  0  0  0  0
   37.8410   27.1330   33.2230 C   0  0  0  0  0  0  0  0  0  0  0  0
   36.8480   26.7560   32.3190 C   0  0  0  0  0  0  0  0  0  0  0  0
   37.2920   26.5360   31.0080 C   0  0  0  0  0  0  0  0  0  0  0  0
   38.6220   26.6910   30.6750 N   0  0  0  0  0  0  0  0  0  0  0  0
   39.5380   27.0600   31.6060 C   0  0  0  0  0  0  0  0  0  0  0  0
   39.1380   27.2820   32.8890 N   0  0  0  0  0  0  0  0  0  0  0  0
   35.8100   26.6390   32.5910 H   0  0  0  0  0  0  0  0  0  0  0  0
   36.5660   26.2370   30.2440 H   0  0  0  0  0  0  0  0  0  0  0  0
   40.5620   27.1610   31.2720 H   0  0  0  0  0  0  0  0  0  0  0  0
   37.9360   25.0190   35.2290 O   0  0  0  0  0  0  0  0  0  0  0  0
   38.7560   24.2090   35.9960 C   0  0  0  0  0  0  0  0  0  0  0  0
   38.2740   24.0370   37.2890 C   0  0  0  0  0  0  0  0  0  0  0  0
   37.3530   24.4790   37.6850 H   0  0  0  0  0  0  0  0  0  0  0  0
   39.0040   23.2420   38.1730 C   0  0  0  0  0  0  0  0  0  0  0  0
   38.7160   23.0400   39.2120 H   0  0  0  0  0  0  0  0  0  0  0  0
   40.1650   22.6440   37.7830 C   0  0  0  0  0  3  0  0  0  0  0  0
   40.5920   22.8500   36.4920 C   0  0  0  0  0  3  0  0  0  0  0  0
   39.9060   23.6130   35.6200 N   0  0  0  0  0  0  0  0  0  0  0  0
  1  4  1  1  0  0  0
  1  3  1  0  0  0  0
  1  2  1  0  0  0  0
  2  5  1  1  0  0  0
  3  2  1  0  0  0  0
  3  6  1  0  0  0  0
  7  3  1  0  0  0  0
  8  1  1  0  0  0  0
  9 14  1  0  0  0  0
  9  8  2  0  0  0  0
 10  9  1  0  0  0  0
 11 10  2  0  0  0  0
 11 12  1  0  0  0  0
 12 13  2  0  0  0  0
 13  8  1  0  0  0  0
 15 10  1  0  0  0  0
 16 12  1  0  0  0  0
 17  2  1  0  0  0  0
 17 18  1  0  0  0  0
 18 19  1  0  0  0  0
 19 20  1  0  0  0  0
 19 21  2  0  0  0  0
 21 22  1  0  0  0  0
 23 21  1  0  0  0  0
 24 23  2  0  0  0  0
 25 18  2  0  0  0  0
 25 24  1  0  0  0  0
M  END
>  <minimizedAffinity>
-4.43483782

$$$$

 OpenBabel03272507173D

 25 27  0  0  1  0  0  0  0  0999 V2000
   38.5870   23.2730   36.5000 C   0  0  1  0  0  0  0  0  0  0  0  0
   38.2380   22.1930   35.6050 C   0  0  2  0  0  0  0  0  0  0  0  0
   39.6260   22.1860   36.2110 C   0  0  0  0  0  0  0  0  0  0  0  0
   38.1790   23.2810   37.5430 H   0  0  0  0  0  0  0  0  0  0  0  0
   37.5010   21.4310   35.9330 H   0  0  0  0  0  0  0  0  0  0  0  0
   39.7320   21.4530   37.0310 H   0  0  0  0  0  0  0  0  0  0  0  0
   40.4930   22.4270   35.6020 H   0  0  0  0  0  0  0  0  0  0  0  0
   39.0140   24.6180   35.9730 C   0  0  0  0  0  0  0  0  0  0  0  0
   38.1670   25.6880   36.2640 C   0  0  0  0  0  0  0  0  0  0  0  0
   38.5700   26.9230   35.7390 C   0  0  0  0  0  0  0  0  0  0  0  0
   39.7260   27.0330   34.9940 N   0  0  0  0  0  0  0  0  0  0  0  0
   40.5060   25.9500   34.7480 C   0  0  0  0  0  0  0  0  0  0  0  0
   40.1420   24.7350   35.2460 N   0  0  0  0  0  0  0  0  0  0  0  0
   37.2650   25.5900   36.8490 H   0  0  0  0  0  0  0  0  0  0  0  0
   37.9530   27.8080   35.9270 H   0  0  0  0  0  0  0  0  0  0  0  0
   41.3970   26.1110   34.1570 H   0  0  0  0  0  0  0  0  0  0  0  0
   38.1970   22.4360   34.2220 O   0  0  0  0  0  0  0  0  0  0  0  0
   37.1390   22.0620   33.4090 C   0  0  0  0  0  0  0  0  0  0  0  0
   36.4690   20.9420   33.8910 C   0  0  0  0  0  0  0  0  0  0  0  0
   36.7260   20.3960   34.8050 H   0  0  0  0  0  0  0  0  0  0  0  0
   35.3790   20.4550   33.1690 C   0  0  0  0  0  0  0  0  0  0  0  0
   34.7820   19.5820   33.4570 H   0  0  0  0  0  0  0  0  0  0  0  0
   34.9750   21.0600   32.0160 C   0  0  0  0  0  3  0  0  0  0  0  0
   35.6760   22.1650   31.5890 C   0  0  0  0  0  3  0  0  0  0  0  0
   36.7310   22.6530   32.2680 N   0  0  0  0  0  0  0  0  0  0  0  0
  1  4  1  1  0  0  0
  2  5  1  1  0  0  0
  2  3  1  0  0  0  0
  2  1  1  0  0  0  0
  3  1  1  0  0  0  0
  3  6  1  0  0  0  0
  7  3  1  0  0  0  0
  8  9  1  0  0  0  0
  8  1  1  0  0  0  0
  9 14  1  0  0  0  0
 10 15  1  0  0  0  0
 10  9  2  0  0  0  0
 11 10  1  0  0  0  0
 12 11  2  0  0  0  0
 12 13  1  0  0  0  0
 13  8  2  0  0  0  0
 16 12  1  0  0  0  0
 17  2  1  0  0  0  0
 18 19  1  0  0  0  0
 18 17  1  0  0  0  0
 19 20  1  0  0  0  0
 21 22  1  0  0  0  0
 21 19  2  0  0  0  0
 23 21  1  0  0  0  0
 24 23  2  0  0  0  0
 24 25  1  0  0  0  0
 25 18  2  0  0  0  0
M  END
>  <minimizedAffinity>
-4.37035322

$$$$

 OpenBabel03272507173D

 25 27  0  0  1  0  0  0  0  0999 V2000
   37.9560   22.5840   32.4300 C   0  0  1  0  0  0  0  0  0  0  0  0
   38.2710   22.4910   33.8370 C   0  0  2  0  0  0  0  0  0  0  0  0
   37.0860   21.6990   33.3260 C   0  0  0  0  0  0  0  0  0  0  0  0
   38.5880   22.0360   31.6840 H   0  0  0  0  0  0  0  0  0  0  0  0
   39.1870   21.9500   34.1550 H   0  0  0  0  0  0  0  0  0  0  0  0
   37.3040   20.6210   33.2210 H   0  0  0  0  0  0  0  0  0  0  0  0
   36.0730   22.0130   33.5610 H   0  0  0  0  0  0  0  0  0  0  0  0
   37.1890   23.7560   31.8750 C   0  0  0  0  0  0  0  0  0  0  0  0
   37.9240   24.9210   31.6550 C   0  0  0  0  0  0  0  0  0  0  0  0
   37.1830   26.0060   31.1660 C   0  0  0  0  0  0  0  0  0  0  0  0
   35.8280   25.8910   30.9340 N   0  0  0  0  0  0  0  0  0  0  0  0
   35.1730   24.7260   31.1710 C   0  0  0  0  0  0  0  0  0  0  0  0
   35.8660   23.6520   31.6450 N   0  0  0  0  0  0  0  0  0  0  0  0
   38.9850   25.0000   31.8390 H   0  0  0  0  0  0  0  0  0  0  0  0
   37.6950   26.9540   30.9700 H   0  0  0  0  0  0  0  0  0  0  0  0
   34.1120   24.7090   30.9660 H   0  0  0  0  0  0  0  0  0  0  0  0
   37.9460   23.5640   34.6840 O   0  0  0  0  0  0  0  0  0  0  0  0
   38.2110   23.5740   36.0440 C   0  0  0  0  0  0  0  0  0  0  0  0
   39.3620   22.8620   36.3670 C   0  0  0  0  0  0  0  0  0  0  0  0
   40.0050   22.3400   35.6490 H   0  0  0  0  0  0  0  0  0  0  0  0
   39.7480   22.7900   37.7050 C   0  0  0  0  0  0  0  0  0  0  0  0
   40.6340   22.2570   38.0690 H   0  0  0  0  0  0  0  0  0  0  0  0
   39.0180   23.4030   38.6800 C   0  0  0  0  0  3  0  0  0  0  0  0
   37.8900   24.0940   38.2990 C   0  0  0  0  0  3  0  0  0  0  0  0
   37.4960   24.1770   37.0140 N   0  0  0  0  0  0  0  0  0  0  0  0
  1  4  1  6  0  0  0
  1  3  1  0  0  0  0
  1  2  1  0  0  0  0
  2  5  1  1  0  0  0
  2 17  1  0  0  0  0
  3  7  1  0  0  0  0
  3  2  1  0  0  0  0
  6  3  1  0  0  0  0
  8  1  1  0  0  0  0
  9 14  1  0  0  0  0
  9  8  1  0  0  0  0
 10  9  2  0  0  0  0
 11 10  1  0  0  0  0
 11 12  2  0  0  0  0
 12 13  1  0  0  0  0
 13  8  2  0  0  0  0
 15 10  1  0  0  0  0
 16 12  1  0  0  0  0
 17 18  1  0  0  0  0
 18 19  2  0  0  0  0
 18 25  1  0  0  0  0
 19 21  1  0  0  0  0
 20 19  1  0  0  0  0
 21 22  1  0  0  0  0
 21 23  2  0  0  0  0
 24 23  1  0  0  0  0
 25 24  2  0  0  0  0
M  END
>  <minimizedAffinity>
-4.32087278

$$$$

 OpenBabel03272507173D

 25 27  0  0  1  0  0  0  0  0999 V2000
   37.3030   22.8540   32.3420 C   0  0  1  0  0  0  0  0  0  0  0  0
   37.9320   23.1980   33.5970 C   0  0  2  0  0  0  0  0  0  0  0  0
   38.8200   22.6990   32.4770 C   0  0  0  0  0  0  0  0  0  0  0  0
   36.9650   23.6690   31.6520 H   0  0  0  0  0  0  0  0  0  0  0  0
   37.9920   24.2640   33.9010 H   0  0  0  0  0  0  0  0  0  0  0  0
   39.3880   23.5100   31.9870 H   0  0  0  0  0  0  0  0  0  0  0  0
   39.2510   21.7020   32.5200 H   0  0  0  0  0  0  0  0  0  0  0  0
   36.6130   21.5290   32.1500 C   0  0  0  0  0  0  0  0  0  0  0  0
   35.2230   21.5380   32.2760 C   0  0  0  0  0  0  0  0  0  0  0  0
   34.6070   20.2880   32.1220 C   0  0  0  0  0  0  0  0  0  0  0  0
   35.3540   19.1560   31.8660 N   0  0  0  0  0  0  0  0  0  0  0  0
   36.7050   19.2190   31.7560 C   0  0  0  0  0  0  0  0  0  0  0  0
   37.3340   20.4200   31.8990 N   0  0  0  0  0  0  0  0  0  0  0  0
   34.6490   22.4290   32.4760 H   0  0  0  0  0  0  0  0  0  0  0  0
   33.5180   20.2190   32.2080 H   0  0  0  0  0  0  0  0  0  0  0  0
   37.2240   18.2920   31.5550 H   0  0  0  0  0  0  0  0  0  0  0  0
   37.8060   22.3230   34.6890 O   0  0  0  0  0  0  0  0  0  0  0  0
   38.1390   22.6660   35.9890 C   0  0  0  0  0  0  0  0  0  0  0  0
   39.4760   22.4120   36.2790 C   0  0  0  0  0  0  0  0  0  0  0  0
   40.2060   21.9880   35.5800 H   0  0  0  0  0  0  0  0  0  0  0  0
   39.9490   22.7110   37.5570 C   0  0  0  0  0  0  0  0  0  0  0  0
   40.9810   22.5510   37.8910 H   0  0  0  0  0  0  0  0  0  0  0  0
   39.1250   23.2410   38.5040 C   0  0  0  0  0  3  0  0  0  0  0  0
   37.8130   23.4720   38.1590 C   0  0  0  0  0  3  0  0  0  0  0  0
   37.3320   23.1910   36.9320 N   0  0  0  0  0  0  0  0  0  0  0  0
  1  4  1  6  0  0  0
  1  3  1  0  0  0  0
  1  2  1  0  0  0  0
  2  5  1  1  0  0  0
  2 17  1  0  0  0  0
  3  7  1  0  0  0  0
  3  2  1  0  0  0  0
  6  3  1  0  0  0  0
  8  9  1  0  0  0  0
  8  1  1  0  0  0  0
  9 14  1  0  0  0  0
 10 15  1  0  0  0  0
 10  9  2  0  0  0  0
 11 10  1  0  0  0  0
 12 11  2  0  0  0  0
 12 13  1  0  0  0  0
 13  8  2  0  0  0  0
 16 12  1  0  0  0  0
 17 18  1  0  0  0  0
 18 19  2  0  0  0  0
 18 25  1  0  0  0  0
 19 21  1  0  0  0  0
 20 19  1  0  0  0  0
 21 22  1  0  0  0  0
 21 23  2  0  0  0  0
 24 23  1  0  0  0  0
 25 24  2  0  0  0  0
M  END
>  <minimizedAffinity>
-4.30110884

$$$$

 OpenBabel03272507173D

 25 27  0  0  1  0  0  0  0  0999 V2000
   38.8790   26.6880   35.3170 C   0  0  1  0  0  0  0  0  0  0  0  0
   38.6800   27.0570   33.9340 C   0  0  2  0  0  0  0  0  0  0  0  0
   37.5060   27.2020   34.8790 C   0  0  0  0  0  0  0  0  0  0  0  0
   39.4530   27.3710   35.9940 H   0  0  0  0  0  0  0  0  0  0  0  0
   39.1720   27.9690   33.5380 H   0  0  0  0  0  0  0  0  0  0  0  0
   37.3170   28.2510   35.1700 H   0  0  0  0  0  0  0  0  0  0  0  0
   36.6700   26.5090   34.8270 H   0  0  0  0  0  0  0  0  0  0  0  0
   38.8320   25.2480   35.7580 C   0  0  0  0  0  0  0  0  0  0  0  0
   39.9200   24.4570   35.3880 C   0  0  0  0  0  0  0  0  0  0  0  0
   39.8380   23.1150   35.7840 C   0  0  0  0  0  0  0  0  0  0  0  0
   38.7460   22.6480   36.4870 N   0  0  0  0  0  0  0  0  0  0  0  0
   37.7190   23.4740   36.8150 C   0  0  0  0  0  0  0  0  0  0  0  0
   37.7690   24.7850   36.4450 N   0  0  0  0  0  0  0  0  0  0  0  0
   40.7690   24.8320   34.8390 H   0  0  0  0  0  0  0  0  0  0  0  0
   40.6570   22.4340   35.5290 H   0  0  0  0  0  0  0  0  0  0  0  0
   36.8970   23.0390   37.3650 H   0  0  0  0  0  0  0  0  0  0  0  0
   38.5430   26.0450   32.9680 O   0  0  0  0  0  0  0  0  0  0  0  0
   37.3700   25.8050   32.2700 C   0  0  0  0  0  0  0  0  0  0  0  0
   37.0080   24.4620   32.2850 C   0  0  0  0  0  0  0  0  0  0  0  0
   37.5670   23.6620   32.7820 H   0  0  0  0  0  0  0  0  0  0  0  0
   35.8450   24.0780   31.6180 C   0  0  0  0  0  0  0  0  0  0  0  0
   35.4680   23.0500   31.5660 H   0  0  0  0  0  0  0  0  0  0  0  0
   35.0750   24.9950   30.9660 C   0  0  0  0  0  3  0  0  0  0  0  0
   35.4830   26.3090   30.9870 C   0  0  0  0  0  3  0  0  0  0  0  0
   36.6030   26.7040   31.6230 N   0  0  0  0  0  0  0  0  0  0  0  0
  1  8  1  0  0  0  0
  1  4  1  1  0  0  0
  2  5  1  6  0  0  0
  2  3  1  0  0  0  0
  2  1  1  0  0  0  0
  3  6  1  0  0  0  0
  3  1  1  0  0  0  0
  7  3  1  0  0  0  0
  8 13  1  0  0  0  0
  9  8  2  0  0  0  0
  9 10  1  0  0  0  0
 10 11  2  0  0  0  0
 11 12  1  0  0  0  0
 12 16  1  0  0  0  0
 13 12  2  0  0  0  0
 14  9  1  0  0  0  0
 15 10  1  0  0  0  0
 17  2  1  0  0  0  0
 18 19  1  0  0  0  0
 18 17  1  0  0  0  0
 19 20  1  0  0  0  0
 21 19  2  0  0  0  0
 22 21  1  0  0  0  0
 23 24  2  0  0  0  0
 23 21  1  0  0  0  0
 24 25  1  0  0  0  0
 25 18  2  0  0  0  0
M  END
>  <minimizedAffinity>
-4.28655767

$$$$

 OpenBabel03272507173D

 25 27  0  0  1  0  0  0  0  0999 V2000
   39.2570   24.7370   34.4750 C   0  0  1  0  0  0  0  0  0  0  0  0
   38.9200   23.9310   33.3240 C   0  0  2  0  0  0  0  0  0  0  0  0
   37.9040   24.9500   33.7940 C   0  0  0  0  0  0  0  0  0  0  0  0
   39.9870   25.5800   34.3650 H   0  0  0  0  0  0  0  0  0  0  0  0
   39.4530   24.1010   32.3660 H   0  0  0  0  0  0  0  0  0  0  0  0
   37.8720   25.8510   33.1540 H   0  0  0  0  0  0  0  0  0  0  0  0
   36.9970   24.6290   34.3000 H   0  0  0  0  0  0  0  0  0  0  0  0
   39.1090   24.2020   35.8760 C   0  0  0  0  0  0  0  0  0  0  0  0
   40.0920   23.3070   36.2980 C   0  0  0  0  0  0  0  0  0  0  0  0
   39.9160   22.8010   37.5930 C   0  0  0  0  0  0  0  0  0  0  0  0
   38.8370   23.1850   38.3630 N   0  0  0  0  0  0  0  0  0  0  0  0
   37.9160   24.0630   37.8900 C   0  0  0  0  0  0  0  0  0  0  0  0
   38.0600   24.5730   36.6350 N   0  0  0  0  0  0  0  0  0  0  0  0
   40.9320   23.0140   35.6870 H   0  0  0  0  0  0  0  0  0  0  0  0
   40.6490   22.0920   37.9910 H   0  0  0  0  0  0  0  0  0  0  0  0
   37.0980   24.3170   38.5490 H   0  0  0  0  0  0  0  0  0  0  0  0
   38.5460   22.5900   33.5130 O   0  0  0  0  0  0  0  0  0  0  0  0
   37.3760   22.0430   33.0130 C   0  0  0  0  0  0  0  0  0  0  0  0
   36.7010   21.2770   33.9590 C   0  0  0  0  0  0  0  0  0  0  0  0
   37.0330   21.1070   34.9890 H   0  0  0  0  0  0  0  0  0  0  0  0
   35.5040   20.6650   33.5900 C   0  0  0  0  0  0  0  0  0  0  0  0
   34.8930   20.0420   34.2530 H   0  0  0  0  0  0  0  0  0  0  0  0
   35.0000   20.8110   32.3310 C   0  0  0  0  0  3  0  0  0  0  0  0
   35.7110   21.5810   31.4390 C   0  0  0  0  0  3  0  0  0  0  0  0
   36.8700   22.1810   31.7720 N   0  0  0  0  0  0  0  0  0  0  0  0
  1  4  1  6  0  0  0
  1  8  1  0  0  0  0
  2  5  1  6  0  0  0
  2 17  1  0  0  0  0
  2  3  1  0  0  0  0
  2  1  1  0  0  0  0
  3  7  1  0  0  0  0
  3  1  1  0  0  0  0
  6  3  1  0  0  0  0
  8  9  2  0  0  0  0
  8 13  1  0  0  0  0
  9 10  1  0  0  0  0
 10 15  1  0  0  0  0
 10 11  2  0  0  0  0
 12 11  1  0  0  0  0
 12 16  1  0  0  0  0
 13 12  2  0  0  0  0
 14  9  1  0  0  0  0
 18 17  1  0  0  0  0
 18 19  1  0  0  0  0
 19 20  1  0  0  0  0
 21 19  2  0  0  0  0
 21 22  1  0  0  0  0
 23 21  1  0  0  0  0
 24 25  1  0  0  0  0
 24 23  2  0  0  0  0
 25 18  2  0  0  0  0
M  END
>  <minimizedAffinity>
-4.26004124

$$$$

 OpenBabel03272507173D

 25 27  0  0  1  0  0  0  0  0999 V2000
   37.8230   23.8490   36.7370 C   0  0  1  0  0  0  0  0  0  0  0  0
   38.9020   23.1500   37.3960 C   0  0  2  0  0  0  0  0  0  0  0  0
   38.1040   24.1450   38.2120 C   0  0  0  0  0  0  0  0  0  0  0  0
   36.8610   23.3130   36.5310 H   0  0  0  0  0  0  0  0  0  0  0  0
   38.7980   22.0660   37.6110 H   0  0  0  0  0  0  0  0  0  0  0  0
   37.3890   23.6590   38.9010 H   0  0  0  0  0  0  0  0  0  0  0  0
   38.5380   25.1020   38.4900 H   0  0  0  0  0  0  0  0  0  0  0  0
   38.0850   25.0450   35.8590 C   0  0  0  0  0  0  0  0  0  0  0  0
   38.2340   24.7850   34.4970 C   0  0  0  0  0  0  0  0  0  0  0  0
   38.5060   25.9100   33.7060 C   0  0  0  0  0  0  0  0  0  0  0  0
   38.6120   27.1650   34.2690 N   0  0  0  0  0  0  0  0  0  0  0  0
   38.4550   27.3470   35.6060 C   0  0  0  0  0  0  0  0  0  0  0  0
   38.1890   26.2740   36.4020 N   0  0  0  0  0  0  0  0  0  0  0  0
   38.1490   23.8000   34.0660 H   0  0  0  0  0  0  0  0  0  0  0  0
   38.6360   25.7810   32.6260 H   0  0  0  0  0  0  0  0  0  0  0  0
   38.5520   28.3580   35.9770 H   0  0  0  0  0  0  0  0  0  0  0  0
   40.2280   23.5300   37.1290 O   0  0  0  0  0  0  0  0  0  0  0  0
   41.2660   22.6280   36.9650 C   0  0  0  0  0  0  0  0  0  0  0  0
   42.2860   23.1300   36.1630 C   0  0  0  0  0  0  0  0  0  0  0  0
   42.2940   24.1230   35.6980 H   0  0  0  0  0  0  0  0  0  0  0  0
   43.3960   22.3240   35.9130 C   0  0  0  0  0  0  0  0  0  0  0  0
   44.2530   22.6200   35.2960 H   0  0  0  0  0  0  0  0  0  0  0  0
   43.4860   21.0710   36.4410 C   0  0  0  0  0  3  0  0  0  0  0  0
   42.4480   20.6290   37.2280 C   0  0  0  0  0  3  0  0  0  0  0  0
   41.3650   21.3870   37.4830 N   0  0  0  0  0  0  0  0  0  0  0  0
  1  4  1  6  0  0  0
  1  2  1  0  0  0  0
  1  3  1  0  0  0  0
  2  5  1  1  0  0  0
  2  3  1  0  0  0  0
  3  7  1  0  0  0  0
  3  6  1  0  0  0  0
  8 13  1  0  0  0  0
  8  1  1  0  0  0  0
  9  8  2  0  0  0  0
 10 11  2  0  0  0  0
 10  9  1  0  0  0  0
 11 12  1  0  0  0  0
 12 16  1  0  0  0  0
 12 13  2  0  0  0  0
 14  9  1  0  0  0  0
 15 10  1  0  0  0  0
 17  2  1  0  0  0  0
 18 17  1  0  0  0  0
 18 25  1  0  0  0  0
 19 18  2  0  0  0  0
 20 19  1  0  0  0  0
 21 19  1  0  0  0  0
 21 23  2  0  0  0  0
 22 21  1  0  0  0  0
 23 24  1  0  0  0  0
 24 25  2  0  0  0  0
M  END
>  <minimizedAffinity>
-4.16423082

$$$$
