
 OpenBabel03272508023D

 27 29  0  0  0  0  0  0  0  0999 V2000
   38.7290   30.7340   45.5870 C   0  0  0  0  0  0  0  0  0  0  0  0
   39.9110   31.4320   45.6590 C   0  0  0  0  0  0  0  0  0  0  0  0
   40.6460   31.2060   44.4820 C   0  0  0  0  0  0  0  0  0  0  0  0
   39.8600   30.3730   43.7450 N   0  0  0  0  0  0  0  0  0  0  0  0
   38.7590   30.1130   44.4030 N   0  0  0  0  0  0  0  0  0  0  0  0
   40.1540   32.0360   46.5310 H   0  0  0  0  0  0  0  0  0  0  0  0
   41.5890   31.6880   44.4000 H   0  0  0  0  0  0  0  0  0  0  0  0
   37.6630   30.6780   46.5850 C   0  0  0  0  0  0  0  0  0  0  0  0
   37.9880   30.9950   47.9230 C   0  0  0  0  0  0  0  0  0  0  0  0
   36.9720   30.9430   48.8820 C   0  0  0  0  0  0  0  0  0  0  0  0
   35.7300   30.5880   48.4600 N   0  0  0  0  0  0  0  0  0  0  0  0
   35.4380   30.2880   47.1830 C   0  0  0  0  0  0  0  0  0  0  0  0
   36.4230   30.3400   46.2590 N   0  0  0  0  0  0  0  0  0  0  0  0
   38.9740   31.2720   48.2230 H   0  0  0  0  0  0  0  0  0  0  0  0
   34.4230   30.0140   46.9270 H   0  0  0  0  0  0  0  0  0  0  0  0
   37.3060   31.2770   50.2940 C   0  0  0  0  0  0  0  0  0  0  0  0
   36.7730   32.5180   50.5270 F   0  0  0  0  0  0  0  0  0  0  0  0
   36.7370   30.3820   51.1900 F   0  0  0  0  0  0  0  0  0  0  0  0
   38.6740   31.3400   50.5060 F   0  0  0  0  0  0  0  0  0  0  0  0
   40.3430   29.9560   42.4720 C   0  0  0  0  0  0  0  0  0  0  0  0
   40.7540   30.7580   41.4320 C   0  0  0  0  0  0  0  0  0  0  0  0
   40.6930   31.8200   41.6290 H   0  0  0  0  0  0  0  0  0  0  0  0
   41.1930   30.1970   40.2650 C   0  0  0  0  0  0  0  0  0  0  0  0
   41.5130   30.8620   39.4540 H   0  0  0  0  0  0  0  0  0  0  0  0
   41.2480   28.8370   40.0700 C   0  0  0  0  0  3  0  0  0  0  0  0
   40.8210   28.0630   41.1550 C   0  0  0  0  0  3  0  0  0  0  0  0
   40.3780   28.6010   42.3300 N   0  0  0  0  0  0  0  0  0  0  0  0
  1  2  1  0  0  0  0
  1  8  1  0  0  0  0
  2  6  1  0  0  0  0
  3  2  2  0  0  0  0
  4  5  1  0  0  0  0
  4  3  1  0  0  0  0
  5  1  2  0  0  0  0
  7  3  1  0  0  0  0
  8  9  1  0  0  0  0
  9 14  1  0  0  0  0
  9 10  2  0  0  0  0
 10 16  1  0  0  0  0
 11 10  1  0  0  0  0
 12 11  2  0  0  0  0
 13  8  2  0  0  0  0
 13 12  1  0  0  0  0
 15 12  1  0  0  0  0
 16 19  1  0  0  0  0
 16 17  1  0  0  0  0
 16 18  1  0  0  0  0
 20  4  1  0  0  0  0
 21 22  1  0  0  0  0
 21 20  2  0  0  0  0
 23 21  1  0  0  0  0
 24 23  1  0  0  0  0
 25 23  2  0  0  0  0
 25 26  1  0  0  0  0
 26 27  2  0  0  0  0
 27 20  1  0  0  0  0
M  END
>  <minimizedAffinity>
-5.87101316

>  <minimizedRMSD>
1.21868157

$$$$
