
 OpenBabel03272508023D

 27 29  0  0  0  0  0  0  0  0999 V2000
   35.3740   29.8850   45.9650 C   0  0  0  0  0  0  0  0  0  0  0  0
   36.0890   30.2600   44.8520 C   0  0  0  0  0  0  0  0  0  0  0  0
   35.5550   29.6080   43.7270 C   0  0  0  0  0  0  0  0  0  0  0  0
   34.5290   28.8600   44.2220 N   0  0  0  0  0  0  0  0  0  0  0  0
   34.4440   29.0360   45.5160 N   0  0  0  0  0  0  0  0  0  0  0  0
   36.9210   30.9570   44.9280 H   0  0  0  0  0  0  0  0  0  0  0  0
   36.0130   29.8060   42.7900 H   0  0  0  0  0  0  0  0  0  0  0  0
   35.5810   30.3160   47.3460 C   0  0  0  0  0  0  0  0  0  0  0  0
   36.8090   30.9340   47.6720 C   0  0  0  0  0  0  0  0  0  0  0  0
   37.0120   31.3490   48.9920 C   0  0  0  0  0  0  0  0  0  0  0  0
   36.0070   31.1290   49.8800 N   0  0  0  0  0  0  0  0  0  0  0  0
   34.8440   30.5390   49.5530 C   0  0  0  0  0  0  0  0  0  0  0  0
   34.6520   30.1400   48.2760 N   0  0  0  0  0  0  0  0  0  0  0  0
   37.5800   31.0940   46.9520 H   0  0  0  0  0  0  0  0  0  0  0  0
   34.0920   30.4000   50.3180 H   0  0  0  0  0  0  0  0  0  0  0  0
   38.3030   32.0010   49.3450 C   0  0  0  0  0  0  0  0  0  0  0  0
   38.0020   33.3060   49.6360 F   0  0  0  0  0  0  0  0  0  0  0  0
   38.8890   31.4270   50.4640 F   0  0  0  0  0  0  0  0  0  0  0  0
   39.2020   31.9830   48.2900 F   0  0  0  0  0  0  0  0  0  0  0  0
   33.7790   28.0710   43.3050 C   0  0  0  0  0  0  0  0  0  0  0  0
   33.2670   28.4630   42.0900 C   0  0  0  0  0  0  0  0  0  0  0  0
   33.4710   29.4930   41.8260 H   0  0  0  0  0  0  0  0  0  0  0  0
   32.5620   27.5770   41.3220 C   0  0  0  0  0  0  0  0  0  0  0  0
   32.1670   27.9200   40.3600 H   0  0  0  0  0  0  0  0  0  0  0  0
   32.3330   26.2790   41.7130 C   0  0  0  0  0  3  0  0  0  0  0  0
   32.8730   25.9250   42.9540 C   0  0  0  0  0  3  0  0  0  0  0  0
   33.5790   26.7930   43.7380 N   0  0  0  0  0  0  0  0  0  0  0  0
  1  8  1  0  0  0  0
  2  6  1  0  0  0  0
  2  1  1  0  0  0  0
  3  4  1  0  0  0  0
  3  2  2  0  0  0  0
  4  5  1  0  0  0  0
  5  1  2  0  0  0  0
  7  3  1  0  0  0  0
  8  9  2  0  0  0  0
  8 13  1  0  0  0  0
  9 10  1  0  0  0  0
 10 16  1  0  0  0  0
 10 11  2  0  0  0  0
 12 11  1  0  0  0  0
 12 15  1  0  0  0  0
 13 12  2  0  0  0  0
 14  9  1  0  0  0  0
 16 17  1  0  0  0  0
 16 18  1  0  0  0  0
 19 16  1  0  0  0  0
 20 27  1  0  0  0  0
 20  4  1  0  0  0  0
 21 20  2  0  0  0  0
 22 21  1  0  0  0  0
 23 25  2  0  0  0  0
 23 21  1  0  0  0  0
 24 23  1  0  0  0  0
 25 26  1  0  0  0  0
 26 27  2  0  0  0  0
M  END
>  <minimizedAffinity>
-4.44111538

>  <minimizedRMSD>
6.09810829

$$$$
