
 OpenBabel03272508023D

 27 29  0  0  0  0  0  0  0  0999 V2000
   37.6420   30.9790   45.2940 C   0  0  0  0  0  0  0  0  0  0  0  0
   36.3460   30.5240   45.3550 C   0  0  0  0  0  0  0  0  0  0  0  0
   36.0310   30.2240   46.6920 C   0  0  0  0  0  0  0  0  0  0  0  0
   37.1670   30.5170   47.3840 N   0  0  0  0  0  0  0  0  0  0  0  0
   38.0840   30.9510   46.5560 N   0  0  0  0  0  0  0  0  0  0  0  0
   35.7380   30.4420   44.4560 H   0  0  0  0  0  0  0  0  0  0  0  0
   35.0540   29.8590   46.8890 H   0  0  0  0  0  0  0  0  0  0  0  0
   38.3840   31.4030   44.1090 C   0  0  0  0  0  0  0  0  0  0  0  0
   39.2400   30.4660   43.4900 C   0  0  0  0  0  0  0  0  0  0  0  0
   39.9530   30.8670   42.3560 C   0  0  0  0  0  0  0  0  0  0  0  0
   39.7730   32.1420   41.9210 N   0  0  0  0  0  0  0  0  0  0  0  0
   38.9540   33.0220   42.5230 C   0  0  0  0  0  0  0  0  0  0  0  0
   38.2680   32.6300   43.6190 N   0  0  0  0  0  0  0  0  0  0  0  0
   39.3600   29.4700   43.8540 H   0  0  0  0  0  0  0  0  0  0  0  0
   38.8650   34.0210   42.1150 H   0  0  0  0  0  0  0  0  0  0  0  0
   40.8560   29.8850   41.6960 C   0  0  0  0  0  0  0  0  0  0  0  0
   40.0590   28.8490   41.2870 F   0  0  0  0  0  0  0  0  0  0  0  0
   41.4830   30.4210   40.5800 F   0  0  0  0  0  0  0  0  0  0  0  0
   41.8110   29.3860   42.5690 F   0  0  0  0  0  0  0  0  0  0  0  0
   37.1600   30.3140   48.7920 C   0  0  0  0  0  0  0  0  0  0  0  0
   38.0360   30.8370   49.7160 C   0  0  0  0  0  0  0  0  0  0  0  0
   38.8070   31.4720   49.2980 H   0  0  0  0  0  0  0  0  0  0  0  0
   37.8910   30.5420   51.0430 C   0  0  0  0  0  0  0  0  0  0  0  0
   38.6030   30.9740   51.7550 H   0  0  0  0  0  0  0  0  0  0  0  0
   36.8890   29.7290   51.5170 C   0  0  0  0  0  3  0  0  0  0  0  0
   36.0240   29.2210   50.5420 C   0  0  0  0  0  3  0  0  0  0  0  0
   36.1490   29.5010   49.2110 N   0  0  0  0  0  0  0  0  0  0  0  0
  1  2  1  0  0  0  0
  1  5  2  0  0  0  0
  2  3  2  0  0  0  0
  3  7  1  0  0  0  0
  3  4  1  0  0  0  0
  4 20  1  0  0  0  0
  5  4  1  0  0  0  0
  6  2  1  0  0  0  0
  8  1  1  0  0  0  0
  9 14  1  0  0  0  0
  9  8  2  0  0  0  0
 10  9  1  0  0  0  0
 11 10  2  0  0  0  0
 11 12  1  0  0  0  0
 12 13  2  0  0  0  0
 13  8  1  0  0  0  0
 15 12  1  0  0  0  0
 16 10  1  0  0  0  0
 16 19  1  0  0  0  0
 17 16  1  0  0  0  0
 18 16  1  0  0  0  0
 20 27  2  0  0  0  0
 20 21  1  0  0  0  0
 21 23  2  0  0  0  0
 22 21  1  0  0  0  0
 23 25  1  0  0  0  0
 23 24  1  0  0  0  0
 26 25  2  0  0  0  0
 27 26  1  0  0  0  0
M  END
>  <minimizedAffinity>
-5.54526711

>  <minimizedRMSD>
7.70129728

$$$$
