
 OpenBabel03272510123D

 34 37  0  0  0  0  0  0  0  0999 V2000
   36.2550   23.1360   32.0340 C   0  0  0  0  0  0  0  0  0  0  0  0
   35.5190   24.0330   31.3440 C   0  0  0  0  0  0  0  0  0  0  0  0
   35.8090   25.3790   31.2510 C   0  0  0  0  0  0  0  0  0  0  0  0
   36.9040   25.8850   31.8840 C   0  0  0  0  0  0  0  0  0  0  0  0
   37.6750   24.9650   32.6030 C   0  0  0  0  0  0  0  0  0  0  0  0
   37.3510   23.6600   32.6640 N   0  0  0  0  0  0  0  0  0  0  0  0
   34.6330   23.7190   30.8110 H   0  0  0  0  0  0  0  0  0  0  0  0
   35.2120   26.0910   30.6950 H   0  0  0  0  0  0  0  0  0  0  0  0
   38.5560   25.3130   33.1270 H   0  0  0  0  0  0  0  0  0  0  0  0
   35.7040   21.0880   33.3510 C   0  0  0  0  0  0  0  0  0  0  0  0
   35.9650   21.7380   32.1370 C   0  0  0  0  0  0  0  0  0  0  0  0
   35.9290   20.9470   31.0030 C   0  0  0  0  0  0  0  0  0  0  0  0
   35.6520   19.6140   31.1110 N   0  0  0  0  0  0  0  0  0  0  0  0
   35.4090   19.0510   32.3230 C   0  0  0  0  0  0  0  0  0  0  0  0
   35.4320   19.7800   33.4570 N   0  0  0  0  0  0  0  0  0  0  0  0
   35.7200   21.6610   34.2670 H   0  0  0  0  0  0  0  0  0  0  0  0
   36.1280   21.4320   30.0580 H   0  0  0  0  0  0  0  0  0  0  0  0
   35.2050   17.9930   32.2480 H   0  0  0  0  0  0  0  0  0  0  0  0
   37.3370   27.2170   31.8930 O   0  0  0  0  0  0  0  0  0  0  0  0
   36.5810   28.2140   32.4870 C   0  0  0  0  0  0  0  0  0  0  0  0
   35.9680   29.0820   31.5790 C   0  0  0  0  0  0  0  0  0  0  0  0
   35.2440   30.0290   32.3150 C   0  0  0  0  0  0  0  0  0  0  0  0
   35.4490   29.6960   33.6060 N   0  0  0  0  0  0  0  0  0  0  0  0
   36.2230   28.6450   33.7130 N   0  0  0  0  0  0  0  0  0  0  0  0
   35.9350   29.1740   30.5000 H   0  0  0  0  0  0  0  0  0  0  0  0
   34.6330   30.8690   32.0130 H   0  0  0  0  0  0  0  0  0  0  0  0
   34.9040   30.3850   34.7310 C   0  0  0  0  0  0  0  0  0  0  0  0
   35.7540   31.1670   35.4870 C   0  0  0  0  0  0  0  0  0  0  0  0
   36.7910   31.2970   35.2940 H   0  0  0  0  0  0  0  0  0  0  0  0
   35.2260   31.8310   36.5740 C   0  0  0  0  0  0  0  0  0  0  0  0
   35.8340   32.4700   37.2220 H   0  0  0  0  0  0  0  0  0  0  0  0
   33.8830   31.7570   36.9520 C   0  0  0  0  0  3  0  0  0  0  0  0
   33.0950   30.9470   36.1370 C   0  0  0  0  0  3  0  0  0  0  0  0
   33.6020   30.2880   35.0650 N   0  0  0  0  0  0  0  0  0  0  0  0
  1 11  1  0  0  0  0
  1  6  1  0  0  0  0
  2  1  2  0  0  0  0
  3  2  1  0  0  0  0
  3  4  2  0  0  0  0
  4 19  1  0  0  0  0
  4  5  1  0  0  0  0
  5  6  2  0  0  0  0
  5  9  1  0  0  0  0
  7  2  1  0  0  0  0
  8  3  1  0  0  0  0
 10 15  1  0  0  0  0
 10 16  1  0  0  0  0
 11 10  2  0  0  0  0
 12 13  2  0  0  0  0
 12 11  1  0  0  0  0
 13 14  1  0  0  0  0
 14 15  2  0  0  0  0
 17 12  1  0  0  0  0
 18 14  1  0  0  0  0
 19 20  1  0  0  0  0
 20 24  2  0  0  0  0
 21 22  2  0  0  0  0
 21 20  1  0  0  0  0
 22 23  1  0  0  0  0
 23 24  1  0  0  0  0
 23 27  1  0  0  0  0
 25 21  1  0  0  0  0
 26 22  1  0  0  0  0
 27 34  2  0  0  0  0
 27 28  1  0  0  0  0
 28 30  2  0  0  0  0
 29 28  1  0  0  0  0
 30 32  1  0  0  0  0
 30 31  1  0  0  0  0
 33 32  2  0  0  0  0
 34 33  1  0  0  0  0
M  END
>  <minimizedAffinity>
-5.95756865

$$$$

 OpenBabel03272510123D

 34 37  0  0  0  0  0  0  0  0999 V2000
   35.6500   29.7960   34.2180 C   0  0  0  0  0  0  0  0  0  0  0  0
   35.7300   29.9590   32.8800 C   0  0  0  0  0  0  0  0  0  0  0  0
   36.3150   29.0580   32.0150 C   0  0  0  0  0  0  0  0  0  0  0  0
   36.8640   27.9080   32.4970 C   0  0  0  0  0  0  0  0  0  0  0  0
   36.7860   27.7280   33.8820 C   0  0  0  0  0  0  0  0  0  0  0  0
   36.2050   28.6380   34.6860 N   0  0  0  0  0  0  0  0  0  0  0  0
   35.3210   30.8430   32.4120 H   0  0  0  0  0  0  0  0  0  0  0  0
   36.3740   29.1980   30.9420 H   0  0  0  0  0  0  0  0  0  0  0  0
   37.2080   26.8320   34.3190 H   0  0  0  0  0  0  0  0  0  0  0  0
   33.6590   30.8900   35.2530 C   0  0  0  0  0  0  0  0  0  0  0  0
   35.0450   30.7240   35.1250 C   0  0  0  0  0  0  0  0  0  0  0  0
   35.8310   31.5200   35.9370 C   0  0  0  0  0  0  0  0  0  0  0  0
   35.2440   32.4030   36.7990 N   0  0  0  0  0  0  0  0  0  0  0  0
   33.8920   32.5100   36.8700 C   0  0  0  0  0  0  0  0  0  0  0  0
   33.0830   31.7560   36.0990 N   0  0  0  0  0  0  0  0  0  0  0  0
   33.0000   30.2920   34.6400 H   0  0  0  0  0  0  0  0  0  0  0  0
   36.9020   31.4050   35.8520 H   0  0  0  0  0  0  0  0  0  0  0  0
   33.5790   33.2470   37.5950 H   0  0  0  0  0  0  0  0  0  0  0  0
   37.4920   26.8960   31.7600 O   0  0  0  0  0  0  0  0  0  0  0  0
   36.9400   25.6290   31.6660 C   0  0  0  0  0  0  0  0  0  0  0  0
   35.6840   25.5980   31.0570 C   0  0  0  0  0  0  0  0  0  0  0  0
   35.2530   24.2650   31.0300 C   0  0  0  0  0  0  0  0  0  0  0  0
   36.2500   23.5680   31.6130 N   0  0  0  0  0  0  0  0  0  0  0  0
   37.2320   24.3510   31.9830 N   0  0  0  0  0  0  0  0  0  0  0  0
   35.0140   26.3350   30.6290 H   0  0  0  0  0  0  0  0  0  0  0  0
   34.3510   23.8020   30.6540 H   0  0  0  0  0  0  0  0  0  0  0  0
   36.2590   22.1540   31.8120 C   0  0  0  0  0  0  0  0  0  0  0  0
   35.1420   21.5700   32.3760 C   0  0  0  0  0  0  0  0  0  0  0  0
   34.2680   22.0970   32.6750 H   0  0  0  0  0  0  0  0  0  0  0  0
   35.1530   20.2060   32.5680 C   0  0  0  0  0  0  0  0  0  0  0  0
   34.3070   19.6690   33.0080 H   0  0  0  0  0  0  0  0  0  0  0  0
   36.2280   19.3820   32.2250 C   0  0  0  0  0  3  0  0  0  0  0  0
   37.3140   20.0490   31.6630 C   0  0  0  0  0  3  0  0  0  0  0  0
   37.3170   21.3910   31.4690 N   0  0  0  0  0  0  0  0  0  0  0  0
  1  6  1  0  0  0  0
  1 11  1  0  0  0  0
  2  1  2  0  0  0  0
  3  4  2  0  0  0  0
  3  2  1  0  0  0  0
  4  5  1  0  0  0  0
  5  9  1  0  0  0  0
  5  6  2  0  0  0  0
  7  2  1  0  0  0  0
  8  3  1  0  0  0  0
 10 15  1  0  0  0  0
 11 10  2  0  0  0  0
 11 12  1  0  0  0  0
 12 13  2  0  0  0  0
 13 14  1  0  0  0  0
 14 18  1  0  0  0  0
 15 14  2  0  0  0  0
 16 10  1  0  0  0  0
 17 12  1  0  0  0  0
 19  4  1  0  0  0  0
 20 19  1  0  0  0  0
 20 24  2  0  0  0  0
 21 20  1  0  0  0  0
 22 21  2  0  0  0  0
 22 23  1  0  0  0  0
 23 27  1  0  0  0  0
 23 24  1  0  0  0  0
 25 21  1  0  0  0  0
 26 22  1  0  0  0  0
 27 28  1  0  0  0  0
 28 30  2  0  0  0  0
 28 29  1  0  0  0  0
 30 31  1  0  0  0  0
 32 30  1  0  0  0  0
 33 32  2  0  0  0  0
 34 33  1  0  0  0  0
 34 27  2  0  0  0  0
M  END
>  <minimizedAffinity>
-5.67937851

$$$$

 OpenBabel03272510123D

 34 37  0  0  0  0  0  0  0  0999 V2000
   39.3410   24.7630   34.9760 C   0  0  0  0  0  0  0  0  0  0  0  0
   39.7060   26.0610   34.9010 C   0  0  0  0  0  0  0  0  0  0  0  0
   39.0640   27.0110   34.1340 C   0  0  0  0  0  0  0  0  0  0  0  0
   37.9810   26.6640   33.3840 C   0  0  0  0  0  0  0  0  0  0  0  0
   37.5940   25.3210   33.4550 C   0  0  0  0  0  0  0  0  0  0  0  0
   38.2530   24.4300   34.2180 N   0  0  0  0  0  0  0  0  0  0  0  0
   40.5540   26.4240   35.4630 H   0  0  0  0  0  0  0  0  0  0  0  0
   39.3640   28.0500   34.0800 H   0  0  0  0  0  0  0  0  0  0  0  0
   36.7390   24.9900   32.8770 H   0  0  0  0  0  0  0  0  0  0  0  0
   41.2220   23.1810   35.4150 C   0  0  0  0  0  0  0  0  0  0  0  0
   39.9990   23.7680   35.7680 C   0  0  0  0  0  0  0  0  0  0  0  0
   39.4350   23.3320   36.9530 C   0  0  0  0  0  0  0  0  0  0  0  0
   40.0700   22.3820   37.7020 N   0  0  0  0  0  0  0  0  0  0  0  0
   41.2550   21.8570   37.2960 C   0  0  0  0  0  0  0  0  0  0  0  0
   41.8460   22.2490   36.1490 N   0  0  0  0  0  0  0  0  0  0  0  0
   41.7050   23.4860   34.4980 H   0  0  0  0  0  0  0  0  0  0  0  0
   38.4920   23.7750   37.2410 H   0  0  0  0  0  0  0  0  0  0  0  0
   41.6330   21.1210   37.9900 H   0  0  0  0  0  0  0  0  0  0  0  0
   37.2210   27.5000   32.5560 O   0  0  0  0  0  0  0  0  0  0  0  0
   36.3560   28.4420   33.0880 C   0  0  0  0  0  0  0  0  0  0  0  0
   35.5300   29.0550   32.1420 C   0  0  0  0  0  0  0  0  0  0  0  0
   34.7170   29.9750   32.8170 C   0  0  0  0  0  0  0  0  0  0  0  0
   35.0810   29.8760   34.1110 N   0  0  0  0  0  0  0  0  0  0  0  0
   36.0300   28.9890   34.2760 N   0  0  0  0  0  0  0  0  0  0  0  0
   35.3930   28.9790   31.0700 H   0  0  0  0  0  0  0  0  0  0  0  0
   33.9480   30.6530   32.4710 H   0  0  0  0  0  0  0  0  0  0  0  0
   34.5190   30.6300   35.1860 C   0  0  0  0  0  0  0  0  0  0  0  0
   35.3570   31.4590   35.9050 C   0  0  0  0  0  0  0  0  0  0  0  0
   36.3970   31.5800   35.7190 H   0  0  0  0  0  0  0  0  0  0  0  0
   34.8140   32.1850   36.9420 C   0  0  0  0  0  0  0  0  0  0  0  0
   35.4110   32.8640   37.5590 H   0  0  0  0  0  0  0  0  0  0  0  0
   33.4660   32.1320   37.3050 C   0  0  0  0  0  3  0  0  0  0  0  0
   32.6900   31.2720   36.5300 C   0  0  0  0  0  3  0  0  0  0  0  0
   33.2130   30.5500   35.5070 N   0  0  0  0  0  0  0  0  0  0  0  0
  1 11  1  0  0  0  0
  2  1  1  0  0  0  0
  2  7  1  0  0  0  0
  3  2  2  0  0  0  0
  4  5  2  0  0  0  0
  4  3  1  0  0  0  0
  5  6  1  0  0  0  0
  6  1  2  0  0  0  0
  8  3  1  0  0  0  0
  9  5  1  0  0  0  0
 10 11  2  0  0  0  0
 10 15  1  0  0  0  0
 11 12  1  0  0  0  0
 12 17  1  0  0  0  0
 12 13  2  0  0  0  0
 14 13  1  0  0  0  0
 14 18  1  0  0  0  0
 15 14  2  0  0  0  0
 16 10  1  0  0  0  0
 19 20  1  0  0  0  0
 19  4  1  0  0  0  0
 20 24  2  0  0  0  0
 21 22  2  0  0  0  0
 21 20  1  0  0  0  0
 22 23  1  0  0  0  0
 23 24  1  0  0  0  0
 23 27  1  0  0  0  0
 25 21  1  0  0  0  0
 26 22  1  0  0  0  0
 27 34  2  0  0  0  0
 27 28  1  0  0  0  0
 28 30  2  0  0  0  0
 29 28  1  0  0  0  0
 30 32  1  0  0  0  0
 30 31  1  0  0  0  0
 33 32  2  0  0  0  0
 34 33  1  0  0  0  0
M  END
>  <minimizedAffinity>
-5.6610589

$$$$

 OpenBabel03272510123D

 34 37  0  0  0  0  0  0  0  0999 V2000
   35.8730   29.5250   34.1340 C   0  0  0  0  0  0  0  0  0  0  0  0
   36.3760   28.4390   34.7590 C   0  0  0  0  0  0  0  0  0  0  0  0
   36.9300   27.3520   34.1150 C   0  0  0  0  0  0  0  0  0  0  0  0
   36.9950   27.3260   32.7540 C   0  0  0  0  0  0  0  0  0  0  0  0
   36.4770   28.4470   32.0960 C   0  0  0  0  0  0  0  0  0  0  0  0
   35.9470   29.4850   32.7690 N   0  0  0  0  0  0  0  0  0  0  0  0
   36.3650   28.3750   35.8370 H   0  0  0  0  0  0  0  0  0  0  0  0
   37.3300   26.4850   34.6250 H   0  0  0  0  0  0  0  0  0  0  0  0
   36.5030   28.4790   31.0140 H   0  0  0  0  0  0  0  0  0  0  0  0
   35.9030   31.3200   35.8700 C   0  0  0  0  0  0  0  0  0  0  0  0
   35.2980   30.6600   34.7910 C   0  0  0  0  0  0  0  0  0  0  0  0
   34.0800   31.1650   34.3760 C   0  0  0  0  0  0  0  0  0  0  0  0
   33.5380   32.2470   35.0100 N   0  0  0  0  0  0  0  0  0  0  0  0
   34.1830   32.8370   36.0490 C   0  0  0  0  0  0  0  0  0  0  0  0
   35.3730   32.3820   36.4920 N   0  0  0  0  0  0  0  0  0  0  0  0
   36.8570   30.9640   36.2340 H   0  0  0  0  0  0  0  0  0  0  0  0
   33.5980   30.6680   33.5460 H   0  0  0  0  0  0  0  0  0  0  0  0
   33.6340   33.6780   36.4460 H   0  0  0  0  0  0  0  0  0  0  0  0
   37.5210   26.3070   31.9510 O   0  0  0  0  0  0  0  0  0  0  0  0
   36.8800   25.0840   31.8300 C   0  0  0  0  0  0  0  0  0  0  0  0
   35.7100   25.1270   31.0680 C   0  0  0  0  0  0  0  0  0  0  0  0
   35.1750   23.8330   31.0330 C   0  0  0  0  0  0  0  0  0  0  0  0
   36.0300   23.0850   31.7590 N   0  0  0  0  0  0  0  0  0  0  0  0
   37.0210   23.8030   32.2250 N   0  0  0  0  0  0  0  0  0  0  0  0
   35.1630   25.8960   30.5350 H   0  0  0  0  0  0  0  0  0  0  0  0
   34.2900   23.4270   30.5610 H   0  0  0  0  0  0  0  0  0  0  0  0
   35.8950   21.6850   32.0060 C   0  0  0  0  0  0  0  0  0  0  0  0
   35.7380   21.2680   33.3120 C   0  0  0  0  0  0  0  0  0  0  0  0
   35.7090   21.9140   34.1560 H   0  0  0  0  0  0  0  0  0  0  0  0
   35.6080   19.9160   33.5480 C   0  0  0  0  0  0  0  0  0  0  0  0
   35.4800   19.5060   34.5550 H   0  0  0  0  0  0  0  0  0  0  0  0
   35.6260   18.9470   32.5420 C   0  0  0  0  0  3  0  0  0  0  0  0
   35.7880   19.4510   31.2530 C   0  0  0  0  0  3  0  0  0  0  0  0
   35.9180   20.7790   31.0080 N   0  0  0  0  0  0  0  0  0  0  0  0
  1  2  1  0  0  0  0
  1 11  1  0  0  0  0
  2  7  1  0  0  0  0
  3  8  1  0  0  0  0
  3  2  2  0  0  0  0
  4  3  1  0  0  0  0
  5  4  2  0  0  0  0
  5  6  1  0  0  0  0
  6  1  2  0  0  0  0
  9  5  1  0  0  0  0
 10 16  1  0  0  0  0
 10 15  1  0  0  0  0
 11 10  2  0  0  0  0
 12 11  1  0  0  0  0
 12 13  2  0  0  0  0
 13 14  1  0  0  0  0
 14 18  1  0  0  0  0
 14 15  2  0  0  0  0
 17 12  1  0  0  0  0
 19  4  1  0  0  0  0
 20 19  1  0  0  0  0
 20 24  2  0  0  0  0
 21 20  1  0  0  0  0
 22 21  2  0  0  0  0
 22 23  1  0  0  0  0
 23 27  1  0  0  0  0
 23 24  1  0  0  0  0
 25 21  1  0  0  0  0
 26 22  1  0  0  0  0
 27 28  1  0  0  0  0
 28 30  2  0  0  0  0
 28 29  1  0  0  0  0
 30 31  1  0  0  0  0
 32 30  1  0  0  0  0
 33 32  2  0  0  0  0
 34 33  1  0  0  0  0
 34 27  2  0  0  0  0
M  END
>  <minimizedAffinity>
-5.64540052

$$$$

 OpenBabel03272510123D

 34 37  0  0  0  0  0  0  0  0999 V2000
   38.1740   25.1210   34.9850 C   0  0  0  0  0  0  0  0  0  0  0  0
   37.9480   24.8120   33.6900 C   0  0  0  0  0  0  0  0  0  0  0  0
   37.2850   25.6260   32.7950 C   0  0  0  0  0  0  0  0  0  0  0  0
   36.8060   26.8360   33.1990 C   0  0  0  0  0  0  0  0  0  0  0  0
   37.0340   27.1660   34.5400 C   0  0  0  0  0  0  0  0  0  0  0  0
   37.6870   26.3380   35.3760 N   0  0  0  0  0  0  0  0  0  0  0  0
   38.2930   23.8720   33.2840 H   0  0  0  0  0  0  0  0  0  0  0  0
   37.1080   25.3690   31.7580 H   0  0  0  0  0  0  0  0  0  0  0  0
   36.6740   28.1160   34.9150 H   0  0  0  0  0  0  0  0  0  0  0  0
   38.3590   23.9690   37.1920 C   0  0  0  0  0  0  0  0  0  0  0  0
   38.8610   24.2850   35.9220 C   0  0  0  0  0  0  0  0  0  0  0  0
   40.0900   23.7390   35.6010 C   0  0  0  0  0  0  0  0  0  0  0  0
   40.7380   22.9430   36.5030 N   0  0  0  0  0  0  0  0  0  0  0  0
   40.1900   22.6800   37.7170 C   0  0  0  0  0  0  0  0  0  0  0  0
   38.9940   23.1880   38.0770 N   0  0  0  0  0  0  0  0  0  0  0  0
   37.4020   24.3720   37.4930 H   0  0  0  0  0  0  0  0  0  0  0  0
   40.4930   23.9720   34.6260 H   0  0  0  0  0  0  0  0  0  0  0  0
   40.8170   22.0370   38.3170 H   0  0  0  0  0  0  0  0  0  0  0  0
   36.1150   27.7750   32.4240 O   0  0  0  0  0  0  0  0  0  0  0  0
   35.9030   29.0660   32.8800 C   0  0  0  0  0  0  0  0  0  0  0  0
   36.1320   30.0540   31.9200 C   0  0  0  0  0  0  0  0  0  0  0  0
   35.8800   31.2970   32.5160 C   0  0  0  0  0  0  0  0  0  0  0  0
   35.5170   31.0060   33.7820 N   0  0  0  0  0  0  0  0  0  0  0  0
   35.5270   29.7150   34.0000 N   0  0  0  0  0  0  0  0  0  0  0  0
   36.4430   30.0660   30.8810 H   0  0  0  0  0  0  0  0  0  0  0  0
   35.9350   32.3080   32.1360 H   0  0  0  0  0  0  0  0  0  0  0  0
   35.1620   31.9650   34.7780 C   0  0  0  0  0  0  0  0  0  0  0  0
   35.1660   31.5620   36.0980 C   0  0  0  0  0  0  0  0  0  0  0  0
   35.4150   30.5840   36.4330 H   0  0  0  0  0  0  0  0  0  0  0  0
   34.8230   32.4890   37.0580 C   0  0  0  0  0  0  0  0  0  0  0  0
   34.8020   32.2480   38.1260 H   0  0  0  0  0  0  0  0  0  0  0  0
   34.4720   33.8110   36.7720 C   0  0  0  0  0  3  0  0  0  0  0  0
   34.4930   34.1360   35.4170 C   0  0  0  0  0  3  0  0  0  0  0  0
   34.8290   33.2320   34.4620 N   0  0  0  0  0  0  0  0  0  0  0  0
  1  6  1  0  0  0  0
  1 11  1  0  0  0  0
  2  1  2  0  0  0  0
  3  4  2  0  0  0  0
  3  2  1  0  0  0  0
  4  5  1  0  0  0  0
  5  9  1  0  0  0  0
  5  6  2  0  0  0  0
  7  2  1  0  0  0  0
  8  3  1  0  0  0  0
 10 16  1  0  0  0  0
 10 15  1  0  0  0  0
 11 10  2  0  0  0  0
 12 11  1  0  0  0  0
 12 13  2  0  0  0  0
 13 14  1  0  0  0  0
 14 15  2  0  0  0  0
 14 18  1  0  0  0  0
 17 12  1  0  0  0  0
 19 20  1  0  0  0  0
 19  4  1  0  0  0  0
 20 24  2  0  0  0  0
 21 22  2  0  0  0  0
 21 20  1  0  0  0  0
 22 23  1  0  0  0  0
 23 24  1  0  0  0  0
 23 27  1  0  0  0  0
 25 21  1  0  0  0  0
 26 22  1  0  0  0  0
 27 28  1  0  0  0  0
 28 29  1  0  0  0  0
 28 30  2  0  0  0  0
 30 31  1  0  0  0  0
 32 30  1  0  0  0  0
 33 32  2  0  0  0  0
 34 27  2  0  0  0  0
 34 33  1  0  0  0  0
M  END
>  <minimizedAffinity>
-5.48571682

$$$$

 OpenBabel03272510123D

 34 37  0  0  0  0  0  0  0  0999 V2000
   37.8660   27.3420   31.9120 C   0  0  0  0  0  0  0  0  0  0  0  0
   37.1860   28.0200   32.8600 C   0  0  0  0  0  0  0  0  0  0  0  0
   36.9490   27.5560   34.1370 C   0  0  0  0  0  0  0  0  0  0  0  0
   37.4140   26.3330   34.5150 C   0  0  0  0  0  0  0  0  0  0  0  0
   38.1220   25.6200   33.5410 C   0  0  0  0  0  0  0  0  0  0  0  0
   38.3270   26.1160   32.3060 N   0  0  0  0  0  0  0  0  0  0  0  0
   36.7800   28.9990   32.6470 H   0  0  0  0  0  0  0  0  0  0  0  0
   36.4010   28.1080   34.8910 H   0  0  0  0  0  0  0  0  0  0  0  0
   38.5130   24.6410   33.7870 H   0  0  0  0  0  0  0  0  0  0  0  0
   37.2980   28.7360   29.9210 C   0  0  0  0  0  0  0  0  0  0  0  0
   38.1190   27.8140   30.5840 C   0  0  0  0  0  0  0  0  0  0  0  0
   39.2200   27.3620   29.8800 C   0  0  0  0  0  0  0  0  0  0  0  0
   39.4520   27.8180   28.6130 N   0  0  0  0  0  0  0  0  0  0  0  0
   38.6120   28.7130   28.0320 C   0  0  0  0  0  0  0  0  0  0  0  0
   37.5260   29.1840   28.6780 N   0  0  0  0  0  0  0  0  0  0  0  0
   36.4250   29.1200   30.4270 H   0  0  0  0  0  0  0  0  0  0  0  0
   39.8630   26.6500   30.3760 H   0  0  0  0  0  0  0  0  0  0  0  0
   38.9260   28.9790   27.0340 H   0  0  0  0  0  0  0  0  0  0  0  0
   37.2610   25.7170   35.7640 O   0  0  0  0  0  0  0  0  0  0  0  0
   38.1830   24.7930   36.2260 C   0  0  0  0  0  0  0  0  0  0  0  0
   37.8070   24.1550   37.4110 C   0  0  0  0  0  0  0  0  0  0  0  0
   38.8250   23.2570   37.7560 C   0  0  0  0  0  0  0  0  0  0  0  0
   39.7490   23.3910   36.7830 N   0  0  0  0  0  0  0  0  0  0  0  0
   39.3840   24.2790   35.8930 N   0  0  0  0  0  0  0  0  0  0  0  0
   36.9530   24.2040   38.0770 H   0  0  0  0  0  0  0  0  0  0  0  0
   38.9370   22.5730   38.5860 H   0  0  0  0  0  0  0  0  0  0  0  0
   40.9780   22.6680   36.7100 C   0  0  0  0  0  0  0  0  0  0  0  0
   41.9880   23.1820   35.9200 C   0  0  0  0  0  0  0  0  0  0  0  0
   41.9200   24.0820   35.3580 H   0  0  0  0  0  0  0  0  0  0  0  0
   43.1730   22.4830   35.8500 C   0  0  0  0  0  0  0  0  0  0  0  0
   44.0200   22.8240   35.2470 H   0  0  0  0  0  0  0  0  0  0  0  0
   43.4110   21.2870   36.5320 C   0  0  0  0  0  3  0  0  0  0  0  0
   42.3420   20.8370   37.3050 C   0  0  0  0  0  3  0  0  0  0  0  0
   41.1700   21.5150   37.3820 N   0  0  0  0  0  0  0  0  0  0  0  0
  1  6  2  0  0  0  0
  1  2  1  0  0  0  0
  2  3  2  0  0  0  0
  3  4  1  0  0  0  0
  3  8  1  0  0  0  0
  4 19  1  0  0  0  0
  5  9  1  0  0  0  0
  5  4  2  0  0  0  0
  6  5  1  0  0  0  0
  7  2  1  0  0  0  0
 10 16  1  0  0  0  0
 10 11  1  0  0  0  0
 11  1  1  0  0  0  0
 12 17  1  0  0  0  0
 12 11  2  0  0  0  0
 13 12  1  0  0  0  0
 14 13  2  0  0  0  0
 14 15  1  0  0  0  0
 15 10  2  0  0  0  0
 18 14  1  0  0  0  0
 19 20  1  0  0  0  0
 20 21  1  0  0  0  0
 21 22  2  0  0  0  0
 21 25  1  0  0  0  0
 22 26  1  0  0  0  0
 23 22  1  0  0  0  0
 24 20  2  0  0  0  0
 24 23  1  0  0  0  0
 27 23  1  0  0  0  0
 27 34  1  0  0  0  0
 28 27  2  0  0  0  0
 29 28  1  0  0  0  0
 30 28  1  0  0  0  0
 30 32  2  0  0  0  0
 31 30  1  0  0  0  0
 32 33  1  0  0  0  0
 33 34  2  0  0  0  0
M  END
>  <minimizedAffinity>
-5.41611385

$$$$

 OpenBabel03272510123D

 34 37  0  0  0  0  0  0  0  0999 V2000
   36.1770   22.7790   31.9490 C   0  0  0  0  0  0  0  0  0  0  0  0
   35.4010   23.6410   31.2570 C   0  0  0  0  0  0  0  0  0  0  0  0
   35.5950   25.0060   31.2120 C   0  0  0  0  0  0  0  0  0  0  0  0
   36.6270   25.5710   31.8980 C   0  0  0  0  0  0  0  0  0  0  0  0
   37.4380   24.6870   32.6190 C   0  0  0  0  0  0  0  0  0  0  0  0
   37.2090   23.3610   32.6320 N   0  0  0  0  0  0  0  0  0  0  0  0
   34.5590   23.2800   30.6850 H   0  0  0  0  0  0  0  0  0  0  0  0
   34.9660   25.6890   30.6540 H   0  0  0  0  0  0  0  0  0  0  0  0
   38.2740   25.0830   33.1830 H   0  0  0  0  0  0  0  0  0  0  0  0
   35.6030   20.6750   33.1630 C   0  0  0  0  0  0  0  0  0  0  0  0
   35.9860   21.3620   32.0020 C   0  0  0  0  0  0  0  0  0  0  0  0
   36.1810   20.5870   30.8740 C   0  0  0  0  0  0  0  0  0  0  0  0
   35.9970   19.2350   30.9350 N   0  0  0  0  0  0  0  0  0  0  0  0
   35.6240   18.6370   32.0960 C   0  0  0  0  0  0  0  0  0  0  0  0
   35.4220   19.3480   33.2230 N   0  0  0  0  0  0  0  0  0  0  0  0
   35.4380   21.2330   34.0730 H   0  0  0  0  0  0  0  0  0  0  0  0
   36.4770   21.1000   29.9700 H   0  0  0  0  0  0  0  0  0  0  0  0
   35.5180   17.5670   31.9880 H   0  0  0  0  0  0  0  0  0  0  0  0
   36.9610   26.9300   31.9580 O   0  0  0  0  0  0  0  0  0  0  0  0
   36.1150   27.8520   32.5520 C   0  0  0  0  0  0  0  0  0  0  0  0
   36.4910   28.2210   33.8460 C   0  0  0  0  0  0  0  0  0  0  0  0
   35.5530   29.1490   34.3170 C   0  0  0  0  0  0  0  0  0  0  0  0
   34.6730   29.2940   33.3060 N   0  0  0  0  0  0  0  0  0  0  0  0
   34.9910   28.5460   32.2800 N   0  0  0  0  0  0  0  0  0  0  0  0
   37.2990   27.9600   34.5200 H   0  0  0  0  0  0  0  0  0  0  0  0
   35.4670   29.6810   35.2540 H   0  0  0  0  0  0  0  0  0  0  0  0
   33.5290   30.1480   33.3260 C   0  0  0  0  0  0  0  0  0  0  0  0
   32.3220   29.6280   32.9010 C   0  0  0  0  0  0  0  0  0  0  0  0
   32.1780   28.6330   32.5580 H   0  0  0  0  0  0  0  0  0  0  0  0
   31.2200   30.4550   32.9210 C   0  0  0  0  0  0  0  0  0  0  0  0
   30.2290   30.1180   32.6000 H   0  0  0  0  0  0  0  0  0  0  0  0
   31.2530   31.7850   33.3460 C   0  0  0  0  0  3  0  0  0  0  0  0
   32.5080   32.2320   33.7570 C   0  0  0  0  0  3  0  0  0  0  0  0
   33.6010   31.4280   33.7420 N   0  0  0  0  0  0  0  0  0  0  0  0
  1 11  1  0  0  0  0
  1  6  1  0  0  0  0
  2  1  2  0  0  0  0
  3  2  1  0  0  0  0
  3  4  2  0  0  0  0
  4 19  1  0  0  0  0
  4  5  1  0  0  0  0
  5  6  2  0  0  0  0
  5  9  1  0  0  0  0
  7  2  1  0  0  0  0
  8  3  1  0  0  0  0
 10 15  1  0  0  0  0
 10 16  1  0  0  0  0
 11 10  2  0  0  0  0
 12 13  2  0  0  0  0
 12 11  1  0  0  0  0
 13 14  1  0  0  0  0
 14 15  2  0  0  0  0
 17 12  1  0  0  0  0
 18 14  1  0  0  0  0
 19 20  1  0  0  0  0
 20 21  1  0  0  0  0
 21 22  2  0  0  0  0
 21 25  1  0  0  0  0
 22 26  1  0  0  0  0
 23 27  1  0  0  0  0
 23 22  1  0  0  0  0
 24 20  2  0  0  0  0
 24 23  1  0  0  0  0
 27 34  1  0  0  0  0
 28 30  1  0  0  0  0
 28 27  2  0  0  0  0
 29 28  1  0  0  0  0
 30 32  2  0  0  0  0
 31 30  1  0  0  0  0
 32 33  1  0  0  0  0
 34 33  2  0  0  0  0
M  END
>  <minimizedAffinity>
-5.31947327

$$$$

 OpenBabel03272510123D

 34 37  0  0  0  0  0  0  0  0999 V2000
   35.5530   31.0850   33.8830 C   0  0  0  0  0  0  0  0  0  0  0  0
   35.6220   30.0110   34.6990 C   0  0  0  0  0  0  0  0  0  0  0  0
   35.9440   28.7340   34.2880 C   0  0  0  0  0  0  0  0  0  0  0  0
   36.2210   28.4900   32.9760 C   0  0  0  0  0  0  0  0  0  0  0  0
   36.1530   29.5960   32.1210 C   0  0  0  0  0  0  0  0  0  0  0  0
   35.8340   30.8240   32.5710 N   0  0  0  0  0  0  0  0  0  0  0  0
   35.4170   30.1130   35.7550 H   0  0  0  0  0  0  0  0  0  0  0  0
   35.9960   27.8790   34.9500 H   0  0  0  0  0  0  0  0  0  0  0  0
   36.3630   29.4590   31.0680 H   0  0  0  0  0  0  0  0  0  0  0  0
   36.0650   33.2150   35.0810 C   0  0  0  0  0  0  0  0  0  0  0  0
   35.2210   32.4140   34.2990 C   0  0  0  0  0  0  0  0  0  0  0  0
   34.0120   32.9780   33.9350 C   0  0  0  0  0  0  0  0  0  0  0  0
   33.7040   34.2470   34.3370 N   0  0  0  0  0  0  0  0  0  0  0  0
   34.5730   34.9650   35.0940 C   0  0  0  0  0  0  0  0  0  0  0  0
   35.7630   34.4600   35.4750 N   0  0  0  0  0  0  0  0  0  0  0  0
   37.0220   32.8200   35.3930 H   0  0  0  0  0  0  0  0  0  0  0  0
   33.3490   32.3740   33.3320 H   0  0  0  0  0  0  0  0  0  0  0  0
   34.1910   35.9480   35.3320 H   0  0  0  0  0  0  0  0  0  0  0  0
   36.5620   27.2620   32.3970 O   0  0  0  0  0  0  0  0  0  0  0  0
   37.0920   26.2320   33.1570 C   0  0  0  0  0  0  0  0  0  0  0  0
   37.2710   25.0380   32.4550 C   0  0  0  0  0  0  0  0  0  0  0  0
   37.8080   24.0960   33.3420 C   0  0  0  0  0  0  0  0  0  0  0  0
   37.9270   24.7520   34.5140 N   0  0  0  0  0  0  0  0  0  0  0  0
   37.5140   25.9910   34.4150 N   0  0  0  0  0  0  0  0  0  0  0  0
   37.0940   24.7050   31.4380 H   0  0  0  0  0  0  0  0  0  0  0  0
   38.0950   23.0610   33.2130 H   0  0  0  0  0  0  0  0  0  0  0  0
   38.4350   24.1900   35.7240 C   0  0  0  0  0  0  0  0  0  0  0  0
   37.7330   24.4190   36.8910 C   0  0  0  0  0  0  0  0  0  0  0  0
   36.8360   24.9850   36.9580 H   0  0  0  0  0  0  0  0  0  0  0  0
   38.2250   23.8770   38.0580 C   0  0  0  0  0  0  0  0  0  0  0  0
   37.7270   24.0120   39.0230 H   0  0  0  0  0  0  0  0  0  0  0  0
   39.3920   23.1100   38.1280 C   0  0  0  0  0  3  0  0  0  0  0  0
   40.0400   22.9280   36.9070 C   0  0  0  0  0  3  0  0  0  0  0  0
   39.5660   23.4570   35.7510 N   0  0  0  0  0  0  0  0  0  0  0  0
  1 11  1  0  0  0  0
  1  2  1  0  0  0  0
  2  7  1  0  0  0  0
  3  2  2  0  0  0  0
  3  8  1  0  0  0  0
  4  3  1  0  0  0  0
  5  6  1  0  0  0  0
  5  4  2  0  0  0  0
  6  1  2  0  0  0  0
  9  5  1  0  0  0  0
 10 16  1  0  0  0  0
 10 15  1  0  0  0  0
 11 10  2  0  0  0  0
 12 11  1  0  0  0  0
 12 13  2  0  0  0  0
 13 14  1  0  0  0  0
 14 18  1  0  0  0  0
 14 15  2  0  0  0  0
 17 12  1  0  0  0  0
 19  4  1  0  0  0  0
 19 20  1  0  0  0  0
 20 24  2  0  0  0  0
 21 20  1  0  0  0  0
 21 22  2  0  0  0  0
 22 23  1  0  0  0  0
 23 27  1  0  0  0  0
 24 23  1  0  0  0  0
 25 21  1  0  0  0  0
 26 22  1  0  0  0  0
 27 34  2  0  0  0  0
 27 28  1  0  0  0  0
 28 29  1  0  0  0  0
 28 30  2  0  0  0  0
 30 32  1  0  0  0  0
 30 31  1  0  0  0  0
 33 32  2  0  0  0  0
 34 33  1  0  0  0  0
M  END
>  <minimizedAffinity>
-5.24718142

$$$$

 OpenBabel03272510123D

 34 37  0  0  0  0  0  0  0  0999 V2000
   36.1050   23.6310   31.7330 C   0  0  0  0  0  0  0  0  0  0  0  0
   35.3670   24.5400   31.0610 C   0  0  0  0  0  0  0  0  0  0  0  0
   35.5380   25.9060   31.1470 C   0  0  0  0  0  0  0  0  0  0  0  0
   36.5070   26.4220   31.9540 C   0  0  0  0  0  0  0  0  0  0  0  0
   37.2790   25.4890   32.6550 C   0  0  0  0  0  0  0  0  0  0  0  0
   37.0740   24.1640   32.5380 N   0  0  0  0  0  0  0  0  0  0  0  0
   34.5760   24.2200   30.3990 H   0  0  0  0  0  0  0  0  0  0  0  0
   34.9400   26.6280   30.6040 H   0  0  0  0  0  0  0  0  0  0  0  0
   38.0630   25.8450   33.3120 H   0  0  0  0  0  0  0  0  0  0  0  0
   34.9140   21.5140   32.3080 C   0  0  0  0  0  0  0  0  0  0  0  0
   35.9370   22.2120   31.6510 C   0  0  0  0  0  0  0  0  0  0  0  0
   36.8080   21.4480   30.8960 C   0  0  0  0  0  0  0  0  0  0  0  0
   36.6400   20.0940   30.8240 N   0  0  0  0  0  0  0  0  0  0  0  0
   35.6230   19.4840   31.4880 C   0  0  0  0  0  0  0  0  0  0  0  0
   34.7480   20.1860   32.2370 N   0  0  0  0  0  0  0  0  0  0  0  0
   34.2070   22.0640   32.9110 H   0  0  0  0  0  0  0  0  0  0  0  0
   37.6030   21.9700   30.3830 H   0  0  0  0  0  0  0  0  0  0  0  0
   35.6190   18.4150   31.3350 H   0  0  0  0  0  0  0  0  0  0  0  0
   36.8110   27.7750   32.1550 O   0  0  0  0  0  0  0  0  0  0  0  0
   35.8530   28.6650   32.6130 C   0  0  0  0  0  0  0  0  0  0  0  0
   35.4400   29.5980   31.6590 C   0  0  0  0  0  0  0  0  0  0  0  0
   34.4800   30.4250   32.2580 C   0  0  0  0  0  0  0  0  0  0  0  0
   34.3610   29.9610   33.5180 N   0  0  0  0  0  0  0  0  0  0  0  0
   35.1530   28.9410   33.7320 N   0  0  0  0  0  0  0  0  0  0  0  0
   35.6870   29.8070   30.6250 H   0  0  0  0  0  0  0  0  0  0  0  0
   33.9110   31.2640   31.8820 H   0  0  0  0  0  0  0  0  0  0  0  0
   33.4880   30.4970   34.5140 C   0  0  0  0  0  0  0  0  0  0  0  0
   32.8980   29.6180   35.4000 C   0  0  0  0  0  0  0  0  0  0  0  0
   33.0430   28.5650   35.3980 H   0  0  0  0  0  0  0  0  0  0  0  0
   32.0560   30.1360   36.3600 C   0  0  0  0  0  0  0  0  0  0  0  0
   31.5500   29.5060   37.0970 H   0  0  0  0  0  0  0  0  0  0  0  0
   31.7670   31.4970   36.4870 C   0  0  0  0  0  3  0  0  0  0  0  0
   32.4030   32.3150   35.5550 C   0  0  0  0  0  3  0  0  0  0  0  0
   33.2340   31.8170   34.6040 N   0  0  0  0  0  0  0  0  0  0  0  0
  1  6  1  0  0  0  0
  2  3  1  0  0  0  0
  2  1  2  0  0  0  0
  3  4  2  0  0  0  0
  4 19  1  0  0  0  0
  4  5  1  0  0  0  0
  5  9  1  0  0  0  0
  6  5  2  0  0  0  0
  7  2  1  0  0  0  0
  8  3  1  0  0  0  0
 10 16  1  0  0  0  0
 11  1  1  0  0  0  0
 11 10  2  0  0  0  0
 12 11  1  0  0  0  0
 13 12  2  0  0  0  0
 13 14  1  0  0  0  0
 14 15  2  0  0  0  0
 15 10  1  0  0  0  0
 17 12  1  0  0  0  0
 18 14  1  0  0  0  0
 19 20  1  0  0  0  0
 20 24  2  0  0  0  0
 21 22  2  0  0  0  0
 21 20  1  0  0  0  0
 22 23  1  0  0  0  0
 23 24  1  0  0  0  0
 23 27  1  0  0  0  0
 25 21  1  0  0  0  0
 26 22  1  0  0  0  0
 27 34  2  0  0  0  0
 27 28  1  0  0  0  0
 28 30  2  0  0  0  0
 29 28  1  0  0  0  0
 30 32  1  0  0  0  0
 30 31  1  0  0  0  0
 33 32  2  0  0  0  0
 34 33  1  0  0  0  0
M  END
>  <minimizedAffinity>
-5.20724964

$$$$
