
     RDKit          3D

 25 26  0  0  0  0  0  0  0  0999 V2000
   37.3457   30.1582   51.3505 C   0  0  0  0  0  0  0  0  0  0  0  0
   38.0026   30.5100   50.1680 C   0  0  0  0  0  0  0  0  0  0  0  0
   37.4176   30.1449   48.9535 C   0  0  0  0  0  0  0  0  0  0  0  0
   36.2350   29.4637   48.9867 N   0  0  0  0  0  0  0  0  0  0  0  0
   35.6355   29.1446   50.1578 C   0  0  0  0  0  0  0  0  0  0  0  0
   36.1843   29.4879   51.3325 N   0  0  0  0  0  0  0  0  0  0  0  0
   37.8629   30.3731   47.6976 O   0  0  0  0  0  0  0  0  0  0  0  0
   39.0524   32.7299   48.1370 O   0  0  0  0  0  0  0  0  0  0  0  0
   38.6949   31.7035   47.0997 P   0  0  2  0  0  0  0  0  0  0  0  0
   37.8252   32.4737   45.8517 O   0  0  0  0  0  0  0  0  0  0  0  0
   40.1638   31.1824   46.4179 O   0  0  0  0  0  0  0  0  0  0  0  0
   37.9116   30.5041   52.2083 H   0  0  0  0  0  0  0  0  0  0  0  0
   38.9165   31.0342   50.0390 H   0  0  0  0  0  0  0  0  0  0  0  0
   34.6912   28.6008   50.1932 H   0  0  0  0  0  0  0  0  0  0  0  0
   37.9994   33.4463   45.9000 H   0  0  0  0  0  0  0  0  0  0  0  0
   40.1274   30.1542   45.4852 C   0  0  0  0  0  0  0  0  0  0  0  0
   40.7795   30.0719   44.2886 C   0  0  0  0  0  0  0  0  0  0  0  0
   41.3919   30.9295   44.0700 H   0  0  0  0  0  0  0  0  0  0  0  0
   40.6361   28.9702   43.4680 C   0  0  0  0  0  0  0  0  0  0  0  0
   41.1735   28.9502   42.5285 H   0  0  0  0  0  0  0  0  0  0  0  0
   39.8018   27.9693   43.9283 C   0  0  0  0  0  0  0  0  0  0  0  0
   39.1392   28.0437   45.1351 C   0  0  0  0  0  0  0  0  0  0  0  0
   39.3109   29.1436   45.9055 N   0  0  0  0  0  0  0  0  0  0  0  0
   39.7193   27.1158   43.2435 H   0  0  0  0  0  0  0  0  0  0  0  0
   38.5031   27.2266   45.4337 H   0  0  0  0  0  0  0  0  0  0  0  0
  2  1  2  0
  3  4  2  0
  3  2  1  0
  4  5  1  0
  5  6  2  0
  6  1  1  0
  7  3  1  0
  9  7  1  1
  9  8  2  0
 10  9  1  0
 11  9  1  0
  1 12  1  0
  2 13  1  0
  5 14  1  0
 10 15  1  0
 16 17  2  0
 17 18  1  0
 17 19  1  0
 19 20  1  0
 19 21  2  0
 21 22  1  0
 22 23  2  0
 23 16  1  0
 21 24  1  0
 22 25  1  0
 11 16  1  0
M  ISO  6  12  14  13  14  14  14  15   3  18  15  20  16
M  END
>  <DihAtoms>  (1) 
8,10,15,16

>  <DihDeg>  (1) 
0.0006877435448754611

$$$$
