REMARK  Name = 
REMARK  4 active torsions:
REMARK  status: ('A' for Active; 'I' for Inactive)
REMARK    1  A    between atoms: C_1  and  C_7
REMARK    2  A    between atoms: C_2  and  C_10
REMARK    3  A    between atoms: C_10  and  C_11
REMARK    4  A    between atoms: C_11  and  C_23
REMARK                            x       y       z     vdW  Elec       q    Type
REMARK                         _______ _______ _______ _____ _____    ______ ____
ROOT
ATOM      1  C   UNL     1      37.146  31.223  48.593  0.00  0.00    +0.000 A 
ATOM      2  C   UNL     1      38.071  32.261  48.407  0.00  0.00    +0.000 A 
ATOM      3  C   UNL     1      38.425  32.431  47.093  0.00  0.00    +0.000 A 
ATOM      4  N   UNL     1      37.925  31.668  46.083  0.00  0.00    +0.000 NA
ATOM      5  C   UNL     1      37.042  30.685  46.306  0.00  0.00    +0.000 A 
ATOM      6  N   UNL     1      36.650  30.457  47.561  0.00  0.00    +0.000 NA
ATOM      7  H   UNL     1      39.134  33.187  46.785  0.00  0.00    +0.000 HD
ATOM      8  H   UNL     1      36.589  30.027  45.584  0.00  0.00    +0.000 HD
ENDROOT
BRANCH   1   9
ATOM      9  C   UNL     1      36.632  31.037  50.016  0.00  0.00    +0.000 C 
ATOM     10  C   UNL     1      35.893  29.901  50.407  0.00  0.00    +0.000 C 
ATOM     11  C   UNL     1      37.385  29.820  50.656  0.00  0.00    +0.000 C 
ATOM     12  H   UNL     1      36.790  31.941  50.673  0.00  0.00    +0.000 HD
ATOM     13  H   UNL     1      35.264  29.905  51.302  0.00  0.00    +0.000 HD
ATOM     14  H   UNL     1      35.550  29.181  49.611  0.00  0.00    +0.000 HD
ATOM     15  H   UNL     1      37.774  30.023  51.661  0.00  0.00    +0.000 HD
ATOM     16  H   UNL     1      37.998  29.190  50.025  0.00  0.00    +0.000 HD
ENDBRANCH   1   9
BRANCH   2  17
ATOM     17  C   UNL     1      38.620  33.042  49.497  0.00  0.00    +0.000 C 
ATOM     18  H   UNL     1      39.096  32.378  50.236  0.00  0.00    +0.000 HD
ATOM     19  H   UNL     1      37.768  33.558  50.038  0.00  0.00    +0.000 HD
BRANCH  17  20
ATOM     20  C   UNL     1      39.563  34.147  49.139  0.00  0.00    +0.000 C 
ATOM     21  H   UNL     1      39.887  34.651  50.072  0.00  0.00    +0.000 HD
ATOM     22  H   UNL     1      40.486  33.795  48.638  0.00  0.00    +0.000 HD
BRANCH  20  23
ATOM     23  C   UNL     1      38.962  35.196  48.280  0.00  0.00    +0.000 A 
ATOM     24  C   UNL     1      37.698  35.562  48.757  0.00  0.00    +0.000 A 
ATOM     25  H   UNL     1      37.191  35.150  49.641  0.00  0.00    +0.000 HD
ATOM     26  C   UNL     1      36.936  36.526  48.122  0.00  0.00    +0.000 A 
ATOM     27  H   UNL     1      35.955  36.835  48.462  0.00  0.00    +0.000 HD
ATOM     28  C   UNL     1      37.406  37.159  46.990  0.00  0.00    +0.000 A 
ATOM     29  C   UNL     1      38.654  36.770  46.553  0.00  0.00    +0.000 A 
ATOM     30  N   UNL     1      39.407  35.836  47.159  0.00  0.00    +0.000 NA
ENDBRANCH  20  23
ENDBRANCH  17  20
ENDBRANCH   2  17
TORSDOF 4
