REMARK  Name = 
REMARK  5 active torsions:
REMARK  status: ('A' for Active; 'I' for Inactive)
REMARK    1  A    between atoms: C_3  and  O_7
REMARK    2  A    between atoms: O_7  and  P_9
REMARK    3  A    between atoms: P_9  and  O_10
REMARK    4  A    between atoms: P_9  and  O_11
REMARK    5  A    between atoms: O_11  and  C_16
REMARK                            x       y       z     vdW  Elec       q    Type
REMARK                         _______ _______ _______ _____ _____    ______ ____
ROOT
ATOM      1  O   UNL     1      39.052  32.730  48.137  0.00  0.00    +0.000 OA
ATOM      2  P   UNL     1      38.695  31.703  47.100  0.00  0.00    +0.000 P 
ENDROOT
BRANCH   2   3
ATOM      3  O   UNL     1      37.825  32.474  45.852  0.00  0.00    +0.000 OA
ATOM      4  H   UNL     1      37.999  33.446  45.900  0.00  0.00    +0.000 HD
ENDBRANCH   2   3
BRANCH   2   5
ATOM      5  O   UNL     1      37.863  30.373  47.698  0.00  0.00    +0.000 OA
BRANCH   5   8
ATOM      6  C   UNL     1      37.346  30.158  51.350  0.00  0.00    +0.000 A 
ATOM      7  C   UNL     1      38.003  30.510  50.168  0.00  0.00    +0.000 A 
ATOM      8  C   UNL     1      37.418  30.145  48.953  0.00  0.00    +0.000 A 
ATOM      9  N   UNL     1      36.235  29.464  48.987  0.00  0.00    +0.000 NA
ATOM     10  C   UNL     1      35.636  29.145  50.158  0.00  0.00    +0.000 A 
ATOM     11  N   UNL     1      36.184  29.488  51.333  0.00  0.00    +0.000 NA
ATOM     12  H   UNL     1      37.912  30.504  52.208  0.00  0.00    +0.000 HD
ATOM     13  H   UNL     1      38.916  31.034  50.039  0.00  0.00    +0.000 HD
ATOM     14  H   UNL     1      34.691  28.601  50.193  0.00  0.00    +0.000 HD
ENDBRANCH   5   8
ENDBRANCH   2   5
BRANCH   2  15
ATOM     15  O   UNL     1      40.164  31.182  46.418  0.00  0.00    +0.000 OA
BRANCH  15  16
ATOM     16  C   UNL     1      40.127  30.154  45.485  0.00  0.00    +0.000 A 
ATOM     17  C   UNL     1      40.216  28.809  45.703  0.00  0.00    +0.000 A 
ATOM     18  H   UNL     1      40.327  28.545  46.740  0.00  0.00    +0.000 HD
ATOM     19  C   UNL     1      40.162  27.909  44.657  0.00  0.00    +0.000 A 
ATOM     20  H   UNL     1      40.236  26.852  44.878  0.00  0.00    +0.000 HD
ATOM     21  C   UNL     1      40.016  28.448  43.393  0.00  0.00    +0.000 A 
ATOM     22  C   UNL     1      39.926  29.804  43.163  0.00  0.00    +0.000 A 
ATOM     23  N   UNL     1      39.983  30.648  44.221  0.00  0.00    +0.000 NA
ENDBRANCH  15  16
ENDBRANCH   2  15
TORSDOF 5
