REMARK  Name = 
REMARK  1 active torsions:
REMARK  status: ('A' for Active; 'I' for Inactive)
REMARK    1  A    between atoms: N_12  and  C_20
REMARK                            x       y       z     vdW  Elec       q    Type
REMARK                         _______ _______ _______ _____ _____    ______ ____
ROOT
ATOM      1  C   UNL     1      37.488  30.256  51.329  0.00  0.00    +0.000 A 
ATOM      2  C   UNL     1      38.155  30.981  50.306  0.00  0.00    +0.000 A 
ATOM      3  C   UNL     1      37.818  30.722  48.973  0.00  0.00    +0.000 A 
ATOM      4  N   UNL     1      36.874  29.793  48.735  0.00  0.00    +0.000 NA
ATOM      5  C   UNL     1      36.239  29.102  49.706  0.00  0.00    +0.000 A 
ATOM      6  N   UNL     1      36.556  29.344  51.005  0.00  0.00    +0.000 NA
ATOM      7  N   UNL     1      38.443  31.413  47.915  0.00  0.00    +0.000 N 
ATOM      8  C   UNL     1      38.667  30.828  46.722  0.00  0.00    +0.000 A 
ATOM      9  C   UNL     1      39.289  31.513  45.684  0.00  0.00    +0.000 A 
ATOM     10  C   UNL     1      39.680  32.844  45.920  0.00  0.00    +0.000 A 
ATOM     11  O   UNL     1      40.244  33.502  45.019  0.00  0.00    +0.000 OA
ATOM     12  N   UNL     1      39.445  33.423  47.137  0.00  0.00    +0.000 N 
ATOM     13  C   UNL     1      38.839  32.668  48.058  0.00  0.00    +0.000 A 
ATOM     14  O   UNL     1      38.642  33.246  49.159  0.00  0.00    +0.000 OA
ATOM     15  H   UNL     1      37.693  30.400  52.379  0.00  0.00    +0.000 HD
ATOM     16  H   UNL     1      38.882  31.665  50.684  0.00  0.00    +0.000 HD
ATOM     17  H   UNL     1      35.508  28.391  49.343  0.00  0.00    +0.000 HD
ATOM     18  H   UNL     1      38.370  29.820  46.545  0.00  0.00    +0.000 HD
ATOM     19  H   UNL     1      39.477  31.060  44.720  0.00  0.00    +0.000 HD
ENDROOT
BRANCH  12  20
ATOM     20  C   UNL     1      39.841  34.772  47.378  0.00  0.00    +0.000 A 
ATOM     21  C   UNL     1      41.223  34.927  47.492  0.00  0.00    +0.000 A 
ATOM     22  H   UNL     1      41.926  34.115  47.408  0.00  0.00    +0.000 HD
ATOM     23  C   UNL     1      41.729  36.192  47.727  0.00  0.00    +0.000 A 
ATOM     24  H   UNL     1      42.799  36.363  47.824  0.00  0.00    +0.000 HD
ATOM     25  C   UNL     1      40.812  37.208  47.830  0.00  0.00    +0.000 A 
ATOM     26  C   UNL     1      39.444  37.060  47.717  0.00  0.00    +0.000 A 
ATOM     27  N   UNL     1      38.978  35.799  47.486  0.00  0.00    +0.000 NA
ENDBRANCH  12  20
TORSDOF 1
