
     RDKit          3D

 29 31  0  0  0  0  0  0  0  0999 V2000
   37.4879   30.2560   51.3289 C   0  0  0  0  0  0  0  0  0  0  0  0
   38.1550   30.9811   50.3056 C   0  0  0  0  0  0  0  0  0  0  0  0
   37.8175   30.7219   48.9730 C   0  0  0  0  0  0  0  0  0  0  0  0
   36.8737   29.7926   48.7346 N   0  0  0  0  0  0  0  0  0  0  0  0
   36.2389   29.1016   49.7062 C   0  0  0  0  0  0  0  0  0  0  0  0
   36.5561   29.3438   51.0048 N   0  0  0  0  0  0  0  0  0  0  0  0
   38.4427   31.4130   47.9151 N   0  0  0  0  0  0  0  0  0  0  0  0
   38.6667   30.8282   46.7222 C   0  0  0  0  0  0  0  0  0  0  0  0
   39.2891   31.5134   45.6839 C   0  0  0  0  0  0  0  0  0  0  0  0
   39.6804   32.8443   45.9198 C   0  0  0  0  0  0  0  0  0  0  0  0
   40.2436   33.5015   45.0188 O   0  0  0  0  0  0  0  0  0  0  0  0
   39.4452   33.4233   47.1371 N   0  0  0  0  0  0  0  0  0  0  0  0
   38.8393   32.6681   48.0581 C   0  0  0  0  0  0  0  0  0  0  0  0
   38.6419   33.2460   49.1591 O   0  0  0  0  0  0  0  0  0  0  0  0
   37.6925   30.4002   52.3793 H   0  0  0  0  0  0  0  0  0  0  0  0
   38.8815   31.6651   50.6838 H   0  0  0  0  0  0  0  0  0  0  0  0
   35.5076   28.3913   49.3428 H   0  0  0  0  0  0  0  0  0  0  0  0
   38.3702   29.8200   46.5448 H   0  0  0  0  0  0  0  0  0  0  0  0
   39.4767   31.0601   44.7199 H   0  0  0  0  0  0  0  0  0  0  0  0
   39.8411   34.7719   47.3779 C   0  0  0  0  0  0  0  0  0  0  0  0
   41.2226   34.9272   47.4923 C   0  0  0  0  0  0  0  0  0  0  0  0
   41.9260   34.1150   47.4085 H   0  0  0  0  0  0  0  0  0  0  0  0
   41.7293   36.1924   47.7271 C   0  0  0  0  0  0  0  0  0  0  0  0
   42.7992   36.3626   47.8237 H   0  0  0  0  0  0  0  0  0  0  0  0
   40.8125   37.2081   47.8295 C   0  0  0  0  0  0  0  0  0  0  0  0
   39.4444   37.0597   47.7171 C   0  0  0  0  0  0  0  0  0  0  0  0
   38.9779   35.7989   47.4857 N   0  0  0  0  0  0  0  0  0  0  0  0
   41.2211   38.1952   48.0135 H   0  0  0  0  0  0  0  0  0  0  0  0
   38.7416   37.8724   47.8011 H   0  0  0  0  0  0  0  0  0  0  0  0
  2  1  2  0
  3  2  1  0
  4  3  2  0
  4  5  1  0
  5  6  2  0
  6  1  1  0
  7 13  1  0
  7  3  1  0
  8  7  1  0
  9 10  1  0
  9  8  2  0
 10 12  1  0
 11 10  2  0
 12 13  1  0
 13 14  2  0
  1 15  1  0
  2 16  1  0
  5 17  1  0
  8 18  1  0
  9 19  1  0
 20 21  2  0
 21 22  1  0
 21 23  1  0
 23 24  1  0
 23 25  2  0
 25 26  1  0
 26 27  2  0
 27 20  1  0
 25 28  1  0
 26 29  1  0
 12 20  1  0
M  ISO  7  15  14  16  14  17  14  18  14  19  14  22  15  24  16
M  END
>  <DihAtoms>  (1) 
9,11,19,20

>  <DihDeg>  (1) 
-86.79127137271574

$$$$
