
 OpenBabel03272504253D

 38 41  0  0  0  0  0  0  0  0999 V2000
   37.0030   21.8160   33.3460 C   0  0  0  0  0  0  0  0  0  0  0  0
   36.5950   22.2040   32.0700 C   0  0  0  0  0  0  0  0  0  0  0  0
   35.5730   21.6030   31.3690 C   0  0  0  0  0  0  0  0  0  0  0  0
   34.8680   20.5470   31.9160 C   0  0  0  0  0  0  0  0  0  0  0  0
   35.2030   20.0970   33.1850 C   0  0  0  0  0  0  0  0  0  0  0  0
   36.2300   20.7510   33.8000 C   0  0  0  0  0  0  0  0  0  0  0  0
   35.3200   21.9740   30.3650 H   0  0  0  0  0  0  0  0  0  0  0  0
   34.0750   20.0900   31.3550 H   0  0  0  0  0  0  0  0  0  0  0  0
   34.6880   19.2780   33.6650 H   0  0  0  0  0  0  0  0  0  0  0  0
   36.4810   20.3780   34.8090 H   0  0  0  0  0  0  0  0  0  0  0  0
   37.4560   25.6340   31.0560 C   0  0  0  0  0  0  0  0  0  0  0  0
   38.5410   25.3790   30.3250 C   0  0  0  0  0  0  0  0  0  0  0  0
   39.0100   24.1440   30.1490 C   0  0  0  0  0  0  0  0  0  0  0  0
   38.3480   23.1300   30.7370 N   0  0  0  0  0  0  0  0  0  0  0  0
   37.2540   23.3550   31.4710 C   0  0  0  0  0  0  0  0  0  0  0  0
   36.8000   24.6040   31.6380 N   0  0  0  0  0  0  0  0  0  0  0  0
   39.0300   26.2180   29.8700 H   0  0  0  0  0  0  0  0  0  0  0  0
   39.9090   24.0700   29.5340 H   0  0  0  0  0  0  0  0  0  0  0  0
   36.2630   28.5460   32.9730 C   0  0  0  0  0  0  0  0  0  0  0  0
   36.0660   29.5050   31.9430 C   0  0  0  0  0  0  0  0  0  0  0  0
   36.3570   29.1190   30.6110 C   0  0  0  0  0  0  0  0  0  0  0  0
   36.8130   27.8490   30.3750 N   0  0  0  0  0  0  0  0  0  0  0  0
   36.9840   26.9830   31.3630 C   0  0  0  0  0  0  0  0  0  0  0  0
   36.7090   27.3300   32.6690 N   0  0  0  0  0  0  0  0  0  0  0  0
   36.0440   28.8360   33.9680 H   0  0  0  0  0  0  0  0  0  0  0  0
   35.7090   30.5040   32.1080 H   0  0  0  0  0  0  0  0  0  0  0  0
   36.2420   29.7650   29.7740 H   0  0  0  0  0  0  0  0  0  0  0  0
   38.2430   22.5250   34.2270 S   0  0  0  0  0  0  0  0  0  0  0  0
   37.8410   23.9310   34.2310 O   0  0  0  0  0  0  0  0  0  0  0  0
   39.5330   22.6350   33.4710 O   0  0  0  0  0  0  0  0  0  0  0  0
   38.3200   22.8330   35.9180 C   0  0  0  0  0  0  0  0  0  0  0  0
   39.6150   22.5350   36.4070 C   0  0  0  0  0  0  0  0  0  0  0  0
   40.4540   22.1090   35.8250 H   0  0  0  0  0  0  0  0  0  0  0  0
   40.0090   22.7410   37.7020 C   0  0  0  0  0  0  0  0  0  0  0  0
   40.9770   22.5320   38.1210 H   0  0  0  0  0  0  0  0  0  0  0  0
   39.0830   23.2660   38.5540 C   0  0  0  0  0  3  0  0  0  0  0  0
   37.8140   23.5770   38.1410 C   0  0  0  0  0  3  0  0  0  0  0  0
   37.5480   23.3300   36.8530 N   0  0  0  0  0  0  0  0  0  0  0  0
  1  6  1  0  0  0  0
  1 28  1  0  0  0  0
  2  1  2  0  0  0  0
  3  4  2  0  0  0  0
  3  2  1  0  0  0  0
  4  5  1  0  0  0  0
  5  9  1  0  0  0  0
  5  6  2  0  0  0  0
  6 10  1  0  0  0  0
  7  3  1  0  0  0  0
  8  4  1  0  0  0  0
 11 23  1  0  0  0  0
 11 16  1  0  0  0  0
 12 11  2  0  0  0  0
 13 12  1  0  0  0  0
 13 14  2  0  0  0  0
 14 15  1  0  0  0  0
 15 16  2  0  0  0  0
 15  2  1  0  0  0  0
 17 12  1  0  0  0  0
 18 13  1  0  0  0  0
 19 25  1  0  0  0  0
 20 26  1  0  0  0  0
 20 19  2  0  0  0  0
 21 20  1  0  0  0  0
 22 21  2  0  0  0  0
 22 23  1  0  0  0  0
 23 24  2  0  0  0  0
 24 19  1  0  0  0  0
 27 21  1  0  0  0  0
 28 29  2  0  0  0  0
 28 31  1  0  0  0  0
 30 28  2  0  0  0  0
 31 32  2  0  0  0  0
 31 38  1  0  0  0  0
 32 34  1  0  0  0  0
 33 32  1  0  0  0  0
 34 35  1  0  0  0  0
 34 36  2  0  0  0  0
 37 36  1  0  0  0  0
 38 37  2  0  0  0  0
M  END
>  <minimizedAffinity>
-6.52339649

$$$$

 OpenBabel03272504253D

 38 41  0  0  0  0  0  0  0  0999 V2000
   37.0830   27.5080   33.8870 C   0  0  0  0  0  0  0  0  0  0  0  0
   36.5590   27.2280   32.6250 C   0  0  0  0  0  0  0  0  0  0  0  0
   35.5560   27.9580   32.0250 C   0  0  0  0  0  0  0  0  0  0  0  0
   34.9990   29.0490   32.6660 C   0  0  0  0  0  0  0  0  0  0  0  0
   35.4630   29.4030   33.9240 C   0  0  0  0  0  0  0  0  0  0  0  0
   36.4550   28.6200   34.4380 C   0  0  0  0  0  0  0  0  0  0  0  0
   35.2010   27.6640   31.0270 H   0  0  0  0  0  0  0  0  0  0  0  0
   34.2170   29.6060   32.1840 H   0  0  0  0  0  0  0  0  0  0  0  0
   35.0680   30.2460   34.4730 H   0  0  0  0  0  0  0  0  0  0  0  0
   36.8110   28.9190   35.4410 H   0  0  0  0  0  0  0  0  0  0  0  0
   37.3150   23.8960   31.2590 C   0  0  0  0  0  0  0  0  0  0  0  0
   38.3230   24.2170   30.4500 C   0  0  0  0  0  0  0  0  0  0  0  0
   38.7680   25.4670   30.3220 C   0  0  0  0  0  0  0  0  0  0  0  0
   38.1640   26.4260   31.0480 N   0  0  0  0  0  0  0  0  0  0  0  0
   37.1540   26.1330   31.8740 C   0  0  0  0  0  0  0  0  0  0  0  0
   36.7210   24.8710   31.9860 N   0  0  0  0  0  0  0  0  0  0  0  0
   38.7770   23.4180   29.8970 H   0  0  0  0  0  0  0  0  0  0  0  0
   39.5950   25.5980   29.6210 H   0  0  0  0  0  0  0  0  0  0  0  0
   35.0190   21.1520   32.1420 C   0  0  0  0  0  0  0  0  0  0  0  0
   35.6440   20.0440   31.5100 C   0  0  0  0  0  0  0  0  0  0  0  0
   36.8410   20.2770   30.7890 C   0  0  0  0  0  0  0  0  0  0  0  0
   37.3410   21.5500   30.7320 N   0  0  0  0  0  0  0  0  0  0  0  0
   36.7300   22.5590   31.3350 C   0  0  0  0  0  0  0  0  0  0  0  0
   35.5640   22.3630   32.0440 N   0  0  0  0  0  0  0  0  0  0  0  0
   34.1250   20.9760   32.6820 H   0  0  0  0  0  0  0  0  0  0  0  0
   35.2670   19.0390   31.5440 H   0  0  0  0  0  0  0  0  0  0  0  0
   37.3790   19.5120   30.2830 H   0  0  0  0  0  0  0  0  0  0  0  0
   38.3030   26.6400   34.6460 S   0  0  0  0  0  0  0  0  0  0  0  0
   38.1630   27.0780   36.0340 O   0  0  0  0  0  0  0  0  0  0  0  0
   39.6800   27.1560   34.3570 O   0  0  0  0  0  0  0  0  0  0  0  0
   38.2090   25.1040   35.4160 C   0  0  0  0  0  0  0  0  0  0  0  0
   38.0820   25.2700   36.8160 C   0  0  0  0  0  0  0  0  0  0  0  0
   38.0980   26.2290   37.3670 H   0  0  0  0  0  0  0  0  0  0  0  0
   37.9170   24.2350   37.6970 C   0  0  0  0  0  0  0  0  0  0  0  0
   37.8160   24.3090   38.7650 H   0  0  0  0  0  0  0  0  0  0  0  0
   37.8760   22.9770   37.1720 C   0  0  0  0  0  3  0  0  0  0  0  0
   37.9920   22.7510   35.8250 C   0  0  0  0  0  3  0  0  0  0  0  0
   38.1490   23.8420   35.0680 N   0  0  0  0  0  0  0  0  0  0  0  0
  1  6  1  0  0  0  0
  1 28  1  0  0  0  0
  2  1  2  0  0  0  0
  3  2  1  0  0  0  0
  3  4  2  0  0  0  0
  4  5  1  0  0  0  0
  5  6  2  0  0  0  0
  5  9  1  0  0  0  0
  6 10  1  0  0  0  0
  7  3  1  0  0  0  0
  8  4  1  0  0  0  0
 11 23  1  0  0  0  0
 11 16  1  0  0  0  0
 12 11  2  0  0  0  0
 13 12  1  0  0  0  0
 13 14  2  0  0  0  0
 14 15  1  0  0  0  0
 15 16  2  0  0  0  0
 15  2  1  0  0  0  0
 17 12  1  0  0  0  0
 18 13  1  0  0  0  0
 19 25  1  0  0  0  0
 20 26  1  0  0  0  0
 20 19  2  0  0  0  0
 21 20  1  0  0  0  0
 22 21  2  0  0  0  0
 22 23  1  0  0  0  0
 23 24  2  0  0  0  0
 24 19  1  0  0  0  0
 27 21  1  0  0  0  0
 28 31  1  0  0  0  0
 28 29  2  0  0  0  0
 30 28  2  0  0  0  0
 31 32  1  0  0  0  0
 32 33  1  0  0  0  0
 32 34  2  0  0  0  0
 34 35  1  0  0  0  0
 36 34  1  0  0  0  0
 37 36  2  0  0  0  0
 38 31  2  0  0  0  0
 38 37  1  0  0  0  0
M  END
>  <minimizedAffinity>
-6.31303549

$$$$

 OpenBabel03272504253D

 38 41  0  0  0  0  0  0  0  0999 V2000
   37.5010   23.2110   33.1340 C   0  0  0  0  0  0  0  0  0  0  0  0
   37.0450   23.7700   31.9400 C   0  0  0  0  0  0  0  0  0  0  0  0
   36.2470   23.1080   31.0320 C   0  0  0  0  0  0  0  0  0  0  0  0
   35.8390   21.8080   31.2680 C   0  0  0  0  0  0  0  0  0  0  0  0
   36.2420   21.1750   32.4350 C   0  0  0  0  0  0  0  0  0  0  0  0
   37.0320   21.9090   33.2720 C   0  0  0  0  0  0  0  0  0  0  0  0
   35.9370   23.6250   30.1130 H   0  0  0  0  0  0  0  0  0  0  0  0
   35.2180   21.3070   30.5500 H   0  0  0  0  0  0  0  0  0  0  0  0
   35.9540   20.1630   32.6760 H   0  0  0  0  0  0  0  0  0  0  0  0
   37.3420   21.3870   34.1950 H   0  0  0  0  0  0  0  0  0  0  0  0
   37.0010   27.4470   31.8220 C   0  0  0  0  0  0  0  0  0  0  0  0
   38.1090   27.6540   31.1100 C   0  0  0  0  0  0  0  0  0  0  0  0
   38.8730   26.6550   30.6690 C   0  0  0  0  0  0  0  0  0  0  0  0
   38.4950   25.3970   30.9620 N   0  0  0  0  0  0  0  0  0  0  0  0
   37.3860   25.1580   31.6700 C   0  0  0  0  0  0  0  0  0  0  0  0
   36.6320   26.1760   32.1050 N   0  0  0  0  0  0  0  0  0  0  0  0
   38.3660   28.6730   30.8960 H   0  0  0  0  0  0  0  0  0  0  0  0
   39.7560   26.9590   30.1030 H   0  0  0  0  0  0  0  0  0  0  0  0
   35.3880   29.5820   34.3550 C   0  0  0  0  0  0  0  0  0  0  0  0
   34.6880   30.5120   33.5400 C   0  0  0  0  0  0  0  0  0  0  0  0
   34.7980   30.3780   32.1340 C   0  0  0  0  0  0  0  0  0  0  0  0
   35.5690   29.3680   31.6240 N   0  0  0  0  0  0  0  0  0  0  0  0
   36.2070   28.5190   32.4170 C   0  0  0  0  0  0  0  0  0  0  0  0
   36.1180   28.6240   33.7880 N   0  0  0  0  0  0  0  0  0  0  0  0
   35.3040   29.6820   35.4060 H   0  0  0  0  0  0  0  0  0  0  0  0
   34.0800   31.3100   33.9220 H   0  0  0  0  0  0  0  0  0  0  0  0
   34.3120   31.0260   31.4430 H   0  0  0  0  0  0  0  0  0  0  0  0
   38.4730   23.9890   34.2600 S   0  0  0  0  0  0  0  0  0  0  0  0
   37.6770   25.1750   34.5750 O   0  0  0  0  0  0  0  0  0  0  0  0
   39.6790   24.6490   33.6620 O   0  0  0  0  0  0  0  0  0  0  0  0
   38.4450   23.8590   35.9760 C   0  0  0  0  0  0  0  0  0  0  0  0
   39.5250   23.0570   36.4190 C   0  0  0  0  0  0  0  0  0  0  0  0
   40.2570   22.5310   35.7790 H   0  0  0  0  0  0  0  0  0  0  0  0
   39.8110   22.8230   37.7380 C   0  0  0  0  0  0  0  0  0  0  0  0
   40.6160   22.2240   38.1240 H   0  0  0  0  0  0  0  0  0  0  0  0
   38.9950   23.4070   38.6610 C   0  0  0  0  0  3  0  0  0  0  0  0
   37.9350   24.1950   38.2940 C   0  0  0  0  0  3  0  0  0  0  0  0
   37.7570   24.3490   36.9780 N   0  0  0  0  0  0  0  0  0  0  0  0
  1  6  1  0  0  0  0
  1 28  1  0  0  0  0
  2  1  2  0  0  0  0
  3  4  2  0  0  0  0
  3  2  1  0  0  0  0
  4  5  1  0  0  0  0
  5  9  1  0  0  0  0
  5  6  2  0  0  0  0
  6 10  1  0  0  0  0
  7  3  1  0  0  0  0
  8  4  1  0  0  0  0
 11 16  1  0  0  0  0
 11 23  1  0  0  0  0
 12 11  2  0  0  0  0
 13 14  2  0  0  0  0
 13 12  1  0  0  0  0
 14 15  1  0  0  0  0
 15  2  1  0  0  0  0
 15 16  2  0  0  0  0
 17 12  1  0  0  0  0
 18 13  1  0  0  0  0
 19 25  1  0  0  0  0
 20 26  1  0  0  0  0
 20 19  2  0  0  0  0
 21 20  1  0  0  0  0
 22 21  2  0  0  0  0
 22 23  1  0  0  0  0
 23 24  2  0  0  0  0
 24 19  1  0  0  0  0
 27 21  1  0  0  0  0
 28 29  2  0  0  0  0
 28 31  1  0  0  0  0
 30 28  2  0  0  0  0
 31 32  2  0  0  0  0
 31 38  1  0  0  0  0
 32 34  1  0  0  0  0
 33 32  1  0  0  0  0
 34 35  1  0  0  0  0
 34 36  2  0  0  0  0
 37 36  1  0  0  0  0
 38 37  2  0  0  0  0
M  END
>  <minimizedAffinity>
-6.22322702

$$$$

 OpenBabel03272504253D

 38 41  0  0  0  0  0  0  0  0999 V2000
   36.9780   22.5730   33.0950 C   0  0  0  0  0  0  0  0  0  0  0  0
   36.9700   21.8020   34.2580 C   0  0  0  0  0  0  0  0  0  0  0  0
   36.2560   20.6320   34.4050 C   0  0  0  0  0  0  0  0  0  0  0  0
   35.4840   20.1420   33.3680 C   0  0  0  0  0  0  0  0  0  0  0  0
   35.4370   20.8430   32.1720 C   0  0  0  0  0  0  0  0  0  0  0  0
   36.1740   21.9900   32.1210 C   0  0  0  0  0  0  0  0  0  0  0  0
   36.3070   20.0890   35.3600 H   0  0  0  0  0  0  0  0  0  0  0  0
   34.9340   19.2300   33.5000 H   0  0  0  0  0  0  0  0  0  0  0  0
   34.8540   20.5100   31.3260 H   0  0  0  0  0  0  0  0  0  0  0  0
   36.1220   22.5340   31.1600 H   0  0  0  0  0  0  0  0  0  0  0  0
   39.8830   22.4830   36.3990 C   0  0  0  0  0  0  0  0  0  0  0  0
   39.2640   23.0530   37.4330 C   0  0  0  0  0  0  0  0  0  0  0  0
   37.9440   23.2330   37.4650 C   0  0  0  0  0  0  0  0  0  0  0  0
   37.2260   22.8120   36.4070 N   0  0  0  0  0  0  0  0  0  0  0  0
   37.8190   22.2310   35.3590 C   0  0  0  0  0  0  0  0  0  0  0  0
   39.1470   22.0620   35.3450 N   0  0  0  0  0  0  0  0  0  0  0  0
   39.8770   23.3660   38.2560 H   0  0  0  0  0  0  0  0  0  0  0  0
   37.5620   23.7180   38.3660 H   0  0  0  0  0  0  0  0  0  0  0  0
   43.2730   21.0380   36.3950 C   0  0  0  0  0  0  0  0  0  0  0  0
   44.0680   22.1780   36.0970 C   0  0  0  0  0  0  0  0  0  0  0  0
   43.4080   23.4160   35.9000 C   0  0  0  0  0  0  0  0  0  0  0  0
   42.0440   23.4610   36.0030 N   0  0  0  0  0  0  0  0  0  0  0  0
   41.3360   22.3770   36.2820 C   0  0  0  0  0  0  0  0  0  0  0  0
   41.9500   21.1590   36.4800 N   0  0  0  0  0  0  0  0  0  0  0  0
   43.7680   20.1130   36.5430 H   0  0  0  0  0  0  0  0  0  0  0  0
   45.1380   22.1610   36.0120 H   0  0  0  0  0  0  0  0  0  0  0  0
   43.9170   24.3220   35.6720 H   0  0  0  0  0  0  0  0  0  0  0  0
   37.8350   24.0000   32.8840 S   0  0  0  0  0  0  0  0  0  0  0  0
   36.8440   24.8490   32.2220 O   0  0  0  0  0  0  0  0  0  0  0  0
   38.8680   23.9280   31.7990 O   0  0  0  0  0  0  0  0  0  0  0  0
   37.9070   25.3740   33.9180 C   0  0  0  0  0  0  0  0  0  0  0  0
   39.2210   25.5330   34.4220 C   0  0  0  0  0  0  0  0  0  0  0  0
   40.0790   24.8580   34.2420 H   0  0  0  0  0  0  0  0  0  0  0  0
   39.6120   26.5760   35.2190 C   0  0  0  0  0  0  0  0  0  0  0  0
   40.5940   26.7410   35.6250 H   0  0  0  0  0  0  0  0  0  0  0  0
   38.6640   27.5030   35.5340 C   0  0  0  0  0  3  0  0  0  0  0  0
   37.3750   27.4050   35.0760 C   0  0  0  0  0  3  0  0  0  0  0  0
   37.1150   26.3430   34.3060 N   0  0  0  0  0  0  0  0  0  0  0  0
  1  2  1  0  0  0  0
  2  3  2  0  0  0  0
  2 15  1  0  0  0  0
  3  7  1  0  0  0  0
  4  8  1  0  0  0  0
  4  3  1  0  0  0  0
  5  4  2  0  0  0  0
  6  5  1  0  0  0  0
  6  1  2  0  0  0  0
  9  5  1  0  0  0  0
 10  6  1  0  0  0  0
 11 12  1  0  0  0  0
 12 13  2  0  0  0  0
 12 17  1  0  0  0  0
 13 18  1  0  0  0  0
 14 13  1  0  0  0  0
 15 14  2  0  0  0  0
 16 15  1  0  0  0  0
 16 11  2  0  0  0  0
 19 24  1  0  0  0  0
 19 25  1  0  0  0  0
 20 19  2  0  0  0  0
 21 22  2  0  0  0  0
 21 20  1  0  0  0  0
 22 23  1  0  0  0  0
 23 11  1  0  0  0  0
 23 24  2  0  0  0  0
 26 20  1  0  0  0  0
 27 21  1  0  0  0  0
 28  1  1  0  0  0  0
 28 31  1  0  0  0  0
 29 28  2  0  0  0  0
 30 28  2  0  0  0  0
 31 38  2  0  0  0  0
 31 32  1  0  0  0  0
 32 34  2  0  0  0  0
 33 32  1  0  0  0  0
 34 36  1  0  0  0  0
 34 35  1  0  0  0  0
 37 36  2  0  0  0  0
 38 37  1  0  0  0  0
M  END
>  <minimizedAffinity>
-6.13258171

$$$$

 OpenBabel03272504253D

 38 41  0  0  0  0  0  0  0  0999 V2000
   39.1460   25.8330   34.5360 C   0  0  0  0  0  0  0  0  0  0  0  0
   37.9930   25.8440   33.7510 C   0  0  0  0  0  0  0  0  0  0  0  0
   36.9750   26.7630   33.8870 C   0  0  0  0  0  0  0  0  0  0  0  0
   37.0470   27.7610   34.8410 C   0  0  0  0  0  0  0  0  0  0  0  0
   38.1620   27.8280   35.6640 C   0  0  0  0  0  0  0  0  0  0  0  0
   39.1170   26.8750   35.4580 C   0  0  0  0  0  0  0  0  0  0  0  0
   36.0990   26.6940   33.2250 H   0  0  0  0  0  0  0  0  0  0  0  0
   36.2440   28.4670   34.9330 H   0  0  0  0  0  0  0  0  0  0  0  0
   38.2760   28.5850   36.4250 H   0  0  0  0  0  0  0  0  0  0  0  0
   39.9960   26.9470   36.1230 H   0  0  0  0  0  0  0  0  0  0  0  0
   37.3100   22.7690   31.8500 C   0  0  0  0  0  0  0  0  0  0  0  0
   37.7630   23.1480   30.6550 C   0  0  0  0  0  0  0  0  0  0  0  0
   38.2760   24.3580   30.4360 C   0  0  0  0  0  0  0  0  0  0  0  0
   38.3330   25.2140   31.4720 N   0  0  0  0  0  0  0  0  0  0  0  0
   37.8920   24.8610   32.6840 C   0  0  0  0  0  0  0  0  0  0  0  0
   37.3780   23.6400   32.8830 N   0  0  0  0  0  0  0  0  0  0  0  0
   37.7030   22.4290   29.8620 H   0  0  0  0  0  0  0  0  0  0  0  0
   38.6060   24.5460   29.4110 H   0  0  0  0  0  0  0  0  0  0  0  0
   35.8450   19.4410   31.2550 C   0  0  0  0  0  0  0  0  0  0  0  0
   35.3460   19.1140   32.5440 C   0  0  0  0  0  0  0  0  0  0  0  0
   35.5360   20.0530   33.5880 C   0  0  0  0  0  0  0  0  0  0  0  0
   36.1870   21.2260   33.3130 N   0  0  0  0  0  0  0  0  0  0  0  0
   36.6380   21.4950   32.0960 C   0  0  0  0  0  0  0  0  0  0  0  0
   36.4680   20.6020   31.0610 N   0  0  0  0  0  0  0  0  0  0  0  0
   35.7020   18.7390   30.4750 H   0  0  0  0  0  0  0  0  0  0  0  0
   34.8330   18.2010   32.7790 H   0  0  0  0  0  0  0  0  0  0  0  0
   35.1990   19.8980   34.5850 H   0  0  0  0  0  0  0  0  0  0  0  0
   40.4040   24.7300   34.3980 S   0  0  0  0  0  0  0  0  0  0  0  0
   41.4670   25.3930   35.1520 O   0  0  0  0  0  0  0  0  0  0  0  0
   41.0380   24.7060   33.0390 O   0  0  0  0  0  0  0  0  0  0  0  0
   40.8310   23.4490   35.4630 C   0  0  0  0  0  0  0  0  0  0  0  0
   42.2030   23.1320   35.3160 C   0  0  0  0  0  0  0  0  0  0  0  0
   42.9070   23.5830   34.5920 H   0  0  0  0  0  0  0  0  0  0  0  0
   42.8580   22.2000   36.0760 C   0  0  0  0  0  0  0  0  0  0  0  0
   43.8950   21.9250   36.0040 H   0  0  0  0  0  0  0  0  0  0  0  0
   42.1250   21.5490   37.0240 C   0  0  0  0  0  3  0  0  0  0  0  0
   40.7940   21.8120   37.2150 C   0  0  0  0  0  3  0  0  0  0  0  0
   40.2670   22.7430   36.4120 N   0  0  0  0  0  0  0  0  0  0  0  0
  1  6  1  0  0  0  0
  2  3  1  0  0  0  0
  2  1  2  0  0  0  0
  3  4  2  0  0  0  0
  4  8  1  0  0  0  0
  4  5  1  0  0  0  0
  5  9  1  0  0  0  0
  6  5  2  0  0  0  0
  6 10  1  0  0  0  0
  7  3  1  0  0  0  0
 11 23  1  0  0  0  0
 11 16  1  0  0  0  0
 12 11  2  0  0  0  0
 13 12  1  0  0  0  0
 13 14  2  0  0  0  0
 14 15  1  0  0  0  0
 15 16  2  0  0  0  0
 15  2  1  0  0  0  0
 17 12  1  0  0  0  0
 18 13  1  0  0  0  0
 19 20  1  0  0  0  0
 20 26  1  0  0  0  0
 20 21  2  0  0  0  0
 21 27  1  0  0  0  0
 22 21  1  0  0  0  0
 23 22  2  0  0  0  0
 24 19  2  0  0  0  0
 24 23  1  0  0  0  0
 25 19  1  0  0  0  0
 28  1  1  0  0  0  0
 28 29  2  0  0  0  0
 28 31  1  0  0  0  0
 30 28  2  0  0  0  0
 31 38  1  0  0  0  0
 32 31  2  0  0  0  0
 32 34  1  0  0  0  0
 33 32  1  0  0  0  0
 34 36  2  0  0  0  0
 35 34  1  0  0  0  0
 36 37  1  0  0  0  0
 38 37  2  0  0  0  0
M  END
>  <minimizedAffinity>
-5.98954773

$$$$

 OpenBabel03272504253D

 38 41  0  0  0  0  0  0  0  0999 V2000
   37.1870   26.9060   33.2810 C   0  0  0  0  0  0  0  0  0  0  0  0
   37.9730   25.8070   33.6280 C   0  0  0  0  0  0  0  0  0  0  0  0
   38.5920   25.6540   34.8500 C   0  0  0  0  0  0  0  0  0  0  0  0
   38.4570   26.6160   35.8340 C   0  0  0  0  0  0  0  0  0  0  0  0
   37.6890   27.7420   35.5770 C   0  0  0  0  0  0  0  0  0  0  0  0
   37.1180   27.8070   34.3390 C   0  0  0  0  0  0  0  0  0  0  0  0
   39.1960   24.7550   35.0360 H   0  0  0  0  0  0  0  0  0  0  0  0
   38.9470   26.4810   36.7790 H   0  0  0  0  0  0  0  0  0  0  0  0
   37.5450   28.5260   36.3050 H   0  0  0  0  0  0  0  0  0  0  0  0
   36.5100   28.7110   34.1540 H   0  0  0  0  0  0  0  0  0  0  0  0
   37.6010   22.6000   31.8640 C   0  0  0  0  0  0  0  0  0  0  0  0
   38.3950   22.8330   30.8200 C   0  0  0  0  0  0  0  0  0  0  0  0
   39.0440   23.9860   30.6580 C   0  0  0  0  0  0  0  0  0  0  0  0
   38.8800   24.9370   31.5960 N   0  0  0  0  0  0  0  0  0  0  0  0
   38.0940   24.7290   32.6580 C   0  0  0  0  0  0  0  0  0  0  0  0
   37.4490   23.5640   32.8010 N   0  0  0  0  0  0  0  0  0  0  0  0
   38.5010   22.0430   30.1020 H   0  0  0  0  0  0  0  0  0  0  0  0
   39.6580   24.0530   29.7580 H   0  0  0  0  0  0  0  0  0  0  0  0
   35.4740   20.0070   33.3920 C   0  0  0  0  0  0  0  0  0  0  0  0
   35.2860   19.1150   32.3030 C   0  0  0  0  0  0  0  0  0  0  0  0
   35.8960   19.4370   31.0660 C   0  0  0  0  0  0  0  0  0  0  0  0
   36.6350   20.5860   30.9730 N   0  0  0  0  0  0  0  0  0  0  0  0
   36.7880   21.3950   32.0110 C   0  0  0  0  0  0  0  0  0  0  0  0
   36.2070   21.1070   33.2270 N   0  0  0  0  0  0  0  0  0  0  0  0
   35.0180   19.7650   34.3170 H   0  0  0  0  0  0  0  0  0  0  0  0
   34.7110   18.2090   32.3580 H   0  0  0  0  0  0  0  0  0  0  0  0
   35.8120   18.8320   30.1950 H   0  0  0  0  0  0  0  0  0  0  0  0
   36.4210   27.1230   31.8040 S   0  0  0  0  0  0  0  0  0  0  0  0
   35.4620   28.1830   32.1170 O   0  0  0  0  0  0  0  0  0  0  0  0
   35.4690   26.0200   31.4500 O   0  0  0  0  0  0  0  0  0  0  0  0
   36.8080   28.2320   30.5450 C   0  0  0  0  0  0  0  0  0  0  0  0
   36.4260   29.5430   30.9200 C   0  0  0  0  0  0  0  0  0  0  0  0
   35.9020   29.8340   31.8490 H   0  0  0  0  0  0  0  0  0  0  0  0
   36.6640   30.6550   30.1570 C   0  0  0  0  0  0  0  0  0  0  0  0
   36.3950   31.6690   30.3960 H   0  0  0  0  0  0  0  0  0  0  0  0
   37.3090   30.4650   28.9710 C   0  0  0  0  0  3  0  0  0  0  0  0
   37.7050   29.2200   28.5540 C   0  0  0  0  0  3  0  0  0  0  0  0
   37.4150   28.2130   29.3850 N   0  0  0  0  0  0  0  0  0  0  0  0
  1  2  2  0  0  0  0
  1  6  1  0  0  0  0
  2  3  1  0  0  0  0
  3  7  1  0  0  0  0
  3  4  2  0  0  0  0
  4  8  1  0  0  0  0
  5  4  1  0  0  0  0
  5  9  1  0  0  0  0
  6  5  2  0  0  0  0
 10  6  1  0  0  0  0
 11 23  1  0  0  0  0
 11 16  1  0  0  0  0
 12 11  2  0  0  0  0
 13 12  1  0  0  0  0
 13 14  2  0  0  0  0
 14 15  1  0  0  0  0
 15 16  2  0  0  0  0
 15  2  1  0  0  0  0
 17 12  1  0  0  0  0
 18 13  1  0  0  0  0
 19 25  1  0  0  0  0
 20 26  1  0  0  0  0
 20 19  2  0  0  0  0
 21 20  1  0  0  0  0
 22 21  2  0  0  0  0
 22 23  1  0  0  0  0
 23 24  2  0  0  0  0
 24 19  1  0  0  0  0
 27 21  1  0  0  0  0
 28 29  2  0  0  0  0
 28  1  1  0  0  0  0
 30 28  2  0  0  0  0
 31 32  1  0  0  0  0
 31 28  1  0  0  0  0
 32 33  1  0  0  0  0
 34 35  1  0  0  0  0
 34 32  2  0  0  0  0
 36 34  1  0  0  0  0
 37 36  2  0  0  0  0
 37 38  1  0  0  0  0
 38 31  2  0  0  0  0
M  END
>  <minimizedAffinity>
-5.93345785

$$$$

 OpenBabel03272504253D

 38 41  0  0  0  0  0  0  0  0999 V2000
   37.2590   22.3190   33.6990 C   0  0  0  0  0  0  0  0  0  0  0  0
   37.0140   22.9830   32.4970 C   0  0  0  0  0  0  0  0  0  0  0  0
   36.1620   22.5190   31.5180 C   0  0  0  0  0  0  0  0  0  0  0  0
   35.4770   21.3300   31.6840 C   0  0  0  0  0  0  0  0  0  0  0  0
   35.6570   20.6050   32.8530 C   0  0  0  0  0  0  0  0  0  0  0  0
   36.5210   21.1410   33.7630 C   0  0  0  0  0  0  0  0  0  0  0  0
   36.0320   23.1070   30.5980 H   0  0  0  0  0  0  0  0  0  0  0  0
   34.8180   20.9840   30.9100 H   0  0  0  0  0  0  0  0  0  0  0  0
   35.1480   19.6710   33.0410 H   0  0  0  0  0  0  0  0  0  0  0  0
   36.6500   20.5480   34.6870 H   0  0  0  0  0  0  0  0  0  0  0  0
   37.6600   26.5990   32.3030 C   0  0  0  0  0  0  0  0  0  0  0  0
   38.9270   26.5720   31.8900 C   0  0  0  0  0  0  0  0  0  0  0  0
   39.5840   25.4320   31.6750 C   0  0  0  0  0  0  0  0  0  0  0  0
   38.9270   24.2770   31.8860 N   0  0  0  0  0  0  0  0  0  0  0  0
   37.6540   24.2740   32.2950 C   0  0  0  0  0  0  0  0  0  0  0  0
   37.0120   25.4300   32.5070 N   0  0  0  0  0  0  0  0  0  0  0  0
   39.4070   27.5170   31.7280 H   0  0  0  0  0  0  0  0  0  0  0  0
   40.6190   25.5460   31.3440 H   0  0  0  0  0  0  0  0  0  0  0  0
   35.8190   29.0980   34.2890 C   0  0  0  0  0  0  0  0  0  0  0  0
   35.5850   30.1140   33.3230 C   0  0  0  0  0  0  0  0  0  0  0  0
   36.0770   29.9080   32.0100 C   0  0  0  0  0  0  0  0  0  0  0  0
   36.7510   28.7500   31.7300 N   0  0  0  0  0  0  0  0  0  0  0  0
   36.9500   27.8260   32.6580 C   0  0  0  0  0  0  0  0  0  0  0  0
   36.4830   27.9970   33.9440 N   0  0  0  0  0  0  0  0  0  0  0  0
   35.4500   29.2520   35.2700 H   0  0  0  0  0  0  0  0  0  0  0  0
   35.0580   31.0270   33.5230 H   0  0  0  0  0  0  0  0  0  0  0  0
   35.9510   30.6100   31.2200 H   0  0  0  0  0  0  0  0  0  0  0  0
   38.2890   22.8540   34.9110 S   0  0  0  0  0  0  0  0  0  0  0  0
   37.9800   21.9260   35.9980 O   0  0  0  0  0  0  0  0  0  0  0  0
   37.8550   24.1400   35.5480 O   0  0  0  0  0  0  0  0  0  0  0  0
   39.8820   22.3180   35.2820 C   0  0  0  0  0  0  0  0  0  0  0  0
   40.0510   22.2360   36.6850 C   0  0  0  0  0  0  0  0  0  0  0  0
   39.3100   22.5240   37.4540 H   0  0  0  0  0  0  0  0  0  0  0  0
   41.1890   21.7750   37.2910 C   0  0  0  0  0  0  0  0  0  0  0  0
   41.3670   21.6930   38.3490 H   0  0  0  0  0  0  0  0  0  0  0  0
   42.2070   21.3770   36.4760 C   0  0  0  0  0  3  0  0  0  0  0  0
   42.1030   21.4310   35.1100 C   0  0  0  0  0  3  0  0  0  0  0  0
   40.9430   21.8990   34.6370 N   0  0  0  0  0  0  0  0  0  0  0  0
  1  6  1  0  0  0  0
  1 28  1  0  0  0  0
  2  1  2  0  0  0  0
  3  4  2  0  0  0  0
  3  2  1  0  0  0  0
  4  5  1  0  0  0  0
  5  9  1  0  0  0  0
  5  6  2  0  0  0  0
  6 10  1  0  0  0  0
  7  3  1  0  0  0  0
  8  4  1  0  0  0  0
 11 16  1  0  0  0  0
 11 23  1  0  0  0  0
 12 11  2  0  0  0  0
 13 14  2  0  0  0  0
 13 12  1  0  0  0  0
 14 15  1  0  0  0  0
 15  2  1  0  0  0  0
 15 16  2  0  0  0  0
 17 12  1  0  0  0  0
 18 13  1  0  0  0  0
 19 25  1  0  0  0  0
 20 26  1  0  0  0  0
 20 19  2  0  0  0  0
 21 20  1  0  0  0  0
 22 21  2  0  0  0  0
 22 23  1  0  0  0  0
 23 24  2  0  0  0  0
 24 19  1  0  0  0  0
 27 21  1  0  0  0  0
 28 31  1  0  0  0  0
 28 30  2  0  0  0  0
 28 29  2  0  0  0  0
 31 32  1  0  0  0  0
 32 34  2  0  0  0  0
 32 33  1  0  0  0  0
 34 35  1  0  0  0  0
 36 34  1  0  0  0  0
 37 36  2  0  0  0  0
 38 37  1  0  0  0  0
 38 31  2  0  0  0  0
M  END
>  <minimizedAffinity>
-5.89080191

$$$$

 OpenBabel03272504253D

 38 41  0  0  0  0  0  0  0  0999 V2000
   37.4500   27.4150   34.0440 C   0  0  0  0  0  0  0  0  0  0  0  0
   36.9740   27.2180   32.7480 C   0  0  0  0  0  0  0  0  0  0  0  0
   35.9270   27.9210   32.1930 C   0  0  0  0  0  0  0  0  0  0  0  0
   35.2720   28.8990   32.9180 C   0  0  0  0  0  0  0  0  0  0  0  0
   35.6820   29.1660   34.2170 C   0  0  0  0  0  0  0  0  0  0  0  0
   36.7240   28.4170   34.6810 C   0  0  0  0  0  0  0  0  0  0  0  0
   35.6170   27.6970   31.1630 H   0  0  0  0  0  0  0  0  0  0  0  0
   34.4580   29.4370   32.4710 H   0  0  0  0  0  0  0  0  0  0  0  0
   35.2100   29.9180   34.8310 H   0  0  0  0  0  0  0  0  0  0  0  0
   37.0350   28.6450   35.7160 H   0  0  0  0  0  0  0  0  0  0  0  0
   37.9760   24.1160   31.0410 C   0  0  0  0  0  0  0  0  0  0  0  0
   39.0210   24.5750   30.3530 C   0  0  0  0  0  0  0  0  0  0  0  0
   39.4140   25.8480   30.4130 C   0  0  0  0  0  0  0  0  0  0  0  0
   38.7190   26.6830   31.2060 N   0  0  0  0  0  0  0  0  0  0  0  0
   37.6700   26.2500   31.9130 C   0  0  0  0  0  0  0  0  0  0  0  0
   37.2890   24.9680   31.8370 N   0  0  0  0  0  0  0  0  0  0  0  0
   39.5490   23.8700   29.7410 H   0  0  0  0  0  0  0  0  0  0  0  0
   40.2800   26.0970   29.7970 H   0  0  0  0  0  0  0  0  0  0  0  0
   37.8030   20.5170   30.2730 C   0  0  0  0  0  0  0  0  0  0  0  0
   36.4590   20.2150   30.6240 C   0  0  0  0  0  0  0  0  0  0  0  0
   35.6500   21.2650   31.1240 C   0  0  0  0  0  0  0  0  0  0  0  0
   36.1930   22.5160   31.2460 N   0  0  0  0  0  0  0  0  0  0  0  0
   37.4500   22.7590   30.9080 C   0  0  0  0  0  0  0  0  0  0  0  0
   38.2610   21.7580   30.4190 N   0  0  0  0  0  0  0  0  0  0  0  0
   38.4060   19.7310   29.8990 H   0  0  0  0  0  0  0  0  0  0  0  0
   36.0170   19.2400   30.5350 H   0  0  0  0  0  0  0  0  0  0  0  0
   34.6350   21.1360   31.4130 H   0  0  0  0  0  0  0  0  0  0  0  0
   38.7210   26.5760   34.7500 S   0  0  0  0  0  0  0  0  0  0  0  0
   38.6010   26.9760   36.1520 O   0  0  0  0  0  0  0  0  0  0  0  0
   40.0690   27.1520   34.4390 O   0  0  0  0  0  0  0  0  0  0  0  0
   38.7050   25.0200   35.4840 C   0  0  0  0  0  0  0  0  0  0  0  0
   39.9600   24.3890   35.3100 C   0  0  0  0  0  0  0  0  0  0  0  0
   40.8220   24.7870   34.7420 H   0  0  0  0  0  0  0  0  0  0  0  0
   40.2810   23.1680   35.8410 C   0  0  0  0  0  0  0  0  0  0  0  0
   41.2180   22.6480   35.7380 H   0  0  0  0  0  0  0  0  0  0  0  0
   39.3200   22.5410   36.5760 C   0  0  0  0  0  3  0  0  0  0  0  0
   38.0860   23.1010   36.7810 C   0  0  0  0  0  3  0  0  0  0  0  0
   37.8910   24.2960   36.2120 N   0  0  0  0  0  0  0  0  0  0  0  0
  1  6  1  0  0  0  0
  1 28  1  0  0  0  0
  2  1  2  0  0  0  0
  3  2  1  0  0  0  0
  3  4  2  0  0  0  0
  4  5  1  0  0  0  0
  5  6  2  0  0  0  0
  5  9  1  0  0  0  0
  6 10  1  0  0  0  0
  7  3  1  0  0  0  0
  8  4  1  0  0  0  0
 11 16  1  0  0  0  0
 12 13  1  0  0  0  0
 12 11  2  0  0  0  0
 13 14  2  0  0  0  0
 14 15  1  0  0  0  0
 15  2  1  0  0  0  0
 16 15  2  0  0  0  0
 17 12  1  0  0  0  0
 18 13  1  0  0  0  0
 19 24  2  0  0  0  0
 19 20  1  0  0  0  0
 20 21  2  0  0  0  0
 21 22  1  0  0  0  0
 21 27  1  0  0  0  0
 23 11  1  0  0  0  0
 23 22  2  0  0  0  0
 24 23  1  0  0  0  0
 25 19  1  0  0  0  0
 26 20  1  0  0  0  0
 28 31  1  0  0  0  0
 28 29  2  0  0  0  0
 30 28  2  0  0  0  0
 31 38  1  0  0  0  0
 32 31  2  0  0  0  0
 32 34  1  0  0  0  0
 33 32  1  0  0  0  0
 34 36  2  0  0  0  0
 35 34  1  0  0  0  0
 36 37  1  0  0  0  0
 38 37  2  0  0  0  0
M  END
>  <minimizedAffinity>
-5.83180809

$$$$

 OpenBabel03272504253D

 38 41  0  0  0  0  0  0  0  0999 V2000
   37.2540   22.5330   33.4100 C   0  0  0  0  0  0  0  0  0  0  0  0
   36.8470   23.0580   32.1830 C   0  0  0  0  0  0  0  0  0  0  0  0
   36.0350   22.3930   31.2900 C   0  0  0  0  0  0  0  0  0  0  0  0
   35.5590   21.1270   31.5760 C   0  0  0  0  0  0  0  0  0  0  0  0
   35.9110   20.5290   32.7770 C   0  0  0  0  0  0  0  0  0  0  0  0
   36.7200   21.2620   33.5960 C   0  0  0  0  0  0  0  0  0  0  0  0
   35.7660   22.8830   30.3430 H   0  0  0  0  0  0  0  0  0  0  0  0
   34.9290   20.6240   30.8680 H   0  0  0  0  0  0  0  0  0  0  0  0
   35.5690   19.5440   33.0570 H   0  0  0  0  0  0  0  0  0  0  0  0
   36.9880   20.7680   34.5480 H   0  0  0  0  0  0  0  0  0  0  0  0
   37.0290   26.7260   31.9710 C   0  0  0  0  0  0  0  0  0  0  0  0
   38.1060   26.8450   31.1950 C   0  0  0  0  0  0  0  0  0  0  0  0
   38.7800   25.7890   30.7400 C   0  0  0  0  0  0  0  0  0  0  0  0
   38.3400   24.5660   31.0860 N   0  0  0  0  0  0  0  0  0  0  0  0
   37.2590   24.4150   31.8580 C   0  0  0  0  0  0  0  0  0  0  0  0
   36.5960   25.4890   32.3070 N   0  0  0  0  0  0  0  0  0  0  0  0
   38.4140   27.8400   30.9400 H   0  0  0  0  0  0  0  0  0  0  0  0
   39.6480   26.0230   30.1190 H   0  0  0  0  0  0  0  0  0  0  0  0
   35.8630   29.1310   34.5070 C   0  0  0  0  0  0  0  0  0  0  0  0
   35.0160   29.9720   33.7340 C   0  0  0  0  0  0  0  0  0  0  0  0
   34.8760   29.6860   32.3540 C   0  0  0  0  0  0  0  0  0  0  0  0
   35.5580   28.6220   31.8260 N   0  0  0  0  0  0  0  0  0  0  0  0
   36.3380   27.8610   32.5790 C   0  0  0  0  0  0  0  0  0  0  0  0
   36.4930   28.1140   33.9250 N   0  0  0  0  0  0  0  0  0  0  0  0
   35.9660   29.3450   35.5390 H   0  0  0  0  0  0  0  0  0  0  0  0
   34.4740   30.8100   34.1300 H   0  0  0  0  0  0  0  0  0  0  0  0
   34.2670   30.2580   31.6950 H   0  0  0  0  0  0  0  0  0  0  0  0
   38.2410   23.3140   34.5200 S   0  0  0  0  0  0  0  0  0  0  0  0
   39.4240   22.4540   34.5250 O   0  0  0  0  0  0  0  0  0  0  0  0
   37.8020   23.1440   35.9430 O   0  0  0  0  0  0  0  0  0  0  0  0
   39.4520   24.5020   34.2310 C   0  0  0  0  0  0  0  0  0  0  0  0
   39.1020   25.7170   34.8690 C   0  0  0  0  0  0  0  0  0  0  0  0
   38.1680   25.9200   35.4260 H   0  0  0  0  0  0  0  0  0  0  0  0
   39.8980   26.8310   34.8800 C   0  0  0  0  0  0  0  0  0  0  0  0
   39.6780   27.7740   35.3480 H   0  0  0  0  0  0  0  0  0  0  0  0
   41.0940   26.7430   34.2320 C   0  0  0  0  0  3  0  0  0  0  0  0
   41.4900   25.5950   33.5970 C   0  0  0  0  0  3  0  0  0  0  0  0
   40.6270   24.5750   33.6560 N   0  0  0  0  0  0  0  0  0  0  0  0
  1  6  1  0  0  0  0
  1 28  1  0  0  0  0
  2  1  2  0  0  0  0
  3  4  2  0  0  0  0
  3  2  1  0  0  0  0
  4  5  1  0  0  0  0
  5  9  1  0  0  0  0
  5  6  2  0  0  0  0
  6 10  1  0  0  0  0
  7  3  1  0  0  0  0
  8  4  1  0  0  0  0
 11 16  1  0  0  0  0
 11 23  1  0  0  0  0
 12 11  2  0  0  0  0
 13 14  2  0  0  0  0
 13 12  1  0  0  0  0
 14 15  1  0  0  0  0
 15  2  1  0  0  0  0
 15 16  2  0  0  0  0
 17 12  1  0  0  0  0
 18 13  1  0  0  0  0
 19 25  1  0  0  0  0
 20 26  1  0  0  0  0
 20 19  2  0  0  0  0
 21 20  1  0  0  0  0
 22 21  2  0  0  0  0
 22 23  1  0  0  0  0
 23 24  2  0  0  0  0
 24 19  1  0  0  0  0
 27 21  1  0  0  0  0
 28 29  2  0  0  0  0
 28 30  2  0  0  0  0
 31 28  1  0  0  0  0
 31 32  1  0  0  0  0
 32 34  2  0  0  0  0
 32 33  1  0  0  0  0
 34 35  1  0  0  0  0
 36 34  1  0  0  0  0
 37 38  1  0  0  0  0
 37 36  2  0  0  0  0
 38 31  2  0  0  0  0
M  END
>  <minimizedAffinity>
-5.73855639

$$$$
