
     RDKit          3D

 30 32  0  0  0  0  0  0  0  0999 V2000
   38.4154   30.6048   46.7917 Cl  0  0  0  0  0  0  0  0  0  0  0  0
   38.8395   32.0513   47.6862 C   0  0  0  0  0  0  0  0  0  0  0  0
   38.3369   32.1854   48.9450 C   0  0  0  0  0  0  0  0  0  0  0  0
   38.7143   33.3581   49.5991 C   0  0  0  0  0  0  0  0  0  0  0  0
   39.5343   34.2886   48.9891 C   0  0  0  0  0  0  0  0  0  0  0  0
   40.0037   34.0855   47.7158 C   0  0  0  0  0  0  0  0  0  0  0  0
   39.6446   32.9381   47.0536 C   0  0  0  0  0  0  0  0  0  0  0  0
   37.9469   30.4174   50.6559 C   0  0  0  0  0  0  0  0  0  0  0  0
   37.4701   31.2253   49.6191 C   0  0  0  0  0  0  0  0  0  0  0  0
   36.1301   31.0980   49.2314 C   0  0  0  0  0  0  0  0  0  0  0  0
   35.3702   30.1886   49.8937 N   0  0  0  0  0  0  0  0  0  0  0  0
   35.8497   29.4240   50.8860 C   0  0  0  0  0  0  0  0  0  0  0  0
   37.1344   29.5332   51.2712 N   0  0  0  0  0  0  0  0  0  0  0  0
   40.1309   32.7517   45.7643 O   0  0  0  0  0  0  0  0  0  0  0  0
   38.3750   33.5711   50.6027 H   0  0  0  0  0  0  0  0  0  0  0  0
   39.8127   35.1904   49.5180 H   0  0  0  0  0  0  0  0  0  0  0  0
   40.6444   34.8485   47.2843 H   0  0  0  0  0  0  0  0  0  0  0  0
   38.9728   30.4987   50.9697 H   0  0  0  0  0  0  0  0  0  0  0  0
   35.7684   31.7276   48.4273 H   0  0  0  0  0  0  0  0  0  0  0  0
   35.0897   28.7728   51.2762 H   0  0  0  0  0  0  0  0  0  0  0  0
   40.9131   31.6277   45.5483 C   0  0  0  0  0  0  0  0  0  0  0  0
   42.2584   31.9927   45.4427 C   0  0  0  0  0  0  0  0  0  0  0  0
   42.6816   32.9984   45.5126 H   0  0  0  0  0  0  0  0  0  0  0  0
   43.2442   31.0271   45.2227 C   0  0  0  0  0  0  0  0  0  0  0  0
   44.2882   31.2548   45.1344 H   0  0  0  0  0  0  0  0  0  0  0  0
   42.8494   29.6930   45.1117 C   0  0  0  0  0  0  0  0  0  0  0  0
   41.5046   29.4028   45.2259 C   0  0  0  0  0  0  0  0  0  0  0  0
   40.5720   30.3453   45.4374 N   0  0  0  0  0  0  0  0  0  0  0  0
   43.5456   28.8645   44.9394 H   0  0  0  0  0  0  0  0  0  0  0  0
   41.0834   28.4042   45.1567 H   0  0  0  0  0  0  0  0  0  0  0  0
  1  2  1  0
  2  3  2  0
  3  4  1  0
  3  9  1  0
  5  4  2  0
  6  5  1  0
  7  2  1  0
  7  6  2  0
  8 13  2  0
  9  8  1  0
 10  9  2  0
 10 11  1  0
 11 12  2  0
 12 13  1  0
 14  7  1  0
  4 15  1  0
  5 16  1  0
  6 17  1  0
  8 18  1  0
 10 19  1  0
 12 20  1  0
 21 22  2  0
 22 23  1  0
 22 24  1  0
 24 25  1  0
 24 26  2  0
 26 27  1  0
 27 28  2  0
 28 21  1  0
 26 29  1  0
 27 30  1  0
 14 21  1  0
M  ISO  8  15  14  16  14  17  14  18  14  19  14  20  14  23  15  25  16
M  END
>  <DihAtoms>  (1) 
6,13,20,21

>  <DihDeg>  (1) 
179.99921174901203

$$$$
