REMARK  Name = 
REMARK  8 active torsions:
REMARK  status: ('A' for Active; 'I' for Inactive)
REMARK    1  A    between atoms: P_2  and  O_3
REMARK    2  A    between atoms: P_2  and  O_4
REMARK    3  A    between atoms: P_2  and  O_12
REMARK    4  A    between atoms: O_4  and  C_5
REMARK    5  A    between atoms: C_5  and  C_6
REMARK    6  A    between atoms: O_12  and  C_14
REMARK    7  A    between atoms: C_13  and  O_18
REMARK    8  A    between atoms: O_18  and  C_31
REMARK                            x       y       z     vdW  Elec       q    Type
REMARK                         _______ _______ _______ _____ _____    ______ ____
ROOT
ATOM      1  C   UNL     1      38.849  32.477  47.817  0.00  0.00    +0.000 C 
ATOM      2  C   UNL     1      38.259  31.453  48.753  0.00  0.00    +0.000 C 
ATOM      3  C   UNL     1      38.828  32.018  50.063  0.00  0.00    +0.000 C 
ATOM      4  O   UNL     1      38.476  33.350  49.962  0.00  0.00    +0.000 OA
ATOM      5  C   UNL     1      38.660  33.749  48.662  0.00  0.00    +0.000 C 
ATOM      6  H   UNL     1      39.923  32.323  47.615  0.00  0.00    +0.000 HD
ATOM      7  H   UNL     1      38.582  30.429  48.571  0.00  0.00    +0.000 HD
ATOM      8  H   UNL     1      39.909  31.858  50.098  0.00  0.00    +0.000 HD
ATOM      9  H   UNL     1      38.383  31.550  50.948  0.00  0.00    +0.000 HD
ATOM     10  H   UNL     1      37.813  34.352  48.274  0.00  0.00    +0.000 HD
ATOM     11  H   UNL     1      39.552  34.401  48.614  0.00  0.00    +0.000 HD
ENDROOT
BRANCH   2  12
ATOM     12  O   UNL     1      36.891  31.641  48.744  0.00  0.00    +0.000 OA
BRANCH  12  14
ATOM     13  O   UNL     1      36.040  29.942  46.970  0.00  0.00    +0.000 OA
ATOM     14  P   UNL     1      36.037  30.224  48.449  0.00  0.00    +0.000 P 
BRANCH  14  15
ATOM     15  O   UNL     1      36.800  28.912  49.240  0.00  0.00    +0.000 OA
ATOM     16  H   UNL     1      37.112  29.302  50.101  0.00  0.00    +0.000 HD
ENDBRANCH  14  15
BRANCH  14  17
ATOM     17  O   UNL     1      34.442  30.369  49.022  0.00  0.00    +0.000 OA
BRANCH  17  18
ATOM     18  C   UNL     1      34.176  29.238  49.769  0.00  0.00    +0.000 C 
ATOM     19  H   UNL     1      33.606  29.598  50.672  0.00  0.00    +0.000 HD
ATOM     20  H   UNL     1      35.094  28.721  50.112  0.00  0.00    +0.000 HD
BRANCH  18  21
ATOM     21  C   UNL     1      33.315  28.259  49.068  0.00  0.00    +0.000 A 
ATOM     22  C   UNL     1      33.942  27.380  48.218  0.00  0.00    +0.000 A 
ATOM     23  C   UNL     1      33.185  26.430  47.526  0.00  0.00    +0.000 A 
ATOM     24  N   UNL     1      31.838  26.437  47.744  0.00  0.00    +0.000 NA
ATOM     25  C   UNL     1      31.241  27.312  48.584  0.00  0.00    +0.000 A 
ATOM     26  N   UNL     1      31.983  28.225  49.247  0.00  0.00    +0.000 NA
ATOM     27  H   UNL     1      34.989  27.296  47.982  0.00  0.00    +0.000 HD
ATOM     28  H   UNL     1      33.594  25.699  46.838  0.00  0.00    +0.000 HD
ATOM     29  H   UNL     1      30.178  27.314  48.753  0.00  0.00    +0.000 HD
ENDBRANCH  18  21
ENDBRANCH  17  18
ENDBRANCH  14  17
ENDBRANCH  12  14
ENDBRANCH   2  12
BRANCH   1  30
ATOM     30  O   UNL     1      38.084  32.494  46.657  0.00  0.00    +0.000 OA
BRANCH  30  31
ATOM     31  C   UNL     1      38.601  32.336  45.370  0.00  0.00    +0.000 A 
ATOM     32  C   UNL     1      38.385  33.395  44.513  0.00  0.00    +0.000 A 
ATOM     33  H   UNL     1      37.848  34.294  44.817  0.00  0.00    +0.000 HD
ATOM     34  C   UNL     1      38.865  33.316  43.222  0.00  0.00    +0.000 A 
ATOM     35  H   UNL     1      38.742  34.101  42.478  0.00  0.00    +0.000 HD
ATOM     36  C   UNL     1      39.542  32.178  42.843  0.00  0.00    +0.000 A 
ATOM     37  C   UNL     1      39.759  31.106  43.715  0.00  0.00    +0.000 A 
ATOM     38  N   UNL     1      39.273  31.223  44.972  0.00  0.00    +0.000 NA
ENDBRANCH  30  31
ENDBRANCH   1  30
TORSDOF 8
