
 OpenBabel03272506413D

 18 19  0  0  0  0  0  0  0  0999 V2000
   36.8680   21.3860   33.3840 C   0  0  0  0  0  0  0  0  0  0  0  0
   35.7440   20.8020   33.9640 C   0  0  0  0  0  0  0  0  0  0  0  0
   35.6260   20.8360   35.3640 C   0  0  0  0  0  0  0  0  0  0  0  0
   36.6220   21.4410   36.0770 N   0  0  0  0  0  0  0  0  0  0  0  0
   37.6840   21.9890   35.4790 C   0  0  0  0  0  0  0  0  0  0  0  0
   37.8180   21.9690   34.1450 N   0  0  0  0  0  0  0  0  0  0  0  0
   36.9240   21.3400   32.3050 H   0  0  0  0  0  0  0  0  0  0  0  0
   34.9360   20.3180   33.4680 H   0  0  0  0  0  0  0  0  0  0  0  0
   34.8390   20.4420   35.9820 H   0  0  0  0  0  0  0  0  0  0  0  0
   38.9930   22.7830   36.4080 S   0  0  0  0  0  0  0  0  0  0  0  0
   39.0580   24.5300   35.9750 C   0  0  0  0  0  0  0  0  0  0  0  0
   38.1250   25.4390   36.4260 C   0  0  0  0  0  0  0  0  0  0  0  0
   37.3220   25.1100   37.0610 H   0  0  0  0  0  0  0  0  0  0  0  0
   38.3000   26.7600   36.0120 C   0  0  0  0  0  0  0  0  0  0  0  0
   37.5780   27.4910   36.3540 H   0  0  0  0  0  0  0  0  0  0  0  0
   39.3820   27.0710   35.1850 C   0  0  0  0  0  3  0  0  0  0  0  0
   40.2910   26.1270   34.7590 C   0  0  0  0  0  3  0  0  0  0  0  0
   40.1120   24.8380   35.1690 N   0  0  0  0  0  0  0  0  0  0  0  0
  1  2  2  0  0  0  0
  1  6  1  0  0  0  0
  2  3  1  0  0  0  0
  3  9  1  0  0  0  0
  3  4  2  0  0  0  0
  5  4  1  0  0  0  0
  5 10  1  0  0  0  0
  6  5  2  0  0  0  0
  7  1  1  0  0  0  0
  8  2  1  0  0  0  0
 11 10  1  0  0  0  0
 11 12  1  0  0  0  0
 12 13  1  0  0  0  0
 14 15  1  0  0  0  0
 14 12  2  0  0  0  0
 16 14  1  0  0  0  0
 17 18  1  0  0  0  0
 17 16  2  0  0  0  0
 18 11  2  0  0  0  0
M  END
>  <minimizedAffinity>
-4.01799154

$$$$

 OpenBabel03272506413D

 18 19  0  0  0  0  0  0  0  0999 V2000
   35.7920   20.7910   33.9270 C   0  0  0  0  0  0  0  0  0  0  0  0
   35.1920   20.9760   32.6840 C   0  0  0  0  0  0  0  0  0  0  0  0
   35.7450   21.9330   31.8150 C   0  0  0  0  0  0  0  0  0  0  0  0
   36.8430   22.6280   32.2420 N   0  0  0  0  0  0  0  0  0  0  0  0
   37.3860   22.4170   33.4440 C   0  0  0  0  0  0  0  0  0  0  0  0
   36.8750   21.5090   34.2900 N   0  0  0  0  0  0  0  0  0  0  0  0
   35.3380   20.0470   34.5670 H   0  0  0  0  0  0  0  0  0  0  0  0
   34.3410   20.4710   32.2920 H   0  0  0  0  0  0  0  0  0  0  0  0
   35.4230   22.2110   30.8280 H   0  0  0  0  0  0  0  0  0  0  0  0
   38.8240   23.3230   34.0090 S   0  0  0  0  0  0  0  0  0  0  0  0
   38.7910   23.4360   35.8060 C   0  0  0  0  0  0  0  0  0  0  0  0
   37.8540   24.1890   36.4830 C   0  0  0  0  0  0  0  0  0  0  0  0
   37.1080   24.7340   35.9330 H   0  0  0  0  0  0  0  0  0  0  0  0
   37.9480   24.1850   37.8740 C   0  0  0  0  0  0  0  0  0  0  0  0
   37.2230   24.7700   38.4260 H   0  0  0  0  0  0  0  0  0  0  0  0
   38.9610   23.4370   38.4810 C   0  0  0  0  0  3  0  0  0  0  0  0
   39.8760   22.6990   37.7630 C   0  0  0  0  0  3  0  0  0  0  0  0
   39.7760   22.7090   36.4010 N   0  0  0  0  0  0  0  0  0  0  0  0
  1  6  1  0  0  0  0
  1  7  1  0  0  0  0
  2  1  2  0  0  0  0
  3  4  2  0  0  0  0
  3  2  1  0  0  0  0
  4  5  1  0  0  0  0
  5 10  1  0  0  0  0
  5  6  2  0  0  0  0
  8  2  1  0  0  0  0
  9  3  1  0  0  0  0
 10 11  1  0  0  0  0
 11 18  2  0  0  0  0
 11 12  1  0  0  0  0
 12 14  2  0  0  0  0
 13 12  1  0  0  0  0
 14 15  1  0  0  0  0
 14 16  1  0  0  0  0
 17 16  2  0  0  0  0
 18 17  1  0  0  0  0
M  END
>  <minimizedAffinity>
-3.9882617

$$$$

 OpenBabel03272506413D

 18 19  0  0  0  0  0  0  0  0999 V2000
   35.8440   22.1190   31.7800 C   0  0  0  0  0  0  0  0  0  0  0  0
   35.2650   21.0800   32.5060 C   0  0  0  0  0  0  0  0  0  0  0  0
   35.8140   20.7590   33.7590 C   0  0  0  0  0  0  0  0  0  0  0  0
   36.8870   21.4860   34.1940 N   0  0  0  0  0  0  0  0  0  0  0  0
   37.4100   22.4750   33.4640 C   0  0  0  0  0  0  0  0  0  0  0  0
   36.9020   22.7990   32.2650 N   0  0  0  0  0  0  0  0  0  0  0  0
   35.3930   22.3360   30.8210 H   0  0  0  0  0  0  0  0  0  0  0  0
   34.4330   20.4780   32.2270 H   0  0  0  0  0  0  0  0  0  0  0  0
   35.5060   19.9990   34.4540 H   0  0  0  0  0  0  0  0  0  0  0  0
   38.8150   23.4320   34.0270 S   0  0  0  0  0  0  0  0  0  0  0  0
   38.9120   23.3520   35.8240 C   0  0  0  0  0  0  0  0  0  0  0  0
   39.9200   22.6780   36.4800 C   0  0  0  0  0  0  0  0  0  0  0  0
   40.6860   22.1760   35.9140 H   0  0  0  0  0  0  0  0  0  0  0  0
   39.8700   22.6990   37.8740 C   0  0  0  0  0  0  0  0  0  0  0  0
   40.6520   22.1760   38.4100 H   0  0  0  0  0  0  0  0  0  0  0  0
   38.8270   23.3840   38.5020 C   0  0  0  0  0  3  0  0  0  0  0  0
   37.8410   24.0440   37.8030 C   0  0  0  0  0  3  0  0  0  0  0  0
   37.8980   24.0180   36.4400 N   0  0  0  0  0  0  0  0  0  0  0  0
  1  6  2  0  0  0  0
  1  2  1  0  0  0  0
  2  3  2  0  0  0  0
  3  4  1  0  0  0  0
  3  9  1  0  0  0  0
  5 10  1  0  0  0  0
  5  4  2  0  0  0  0
  6  5  1  0  0  0  0
  7  1  1  0  0  0  0
  8  2  1  0  0  0  0
 10 11  1  0  0  0  0
 11 18  2  0  0  0  0
 11 12  1  0  0  0  0
 12 14  2  0  0  0  0
 13 12  1  0  0  0  0
 14 15  1  0  0  0  0
 14 16  1  0  0  0  0
 17 16  2  0  0  0  0
 18 17  1  0  0  0  0
M  END
>  <minimizedAffinity>
-3.98500133

$$$$

 OpenBabel03272506413D

 18 19  0  0  0  0  0  0  0  0999 V2000
   39.7030   22.6720   37.5460 C   0  0  0  0  0  0  0  0  0  0  0  0
   38.7750   23.3850   38.3030 C   0  0  0  0  0  0  0  0  0  0  0  0
   37.7990   24.1320   37.6220 C   0  0  0  0  0  0  0  0  0  0  0  0
   37.8160   24.1170   36.2550 N   0  0  0  0  0  0  0  0  0  0  0  0
   38.7250   23.4180   35.5700 C   0  0  0  0  0  0  0  0  0  0  0  0
   39.6670   22.6970   36.1980 N   0  0  0  0  0  0  0  0  0  0  0  0
   40.4390   22.1100   38.1050 H   0  0  0  0  0  0  0  0  0  0  0  0
   38.7070   23.4390   39.3640 H   0  0  0  0  0  0  0  0  0  0  0  0
   37.0090   24.7380   38.0310 H   0  0  0  0  0  0  0  0  0  0  0  0
   38.7530   23.3920   33.7800 S   0  0  0  0  0  0  0  0  0  0  0  0
   37.2960   22.5260   33.1710 C   0  0  0  0  0  0  0  0  0  0  0  0
   36.6630   22.8790   31.9980 C   0  0  0  0  0  0  0  0  0  0  0  0
   37.0390   23.6990   31.4130 H   0  0  0  0  0  0  0  0  0  0  0  0
   35.5460   22.1200   31.6480 C   0  0  0  0  0  0  0  0  0  0  0  0
   35.0330   22.3810   30.7310 H   0  0  0  0  0  0  0  0  0  0  0  0
   35.1490   21.0760   32.4880 C   0  0  0  0  0  3  0  0  0  0  0  0
   35.8140   20.7600   33.6510 C   0  0  0  0  0  3  0  0  0  0  0  0
   36.9060   21.5080   33.9850 N   0  0  0  0  0  0  0  0  0  0  0  0
  1  7  1  0  0  0  0
  1  2  1  0  0  0  0
  2  8  1  0  0  0  0
  3  9  1  0  0  0  0
  3  2  2  0  0  0  0
  4  3  1  0  0  0  0
  5  6  1  0  0  0  0
  5  4  2  0  0  0  0
  6  1  2  0  0  0  0
 10  5  1  0  0  0  0
 11 10  1  0  0  0  0
 11 18  1  0  0  0  0
 12 11  2  0  0  0  0
 13 12  1  0  0  0  0
 14 12  1  0  0  0  0
 14 16  2  0  0  0  0
 15 14  1  0  0  0  0
 16 17  1  0  0  0  0
 17 18  2  0  0  0  0
M  END
>  <minimizedAffinity>
-3.97114229

$$$$

 OpenBabel03272506413D

 18 19  0  0  0  0  0  0  0  0999 V2000
   36.7310   22.3610   32.1920 C   0  0  0  0  0  0  0  0  0  0  0  0
   35.7960   23.1700   31.5520 C   0  0  0  0  0  0  0  0  0  0  0  0
   35.9140   24.5630   31.6970 C   0  0  0  0  0  0  0  0  0  0  0  0
   36.9430   25.0440   32.4580 N   0  0  0  0  0  0  0  0  0  0  0  0
   37.8190   24.2300   33.0530 C   0  0  0  0  0  0  0  0  0  0  0  0
   37.7250   22.8970   32.9300 N   0  0  0  0  0  0  0  0  0  0  0  0
   36.6070   21.2950   32.0570 H   0  0  0  0  0  0  0  0  0  0  0  0
   34.9750   22.8620   30.9480 H   0  0  0  0  0  0  0  0  0  0  0  0
   35.2940   25.3380   31.2820 H   0  0  0  0  0  0  0  0  0  0  0  0
   39.1680   24.8520   34.0520 S   0  0  0  0  0  0  0  0  0  0  0  0
   38.9570   24.3020   35.7540 C   0  0  0  0  0  0  0  0  0  0  0  0
   38.0030   24.8390   36.5910 C   0  0  0  0  0  0  0  0  0  0  0  0
   37.3510   25.6160   36.2310 H   0  0  0  0  0  0  0  0  0  0  0  0
   37.9520   24.3170   37.8840 C   0  0  0  0  0  0  0  0  0  0  0  0
   37.2100   24.7250   38.5590 H   0  0  0  0  0  0  0  0  0  0  0  0
   38.8500   23.3070   38.2400 C   0  0  0  0  0  3  0  0  0  0  0  0
   39.7870   22.8010   37.3670 C   0  0  0  0  0  3  0  0  0  0  0  0
   39.8300   23.3180   36.1050 N   0  0  0  0  0  0  0  0  0  0  0  0
  1  6  1  0  0  0  0
  2  3  1  0  0  0  0
  2  1  2  0  0  0  0
  3  4  2  0  0  0  0
  4  5  1  0  0  0  0
  5 10  1  0  0  0  0
  6  5  2  0  0  0  0
  7  1  1  0  0  0  0
  8  2  1  0  0  0  0
  9  3  1  0  0  0  0
 10 11  1  0  0  0  0
 11 18  2  0  0  0  0
 11 12  1  0  0  0  0
 12 14  2  0  0  0  0
 13 12  1  0  0  0  0
 14 16  1  0  0  0  0
 14 15  1  0  0  0  0
 17 16  2  0  0  0  0
 18 17  1  0  0  0  0
M  END
>  <minimizedAffinity>
-3.92305756

$$$$

 OpenBabel03272506413D

 18 19  0  0  0  0  0  0  0  0999 V2000
   37.9010   24.2480   37.8130 C   0  0  0  0  0  0  0  0  0  0  0  0
   38.8020   23.2870   38.2660 C   0  0  0  0  0  0  0  0  0  0  0  0
   39.7930   22.8360   37.3780 C   0  0  0  0  0  0  0  0  0  0  0  0
   39.8160   23.3670   36.1180 N   0  0  0  0  0  0  0  0  0  0  0  0
   38.9310   24.2890   35.7260 C   0  0  0  0  0  0  0  0  0  0  0  0
   37.9760   24.7340   36.5570 N   0  0  0  0  0  0  0  0  0  0  0  0
   37.1530   24.5700   38.5250 H   0  0  0  0  0  0  0  0  0  0  0  0
   38.8390   22.8350   39.2290 H   0  0  0  0  0  0  0  0  0  0  0  0
   40.5660   22.1080   37.5460 H   0  0  0  0  0  0  0  0  0  0  0  0
   38.9550   24.9890   34.0790 S   0  0  0  0  0  0  0  0  0  0  0  0
   37.6730   24.2130   33.0800 C   0  0  0  0  0  0  0  0  0  0  0  0
   37.5090   22.8450   33.0200 C   0  0  0  0  0  0  0  0  0  0  0  0
   38.1610   22.2030   33.5850 H   0  0  0  0  0  0  0  0  0  0  0  0
   36.4750   22.3830   32.2060 C   0  0  0  0  0  0  0  0  0  0  0  0
   36.3280   21.3120   32.1440 H   0  0  0  0  0  0  0  0  0  0  0  0
   35.6900   23.3120   31.5180 C   0  0  0  0  0  3  0  0  0  0  0  0
   35.8910   24.6720   31.6090 C   0  0  0  0  0  3  0  0  0  0  0  0
   36.9050   25.1150   32.4080 N   0  0  0  0  0  0  0  0  0  0  0  0
  1  2  1  0  0  0  0
  1  7  1  0  0  0  0
  2  8  1  0  0  0  0
  3  9  1  0  0  0  0
  3  2  2  0  0  0  0
  4  3  1  0  0  0  0
  5  4  2  0  0  0  0
  5  6  1  0  0  0  0
  6  1  2  0  0  0  0
 10  5  1  0  0  0  0
 11 10  1  0  0  0  0
 12 11  1  0  0  0  0
 12 13  1  0  0  0  0
 14 12  2  0  0  0  0
 15 14  1  0  0  0  0
 16 17  2  0  0  0  0
 16 14  1  0  0  0  0
 17 18  1  0  0  0  0
 18 11  2  0  0  0  0
M  END
>  <minimizedAffinity>
-3.83206606

$$$$

 OpenBabel03272506413D

 18 19  0  0  0  0  0  0  0  0999 V2000
   36.4530   25.0050   31.8630 C   0  0  0  0  0  0  0  0  0  0  0  0
   35.6580   23.9080   31.5400 C   0  0  0  0  0  0  0  0  0  0  0  0
   36.0890   22.6340   31.9490 C   0  0  0  0  0  0  0  0  0  0  0  0
   37.2650   22.5450   32.6400 N   0  0  0  0  0  0  0  0  0  0  0  0
   37.9950   23.6260   32.9290 C   0  0  0  0  0  0  0  0  0  0  0  0
   37.6040   24.8520   32.5490 N   0  0  0  0  0  0  0  0  0  0  0  0
   36.0890   25.9680   31.5320 H   0  0  0  0  0  0  0  0  0  0  0  0
   34.7360   23.9070   31.0070 H   0  0  0  0  0  0  0  0  0  0  0  0
   35.6140   21.6810   31.7930 H   0  0  0  0  0  0  0  0  0  0  0  0
   39.5360   23.5170   33.8340 S   0  0  0  0  0  0  0  0  0  0  0  0
   39.1890   23.4540   35.6000 C   0  0  0  0  0  0  0  0  0  0  0  0
   40.0740   22.9120   36.5080 C   0  0  0  0  0  0  0  0  0  0  0  0
   41.0110   22.5090   36.1670 H   0  0  0  0  0  0  0  0  0  0  0  0
   39.6750   22.9300   37.8450 C   0  0  0  0  0  0  0  0  0  0  0  0
   40.3550   22.5090   38.5750 H   0  0  0  0  0  0  0  0  0  0  0  0
   38.4330   23.4810   38.1710 C   0  0  0  0  0  3  0  0  0  0  0  0
   37.5810   24.0110   37.2280 C   0  0  0  0  0  3  0  0  0  0  0  0
   37.9800   23.9890   35.9230 N   0  0  0  0  0  0  0  0  0  0  0  0
  1  6  1  0  0  0  0
  2  1  2  0  0  0  0
  2  3  1  0  0  0  0
  3  4  2  0  0  0  0
  4  5  1  0  0  0  0
  5 10  1  0  0  0  0
  6  5  2  0  0  0  0
  7  1  1  0  0  0  0
  8  2  1  0  0  0  0
  9  3  1  0  0  0  0
 10 11  1  0  0  0  0
 11 18  2  0  0  0  0
 11 12  1  0  0  0  0
 12 14  2  0  0  0  0
 13 12  1  0  0  0  0
 14 16  1  0  0  0  0
 14 15  1  0  0  0  0
 17 16  2  0  0  0  0
 18 17  1  0  0  0  0
M  END
>  <minimizedAffinity>
-3.75077701

$$$$

 OpenBabel03272506413D

 18 19  0  0  0  0  0  0  0  0999 V2000
   41.9350   22.0430   35.4200 C   0  0  0  0  0  0  0  0  0  0  0  0
   41.9460   21.7860   36.7890 C   0  0  0  0  0  0  0  0  0  0  0  0
   40.7620   22.0020   37.5140 C   0  0  0  0  0  0  0  0  0  0  0  0
   39.6650   22.4520   36.8330 N   0  0  0  0  0  0  0  0  0  0  0  0
   39.7000   22.6840   35.5180 C   0  0  0  0  0  0  0  0  0  0  0  0
   40.8190   22.4860   34.8050 N   0  0  0  0  0  0  0  0  0  0  0  0
   42.8650   21.8660   34.8970 H   0  0  0  0  0  0  0  0  0  0  0  0
   42.7610   21.4370   37.3780 H   0  0  0  0  0  0  0  0  0  0  0  0
   40.5810   21.8610   38.5650 H   0  0  0  0  0  0  0  0  0  0  0  0
   38.2680   23.2730   34.6190 S   0  0  0  0  0  0  0  0  0  0  0  0
   38.0690   25.0410   34.9010 C   0  0  0  0  0  0  0  0  0  0  0  0
   38.5350   25.6650   36.0390 C   0  0  0  0  0  0  0  0  0  0  0  0
   39.0390   25.0900   36.7960 H   0  0  0  0  0  0  0  0  0  0  0  0
   38.3120   27.0390   36.1250 C   0  0  0  0  0  0  0  0  0  0  0  0
   38.6690   27.5490   37.0100 H   0  0  0  0  0  0  0  0  0  0  0  0
   37.6450   27.6810   35.0780 C   0  0  0  0  0  3  0  0  0  0  0  0
   37.1970   27.0150   33.9590 C   0  0  0  0  0  3  0  0  0  0  0  0
   37.4200   25.6710   33.8840 N   0  0  0  0  0  0  0  0  0  0  0  0
  1  2  1  0  0  0  0
  2  8  1  0  0  0  0
  2  3  2  0  0  0  0
  3  9  1  0  0  0  0
  4  3  1  0  0  0  0
  5  4  2  0  0  0  0
  6  1  2  0  0  0  0
  6  5  1  0  0  0  0
  7  1  1  0  0  0  0
 10 11  1  0  0  0  0
 10  5  1  0  0  0  0
 11 12  1  0  0  0  0
 12 14  2  0  0  0  0
 12 13  1  0  0  0  0
 14 15  1  0  0  0  0
 16 14  1  0  0  0  0
 17 16  2  0  0  0  0
 18 17  1  0  0  0  0
 18 11  2  0  0  0  0
M  END
>  <minimizedAffinity>
-3.67594695

$$$$

 OpenBabel03272506413D

 18 19  0  0  0  0  0  0  0  0999 V2000
   37.8730   27.2360   32.9480 C   0  0  0  0  0  0  0  0  0  0  0  0
   36.7290   26.9500   32.2060 C   0  0  0  0  0  0  0  0  0  0  0  0
   36.3750   25.6020   32.0260 C   0  0  0  0  0  0  0  0  0  0  0  0
   37.1750   24.6470   32.5900 N   0  0  0  0  0  0  0  0  0  0  0  0
   38.2630   24.9680   33.2950 C   0  0  0  0  0  0  0  0  0  0  0  0
   38.6210   26.2480   33.4810 N   0  0  0  0  0  0  0  0  0  0  0  0
   38.1130   28.2840   33.0640 H   0  0  0  0  0  0  0  0  0  0  0  0
   36.0660   27.6410   31.7420 H   0  0  0  0  0  0  0  0  0  0  0  0
   35.5370   25.1920   31.4900 H   0  0  0  0  0  0  0  0  0  0  0  0
   39.3150   23.7240   34.0380 S   0  0  0  0  0  0  0  0  0  0  0  0
   39.0060   23.6590   35.8110 C   0  0  0  0  0  0  0  0  0  0  0  0
   37.9330   24.2970   36.3980 C   0  0  0  0  0  0  0  0  0  0  0  0
   37.2450   24.8560   35.7900 H   0  0  0  0  0  0  0  0  0  0  0  0
   37.8180   24.1610   37.7820 C   0  0  0  0  0  0  0  0  0  0  0  0
   36.9830   24.6540   38.2640 H   0  0  0  0  0  0  0  0  0  0  0  0
   38.7730   23.4080   38.4690 C   0  0  0  0  0  3  0  0  0  0  0  0
   39.8290   22.7880   37.8390 C   0  0  0  0  0  3  0  0  0  0  0  0
   39.9350   22.9260   36.4850 N   0  0  0  0  0  0  0  0  0  0  0  0
  1  7  1  0  0  0  0
  1  6  1  0  0  0  0
  2  1  2  0  0  0  0
  3  2  1  0  0  0  0
  3  4  2  0  0  0  0
  4  5  1  0  0  0  0
  5  6  2  0  0  0  0
  5 10  1  0  0  0  0
  8  2  1  0  0  0  0
  9  3  1  0  0  0  0
 10 11  1  0  0  0  0
 11 12  2  0  0  0  0
 11 18  1  0  0  0  0
 12 14  1  0  0  0  0
 13 12  1  0  0  0  0
 14 15  1  0  0  0  0
 14 16  2  0  0  0  0
 17 16  1  0  0  0  0
 18 17  2  0  0  0  0
M  END
>  <minimizedAffinity>
-3.64284205

$$$$
