
     RDKit          3D

 20 21  0  0  0  0  0  0  0  0999 V2000
   37.2636   30.1778   51.4142 C   0  0  0  0  0  0  0  0  0  0  0  0
   38.1164   30.7582   50.4772 C   0  0  0  0  0  0  0  0  0  0  0  0
   37.8448   30.5477   49.1138 C   0  0  0  0  0  0  0  0  0  0  0  0
   36.7591   29.7854   48.7861 N   0  0  0  0  0  0  0  0  0  0  0  0
   35.9675   29.2476   49.7194 C   0  0  0  0  0  0  0  0  0  0  0  0
   36.2067   29.4346   51.0262 N   0  0  0  0  0  0  0  0  0  0  0  0
   34.5440   28.2477   49.2970 S   0  0  0  0  0  0  0  0  0  0  0  0
   37.5055   30.3623   52.4520 H   0  0  0  0  0  0  0  0  0  0  0  0
   38.9745   31.3597   50.6643 H   0  0  0  0  0  0  0  0  0  0  0  0
   38.3844   30.9106   48.2570 H   0  0  0  0  0  0  0  0  0  0  0  0
   35.0419   26.5218   49.1669 C   0  0  0  0  0  0  0  0  0  0  0  0
   35.3078   25.7435   50.2737 C   0  0  0  0  0  0  0  0  0  0  0  0
   35.2194   26.1671   51.2590 H   0  0  0  0  0  0  0  0  0  0  0  0
   35.6833   24.4242   50.0239 C   0  0  0  0  0  0  0  0  0  0  0  0
   35.8965   23.7948   50.8794 H   0  0  0  0  0  0  0  0  0  0  0  0
   35.7648   23.9838   48.6995 C   0  0  0  0  0  0  0  0  0  0  0  0
   35.4892   24.7994   47.6254 C   0  0  0  0  0  0  0  0  0  0  0  0
   35.1226   26.0886   47.8788 N   0  0  0  0  0  0  0  0  0  0  0  0
   36.0617   22.9447   48.5297 H   0  0  0  0  0  0  0  0  0  0  0  0
   35.5608   24.4314   46.6116 H   0  0  0  0  0  0  0  0  0  0  0  0
  2  1  2  0
  3  2  1  0
  4  3  2  0
  4  5  1  0
  5  6  2  0
  6  1  1  0
  7  5  1  0
  1  8  1  0
  2  9  1  0
  3 10  1  0
 11 12  2  0
 12 13  1  0
 12 14  1  0
 14 15  1  0
 14 16  2  0
 16 17  1  0
 17 18  2  0
 18 11  1  0
 16 19  1  0
 17 20  1  0
  7 11  1  0
M  ISO  5   8  14   9  14  10  14  13  15  15  16
M  END
>  <DihAtoms>  (1) 
4,6,10,11

>  <DihDeg>  (1) 
0.020132773023945314

$$$$
