
     RDKit          3D

 20 21  0  0  0  0  0  0  0  0999 V2000
   37.2636   30.1778   51.4142 C   0  0  0  0  0  0  0  0  0  0  0  0
   38.1164   30.7582   50.4772 C   0  0  0  0  0  0  0  0  0  0  0  0
   37.8448   30.5477   49.1138 C   0  0  0  0  0  0  0  0  0  0  0  0
   36.7591   29.7854   48.7861 N   0  0  0  0  0  0  0  0  0  0  0  0
   35.9675   29.2476   49.7194 C   0  0  0  0  0  0  0  0  0  0  0  0
   36.2067   29.4346   51.0262 N   0  0  0  0  0  0  0  0  0  0  0  0
   34.5440   28.2477   49.2970 S   0  0  0  0  0  0  0  0  0  0  0  0
   37.5055   30.3623   52.4520 H   0  0  0  0  0  0  0  0  0  0  0  0
   38.9745   31.3597   50.6643 H   0  0  0  0  0  0  0  0  0  0  0  0
   38.3844   30.9106   48.2570 H   0  0  0  0  0  0  0  0  0  0  0  0
   35.0419   26.5218   49.1669 C   0  0  0  0  0  0  0  0  0  0  0  0
   35.0167   25.6617   50.2445 C   0  0  0  0  0  0  0  0  0  0  0  0
   34.6901   26.0184   51.2058 H   0  0  0  0  0  0  0  0  0  0  0  0
   35.4297   24.3530   49.9985 C   0  0  0  0  0  0  0  0  0  0  0  0
   35.4174   23.6602   50.8312 H   0  0  0  0  0  0  0  0  0  0  0  0
   35.8338   24.0032   48.7066 C   0  0  0  0  0  0  0  0  0  0  0  0
   35.8419   24.8984   47.6609 C   0  0  0  0  0  0  0  0  0  0  0  0
   35.4362   26.1767   47.9104 N   0  0  0  0  0  0  0  0  0  0  0  0
   36.1535   22.9705   48.5391 H   0  0  0  0  0  0  0  0  0  0  0  0
   36.1598   24.5996   46.6720 H   0  0  0  0  0  0  0  0  0  0  0  0
  2  1  2  0
  3  2  1  0
  4  3  2  0
  4  5  1  0
  5  6  2  0
  6  1  1  0
  7  5  1  0
  1  8  1  0
  2  9  1  0
  3 10  1  0
 11 12  2  0
 12 13  1  0
 12 14  1  0
 14 15  1  0
 14 16  2  0
 16 17  1  0
 17 18  2  0
 18 11  1  0
 16 19  1  0
 17 20  1  0
  7 11  1  0
M  ISO  5   8  14   9  14  10  14  13  15  15  16
M  END
>  <DihAtoms>  (1) 
4,6,10,11

>  <DihDeg>  (1) 
0.020132773023945314

$$$$
