
     RDKit          3D

 42 44  0  0  0  0  0  0  0  0999 V2000
   36.6891   29.9546   49.0125 C   0  0  0  0  0  0  0  0  0  0  0  0
   37.7224   30.6204   48.3228 C   0  0  0  0  0  0  0  0  0  0  0  0
   37.4949   30.9096   46.9762 C   0  0  0  0  0  0  0  0  0  0  0  0
   36.3281   30.5486   46.4148 N   0  0  0  0  0  0  0  0  0  0  0  0
   35.3632   29.9122   47.1099 C   0  0  0  0  0  0  0  0  0  0  0  0
   35.5443   29.6198   48.3931 N   0  0  0  0  0  0  0  0  0  0  0  0
   38.4646   31.5578   46.2178 N   0  0  0  0  0  0  0  0  0  0  0  0
   39.4401   32.5585   46.7301 C   0  0  0  0  0  0  0  0  0  0  0  0
   40.0902   33.1966   45.5628 C   0  0  0  0  0  0  0  0  0  0  0  0
   39.2160   32.8575   44.4465 C   0  0  0  0  0  0  0  0  0  0  0  0
   38.7891   31.4907   44.8299 C   0  0  2  0  0  0  0  0  0  0  0  0
   37.6354   31.0352   43.9319 C   0  0  0  0  0  0  0  0  0  0  0  0
   36.5086   31.7471   44.2850 F   0  0  0  0  0  0  0  0  0  0  0  0
   37.3097   29.7146   44.0233 F   0  0  0  0  0  0  0  0  0  0  0  0
   37.9592   31.4217   42.6498 F   0  0  0  0  0  0  0  0  0  0  0  0
   39.8240   30.5098   44.6677 C   0  0  1  0  0  0  0  0  0  0  0  0
   40.3503   30.6802   43.5372 O   0  0  0  0  0  0  0  0  0  0  0  0
   40.9932   29.9822   42.5881 C   0  0  0  0  0  0  0  0  0  0  0  0
   40.7622   30.4199   41.4587 O   0  0  0  0  0  0  0  0  0  0  0  0
   41.8704   28.9171   42.2518 N   0  0  0  0  0  0  0  0  0  0  0  0
   36.9772   29.7807   50.0549 H   0  0  0  0  0  0  0  0  0  0  0  0
   38.6642   30.9171   48.7603 H   0  0  0  0  0  0  0  0  0  0  0  0
   34.4226   29.6062   46.7085 H   0  0  0  0  0  0  0  0  0  0  0  0
   38.6872   33.2996   47.2121 H   0  0  0  0  0  0  0  0  0  0  0  0
   40.0217   32.2627   47.5728 H   0  0  0  0  0  0  0  0  0  0  0  0
   39.8080   34.3422   45.7262 H   0  0  0  0  0  0  0  0  0  0  0  0
   41.1370   33.3195   45.4837 H   0  0  0  0  0  0  0  0  0  0  0  0
   38.3727   33.5435   44.2384 H   0  0  0  0  0  0  0  0  0  0  0  0
   39.7911   32.7962   43.4969 H   0  0  0  0  0  0  0  0  0  0  0  0
   39.5245   29.5388   44.9958 H   0  0  0  0  0  0  0  0  0  0  0  0
   41.5466   27.9543   42.0171 H   0  0  0  0  0  0  0  0  0  0  0  0
   42.8911   29.1465   42.2491 H   0  0  0  0  0  0  0  0  0  0  0  0
   41.1094   30.6101   45.5963 C   0  0  0  0  0  0  0  0  0  0  0  0
   42.0733   31.6109   45.3355 C   0  0  0  0  0  0  0  0  0  0  0  0
   41.8817   32.2017   44.4240 H   0  0  0  0  0  0  0  0  0  0  0  0
   43.1689   31.8999   46.0742 C   0  0  0  0  0  0  0  0  0  0  0  0
   43.8409   32.6923   45.7769 H   0  0  0  0  0  0  0  0  0  0  0  0
   43.3220   31.1106   47.1893 C   0  0  0  0  0  0  0  0  0  0  0  0
   42.3995   30.1312   47.4653 C   0  0  0  0  0  0  0  0  0  0  0  0
   41.3327   29.8825   46.7061 N   0  0  0  0  0  0  0  0  0  0  0  0
   44.1671   31.2660   47.8416 H   0  0  0  0  0  0  0  0  0  0  0  0
   42.4700   29.4764   48.3342 H   0  0  0  0  0  0  0  0  0  0  0  0
  2  1  2  0
  3  2  1  0
  4  3  2  0
  4  5  1  0
  5  6  2  0
  6  1  1  0
  7  8  1  0
  7  3  1  0
  9  8  1  0
 10 11  1  0
 10  9  1  0
 11 12  1  6
 11  7  1  0
 12 14  1  0
 12 13  1  0
 15 12  1  0
 16 11  1  0
 17 16  1  0
 18 17  1  0
 19 18  2  0
 20 18  1  0
  1 21  1  0
  2 22  1  0
  5 23  1  0
  8 24  1  0
  8 25  1  0
  9 26  1  0
  9 27  1  0
 10 28  1  0
 10 29  1  0
 16 30  1  6
 20 31  1  0
 20 32  1  0
 33 34  2  0
 34 35  1  0
 34 36  1  0
 36 37  1  0
 36 38  2  0
 38 39  1  0
 39 40  2  0
 40 33  1  0
 38 41  1  0
 39 42  1  0
 16 33  1  0
M  ISO  8  21  14  22  14  23  14  24  13  25  13  26  13  27  13  28  13
M  ISO  4  29  13  30   8  35  15  37  16
M  END
>  <DihAtoms>  (1) 
10,15,32,33

>  <DihDeg>  (1) 
90.31843323741988

$$$$
