REMARK  Name = 
REMARK  5 active torsions:
REMARK  status: ('A' for Active; 'I' for Inactive)
REMARK    1  A    between atoms: C_11  and  C_12
REMARK    2  A    between atoms: C_11  and  C_16
REMARK    3  A    between atoms: C_16  and  O_17
REMARK    4  A    between atoms: C_16  and  C_33
REMARK    5  A    between atoms: O_17  and  C_18
REMARK                            x       y       z     vdW  Elec       q    Type
REMARK                         _______ _______ _______ _____ _____    ______ ____
ROOT
ATOM      1  C   UNL     1      36.689  29.955  49.013  0.00  0.00    +0.000 A 
ATOM      2  C   UNL     1      37.722  30.620  48.323  0.00  0.00    +0.000 A 
ATOM      3  C   UNL     1      37.495  30.910  46.976  0.00  0.00    +0.000 A 
ATOM      4  N   UNL     1      36.328  30.549  46.415  0.00  0.00    +0.000 NA
ATOM      5  C   UNL     1      35.363  29.912  47.110  0.00  0.00    +0.000 A 
ATOM      6  N   UNL     1      35.544  29.620  48.393  0.00  0.00    +0.000 NA
ATOM      7  N   UNL     1      38.465  31.558  46.218  0.00  0.00    +0.000 N 
ATOM      8  C   UNL     1      39.440  32.559  46.730  0.00  0.00    +0.000 C 
ATOM      9  C   UNL     1      40.090  33.197  45.563  0.00  0.00    +0.000 C 
ATOM     10  C   UNL     1      39.216  32.858  44.447  0.00  0.00    +0.000 C 
ATOM     11  C   UNL     1      38.789  31.491  44.830  0.00  0.00    +0.000 C 
ATOM     12  H   UNL     1      36.977  29.781  50.055  0.00  0.00    +0.000 HD
ATOM     13  H   UNL     1      38.664  30.917  48.760  0.00  0.00    +0.000 HD
ATOM     14  H   UNL     1      34.423  29.606  46.709  0.00  0.00    +0.000 HD
ATOM     15  H   UNL     1      38.687  33.300  47.212  0.00  0.00    +0.000 HD
ATOM     16  H   UNL     1      40.022  32.263  47.573  0.00  0.00    +0.000 HD
ATOM     17  H   UNL     1      39.808  34.342  45.726  0.00  0.00    +0.000 HD
ATOM     18  H   UNL     1      41.137  33.319  45.484  0.00  0.00    +0.000 HD
ATOM     19  H   UNL     1      38.373  33.544  44.238  0.00  0.00    +0.000 HD
ATOM     20  H   UNL     1      39.791  32.796  43.497  0.00  0.00    +0.000 HD
ENDROOT
BRANCH  11  21
ATOM     21  C   UNL     1      37.635  31.035  43.932  0.00  0.00    +0.000 C 
ATOM     22  F   UNL     1      36.509  31.747  44.285  0.00  0.00    +0.000 F 
ATOM     23  F   UNL     1      37.310  29.715  44.023  0.00  0.00    +0.000 F 
ATOM     24  F   UNL     1      37.959  31.422  42.650  0.00  0.00    +0.000 F 
ENDBRANCH  11  21
BRANCH  11  25
ATOM     25  C   UNL     1      39.824  30.510  44.668  0.00  0.00    +0.000 C 
ATOM     26  H   UNL     1      39.525  29.539  44.996  0.00  0.00    +0.000 HD
BRANCH  25  27
ATOM     27  C   UNL     1      41.109  30.610  45.596  0.00  0.00    +0.000 A 
ATOM     28  C   UNL     1      42.215  31.378  45.164  0.00  0.00    +0.000 A 
ATOM     29  H   UNL     1      42.116  31.785  44.144  0.00  0.00    +0.000 HD
ATOM     30  C   UNL     1      43.342  31.649  45.862  0.00  0.00    +0.000 A 
ATOM     31  H   UNL     1      44.127  32.251  45.428  0.00  0.00    +0.000 HD
ATOM     32  C   UNL     1      43.372  31.098  47.121  0.00  0.00    +0.000 A 
ATOM     33  C   UNL     1      42.311  30.348  47.565  0.00  0.00    +0.000 A 
ATOM     34  N   UNL     1      41.218  30.108  46.840  0.00  0.00    +0.000 NA
ENDBRANCH  25  27
BRANCH  25  35
ATOM     35  O   UNL     1      40.350  30.680  43.537  0.00  0.00    +0.000 OA
BRANCH  35  36
ATOM     36  C   UNL     1      40.993  29.982  42.588  0.00  0.00    +0.000 C 
ATOM     37  O   UNL     1      40.762  30.420  41.459  0.00  0.00    +0.000 OA
ATOM     38  N   UNL     1      41.870  28.917  42.252  0.00  0.00    +0.000 N 
ATOM     39  H   UNL     1      41.547  27.954  42.017  0.00  0.00    +0.000 HD
ATOM     40  H   UNL     1      42.891  29.146  42.249  0.00  0.00    +0.000 HD
ENDBRANCH  35  36
ENDBRANCH  25  35
ENDBRANCH  11  25
TORSDOF 5
