
 OpenBabel03262520113D

 35 37  0  0  0  0  0  0  0  0999 V2000
   38.3100   27.0100   33.3040 Br  0  0  0  0  0  0  0  0  0  0  0  0
   37.0860   25.8720   32.3800 C   0  0  0  0  0  0  0  0  0  0  0  0
   36.0900   26.4030   31.5980 C   0  0  0  0  0  0  0  0  0  0  0  0
   35.2380   25.5370   30.9590 C   0  0  0  0  0  0  0  0  0  0  0  0
   35.3500   24.1550   31.0780 C   0  0  0  0  0  0  0  0  0  0  0  0
   36.3650   23.6630   31.8730 C   0  0  0  0  0  0  0  0  0  0  0  0
   37.2240   24.5250   32.5180 C   0  0  0  0  0  0  0  0  0  0  0  0
   34.4620   25.9900   30.3460 H   0  0  0  0  0  0  0  0  0  0  0  0
   34.6290   23.5640   30.5350 H   0  0  0  0  0  0  0  0  0  0  0  0
   36.3470   22.5830   31.8880 H   0  0  0  0  0  0  0  0  0  0  0  0
   34.9710   29.8340   32.1710 C   0  0  0  0  0  0  0  0  0  0  0  0
   35.6340   30.5830   31.1620 C   0  0  0  0  0  0  0  0  0  0  0  0
   36.4600   29.8830   30.3010 C   0  0  0  0  0  0  0  0  0  0  0  0
   36.6000   28.5300   30.4500 N   0  0  0  0  0  0  0  0  0  0  0  0
   35.9350   27.8520   31.4450 C   0  0  0  0  0  0  0  0  0  0  0  0
   35.1300   28.5160   32.2880 N   0  0  0  0  0  0  0  0  0  0  0  0
   34.3370   30.3990   32.8260 H   0  0  0  0  0  0  0  0  0  0  0  0
   35.5320   31.6450   31.0340 H   0  0  0  0  0  0  0  0  0  0  0  0
   37.0180   30.3410   29.4930 H   0  0  0  0  0  0  0  0  0  0  0  0
   38.2770   23.8590   33.3450 C   0  0  0  0  0  0  0  0  0  0  0  0
   39.2770   24.1760   33.0790 H   0  0  0  0  0  0  0  0  0  0  0  0
   38.1030   24.2320   34.3950 H   0  0  0  0  0  0  0  0  0  0  0  0
   38.1730   22.3680   33.3620 C   0  0  0  0  0  0  0  0  0  0  0  0
   38.9430   21.8150   32.8370 H   0  0  0  0  0  0  0  0  0  0  0  0
   37.2200   22.1490   32.7710 H   0  0  0  0  0  0  0  0  0  0  0  0
   37.8820   21.8970   34.6850 N   0  0  0  0  0  0  0  0  0  0  0  0
   37.2420   21.0530   34.6670 H   0  0  0  0  0  0  0  0  0  0  0  0
   38.3040   22.3750   35.9340 C   0  0  0  0  0  0  0  0  0  0  0  0
   39.5770   22.2930   36.4270 C   0  0  0  0  0  0  0  0  0  0  0  0
   40.3600   21.8430   35.8360 H   0  0  0  0  0  0  0  0  0  0  0  0
   40.0160   22.7440   37.6520 C   0  0  0  0  0  0  0  0  0  0  0  0
   41.0310   22.6560   37.9910 H   0  0  0  0  0  0  0  0  0  0  0  0
   39.0660   23.3470   38.4750 C   0  0  0  0  0  3  0  0  0  0  0  0
   37.7850   23.4310   37.9790 C   0  0  0  0  0  3  0  0  0  0  0  0
   37.4430   22.9620   36.7660 N   0  0  0  0  0  0  0  0  0  0  0  0
  2  7  1  0  0  0  0
  2  1  1  0  0  0  0
  3  2  2  0  0  0  0
  4  5  2  0  0  0  0
  4  3  1  0  0  0  0
  5  6  1  0  0  0  0
  6 10  1  0  0  0  0
  6  7  2  0  0  0  0
  7 20  1  0  0  0  0
  8  4  1  0  0  0  0
  9  5  1  0  0  0  0
 11 16  1  0  0  0  0
 11 17  1  0  0  0  0
 12 11  2  0  0  0  0
 13 14  2  0  0  0  0
 13 12  1  0  0  0  0
 14 15  1  0  0  0  0
 15  3  1  0  0  0  0
 15 16  2  0  0  0  0
 18 12  1  0  0  0  0
 19 13  1  0  0  0  0
 20 23  1  0  0  0  0
 20 22  1  0  0  0  0
 21 20  1  0  0  0  0
 23 26  1  0  0  0  0
 24 23  1  0  0  0  0
 25 23  1  0  0  0  0
 26 28  1  0  0  0  0
 27 26  1  0  0  0  0
 28 29  2  0  0  0  0
 28 35  1  0  0  0  0
 29 31  1  0  0  0  0
 30 29  1  0  0  0  0
 31 32  1  0  0  0  0
 31 33  2  0  0  0  0
 34 33  1  0  0  0  0
 35 34  2  0  0  0  0
M  END
>  <minimizedAffinity>
-5.54642296

$$$$

 OpenBabel03262520113D

 35 37  0  0  0  0  0  0  0  0999 V2000
   38.1270   23.2090   33.3310 Br  0  0  0  0  0  0  0  0  0  0  0  0
   37.9290   24.9780   34.0210 C   0  0  0  0  0  0  0  0  0  0  0  0
   38.4630   25.3180   35.2400 C   0  0  0  0  0  0  0  0  0  0  0  0
   38.2870   26.6040   35.6870 C   0  0  0  0  0  0  0  0  0  0  0  0
   37.5950   27.5620   34.9540 C   0  0  0  0  0  0  0  0  0  0  0  0
   37.0760   27.1790   33.7340 C   0  0  0  0  0  0  0  0  0  0  0  0
   37.2470   25.8920   33.2780 C   0  0  0  0  0  0  0  0  0  0  0  0
   38.7230   26.8410   36.6560 H   0  0  0  0  0  0  0  0  0  0  0  0
   37.5140   28.5430   35.3960 H   0  0  0  0  0  0  0  0  0  0  0  0
   36.5610   28.0050   33.2640 H   0  0  0  0  0  0  0  0  0  0  0  0
   39.2730   22.9500   37.9020 C   0  0  0  0  0  0  0  0  0  0  0  0
   40.5800   22.5000   37.5740 C   0  0  0  0  0  0  0  0  0  0  0  0
   41.1570   23.0270   36.4320 C   0  0  0  0  0  0  0  0  0  0  0  0
   40.4630   23.9390   35.6840 N   0  0  0  0  0  0  0  0  0  0  0  0
   39.1990   24.3410   36.0470 C   0  0  0  0  0  0  0  0  0  0  0  0
   38.6250   23.8390   37.1510 N   0  0  0  0  0  0  0  0  0  0  0  0
   38.8470   22.5260   38.7910 H   0  0  0  0  0  0  0  0  0  0  0  0
   41.1360   21.7850   38.1540 H   0  0  0  0  0  0  0  0  0  0  0  0
   42.1470   22.7640   36.0790 H   0  0  0  0  0  0  0  0  0  0  0  0
   36.6350   25.6120   31.9420 C   0  0  0  0  0  0  0  0  0  0  0  0
   37.3670   25.3200   31.2020 H   0  0  0  0  0  0  0  0  0  0  0  0
   35.9810   24.7080   32.1040 H   0  0  0  0  0  0  0  0  0  0  0  0
   35.7720   26.7220   31.4340 C   0  0  0  0  0  0  0  0  0  0  0  0
   35.4530   27.4660   32.1530 H   0  0  0  0  0  0  0  0  0  0  0  0
   34.8030   26.2020   31.1230 H   0  0  0  0  0  0  0  0  0  0  0  0
   36.2970   27.2490   30.2070 N   0  0  0  0  0  0  0  0  0  0  0  0
   36.3050   26.5180   29.4410 H   0  0  0  0  0  0  0  0  0  0  0  0
   36.7760   28.5310   29.8990 C   0  0  0  0  0  0  0  0  0  0  0  0
   36.5770   29.6550   30.6520 C   0  0  0  0  0  0  0  0  0  0  0  0
   36.0240   29.5980   31.5770 H   0  0  0  0  0  0  0  0  0  0  0  0
   37.0270   30.9250   30.3680 C   0  0  0  0  0  0  0  0  0  0  0  0
   36.8440   31.7760   30.9960 H   0  0  0  0  0  0  0  0  0  0  0  0
   37.7600   31.0830   29.1930 C   0  0  0  0  0  3  0  0  0  0  0  0
   37.9600   29.9510   28.4360 C   0  0  0  0  0  3  0  0  0  0  0  0
   37.4840   28.7450   28.7900 N   0  0  0  0  0  0  0  0  0  0  0  0
  1  2  1  0  0  0  0
  2  3  1  0  0  0  0
  3  4  2  0  0  0  0
  3 15  1  0  0  0  0
  4  8  1  0  0  0  0
  5  9  1  0  0  0  0
  5  4  1  0  0  0  0
  6  5  2  0  0  0  0
  7  6  1  0  0  0  0
  7  2  2  0  0  0  0
 10  6  1  0  0  0  0
 11 17  1  0  0  0  0
 12 11  1  0  0  0  0
 12 18  1  0  0  0  0
 13 12  2  0  0  0  0
 14 15  2  0  0  0  0
 14 13  1  0  0  0  0
 15 16  1  0  0  0  0
 16 11  2  0  0  0  0
 19 13  1  0  0  0  0
 20 22  1  0  0  0  0
 20  7  1  0  0  0  0
 21 20  1  0  0  0  0
 23 20  1  0  0  0  0
 23 24  1  0  0  0  0
 25 23  1  0  0  0  0
 26 23  1  0  0  0  0
 27 26  1  0  0  0  0
 28 26  1  0  0  0  0
 28 29  1  0  0  0  0
 29 30  1  0  0  0  0
 31 29  2  0  0  0  0
 31 32  1  0  0  0  0
 33 31  1  0  0  0  0
 34 35  1  0  0  0  0
 34 33  2  0  0  0  0
 35 28  2  0  0  0  0
M  END
>  <minimizedAffinity>
-5.50311613

$$$$

 OpenBabel03262520113D

 35 37  0  0  0  0  0  0  0  0999 V2000
   38.5580   24.6260   33.4060 Br  0  0  0  0  0  0  0  0  0  0  0  0
   37.4460   23.0730   33.3810 C   0  0  0  0  0  0  0  0  0  0  0  0
   37.3890   22.2370   34.4700 C   0  0  0  0  0  0  0  0  0  0  0  0
   36.5740   21.1340   34.3940 C   0  0  0  0  0  0  0  0  0  0  0  0
   35.8160   20.8410   33.2660 C   0  0  0  0  0  0  0  0  0  0  0  0
   35.9030   21.7070   32.1960 C   0  0  0  0  0  0  0  0  0  0  0  0
   36.7170   22.8160   32.2620 C   0  0  0  0  0  0  0  0  0  0  0  0
   36.5500   20.4930   35.2730 H   0  0  0  0  0  0  0  0  0  0  0  0
   35.2090   19.9490   33.3100 H   0  0  0  0  0  0  0  0  0  0  0  0
   35.2750   21.3730   31.3830 H   0  0  0  0  0  0  0  0  0  0  0  0
   40.1670   22.2930   36.8420 C   0  0  0  0  0  0  0  0  0  0  0  0
   39.6510   23.0090   37.9550 C   0  0  0  0  0  0  0  0  0  0  0  0
   38.3460   23.4620   37.8620 C   0  0  0  0  0  0  0  0  0  0  0  0
   37.6230   23.2060   36.7290 N   0  0  0  0  0  0  0  0  0  0  0  0
   38.1700   22.5070   35.6780 C   0  0  0  0  0  0  0  0  0  0  0  0
   39.4340   22.0620   35.7530 N   0  0  0  0  0  0  0  0  0  0  0  0
   41.1790   21.9540   36.9380 H   0  0  0  0  0  0  0  0  0  0  0  0
   40.2090   23.2160   38.8510 H   0  0  0  0  0  0  0  0  0  0  0  0
   37.8430   24.0180   38.6440 H   0  0  0  0  0  0  0  0  0  0  0  0
   36.7160   23.6700   31.0340 C   0  0  0  0  0  0  0  0  0  0  0  0
   37.7030   24.0330   30.7800 H   0  0  0  0  0  0  0  0  0  0  0  0
   36.4170   22.9770   30.1960 H   0  0  0  0  0  0  0  0  0  0  0  0
   35.7280   24.7900   31.0830 C   0  0  0  0  0  0  0  0  0  0  0  0
   35.2300   24.9660   32.0290 H   0  0  0  0  0  0  0  0  0  0  0  0
   34.8890   24.4520   30.3850 H   0  0  0  0  0  0  0  0  0  0  0  0
   36.2610   25.9620   30.4500 N   0  0  0  0  0  0  0  0  0  0  0  0
   36.7100   25.7320   29.5190 H   0  0  0  0  0  0  0  0  0  0  0  0
   36.2690   27.2990   30.8730 C   0  0  0  0  0  0  0  0  0  0  0  0
   35.8980   27.7430   32.1120 C   0  0  0  0  0  0  0  0  0  0  0  0
   35.5790   27.0410   32.8670 H   0  0  0  0  0  0  0  0  0  0  0  0
   35.8870   29.0490   32.5480 C   0  0  0  0  0  0  0  0  0  0  0  0
   35.5870   29.3440   33.5360 H   0  0  0  0  0  0  0  0  0  0  0  0
   36.2950   30.0190   31.6350 C   0  0  0  0  0  3  0  0  0  0  0  0
   36.6680   29.5730   30.3880 C   0  0  0  0  0  3  0  0  0  0  0  0
   36.6490   28.2730   30.0450 N   0  0  0  0  0  0  0  0  0  0  0  0
  2  1  1  0  0  0  0
  2  3  1  0  0  0  0
  3 15  1  0  0  0  0
  4  3  2  0  0  0  0
  4  8  1  0  0  0  0
  5  9  1  0  0  0  0
  5  4  1  0  0  0  0
  6  7  1  0  0  0  0
  6  5  2  0  0  0  0
  7  2  2  0  0  0  0
 10  6  1  0  0  0  0
 11 17  1  0  0  0  0
 11 12  1  0  0  0  0
 12 18  1  0  0  0  0
 13 12  2  0  0  0  0
 13 19  1  0  0  0  0
 14 13  1  0  0  0  0
 15 16  1  0  0  0  0
 15 14  2  0  0  0  0
 16 11  2  0  0  0  0
 20 23  1  0  0  0  0
 20  7  1  0  0  0  0
 21 20  1  0  0  0  0
 22 20  1  0  0  0  0
 23 24  1  0  0  0  0
 25 23  1  0  0  0  0
 26 28  1  0  0  0  0
 26 23  1  0  0  0  0
 27 26  1  0  0  0  0
 28 29  1  0  0  0  0
 29 31  2  0  0  0  0
 29 30  1  0  0  0  0
 31 32  1  0  0  0  0
 33 31  1  0  0  0  0
 34 33  2  0  0  0  0
 35 34  1  0  0  0  0
 35 28  2  0  0  0  0
M  END
>  <minimizedAffinity>
-5.35178804

$$$$

 OpenBabel03262520113D

 35 37  0  0  0  0  0  0  0  0999 V2000
   38.3170   27.2500   35.5470 Br  0  0  0  0  0  0  0  0  0  0  0  0
   37.8230   26.0370   34.1580 C   0  0  0  0  0  0  0  0  0  0  0  0
   37.9530   24.6810   34.3340 C   0  0  0  0  0  0  0  0  0  0  0  0
   37.5840   23.8570   33.3000 C   0  0  0  0  0  0  0  0  0  0  0  0
   37.0900   24.3460   32.0950 C   0  0  0  0  0  0  0  0  0  0  0  0
   36.9750   25.7140   31.9600 C   0  0  0  0  0  0  0  0  0  0  0  0
   37.3420   26.5480   32.9920 C   0  0  0  0  0  0  0  0  0  0  0  0
   37.6980   22.7890   33.4720 H   0  0  0  0  0  0  0  0  0  0  0  0
   36.8290   23.6120   31.3470 H   0  0  0  0  0  0  0  0  0  0  0  0
   36.5840   25.9690   30.9860 H   0  0  0  0  0  0  0  0  0  0  0  0
   38.1250   23.6000   37.8200 C   0  0  0  0  0  0  0  0  0  0  0  0
   39.4380   23.0720   37.9500 C   0  0  0  0  0  0  0  0  0  0  0  0
   40.2400   23.1010   36.8230 C   0  0  0  0  0  0  0  0  0  0  0  0
   39.7500   23.6240   35.6580 N   0  0  0  0  0  0  0  0  0  0  0  0
   38.4700   24.1230   35.5860 C   0  0  0  0  0  0  0  0  0  0  0  0
   37.6790   24.1020   36.6690 N   0  0  0  0  0  0  0  0  0  0  0  0
   37.5230   23.5660   38.7070 H   0  0  0  0  0  0  0  0  0  0  0  0
   39.8350   22.6590   38.8590 H   0  0  0  0  0  0  0  0  0  0  0  0
   41.2580   22.7290   36.7970 H   0  0  0  0  0  0  0  0  0  0  0  0
   37.1650   28.0070   32.7130 C   0  0  0  0  0  0  0  0  0  0  0  0
   37.4430   28.6280   33.5550 H   0  0  0  0  0  0  0  0  0  0  0  0
   37.9070   28.2410   31.8980 H   0  0  0  0  0  0  0  0  0  0  0  0
   35.8010   28.3610   32.2130 C   0  0  0  0  0  0  0  0  0  0  0  0
   35.2190   27.5640   31.7670 H   0  0  0  0  0  0  0  0  0  0  0  0
   36.0010   29.0780   31.3460 H   0  0  0  0  0  0  0  0  0  0  0  0
   35.1010   29.1600   33.1760 N   0  0  0  0  0  0  0  0  0  0  0  0
   34.1450   28.7600   33.3950 H   0  0  0  0  0  0  0  0  0  0  0  0
   35.4880   30.3370   33.8340 C   0  0  0  0  0  0  0  0  0  0  0  0
   35.7190   30.4580   35.1770 C   0  0  0  0  0  0  0  0  0  0  0  0
   35.6240   29.5990   35.8230 H   0  0  0  0  0  0  0  0  0  0  0  0
   36.0890   31.6020   35.8480 C   0  0  0  0  0  0  0  0  0  0  0  0
   36.2610   31.6420   36.9070 H   0  0  0  0  0  0  0  0  0  0  0  0
   36.2420   32.7570   35.0820 C   0  0  0  0  0  3  0  0  0  0  0  0
   36.0090   32.6350   33.7320 C   0  0  0  0  0  3  0  0  0  0  0  0
   35.6510   31.4740   33.1570 N   0  0  0  0  0  0  0  0  0  0  0  0
  2  3  1  0  0  0  0
  2  1  1  0  0  0  0
  3 15  1  0  0  0  0
  4  8  1  0  0  0  0
  4  3  2  0  0  0  0
  5  4  1  0  0  0  0
  6  5  2  0  0  0  0
  6  7  1  0  0  0  0
  7  2  2  0  0  0  0
  9  5  1  0  0  0  0
 10  6  1  0  0  0  0
 11 12  1  0  0  0  0
 11 17  1  0  0  0  0
 12 18  1  0  0  0  0
 13 12  2  0  0  0  0
 14 13  1  0  0  0  0
 15 14  2  0  0  0  0
 15 16  1  0  0  0  0
 16 11  2  0  0  0  0
 19 13  1  0  0  0  0
 20  7  1  0  0  0  0
 20 21  1  0  0  0  0
 22 20  1  0  0  0  0
 23 20  1  0  0  0  0
 23 26  1  0  0  0  0
 24 23  1  0  0  0  0
 25 23  1  0  0  0  0
 26 27  1  0  0  0  0
 26 28  1  0  0  0  0
 28 29  1  0  0  0  0
 29 30  1  0  0  0  0
 29 31  2  0  0  0  0
 31 32  1  0  0  0  0
 33 31  1  0  0  0  0
 34 33  2  0  0  0  0
 35 34  1  0  0  0  0
 35 28  2  0  0  0  0
M  END
>  <minimizedAffinity>
-5.32051516

$$$$

 OpenBabel03262520113D

 35 37  0  0  0  0  0  0  0  0999 V2000
   39.9220   26.6740   31.3990 Br  0  0  0  0  0  0  0  0  0  0  0  0
   39.0580   27.0370   33.0630 C   0  0  0  0  0  0  0  0  0  0  0  0
   39.7260   26.8630   34.2500 C   0  0  0  0  0  0  0  0  0  0  0  0
   39.0530   27.1370   35.4160 C   0  0  0  0  0  0  0  0  0  0  0  0
   37.7340   27.5790   35.4310 C   0  0  0  0  0  0  0  0  0  0  0  0
   37.1010   27.7410   34.2160 C   0  0  0  0  0  0  0  0  0  0  0  0
   37.7670   27.4690   33.0420 C   0  0  0  0  0  0  0  0  0  0  0  0
   39.6100   26.9910   36.3390 H   0  0  0  0  0  0  0  0  0  0  0  0
   37.2990   27.7650   36.4010 H   0  0  0  0  0  0  0  0  0  0  0  0
   36.0860   28.0830   34.3580 H   0  0  0  0  0  0  0  0  0  0  0  0
   43.3670   26.8460   33.9490 C   0  0  0  0  0  0  0  0  0  0  0  0
   43.7360   25.5300   34.3370 C   0  0  0  0  0  0  0  0  0  0  0  0
   42.7120   24.6710   34.6980 C   0  0  0  0  0  0  0  0  0  0  0  0
   41.4180   25.1130   34.6660 N   0  0  0  0  0  0  0  0  0  0  0  0
   41.1140   26.3990   34.2820 C   0  0  0  0  0  0  0  0  0  0  0  0
   42.0950   27.2430   33.9300 N   0  0  0  0  0  0  0  0  0  0  0  0
   44.1770   27.4920   33.6750 H   0  0  0  0  0  0  0  0  0  0  0  0
   44.7490   25.1710   34.3650 H   0  0  0  0  0  0  0  0  0  0  0  0
   42.8670   23.6450   35.0110 H   0  0  0  0  0  0  0  0  0  0  0  0
   36.9650   27.6870   31.7990 C   0  0  0  0  0  0  0  0  0  0  0  0
   36.5320   28.6770   31.7530 H   0  0  0  0  0  0  0  0  0  0  0  0
   37.7120   27.6370   30.9570 H   0  0  0  0  0  0  0  0  0  0  0  0
   35.9290   26.6360   31.5620 C   0  0  0  0  0  0  0  0  0  0  0  0
   34.9280   26.9750   31.3240 H   0  0  0  0  0  0  0  0  0  0  0  0
   35.8160   26.1230   32.5760 H   0  0  0  0  0  0  0  0  0  0  0  0
   36.4420   25.6070   30.7030 N   0  0  0  0  0  0  0  0  0  0  0  0
   36.7750   26.0000   29.7790 H   0  0  0  0  0  0  0  0  0  0  0  0
   36.5550   24.2240   30.9090 C   0  0  0  0  0  0  0  0  0  0  0  0
   35.5900   23.4190   31.4480 C   0  0  0  0  0  0  0  0  0  0  0  0
   34.6380   23.8350   31.7410 H   0  0  0  0  0  0  0  0  0  0  0  0
   35.6800   22.0630   31.6700 C   0  0  0  0  0  0  0  0  0  0  0  0
   34.8880   21.4750   32.0960 H   0  0  0  0  0  0  0  0  0  0  0  0
   36.8760   21.4460   31.3100 C   0  0  0  0  0  3  0  0  0  0  0  0
   37.8480   22.2560   30.7680 C   0  0  0  0  0  3  0  0  0  0  0  0
   37.6750   23.5770   30.5850 N   0  0  0  0  0  0  0  0  0  0  0  0
  1  2  1  0  0  0  0
  2  3  1  0  0  0  0
  3 15  1  0  0  0  0
  3  4  2  0  0  0  0
  4  5  1  0  0  0  0
  4  8  1  0  0  0  0
  5  9  1  0  0  0  0
  6 10  1  0  0  0  0
  6  5  2  0  0  0  0
  7  2  2  0  0  0  0
  7  6  1  0  0  0  0
 11 12  1  0  0  0  0
 12 18  1  0  0  0  0
 12 13  2  0  0  0  0
 13 19  1  0  0  0  0
 14 13  1  0  0  0  0
 15 14  2  0  0  0  0
 16 11  2  0  0  0  0
 16 15  1  0  0  0  0
 17 11  1  0  0  0  0
 20  7  1  0  0  0  0
 21 20  1  0  0  0  0
 22 20  1  0  0  0  0
 23 20  1  0  0  0  0
 23 25  1  0  0  0  0
 24 23  1  0  0  0  0
 26 28  1  0  0  0  0
 26 23  1  0  0  0  0
 27 26  1  0  0  0  0
 28 29  1  0  0  0  0
 29 31  2  0  0  0  0
 29 30  1  0  0  0  0
 31 32  1  0  0  0  0
 33 31  1  0  0  0  0
 34 33  2  0  0  0  0
 35 34  1  0  0  0  0
 35 28  2  0  0  0  0
M  END
>  <minimizedAffinity>
-5.30946064

$$$$

 OpenBabel03262520113D

 35 37  0  0  0  0  0  0  0  0999 V2000
   38.4200   22.7500   34.3470 Br  0  0  0  0  0  0  0  0  0  0  0  0
   38.5370   24.5700   34.9110 C   0  0  0  0  0  0  0  0  0  0  0  0
   38.9440   25.5490   34.0380 C   0  0  0  0  0  0  0  0  0  0  0  0
   39.0110   26.8400   34.5000 C   0  0  0  0  0  0  0  0  0  0  0  0
   38.6850   27.1840   35.8080 C   0  0  0  0  0  0  0  0  0  0  0  0
   38.2810   26.1700   36.6520 C   0  0  0  0  0  0  0  0  0  0  0  0
   38.2100   24.8720   36.1980 C   0  0  0  0  0  0  0  0  0  0  0  0
   39.3350   27.5920   33.7830 H   0  0  0  0  0  0  0  0  0  0  0  0
   38.7720   28.2270   36.0690 H   0  0  0  0  0  0  0  0  0  0  0  0
   38.0590   26.5590   37.6350 H   0  0  0  0  0  0  0  0  0  0  0  0
   38.6410   24.9870   30.4400 C   0  0  0  0  0  0  0  0  0  0  0  0
   39.9570   24.6370   30.0370 C   0  0  0  0  0  0  0  0  0  0  0  0
   40.9280   24.6030   31.0220 C   0  0  0  0  0  0  0  0  0  0  0  0
   40.5890   24.8990   32.3150 N   0  0  0  0  0  0  0  0  0  0  0  0
   39.2980   25.2330   32.6520 C   0  0  0  0  0  0  0  0  0  0  0  0
   38.3450   25.2710   31.7080 N   0  0  0  0  0  0  0  0  0  0  0  0
   37.9070   25.0070   29.6590 H   0  0  0  0  0  0  0  0  0  0  0  0
   40.2360   24.4010   29.0260 H   0  0  0  0  0  0  0  0  0  0  0  0
   41.9660   24.3500   30.8400 H   0  0  0  0  0  0  0  0  0  0  0  0
   37.7570   23.8740   37.2150 C   0  0  0  0  0  0  0  0  0  0  0  0
   36.7820   24.1090   37.6220 H   0  0  0  0  0  0  0  0  0  0  0  0
   37.6290   22.9110   36.6430 H   0  0  0  0  0  0  0  0  0  0  0  0
   38.7510   23.6360   38.3050 C   0  0  0  0  0  0  0  0  0  0  0  0
   38.3980   23.7360   39.3240 H   0  0  0  0  0  0  0  0  0  0  0  0
   39.5040   24.4860   38.1860 H   0  0  0  0  0  0  0  0  0  0  0  0
   39.5160   22.4510   38.0410 N   0  0  0  0  0  0  0  0  0  0  0  0
   39.0070   21.5790   38.3600 H   0  0  0  0  0  0  0  0  0  0  0  0
   40.7790   22.2970   37.4500 C   0  0  0  0  0  0  0  0  0  0  0  0
   41.4240   23.2390   36.6990 C   0  0  0  0  0  0  0  0  0  0  0  0
   40.9700   24.2030   36.5310 H   0  0  0  0  0  0  0  0  0  0  0  0
   42.6580   23.1100   36.1000 C   0  0  0  0  0  0  0  0  0  0  0  0
   43.1220   23.8840   35.5190 H   0  0  0  0  0  0  0  0  0  0  0  0
   43.3170   21.8940   36.2760 C   0  0  0  0  0  3  0  0  0  0  0  0
   42.6670   20.9460   37.0330 C   0  0  0  0  0  3  0  0  0  0  0  0
   41.4580   21.1570   37.5830 N   0  0  0  0  0  0  0  0  0  0  0  0
  1  2  1  0  0  0  0
  2  7  1  0  0  0  0
  3  4  1  0  0  0  0
  3  2  2  0  0  0  0
  4  5  2  0  0  0  0
  5  9  1  0  0  0  0
  5  6  1  0  0  0  0
  6 10  1  0  0  0  0
  7  6  2  0  0  0  0
  7 20  1  0  0  0  0
  8  4  1  0  0  0  0
 11 16  1  0  0  0  0
 12 11  2  0  0  0  0
 12 13  1  0  0  0  0
 13 14  2  0  0  0  0
 14 15  1  0  0  0  0
 15  3  1  0  0  0  0
 16 15  2  0  0  0  0
 17 11  1  0  0  0  0
 18 12  1  0  0  0  0
 19 13  1  0  0  0  0
 20 21  1  0  0  0  0
 20 23  1  0  0  0  0
 22 20  1  0  0  0  0
 23 24  1  0  0  0  0
 25 23  1  0  0  0  0
 26 23  1  0  0  0  0
 26 27  1  0  0  0  0
 28 35  1  0  0  0  0
 28 26  1  0  0  0  0
 29 28  2  0  0  0  0
 30 29  1  0  0  0  0
 31 33  2  0  0  0  0
 31 29  1  0  0  0  0
 32 31  1  0  0  0  0
 33 34  1  0  0  0  0
 34 35  2  0  0  0  0
M  END
>  <minimizedAffinity>
-5.16405916

$$$$

 OpenBabel03262520113D

 35 37  0  0  0  0  0  0  0  0999 V2000
   38.1110   27.0720   35.5240 Br  0  0  0  0  0  0  0  0  0  0  0  0
   38.0180   25.3310   34.7460 C   0  0  0  0  0  0  0  0  0  0  0  0
   37.8180   25.1780   33.3960 C   0  0  0  0  0  0  0  0  0  0  0  0
   37.7570   23.9020   32.8920 C   0  0  0  0  0  0  0  0  0  0  0  0
   37.8900   22.7740   33.6960 C   0  0  0  0  0  0  0  0  0  0  0  0
   38.0900   22.9730   35.0460 C   0  0  0  0  0  0  0  0  0  0  0  0
   38.1530   24.2490   35.5600 C   0  0  0  0  0  0  0  0  0  0  0  0
   37.5990   23.8150   31.8190 H   0  0  0  0  0  0  0  0  0  0  0  0
   37.8260   21.8180   33.2000 H   0  0  0  0  0  0  0  0  0  0  0  0
   38.1750   22.0270   35.5610 H   0  0  0  0  0  0  0  0  0  0  0  0
   38.6490   27.8790   31.0810 C   0  0  0  0  0  0  0  0  0  0  0  0
   37.4050   28.5230   30.8450 C   0  0  0  0  0  0  0  0  0  0  0  0
   36.2970   28.0060   31.4950 C   0  0  0  0  0  0  0  0  0  0  0  0
   36.4430   26.9230   32.3190 N   0  0  0  0  0  0  0  0  0  0  0  0
   37.6720   26.3370   32.5120 C   0  0  0  0  0  0  0  0  0  0  0  0
   38.7550   26.8260   31.8890 N   0  0  0  0  0  0  0  0  0  0  0  0
   39.4910   28.2980   30.5650 H   0  0  0  0  0  0  0  0  0  0  0  0
   37.2780   29.3740   30.2010 H   0  0  0  0  0  0  0  0  0  0  0  0
   35.2960   28.4090   31.3960 H   0  0  0  0  0  0  0  0  0  0  0  0
   38.3740   24.3200   37.0380 C   0  0  0  0  0  0  0  0  0  0  0  0
   39.2130   24.9500   37.3020 H   0  0  0  0  0  0  0  0  0  0  0  0
   37.4590   24.8370   37.4460 H   0  0  0  0  0  0  0  0  0  0  0  0
   38.4810   22.9810   37.6940 C   0  0  0  0  0  0  0  0  0  0  0  0
   38.0380   22.1410   37.1720 H   0  0  0  0  0  0  0  0  0  0  0  0
   37.8510   23.0850   38.6410 H   0  0  0  0  0  0  0  0  0  0  0  0
   39.8130   22.7610   38.1790 N   0  0  0  0  0  0  0  0  0  0  0  0
   39.8860   22.9530   39.2170 H   0  0  0  0  0  0  0  0  0  0  0  0
   40.9700   22.3480   37.5020 C   0  0  0  0  0  0  0  0  0  0  0  0
   41.6560   23.0870   36.5780 C   0  0  0  0  0  0  0  0  0  0  0  0
   41.3260   24.0830   36.3270 H   0  0  0  0  0  0  0  0  0  0  0  0
   42.7870   22.7020   35.8930 C   0  0  0  0  0  0  0  0  0  0  0  0
   43.2900   23.3230   35.1760 H   0  0  0  0  0  0  0  0  0  0  0  0
   43.2840   21.4290   36.1680 C   0  0  0  0  0  3  0  0  0  0  0  0
   42.5940   20.6860   37.0980 C   0  0  0  0  0  3  0  0  0  0  0  0
   41.4940   21.1420   37.7220 N   0  0  0  0  0  0  0  0  0  0  0  0
  2  1  1  0  0  0  0
  2  7  1  0  0  0  0
  3  2  2  0  0  0  0
  4  3  1  0  0  0  0
  4  5  2  0  0  0  0
  5  6  1  0  0  0  0
  6  7  2  0  0  0  0
  6 10  1  0  0  0  0
  7 20  1  0  0  0  0
  8  4  1  0  0  0  0
  9  5  1  0  0  0  0
 11 16  1  0  0  0  0
 12 11  2  0  0  0  0
 12 13  1  0  0  0  0
 13 14  2  0  0  0  0
 14 15  1  0  0  0  0
 15  3  1  0  0  0  0
 16 15  2  0  0  0  0
 17 11  1  0  0  0  0
 18 12  1  0  0  0  0
 19 13  1  0  0  0  0
 20 21  1  0  0  0  0
 20 22  1  0  0  0  0
 20 23  1  0  0  0  0
 23 26  1  0  0  0  0
 23 25  1  0  0  0  0
 24 23  1  0  0  0  0
 26 27  1  0  0  0  0
 28 35  1  0  0  0  0
 28 26  1  0  0  0  0
 29 28  2  0  0  0  0
 30 29  1  0  0  0  0
 31 33  2  0  0  0  0
 31 29  1  0  0  0  0
 32 31  1  0  0  0  0
 33 34  1  0  0  0  0
 34 35  2  0  0  0  0
M  END
>  <minimizedAffinity>
-5.1268158

$$$$

 OpenBabel03262520113D

 35 37  0  0  0  0  0  0  0  0999 V2000
   39.1030   22.7100   32.8550 Br  0  0  0  0  0  0  0  0  0  0  0  0
   38.4450   24.3410   33.6010 C   0  0  0  0  0  0  0  0  0  0  0  0
   38.8460   24.7500   34.8500 C   0  0  0  0  0  0  0  0  0  0  0  0
   38.3380   25.9300   35.3360 C   0  0  0  0  0  0  0  0  0  0  0  0
   37.4440   26.7130   34.6140 C   0  0  0  0  0  0  0  0  0  0  0  0
   37.0690   26.2650   33.3640 C   0  0  0  0  0  0  0  0  0  0  0  0
   37.5720   25.0830   32.8680 C   0  0  0  0  0  0  0  0  0  0  0  0
   38.6760   26.2260   36.3270 H   0  0  0  0  0  0  0  0  0  0  0  0
   37.1060   27.6220   35.0880 H   0  0  0  0  0  0  0  0  0  0  0  0
   36.3740   26.9530   32.9060 H   0  0  0  0  0  0  0  0  0  0  0  0
   41.9750   23.3470   36.1100 C   0  0  0  0  0  0  0  0  0  0  0  0
   41.5620   22.4630   37.1430 C   0  0  0  0  0  0  0  0  0  0  0  0
   40.2020   22.3700   37.3840 C   0  0  0  0  0  0  0  0  0  0  0  0
   39.3310   23.1140   36.6350 N   0  0  0  0  0  0  0  0  0  0  0  0
   39.7840   23.9570   35.6460 C   0  0  0  0  0  0  0  0  0  0  0  0
   41.0990   24.0580   35.4010 N   0  0  0  0  0  0  0  0  0  0  0  0
   43.0330   23.4020   35.9440 H   0  0  0  0  0  0  0  0  0  0  0  0
   42.2350   21.8730   37.7370 H   0  0  0  0  0  0  0  0  0  0  0  0
   39.7650   21.7310   38.1420 H   0  0  0  0  0  0  0  0  0  0  0  0
   37.0840   24.7170   31.5020 C   0  0  0  0  0  0  0  0  0  0  0  0
   37.1960   25.5240   30.7900 H   0  0  0  0  0  0  0  0  0  0  0  0
   37.7780   23.9000   31.1540 H   0  0  0  0  0  0  0  0  0  0  0  0
   35.6910   24.1770   31.4880 C   0  0  0  0  0  0  0  0  0  0  0  0
   34.9130   24.8310   31.1120 H   0  0  0  0  0  0  0  0  0  0  0  0
   35.4330   24.0440   32.5930 H   0  0  0  0  0  0  0  0  0  0  0  0
   35.6710   22.8430   30.9600 N   0  0  0  0  0  0  0  0  0  0  0  0
   35.6820   22.8430   29.9010 H   0  0  0  0  0  0  0  0  0  0  0  0
   35.6400   21.6050   31.6180 C   0  0  0  0  0  0  0  0  0  0  0  0
   35.5050   21.4260   32.9670 C   0  0  0  0  0  0  0  0  0  0  0  0
   35.3940   22.2780   33.6190 H   0  0  0  0  0  0  0  0  0  0  0  0
   35.4810   20.2230   33.6380 C   0  0  0  0  0  0  0  0  0  0  0  0
   35.3710   20.1380   34.7030 H   0  0  0  0  0  0  0  0  0  0  0  0
   35.6090   19.0700   32.8660 C   0  0  0  0  0  3  0  0  0  0  0  0
   35.7460   19.2510   31.5080 C   0  0  0  0  0  3  0  0  0  0  0  0
   35.7570   20.4670   30.9340 N   0  0  0  0  0  0  0  0  0  0  0  0
  1  2  1  0  0  0  0
  2  3  1  0  0  0  0
  3  4  2  0  0  0  0
  3 15  1  0  0  0  0
  4  8  1  0  0  0  0
  5  9  1  0  0  0  0
  5  4  1  0  0  0  0
  6  5  2  0  0  0  0
  7  6  1  0  0  0  0
  7  2  2  0  0  0  0
 10  6  1  0  0  0  0
 11 12  1  0  0  0  0
 12 13  2  0  0  0  0
 12 18  1  0  0  0  0
 13 19  1  0  0  0  0
 14 13  1  0  0  0  0
 15 14  2  0  0  0  0
 16 15  1  0  0  0  0
 16 11  2  0  0  0  0
 17 11  1  0  0  0  0
 20  7  1  0  0  0  0
 21 20  1  0  0  0  0
 22 20  1  0  0  0  0
 23 20  1  0  0  0  0
 23 25  1  0  0  0  0
 24 23  1  0  0  0  0
 26 23  1  0  0  0  0
 26 28  1  0  0  0  0
 27 26  1  0  0  0  0
 28 29  1  0  0  0  0
 29 30  1  0  0  0  0
 29 31  2  0  0  0  0
 31 32  1  0  0  0  0
 33 31  1  0  0  0  0
 34 33  2  0  0  0  0
 35 34  1  0  0  0  0
 35 28  2  0  0  0  0
M  END
>  <minimizedAffinity>
-5.12373066

$$$$

 OpenBabel03262520113D

 35 37  0  0  0  0  0  0  0  0999 V2000
   40.6390   23.8910   33.6040 Br  0  0  0  0  0  0  0  0  0  0  0  0
   39.6650   25.1290   34.6840 C   0  0  0  0  0  0  0  0  0  0  0  0
   39.6440   26.4660   34.3690 C   0  0  0  0  0  0  0  0  0  0  0  0
   38.9290   27.3100   35.1820 C   0  0  0  0  0  0  0  0  0  0  0  0
   38.2350   26.8600   36.3010 C   0  0  0  0  0  0  0  0  0  0  0  0
   38.2820   25.5090   36.5800 C   0  0  0  0  0  0  0  0  0  0  0  0
   38.9970   24.6550   35.7700 C   0  0  0  0  0  0  0  0  0  0  0  0
   38.9310   28.3620   34.9050 H   0  0  0  0  0  0  0  0  0  0  0  0
   37.7050   27.6060   36.8730 H   0  0  0  0  0  0  0  0  0  0  0  0
   37.7110   25.2850   37.4690 H   0  0  0  0  0  0  0  0  0  0  0  0
   40.3750   27.4680   30.9320 C   0  0  0  0  0  0  0  0  0  0  0  0
   41.7070   27.9590   30.9950 C   0  0  0  0  0  0  0  0  0  0  0  0
   42.3280   27.9340   32.2320 C   0  0  0  0  0  0  0  0  0  0  0  0
   41.6510   27.4480   33.3170 N   0  0  0  0  0  0  0  0  0  0  0  0
   40.3610   26.9840   33.2020 C   0  0  0  0  0  0  0  0  0  0  0  0
   39.7450   27.0020   32.0100 N   0  0  0  0  0  0  0  0  0  0  0  0
   39.9160   27.4980   29.9640 H   0  0  0  0  0  0  0  0  0  0  0  0
   42.2490   28.3420   30.1500 H   0  0  0  0  0  0  0  0  0  0  0  0
   43.3400   28.2790   32.4070 H   0  0  0  0  0  0  0  0  0  0  0  0
   38.9630   23.2190   36.1870 C   0  0  0  0  0  0  0  0  0  0  0  0
   39.6390   22.6030   35.6100 H   0  0  0  0  0  0  0  0  0  0  0  0
   39.3600   23.2120   37.2420 H   0  0  0  0  0  0  0  0  0  0  0  0
   37.5880   22.6330   36.2070 C   0  0  0  0  0  0  0  0  0  0  0  0
   36.7570   23.3280   36.2440 H   0  0  0  0  0  0  0  0  0  0  0  0
   37.5350   22.0820   37.2070 H   0  0  0  0  0  0  0  0  0  0  0  0
   37.4680   21.5930   35.2260 N   0  0  0  0  0  0  0  0  0  0  0  0
   37.9950   20.7220   35.5150 H   0  0  0  0  0  0  0  0  0  0  0  0
   36.7840   21.5730   34.0020 C   0  0  0  0  0  0  0  0  0  0  0  0
   35.7570   20.7310   33.6790 C   0  0  0  0  0  0  0  0  0  0  0  0
   35.3960   20.0140   34.4000 H   0  0  0  0  0  0  0  0  0  0  0  0
   35.0770   20.6840   32.4820 C   0  0  0  0  0  0  0  0  0  0  0  0
   34.2730   20.0010   32.2800 H   0  0  0  0  0  0  0  0  0  0  0  0
   35.4770   21.5860   31.4970 C   0  0  0  0  0  3  0  0  0  0  0  0
   36.5110   22.4340   31.8220 C   0  0  0  0  0  3  0  0  0  0  0  0
   37.1200   22.4120   33.0210 N   0  0  0  0  0  0  0  0  0  0  0  0
  1  2  1  0  0  0  0
  2  7  1  0  0  0  0
  3  2  2  0  0  0  0
  3  4  1  0  0  0  0
  4  5  2  0  0  0  0
  5  6  1  0  0  0  0
  5  9  1  0  0  0  0
  6 10  1  0  0  0  0
  7 20  1  0  0  0  0
  7  6  2  0  0  0  0
  8  4  1  0  0  0  0
 11 12  2  0  0  0  0
 11 16  1  0  0  0  0
 12 13  1  0  0  0  0
 13 19  1  0  0  0  0
 13 14  2  0  0  0  0
 15 14  1  0  0  0  0
 15  3  1  0  0  0  0
 16 15  2  0  0  0  0
 17 11  1  0  0  0  0
 18 12  1  0  0  0  0
 20 23  1  0  0  0  0
 20 22  1  0  0  0  0
 21 20  1  0  0  0  0
 23 24  1  0  0  0  0
 23 25  1  0  0  0  0
 26 27  1  0  0  0  0
 26 23  1  0  0  0  0
 28 26  1  0  0  0  0
 29 28  1  0  0  0  0
 29 30  1  0  0  0  0
 31 29  2  0  0  0  0
 32 31  1  0  0  0  0
 33 34  2  0  0  0  0
 33 31  1  0  0  0  0
 34 35  1  0  0  0  0
 35 28  2  0  0  0  0
M  END
>  <minimizedAffinity>
-5.03962421

$$$$
