
 OpenBabel03262522043D

 38 41  0  0  1  0  0  0  0  0999 V2000
   37.3700   23.0560   31.3320 C   0  0  2  0  0  0  0  0  0  0  0  0
   37.3170   24.4850   30.9040 C   0  0  0  0  0  0  0  0  0  0  0  0
   37.9930   25.3030   31.9000 N   0  0  0  0  0  0  0  0  0  0  0  0
   38.8570   26.2240   32.5760 C   0  0  0  0  0  0  0  0  0  0  0  0
   39.6620   27.1240   32.2580 O   0  0  0  0  0  0  0  0  0  0  0  0
   38.4850   25.7550   33.9090 C   0  0  1  0  0  0  0  0  0  0  0  0
   37.3910   25.0230   33.1780 C   0  0  2  0  0  0  0  0  0  0  0  0
   37.5540   23.2080   33.1530 S   0  0  0  0  0  0  0  0  0  0  0  0
   36.2830   24.8260   30.8010 H   0  0  0  0  0  0  0  0  0  0  0  0
   37.8420   24.6340   29.9380 H   0  0  0  0  0  0  0  0  0  0  0  0
   37.9850   26.4620   34.6180 H   0  0  0  0  0  0  0  0  0  0  0  0
   36.3610   25.3830   33.3150 H   0  0  0  0  0  0  0  0  0  0  0  0
   38.4310   22.2210   30.6990 C   0  0  0  0  0  0  0  0  0  0  0  0
   39.1700   21.8640   31.4510 H   0  0  0  0  0  0  0  0  0  0  0  0
   38.0760   21.3640   30.1140 H   0  0  0  0  0  0  0  0  0  0  0  0
   39.0250   22.9160   30.0370 H   0  0  0  0  0  0  0  0  0  0  0  0
   35.9730   22.4470   31.1410 C   0  0  0  0  0  0  0  0  0  0  0  0
   35.6690   22.7050   30.1110 H   0  0  0  0  0  0  0  0  0  0  0  0
   35.3050   23.0010   31.8320 H   0  0  0  0  0  0  0  0  0  0  0  0
   35.9320   21.0050   31.4190 C   0  0  0  0  0  0  0  0  0  0  0  0
   35.5020   20.5500   32.6490 C   0  0  0  0  0  0  0  0  0  0  0  0
   35.2010   21.3140   33.3830 H   0  0  0  0  0  0  0  0  0  0  0  0
   35.4020   19.2330   33.0720 C   0  0  0  0  0  0  0  0  0  0  0  0
   35.0460   19.0190   34.0710 H   0  0  0  0  0  0  0  0  0  0  0  0
   35.7920   18.2930   32.1120 C   0  0  0  0  0  3  0  0  0  0  0  0
   36.2280   18.7210   30.8690 C   0  0  0  0  0  3  0  0  0  0  0  0
   36.2850   20.0280   30.5620 N   0  0  0  0  0  0  0  0  0  0  0  0
   39.4960   24.9190   34.5980 C   0  0  0  0  0  0  0  0  0  0  0  0
   40.5680   24.7630   33.9460 O   0  0  0  0  0  0  0  0  0  0  0  0
   39.2720   24.3430   35.8990 C   0  0  0  0  0  0  0  0  0  0  0  0
   40.1370   23.3400   36.3100 C   0  0  0  0  0  0  0  0  0  0  0  0
   39.9220   22.7690   37.5870 C   0  0  0  0  0  0  0  0  0  0  0  0
   38.8810   23.2390   38.3310 N   0  0  0  0  0  0  0  0  0  0  0  0
   38.0720   24.2020   37.9000 C   0  0  0  0  0  0  0  0  0  0  0  0
   38.2640   24.7580   36.6840 N   0  0  0  0  0  0  0  0  0  0  0  0
   40.9700   22.9560   35.7290 H   0  0  0  0  0  0  0  0  0  0  0  0
   40.6050   21.9870   37.8960 H   0  0  0  0  0  0  0  0  0  0  0  0
   37.2640   24.5390   38.5250 H   0  0  0  0  0  0  0  0  0  0  0  0
  1 13  1  6  0  0  0
  1  8  1  0  0  0  0
  2  1  1  0  0  0  0
  2  3  1  0  0  0  0
  3  4  1  0  0  0  0
  3  7  1  0  0  0  0
  4  6  1  0  0  0  0
  5  4  2  0  0  0  0
  6 28  1  0  0  0  0
  6 11  1  1  0  0  0
  7 12  1  1  0  0  0
  7  6  1  0  0  0  0
  8  7  1  0  0  0  0
  9  2  1  0  0  0  0
 10  2  1  0  0  0  0
 13 14  1  0  0  0  0
 15 13  1  0  0  0  0
 16 13  1  0  0  0  0
 17  1  1  0  0  0  0
 17 20  1  0  0  0  0
 17 19  1  0  0  0  0
 18 17  1  0  0  0  0
 20 21  1  0  0  0  0
 21 23  2  0  0  0  0
 21 22  1  0  0  0  0
 23 24  1  0  0  0  0
 25 23  1  0  0  0  0
 26 25  2  0  0  0  0
 27 26  1  0  0  0  0
 27 20  2  0  0  0  0
 28 30  1  0  0  0  0
 29 28  2  0  0  0  0
 30 31  2  0  0  0  0
 30 35  1  0  0  0  0
 31 32  1  0  0  0  0
 32 37  1  0  0  0  0
 32 33  2  0  0  0  0
 34 33  1  0  0  0  0
 34 38  1  0  0  0  0
 35 34  2  0  0  0  0
 36 31  1  0  0  0  0
M  END
>  <minimizedAffinity>
-5.4803195

$$$$

 OpenBabel03262522043D

 38 41  0  0  1  0  0  0  0  0999 V2000
   37.1910   24.7480   31.4800 C   0  0  2  0  0  0  0  0  0  0  0  0
   37.7870   23.6260   30.6980 C   0  0  0  0  0  0  0  0  0  0  0  0
   38.0990   22.5310   31.6040 N   0  0  0  0  0  0  0  0  0  0  0  0
   38.1900   21.2550   32.2500 C   0  0  0  0  0  0  0  0  0  0  0  0
   37.9110   20.0690   31.9770 O   0  0  0  0  0  0  0  0  0  0  0  0
   38.7750   21.8010   33.4740 C   0  0  1  0  0  0  0  0  0  0  0  0
   38.9320   23.0550   32.6560 C   0  0  2  0  0  0  0  0  0  0  0  0
   37.8720   24.4490   33.1600 S   0  0  0  0  0  0  0  0  0  0  0  0
   38.7020   23.9430   30.1910 H   0  0  0  0  0  0  0  0  0  0  0  0
   37.0730   23.2400   29.9420 H   0  0  0  0  0  0  0  0  0  0  0  0
   39.8040   21.4820   33.7780 H   0  0  0  0  0  0  0  0  0  0  0  0
   39.9510   23.3460   32.3630 H   0  0  0  0  0  0  0  0  0  0  0  0
   35.7040   24.8490   31.4550 C   0  0  0  0  0  0  0  0  0  0  0  0
   35.2680   24.6890   32.4670 H   0  0  0  0  0  0  0  0  0  0  0  0
   35.2970   25.7760   31.0350 H   0  0  0  0  0  0  0  0  0  0  0  0
   35.3390   23.9650   30.8550 H   0  0  0  0  0  0  0  0  0  0  0  0
   37.8610   26.0550   31.0270 C   0  0  0  0  0  0  0  0  0  0  0  0
   37.9390   25.9890   29.9270 H   0  0  0  0  0  0  0  0  0  0  0  0
   38.8910   26.0240   31.4360 H   0  0  0  0  0  0  0  0  0  0  0  0
   37.1520   27.2550   31.4930 C   0  0  0  0  0  0  0  0  0  0  0  0
   36.6960   28.1860   30.5830 C   0  0  0  0  0  0  0  0  0  0  0  0
   36.8920   27.9770   29.5190 H   0  0  0  0  0  0  0  0  0  0  0  0
   36.0130   29.3640   30.8510 C   0  0  0  0  0  0  0  0  0  0  0  0
   35.7130   30.0050   30.0340 H   0  0  0  0  0  0  0  0  0  0  0  0
   35.7830   29.5920   32.2120 C   0  0  0  0  0  3  0  0  0  0  0  0
   36.2300   28.6750   33.1490 C   0  0  0  0  0  3  0  0  0  0  0  0
   36.8830   27.5610   32.7770 N   0  0  0  0  0  0  0  0  0  0  0  0
   37.8630   21.8790   34.6390 C   0  0  0  0  0  0  0  0  0  0  0  0
   36.6870   21.4820   34.4020 O   0  0  0  0  0  0  0  0  0  0  0  0
   38.2880   22.3630   35.9280 C   0  0  0  0  0  0  0  0  0  0  0  0
   39.6240   22.2040   36.2600 C   0  0  0  0  0  0  0  0  0  0  0  0
   40.0480   22.6780   37.5250 C   0  0  0  0  0  0  0  0  0  0  0  0
   39.1180   23.2570   38.3350 N   0  0  0  0  0  0  0  0  0  0  0  0
   37.8440   23.3900   37.9800 C   0  0  0  0  0  0  0  0  0  0  0  0
   37.4230   22.9450   36.7760 N   0  0  0  0  0  0  0  0  0  0  0  0
   40.3770   21.7460   35.6250 H   0  0  0  0  0  0  0  0  0  0  0  0
   41.0950   22.5480   37.7710 H   0  0  0  0  0  0  0  0  0  0  0  0
   37.1470   23.8550   38.6550 H   0  0  0  0  0  0  0  0  0  0  0  0
  1 17  1  6  0  0  0
  1  8  1  0  0  0  0
  2  1  1  0  0  0  0
  2  3  1  0  0  0  0
  3  4  1  0  0  0  0
  3  7  1  0  0  0  0
  4  6  1  0  0  0  0
  5  4  2  0  0  0  0
  6 11  1  1  0  0  0
  6 28  1  0  0  0  0
  7 12  1  6  0  0  0
  7  8  1  0  0  0  0
  7  6  1  0  0  0  0
  9  2  1  0  0  0  0
 10  2  1  0  0  0  0
 13  1  1  0  0  0  0
 13 14  1  0  0  0  0
 15 13  1  0  0  0  0
 16 13  1  0  0  0  0
 17 19  1  0  0  0  0
 17 20  1  0  0  0  0
 18 17  1  0  0  0  0
 20 27  1  0  0  0  0
 21 23  1  0  0  0  0
 21 20  2  0  0  0  0
 22 21  1  0  0  0  0
 23 25  2  0  0  0  0
 24 23  1  0  0  0  0
 25 26  1  0  0  0  0
 27 26  2  0  0  0  0
 28 30  1  0  0  0  0
 29 28  2  0  0  0  0
 30 31  2  0  0  0  0
 30 35  1  0  0  0  0
 31 32  1  0  0  0  0
 32 37  1  0  0  0  0
 32 33  2  0  0  0  0
 34 33  1  0  0  0  0
 34 38  1  0  0  0  0
 35 34  2  0  0  0  0
 36 31  1  0  0  0  0
M  END
>  <minimizedAffinity>
-5.3822403

$$$$

 OpenBabel03262522043D

 38 41  0  0  1  0  0  0  0  0999 V2000
   37.7610   26.2520   31.4170 C   0  0  2  0  0  0  0  0  0  0  0  0
   38.6710   27.4230   31.5830 C   0  0  0  0  0  0  0  0  0  0  0  0
   39.5020   27.2120   32.7590 N   0  0  0  0  0  0  0  0  0  0  0  0
   40.6020   27.0660   33.6660 C   0  0  0  0  0  0  0  0  0  0  0  0
   41.8310   27.2910   33.6570 O   0  0  0  0  0  0  0  0  0  0  0  0
   39.7790   26.5100   34.7380 C   0  0  1  0  0  0  0  0  0  0  0  0
   38.6280   26.9520   33.8740 C   0  0  2  0  0  0  0  0  0  0  0  0
   37.6520   25.6030   33.1320 S   0  0  0  0  0  0  0  0  0  0  0  0
   38.1020   28.3480   31.7080 H   0  0  0  0  0  0  0  0  0  0  0  0
   39.3480   27.5320   30.7120 H   0  0  0  0  0  0  0  0  0  0  0  0
   39.6900   27.0670   35.7050 H   0  0  0  0  0  0  0  0  0  0  0  0
   38.0280   27.8040   34.2250 H   0  0  0  0  0  0  0  0  0  0  0  0
   38.1890   25.2260   30.4230 C   0  0  0  0  0  0  0  0  0  0  0  0
   38.3990   24.2480   30.9130 H   0  0  0  0  0  0  0  0  0  0  0  0
   37.5030   25.0620   29.5830 H   0  0  0  0  0  0  0  0  0  0  0  0
   39.1950   25.5620   30.0360 H   0  0  0  0  0  0  0  0  0  0  0  0
   36.3500   26.7810   31.1210 C   0  0  0  0  0  0  0  0  0  0  0  0
   35.6790   26.2700   31.8340 H   0  0  0  0  0  0  0  0  0  0  0  0
   36.0960   26.4130   30.1050 H   0  0  0  0  0  0  0  0  0  0  0  0
   36.2620   28.2470   31.1810 C   0  0  0  0  0  0  0  0  0  0  0  0
   35.8500   28.8680   32.3420 C   0  0  0  0  0  0  0  0  0  0  0  0
   35.6000   28.2140   33.1920 H   0  0  0  0  0  0  0  0  0  0  0  0
   35.7130   30.2300   32.5660 C   0  0  0  0  0  0  0  0  0  0  0  0
   35.3780   30.5810   33.5330 H   0  0  0  0  0  0  0  0  0  0  0  0
   36.0410   31.0260   31.4640 C   0  0  0  0  0  3  0  0  0  0  0  0
   36.4580   30.4300   30.2850 C   0  0  0  0  0  3  0  0  0  0  0  0
   36.5560   29.0940   30.1760 N   0  0  0  0  0  0  0  0  0  0  0  0
   39.9190   25.0520   34.9610 C   0  0  0  0  0  0  0  0  0  0  0  0
   40.5010   24.4400   34.0210 O   0  0  0  0  0  0  0  0  0  0  0  0
   39.4360   24.3970   36.1500 C   0  0  0  0  0  0  0  0  0  0  0  0
   40.1700   23.3230   36.6300 C   0  0  0  0  0  0  0  0  0  0  0  0
   39.7000   22.6760   37.7980 C   0  0  0  0  0  0  0  0  0  0  0  0
   38.5590   23.1470   38.3750 N   0  0  0  0  0  0  0  0  0  0  0  0
   37.8820   24.1810   37.8830 C   0  0  0  0  0  0  0  0  0  0  0  0
   38.3180   24.8100   36.7700 N   0  0  0  0  0  0  0  0  0  0  0  0
   41.0800   22.9370   36.1810 H   0  0  0  0  0  0  0  0  0  0  0  0
   40.2830   21.8380   38.1620 H   0  0  0  0  0  0  0  0  0  0  0  0
   36.9870   24.5150   38.3760 H   0  0  0  0  0  0  0  0  0  0  0  0
  1 13  1  6  0  0  0
  1  2  1  0  0  0  0
  1  8  1  0  0  0  0
  2  9  1  0  0  0  0
  2  3  1  0  0  0  0
  3  4  1  0  0  0  0
  3  7  1  0  0  0  0
  4  6  1  0  0  0  0
  5  4  2  0  0  0  0
  6 28  1  0  0  0  0
  6 11  1  1  0  0  0
  7 12  1  1  0  0  0
  7  6  1  0  0  0  0
  8  7  1  0  0  0  0
 10  2  1  0  0  0  0
 13 14  1  0  0  0  0
 15 13  1  0  0  0  0
 16 13  1  0  0  0  0
 17 20  1  0  0  0  0
 17  1  1  0  0  0  0
 17 18  1  0  0  0  0
 19 17  1  0  0  0  0
 20 21  1  0  0  0  0
 21 23  2  0  0  0  0
 21 22  1  0  0  0  0
 23 24  1  0  0  0  0
 25 23  1  0  0  0  0
 26 25  2  0  0  0  0
 27 26  1  0  0  0  0
 27 20  2  0  0  0  0
 28 30  1  0  0  0  0
 29 28  2  0  0  0  0
 30 31  2  0  0  0  0
 30 35  1  0  0  0  0
 31 32  1  0  0  0  0
 32 37  1  0  0  0  0
 32 33  2  0  0  0  0
 34 33  1  0  0  0  0
 34 38  1  0  0  0  0
 35 34  2  0  0  0  0
 36 31  1  0  0  0  0
M  END
>  <minimizedAffinity>
-5.17505884

$$$$

 OpenBabel03262522043D

 38 41  0  0  1  0  0  0  0  0999 V2000
   38.3530   25.8960   34.3190 C   0  0  2  0  0  0  0  0  0  0  0  0
   37.1560   26.5450   33.7070 C   0  0  0  0  0  0  0  0  0  0  0  0
   36.7430   25.7740   32.5430 N   0  0  0  0  0  0  0  0  0  0  0  0
   36.0020   25.0120   31.5820 C   0  0  0  0  0  0  0  0  0  0  0  0
   34.8050   24.7270   31.3680 O   0  0  0  0  0  0  0  0  0  0  0  0
   37.1900   24.6120   30.8310 C   0  0  1  0  0  0  0  0  0  0  0  0
   37.8830   25.6480   31.6730 C   0  0  2  0  0  0  0  0  0  0  0  0
   39.0710   24.9910   32.8900 S   0  0  0  0  0  0  0  0  0  0  0  0
   37.3790   27.5690   33.3980 H   0  0  0  0  0  0  0  0  0  0  0  0
   36.3030   26.5610   34.4160 H   0  0  0  0  0  0  0  0  0  0  0  0
   37.2980   24.9350   29.7640 H   0  0  0  0  0  0  0  0  0  0  0  0
   38.2120   26.5710   31.1740 H   0  0  0  0  0  0  0  0  0  0  0  0
   38.0940   25.0250   35.5000 C   0  0  0  0  0  0  0  0  0  0  0  0
   38.3570   23.9640   35.2880 H   0  0  0  0  0  0  0  0  0  0  0  0
   38.5820   25.3310   36.4340 H   0  0  0  0  0  0  0  0  0  0  0  0
   36.9740   25.0090   35.6410 H   0  0  0  0  0  0  0  0  0  0  0  0
   39.3830   26.9920   34.6310 C   0  0  0  0  0  0  0  0  0  0  0  0
   39.1230   27.3750   35.6340 H   0  0  0  0  0  0  0  0  0  0  0  0
   39.1860   27.8070   33.9040 H   0  0  0  0  0  0  0  0  0  0  0  0
   40.7710   26.5230   34.5240 C   0  0  0  0  0  0  0  0  0  0  0  0
   41.6760   27.2100   33.7420 C   0  0  0  0  0  0  0  0  0  0  0  0
   41.3010   28.1050   33.2200 H   0  0  0  0  0  0  0  0  0  0  0  0
   43.0130   26.9050   33.5340 C   0  0  0  0  0  0  0  0  0  0  0  0
   43.6110   27.5360   32.8910 H   0  0  0  0  0  0  0  0  0  0  0  0
   43.4510   25.7630   34.2140 C   0  0  0  0  0  3  0  0  0  0  0  0
   42.5640   25.0530   35.0060 C   0  0  0  0  0  3  0  0  0  0  0  0
   41.2840   25.4390   35.1390 N   0  0  0  0  0  0  0  0  0  0  0  0
   37.6220   23.2070   31.0180 C   0  0  0  0  0  0  0  0  0  0  0  0
   38.7070   22.9190   30.4380 O   0  0  0  0  0  0  0  0  0  0  0  0
   36.8680   22.2590   31.7980 C   0  0  0  0  0  0  0  0  0  0  0  0
   35.9100   21.5070   31.1360 C   0  0  0  0  0  0  0  0  0  0  0  0
   35.1660   20.5730   31.8970 C   0  0  0  0  0  0  0  0  0  0  0  0
   35.4360   20.4750   33.2290 N   0  0  0  0  0  0  0  0  0  0  0  0
   36.3620   21.2170   33.8280 C   0  0  0  0  0  0  0  0  0  0  0  0
   37.0820   22.1110   33.1160 N   0  0  0  0  0  0  0  0  0  0  0  0
   35.6850   21.5740   30.0760 H   0  0  0  0  0  0  0  0  0  0  0  0
   34.4210   19.9920   31.3670 H   0  0  0  0  0  0  0  0  0  0  0  0
   36.5380   21.1010   34.8830 H   0  0  0  0  0  0  0  0  0  0  0  0
  1 17  1  1  0  0  0
  1 13  1  0  0  0  0
  2  1  1  0  0  0  0
  2 10  1  0  0  0  0
  3  2  1  0  0  0  0
  4  3  1  0  0  0  0
  5  4  2  0  0  0  0
  6 11  1  6  0  0  0
  6 28  1  0  0  0  0
  6  4  1  0  0  0  0
  6  7  1  0  0  0  0
  7 12  1  6  0  0  0
  7  3  1  0  0  0  0
  7  8  1  0  0  0  0
  8  1  1  0  0  0  0
  9  2  1  0  0  0  0
 13 16  1  0  0  0  0
 13 15  1  0  0  0  0
 14 13  1  0  0  0  0
 17 18  1  0  0  0  0
 19 17  1  0  0  0  0
 20 17  1  0  0  0  0
 20 27  1  0  0  0  0
 21 20  2  0  0  0  0
 22 21  1  0  0  0  0
 23 21  1  0  0  0  0
 23 25  2  0  0  0  0
 24 23  1  0  0  0  0
 25 26  1  0  0  0  0
 26 27  2  0  0  0  0
 28 30  1  0  0  0  0
 29 28  2  0  0  0  0
 30 35  1  0  0  0  0
 31 30  2  0  0  0  0
 31 32  1  0  0  0  0
 32 33  2  0  0  0  0
 33 34  1  0  0  0  0
 34 38  1  0  0  0  0
 35 34  2  0  0  0  0
 36 31  1  0  0  0  0
 37 32  1  0  0  0  0
M  END
>  <minimizedAffinity>
-5.1602397

$$$$

 OpenBabel03262522043D

 38 41  0  0  1  0  0  0  0  0999 V2000
   36.7190   27.8360   32.4450 C   0  0  2  0  0  0  0  0  0  0  0  0
   38.0340   27.8190   31.7390 C   0  0  0  0  0  0  0  0  0  0  0  0
   38.8620   26.7660   32.3080 N   0  0  0  0  0  0  0  0  0  0  0  0
   39.6980   25.6180   32.5020 C   0  0  0  0  0  0  0  0  0  0  0  0
   40.3510   24.8300   31.7870 O   0  0  0  0  0  0  0  0  0  0  0  0
   39.5490   25.6280   33.9570 C   0  0  1  0  0  0  0  0  0  0  0  0
   38.9330   26.9830   33.7290 C   0  0  2  0  0  0  0  0  0  0  0  0
   37.1460   27.0890   34.0680 S   0  0  0  0  0  0  0  0  0  0  0  0
   38.5500   28.7770   31.8450 H   0  0  0  0  0  0  0  0  0  0  0  0
   37.9070   27.5970   30.6600 H   0  0  0  0  0  0  0  0  0  0  0  0
   40.4530   25.7870   34.5980 H   0  0  0  0  0  0  0  0  0  0  0  0
   39.5080   27.8630   34.0540 H   0  0  0  0  0  0  0  0  0  0  0  0
   35.5950   27.1450   31.7540 C   0  0  0  0  0  0  0  0  0  0  0  0
   35.2340   26.2690   32.3400 H   0  0  0  0  0  0  0  0  0  0  0  0
   34.7360   27.7760   31.4930 H   0  0  0  0  0  0  0  0  0  0  0  0
   36.0320   26.6890   30.8180 H   0  0  0  0  0  0  0  0  0  0  0  0
   36.3750   29.2960   32.7780 C   0  0  0  0  0  0  0  0  0  0  0  0
   36.7060   29.8910   31.9080 H   0  0  0  0  0  0  0  0  0  0  0  0
   37.0240   29.5720   33.6340 H   0  0  0  0  0  0  0  0  0  0  0  0
   34.9580   29.4900   33.1150 C   0  0  0  0  0  0  0  0  0  0  0  0
   34.5360   29.3740   34.4230 C   0  0  0  0  0  0  0  0  0  0  0  0
   35.3060   29.1350   35.1730 H   0  0  0  0  0  0  0  0  0  0  0  0
   33.2450   29.5240   34.9080 C   0  0  0  0  0  0  0  0  0  0  0  0
   33.0550   29.4050   35.9670 H   0  0  0  0  0  0  0  0  0  0  0  0
   32.2970   29.8280   33.9250 C   0  0  0  0  0  3  0  0  0  0  0  0
   32.6920   29.9510   32.6040 C   0  0  0  0  0  3  0  0  0  0  0  0
   33.9760   29.7840   32.2410 N   0  0  0  0  0  0  0  0  0  0  0  0
   38.6630   24.5820   34.5170 C   0  0  0  0  0  0  0  0  0  0  0  0
   37.8160   24.1300   33.6950 O   0  0  0  0  0  0  0  0  0  0  0  0
   38.7660   24.1220   35.8780 C   0  0  0  0  0  0  0  0  0  0  0  0
   37.8350   24.6020   36.7860 C   0  0  0  0  0  0  0  0  0  0  0  0
   37.9310   24.1540   38.1260 C   0  0  0  0  0  0  0  0  0  0  0  0
   38.9320   23.2830   38.4380 N   0  0  0  0  0  0  0  0  0  0  0  0
   39.8080   22.8480   37.5380 C   0  0  0  0  0  0  0  0  0  0  0  0
   39.7290   23.2640   36.2550 N   0  0  0  0  0  0  0  0  0  0  0  0
   37.0320   25.2940   36.5520 H   0  0  0  0  0  0  0  0  0  0  0  0
   37.1960   24.5360   38.8240 H   0  0  0  0  0  0  0  0  0  0  0  0
   40.5810   22.1600   37.8340 H   0  0  0  0  0  0  0  0  0  0  0  0
  1 13  1  6  0  0  0
  1 17  1  0  0  0  0
  1  8  1  0  0  0  0
  2  9  1  0  0  0  0
  2  3  1  0  0  0  0
  2  1  1  0  0  0  0
  3  4  1  0  0  0  0
  3  7  1  0  0  0  0
  4  6  1  0  0  0  0
  5  4  2  0  0  0  0
  6 28  1  0  0  0  0
  6 11  1  1  0  0  0
  7  6  1  0  0  0  0
  7 12  1  1  0  0  0
  7  8  1  0  0  0  0
 10  2  1  0  0  0  0
 13 14  1  0  0  0  0
 15 13  1  0  0  0  0
 16 13  1  0  0  0  0
 17 20  1  0  0  0  0
 17 19  1  0  0  0  0
 18 17  1  0  0  0  0
 20 21  1  0  0  0  0
 21 23  2  0  0  0  0
 21 22  1  0  0  0  0
 23 24  1  0  0  0  0
 25 23  1  0  0  0  0
 26 25  2  0  0  0  0
 27 26  1  0  0  0  0
 27 20  2  0  0  0  0
 28 30  1  0  0  0  0
 29 28  2  0  0  0  0
 30 35  2  0  0  0  0
 30 31  1  0  0  0  0
 31 32  2  0  0  0  0
 32 33  1  0  0  0  0
 32 37  1  0  0  0  0
 34 38  1  0  0  0  0
 34 33  2  0  0  0  0
 35 34  1  0  0  0  0
 36 31  1  0  0  0  0
M  END
>  <minimizedAffinity>
-5.12470293

$$$$

 OpenBabel03262522043D

 38 41  0  0  1  0  0  0  0  0999 V2000
   37.1050   23.8220   31.7360 C   0  0  2  0  0  0  0  0  0  0  0  0
   36.9270   25.2230   32.2170 C   0  0  0  0  0  0  0  0  0  0  0  0
   37.9720   25.5290   33.1820 N   0  0  0  0  0  0  0  0  0  0  0  0
   39.0640   26.1230   33.8960 C   0  0  0  0  0  0  0  0  0  0  0  0
   39.6990   27.1980   33.8660 O   0  0  0  0  0  0  0  0  0  0  0  0
   39.2480   24.9720   34.7780 C   0  0  1  0  0  0  0  0  0  0  0  0
   37.9310   24.5190   34.2080 C   0  0  2  0  0  0  0  0  0  0  0  0
   38.0140   23.0500   33.1340 S   0  0  0  0  0  0  0  0  0  0  0  0
   35.9510   25.3550   32.6920 H   0  0  0  0  0  0  0  0  0  0  0  0
   37.0210   25.9480   31.3830 H   0  0  0  0  0  0  0  0  0  0  0  0
   39.0990   25.0980   35.8800 H   0  0  0  0  0  0  0  0  0  0  0  0
   37.0550   24.5440   34.8730 H   0  0  0  0  0  0  0  0  0  0  0  0
   37.7930   23.6620   30.4240 C   0  0  0  0  0  0  0  0  0  0  0  0
   38.7620   23.1240   30.5360 H   0  0  0  0  0  0  0  0  0  0  0  0
   37.2070   23.1750   29.6350 H   0  0  0  0  0  0  0  0  0  0  0  0
   38.0910   24.6990   30.0950 H   0  0  0  0  0  0  0  0  0  0  0  0
   35.7310   23.1340   31.7500 C   0  0  0  0  0  0  0  0  0  0  0  0
   35.1900   23.5230   30.8700 H   0  0  0  0  0  0  0  0  0  0  0  0
   35.2120   23.5140   32.6530 H   0  0  0  0  0  0  0  0  0  0  0  0
   35.8240   21.6680   31.7800 C   0  0  0  0  0  0  0  0  0  0  0  0
   35.3980   20.9700   32.8910 C   0  0  0  0  0  0  0  0  0  0  0  0
   34.9960   21.5650   33.7270 H   0  0  0  0  0  0  0  0  0  0  0  0
   35.4150   19.5960   33.0820 C   0  0  0  0  0  0  0  0  0  0  0  0
   35.0460   19.1810   34.0110 H   0  0  0  0  0  0  0  0  0  0  0  0
   35.9310   18.8760   32.0000 C   0  0  0  0  0  3  0  0  0  0  0  0
   36.3660   19.5490   30.8700 C   0  0  0  0  0  3  0  0  0  0  0  0
   36.3030   20.8890   30.7900 N   0  0  0  0  0  0  0  0  0  0  0  0
   40.4260   24.1220   34.4830 C   0  0  0  0  0  0  0  0  0  0  0  0
   40.9820   24.3780   33.3770 O   0  0  0  0  0  0  0  0  0  0  0  0
   40.8920   23.0990   35.3840 C   0  0  0  0  0  0  0  0  0  0  0  0
   40.3060   23.0400   36.6390 C   0  0  0  0  0  0  0  0  0  0  0  0
   40.7600   22.0370   37.5290 C   0  0  0  0  0  0  0  0  0  0  0  0
   41.7420   21.1960   37.0980 N   0  0  0  0  0  0  0  0  0  0  0  0
   42.2800   21.2870   35.8850 C   0  0  0  0  0  0  0  0  0  0  0  0
   41.8570   22.2370   35.0240 N   0  0  0  0  0  0  0  0  0  0  0  0
   39.5230   23.7020   36.9960 H   0  0  0  0  0  0  0  0  0  0  0  0
   40.2920   22.0010   38.5060 H   0  0  0  0  0  0  0  0  0  0  0  0
   43.0530   20.5990   35.5920 H   0  0  0  0  0  0  0  0  0  0  0  0
  1 13  1  6  0  0  0
  1 17  1  0  0  0  0
  1  2  1  0  0  0  0
  1  8  1  0  0  0  0
  2  9  1  0  0  0  0
  2  3  1  0  0  0  0
  3  4  1  0  0  0  0
  3  7  1  0  0  0  0
  4  6  1  0  0  0  0
  5  4  2  0  0  0  0
  6 11  1  1  0  0  0
  7  6  1  0  0  0  0
  7 12  1  1  0  0  0
  8  7  1  0  0  0  0
 10  2  1  0  0  0  0
 13 14  1  0  0  0  0
 15 13  1  0  0  0  0
 16 13  1  0  0  0  0
 17 20  1  0  0  0  0
 17 19  1  0  0  0  0
 18 17  1  0  0  0  0
 20 21  1  0  0  0  0
 21 23  2  0  0  0  0
 21 22  1  0  0  0  0
 23 24  1  0  0  0  0
 25 23  1  0  0  0  0
 26 25  2  0  0  0  0
 27 26  1  0  0  0  0
 27 20  2  0  0  0  0
 28  6  1  0  0  0  0
 28 30  1  0  0  0  0
 29 28  2  0  0  0  0
 30 31  1  0  0  0  0
 31 36  1  0  0  0  0
 31 32  2  0  0  0  0
 32 37  1  0  0  0  0
 33 32  1  0  0  0  0
 34 33  2  0  0  0  0
 35 30  2  0  0  0  0
 35 34  1  0  0  0  0
 38 34  1  0  0  0  0
M  END
>  <minimizedAffinity>
-5.1209178

$$$$

 OpenBabel03262522043D

 38 41  0  0  1  0  0  0  0  0999 V2000
   38.7620   25.8790   33.3170 C   0  0  2  0  0  0  0  0  0  0  0  0
   39.7050   25.7780   32.1650 C   0  0  0  0  0  0  0  0  0  0  0  0
   39.2930   24.6730   31.3120 N   0  0  0  0  0  0  0  0  0  0  0  0
   38.8920   23.8580   30.2040 C   0  0  0  0  0  0  0  0  0  0  0  0
   38.8460   23.9640   28.9600 O   0  0  0  0  0  0  0  0  0  0  0  0
   38.5010   22.7280   31.0440 C   0  0  1  0  0  0  0  0  0  0  0  0
   39.2000   23.4950   32.1340 C   0  0  2  0  0  0  0  0  0  0  0  0
   38.1120   24.1650   33.4330 S   0  0  0  0  0  0  0  0  0  0  0  0
   40.7280   25.6030   32.5090 H   0  0  0  0  0  0  0  0  0  0  0  0
   39.6870   26.7000   31.5490 H   0  0  0  0  0  0  0  0  0  0  0  0
   39.0410   21.7530   30.9350 H   0  0  0  0  0  0  0  0  0  0  0  0
   40.1530   23.0920   32.5070 H   0  0  0  0  0  0  0  0  0  0  0  0
   37.6920   26.9100   33.1990 C   0  0  0  0  0  0  0  0  0  0  0  0
   36.6810   26.4450   33.1690 H   0  0  0  0  0  0  0  0  0  0  0  0
   37.6990   27.6950   33.9660 H   0  0  0  0  0  0  0  0  0  0  0  0
   37.8120   27.3740   32.1770 H   0  0  0  0  0  0  0  0  0  0  0  0
   39.5900   26.0590   34.5980 C   0  0  0  0  0  0  0  0  0  0  0  0
   39.4290   27.1030   34.9190 H   0  0  0  0  0  0  0  0  0  0  0  0
   40.6510   25.9670   34.2880 H   0  0  0  0  0  0  0  0  0  0  0  0
   39.2640   25.0710   35.6360 C   0  0  0  0  0  0  0  0  0  0  0  0
   38.1920   25.2800   36.4780 C   0  0  0  0  0  0  0  0  0  0  0  0
   37.6150   26.2060   36.3260 H   0  0  0  0  0  0  0  0  0  0  0  0
   37.7500   24.4550   37.5020 C   0  0  0  0  0  0  0  0  0  0  0  0
   36.8880   24.7450   38.0870 H   0  0  0  0  0  0  0  0  0  0  0  0
   38.5070   23.2890   37.6620 C   0  0  0  0  0  3  0  0  0  0  0  0
   39.5890   23.0520   36.8310 C   0  0  0  0  0  3  0  0  0  0  0  0
   39.9310   23.9230   35.8660 N   0  0  0  0  0  0  0  0  0  0  0  0
   37.0420   22.5260   31.2060 C   0  0  0  0  0  0  0  0  0  0  0  0
   36.3400   23.5070   30.8290 O   0  0  0  0  0  0  0  0  0  0  0  0
   36.4800   21.3130   31.7430 C   0  0  0  0  0  0  0  0  0  0  0  0
   36.4490   20.2030   30.9140 C   0  0  0  0  0  0  0  0  0  0  0  0
   35.8970   19.0080   31.4360 C   0  0  0  0  0  0  0  0  0  0  0  0
   35.4320   19.0240   32.7170 N   0  0  0  0  0  0  0  0  0  0  0  0
   35.4790   20.1120   33.4810 C   0  0  0  0  0  0  0  0  0  0  0  0
   36.0030   21.2590   32.9980 N   0  0  0  0  0  0  0  0  0  0  0  0
   36.8150   20.1740   29.8930 H   0  0  0  0  0  0  0  0  0  0  0  0
   35.8800   18.1480   30.7770 H   0  0  0  0  0  0  0  0  0  0  0  0
   35.0990   20.0740   34.4870 H   0  0  0  0  0  0  0  0  0  0  0  0
  1 13  1  6  0  0  0
  1  8  1  0  0  0  0
  1 17  1  0  0  0  0
  2  9  1  0  0  0  0
  2  1  1  0  0  0  0
  3  7  1  0  0  0  0
  3  2  1  0  0  0  0
  4  6  1  0  0  0  0
  4  3  1  0  0  0  0
  5  4  2  0  0  0  0
  6 11  1  6  0  0  0
  6 28  1  0  0  0  0
  6  7  1  0  0  0  0
  7 12  1  1  0  0  0
  7  8  1  0  0  0  0
 10  2  1  0  0  0  0
 13 15  1  0  0  0  0
 14 13  1  0  0  0  0
 16 13  1  0  0  0  0
 17 18  1  0  0  0  0
 17 20  1  0  0  0  0
 19 17  1  0  0  0  0
 20 27  2  0  0  0  0
 20 21  1  0  0  0  0
 21 23  2  0  0  0  0
 22 21  1  0  0  0  0
 23 25  1  0  0  0  0
 23 24  1  0  0  0  0
 26 25  2  0  0  0  0
 27 26  1  0  0  0  0
 28 30  1  0  0  0  0
 29 28  2  0  0  0  0
 30 35  1  0  0  0  0
 31 32  1  0  0  0  0
 31 30  2  0  0  0  0
 32 33  2  0  0  0  0
 33 34  1  0  0  0  0
 34 38  1  0  0  0  0
 35 34  2  0  0  0  0
 36 31  1  0  0  0  0
 37 32  1  0  0  0  0
M  END
>  <minimizedAffinity>
-5.11856508

$$$$

 OpenBabel03262522043D

 38 41  0  0  1  0  0  0  0  0999 V2000
   38.9680   24.1110   33.7890 C   0  0  2  0  0  0  0  0  0  0  0  0
   39.0800   23.5560   32.4080 C   0  0  0  0  0  0  0  0  0  0  0  0
   38.7340   24.5970   31.4510 N   0  0  0  0  0  0  0  0  0  0  0  0
   38.7360   25.5320   30.3660 C   0  0  0  0  0  0  0  0  0  0  0  0
   39.4160   25.7400   29.3390 O   0  0  0  0  0  0  0  0  0  0  0  0
   37.5750   26.2680   30.8610 C   0  0  1  0  0  0  0  0  0  0  0  0
   37.4340   25.1040   31.8050 C   0  0  2  0  0  0  0  0  0  0  0  0
   37.7660   25.4800   33.5570 S   0  0  0  0  0  0  0  0  0  0  0  0
   38.4070   22.7050   32.2710 H   0  0  0  0  0  0  0  0  0  0  0  0
   40.1180   23.2320   32.1880 H   0  0  0  0  0  0  0  0  0  0  0  0
   36.6420   26.2990   30.2430 H   0  0  0  0  0  0  0  0  0  0  0  0
   36.5890   24.4180   31.6430 H   0  0  0  0  0  0  0  0  0  0  0  0
   40.2440   24.5460   34.4250 C   0  0  0  0  0  0  0  0  0  0  0  0
   40.2490   25.6430   34.6170 H   0  0  0  0  0  0  0  0  0  0  0  0
   40.5180   24.0230   35.3500 H   0  0  0  0  0  0  0  0  0  0  0  0
   41.0500   24.3980   33.6490 H   0  0  0  0  0  0  0  0  0  0  0  0
   38.2170   23.0880   34.6550 C   0  0  0  0  0  0  0  0  0  0  0  0
   38.4560   22.0970   34.2290 H   0  0  0  0  0  0  0  0  0  0  0  0
   37.1380   23.2750   34.4760 H   0  0  0  0  0  0  0  0  0  0  0  0
   38.5350   23.2030   36.0850 C   0  0  0  0  0  0  0  0  0  0  0  0
   37.7460   23.9780   36.9090 C   0  0  0  0  0  0  0  0  0  0  0  0
   36.8890   24.4880   36.4400 H   0  0  0  0  0  0  0  0  0  0  0  0
   37.9050   24.1920   38.2710 C   0  0  0  0  0  0  0  0  0  0  0  0
   37.2050   24.8290   38.7960 H   0  0  0  0  0  0  0  0  0  0  0  0
   39.0020   23.5280   38.8290 C   0  0  0  0  0  3  0  0  0  0  0  0
   39.8120   22.7430   38.0260 C   0  0  0  0  0  3  0  0  0  0  0  0
   39.5660   22.6030   36.7120 N   0  0  0  0  0  0  0  0  0  0  0  0
   37.8650   27.5860   31.4730 C   0  0  0  0  0  0  0  0  0  0  0  0
   39.0890   27.7790   31.7250 O   0  0  0  0  0  0  0  0  0  0  0  0
   36.8390   28.5580   31.7480 C   0  0  0  0  0  0  0  0  0  0  0  0
   36.4720   29.4080   30.7160 C   0  0  0  0  0  0  0  0  0  0  0  0
   35.4640   30.3660   30.9800 C   0  0  0  0  0  0  0  0  0  0  0  0
   34.9200   30.3940   32.2300 N   0  0  0  0  0  0  0  0  0  0  0  0
   35.3010   29.5620   33.1940 C   0  0  0  0  0  0  0  0  0  0  0  0
   36.2600   28.6410   32.9580 N   0  0  0  0  0  0  0  0  0  0  0  0
   36.8960   29.3980   29.7160 H   0  0  0  0  0  0  0  0  0  0  0  0
   35.1870   31.0230   30.1650 H   0  0  0  0  0  0  0  0  0  0  0  0
   34.8400   29.6230   34.1640 H   0  0  0  0  0  0  0  0  0  0  0  0
  1 13  1  1  0  0  0
  1 17  1  0  0  0  0
  2  1  1  0  0  0  0
  3  7  1  0  0  0  0
  3  2  1  0  0  0  0
  4  6  1  0  0  0  0
  4  3  1  0  0  0  0
  5  4  2  0  0  0  0
  6 11  1  6  0  0  0
  6 28  1  0  0  0  0
  6  7  1  0  0  0  0
  7 12  1  6  0  0  0
  7  8  1  0  0  0  0
  8  1  1  0  0  0  0
  9  2  1  0  0  0  0
 10  2  1  0  0  0  0
 13 14  1  0  0  0  0
 13 15  1  0  0  0  0
 16 13  1  0  0  0  0
 17 20  1  0  0  0  0
 18 17  1  0  0  0  0
 19 17  1  0  0  0  0
 20 27  2  0  0  0  0
 20 21  1  0  0  0  0
 21 23  2  0  0  0  0
 22 21  1  0  0  0  0
 23 24  1  0  0  0  0
 23 25  1  0  0  0  0
 26 25  2  0  0  0  0
 27 26  1  0  0  0  0
 28 29  2  0  0  0  0
 28 30  1  0  0  0  0
 30 35  1  0  0  0  0
 31 32  1  0  0  0  0
 31 30  2  0  0  0  0
 32 33  2  0  0  0  0
 33 34  1  0  0  0  0
 34 38  1  0  0  0  0
 35 34  2  0  0  0  0
 36 31  1  0  0  0  0
 37 32  1  0  0  0  0
M  END
>  <minimizedAffinity>
-5.05150747

$$$$

 OpenBabel03262522043D

 38 41  0  0  1  0  0  0  0  0999 V2000
   38.2590   23.6630   32.0010 C   0  0  2  0  0  0  0  0  0  0  0  0
   39.3020   24.5190   31.3630 C   0  0  0  0  0  0  0  0  0  0  0  0
   39.5930   25.6430   32.2410 N   0  0  0  0  0  0  0  0  0  0  0  0
   40.2360   26.6210   33.0670 C   0  0  0  0  0  0  0  0  0  0  0  0
   41.4050   26.9870   33.3100 O   0  0  0  0  0  0  0  0  0  0  0  0
   38.9820   27.1320   33.6170 C   0  0  1  0  0  0  0  0  0  0  0  0
   38.3480   26.3070   32.5290 C   0  0  2  0  0  0  0  0  0  0  0  0
   37.4040   24.8580   33.1040 S   0  0  0  0  0  0  0  0  0  0  0  0
   38.9630   24.8980   30.3960 H   0  0  0  0  0  0  0  0  0  0  0  0
   40.2480   23.9570   31.2170 H   0  0  0  0  0  0  0  0  0  0  0  0
   38.6940   28.1970   33.4260 H   0  0  0  0  0  0  0  0  0  0  0  0
   37.8830   26.8460   31.6900 H   0  0  0  0  0  0  0  0  0  0  0  0
   38.7510   22.4500   32.7130 C   0  0  0  0  0  0  0  0  0  0  0  0
   38.5370   22.5040   33.8040 H   0  0  0  0  0  0  0  0  0  0  0  0
   38.3860   21.4900   32.3270 H   0  0  0  0  0  0  0  0  0  0  0  0
   39.8780   22.4840   32.6510 H   0  0  0  0  0  0  0  0  0  0  0  0
   37.2100   23.3140   30.9330 C   0  0  0  0  0  0  0  0  0  0  0  0
   37.7310   23.3890   29.9620 H   0  0  0  0  0  0  0  0  0  0  0  0
   36.4590   24.1290   30.9710 H   0  0  0  0  0  0  0  0  0  0  0  0
   36.5750   22.0090   31.1580 C   0  0  0  0  0  0  0  0  0  0  0  0
   35.4630   21.9100   31.9690 C   0  0  0  0  0  0  0  0  0  0  0  0
   35.0950   22.8450   32.4210 H   0  0  0  0  0  0  0  0  0  0  0  0
   34.7480   20.7640   32.2840 C   0  0  0  0  0  0  0  0  0  0  0  0
   33.8890   20.8330   32.9380 H   0  0  0  0  0  0  0  0  0  0  0  0
   35.2460   19.5990   31.6900 C   0  0  0  0  0  3  0  0  0  0  0  0
   36.3610   19.6680   30.8710 C   0  0  0  0  0  3  0  0  0  0  0  0
   36.9800   20.8360   30.6320 N   0  0  0  0  0  0  0  0  0  0  0  0
   38.6840   26.7310   35.0120 C   0  0  0  0  0  0  0  0  0  0  0  0
   38.0620   27.6060   35.6790 O   0  0  0  0  0  0  0  0  0  0  0  0
   39.0690   25.4520   35.5520 C   0  0  0  0  0  0  0  0  0  0  0  0
   38.1490   24.7950   36.3550 C   0  0  0  0  0  0  0  0  0  0  0  0
   38.5220   23.5380   36.8890 C   0  0  0  0  0  0  0  0  0  0  0  0
   39.7590   23.0540   36.5820 N   0  0  0  0  0  0  0  0  0  0  0  0
   40.6140   23.7160   35.8090 C   0  0  0  0  0  0  0  0  0  0  0  0
   40.2740   24.9160   35.2910 N   0  0  0  0  0  0  0  0  0  0  0  0
   37.1610   25.1670   36.6070 H   0  0  0  0  0  0  0  0  0  0  0  0
   37.7930   23.0350   37.5130 H   0  0  0  0  0  0  0  0  0  0  0  0
   41.5790   23.2920   35.5960 H   0  0  0  0  0  0  0  0  0  0  0  0
  1 17  1  6  0  0  0
  1 13  1  0  0  0  0
  1  8  1  0  0  0  0
  2  1  1  0  0  0  0
  2  3  1  0  0  0  0
  3  7  1  0  0  0  0
  3  4  1  0  0  0  0
  4  5  2  0  0  0  0
  4  6  1  0  0  0  0
  6 11  1  6  0  0  0
  6 28  1  0  0  0  0
  7 12  1  6  0  0  0
  7  8  1  0  0  0  0
  7  6  1  0  0  0  0
  9  2  1  0  0  0  0
 10  2  1  0  0  0  0
 13 14  1  0  0  0  0
 15 13  1  0  0  0  0
 16 13  1  0  0  0  0
 17 19  1  0  0  0  0
 17 20  1  0  0  0  0
 18 17  1  0  0  0  0
 20 21  1  0  0  0  0
 21 23  2  0  0  0  0
 21 22  1  0  0  0  0
 23 24  1  0  0  0  0
 25 23  1  0  0  0  0
 26 25  2  0  0  0  0
 27 26  1  0  0  0  0
 27 20  2  0  0  0  0
 28 30  1  0  0  0  0
 28 29  2  0  0  0  0
 30 31  1  0  0  0  0
 31 36  1  0  0  0  0
 31 32  2  0  0  0  0
 32 37  1  0  0  0  0
 33 32  1  0  0  0  0
 34 33  2  0  0  0  0
 35 30  2  0  0  0  0
 35 34  1  0  0  0  0
 38 34  1  0  0  0  0
M  END
>  <minimizedAffinity>
-5.01144695

$$$$
