
 OpenBabel03272507283D

 40 42  0  0  1  0  0  0  0  0999 V2000
   34.8910   29.8950   47.4290 C   0  0  0  0  0  0  0  0  0  0  0  0
   35.6710   30.4840   46.4140 C   0  0  0  0  0  0  0  0  0  0  0  0
   35.5700   29.9250   45.1380 C   0  0  0  0  0  0  0  0  0  0  0  0
   34.7520   28.8770   44.9440 N   0  0  0  0  0  0  0  0  0  0  0  0
   34.0210   28.3400   45.9430 C   0  0  0  0  0  0  0  0  0  0  0  0
   34.0920   28.8450   47.1700 N   0  0  0  0  0  0  0  0  0  0  0  0
   36.3110   30.4400   44.0800 N   0  0  0  0  0  0  0  0  0  0  0  0
   36.7090   31.8640   43.9110 C   0  0  0  0  0  0  0  0  0  0  0  0
   37.2320   32.0300   42.5360 C   0  0  0  0  0  0  0  0  0  0  0  0
   36.7600   30.8410   41.8370 C   0  0  0  0  0  0  0  0  0  0  0  0
   36.8560   29.8260   42.9130 C   0  0  2  0  0  0  0  0  0  0  0  0
   35.0500   30.4130   48.3810 H   0  0  0  0  0  0  0  0  0  0  0  0
   36.3310   31.3270   46.5550 H   0  0  0  0  0  0  0  0  0  0  0  0
   33.3600   27.5100   45.8380 H   0  0  0  0  0  0  0  0  0  0  0  0
   35.6550   32.3470   43.9900 H   0  0  0  0  0  0  0  0  0  0  0  0
   37.2150   32.3140   44.7350 H   0  0  0  0  0  0  0  0  0  0  0  0
   36.4950   32.8540   42.0950 H   0  0  0  0  0  0  0  0  0  0  0  0
   38.1410   32.5250   42.3230 H   0  0  0  0  0  0  0  0  0  0  0  0
   35.7600   30.8950   41.3660 H   0  0  0  0  0  0  0  0  0  0  0  0
   37.4590   30.5580   41.0200 H   0  0  0  0  0  0  0  0  0  0  0  0
   36.1430   28.5410   42.4820 C   0  0  0  0  0  0  0  0  0  0  0  0
   34.7860   28.7850   42.4750 F   0  0  0  0  0  0  0  0  0  0  0  0
   36.3440   27.4620   43.2890 F   0  0  0  0  0  0  0  0  0  0  0  0
   36.5080   28.3090   41.1740 F   0  0  0  0  0  0  0  0  0  0  0  0
   38.2080   29.4440   43.2090 C   0  0  2  0  0  0  0  0  0  0  0  0
   38.2650   28.5400   43.7750 H   0  0  0  0  0  0  0  0  0  0  0  0
   39.0350   30.3330   44.2330 C   0  0  0  0  0  0  0  0  0  0  0  0
   39.8820   31.3510   43.7370 C   0  0  0  0  0  0  0  0  0  0  0  0
   39.9610   31.3820   42.6370 H   0  0  0  0  0  0  0  0  0  0  0  0
   40.5780   32.2570   44.4600 C   0  0  0  0  0  0  0  0  0  0  0  0
   41.1980   32.9950   43.9700 H   0  0  0  0  0  0  0  0  0  0  0  0
   40.4170   32.1390   45.8200 C   0  0  0  0  0  3  0  0  0  0  0  0
   39.6000   31.1580   46.3280 C   0  0  0  0  0  3  0  0  0  0  0  0
   38.9310   30.2860   45.5750 N   0  0  0  0  0  0  0  0  0  0  0  0
   38.8960   29.6020   42.1670 O   0  0  0  0  0  0  0  0  0  0  0  0
   39.7980   28.9440   41.4220 C   0  0  0  0  0  0  0  0  0  0  0  0
   39.4350   28.8380   40.2490 O   0  0  0  0  0  0  0  0  0  0  0  0
   41.0490   28.2780   41.3430 N   0  0  0  0  0  0  0  0  0  0  0  0
   41.1660   27.2500   41.4700 H   0  0  0  0  0  0  0  0  0  0  0  0
   41.8800   28.8820   41.1440 H   0  0  0  0  0  0  0  0  0  0  0  0
  1 12  1  0  0  0  0
  2 13  1  0  0  0  0
  2  1  2  0  0  0  0
  3  2  1  0  0  0  0
  4  3  2  0  0  0  0
  4  5  1  0  0  0  0
  5  6  2  0  0  0  0
  6  1  1  0  0  0  0
  7  3  1  0  0  0  0
  8 15  1  0  0  0  0
  8  7  1  0  0  0  0
  8 16  1  0  0  0  0
  9  8  1  0  0  0  0
 10  9  1  0  0  0  0
 10 11  1  0  0  0  0
 11 21  1  6  0  0  0
 11 25  1  0  0  0  0
 11  7  1  0  0  0  0
 14  5  1  0  0  0  0
 17  9  1  0  0  0  0
 18  9  1  0  0  0  0
 19 10  1  0  0  0  0
 20 10  1  0  0  0  0
 21 23  1  0  0  0  0
 22 21  1  0  0  0  0
 24 21  1  0  0  0  0
 25 26  1  1  0  0  0
 25 27  1  0  0  0  0
 27 34  1  0  0  0  0
 28 27  2  0  0  0  0
 28 30  1  0  0  0  0
 29 28  1  0  0  0  0
 30 32  2  0  0  0  0
 31 30  1  0  0  0  0
 32 33  1  0  0  0  0
 34 33  2  0  0  0  0
 35 25  1  0  0  0  0
 36 35  1  0  0  0  0
 37 36  2  0  0  0  0
 38 36  1  0  0  0  0
 38 39  1  0  0  0  0
 40 38  1  0  0  0  0
M  END
>  <minimizedAffinity>
-3.8953867

>  <minimizedRMSD>
2.99180889

$$$$
