REMARK  Name = 
REMARK  4 active torsions:
REMARK  status: ('A' for Active; 'I' for Inactive)
REMARK    1  A    between atoms: C_1  and  C_8
REMARK    2  A    between atoms: N_4  and  C_12
REMARK    3  A    between atoms: C_12  and  C_13
REMARK    4  A    between atoms: C_13  and  C_23
REMARK                            x       y       z     vdW  Elec       q    Type
REMARK                         _______ _______ _______ _____ _____    ______ ____
ROOT
ATOM      1  C   UNL     1      39.958  33.345  44.503  0.00  0.00    +0.000 C 
ATOM      2  H   UNL     1      38.942  33.761  44.253  0.00  0.00    +0.000 HD
ATOM      3  H   UNL     1      40.012  32.337  44.072  0.00  0.00    +0.000 HD
ENDROOT
BRANCH   1   4
ATOM      4  C   UNL     1      40.931  34.269  43.902  0.00  0.00    +0.000 A 
ATOM      5  C   UNL     1      42.110  34.527  44.569  0.00  0.00    +0.000 A 
ATOM      6  H   UNL     1      42.295  34.045  45.519  0.00  0.00    +0.000 HD
ATOM      7  C   UNL     1      43.033  35.392  44.017  0.00  0.00    +0.000 A 
ATOM      8  H   UNL     1      43.944  35.539  44.618  0.00  0.00    +0.000 HD
ATOM      9  C   UNL     1      42.864  36.042  42.813  0.00  0.00    +0.000 A 
ATOM     10  C   UNL     1      41.684  35.770  42.169  0.00  0.00    +0.000 A 
ATOM     11  C   UNL     1      40.775  34.925  42.698  0.00  0.00    +0.000 A 
ATOM     12  H   UNL     1      39.836  34.726  42.157  0.00  0.00    +0.000 HD
ATOM     13  S   UNL     1      41.371  36.559  40.604  0.00  0.00    +0.000 S 
ATOM     14  C   UNL     1      42.789  37.573  40.269  0.00  0.00    +0.000 A 
ATOM     15  C   UNL     1      42.838  38.312  39.118  0.00  0.00    +0.000 A 
ATOM     16  H   UNL     1      41.999  38.276  38.406  0.00  0.00    +0.000 HD
ATOM     17  C   UNL     1      43.895  39.125  38.776  0.00  0.00    +0.000 A 
ATOM     18  H   UNL     1      43.989  39.728  37.887  0.00  0.00    +0.000 HD
ATOM     19  C   UNL     1      44.947  39.171  39.667  0.00  0.00    +0.000 A 
ATOM     20  H   UNL     1      45.807  39.792  39.453  0.00  0.00    +0.000 HD
ATOM     21  C   UNL     1      44.877  38.418  40.821  0.00  0.00    +0.000 A 
ATOM     22  H   UNL     1      45.754  38.508  41.480  0.00  0.00    +0.000 HD
ATOM     23  C   UNL     1      43.822  37.603  41.168  0.00  0.00    +0.000 A 
ATOM     24  N   UNL     1      43.905  36.899  42.383  0.00  0.00    +0.000 N 
ATOM     25  H   UNL     1      44.750  37.011  42.979  0.00  0.00    +0.000 HD
ENDBRANCH   1   4
BRANCH   1  26
ATOM     26  C   UNL     1      40.046  33.386  46.006  0.00  0.00    +0.000 C 
ATOM     27  H   UNL     1      41.078  33.125  46.322  0.00  0.00    +0.000 HD
ATOM     28  H   UNL     1      39.766  34.389  46.349  0.00  0.00    +0.000 HD
BRANCH  26  32
ATOM     29  C   UNL     1      37.909  31.263  47.992  0.00  0.00    +0.000 A 
ATOM     30  C   UNL     1      37.436  31.013  46.734  0.00  0.00    +0.000 A 
ATOM     31  C   UNL     1      38.176  31.775  45.833  0.00  0.00    +0.000 A 
ATOM     32  N   UNL     1      39.072  32.461  46.584  0.00  0.00    +0.000 N 
ATOM     33  N   UNL     1      38.911  32.155  47.870  0.00  0.00    +0.000 NA
ATOM     34  H   UNL     1      36.633  30.357  46.380  0.00  0.00    +0.000 HD
ATOM     35  H   UNL     1      38.078  31.828  44.753  0.00  0.00    +0.000 HD
BRANCH  29  38
ATOM     36  C   UNL     1      37.354  30.042  51.497  0.00  0.00    +0.000 A 
ATOM     37  C   UNL     1      37.977  30.688  50.439  0.00  0.00    +0.000 A 
ATOM     38  C   UNL     1      37.359  30.631  49.176  0.00  0.00    +0.000 A 
ATOM     39  N   UNL     1      36.185  29.941  49.081  0.00  0.00    +0.000 NA
ATOM     40  C   UNL     1      35.607  29.324  50.139  0.00  0.00    +0.000 A 
ATOM     41  N   UNL     1      36.194  29.377  51.340  0.00  0.00    +0.000 NA
ATOM     42  H   UNL     1      37.886  30.128  52.438  0.00  0.00    +0.000 HD
ATOM     43  H   UNL     1      38.904  31.228  50.531  0.00  0.00    +0.000 HD
ATOM     44  H   UNL     1      34.679  28.807  49.950  0.00  0.00    +0.000 HD
ENDBRANCH  29  38
ENDBRANCH  26  32
ENDBRANCH   1  26
TORSDOF 4
