
 OpenBabel03272508353D

 44 48  0  0  0  0  0  0  0  0999 V2000
   41.1470   36.6080   42.3030 C   0  0  0  0  0  0  0  0  0  0  0  0
   40.3550   37.4070   42.3480 H   0  0  0  0  0  0  0  0  0  0  0  0
   40.8310   35.8790   41.5450 H   0  0  0  0  0  0  0  0  0  0  0  0
   42.3940   37.2970   41.9390 C   0  0  0  0  0  0  0  0  0  0  0  0
   43.2300   37.7440   42.9400 C   0  0  0  0  0  0  0  0  0  0  0  0
   42.9510   37.5770   43.9720 H   0  0  0  0  0  0  0  0  0  0  0  0
   44.4030   38.3920   42.6140 C   0  0  0  0  0  0  0  0  0  0  0  0
   45.0080   38.7130   43.4760 H   0  0  0  0  0  0  0  0  0  0  0  0
   44.8210   38.6380   41.3240 C   0  0  0  0  0  0  0  0  0  0  0  0
   43.9730   38.1850   40.3440 C   0  0  0  0  0  0  0  0  0  0  0  0
   42.8230   37.5500   40.6520 C   0  0  0  0  0  0  0  0  0  0  0  0
   42.1630   37.1960   39.8440 H   0  0  0  0  0  0  0  0  0  0  0  0
   44.4230   38.4540   38.6420 S   0  0  0  0  0  0  0  0  0  0  0  0
   45.9780   39.3070   38.6710 C   0  0  0  0  0  0  0  0  0  0  0  0
   46.5830   39.6540   37.4930 C   0  0  0  0  0  0  0  0  0  0  0  0
   46.1030   39.4030   36.5340 H   0  0  0  0  0  0  0  0  0  0  0  0
   47.7880   40.3170   37.4180 C   0  0  0  0  0  0  0  0  0  0  0  0
   48.3100   40.6160   36.5240 H   0  0  0  0  0  0  0  0  0  0  0  0
   48.3900   40.6330   38.6200 C   0  0  0  0  0  0  0  0  0  0  0  0
   49.3380   41.1530   38.6260 H   0  0  0  0  0  0  0  0  0  0  0  0
   47.7630   40.2720   39.7950 C   0  0  0  0  0  0  0  0  0  0  0  0
   48.3050   40.5590   40.7080 H   0  0  0  0  0  0  0  0  0  0  0  0
   46.5580   39.6100   39.8750 C   0  0  0  0  0  0  0  0  0  0  0  0
   46.0510   39.3160   41.1530 N   0  0  0  0  0  0  0  0  0  0  0  0
   46.5930   39.6020   41.9940 H   0  0  0  0  0  0  0  0  0  0  0  0
   41.2350   36.0550   43.7010 C   0  0  0  0  0  0  0  0  0  0  0  0
   42.2930   35.8080   43.9330 H   0  0  0  0  0  0  0  0  0  0  0  0
   40.8370   36.7990   44.4010 H   0  0  0  0  0  0  0  0  0  0  0  0
   39.2320   33.2000   44.6240 C   0  0  0  0  0  0  0  0  0  0  0  0
   39.1040   33.1840   43.2630 C   0  0  0  0  0  0  0  0  0  0  0  0
   39.8380   34.2500   42.7470 C   0  0  0  0  0  0  0  0  0  0  0  0
   40.3830   34.8730   43.8200 N   0  0  0  0  0  0  0  0  0  0  0  0
   40.0210   34.2460   44.9380 N   0  0  0  0  0  0  0  0  0  0  0  0
   38.5560   32.5100   42.5950 H   0  0  0  0  0  0  0  0  0  0  0  0
   39.9640   34.5430   41.7090 H   0  0  0  0  0  0  0  0  0  0  0  0
   38.3510   30.9580   47.5020 C   0  0  0  0  0  0  0  0  0  0  0  0
   39.0490   31.9140   46.7770 C   0  0  0  0  0  0  0  0  0  0  0  0
   38.5910   32.2220   45.4820 C   0  0  0  0  0  0  0  0  0  0  0  0
   37.4890   31.5560   45.0300 N   0  0  0  0  0  0  0  0  0  0  0  0
   36.8340   30.6290   45.7700 C   0  0  0  0  0  0  0  0  0  0  0  0
   37.2690   30.3350   47.0000 N   0  0  0  0  0  0  0  0  0  0  0  0
   38.7600   30.7730   48.4900 H   0  0  0  0  0  0  0  0  0  0  0  0
   39.9170   32.4300   47.1490 H   0  0  0  0  0  0  0  0  0  0  0  0
   35.9750   30.1640   45.3130 H   0  0  0  0  0  0  0  0  0  0  0  0
  1  2  1  0  0  0  0
  1 26  1  0  0  0  0
  3  1  1  0  0  0  0
  4  1  1  0  0  0  0
  4  5  1  0  0  0  0
  5  6  1  0  0  0  0
  7  5  2  0  0  0  0
  7  8  1  0  0  0  0
  9  7  1  0  0  0  0
 10 11  1  0  0  0  0
 10  9  2  0  0  0  0
 11  4  2  0  0  0  0
 12 11  1  0  0  0  0
 13 14  1  0  0  0  0
 13 10  1  0  0  0  0
 14 23  1  0  0  0  0
 15 14  2  0  0  0  0
 16 15  1  0  0  0  0
 17 15  1  0  0  0  0
 17 19  2  0  0  0  0
 18 17  1  0  0  0  0
 19 20  1  0  0  0  0
 19 21  1  0  0  0  0
 21 23  2  0  0  0  0
 21 22  1  0  0  0  0
 23 24  1  0  0  0  0
 24  9  1  0  0  0  0
 24 25  1  0  0  0  0
 26 32  1  0  0  0  0
 26 27  1  0  0  0  0
 26 28  1  0  0  0  0
 29 33  2  0  0  0  0
 29 38  1  0  0  0  0
 30 29  1  0  0  0  0
 31 30  2  0  0  0  0
 31 32  1  0  0  0  0
 32 33  1  0  0  0  0
 34 30  1  0  0  0  0
 35 31  1  0  0  0  0
 36 42  1  0  0  0  0
 37 43  1  0  0  0  0
 37 36  2  0  0  0  0
 38 37  1  0  0  0  0
 39 38  2  0  0  0  0
 39 40  1  0  0  0  0
 40 41  2  0  0  0  0
 41 36  1  0  0  0  0
 44 40  1  0  0  0  0
M  END
>  <minimizedAffinity>
-1.04343832

>  <minimizedRMSD>
4.07337189

$$$$
