REMARK  Name = 
REMARK  4 active torsions:
REMARK  status: ('A' for Active; 'I' for Inactive)
REMARK    1  A    between atoms: C_1  and  C_8
REMARK    2  A    between atoms: N_4  and  C_12
REMARK    3  A    between atoms: C_12  and  C_13
REMARK    4  A    between atoms: C_13  and  C_23
REMARK                            x       y       z     vdW  Elec       q    Type
REMARK                         _______ _______ _______ _____ _____    ______ ____
ROOT
ATOM      1  C   UNL     1      39.958  33.345  44.503  0.00  0.00    +0.000 C 
ATOM      2  H   UNL     1      38.942  33.761  44.253  0.00  0.00    +0.000 HD
ATOM      3  H   UNL     1      40.012  32.337  44.072  0.00  0.00    +0.000 HD
ENDROOT
BRANCH   1   4
ATOM      4  C   UNL     1      40.931  34.269  43.902  0.00  0.00    +0.000 A 
ATOM      5  C   UNL     1      40.638  34.854  42.688  0.00  0.00    +0.000 A 
ATOM      6  H   UNL     1      39.700  34.621  42.203  0.00  0.00    +0.000 HD
ATOM      7  C   UNL     1      41.541  35.724  42.111  0.00  0.00    +0.000 A 
ATOM      8  H   UNL     1      41.224  36.142  41.143  0.00  0.00    +0.000 HD
ATOM      9  C   UNL     1      42.753  36.066  42.671  0.00  0.00    +0.000 A 
ATOM     10  C   UNL     1      43.022  35.472  43.878  0.00  0.00    +0.000 A 
ATOM     11  C   UNL     1      42.147  34.621  44.451  0.00  0.00    +0.000 A 
ATOM     12  H   UNL     1      42.391  34.159  45.421  0.00  0.00    +0.000 HD
ATOM     13  S   UNL     1      44.564  35.851  44.684  0.00  0.00    +0.000 S 
ATOM     14  C   UNL     1      45.412  36.990  43.620  0.00  0.00    +0.000 A 
ATOM     15  C   UNL     1      46.643  37.468  43.979  0.00  0.00    +0.000 A 
ATOM     16  H   UNL     1      47.103  37.143  44.926  0.00  0.00    +0.000 HD
ATOM     17  C   UNL     1      47.373  38.353  43.218  0.00  0.00    +0.000 A 
ATOM     18  H   UNL     1      48.344  38.762  43.449  0.00  0.00    +0.000 HD
ATOM     19  C   UNL     1      46.798  38.760  42.031  0.00  0.00    +0.000 A 
ATOM     20  H   UNL     1      47.323  39.455  41.390  0.00  0.00    +0.000 HD
ATOM     21  C   UNL     1      45.556  38.267  41.688  0.00  0.00    +0.000 A 
ATOM     22  H   UNL     1      45.166  38.639  40.729  0.00  0.00    +0.000 HD
ATOM     23  C   UNL     1      44.822  37.381  42.446  0.00  0.00    +0.000 A 
ATOM     24  N   UNL     1      43.569  36.974  41.954  0.00  0.00    +0.000 N 
ATOM     25  H   UNL     1      43.234  37.347  41.043  0.00  0.00    +0.000 HD
ENDBRANCH   1   4
BRANCH   1  26
ATOM     26  C   UNL     1      40.046  33.386  46.006  0.00  0.00    +0.000 C 
ATOM     27  H   UNL     1      41.078  33.125  46.322  0.00  0.00    +0.000 HD
ATOM     28  H   UNL     1      39.766  34.389  46.349  0.00  0.00    +0.000 HD
BRANCH  26  32
ATOM     29  C   UNL     1      37.909  31.263  47.992  0.00  0.00    +0.000 A 
ATOM     30  C   UNL     1      37.436  31.013  46.734  0.00  0.00    +0.000 A 
ATOM     31  C   UNL     1      38.176  31.775  45.833  0.00  0.00    +0.000 A 
ATOM     32  N   UNL     1      39.072  32.461  46.584  0.00  0.00    +0.000 N 
ATOM     33  N   UNL     1      38.911  32.155  47.870  0.00  0.00    +0.000 NA
ATOM     34  H   UNL     1      36.633  30.357  46.380  0.00  0.00    +0.000 HD
ATOM     35  H   UNL     1      38.078  31.828  44.753  0.00  0.00    +0.000 HD
BRANCH  29  38
ATOM     36  C   UNL     1      37.354  30.042  51.497  0.00  0.00    +0.000 A 
ATOM     37  C   UNL     1      37.977  30.688  50.439  0.00  0.00    +0.000 A 
ATOM     38  C   UNL     1      37.359  30.631  49.176  0.00  0.00    +0.000 A 
ATOM     39  N   UNL     1      36.185  29.941  49.081  0.00  0.00    +0.000 NA
ATOM     40  C   UNL     1      35.607  29.324  50.139  0.00  0.00    +0.000 A 
ATOM     41  N   UNL     1      36.194  29.377  51.340  0.00  0.00    +0.000 NA
ATOM     42  H   UNL     1      37.886  30.128  52.438  0.00  0.00    +0.000 HD
ATOM     43  H   UNL     1      38.904  31.228  50.531  0.00  0.00    +0.000 HD
ATOM     44  H   UNL     1      34.679  28.807  49.950  0.00  0.00    +0.000 HD
ENDBRANCH  29  38
ENDBRANCH  26  32
ENDBRANCH   1  26
TORSDOF 4
