REMARK  Name = 
REMARK  4 active torsions:
REMARK  status: ('A' for Active; 'I' for Inactive)
REMARK    1  A    between atoms: C_1  and  C_8
REMARK    2  A    between atoms: N_4  and  C_12
REMARK    3  A    between atoms: C_12  and  C_13
REMARK    4  A    between atoms: C_13  and  C_23
REMARK                            x       y       z     vdW  Elec       q    Type
REMARK                         _______ _______ _______ _____ _____    ______ ____
ROOT
ATOM      1  C   UNL     1      39.958  33.345  44.503  0.00  0.00    +0.000 C 
ATOM      2  H   UNL     1      38.942  33.761  44.253  0.00  0.00    +0.000 HD
ATOM      3  H   UNL     1      40.012  32.337  44.072  0.00  0.00    +0.000 HD
ENDROOT
BRANCH   1   4
ATOM      4  C   UNL     1      40.931  34.269  43.902  0.00  0.00    +0.000 A 
ATOM      5  C   UNL     1      40.527  35.087  42.867  0.00  0.00    +0.000 A 
ATOM      6  H   UNL     1      39.505  35.032  42.520  0.00  0.00    +0.000 HD
ATOM      7  C   UNL     1      41.429  35.960  42.294  0.00  0.00    +0.000 A 
ATOM      8  H   UNL     1      41.019  36.574  41.475  0.00  0.00    +0.000 HD
ATOM      9  C   UNL     1      42.745  36.084  42.684  0.00  0.00    +0.000 A 
ATOM     10  C   UNL     1      43.123  35.260  43.715  0.00  0.00    +0.000 A 
ATOM     11  C   UNL     1      42.250  34.403  44.283  0.00  0.00    +0.000 A 
ATOM     12  H   UNL     1      42.583  33.754  45.109  0.00  0.00    +0.000 HD
ATOM     13  S   UNL     1      44.804  35.344  44.294  0.00  0.00    +0.000 S 
ATOM     14  C   UNL     1      45.609  36.575  43.299  0.00  0.00    +0.000 A 
ATOM     15  C   UNL     1      46.929  36.865  43.514  0.00  0.00    +0.000 A 
ATOM     16  H   UNL     1      47.486  36.335  44.302  0.00  0.00    +0.000 HD
ATOM     17  C   UNL     1      47.634  37.802  42.793  0.00  0.00    +0.000 A 
ATOM     18  H   UNL     1      48.671  38.072  42.917  0.00  0.00    +0.000 HD
ATOM     19  C   UNL     1      46.937  38.467  41.805  0.00  0.00    +0.000 A 
ATOM     20  H   UNL     1      47.437  39.215  41.205  0.00  0.00    +0.000 HD
ATOM     21  C   UNL     1      45.607  38.160  41.605  0.00  0.00    +0.000 A 
ATOM     22  H   UNL     1      45.122  38.732  40.801  0.00  0.00    +0.000 HD
ATOM     23  C   UNL     1      44.897  37.223  42.324  0.00  0.00    +0.000 A 
ATOM     24  N   UNL     1      43.544  37.027  41.995  0.00  0.00    +0.000 N 
ATOM     25  H   UNL     1      43.120  37.587  41.228  0.00  0.00    +0.000 HD
ENDBRANCH   1   4
BRANCH   1  26
ATOM     26  C   UNL     1      40.046  33.386  46.006  0.00  0.00    +0.000 C 
ATOM     27  H   UNL     1      41.078  33.125  46.322  0.00  0.00    +0.000 HD
ATOM     28  H   UNL     1      39.766  34.389  46.349  0.00  0.00    +0.000 HD
BRANCH  26  32
ATOM     29  C   UNL     1      37.909  31.263  47.992  0.00  0.00    +0.000 A 
ATOM     30  C   UNL     1      37.436  31.013  46.734  0.00  0.00    +0.000 A 
ATOM     31  C   UNL     1      38.176  31.775  45.833  0.00  0.00    +0.000 A 
ATOM     32  N   UNL     1      39.072  32.461  46.584  0.00  0.00    +0.000 N 
ATOM     33  N   UNL     1      38.911  32.155  47.870  0.00  0.00    +0.000 NA
ATOM     34  H   UNL     1      36.633  30.357  46.380  0.00  0.00    +0.000 HD
ATOM     35  H   UNL     1      38.078  31.828  44.753  0.00  0.00    +0.000 HD
BRANCH  29  38
ATOM     36  C   UNL     1      37.354  30.042  51.497  0.00  0.00    +0.000 A 
ATOM     37  C   UNL     1      37.977  30.688  50.439  0.00  0.00    +0.000 A 
ATOM     38  C   UNL     1      37.359  30.631  49.176  0.00  0.00    +0.000 A 
ATOM     39  N   UNL     1      36.185  29.941  49.081  0.00  0.00    +0.000 NA
ATOM     40  C   UNL     1      35.607  29.324  50.139  0.00  0.00    +0.000 A 
ATOM     41  N   UNL     1      36.194  29.377  51.340  0.00  0.00    +0.000 NA
ATOM     42  H   UNL     1      37.886  30.128  52.438  0.00  0.00    +0.000 HD
ATOM     43  H   UNL     1      38.904  31.228  50.531  0.00  0.00    +0.000 HD
ATOM     44  H   UNL     1      34.679  28.807  49.950  0.00  0.00    +0.000 HD
ENDBRANCH  29  38
ENDBRANCH  26  32
ENDBRANCH   1  26
TORSDOF 4
