
     RDKit          3D

 47 51  0  0  0  0  0  0  0  0999 V2000
   36.4685   29.8858   48.6806 N   0  0  0  0  0  0  0  0  0  0  0  0
   37.5857   30.6490   48.2308 C   0  0  0  0  0  0  0  0  0  0  0  0
   38.0915   31.2983   49.5202 C   0  0  2  0  0  0  0  0  0  0  0  0
   37.1112   30.8971   50.5954 C   0  0  0  0  0  0  0  0  0  0  0  0
   36.7443   29.5192   50.0466 C   0  0  0  0  0  0  0  0  0  0  0  0
   35.2897   29.5412   47.9294 C   0  0  0  0  0  0  0  0  0  0  0  0
   35.2275   29.9989   46.6135 C   0  0  0  0  0  0  0  0  0  0  0  0
   34.0995   29.6763   45.8753 C   0  0  0  0  0  0  0  0  0  0  0  0
   33.1257   28.9294   46.4944 N   0  0  0  0  0  0  0  0  0  0  0  0
   33.2179   28.5053   47.7630 C   0  0  0  0  0  0  0  0  0  0  0  0
   34.3063   28.8137   48.4830 N   0  0  0  0  0  0  0  0  0  0  0  0
   31.9311   27.5381   48.5267 S   0  0  0  0  0  0  0  0  0  0  0  0
   38.2619   32.7830   49.3989 C   0  0  0  0  0  0  0  0  0  0  0  0
   37.0992   33.3438   49.8898 F   0  0  0  0  0  0  0  0  0  0  0  0
   38.3226   33.0741   48.0584 F   0  0  0  0  0  0  0  0  0  0  0  0
   39.3663   33.2606   50.0383 F   0  0  0  0  0  0  0  0  0  0  0  0
   38.3588   29.9370   47.8917 H   0  0  0  0  0  0  0  0  0  0  0  0
   37.3351   31.4286   47.4789 H   0  0  0  0  0  0  0  0  0  0  0  0
   39.0758   30.8525   49.8273 H   0  0  0  0  0  0  0  0  0  0  0  0
   36.2036   31.5155   50.5267 H   0  0  0  0  0  0  0  0  0  0  0  0
   37.5523   30.8556   51.5966 H   0  0  0  0  0  0  0  0  0  0  0  0
   35.8130   29.1866   50.5361 H   0  0  0  0  0  0  0  0  0  0  0  0
   37.5854   28.8091   50.1611 H   0  0  0  0  0  0  0  0  0  0  0  0
   35.9818   30.5803   46.1261 H   0  0  0  0  0  0  0  0  0  0  0  0
   33.9652   29.9906   44.8415 H   0  0  0  0  0  0  0  0  0  0  0  0
   30.5909   27.2518   47.3868 C   0  0  0  0  0  0  0  0  0  0  0  0
   30.3865   26.0222   46.7689 C   0  0  0  0  0  0  0  0  0  0  0  0
   31.0520   25.2160   46.9799 H   0  0  0  0  0  0  0  0  0  0  0  0
   29.3185   25.8868   45.8951 C   0  0  0  0  0  0  0  0  0  0  0  0
   29.2230   24.8976   45.4512 H   0  0  0  0  0  0  0  0  0  0  0  0
   28.4301   26.8976   45.5888 C   0  0  0  0  0  0  0  0  0  0  0  0
   28.6654   28.0910   46.2168 C   0  0  0  0  0  0  0  0  0  0  0  0
   29.6994   28.2509   47.0736 C   0  0  0  0  0  0  0  0  0  0  0  0
   29.8389   29.2291   47.5475 H   0  0  0  0  0  0  0  0  0  0  0  0
   27.5683   29.4396   45.8762 S   0  0  0  0  0  0  0  0  0  0  0  0
   26.3607   28.8356   44.7195 C   0  0  0  0  0  0  0  0  0  0  0  0
   25.3925   29.6973   44.2959 C   0  0  0  0  0  0  0  0  0  0  0  0
   25.3317   30.7324   44.6364 H   0  0  0  0  0  0  0  0  0  0  0  0
   24.4189   29.2986   43.3963 C   0  0  0  0  0  0  0  0  0  0  0  0
   23.6628   29.9824   43.0695 H   0  0  0  0  0  0  0  0  0  0  0  0
   24.4563   27.9982   42.9383 C   0  0  0  0  0  0  0  0  0  0  0  0
   23.7178   27.6592   42.2421 H   0  0  0  0  0  0  0  0  0  0  0  0
   25.4625   27.1811   43.4078 C   0  0  0  0  0  0  0  0  0  0  0  0
   25.4316   26.1596   43.0016 H   0  0  0  0  0  0  0  0  0  0  0  0
   26.4518   27.5331   44.3021 C   0  0  0  0  0  0  0  0  0  0  0  0
   27.4124   26.5844   44.6872 N   0  0  0  0  0  0  0  0  0  0  0  0
   27.3339   25.6325   44.2703 H   0  0  0  0  0  0  0  0  0  0  0  0
  1  5  1  0
  2  1  1  0
  2  3  1  0
  3  4  1  0
  5  4  1  0
  6 11  1  0
  6  1  1  0
  7  6  2  0
  8  9  2  0
  8  7  1  0
  9 10  1  0
 10 11  2  0
 10 12  1  0
 13  3  1  0
 13 14  1  0
 13 16  1  0
 15 13  1  0
  2 17  1  0
  2 18  1  0
  3 19  1  1
  4 20  1  0
  4 21  1  0
  5 22  1  0
  5 23  1  0
  7 24  1  0
  8 25  1  0
 26 27  2  0
 27 28  1  0
 27 29  1  0
 29 30  1  0
 29 31  2  0
 31 32  1  0
 32 33  2  0
 33 34  1  0
 32 35  1  0
 35 36  1  0
 36 37  2  0
 37 38  1  0
 37 39  1  0
 39 40  1  0
 39 41  2  0
 41 42  1  0
 41 43  1  0
 43 44  1  0
 43 45  2  0
 45 46  1  0
 46 47  1  0
 33 26  1  0
 45 36  1  0
 46 31  1  0
 12 26  1  0
M  ISO  8  17  13  18  13  19  13  20  13  21  13  22  13  23  13  24  14
M  ISO  8  25  14  28  16  30  16  34  16  38  16  40  16  42  16  44  16
M  ISO  1  47   5
M  END
>  <DihAtoms>  (1) 
9,11,25,26

>  <DihDeg>  (1) 
90.02897532960867

$$$$
