
 OpenBabel03262522573D

 38 42  0  0  0  0  0  0  0  0999 V2000
   32.1670   28.7630   46.1280 C   0  0  0  0  0  0  0  0  0  0  0  0
   32.9150   29.5660   45.2930 C   0  0  0  0  0  0  0  0  0  0  0  0
   32.6040   29.7650   44.2770 H   0  0  0  0  0  0  0  0  0  0  0  0
   34.0750   30.1060   45.8070 C   0  0  0  0  0  0  0  0  0  0  0  0
   34.6360   30.7390   45.1010 H   0  0  0  0  0  0  0  0  0  0  0  0
   34.5660   29.9210   47.0810 C   0  0  0  0  0  0  0  0  0  0  0  0
   33.7610   29.1100   47.8440 C   0  0  0  0  0  0  0  0  0  0  0  0
   32.5940   28.5330   47.4140 C   0  0  0  0  0  0  0  0  0  0  0  0
   31.9950   27.9010   48.0550 H   0  0  0  0  0  0  0  0  0  0  0  0
   34.2410   28.7600   49.5250 S   0  0  0  0  0  0  0  0  0  0  0  0
   35.7650   29.6240   49.8030 C   0  0  0  0  0  0  0  0  0  0  0  0
   36.3950   29.5620   50.9940 C   0  0  0  0  0  0  0  0  0  0  0  0
   35.9450   28.9610   51.7940 H   0  0  0  0  0  0  0  0  0  0  0  0
   37.5970   30.2110   51.2950 C   0  0  0  0  0  0  0  0  0  0  0  0
   38.0130   30.0970   52.2690 H   0  0  0  0  0  0  0  0  0  0  0  0
   38.1190   30.9530   50.2490 C   0  0  0  0  0  0  0  0  0  0  0  0
   39.0500   31.4750   50.4330 H   0  0  0  0  0  0  0  0  0  0  0  0
   37.4680   31.0110   49.0340 C   0  0  0  0  0  0  0  0  0  0  0  0
   37.9710   31.6250   48.2840 H   0  0  0  0  0  0  0  0  0  0  0  0
   36.2830   30.3570   48.7730 C   0  0  0  0  0  0  0  0  0  0  0  0
   35.7690   30.5370   47.4710 N   0  0  0  0  0  0  0  0  0  0  0  0
   36.2410   31.1120   46.7710 H   0  0  0  0  0  0  0  0  0  0  0  0
   28.9420   28.0060   44.8190 C   0  0  0  0  0  0  0  0  0  0  0  0
   29.4310   26.7390   45.1040 C   0  0  0  0  0  0  0  0  0  0  0  0
   30.6900   26.8510   45.6270 C   0  0  0  0  0  0  0  0  0  0  0  0
   30.9600   28.1770   45.6560 N   0  0  0  0  0  0  0  0  0  0  0  0
   29.9120   28.8370   45.1740 N   0  0  0  0  0  0  0  0  0  0  0  0
   28.8560   25.8390   44.9190 H   0  0  0  0  0  0  0  0  0  0  0  0
   31.3110   26.0400   45.9400 H   0  0  0  0  0  0  0  0  0  0  0  0
   26.2400   29.7510   43.0580 C   0  0  0  0  0  0  0  0  0  0  0  0
   25.1590   28.8480   43.2040 C   0  0  0  0  0  0  0  0  0  0  0  0
   25.3840   27.6630   43.9030 C   0  0  0  0  0  0  0  0  0  0  0  0
   26.6230   27.4310   44.4080 N   0  0  0  0  0  0  0  0  0  0  0  0
   27.6360   28.3190   44.2490 C   0  0  0  0  0  0  0  0  0  0  0  0
   27.4460   29.4700   43.5790 N   0  0  0  0  0  0  0  0  0  0  0  0
   26.0720   30.6850   42.5100 H   0  0  0  0  0  0  0  0  0  0  0  0
   24.1960   29.0940   42.7750 H   0  0  0  0  0  0  0  0  0  0  0  0
   24.5780   26.9550   44.0300 H   0  0  0  0  0  0  0  0  0  0  0  0
  1  8  1  0  0  0  0
  2  4  1  0  0  0  0
  2  1  2  0  0  0  0
  3  2  1  0  0  0  0
  4  6  2  0  0  0  0
  5  4  1  0  0  0  0
  6 21  1  0  0  0  0
  6  7  1  0  0  0  0
  7 10  1  0  0  0  0
  8  7  2  0  0  0  0
  8  9  1  0  0  0  0
 10 11  1  0  0  0  0
 11 12  1  0  0  0  0
 12 14  2  0  0  0  0
 12 13  1  0  0  0  0
 14 15  1  0  0  0  0
 16 17  1  0  0  0  0
 16 14  1  0  0  0  0
 18 16  2  0  0  0  0
 19 18  1  0  0  0  0
 20 18  1  0  0  0  0
 20 11  2  0  0  0  0
 21 20  1  0  0  0  0
 22 21  1  0  0  0  0
 23 24  1  0  0  0  0
 23 27  2  0  0  0  0
 24 25  2  0  0  0  0
 25 26  1  0  0  0  0
 25 29  1  0  0  0  0
 26  1  1  0  0  0  0
 27 26  1  0  0  0  0
 28 24  1  0  0  0  0
 30 31  2  0  0  0  0
 30 35  1  0  0  0  0
 31 32  1  0  0  0  0
 32 38  1  0  0  0  0
 32 33  2  0  0  0  0
 34 33  1  0  0  0  0
 34 23  1  0  0  0  0
 35 34  2  0  0  0  0
 36 30  1  0  0  0  0
 37 31  1  0  0  0  0
M  END
>  <minimizedAffinity>
-6.0308423

>  <minimizedRMSD>
9.52030087

$$$$
