
 OpenBabel03272501033D

 50 54  0  0  0  0  0  0  0  0999 V2000
   37.3410   28.6700   31.4350 O   0  0  0  0  0  0  0  0  0  0  0  0
   36.2770   27.7880   32.0780 P   0  0  1  0  0  0  0  0  0  0  0  0
   36.1260   26.4080   31.1170 O   0  0  0  0  0  0  0  0  0  0  0  0
   34.9890   24.0830   31.8650 F   0  0  0  0  0  0  0  0  0  0  0  0
   36.3080   24.0650   31.5100 C   0  0  0  0  0  0  0  0  0  0  0  0
   37.0750   22.9240   31.5180 C   0  0  0  0  0  0  0  0  0  0  0  0
   38.3820   22.9970   31.1500 C   0  0  0  0  0  0  0  0  0  0  0  0
   38.9940   24.1830   30.7610 C   0  0  0  0  0  0  0  0  0  0  0  0
   38.2070   25.3300   30.7570 C   0  0  0  0  0  0  0  0  0  0  0  0
   36.8670   25.2780   31.1300 C   0  0  0  0  0  0  0  0  0  0  0  0
   39.0150   22.1170   31.1450 H   0  0  0  0  0  0  0  0  0  0  0  0
   40.0400   24.1930   30.4750 H   0  0  0  0  0  0  0  0  0  0  0  0
   38.7010   26.2460   30.4500 H   0  0  0  0  0  0  0  0  0  0  0  0
   35.6300   20.3510   33.6830 C   0  0  0  0  0  0  0  0  0  0  0  0
   35.2760   19.3230   32.8030 C   0  0  0  0  0  0  0  0  0  0  0  0
   35.5410   19.5260   31.4490 C   0  0  0  0  0  0  0  0  0  0  0  0
   36.1220   20.6890   31.0320 N   0  0  0  0  0  0  0  0  0  0  0  0
   36.4520   21.6650   31.9250 C   0  0  0  0  0  0  0  0  0  0  0  0
   36.2000   21.4800   33.2430 N   0  0  0  0  0  0  0  0  0  0  0  0
   35.4380   20.2240   34.7440 H   0  0  0  0  0  0  0  0  0  0  0  0
   34.8140   18.4030   33.1460 H   0  0  0  0  0  0  0  0  0  0  0  0
   35.2770   18.7480   30.7450 H   0  0  0  0  0  0  0  0  0  0  0  0
   36.7490   27.5090   33.6570 O   0  0  0  0  0  0  0  0  0  0  0  0
   37.9170   26.8300   33.9770 C   0  0  0  0  0  0  0  0  0  0  0  0
   39.1440   27.2920   33.5480 C   0  0  0  0  0  0  0  0  0  0  0  0
   39.2250   28.1910   32.9560 H   0  0  0  0  0  0  0  0  0  0  0  0
   40.2640   26.5660   33.9050 C   0  0  0  0  0  0  0  0  0  0  0  0
   41.2150   26.9810   33.5350 H   0  0  0  0  0  0  0  0  0  0  0  0
   40.2690   25.4070   34.6570 C   0  0  0  0  0  0  0  0  0  0  0  0
   39.0160   25.0030   35.0510 C   0  0  0  0  0  0  0  0  0  0  0  0
   37.8660   25.6770   34.7320 C   0  0  0  0  0  0  0  0  0  0  0  0
   36.8870   25.3160   35.0700 H   0  0  0  0  0  0  0  0  0  0  0  0
   38.8530   23.5360   36.0230 S   0  0  0  0  0  0  0  0  0  0  0  0
   40.4790   22.8990   36.2680 C   0  0  0  0  0  0  0  0  0  0  0  0
   40.7130   21.7750   36.9740 C   0  0  0  0  0  0  0  0  0  0  0  0
   39.8380   21.2650   37.3970 H   0  0  0  0  0  0  0  0  0  0  0  0
   41.9600   21.2230   37.2040 C   0  0  0  0  0  0  0  0  0  0  0  0
   42.0370   20.3130   37.7880 H   0  0  0  0  0  0  0  0  0  0  0  0
   43.0200   21.9080   36.6470 C   0  0  0  0  0  0  0  0  0  0  0  0
   44.0090   21.5180   36.7980 H   0  0  0  0  0  0  0  0  0  0  0  0
   42.7890   23.0600   35.9220 C   0  0  0  0  0  0  0  0  0  0  0  0
   43.6990   23.5310   35.5210 H   0  0  0  0  0  0  0  0  0  0  0  0
   41.5300   23.5860   35.7110 C   0  0  0  0  0  0  0  0  0  0  0  0
   41.4940   24.7590   34.9520 N   0  0  0  0  0  0  0  0  0  0  0  0
   42.3520   25.2100   34.5690 H   0  0  0  0  0  0  0  0  0  0  0  0
   34.8260   28.6940   32.0700 O   0  0  0  0  0  0  0  0  0  0  0  0
   34.7820   29.6410   33.0530 C   0  0  0  0  0  0  0  0  0  0  0  0
   35.9540   30.3470   33.1690 F   0  0  0  0  0  0  0  0  0  0  0  0
   33.7830   30.5180   32.7320 F   0  0  0  0  0  0  0  0  0  0  0  0
   34.4870   29.0530   34.2800 F   0  0  0  0  0  0  0  0  0  0  0  0
  2  1  2  6  0  0  0
  2 23  1  0  0  0  0
  3 10  1  0  0  0  0
  3  2  1  0  0  0  0
  5  6  1  0  0  0  0
  5  4  1  0  0  0  0
  6 18  1  0  0  0  0
  7  6  2  0  0  0  0
  8  7  1  0  0  0  0
  9  8  2  0  0  0  0
  9 10  1  0  0  0  0
 10  5  2  0  0  0  0
 11  7  1  0  0  0  0
 12  8  1  0  0  0  0
 13  9  1  0  0  0  0
 14 20  1  0  0  0  0
 15 21  1  0  0  0  0
 15 14  2  0  0  0  0
 16 15  1  0  0  0  0
 17 16  2  0  0  0  0
 17 18  1  0  0  0  0
 18 19  2  0  0  0  0
 19 14  1  0  0  0  0
 22 16  1  0  0  0  0
 23 24  1  0  0  0  0
 24 31  1  0  0  0  0
 25 27  1  0  0  0  0
 25 24  2  0  0  0  0
 26 25  1  0  0  0  0
 27 29  2  0  0  0  0
 28 27  1  0  0  0  0
 29 44  1  0  0  0  0
 29 30  1  0  0  0  0
 30 33  1  0  0  0  0
 31 30  2  0  0  0  0
 31 32  1  0  0  0  0
 33 34  1  0  0  0  0
 34 35  1  0  0  0  0
 35 37  2  0  0  0  0
 35 36  1  0  0  0  0
 37 38  1  0  0  0  0
 39 40  1  0  0  0  0
 39 37  1  0  0  0  0
 41 39  2  0  0  0  0
 42 41  1  0  0  0  0
 43 41  1  0  0  0  0
 43 34  2  0  0  0  0
 44 43  1  0  0  0  0
 45 44  1  0  0  0  0
 46  2  1  0  0  0  0
 46 47  1  0  0  0  0
 47 48  1  0  0  0  0
 47 50  1  0  0  0  0
 49 47  1  0  0  0  0
M  END
>  <minimizedAffinity>
-6.81224966

$$$$

 OpenBabel03272501033D

 50 54  0  0  0  0  0  0  0  0999 V2000
   38.6300   25.5940   30.6120 O   0  0  0  0  0  0  0  0  0  0  0  0
   37.2720   25.2960   31.2380 P   0  0  1  0  0  0  0  0  0  0  0  0
   37.4860   25.2900   32.9130 O   0  0  0  0  0  0  0  0  0  0  0  0
   38.6110   23.1840   34.1610 F   0  0  0  0  0  0  0  0  0  0  0  0
   39.2240   24.3990   34.2780 C   0  0  0  0  0  0  0  0  0  0  0  0
   40.3780   24.5950   34.9980 C   0  0  0  0  0  0  0  0  0  0  0  0
   40.9220   25.8400   35.0620 C   0  0  0  0  0  0  0  0  0  0  0  0
   40.3620   26.9430   34.4290 C   0  0  0  0  0  0  0  0  0  0  0  0
   39.1930   26.7320   33.7030 C   0  0  0  0  0  0  0  0  0  0  0  0
   38.6210   25.4660   33.6250 C   0  0  0  0  0  0  0  0  0  0  0  0
   41.8310   26.0290   35.6210 H   0  0  0  0  0  0  0  0  0  0  0  0
   40.8300   27.9180   34.5070 H   0  0  0  0  0  0  0  0  0  0  0  0
   38.7710   27.6040   33.2150 H   0  0  0  0  0  0  0  0  0  0  0  0
   40.9020   21.9550   37.4790 C   0  0  0  0  0  0  0  0  0  0  0  0
   42.0470   21.2860   37.0300 C   0  0  0  0  0  0  0  0  0  0  0  0
   42.6390   21.7560   35.8580 C   0  0  0  0  0  0  0  0  0  0  0  0
   42.1010   22.8260   35.2000 N   0  0  0  0  0  0  0  0  0  0  0  0
   40.9850   23.4480   35.6740 C   0  0  0  0  0  0  0  0  0  0  0  0
   40.3990   23.0010   36.8110 N   0  0  0  0  0  0  0  0  0  0  0  0
   40.4180   21.6140   38.3880 H   0  0  0  0  0  0  0  0  0  0  0  0
   42.4650   20.4380   37.5610 H   0  0  0  0  0  0  0  0  0  0  0  0
   43.5250   21.2580   35.4870 H   0  0  0  0  0  0  0  0  0  0  0  0
   36.1970   26.4380   30.6590 O   0  0  0  0  0  0  0  0  0  0  0  0
   36.2130   27.7590   31.0840 C   0  0  0  0  0  0  0  0  0  0  0  0
   36.5480   28.7780   30.2170 C   0  0  0  0  0  0  0  0  0  0  0  0
   36.8050   28.5720   29.1880 H   0  0  0  0  0  0  0  0  0  0  0  0
   36.5420   30.0680   30.7100 C   0  0  0  0  0  0  0  0  0  0  0  0
   36.8170   30.8390   29.9730 H   0  0  0  0  0  0  0  0  0  0  0  0
   36.2300   30.4370   32.0040 C   0  0  0  0  0  0  0  0  0  0  0  0
   35.9060   29.3760   32.8140 C   0  0  0  0  0  0  0  0  0  0  0  0
   35.8920   28.0720   32.3890 C   0  0  0  0  0  0  0  0  0  0  0  0
   35.6270   27.2580   33.0730 H   0  0  0  0  0  0  0  0  0  0  0  0
   35.4810   29.6820   34.5020 S   0  0  0  0  0  0  0  0  0  0  0  0
   35.5870   31.4250   34.7500 C   0  0  0  0  0  0  0  0  0  0  0  0
   35.3230   32.0010   35.9400 C   0  0  0  0  0  0  0  0  0  0  0  0
   35.0350   31.3310   36.7600 H   0  0  0  0  0  0  0  0  0  0  0  0
   35.3860   33.3580   36.2010 C   0  0  0  0  0  0  0  0  0  0  0  0
   35.1530   33.7160   37.1960 H   0  0  0  0  0  0  0  0  0  0  0  0
   35.7530   34.1470   35.1310 C   0  0  0  0  0  0  0  0  0  0  0  0
   35.8170   35.2080   35.2840 H   0  0  0  0  0  0  0  0  0  0  0  0
   36.0260   33.5650   33.9090 C   0  0  0  0  0  0  0  0  0  0  0  0
   36.3080   34.2810   33.1220 H   0  0  0  0  0  0  0  0  0  0  0  0
   35.9530   32.2060   33.6810 C   0  0  0  0  0  0  0  0  0  0  0  0
   36.2640   31.8030   32.3780 N   0  0  0  0  0  0  0  0  0  0  0  0
   36.5320   32.4750   31.6290 H   0  0  0  0  0  0  0  0  0  0  0  0
   36.8110   23.7460   30.6800 O   0  0  0  0  0  0  0  0  0  0  0  0
   35.7910   23.1990   31.4060 C   0  0  0  0  0  0  0  0  0  0  0  0
   34.8240   24.1130   31.7430 F   0  0  0  0  0  0  0  0  0  0  0  0
   35.2140   22.2290   30.6330 F   0  0  0  0  0  0  0  0  0  0  0  0
   36.2840   22.6130   32.5690 F   0  0  0  0  0  0  0  0  0  0  0  0
  2  1  2  6  0  0  0
  2  3  1  0  0  0  0
  3 10  1  0  0  0  0
  4  5  1  0  0  0  0
  5  6  1  0  0  0  0
  6  7  2  0  0  0  0
  6 18  1  0  0  0  0
  7 11  1  0  0  0  0
  8 12  1  0  0  0  0
  8  7  1  0  0  0  0
  9  8  2  0  0  0  0
 10  9  1  0  0  0  0
 10  5  2  0  0  0  0
 13  9  1  0  0  0  0
 14 20  1  0  0  0  0
 15 14  1  0  0  0  0
 15 21  1  0  0  0  0
 16 15  2  0  0  0  0
 17 18  2  0  0  0  0
 17 16  1  0  0  0  0
 18 19  1  0  0  0  0
 19 14  2  0  0  0  0
 22 16  1  0  0  0  0
 23 24  1  0  0  0  0
 23  2  1  0  0  0  0
 24 31  1  0  0  0  0
 25 27  1  0  0  0  0
 25 24  2  0  0  0  0
 26 25  1  0  0  0  0
 27 29  2  0  0  0  0
 28 27  1  0  0  0  0
 29 44  1  0  0  0  0
 29 30  1  0  0  0  0
 30 33  1  0  0  0  0
 31 30  2  0  0  0  0
 31 32  1  0  0  0  0
 33 34  1  0  0  0  0
 34 35  1  0  0  0  0
 35 37  2  0  0  0  0
 35 36  1  0  0  0  0
 37 38  1  0  0  0  0
 39 40  1  0  0  0  0
 39 37  1  0  0  0  0
 41 39  2  0  0  0  0
 42 41  1  0  0  0  0
 43 41  1  0  0  0  0
 43 34  2  0  0  0  0
 44 43  1  0  0  0  0
 45 44  1  0  0  0  0
 46  2  1  0  0  0  0
 46 47  1  0  0  0  0
 47 48  1  0  0  0  0
 47 50  1  0  0  0  0
 49 47  1  0  0  0  0
M  END
>  <minimizedAffinity>
-6.79997158

$$$$

 OpenBabel03272501033D

 50 54  0  0  0  0  0  0  0  0999 V2000
   43.0650   24.3420   33.5120 O   0  0  0  0  0  0  0  0  0  0  0  0
   42.5140   25.0600   34.7380 P   0  0  1  0  0  0  0  0  0  0  0  0
   41.4680   26.2640   34.1830 O   0  0  0  0  0  0  0  0  0  0  0  0
   39.7300   25.3640   32.3320 F   0  0  0  0  0  0  0  0  0  0  0  0
   39.2200   25.9440   33.4590 C   0  0  0  0  0  0  0  0  0  0  0  0
   37.8730   26.0890   33.6890 C   0  0  0  0  0  0  0  0  0  0  0  0
   37.4530   26.6800   34.8390 C   0  0  0  0  0  0  0  0  0  0  0  0
   38.3270   27.1530   35.8100 C   0  0  0  0  0  0  0  0  0  0  0  0
   39.6880   27.0010   35.5650 C   0  0  0  0  0  0  0  0  0  0  0  0
   40.1400   26.3990   34.3950 C   0  0  0  0  0  0  0  0  0  0  0  0
   36.3980   26.8090   35.0520 H   0  0  0  0  0  0  0  0  0  0  0  0
   37.9470   27.6180   36.7130 H   0  0  0  0  0  0  0  0  0  0  0  0
   40.3560   27.3750   36.3340 H   0  0  0  0  0  0  0  0  0  0  0  0
   35.3730   26.1330   31.0160 C   0  0  0  0  0  0  0  0  0  0  0  0
   35.1360   24.7810   30.7470 C   0  0  0  0  0  0  0  0  0  0  0  0
   35.8500   23.8480   31.4990 C   0  0  0  0  0  0  0  0  0  0  0  0
   36.7350   24.2700   32.4500 N   0  0  0  0  0  0  0  0  0  0  0  0
   36.9340   25.5980   32.6800 C   0  0  0  0  0  0  0  0  0  0  0  0
   36.2470   26.5140   31.9560 N   0  0  0  0  0  0  0  0  0  0  0  0
   34.8320   26.8840   30.4490 H   0  0  0  0  0  0  0  0  0  0  0  0
   34.4300   24.4580   29.9880 H   0  0  0  0  0  0  0  0  0  0  0  0
   35.6880   22.7960   31.3120 H   0  0  0  0  0  0  0  0  0  0  0  0
   41.8120   23.9020   35.7190 O   0  0  0  0  0  0  0  0  0  0  0  0
   40.5940   23.3100   35.4170 C   0  0  0  0  0  0  0  0  0  0  0  0
   39.5280   23.3990   36.2880 C   0  0  0  0  0  0  0  0  0  0  0  0
   39.6160   23.9320   37.2240 H   0  0  0  0  0  0  0  0  0  0  0  0
   38.3460   22.7860   35.9220 C   0  0  0  0  0  0  0  0  0  0  0  0
   37.5310   22.8900   36.6550 H   0  0  0  0  0  0  0  0  0  0  0  0
   38.1300   22.0830   34.7530 C   0  0  0  0  0  0  0  0  0  0  0  0
   39.2300   22.0320   33.9320 C   0  0  0  0  0  0  0  0  0  0  0  0
   40.4320   22.6190   34.2340 C   0  0  0  0  0  0  0  0  0  0  0  0
   41.2830   22.5510   33.5470 H   0  0  0  0  0  0  0  0  0  0  0  0
   39.1150   21.1680   32.3940 S   0  0  0  0  0  0  0  0  0  0  0  0
   37.4750   20.5300   32.2850 C   0  0  0  0  0  0  0  0  0  0  0  0
   37.0500   19.8120   31.2260 C   0  0  0  0  0  0  0  0  0  0  0  0
   37.7770   19.6390   30.4230 H   0  0  0  0  0  0  0  0  0  0  0  0
   35.7800   19.2850   31.0780 C   0  0  0  0  0  0  0  0  0  0  0  0
   35.5420   18.7210   30.1840 H   0  0  0  0  0  0  0  0  0  0  0  0
   34.9120   19.5360   32.1210 C   0  0  0  0  0  0  0  0  0  0  0  0
   33.9150   19.1460   32.0520 H   0  0  0  0  0  0  0  0  0  0  0  0
   35.3400   20.2700   33.2090 C   0  0  0  0  0  0  0  0  0  0  0  0
   34.5720   20.4140   33.9850 H   0  0  0  0  0  0  0  0  0  0  0  0
   36.6150   20.7830   33.3260 C   0  0  0  0  0  0  0  0  0  0  0  0
   36.8630   21.5000   34.5010 N   0  0  0  0  0  0  0  0  0  0  0  0
   36.1410   21.6410   35.2390 H   0  0  0  0  0  0  0  0  0  0  0  0
   43.8580   25.7490   35.5420 O   0  0  0  0  0  0  0  0  0  0  0  0
   44.5200   24.8560   36.3370 C   0  0  0  0  0  0  0  0  0  0  0  0
   44.6360   23.6140   35.7650 F   0  0  0  0  0  0  0  0  0  0  0  0
   45.7770   25.3510   36.5480 F   0  0  0  0  0  0  0  0  0  0  0  0
   43.8750   24.7290   37.5640 F   0  0  0  0  0  0  0  0  0  0  0  0
  2  1  2  6  0  0  0
  2 46  1  0  0  0  0
  2 23  1  0  0  0  0
  3 10  1  0  0  0  0
  3  2  1  0  0  0  0
  4  5  1  0  0  0  0
  5  6  2  0  0  0  0
  5 10  1  0  0  0  0
  6  7  1  0  0  0  0
  7 11  1  0  0  0  0
  7  8  2  0  0  0  0
  8 12  1  0  0  0  0
  9  8  1  0  0  0  0
  9 13  1  0  0  0  0
 10  9  2  0  0  0  0
 14 19  1  0  0  0  0
 15 14  2  0  0  0  0
 15 16  1  0  0  0  0
 16 17  2  0  0  0  0
 17 18  1  0  0  0  0
 18  6  1  0  0  0  0
 19 18  2  0  0  0  0
 20 14  1  0  0  0  0
 21 15  1  0  0  0  0
 22 16  1  0  0  0  0
 24 23  1  0  0  0  0
 24 25  1  0  0  0  0
 25 26  1  0  0  0  0
 27 25  2  0  0  0  0
 27 28  1  0  0  0  0
 29 27  1  0  0  0  0
 30 31  1  0  0  0  0
 30 29  2  0  0  0  0
 31 24  2  0  0  0  0
 32 31  1  0  0  0  0
 33 30  1  0  0  0  0
 34 33  1  0  0  0  0
 34 43  1  0  0  0  0
 35 34  2  0  0  0  0
 36 35  1  0  0  0  0
 37 35  1  0  0  0  0
 37 39  2  0  0  0  0
 38 37  1  0  0  0  0
 39 41  1  0  0  0  0
 40 39  1  0  0  0  0
 41 43  2  0  0  0  0
 41 42  1  0  0  0  0
 43 44  1  0  0  0  0
 44 29  1  0  0  0  0
 44 45  1  0  0  0  0
 46 47  1  0  0  0  0
 47 49  1  0  0  0  0
 47 50  1  0  0  0  0
 48 47  1  0  0  0  0
M  END
>  <minimizedAffinity>
-6.77975273

$$$$

 OpenBabel03272501033D

 50 54  0  0  0  0  0  0  0  0999 V2000
   40.1350   22.0470   35.3610 O   0  0  0  0  0  0  0  0  0  0  0  0
   39.2280   23.0530   36.0630 P   0  0  1  0  0  0  0  0  0  0  0  0
   39.7530   24.5940   35.6140 O   0  0  0  0  0  0  0  0  0  0  0  0
   37.5850   26.1940   35.6130 F   0  0  0  0  0  0  0  0  0  0  0  0
   38.3400   26.1390   34.4750 C   0  0  0  0  0  0  0  0  0  0  0  0
   38.0460   26.8550   33.3400 C   0  0  0  0  0  0  0  0  0  0  0  0
   38.8530   26.7400   32.2510 C   0  0  0  0  0  0  0  0  0  0  0  0
   39.9760   25.9220   32.2250 C   0  0  0  0  0  0  0  0  0  0  0  0
   40.2620   25.2010   33.3800 C   0  0  0  0  0  0  0  0  0  0  0  0
   39.4500   25.3050   34.5050 C   0  0  0  0  0  0  0  0  0  0  0  0
   38.6500   27.2910   31.3400 H   0  0  0  0  0  0  0  0  0  0  0  0
   40.5910   25.8610   31.3330 H   0  0  0  0  0  0  0  0  0  0  0  0
   41.1430   24.5690   33.3420 H   0  0  0  0  0  0  0  0  0  0  0  0
   35.0070   28.5240   32.1680 C   0  0  0  0  0  0  0  0  0  0  0  0
   34.6190   29.3260   33.2470 C   0  0  0  0  0  0  0  0  0  0  0  0
   35.4190   29.2860   34.3890 C   0  0  0  0  0  0  0  0  0  0  0  0
   36.5270   28.4880   34.4200 N   0  0  0  0  0  0  0  0  0  0  0  0
   36.8680   27.7230   33.3450 C   0  0  0  0  0  0  0  0  0  0  0  0
   36.0990   27.7520   32.2300 N   0  0  0  0  0  0  0  0  0  0  0  0
   34.4050   28.5330   31.2650 H   0  0  0  0  0  0  0  0  0  0  0  0
   33.7360   29.9550   33.2110 H   0  0  0  0  0  0  0  0  0  0  0  0
   35.1430   29.8950   35.2390 H   0  0  0  0  0  0  0  0  0  0  0  0
   37.6540   22.6830   35.6390 O   0  0  0  0  0  0  0  0  0  0  0  0
   37.3420   21.9270   34.5180 C   0  0  0  0  0  0  0  0  0  0  0  0
   36.2310   21.1100   34.5010 C   0  0  0  0  0  0  0  0  0  0  0  0
   35.5770   21.0410   35.3590 H   0  0  0  0  0  0  0  0  0  0  0  0
   35.9820   20.3870   33.3510 C   0  0  0  0  0  0  0  0  0  0  0  0
   35.0820   19.7530   33.3960 H   0  0  0  0  0  0  0  0  0  0  0  0
   36.7520   20.4040   32.2040 C   0  0  0  0  0  0  0  0  0  0  0  0
   37.8420   21.2360   32.2880 C   0  0  0  0  0  0  0  0  0  0  0  0
   38.1460   21.9810   33.3980 C   0  0  0  0  0  0  0  0  0  0  0  0
   39.0280   22.6320   33.4180 H   0  0  0  0  0  0  0  0  0  0  0  0
   38.9290   21.3710   30.9000 S   0  0  0  0  0  0  0  0  0  0  0  0
   38.2890   20.3120   29.6430 C   0  0  0  0  0  0  0  0  0  0  0  0
   38.8850   20.1780   28.4420 C   0  0  0  0  0  0  0  0  0  0  0  0
   39.7990   20.7630   28.2750 H   0  0  0  0  0  0  0  0  0  0  0  0
   38.4370   19.3670   27.4150 C   0  0  0  0  0  0  0  0  0  0  0  0
   38.9940   19.3330   26.4860 H   0  0  0  0  0  0  0  0  0  0  0  0
   37.2850   18.6570   27.6840 C   0  0  0  0  0  0  0  0  0  0  0  0
   36.8990   18.0130   26.9180 H   0  0  0  0  0  0  0  0  0  0  0  0
   36.6680   18.7880   28.9120 C   0  0  0  0  0  0  0  0  0  0  0  0
   35.7580   18.1800   29.0260 H   0  0  0  0  0  0  0  0  0  0  0  0
   37.1420   19.6070   29.9170 C   0  0  0  0  0  0  0  0  0  0  0  0
   36.3820   19.6100   31.0910 N   0  0  0  0  0  0  0  0  0  0  0  0
   35.5190   19.0370   31.2060 H   0  0  0  0  0  0  0  0  0  0  0  0
   39.4390   22.8060   37.7430 O   0  0  0  0  0  0  0  0  0  0  0  0
   38.5490   23.5110   38.5010 C   0  0  0  0  0  0  0  0  0  0  0  0
   37.4460   22.7750   38.8550 F   0  0  0  0  0  0  0  0  0  0  0  0
   39.1970   23.8900   39.6450 F   0  0  0  0  0  0  0  0  0  0  0  0
   38.1310   24.6520   37.8220 F   0  0  0  0  0  0  0  0  0  0  0  0
  2  1  2  6  0  0  0
  2 46  1  0  0  0  0
  3  2  1  0  0  0  0
  5 10  1  0  0  0  0
  5  4  1  0  0  0  0
  6 18  1  0  0  0  0
  6  5  2  0  0  0  0
  7  6  1  0  0  0  0
  8  7  2  0  0  0  0
  8  9  1  0  0  0  0
  9 10  2  0  0  0  0
 10  3  1  0  0  0  0
 11  7  1  0  0  0  0
 12  8  1  0  0  0  0
 13  9  1  0  0  0  0
 14 19  2  0  0  0  0
 14 15  1  0  0  0  0
 15 16  2  0  0  0  0
 16 17  1  0  0  0  0
 16 22  1  0  0  0  0
 18 17  2  0  0  0  0
 19 18  1  0  0  0  0
 20 14  1  0  0  0  0
 21 15  1  0  0  0  0
 23  2  1  0  0  0  0
 24 23  1  0  0  0  0
 25 24  1  0  0  0  0
 25 26  1  0  0  0  0
 27 28  1  0  0  0  0
 27 25  2  0  0  0  0
 29 30  2  0  0  0  0
 29 27  1  0  0  0  0
 30 31  1  0  0  0  0
 31 32  1  0  0  0  0
 31 24  2  0  0  0  0
 33 30  1  0  0  0  0
 34 43  1  0  0  0  0
 34 33  1  0  0  0  0
 35 34  2  0  0  0  0
 36 35  1  0  0  0  0
 37 39  2  0  0  0  0
 37 35  1  0  0  0  0
 38 37  1  0  0  0  0
 39 41  1  0  0  0  0
 40 39  1  0  0  0  0
 41 42  1  0  0  0  0
 41 43  2  0  0  0  0
 43 44  1  0  0  0  0
 44 45  1  0  0  0  0
 44 29  1  0  0  0  0
 46 47  1  0  0  0  0
 47 48  1  0  0  0  0
 47 49  1  0  0  0  0
 50 47  1  0  0  0  0
M  END
>  <minimizedAffinity>
-6.73677492

$$$$

 OpenBabel03272501033D

 50 54  0  0  0  0  0  0  0  0999 V2000
   37.7820   21.5100   30.7090 O   0  0  0  0  0  0  0  0  0  0  0  0
   37.0150   21.2070   31.9920 P   0  0  1  0  0  0  0  0  0  0  0  0
   38.1440   21.1560   33.2470 O   0  0  0  0  0  0  0  0  0  0  0  0
   39.9940   23.0300   32.6800 F   0  0  0  0  0  0  0  0  0  0  0  0
   39.3850   23.0820   33.9010 C   0  0  0  0  0  0  0  0  0  0  0  0
   39.6700   24.0390   34.8460 C   0  0  0  0  0  0  0  0  0  0  0  0
   39.0150   24.0160   36.0380 C   0  0  0  0  0  0  0  0  0  0  0  0
   38.0570   23.0610   36.3560 C   0  0  0  0  0  0  0  0  0  0  0  0
   37.7780   22.0980   35.3910 C   0  0  0  0  0  0  0  0  0  0  0  0
   38.4360   22.1030   34.1660 C   0  0  0  0  0  0  0  0  0  0  0  0
   39.2160   24.7550   36.8040 H   0  0  0  0  0  0  0  0  0  0  0  0
   37.5600   23.0810   37.3190 H   0  0  0  0  0  0  0  0  0  0  0  0
   37.0260   21.3610   35.6570 H   0  0  0  0  0  0  0  0  0  0  0  0
   41.1110   27.2180   33.7450 C   0  0  0  0  0  0  0  0  0  0  0  0
   42.4900   27.0440   33.9090 C   0  0  0  0  0  0  0  0  0  0  0  0
   42.9210   25.8140   34.4060 C   0  0  0  0  0  0  0  0  0  0  0  0
   42.0100   24.8420   34.7090 N   0  0  0  0  0  0  0  0  0  0  0  0
   40.6760   25.0540   34.5330 C   0  0  0  0  0  0  0  0  0  0  0  0
   40.2440   26.2450   34.0520 N   0  0  0  0  0  0  0  0  0  0  0  0
   40.7440   28.1640   33.3600 H   0  0  0  0  0  0  0  0  0  0  0  0
   43.2030   27.8240   33.6650 H   0  0  0  0  0  0  0  0  0  0  0  0
   43.9810   25.6510   34.5430 H   0  0  0  0  0  0  0  0  0  0  0  0
   35.8270   22.3720   32.1480 O   0  0  0  0  0  0  0  0  0  0  0  0
   35.9700   23.6550   31.6380 C   0  0  0  0  0  0  0  0  0  0  0  0
   34.8660   24.4280   31.3450 C   0  0  0  0  0  0  0  0  0  0  0  0
   33.8650   24.0540   31.5060 H   0  0  0  0  0  0  0  0  0  0  0  0
   35.0840   25.6960   30.8420 C   0  0  0  0  0  0  0  0  0  0  0  0
   34.1670   26.2660   30.6270 H   0  0  0  0  0  0  0  0  0  0  0  0
   36.3180   26.2670   30.6010 C   0  0  0  0  0  0  0  0  0  0  0  0
   37.3740   25.4450   30.9140 C   0  0  0  0  0  0  0  0  0  0  0  0
   37.2270   24.1780   31.4170 C   0  0  0  0  0  0  0  0  0  0  0  0
   38.1010   23.5590   31.6520 H   0  0  0  0  0  0  0  0  0  0  0  0
   39.0230   26.0310   30.6640 S   0  0  0  0  0  0  0  0  0  0  0  0
   38.8930   27.6670   30.0180 C   0  0  0  0  0  0  0  0  0  0  0  0
   39.9770   28.4080   29.7120 C   0  0  0  0  0  0  0  0  0  0  0  0
   40.9570   27.9450   29.8840 H   0  0  0  0  0  0  0  0  0  0  0  0
   39.9460   29.6940   29.2040 C   0  0  0  0  0  0  0  0  0  0  0  0
   40.8790   30.2020   28.9930 H   0  0  0  0  0  0  0  0  0  0  0  0
   38.6850   30.2210   29.0100 C   0  0  0  0  0  0  0  0  0  0  0  0
   38.6100   31.2170   28.6170 H   0  0  0  0  0  0  0  0  0  0  0  0
   37.5710   29.4680   29.3200 C   0  0  0  0  0  0  0  0  0  0  0  0
   36.6150   29.9790   29.1290 H   0  0  0  0  0  0  0  0  0  0  0  0
   37.6360   28.1860   29.8270 C   0  0  0  0  0  0  0  0  0  0  0  0
   36.4010   27.5820   30.0800 N   0  0  0  0  0  0  0  0  0  0  0  0
   35.4920   28.0600   29.9020 H   0  0  0  0  0  0  0  0  0  0  0  0
   36.2850   19.6750   31.7700 O   0  0  0  0  0  0  0  0  0  0  0  0
   35.2290   19.4620   32.6090 C   0  0  0  0  0  0  0  0  0  0  0  0
   34.0450   19.9480   32.1130 F   0  0  0  0  0  0  0  0  0  0  0  0
   35.1020   18.1090   32.7700 F   0  0  0  0  0  0  0  0  0  0  0  0
   35.4710   20.0420   33.8510 F   0  0  0  0  0  0  0  0  0  0  0  0
  2  1  2  6  0  0  0
  2 23  1  0  0  0  0
  2  3  1  0  0  0  0
  3 10  1  0  0  0  0
  4  5  1  0  0  0  0
  5 10  2  0  0  0  0
  5  6  1  0  0  0  0
  6  7  2  0  0  0  0
  7  8  1  0  0  0  0
  7 11  1  0  0  0  0
  8 12  1  0  0  0  0
  9 13  1  0  0  0  0
  9  8  2  0  0  0  0
 10  9  1  0  0  0  0
 14 15  2  0  0  0  0
 14 19  1  0  0  0  0
 15 16  1  0  0  0  0
 16 22  1  0  0  0  0
 16 17  2  0  0  0  0
 18 17  1  0  0  0  0
 18  6  1  0  0  0  0
 19 18  2  0  0  0  0
 20 14  1  0  0  0  0
 21 15  1  0  0  0  0
 24 23  1  0  0  0  0
 25 26  1  0  0  0  0
 25 24  2  0  0  0  0
 27 25  1  0  0  0  0
 28 27  1  0  0  0  0
 29 27  2  0  0  0  0
 29 30  1  0  0  0  0
 30 31  2  0  0  0  0
 31 24  1  0  0  0  0
 31 32  1  0  0  0  0
 33 30  1  0  0  0  0
 34 33  1  0  0  0  0
 35 36  1  0  0  0  0
 35 34  2  0  0  0  0
 37 35  1  0  0  0  0
 38 37  1  0  0  0  0
 39 37  2  0  0  0  0
 39 41  1  0  0  0  0
 40 39  1  0  0  0  0
 41 43  2  0  0  0  0
 42 41  1  0  0  0  0
 43 34  1  0  0  0  0
 43 44  1  0  0  0  0
 44 29  1  0  0  0  0
 45 44  1  0  0  0  0
 46  2  1  0  0  0  0
 46 47  1  0  0  0  0
 47 49  1  0  0  0  0
 47 50  1  0  0  0  0
 48 47  1  0  0  0  0
M  END
>  <minimizedAffinity>
-6.67481899

$$$$

 OpenBabel03272501033D

 50 54  0  0  0  0  0  0  0  0999 V2000
   36.0220   27.2800   30.4470 O   0  0  0  0  0  0  0  0  0  0  0  0
   36.9030   28.5090   30.2550 P   0  0  1  0  0  0  0  0  0  0  0  0
   35.9200   29.8650   30.4640 O   0  0  0  0  0  0  0  0  0  0  0  0
   34.6430   29.9720   32.8340 F   0  0  0  0  0  0  0  0  0  0  0  0
   35.4610   31.0150   32.5010 C   0  0  0  0  0  0  0  0  0  0  0  0
   35.6600   32.1060   33.3120 C   0  0  0  0  0  0  0  0  0  0  0  0
   36.4920   33.1000   32.9010 C   0  0  0  0  0  0  0  0  0  0  0  0
   37.1620   33.0700   31.6840 C   0  0  0  0  0  0  0  0  0  0  0  0
   36.9520   31.9600   30.8720 C   0  0  0  0  0  0  0  0  0  0  0  0
   36.1050   30.9320   31.2730 C   0  0  0  0  0  0  0  0  0  0  0  0
   36.6710   33.9740   33.5160 H   0  0  0  0  0  0  0  0  0  0  0  0
   37.8170   33.8860   31.3970 H   0  0  0  0  0  0  0  0  0  0  0  0
   37.4840   31.9540   29.9250 H   0  0  0  0  0  0  0  0  0  0  0  0
   32.9460   32.5230   35.7320 C   0  0  0  0  0  0  0  0  0  0  0  0
   33.5520   32.2830   36.9700 C   0  0  0  0  0  0  0  0  0  0  0  0
   34.9120   31.9740   36.9630 C   0  0  0  0  0  0  0  0  0  0  0  0
   35.5940   31.9170   35.7820 N   0  0  0  0  0  0  0  0  0  0  0  0
   34.9640   32.1590   34.5980 C   0  0  0  0  0  0  0  0  0  0  0  0
   33.6430   32.4590   34.5910 N   0  0  0  0  0  0  0  0  0  0  0  0
   31.8890   32.7660   35.7040 H   0  0  0  0  0  0  0  0  0  0  0  0
   32.9990   32.3310   37.9030 H   0  0  0  0  0  0  0  0  0  0  0  0
   35.4070   31.7830   37.9060 H   0  0  0  0  0  0  0  0  0  0  0  0
   38.1790   28.3800   31.3270 O   0  0  0  0  0  0  0  0  0  0  0  0
   38.0930   27.6460   32.5020 C   0  0  0  0  0  0  0  0  0  0  0  0
   37.0520   27.8420   33.3850 C   0  0  0  0  0  0  0  0  0  0  0  0
   36.2800   28.5700   33.1840 H   0  0  0  0  0  0  0  0  0  0  0  0
   37.0310   27.0750   34.5340 C   0  0  0  0  0  0  0  0  0  0  0  0
   36.1780   27.2750   35.2010 H   0  0  0  0  0  0  0  0  0  0  0  0
   37.9650   26.1200   34.8840 C   0  0  0  0  0  0  0  0  0  0  0  0
   38.9730   25.9750   33.9620 C   0  0  0  0  0  0  0  0  0  0  0  0
   39.0540   26.7030   32.8030 C   0  0  0  0  0  0  0  0  0  0  0  0
   39.8790   26.5520   32.0970 H   0  0  0  0  0  0  0  0  0  0  0  0
   40.2500   24.7890   34.2640 S   0  0  0  0  0  0  0  0  0  0  0  0
   39.8810   24.0200   35.8070 C   0  0  0  0  0  0  0  0  0  0  0  0
   40.6630   23.0590   36.3390 C   0  0  0  0  0  0  0  0  0  0  0  0
   41.5510   22.7710   35.7620 H   0  0  0  0  0  0  0  0  0  0  0  0
   40.4310   22.4170   37.5410 C   0  0  0  0  0  0  0  0  0  0  0  0
   41.1260   21.6560   37.8760 H   0  0  0  0  0  0  0  0  0  0  0  0
   39.3000   22.8230   38.2190 C   0  0  0  0  0  0  0  0  0  0  0  0
   39.0790   22.3540   39.1580 H   0  0  0  0  0  0  0  0  0  0  0  0
   38.4940   23.8070   37.6820 C   0  0  0  0  0  0  0  0  0  0  0  0
   37.6180   24.0580   38.2990 H   0  0  0  0  0  0  0  0  0  0  0  0
   38.7540   24.4290   36.4780 C   0  0  0  0  0  0  0  0  0  0  0  0
   37.8230   25.4020   36.0970 N   0  0  0  0  0  0  0  0  0  0  0  0
   36.9920   25.6440   36.6760 H   0  0  0  0  0  0  0  0  0  0  0  0
   37.4970   28.4330   28.6520 O   0  0  0  0  0  0  0  0  0  0  0  0
   38.1460   29.5720   28.2690 C   0  0  0  0  0  0  0  0  0  0  0  0
   37.2890   30.5840   27.9180 F   0  0  0  0  0  0  0  0  0  0  0  0
   38.8950   29.9930   29.3330 F   0  0  0  0  0  0  0  0  0  0  0  0
   38.9970   29.3080   27.1980 F   0  0  0  0  0  0  0  0  0  0  0  0
  2  1  2  1  0  0  0
  2  3  1  0  0  0  0
  2 23  1  0  0  0  0
  3 10  1  0  0  0  0
  5  4  1  0  0  0  0
  5  6  1  0  0  0  0
  6 18  1  0  0  0  0
  7  6  2  0  0  0  0
  7 11  1  0  0  0  0
  8  7  1  0  0  0  0
  9 10  1  0  0  0  0
  9  8  2  0  0  0  0
 10  5  2  0  0  0  0
 12  8  1  0  0  0  0
 13  9  1  0  0  0  0
 14 15  1  0  0  0  0
 15 21  1  0  0  0  0
 16 15  2  0  0  0  0
 16 22  1  0  0  0  0
 17 16  1  0  0  0  0
 18 17  2  0  0  0  0
 19 18  1  0  0  0  0
 19 14  2  0  0  0  0
 20 14  1  0  0  0  0
 23 24  1  0  0  0  0
 24 31  2  0  0  0  0
 24 25  1  0  0  0  0
 25 27  2  0  0  0  0
 26 25  1  0  0  0  0
 27 29  1  0  0  0  0
 27 28  1  0  0  0  0
 29 44  1  0  0  0  0
 30 33  1  0  0  0  0
 30 29  2  0  0  0  0
 31 30  1  0  0  0  0
 32 31  1  0  0  0  0
 33 34  1  0  0  0  0
 34 35  2  0  0  0  0
 34 43  1  0  0  0  0
 35 37  1  0  0  0  0
 36 35  1  0  0  0  0
 37 38  1  0  0  0  0
 37 39  2  0  0  0  0
 39 40  1  0  0  0  0
 41 39  1  0  0  0  0
 41 42  1  0  0  0  0
 43 41  2  0  0  0  0
 44 43  1  0  0  0  0
 44 45  1  0  0  0  0
 46  2  1  0  0  0  0
 47 46  1  0  0  0  0
 47 49  1  0  0  0  0
 48 47  1  0  0  0  0
 50 47  1  0  0  0  0
M  END
>  <minimizedAffinity>
-6.66656399

$$$$

 OpenBabel03272501033D

 50 54  0  0  0  0  0  0  0  0999 V2000
   35.9180   26.8530   31.0070 O   0  0  0  0  0  0  0  0  0  0  0  0
   36.4520   28.2810   30.9700 P   0  0  1  0  0  0  0  0  0  0  0  0
   35.1760   29.3010   31.3990 O   0  0  0  0  0  0  0  0  0  0  0  0
   32.8880   28.4780   32.5580 F   0  0  0  0  0  0  0  0  0  0  0  0
   33.6680   29.3680   33.2420 C   0  0  0  0  0  0  0  0  0  0  0  0
   33.3410   29.8580   34.4840 C   0  0  0  0  0  0  0  0  0  0  0  0
   34.1760   30.7410   35.0940 C   0  0  0  0  0  0  0  0  0  0  0  0
   35.3620   31.1820   34.5180 C   0  0  0  0  0  0  0  0  0  0  0  0
   35.6810   30.6780   33.2610 C   0  0  0  0  0  0  0  0  0  0  0  0
   34.8410   29.7740   32.6190 C   0  0  0  0  0  0  0  0  0  0  0  0
   33.9490   31.1470   36.0720 H   0  0  0  0  0  0  0  0  0  0  0  0
   35.9970   31.8880   35.0410 H   0  0  0  0  0  0  0  0  0  0  0  0
   36.6110   31.0330   32.8270 H   0  0  0  0  0  0  0  0  0  0  0  0
   31.0840   28.0280   36.7100 C   0  0  0  0  0  0  0  0  0  0  0  0
   29.8090   28.4890   36.3590 C   0  0  0  0  0  0  0  0  0  0  0  0
   29.7350   29.4410   35.3420 C   0  0  0  0  0  0  0  0  0  0  0  0
   30.8760   29.8840   34.7360 N   0  0  0  0  0  0  0  0  0  0  0  0
   32.0970   29.4080   35.1090 C   0  0  0  0  0  0  0  0  0  0  0  0
   32.1830   28.4830   36.0950 N   0  0  0  0  0  0  0  0  0  0  0  0
   31.1750   27.2870   37.4970 H   0  0  0  0  0  0  0  0  0  0  0  0
   28.9110   28.1290   36.8490 H   0  0  0  0  0  0  0  0  0  0  0  0
   28.7640   29.8150   35.0510 H   0  0  0  0  0  0  0  0  0  0  0  0
   37.7840   28.3410   31.9780 O   0  0  0  0  0  0  0  0  0  0  0  0
   37.9800   27.4310   33.0070 C   0  0  0  0  0  0  0  0  0  0  0  0
   37.0910   27.3460   34.0580 C   0  0  0  0  0  0  0  0  0  0  0  0
   36.2210   27.9850   34.1050 H   0  0  0  0  0  0  0  0  0  0  0  0
   37.3500   26.4170   35.0460 C   0  0  0  0  0  0  0  0  0  0  0  0
   36.6070   26.3940   35.8590 H   0  0  0  0  0  0  0  0  0  0  0  0
   38.4290   25.5550   35.0810 C   0  0  0  0  0  0  0  0  0  0  0  0
   39.2740   25.6910   34.0070 C   0  0  0  0  0  0  0  0  0  0  0  0
   39.0760   26.5920   32.9930 C   0  0  0  0  0  0  0  0  0  0  0  0
   39.7790   26.6640   32.1550 H   0  0  0  0  0  0  0  0  0  0  0  0
   40.7050   24.6570   33.9030 S   0  0  0  0  0  0  0  0  0  0  0  0
   40.6910   23.6180   35.3270 C   0  0  0  0  0  0  0  0  0  0  0  0
   41.6530   22.7020   35.5600 C   0  0  0  0  0  0  0  0  0  0  0  0
   42.4550   22.6280   34.8150 H   0  0  0  0  0  0  0  0  0  0  0  0
   41.7010   21.8570   36.6540 C   0  0  0  0  0  0  0  0  0  0  0  0
   42.5220   21.1550   36.7440 H   0  0  0  0  0  0  0  0  0  0  0  0
   40.6660   21.9980   37.5540 C   0  0  0  0  0  0  0  0  0  0  0  0
   40.6600   21.3640   38.4200 H   0  0  0  0  0  0  0  0  0  0  0  0
   39.6770   22.9340   37.3240 C   0  0  0  0  0  0  0  0  0  0  0  0
   38.8980   22.9670   38.1000 H   0  0  0  0  0  0  0  0  0  0  0  0
   39.6580   23.7630   36.2200 C   0  0  0  0  0  0  0  0  0  0  0  0
   38.5760   24.6470   36.1590 N   0  0  0  0  0  0  0  0  0  0  0  0
   37.8340   24.6830   36.8900 H   0  0  0  0  0  0  0  0  0  0  0  0
   36.9450   28.5720   29.3580 O   0  0  0  0  0  0  0  0  0  0  0  0
   37.7090   29.6960   29.2280 C   0  0  0  0  0  0  0  0  0  0  0  0
   37.4000   30.6640   30.1520 F   0  0  0  0  0  0  0  0  0  0  0  0
   39.0140   29.3270   29.4140 F   0  0  0  0  0  0  0  0  0  0  0  0
   37.5720   30.2320   27.9500 F   0  0  0  0  0  0  0  0  0  0  0  0
  2  1  2  1  0  0  0
  2  3  1  0  0  0  0
  2 23  1  0  0  0  0
  3 10  1  0  0  0  0
  4  5  1  0  0  0  0
  5  6  1  0  0  0  0
  6  7  2  0  0  0  0
  6 18  1  0  0  0  0
  7 11  1  0  0  0  0
  8 12  1  0  0  0  0
  8  7  1  0  0  0  0
  9  8  2  0  0  0  0
 10  5  2  0  0  0  0
 10  9  1  0  0  0  0
 13  9  1  0  0  0  0
 14 20  1  0  0  0  0
 15 14  1  0  0  0  0
 15 21  1  0  0  0  0
 16 15  2  0  0  0  0
 17 18  2  0  0  0  0
 17 16  1  0  0  0  0
 18 19  1  0  0  0  0
 19 14  2  0  0  0  0
 22 16  1  0  0  0  0
 23 24  1  0  0  0  0
 24 25  1  0  0  0  0
 25 26  1  0  0  0  0
 25 27  2  0  0  0  0
 27 29  1  0  0  0  0
 27 28  1  0  0  0  0
 29 44  1  0  0  0  0
 30 29  2  0  0  0  0
 31 24  2  0  0  0  0
 31 30  1  0  0  0  0
 32 31  1  0  0  0  0
 33 30  1  0  0  0  0
 33 34  1  0  0  0  0
 34 35  2  0  0  0  0
 34 43  1  0  0  0  0
 35 37  1  0  0  0  0
 36 35  1  0  0  0  0
 37 38  1  0  0  0  0
 37 39  2  0  0  0  0
 39 40  1  0  0  0  0
 41 39  1  0  0  0  0
 41 42  1  0  0  0  0
 43 41  2  0  0  0  0
 44 43  1  0  0  0  0
 44 45  1  0  0  0  0
 46  2  1  0  0  0  0
 47 46  1  0  0  0  0
 47 49  1  0  0  0  0
 47 48  1  0  0  0  0
 50 47  1  0  0  0  0
M  END
>  <minimizedAffinity>
-6.64186716

$$$$

 OpenBabel03272501033D

 50 54  0  0  0  0  0  0  0  0999 V2000
   37.0940   25.9280   33.8860 O   0  0  0  0  0  0  0  0  0  0  0  0
   37.3690   26.4250   32.4710 P   0  0  1  0  0  0  0  0  0  0  0  0
   37.3630   28.1120   32.5260 O   0  0  0  0  0  0  0  0  0  0  0  0
   36.0930   28.6590   34.8380 F   0  0  0  0  0  0  0  0  0  0  0  0
   35.6360   29.2600   33.7000 C   0  0  0  0  0  0  0  0  0  0  0  0
   34.5660   30.1230   33.6800 C   0  0  0  0  0  0  0  0  0  0  0  0
   34.1780   30.6770   32.5010 C   0  0  0  0  0  0  0  0  0  0  0  0
   34.8150   30.4130   31.2940 C   0  0  0  0  0  0  0  0  0  0  0  0
   35.8960   29.5370   31.3280 C   0  0  0  0  0  0  0  0  0  0  0  0
   36.3100   28.9590   32.5240 C   0  0  0  0  0  0  0  0  0  0  0  0
   33.3390   31.3620   32.4500 H   0  0  0  0  0  0  0  0  0  0  0  0
   34.4700   30.8780   30.3770 H   0  0  0  0  0  0  0  0  0  0  0  0
   36.3810   29.3430   30.3760 H   0  0  0  0  0  0  0  0  0  0  0  0
   33.8100   31.7150   36.8880 C   0  0  0  0  0  0  0  0  0  0  0  0
   32.6620   31.0530   37.3370 C   0  0  0  0  0  0  0  0  0  0  0  0
   32.1480   30.0470   36.5190 C   0  0  0  0  0  0  0  0  0  0  0  0
   32.7630   29.7450   35.3370 N   0  0  0  0  0  0  0  0  0  0  0  0
   33.8800   30.4160   34.9390 C   0  0  0  0  0  0  0  0  0  0  0  0
   34.3890   31.3960   35.7240 N   0  0  0  0  0  0  0  0  0  0  0  0
   34.2350   32.5030   37.5020 H   0  0  0  0  0  0  0  0  0  0  0  0
   32.1830   31.3020   38.2780 H   0  0  0  0  0  0  0  0  0  0  0  0
   31.2610   29.5180   36.8400 H   0  0  0  0  0  0  0  0  0  0  0  0
   38.8050   25.7320   31.9700 O   0  0  0  0  0  0  0  0  0  0  0  0
   40.0180   26.0030   32.5870 C   0  0  0  0  0  0  0  0  0  0  0  0
   40.7090   27.1640   32.3110 C   0  0  0  0  0  0  0  0  0  0  0  0
   40.3220   27.8900   31.6110 H   0  0  0  0  0  0  0  0  0  0  0  0
   41.9090   27.3680   32.9630 C   0  0  0  0  0  0  0  0  0  0  0  0
   42.4160   28.3110   32.7040 H   0  0  0  0  0  0  0  0  0  0  0  0
   42.4890   26.5060   33.8750 C   0  0  0  0  0  0  0  0  0  0  0  0
   41.7510   25.3710   34.1030 C   0  0  0  0  0  0  0  0  0  0  0  0
   40.5530   25.1080   33.4910 C   0  0  0  0  0  0  0  0  0  0  0  0
   39.9990   24.1860   33.7050 H   0  0  0  0  0  0  0  0  0  0  0  0
   42.3580   24.1670   35.2470 S   0  0  0  0  0  0  0  0  0  0  0  0
   43.8940   24.7740   35.8640 C   0  0  0  0  0  0  0  0  0  0  0  0
   44.6290   24.0910   36.7640 C   0  0  0  0  0  0  0  0  0  0  0  0
   44.2250   23.1280   37.1030 H   0  0  0  0  0  0  0  0  0  0  0  0
   45.8380   24.5100   37.2880 C   0  0  0  0  0  0  0  0  0  0  0  0
   46.3480   23.8820   38.0090 H   0  0  0  0  0  0  0  0  0  0  0  0
   46.2920   25.7270   36.8250 C   0  0  0  0  0  0  0  0  0  0  0  0
   47.2280   26.0940   37.2020 H   0  0  0  0  0  0  0  0  0  0  0  0
   45.5460   26.4320   35.9010 C   0  0  0  0  0  0  0  0  0  0  0  0
   45.9950   27.3900   35.5970 H   0  0  0  0  0  0  0  0  0  0  0  0
   44.3410   25.9870   35.3980 C   0  0  0  0  0  0  0  0  0  0  0  0
   43.7300   26.8390   34.4730 N   0  0  0  0  0  0  0  0  0  0  0  0
   44.1490   27.7470   34.1790 H   0  0  0  0  0  0  0  0  0  0  0  0
   36.0870   25.8460   31.4970 O   0  0  0  0  0  0  0  0  0  0  0  0
   36.1790   24.5100   31.2320 C   0  0  0  0  0  0  0  0  0  0  0  0
   36.4730   23.7620   32.3440 F   0  0  0  0  0  0  0  0  0  0  0  0
   34.9650   24.1040   30.7500 F   0  0  0  0  0  0  0  0  0  0  0  0
   37.1490   24.2750   30.2610 F   0  0  0  0  0  0  0  0  0  0  0  0
  2  3  1  0  0  0  0
  2  1  2  1  0  0  0
  5  4  1  0  0  0  0
  6  5  1  0  0  0  0
  6 18  1  0  0  0  0
  7  6  2  0  0  0  0
  8  9  2  0  0  0  0
  8  7  1  0  0  0  0
  9 10  1  0  0  0  0
 10  3  1  0  0  0  0
 10  5  2  0  0  0  0
 11  7  1  0  0  0  0
 12  8  1  0  0  0  0
 13  9  1  0  0  0  0
 14 15  1  0  0  0  0
 14 20  1  0  0  0  0
 15 21  1  0  0  0  0
 16 22  1  0  0  0  0
 16 15  2  0  0  0  0
 17 16  1  0  0  0  0
 18 17  2  0  0  0  0
 18 19  1  0  0  0  0
 19 14  2  0  0  0  0
 23  2  1  0  0  0  0
 23 24  1  0  0  0  0
 24 31  1  0  0  0  0
 25 24  2  0  0  0  0
 25 27  1  0  0  0  0
 26 25  1  0  0  0  0
 27 29  2  0  0  0  0
 28 27  1  0  0  0  0
 29 30  1  0  0  0  0
 29 44  1  0  0  0  0
 30 33  1  0  0  0  0
 31 32  1  0  0  0  0
 31 30  2  0  0  0  0
 33 34  1  0  0  0  0
 34 35  1  0  0  0  0
 35 36  1  0  0  0  0
 35 37  2  0  0  0  0
 37 38  1  0  0  0  0
 39 40  1  0  0  0  0
 39 37  1  0  0  0  0
 41 39  2  0  0  0  0
 42 41  1  0  0  0  0
 43 34  2  0  0  0  0
 43 41  1  0  0  0  0
 44 43  1  0  0  0  0
 45 44  1  0  0  0  0
 46  2  1  0  0  0  0
 47 46  1  0  0  0  0
 47 48  1  0  0  0  0
 49 47  1  0  0  0  0
 50 47  1  0  0  0  0
M  END
>  <minimizedAffinity>
-6.63110638

$$$$

 OpenBabel03272501033D

 50 54  0  0  0  0  0  0  0  0999 V2000
   36.9450   25.1660   32.9540 O   0  0  0  0  0  0  0  0  0  0  0  0
   38.1200   25.7820   33.7050 P   0  0  1  0  0  0  0  0  0  0  0  0
   39.3710   24.6480   33.6880 O   0  0  0  0  0  0  0  0  0  0  0  0
   42.0370   24.8190   34.0380 F   0  0  0  0  0  0  0  0  0  0  0  0
   41.3210   24.0770   34.9340 C   0  0  0  0  0  0  0  0  0  0  0  0
   41.8940   23.4180   35.9960 C   0  0  0  0  0  0  0  0  0  0  0  0
   41.1050   22.7010   36.8390 C   0  0  0  0  0  0  0  0  0  0  0  0
   39.7280   22.5950   36.6820 C   0  0  0  0  0  0  0  0  0  0  0  0
   39.1610   23.2660   35.6030 C   0  0  0  0  0  0  0  0  0  0  0  0
   39.9500   24.0060   34.7280 C   0  0  0  0  0  0  0  0  0  0  0  0
   41.5240   22.1700   37.6860 H   0  0  0  0  0  0  0  0  0  0  0  0
   39.1380   22.0110   37.3800 H   0  0  0  0  0  0  0  0  0  0  0  0
   38.0850   23.1730   35.4960 H   0  0  0  0  0  0  0  0  0  0  0  0
   45.1340   24.7110   37.1030 C   0  0  0  0  0  0  0  0  0  0  0  0
   46.0610   23.7940   36.5930 C   0  0  0  0  0  0  0  0  0  0  0  0
   45.5550   22.7210   35.8590 C   0  0  0  0  0  0  0  0  0  0  0  0
   44.2080   22.5980   35.6660 N   0  0  0  0  0  0  0  0  0  0  0  0
   43.3420   23.5150   36.1810 C   0  0  0  0  0  0  0  0  0  0  0  0
   43.8200   24.5620   36.8950 N   0  0  0  0  0  0  0  0  0  0  0  0
   45.4960   25.5570   37.6770 H   0  0  0  0  0  0  0  0  0  0  0  0
   47.1280   23.9020   36.7530 H   0  0  0  0  0  0  0  0  0  0  0  0
   46.2480   21.9960   35.4530 H   0  0  0  0  0  0  0  0  0  0  0  0
   38.4700   27.2420   32.9700 O   0  0  0  0  0  0  0  0  0  0  0  0
   37.4860   28.0660   32.4440 C   0  0  0  0  0  0  0  0  0  0  0  0
   37.5800   28.5490   31.1560 C   0  0  0  0  0  0  0  0  0  0  0  0
   38.4210   28.2970   30.5260 H   0  0  0  0  0  0  0  0  0  0  0  0
   36.5620   29.3640   30.6980 C   0  0  0  0  0  0  0  0  0  0  0  0
   36.6910   29.7190   29.6640 H   0  0  0  0  0  0  0  0  0  0  0  0
   35.4470   29.7450   31.4200 C   0  0  0  0  0  0  0  0  0  0  0  0
   35.4160   29.2290   32.6930 C   0  0  0  0  0  0  0  0  0  0  0  0
   36.3910   28.4160   33.2080 C   0  0  0  0  0  0  0  0  0  0  0  0
   36.3220   28.0290   34.2310 H   0  0  0  0  0  0  0  0  0  0  0  0
   34.0510   29.6240   33.7450 S   0  0  0  0  0  0  0  0  0  0  0  0
   32.9750   30.6700   32.8200 C   0  0  0  0  0  0  0  0  0  0  0  0
   31.8280   31.1590   33.3330 C   0  0  0  0  0  0  0  0  0  0  0  0
   31.5870   30.8730   34.3650 H   0  0  0  0  0  0  0  0  0  0  0  0
   30.9420   31.9820   32.6630 C   0  0  0  0  0  0  0  0  0  0  0  0
   30.0450   32.3180   33.1700 H   0  0  0  0  0  0  0  0  0  0  0  0
   31.2990   32.3060   31.3700 C   0  0  0  0  0  0  0  0  0  0  0  0
   30.6430   32.9430   30.8100 H   0  0  0  0  0  0  0  0  0  0  0  0
   32.4730   31.8110   30.8380 C   0  0  0  0  0  0  0  0  0  0  0  0
   32.6660   32.1270   29.8010 H   0  0  0  0  0  0  0  0  0  0  0  0
   33.3370   30.9900   31.5340 C   0  0  0  0  0  0  0  0  0  0  0  0
   34.4750   30.5880   30.8280 N   0  0  0  0  0  0  0  0  0  0  0  0
   34.6640   30.8840   29.8470 H   0  0  0  0  0  0  0  0  0  0  0  0
   37.5800   26.0640   35.3030 O   0  0  0  0  0  0  0  0  0  0  0  0
   38.3260   26.9980   35.9620 C   0  0  0  0  0  0  0  0  0  0  0  0
   37.8430   28.2740   35.8120 F   0  0  0  0  0  0  0  0  0  0  0  0
   38.2960   26.6820   37.2930 F   0  0  0  0  0  0  0  0  0  0  0  0
   39.6470   26.9620   35.5220 F   0  0  0  0  0  0  0  0  0  0  0  0
  2  1  2  6  0  0  0
  2 46  1  0  0  0  0
  3  2  1  0  0  0  0
  3 10  1  0  0  0  0
  4  5  1  0  0  0  0
  5  6  1  0  0  0  0
  6 18  1  0  0  0  0
  6  7  2  0  0  0  0
  7 11  1  0  0  0  0
  8  7  1  0  0  0  0
  8 12  1  0  0  0  0
  9  8  2  0  0  0  0
 10  5  2  0  0  0  0
 10  9  1  0  0  0  0
 13  9  1  0  0  0  0
 14 20  1  0  0  0  0
 15 21  1  0  0  0  0
 15 14  2  0  0  0  0
 16 15  1  0  0  0  0
 17 16  2  0  0  0  0
 17 18  1  0  0  0  0
 18 19  2  0  0  0  0
 19 14  1  0  0  0  0
 22 16  1  0  0  0  0
 23  2  1  0  0  0  0
 24 23  1  0  0  0  0
 24 31  1  0  0  0  0
 25 24  2  0  0  0  0
 26 25  1  0  0  0  0
 27 25  1  0  0  0  0
 27 29  2  0  0  0  0
 28 27  1  0  0  0  0
 29 30  1  0  0  0  0
 30 31  2  0  0  0  0
 30 33  1  0  0  0  0
 31 32  1  0  0  0  0
 34 35  1  0  0  0  0
 34 33  1  0  0  0  0
 35 36  1  0  0  0  0
 37 38  1  0  0  0  0
 37 35  2  0  0  0  0
 39 37  1  0  0  0  0
 40 39  1  0  0  0  0
 41 39  2  0  0  0  0
 41 43  1  0  0  0  0
 42 41  1  0  0  0  0
 43 34  2  0  0  0  0
 44 29  1  0  0  0  0
 44 43  1  0  0  0  0
 45 44  1  0  0  0  0
 46 47  1  0  0  0  0
 47 49  1  0  0  0  0
 48 47  1  0  0  0  0
 50 47  1  0  0  0  0
M  END
>  <minimizedAffinity>
-6.57142782

$$$$
