REMARK  Name = 
REMARK  6 active torsions:
REMARK  status: ('A' for Active; 'I' for Inactive)
REMARK    1  A    between atoms: C_1  and  O_10
REMARK    2  A    between atoms: O_10  and  C_11
REMARK    3  A    between atoms: C_11  and  C_12
REMARK    4  A    between atoms: C_12  and  C_13
REMARK    5  A    between atoms: C_13  and  S_14
REMARK    6  A    between atoms: S_14  and  C_25
REMARK                            x       y       z     vdW  Elec       q    Type
REMARK                         _______ _______ _______ _____ _____    ______ ____
ROOT
ATOM      1  C   UNL     1      38.093  30.872  50.281  0.00  0.00    +0.000 C 
ATOM      2  H   UNL     1      37.765  31.952  50.348  0.00  0.00    +0.000 HD
ATOM      3  H   UNL     1      39.178  30.913  50.514  0.00  0.00    +0.000 HD
ENDROOT
BRANCH   1   4
ATOM      4  C   UNL     1      37.786  30.374  48.904  0.00  0.00    +0.000 C 
ATOM      5  H   UNL     1      37.046  29.525  49.063  0.00  0.00    +0.000 HD
ATOM      6  H   UNL     1      38.688  29.782  48.604  0.00  0.00    +0.000 HD
BRANCH   4   7
ATOM      7  C   UNL     1      37.288  31.263  48.029  0.00  0.00    +0.000 C 
ATOM      8  H   UNL     1      36.754  30.865  47.130  0.00  0.00    +0.000 HD
ATOM      9  H   UNL     1      36.548  31.997  48.460  0.00  0.00    +0.000 HD
BRANCH   7  10
ATOM     10  O   UNL     1      38.424  31.971  47.733  0.00  0.00    +0.000 OA
BRANCH  10  11
ATOM     11  C   UNL     1      38.674  32.319  46.434  0.00  0.00    +0.000 A 
ATOM     12  C   UNL     1      39.935  32.816  46.231  0.00  0.00    +0.000 A 
ATOM     13  C   UNL     1      40.324  33.212  44.938  0.00  0.00    +0.000 A 
ATOM     14  N   UNL     1      39.392  33.072  43.934  0.00  0.00    +0.000 NA
ATOM     15  C   UNL     1      38.140  32.571  44.175  0.00  0.00    +0.000 A 
ATOM     16  N   UNL     1      37.801  32.204  45.412  0.00  0.00    +0.000 NA
ATOM     17  C   UNL     1      37.770  32.962  41.849  0.00  0.00    +0.000 C 
ATOM     18  O   UNL     1      38.923  33.472  41.666  0.00  0.00    +0.000 OA
ATOM     19  N   UNL     1      37.235  32.461  43.074  0.00  0.00    +0.000 N 
ATOM     20  H   UNL     1      40.704  32.947  46.973  0.00  0.00    +0.000 HD
ATOM     21  H   UNL     1      41.298  33.605  44.741  0.00  0.00    +0.000 HD
ATOM     22  H   UNL     1      37.100  32.895  40.977  0.00  0.00    +0.000 HD
ATOM     23  H   UNL     1      36.297  32.043  43.236  0.00  0.00    +0.000 HD
ENDBRANCH  10  11
ENDBRANCH   7  10
ENDBRANCH   4   7
ENDBRANCH   1   4
BRANCH   1  24
ATOM     24  S   UNL     1      37.284  29.976  51.577  0.00  0.00    +0.000 S 
BRANCH  24  25
ATOM     25  C   UNL     1      35.508  30.142  51.598  0.00  0.00    +0.000 A 
ATOM     26  C   UNL     1      34.966  30.682  52.758  0.00  0.00    +0.000 A 
ATOM     27  H   UNL     1      35.572  30.979  53.596  0.00  0.00    +0.000 HD
ATOM     28  C   UNL     1      33.612  30.879  52.931  0.00  0.00    +0.000 A 
ATOM     29  H   UNL     1      33.201  31.300  53.837  0.00  0.00    +0.000 HD
ATOM     30  C   UNL     1      32.719  30.530  51.912  0.00  0.00    +0.000 A 
ATOM     31  C   UNL     1      33.267  29.998  50.770  0.00  0.00    +0.000 A 
ATOM     32  C   UNL     1      34.624  29.800  50.596  0.00  0.00    +0.000 A 
ATOM     33  H   UNL     1      35.090  29.384  49.714  0.00  0.00    +0.000 HD
ATOM     34  S   UNL     1      32.189  29.535  49.438  0.00  0.00    +0.000 S 
ATOM     35  C   UNL     1      30.521  29.901  49.929  0.00  0.00    +0.000 A 
ATOM     36  C   UNL     1      29.494  29.628  49.049  0.00  0.00    +0.000 A 
ATOM     37  H   UNL     1      29.645  29.198  48.063  0.00  0.00    +0.000 HD
ATOM     38  C   UNL     1      28.184  29.896  49.389  0.00  0.00    +0.000 A 
ATOM     39  H   UNL     1      27.298  29.724  48.781  0.00  0.00    +0.000 HD
ATOM     40  C   UNL     1      27.953  30.445  50.641  0.00  0.00    +0.000 A 
ATOM     41  H   UNL     1      26.949  30.675  50.961  0.00  0.00    +0.000 HD
ATOM     42  C   UNL     1      28.974  30.721  51.527  0.00  0.00    +0.000 A 
ATOM     43  H   UNL     1      28.768  31.147  52.491  0.00  0.00    +0.000 HD
ATOM     44  C   UNL     1      30.296  30.451  51.186  0.00  0.00    +0.000 A 
ATOM     45  N   UNL     1      31.345  30.738  52.099  0.00  0.00    +0.000 N 
ATOM     46  H   UNL     1      31.039  31.157  53.026  0.00  0.00    +0.000 HD
ENDBRANCH  24  25
ENDBRANCH   1  24
TORSDOF 6
