
     RDKit          3D

 39 43  0  0  0  0  0  0  0  0999 V2000
   37.5243   31.4048   49.3285 C   0  0  0  0  0  0  0  0  0  0  0  0
   38.1444   32.6576   49.3903 C   0  0  0  0  0  0  0  0  0  0  0  0
   38.9265   32.9842   48.2994 C   0  0  0  0  0  0  0  0  0  0  0  0
   39.0695   32.1247   47.2418 N   0  0  0  0  0  0  0  0  0  0  0  0
   38.4418   30.9112   47.2301 C   0  0  0  0  0  0  0  0  0  0  0  0
   37.6622   30.5472   48.2825 N   0  0  0  0  0  0  0  0  0  0  0  0
   36.6456   31.0351   50.5071 C   0  0  1  0  0  0  0  0  0  0  0  0
   36.1393   29.6903   50.6647 C   0  0  2  0  0  0  0  0  0  0  0  0
   37.3552   30.0846   51.4795 C   0  0  0  0  0  0  0  0  0  0  0  0
   36.3671   28.7483   49.6552 O   0  0  0  0  0  0  0  0  0  0  0  0
   38.0005   33.2995   50.2458 H   0  0  0  0  0  0  0  0  0  0  0  0
   39.4312   33.9443   48.2947 H   0  0  0  0  0  0  0  0  0  0  0  0
   38.5614   30.2416   46.3914 H   0  0  0  0  0  0  0  0  0  0  0  0
   36.2681   31.9311   51.0555 H   0  0  0  0  0  0  0  0  0  0  0  0
   35.1819   29.5529   51.1950 H   0  0  0  0  0  0  0  0  0  0  0  0
   37.1634   30.1751   52.5604 H   0  0  0  0  0  0  0  0  0  0  0  0
   38.3443   29.6723   51.1926 H   0  0  0  0  0  0  0  0  0  0  0  0
   35.5509   27.7162   49.2783 C   0  0  0  0  0  0  0  0  0  0  0  0
   35.7335   26.4877   49.9262 C   0  0  0  0  0  0  0  0  0  0  0  0
   36.5066   26.3865   50.6996 H   0  0  0  0  0  0  0  0  0  0  0  0
   34.9391   25.4132   49.5864 C   0  0  0  0  0  0  0  0  0  0  0  0
   35.1360   24.4936   50.1285 H   0  0  0  0  0  0  0  0  0  0  0  0
   33.9496   25.4545   48.6304 C   0  0  0  0  0  0  0  0  0  0  0  0
   33.7941   26.6657   48.0149 C   0  0  0  0  0  0  0  0  0  0  0  0
   34.5522   27.7352   48.3221 C   0  0  0  0  0  0  0  0  0  0  0  0
   34.4081   28.6881   47.8173 H   0  0  0  0  0  0  0  0  0  0  0  0
   32.5438   26.8439   46.7584 S   0  0  0  0  0  0  0  0  0  0  0  0
   31.7622   25.2478   46.6322 C   0  0  0  0  0  0  0  0  0  0  0  0
   30.7573   25.1041   45.7331 C   0  0  0  0  0  0  0  0  0  0  0  0
   30.4422   25.9446   45.1091 H   0  0  0  0  0  0  0  0  0  0  0  0
   30.0917   23.9069   45.5631 C   0  0  0  0  0  0  0  0  0  0  0  0
   29.2924   23.7912   44.8484 H   0  0  0  0  0  0  0  0  0  0  0  0
   30.4792   22.8383   46.3438 C   0  0  0  0  0  0  0  0  0  0  0  0
   29.9909   21.8764   46.2513 H   0  0  0  0  0  0  0  0  0  0  0  0
   31.5079   23.0414   47.2427 C   0  0  0  0  0  0  0  0  0  0  0  0
   31.7751   22.1591   47.8373 H   0  0  0  0  0  0  0  0  0  0  0  0
   32.1918   24.2229   47.4361 C   0  0  0  0  0  0  0  0  0  0  0  0
   33.2139   24.2888   48.3816 N   0  0  0  0  0  0  0  0  0  0  0  0
   33.4314   23.4248   48.9219 H   0  0  0  0  0  0  0  0  0  0  0  0
  1  2  2  0
  1  7  1  0
  3  2  1  0
  4  3  2  0
  5  4  1  0
  5  6  2  0
  6  1  1  0
  7  8  1  0
  7  9  1  0
  8  9  1  0
 10  8  1  0
  2 11  1  0
  3 12  1  0
  5 13  1  0
  7 14  1  1
  8 15  1  1
  9 16  1  0
  9 17  1  0
 18 19  2  0
 19 20  1  0
 19 21  1  0
 21 22  1  0
 21 23  2  0
 23 24  1  0
 24 25  2  0
 25 26  1  0
 24 27  1  0
 27 28  1  0
 28 29  2  0
 29 30  1  0
 29 31  1  0
 31 32  1  0
 31 33  2  0
 33 34  1  0
 33 35  1  0
 35 36  1  0
 35 37  2  0
 37 38  1  0
 38 39  1  0
 25 18  1  0
 37 28  1  0
 38 23  1  0
 10 18  1  0
M  ISO  8  11  14  12  14  13  14  14  13  15  13  16  13  17  13  20  16
M  ISO  7  22  16  26  16  30  16  32  16  34  16  36  16  39   5
M  END
>  <DihAtoms>  (1) 
7,9,17,18

>  <DihDeg>  (1) 
179.99856549361843

$$$$
