
 OpenBabel03262522573D

 38 42  0  0  0  0  0  0  0  0999 V2000
   32.0390   29.4960   46.4930 C   0  0  0  0  0  0  0  0  0  0  0  0
   32.0610   30.5660   45.6220 C   0  0  0  0  0  0  0  0  0  0  0  0
   32.9180   31.2210   45.5580 H   0  0  0  0  0  0  0  0  0  0  0  0
   30.9450   30.7650   44.8380 C   0  0  0  0  0  0  0  0  0  0  0  0
   31.0120   31.6310   44.1600 H   0  0  0  0  0  0  0  0  0  0  0  0
   29.8010   29.9960   44.8350 C   0  0  0  0  0  0  0  0  0  0  0  0
   29.8640   28.9550   45.7300 C   0  0  0  0  0  0  0  0  0  0  0  0
   30.9300   28.6840   46.5460 C   0  0  0  0  0  0  0  0  0  0  0  0
   30.9300   27.8500   47.2350 H   0  0  0  0  0  0  0  0  0  0  0  0
   28.4680   27.8540   45.8630 S   0  0  0  0  0  0  0  0  0  0  0  0
   27.2540   28.4360   44.7090 C   0  0  0  0  0  0  0  0  0  0  0  0
   26.0690   27.8090   44.5670 C   0  0  0  0  0  0  0  0  0  0  0  0
   25.8670   26.9250   45.1840 H   0  0  0  0  0  0  0  0  0  0  0  0
   25.0600   28.2030   43.6810 C   0  0  0  0  0  0  0  0  0  0  0  0
   24.1590   27.6370   43.6460 H   0  0  0  0  0  0  0  0  0  0  0  0
   25.3700   29.3220   42.9290 C   0  0  0  0  0  0  0  0  0  0  0  0
   24.6200   29.6660   42.2280 H   0  0  0  0  0  0  0  0  0  0  0  0
   26.5850   29.9570   43.0810 C   0  0  0  0  0  0  0  0  0  0  0  0
   26.7200   30.8280   42.4350 H   0  0  0  0  0  0  0  0  0  0  0  0
   27.5580   29.5410   43.9650 C   0  0  0  0  0  0  0  0  0  0  0  0
   28.7340   30.3180   43.9770 N   0  0  0  0  0  0  0  0  0  0  0  0
   28.8590   31.1330   43.3730 H   0  0  0  0  0  0  0  0  0  0  0  0
   35.0060   29.5710   48.4620 C   0  0  0  0  0  0  0  0  0  0  0  0
   34.6020   28.2530   48.6180 C   0  0  0  0  0  0  0  0  0  0  0  0
   33.4500   28.0500   47.9090 C   0  0  0  0  0  0  0  0  0  0  0  0
   33.1590   29.2380   47.3300 N   0  0  0  0  0  0  0  0  0  0  0  0
   34.0930   30.1200   47.6720 N   0  0  0  0  0  0  0  0  0  0  0  0
   35.1570   27.5430   49.2210 H   0  0  0  0  0  0  0  0  0  0  0  0
   32.9100   27.1300   47.8440 H   0  0  0  0  0  0  0  0  0  0  0  0
   37.6220   30.4840   50.8650 C   0  0  0  0  0  0  0  0  0  0  0  0
   38.4160   31.3810   50.1110 C   0  0  0  0  0  0  0  0  0  0  0  0
   38.0360   31.6500   48.7970 C   0  0  0  0  0  0  0  0  0  0  0  0
   36.9260   31.0420   48.3050 N   0  0  0  0  0  0  0  0  0  0  0  0
   36.1870   30.1890   49.0560 C   0  0  0  0  0  0  0  0  0  0  0  0
   36.5320   29.9120   50.3260 N   0  0  0  0  0  0  0  0  0  0  0  0
   37.9130   30.2680   51.8980 H   0  0  0  0  0  0  0  0  0  0  0  0
   39.2900   31.8320   50.5650 H   0  0  0  0  0  0  0  0  0  0  0  0
   38.6240   32.3300   48.1980 H   0  0  0  0  0  0  0  0  0  0  0  0
  1  8  1  0  0  0  0
  1 26  1  0  0  0  0
  2  1  2  0  0  0  0
  3  2  1  0  0  0  0
  4  2  1  0  0  0  0
  5  4  1  0  0  0  0
  6  4  2  0  0  0  0
  6  7  1  0  0  0  0
  7 10  1  0  0  0  0
  7  8  2  0  0  0  0
  8  9  1  0  0  0  0
 11 10  1  0  0  0  0
 12 11  1  0  0  0  0
 12 13  1  0  0  0  0
 14 12  2  0  0  0  0
 15 14  1  0  0  0  0
 16 18  2  0  0  0  0
 16 14  1  0  0  0  0
 17 16  1  0  0  0  0
 18 20  1  0  0  0  0
 19 18  1  0  0  0  0
 20 21  1  0  0  0  0
 20 11  2  0  0  0  0
 21  6  1  0  0  0  0
 22 21  1  0  0  0  0
 23 24  1  0  0  0  0
 23 34  1  0  0  0  0
 24 28  1  0  0  0  0
 25 24  2  0  0  0  0
 26 27  1  0  0  0  0
 26 25  1  0  0  0  0
 27 23  2  0  0  0  0
 29 25  1  0  0  0  0
 30 36  1  0  0  0  0
 31 37  1  0  0  0  0
 31 30  2  0  0  0  0
 32 31  1  0  0  0  0
 33 32  2  0  0  0  0
 33 34  1  0  0  0  0
 34 35  2  0  0  0  0
 35 30  1  0  0  0  0
 38 32  1  0  0  0  0
M  END
>  <minimizedAffinity>
-5.72733831

>  <minimizedRMSD>
5.27647734

$$$$
