
 OpenBabel03272503303D

 47 51  0  0  1  0  0  0  0  0999 V2000
   35.2960   29.5430   47.9150 C   0  0  0  0  0  0  0  0  0  0  0  0
   35.2750   29.9850   46.5930 C   0  0  0  0  0  0  0  0  0  0  0  0
   34.1600   29.6730   45.8290 C   0  0  0  0  0  0  0  0  0  0  0  0
   33.1580   28.9510   46.4320 N   0  0  0  0  0  0  0  0  0  0  0  0
   33.2100   28.5420   47.7080 C   0  0  0  0  0  0  0  0  0  0  0  0
   34.2850   28.8410   48.4520 N   0  0  0  0  0  0  0  0  0  0  0  0
   36.0520   30.5460   46.1180 H   0  0  0  0  0  0  0  0  0  0  0  0
   34.0580   29.9770   44.7900 H   0  0  0  0  0  0  0  0  0  0  0  0
   36.4600   29.8760   48.6930 N   0  0  0  0  0  0  0  0  0  0  0  0
   37.6040   30.6120   48.2620 C   0  0  0  0  0  0  0  0  0  0  0  0
   38.0880   31.2690   49.5550 C   0  0  2  0  0  0  0  0  0  0  0  0
   37.0720   30.9010   50.6090 C   0  0  0  0  0  0  0  0  0  0  0  0
   36.6940   29.5230   50.0700 C   0  0  0  0  0  0  0  0  0  0  0  0
   38.3720   29.8810   47.9530 H   0  0  0  0  0  0  0  0  0  0  0  0
   37.3870   31.3860   47.4930 H   0  0  0  0  0  0  0  0  0  0  0  0
   39.0550   30.8090   49.8940 H   0  0  0  0  0  0  0  0  0  0  0  0
   36.1790   31.5350   50.5090 H   0  0  0  0  0  0  0  0  0  0  0  0
   37.4860   30.8660   51.6230 H   0  0  0  0  0  0  0  0  0  0  0  0
   35.7440   29.2150   50.5390 H   0  0  0  0  0  0  0  0  0  0  0  0
   37.5180   28.7990   50.2160 H   0  0  0  0  0  0  0  0  0  0  0  0
   38.2890   32.7490   49.4190 C   0  0  0  0  0  0  0  0  0  0  0  0
   37.1280   33.3380   49.8790 F   0  0  0  0  0  0  0  0  0  0  0  0
   38.3830   33.0210   48.0760 F   0  0  0  0  0  0  0  0  0  0  0  0
   39.3890   33.2140   50.0740 F   0  0  0  0  0  0  0  0  0  0  0  0
   31.8860   27.6080   48.4510 S   0  0  0  0  0  0  0  0  0  0  0  0
   30.5860   27.3040   47.2710 C   0  0  0  0  0  0  0  0  0  0  0  0
   29.7260   28.3060   46.8310 C   0  0  0  0  0  0  0  0  0  0  0  0
   29.8440   29.2950   47.2100 H   0  0  0  0  0  0  0  0  0  0  0  0
   28.7420   27.9810   45.9120 C   0  0  0  0  0  0  0  0  0  0  0  0
   28.1090   28.8150   45.6150 H   0  0  0  0  0  0  0  0  0  0  0  0
   28.5470   26.7170   45.3920 C   0  0  0  0  0  0  0  0  0  0  0  0
   29.4120   25.7600   45.8490 C   0  0  0  0  0  0  0  0  0  0  0  0
   30.3830   26.0490   46.7460 C   0  0  0  0  0  0  0  0  0  0  0  0
   31.0460   25.2420   47.0770 H   0  0  0  0  0  0  0  0  0  0  0  0
   29.2290   24.1100   45.2300 S   0  0  0  0  0  0  0  0  0  0  0  0
   27.8630   24.1410   44.0910 C   0  0  0  0  0  0  0  0  0  0  0  0
   27.5190   22.9760   43.4720 C   0  0  0  0  0  0  0  0  0  0  0  0
   28.0430   22.0360   43.6480 H   0  0  0  0  0  0  0  0  0  0  0  0
   26.4670   22.9230   42.5730 C   0  0  0  0  0  0  0  0  0  0  0  0
   26.2050   22.0040   42.0930 H   0  0  0  0  0  0  0  0  0  0  0  0
   25.7750   24.0880   42.3200 C   0  0  0  0  0  0  0  0  0  0  0  0
   24.9570   24.0820   41.6300 H   0  0  0  0  0  0  0  0  0  0  0  0
   26.1770   25.2310   42.9810 C   0  0  0  0  0  0  0  0  0  0  0  0
   25.5820   26.1210   42.7310 H   0  0  0  0  0  0  0  0  0  0  0  0
   27.2160   25.3310   43.8820 C   0  0  0  0  0  0  0  0  0  0  0  0
   27.5060   26.5700   44.4750 N   0  0  0  0  0  0  0  0  0  0  0  0
   26.9090   27.3800   44.2020 H   0  0  0  0  0  0  0  0  0  0  0  0
  1  6  1  0  0  0  0
  1  9  1  0  0  0  0
  2  1  2  0  0  0  0
  3  4  2  0  0  0  0
  3  2  1  0  0  0  0
  4  5  1  0  0  0  0
  5 25  1  0  0  0  0
  5  6  2  0  0  0  0
  7  2  1  0  0  0  0
  8  3  1  0  0  0  0
  9 13  1  0  0  0  0
 10  9  1  0  0  0  0
 10 11  1  0  0  0  0
 11 16  1  1  0  0  0
 11 12  1  0  0  0  0
 12 18  1  0  0  0  0
 13 20  1  0  0  0  0
 13 19  1  0  0  0  0
 13 12  1  0  0  0  0
 14 10  1  0  0  0  0
 15 10  1  0  0  0  0
 17 12  1  0  0  0  0
 21 11  1  0  0  0  0
 21 22  1  0  0  0  0
 21 24  1  0  0  0  0
 23 21  1  0  0  0  0
 26 25  1  0  0  0  0
 27 28  1  0  0  0  0
 27 26  1  0  0  0  0
 29 27  2  0  0  0  0
 30 29  1  0  0  0  0
 31 32  2  0  0  0  0
 31 29  1  0  0  0  0
 32 33  1  0  0  0  0
 33 34  1  0  0  0  0
 33 26  2  0  0  0  0
 35 32  1  0  0  0  0
 36 35  1  0  0  0  0
 37 38  1  0  0  0  0
 37 36  2  0  0  0  0
 39 37  1  0  0  0  0
 40 39  1  0  0  0  0
 41 39  2  0  0  0  0
 41 43  1  0  0  0  0
 42 41  1  0  0  0  0
 43 45  2  0  0  0  0
 44 43  1  0  0  0  0
 45 36  1  0  0  0  0
 45 46  1  0  0  0  0
 46 31  1  0  0  0  0
 47 46  1  0  0  0  0
M  END
>  <minimizedAffinity>
-6.80870628

>  <minimizedRMSD>
0.116330966

$$$$
