
 OpenBabel03262521533D

 36 39  0  0  0  0  0  0  0  0999 V2000
   38.4000   25.0420   35.9870 C   0  0  0  0  0  0  0  0  0  0  0  0
   37.9560   24.2860   37.0590 C   0  0  0  0  0  0  0  0  0  0  0  0
   37.0280   24.5480   37.5310 H   0  0  0  0  0  0  0  0  0  0  0  0
   38.7480   23.2290   37.4560 C   0  0  0  0  0  0  0  0  0  0  0  0
   38.3430   22.6650   38.3130 H   0  0  0  0  0  0  0  0  0  0  0  0
   39.9410   22.8650   36.8760 C   0  0  0  0  0  0  0  0  0  0  0  0
   40.3430   23.6380   35.8220 C   0  0  0  0  0  0  0  0  0  0  0  0
   39.5990   24.6790   35.4010 C   0  0  0  0  0  0  0  0  0  0  0  0
   39.9580   25.2760   34.5490 H   0  0  0  0  0  0  0  0  0  0  0  0
   41.8750   23.2440   35.0060 S   0  0  0  0  0  0  0  0  0  0  0  0
   42.5140   21.8220   35.8720 C   0  0  0  0  0  0  0  0  0  0  0  0
   43.7100   21.3440   35.3980 C   0  0  0  0  0  0  0  0  0  0  0  0
   44.2630   21.7540   34.5750 H   0  0  0  0  0  0  0  0  0  0  0  0
   44.2860   20.2460   36.0050 C   0  0  0  0  0  0  0  0  0  0  0  0
   45.2250   19.8040   35.6960 H   0  0  0  0  0  0  0  0  0  0  0  0
   43.6450   19.6520   37.0730 C   0  0  0  0  0  0  0  0  0  0  0  0
   44.0750   18.7900   37.5650 H   0  0  0  0  0  0  0  0  0  0  0  0
   42.4460   20.2000   37.4820 C   0  0  0  0  0  0  0  0  0  0  0  0
   41.9850   19.6820   38.3380 H   0  0  0  0  0  0  0  0  0  0  0  0
   41.8200   21.2930   36.9190 C   0  0  0  0  0  0  0  0  0  0  0  0
   40.6050   21.7630   37.4150 N   0  0  0  0  0  0  0  0  0  0  0  0
   40.2060   21.2430   38.2250 H   0  0  0  0  0  0  0  0  0  0  0  0
   37.5150   26.4400   35.3350 S   0  0  0  0  0  0  0  0  0  0  0  0
   38.0590   26.8490   33.6330 C   0  0  0  0  0  0  0  0  0  0  0  0
   38.9550   26.2340   33.3730 H   0  0  0  0  0  0  0  0  0  0  0  0
   38.3510   27.9170   33.6200 H   0  0  0  0  0  0  0  0  0  0  0  0
   36.7740   26.4620   32.4220 S   0  0  0  0  0  0  0  0  0  0  0  0
   36.8020   24.7020   32.1280 C   0  0  0  0  0  0  0  0  0  0  0  0
   35.7080   24.2040   31.4350 C   0  0  0  0  0  0  0  0  0  0  0  0
   35.6670   22.8400   31.1740 C   0  0  0  0  0  0  0  0  0  0  0  0
   36.7000   22.0400   31.6040 N   0  0  0  0  0  0  0  0  0  0  0  0
   37.7370   22.6010   32.2770 C   0  0  0  0  0  0  0  0  0  0  0  0
   37.7860   23.8910   32.5300 N   0  0  0  0  0  0  0  0  0  0  0  0
   34.8670   24.7940   31.0740 H   0  0  0  0  0  0  0  0  0  0  0  0
   34.8230   22.4330   30.6350 H   0  0  0  0  0  0  0  0  0  0  0  0
   38.5690   21.9870   32.6300 H   0  0  0  0  0  0  0  0  0  0  0  0
  1  2  1  0  0  0  0
  2  4  2  0  0  0  0
  2  3  1  0  0  0  0
  4  5  1  0  0  0  0
  6 21  1  0  0  0  0
  6  4  1  0  0  0  0
  7  6  2  0  0  0  0
  8  7  1  0  0  0  0
  8  1  2  0  0  0  0
  9  8  1  0  0  0  0
 10  7  1  0  0  0  0
 10 11  1  0  0  0  0
 11 20  1  0  0  0  0
 12 11  2  0  0  0  0
 12 14  1  0  0  0  0
 13 12  1  0  0  0  0
 14 16  2  0  0  0  0
 15 14  1  0  0  0  0
 16 18  1  0  0  0  0
 16 17  1  0  0  0  0
 18 19  1  0  0  0  0
 20 21  1  0  0  0  0
 20 18  2  0  0  0  0
 21 22  1  0  0  0  0
 23  1  1  0  0  0  0
 24 23  1  0  0  0  0
 25 24  1  0  0  0  0
 26 24  1  0  0  0  0
 27 24  1  0  0  0  0
 28 27  1  0  0  0  0
 28 33  1  0  0  0  0
 29 28  2  0  0  0  0
 30 29  1  0  0  0  0
 30 31  2  0  0  0  0
 31 32  1  0  0  0  0
 32 33  2  0  0  0  0
 32 36  1  0  0  0  0
 34 29  1  0  0  0  0
 35 30  1  0  0  0  0
M  END
>  <minimizedAffinity>
-5.29604197

$$$$

 OpenBabel03262521533D

 36 39  0  0  0  0  0  0  0  0999 V2000
   38.0680   27.4790   32.0630 C   0  0  0  0  0  0  0  0  0  0  0  0
   37.0430   27.8690   32.9090 C   0  0  0  0  0  0  0  0  0  0  0  0
   36.3620   28.6310   32.5840 H   0  0  0  0  0  0  0  0  0  0  0  0
   36.9640   27.2400   34.1350 C   0  0  0  0  0  0  0  0  0  0  0  0
   36.1290   27.5910   34.7630 H   0  0  0  0  0  0  0  0  0  0  0  0
   37.8180   26.2600   34.5840 C   0  0  0  0  0  0  0  0  0  0  0  0
   38.8160   25.9050   33.7170 C   0  0  0  0  0  0  0  0  0  0  0  0
   38.9280   26.4930   32.5110 C   0  0  0  0  0  0  0  0  0  0  0  0
   39.7450   26.1800   31.8430 H   0  0  0  0  0  0  0  0  0  0  0  0
   39.9710   24.6440   34.2100 S   0  0  0  0  0  0  0  0  0  0  0  0
   39.4560   24.1520   35.8450 C   0  0  0  0  0  0  0  0  0  0  0  0
   40.2230   23.1720   36.4240 C   0  0  0  0  0  0  0  0  0  0  0  0
   41.0770   22.7020   35.9750 H   0  0  0  0  0  0  0  0  0  0  0  0
   39.9040   22.7250   37.6900 C   0  0  0  0  0  0  0  0  0  0  0  0
   40.4540   21.9570   38.2190 H   0  0  0  0  0  0  0  0  0  0  0  0
   38.8200   23.2720   38.3460 C   0  0  0  0  0  0  0  0  0  0  0  0
   38.5490   22.9390   39.3390 H   0  0  0  0  0  0  0  0  0  0  0  0
   38.1060   24.2530   37.6880 C   0  0  0  0  0  0  0  0  0  0  0  0
   37.2540   24.6500   38.2630 H   0  0  0  0  0  0  0  0  0  0  0  0
   38.3730   24.7420   36.4260 C   0  0  0  0  0  0  0  0  0  0  0  0
   37.5820   25.7370   35.8550 N   0  0  0  0  0  0  0  0  0  0  0  0
   36.7880   26.0830   36.4350 H   0  0  0  0  0  0  0  0  0  0  0  0
   38.3270   28.1760   30.4470 S   0  0  0  0  0  0  0  0  0  0  0  0
   36.8380   29.0610   29.8480 C   0  0  0  0  0  0  0  0  0  0  0  0
   35.9250   28.5830   30.2800 H   0  0  0  0  0  0  0  0  0  0  0  0
   36.8020   28.9520   28.7460 H   0  0  0  0  0  0  0  0  0  0  0  0
   36.8420   30.7890   30.3790 S   0  0  0  0  0  0  0  0  0  0  0  0
   35.4710   31.0270   31.4970 C   0  0  0  0  0  0  0  0  0  0  0  0
   35.8240   31.3180   32.8070 C   0  0  0  0  0  0  0  0  0  0  0  0
   34.8040   31.5150   33.7300 C   0  0  0  0  0  0  0  0  0  0  0  0
   33.4960   31.4160   33.3180 N   0  0  0  0  0  0  0  0  0  0  0  0
   33.2290   31.1280   32.0190 C   0  0  0  0  0  0  0  0  0  0  0  0
   34.1870   30.9400   31.1370 N   0  0  0  0  0  0  0  0  0  0  0  0
   36.8430   31.4080   33.1820 H   0  0  0  0  0  0  0  0  0  0  0  0
   35.0600   31.7430   34.7550 H   0  0  0  0  0  0  0  0  0  0  0  0
   32.1980   31.0430   31.6680 H   0  0  0  0  0  0  0  0  0  0  0  0
  1  8  2  0  0  0  0
  1  2  1  0  0  0  0
  2  4  2  0  0  0  0
  3  2  1  0  0  0  0
  4  6  1  0  0  0  0
  4  5  1  0  0  0  0
  6 21  1  0  0  0  0
  7 10  1  0  0  0  0
  7  6  2  0  0  0  0
  8  7  1  0  0  0  0
  9  8  1  0  0  0  0
 10 11  1  0  0  0  0
 11 12  2  0  0  0  0
 11 20  1  0  0  0  0
 12 14  1  0  0  0  0
 13 12  1  0  0  0  0
 14 15  1  0  0  0  0
 14 16  2  0  0  0  0
 16 17  1  0  0  0  0
 18 19  1  0  0  0  0
 18 16  1  0  0  0  0
 20 18  2  0  0  0  0
 21 20  1  0  0  0  0
 21 22  1  0  0  0  0
 23  1  1  0  0  0  0
 24 25  1  0  0  0  0
 24 27  1  0  0  0  0
 24 23  1  0  0  0  0
 26 24  1  0  0  0  0
 27 28  1  0  0  0  0
 28 29  1  0  0  0  0
 29 34  1  0  0  0  0
 29 30  2  0  0  0  0
 30 35  1  0  0  0  0
 31 30  1  0  0  0  0
 32 31  2  0  0  0  0
 33 28  2  0  0  0  0
 33 32  1  0  0  0  0
 36 32  1  0  0  0  0
M  END
>  <minimizedAffinity>
-5.26074028

$$$$

 OpenBabel03262521533D

 36 39  0  0  0  0  0  0  0  0999 V2000
   38.3380   25.0070   36.0780 C   0  0  0  0  0  0  0  0  0  0  0  0
   37.9870   24.3680   37.2570 C   0  0  0  0  0  0  0  0  0  0  0  0
   37.1160   24.7000   37.7880 H   0  0  0  0  0  0  0  0  0  0  0  0
   38.7940   23.3310   37.6760 C   0  0  0  0  0  0  0  0  0  0  0  0
   38.4650   22.8630   38.6180 H   0  0  0  0  0  0  0  0  0  0  0  0
   39.9170   22.8810   37.0210 C   0  0  0  0  0  0  0  0  0  0  0  0
   40.2270   23.5390   35.8630 C   0  0  0  0  0  0  0  0  0  0  0  0
   39.4650   24.5560   35.4170 C   0  0  0  0  0  0  0  0  0  0  0  0
   39.7500   25.0590   34.4800 H   0  0  0  0  0  0  0  0  0  0  0  0
   41.6630   23.0260   34.9450 S   0  0  0  0  0  0  0  0  0  0  0  0
   42.3580   21.6750   35.8790 C   0  0  0  0  0  0  0  0  0  0  0  0
   43.4920   21.1200   35.3400 C   0  0  0  0  0  0  0  0  0  0  0  0
   43.9680   21.4340   34.4320 H   0  0  0  0  0  0  0  0  0  0  0  0
   44.1040   20.0680   35.9920 C   0  0  0  0  0  0  0  0  0  0  0  0
   44.9990   19.5730   35.6380 H   0  0  0  0  0  0  0  0  0  0  0  0
   43.5610   19.5970   37.1700 C   0  0  0  0  0  0  0  0  0  0  0  0
   44.0210   18.7730   37.7000 H   0  0  0  0  0  0  0  0  0  0  0  0
   42.4190   20.2150   37.6370 C   0  0  0  0  0  0  0  0  0  0  0  0
   42.0340   19.7930   38.5800 H   0  0  0  0  0  0  0  0  0  0  0  0
   41.7610   21.2670   37.0340 C   0  0  0  0  0  0  0  0  0  0  0  0
   40.6100   21.8160   37.5970 N   0  0  0  0  0  0  0  0  0  0  0  0
   40.2840   21.3870   38.4890 H   0  0  0  0  0  0  0  0  0  0  0  0
   37.4190   26.3610   35.3830 S   0  0  0  0  0  0  0  0  0  0  0  0
   38.1550   26.9360   33.8050 C   0  0  0  0  0  0  0  0  0  0  0  0
   39.1030   26.3770   33.6150 H   0  0  0  0  0  0  0  0  0  0  0  0
   38.3990   28.0110   33.9200 H   0  0  0  0  0  0  0  0  0  0  0  0
   37.0520   26.6150   32.4100 S   0  0  0  0  0  0  0  0  0  0  0  0
   36.2190   28.1400   32.0010 C   0  0  0  0  0  0  0  0  0  0  0  0
   36.7710   28.8460   30.9420 C   0  0  0  0  0  0  0  0  0  0  0  0
   36.1710   30.0440   30.5720 C   0  0  0  0  0  0  0  0  0  0  0  0
   35.0630   30.4820   31.2600 N   0  0  0  0  0  0  0  0  0  0  0  0
   34.5810   29.7350   32.2850 C   0  0  0  0  0  0  0  0  0  0  0  0
   35.1410   28.6000   32.6440 N   0  0  0  0  0  0  0  0  0  0  0  0
   37.6450   28.5420   30.3680 H   0  0  0  0  0  0  0  0  0  0  0  0
   36.5880   30.6080   29.7500 H   0  0  0  0  0  0  0  0  0  0  0  0
   33.7030   30.0620   32.8470 H   0  0  0  0  0  0  0  0  0  0  0  0
  1  2  1  0  0  0  0
  2  4  2  0  0  0  0
  2  3  1  0  0  0  0
  4  5  1  0  0  0  0
  6 21  1  0  0  0  0
  6  4  1  0  0  0  0
  7  6  2  0  0  0  0
  8  7  1  0  0  0  0
  8  1  2  0  0  0  0
  9  8  1  0  0  0  0
 10  7  1  0  0  0  0
 10 11  1  0  0  0  0
 11 20  1  0  0  0  0
 12 11  2  0  0  0  0
 12 14  1  0  0  0  0
 13 12  1  0  0  0  0
 14 16  2  0  0  0  0
 15 14  1  0  0  0  0
 16 18  1  0  0  0  0
 16 17  1  0  0  0  0
 18 19  1  0  0  0  0
 20 21  1  0  0  0  0
 20 18  2  0  0  0  0
 21 22  1  0  0  0  0
 23  1  1  0  0  0  0
 24 26  1  0  0  0  0
 24 23  1  0  0  0  0
 25 24  1  0  0  0  0
 27 24  1  0  0  0  0
 28 27  1  0  0  0  0
 28 33  1  0  0  0  0
 29 28  2  0  0  0  0
 30 29  1  0  0  0  0
 30 31  2  0  0  0  0
 31 32  1  0  0  0  0
 32 33  2  0  0  0  0
 32 36  1  0  0  0  0
 34 29  1  0  0  0  0
 35 30  1  0  0  0  0
M  END
>  <minimizedAffinity>
-5.24988222

$$$$

 OpenBabel03262521533D

 36 39  0  0  0  0  0  0  0  0999 V2000
   36.4450   28.2490   32.1740 C   0  0  0  0  0  0  0  0  0  0  0  0
   37.3900   27.9990   33.1560 C   0  0  0  0  0  0  0  0  0  0  0  0
   37.8470   28.8290   33.6590 H   0  0  0  0  0  0  0  0  0  0  0  0
   37.6850   26.6790   33.4260 C   0  0  0  0  0  0  0  0  0  0  0  0
   38.4430   26.5440   34.2150 H   0  0  0  0  0  0  0  0  0  0  0  0
   37.1190   25.5920   32.8000 C   0  0  0  0  0  0  0  0  0  0  0  0
   36.1920   25.8840   31.8380 C   0  0  0  0  0  0  0  0  0  0  0  0
   35.8730   27.1580   31.5440 C   0  0  0  0  0  0  0  0  0  0  0  0
   35.1220   27.3500   30.7620 H   0  0  0  0  0  0  0  0  0  0  0  0
   35.4040   24.5420   30.9740 S   0  0  0  0  0  0  0  0  0  0  0  0
   36.1100   23.0590   31.6690 C   0  0  0  0  0  0  0  0  0  0  0  0
   35.6350   21.8860   31.1380 C   0  0  0  0  0  0  0  0  0  0  0  0
   34.8970   21.8060   30.3620 H   0  0  0  0  0  0  0  0  0  0  0  0
   36.1220   20.6840   31.6110 C   0  0  0  0  0  0  0  0  0  0  0  0
   35.8040   19.7150   31.2490 H   0  0  0  0  0  0  0  0  0  0  0  0
   37.0750   20.6890   32.6090 C   0  0  0  0  0  0  0  0  0  0  0  0
   37.4730   19.7600   32.9980 H   0  0  0  0  0  0  0  0  0  0  0  0
   37.4950   21.9150   33.0840 C   0  0  0  0  0  0  0  0  0  0  0  0
   38.2550   21.8510   33.8790 H   0  0  0  0  0  0  0  0  0  0  0  0
   37.0480   23.1470   32.6540 C   0  0  0  0  0  0  0  0  0  0  0  0
   37.5430   24.3270   33.2070 N   0  0  0  0  0  0  0  0  0  0  0  0
   38.2610   24.2190   33.9550 H   0  0  0  0  0  0  0  0  0  0  0  0
   35.9370   29.8830   31.6910 S   0  0  0  0  0  0  0  0  0  0  0  0
   34.1750   30.1880   32.0940 C   0  0  0  0  0  0  0  0  0  0  0  0
   33.5300   29.7220   31.3100 H   0  0  0  0  0  0  0  0  0  0  0  0
   34.0110   31.2840   32.0780 H   0  0  0  0  0  0  0  0  0  0  0  0
   33.7240   29.4390   33.6760 S   0  0  0  0  0  0  0  0  0  0  0  0
   34.2650   30.5310   34.9800 C   0  0  0  0  0  0  0  0  0  0  0  0
   33.2760   30.9150   35.8740 C   0  0  0  0  0  0  0  0  0  0  0  0
   33.6300   31.7660   36.9140 C   0  0  0  0  0  0  0  0  0  0  0  0
   34.9330   32.1930   37.0200 N   0  0  0  0  0  0  0  0  0  0  0  0
   35.8440   31.7750   36.1060 C   0  0  0  0  0  0  0  0  0  0  0  0
   35.5200   30.9690   35.1180 N   0  0  0  0  0  0  0  0  0  0  0  0
   32.2320   30.6040   35.8330 H   0  0  0  0  0  0  0  0  0  0  0  0
   32.8720   32.0750   37.6200 H   0  0  0  0  0  0  0  0  0  0  0  0
   36.8850   32.1010   36.1680 H   0  0  0  0  0  0  0  0  0  0  0  0
  1  2  1  0  0  0  0
  2  4  2  0  0  0  0
  2  3  1  0  0  0  0
  4  5  1  0  0  0  0
  6 21  1  0  0  0  0
  6  4  1  0  0  0  0
  7  6  2  0  0  0  0
  8  7  1  0  0  0  0
  8  1  2  0  0  0  0
  9  8  1  0  0  0  0
 10 11  1  0  0  0  0
 10  7  1  0  0  0  0
 11 20  1  0  0  0  0
 12 14  1  0  0  0  0
 12 11  2  0  0  0  0
 13 12  1  0  0  0  0
 14 16  2  0  0  0  0
 15 14  1  0  0  0  0
 16 17  1  0  0  0  0
 16 18  1  0  0  0  0
 18 19  1  0  0  0  0
 20 18  2  0  0  0  0
 20 21  1  0  0  0  0
 21 22  1  0  0  0  0
 23 24  1  0  0  0  0
 23  1  1  0  0  0  0
 24 27  1  0  0  0  0
 25 24  1  0  0  0  0
 26 24  1  0  0  0  0
 27 28  1  0  0  0  0
 28 33  2  0  0  0  0
 28 29  1  0  0  0  0
 29 30  2  0  0  0  0
 30 31  1  0  0  0  0
 30 35  1  0  0  0  0
 32 36  1  0  0  0  0
 32 31  2  0  0  0  0
 33 32  1  0  0  0  0
 34 29  1  0  0  0  0
M  END
>  <minimizedAffinity>
-5.23406792

$$$$

 OpenBabel03262521533D

 36 39  0  0  0  0  0  0  0  0999 V2000
   37.5090   27.0980   31.8530 C   0  0  0  0  0  0  0  0  0  0  0  0
   38.4330   26.2250   31.3000 C   0  0  0  0  0  0  0  0  0  0  0  0
   38.6570   26.3010   30.2540 H   0  0  0  0  0  0  0  0  0  0  0  0
   39.0120   25.3020   32.1460 C   0  0  0  0  0  0  0  0  0  0  0  0
   39.7380   24.6370   31.6500 H   0  0  0  0  0  0  0  0  0  0  0  0
   38.7480   25.1770   33.4900 C   0  0  0  0  0  0  0  0  0  0  0  0
   37.8310   26.0570   33.9940 C   0  0  0  0  0  0  0  0  0  0  0  0
   37.2420   26.9750   33.2050 C   0  0  0  0  0  0  0  0  0  0  0  0
   36.5090   27.6650   33.6490 H   0  0  0  0  0  0  0  0  0  0  0  0
   37.4240   25.9720   35.7250 S   0  0  0  0  0  0  0  0  0  0  0  0
   38.4180   24.6410   36.3750 C   0  0  0  0  0  0  0  0  0  0  0  0
   38.2590   24.3990   37.7160 C   0  0  0  0  0  0  0  0  0  0  0  0
   37.6010   24.9370   38.3730 H   0  0  0  0  0  0  0  0  0  0  0  0
   38.9850   23.3870   38.3110 C   0  0  0  0  0  0  0  0  0  0  0  0
   38.9200   23.1300   39.3600 H   0  0  0  0  0  0  0  0  0  0  0  0
   39.8560   22.6420   37.5440 C   0  0  0  0  0  0  0  0  0  0  0  0
   40.4380   21.8440   37.9860 H   0  0  0  0  0  0  0  0  0  0  0  0
   39.9530   22.9550   36.2030 C   0  0  0  0  0  0  0  0  0  0  0  0
   40.6650   22.3250   35.6450 H   0  0  0  0  0  0  0  0  0  0  0  0
   39.2560   23.9520   35.5510 C   0  0  0  0  0  0  0  0  0  0  0  0
   39.4330   24.1820   34.1870 N   0  0  0  0  0  0  0  0  0  0  0  0
   40.1150   23.5620   33.7000 H   0  0  0  0  0  0  0  0  0  0  0  0
   36.6620   28.3520   30.9210 S   0  0  0  0  0  0  0  0  0  0  0  0
   36.1820   29.7700   31.9800 C   0  0  0  0  0  0  0  0  0  0  0  0
   36.1430   30.6980   31.3590 H   0  0  0  0  0  0  0  0  0  0  0  0
   36.9680   29.8960   32.7500 H   0  0  0  0  0  0  0  0  0  0  0  0
   34.5370   29.5320   32.6910 S   0  0  0  0  0  0  0  0  0  0  0  0
   34.4940   30.3570   34.2730 C   0  0  0  0  0  0  0  0  0  0  0  0
   35.7110   30.8660   34.7040 C   0  0  0  0  0  0  0  0  0  0  0  0
   35.7480   31.5210   35.9300 C   0  0  0  0  0  0  0  0  0  0  0  0
   34.5910   31.6410   36.6640 N   0  0  0  0  0  0  0  0  0  0  0  0
   33.4380   31.1160   36.1750 C   0  0  0  0  0  0  0  0  0  0  0  0
   33.3920   30.4950   35.0170 N   0  0  0  0  0  0  0  0  0  0  0  0
   36.6530   30.7970   34.1610 H   0  0  0  0  0  0  0  0  0  0  0  0
   36.6870   31.9240   36.2820 H   0  0  0  0  0  0  0  0  0  0  0  0
   32.5060   31.1980   36.7390 H   0  0  0  0  0  0  0  0  0  0  0  0
  1  8  1  0  0  0  0
  2  1  2  0  0  0  0
  2  4  1  0  0  0  0
  3  2  1  0  0  0  0
  4  6  2  0  0  0  0
  5  4  1  0  0  0  0
  6  7  1  0  0  0  0
  6 21  1  0  0  0  0
  7 10  1  0  0  0  0
  8  9  1  0  0  0  0
  8  7  2  0  0  0  0
 10 11  1  0  0  0  0
 11 12  1  0  0  0  0
 12 14  2  0  0  0  0
 12 13  1  0  0  0  0
 14 15  1  0  0  0  0
 16 17  1  0  0  0  0
 16 14  1  0  0  0  0
 18 16  2  0  0  0  0
 19 18  1  0  0  0  0
 20 18  1  0  0  0  0
 20 11  2  0  0  0  0
 21 20  1  0  0  0  0
 22 21  1  0  0  0  0
 23  1  1  0  0  0  0
 23 24  1  0  0  0  0
 24 27  1  0  0  0  0
 24 26  1  0  0  0  0
 25 24  1  0  0  0  0
 27 28  1  0  0  0  0
 28 29  2  0  0  0  0
 28 33  1  0  0  0  0
 29 30  1  0  0  0  0
 30 35  1  0  0  0  0
 30 31  2  0  0  0  0
 32 31  1  0  0  0  0
 32 36  1  0  0  0  0
 33 32  2  0  0  0  0
 34 29  1  0  0  0  0
M  END
>  <minimizedAffinity>
-5.22489452

$$$$

 OpenBabel03262521533D

 36 39  0  0  0  0  0  0  0  0999 V2000
   37.7580   26.8600   33.4910 C   0  0  0  0  0  0  0  0  0  0  0  0
   37.1170   26.7940   34.7180 C   0  0  0  0  0  0  0  0  0  0  0  0
   36.2850   27.4450   34.9060 H   0  0  0  0  0  0  0  0  0  0  0  0
   37.6000   25.8810   35.6320 C   0  0  0  0  0  0  0  0  0  0  0  0
   37.0500   25.8740   36.5880 H   0  0  0  0  0  0  0  0  0  0  0  0
   38.6620   25.0320   35.4260 C   0  0  0  0  0  0  0  0  0  0  0  0
   39.2650   25.1310   34.2020 C   0  0  0  0  0  0  0  0  0  0  0  0
   38.8260   26.0080   33.2800 C   0  0  0  0  0  0  0  0  0  0  0  0
   39.3390   26.0570   32.3080 H   0  0  0  0  0  0  0  0  0  0  0  0
   40.6500   24.0720   33.8420 S   0  0  0  0  0  0  0  0  0  0  0  0
   40.8830   23.0900   35.3130 C   0  0  0  0  0  0  0  0  0  0  0  0
   41.9170   22.1900   35.2520 C   0  0  0  0  0  0  0  0  0  0  0  0
   42.5690   22.0450   34.4110 H   0  0  0  0  0  0  0  0  0  0  0  0
   42.1780   21.3850   36.3420 C   0  0  0  0  0  0  0  0  0  0  0  0
   42.9720   20.6500   36.3790 H   0  0  0  0  0  0  0  0  0  0  0  0
   41.3910   21.5020   37.4700 C   0  0  0  0  0  0  0  0  0  0  0  0
   41.5740   20.8830   38.3380 H   0  0  0  0  0  0  0  0  0  0  0  0
   40.3730   22.4340   37.4430 C   0  0  0  0  0  0  0  0  0  0  0  0
   39.7810   22.4790   38.3720 H   0  0  0  0  0  0  0  0  0  0  0  0
   40.0630   23.2660   36.3870 C   0  0  0  0  0  0  0  0  0  0  0  0
   39.0080   24.1730   36.4690 N   0  0  0  0  0  0  0  0  0  0  0  0
   38.4770   24.1820   37.3660 H   0  0  0  0  0  0  0  0  0  0  0  0
   37.2780   27.9750   32.1910 S   0  0  0  0  0  0  0  0  0  0  0  0
   36.6700   27.0690   30.7170 C   0  0  0  0  0  0  0  0  0  0  0  0
   37.5350   26.5960   30.1910 H   0  0  0  0  0  0  0  0  0  0  0  0
   36.2060   27.8080   30.0350 H   0  0  0  0  0  0  0  0  0  0  0  0
   35.5350   25.7410   31.1840 S   0  0  0  0  0  0  0  0  0  0  0  0
   36.4090   24.1920   31.0430 C   0  0  0  0  0  0  0  0  0  0  0  0
   35.7170   23.0810   31.5040 C   0  0  0  0  0  0  0  0  0  0  0  0
   36.3400   21.8420   31.4250 C   0  0  0  0  0  0  0  0  0  0  0  0
   37.6080   21.7600   30.8970 N   0  0  0  0  0  0  0  0  0  0  0  0
   38.2220   22.8910   30.4660 C   0  0  0  0  0  0  0  0  0  0  0  0
   37.6400   24.0690   30.5370 N   0  0  0  0  0  0  0  0  0  0  0  0
   34.7140   23.0950   31.9290 H   0  0  0  0  0  0  0  0  0  0  0  0
   35.8160   20.9670   31.7790 H   0  0  0  0  0  0  0  0  0  0  0  0
   39.2290   22.8520   30.0440 H   0  0  0  0  0  0  0  0  0  0  0  0
  1  2  1  0  0  0  0
  2  3  1  0  0  0  0
  2  4  2  0  0  0  0
  4  5  1  0  0  0  0
  6  4  1  0  0  0  0
  6 21  1  0  0  0  0
  7  6  2  0  0  0  0
  8  1  2  0  0  0  0
  8  7  1  0  0  0  0
  9  8  1  0  0  0  0
 10  7  1  0  0  0  0
 10 11  1  0  0  0  0
 11 20  1  0  0  0  0
 12 11  2  0  0  0  0
 12 14  1  0  0  0  0
 13 12  1  0  0  0  0
 14 15  1  0  0  0  0
 14 16  2  0  0  0  0
 16 17  1  0  0  0  0
 18 16  1  0  0  0  0
 18 19  1  0  0  0  0
 20 21  1  0  0  0  0
 20 18  2  0  0  0  0
 21 22  1  0  0  0  0
 23  1  1  0  0  0  0
 24 27  1  0  0  0  0
 24 23  1  0  0  0  0
 25 24  1  0  0  0  0
 26 24  1  0  0  0  0
 28 27  1  0  0  0  0
 28 29  1  0  0  0  0
 29 34  1  0  0  0  0
 30 29  2  0  0  0  0
 30 35  1  0  0  0  0
 31 30  1  0  0  0  0
 32 33  1  0  0  0  0
 32 31  2  0  0  0  0
 33 28  2  0  0  0  0
 36 32  1  0  0  0  0
M  END
>  <minimizedAffinity>
-5.21824408

$$$$

 OpenBabel03262521533D

 36 39  0  0  0  0  0  0  0  0999 V2000
   36.7520   25.7320   32.2920 C   0  0  0  0  0  0  0  0  0  0  0  0
   35.6060   25.4870   31.5520 C   0  0  0  0  0  0  0  0  0  0  0  0
   34.9430   26.3030   31.3360 H   0  0  0  0  0  0  0  0  0  0  0  0
   35.3880   24.1900   31.1370 C   0  0  0  0  0  0  0  0  0  0  0  0
   34.4620   24.0580   30.5530 H   0  0  0  0  0  0  0  0  0  0  0  0
   36.2140   23.1210   31.3960 C   0  0  0  0  0  0  0  0  0  0  0  0
   37.3340   23.4070   32.1290 C   0  0  0  0  0  0  0  0  0  0  0  0
   37.5850   24.6590   32.5540 C   0  0  0  0  0  0  0  0  0  0  0  0
   38.4970   24.8470   33.1410 H   0  0  0  0  0  0  0  0  0  0  0  0
   38.4640   22.0870   32.5140 S   0  0  0  0  0  0  0  0  0  0  0  0
   37.7550   20.6310   31.7690 C   0  0  0  0  0  0  0  0  0  0  0  0
   38.4780   19.4770   31.9460 C   0  0  0  0  0  0  0  0  0  0  0  0
   39.4030   19.3980   32.4840 H   0  0  0  0  0  0  0  0  0  0  0  0
   38.0080   18.2970   31.4070 C   0  0  0  0  0  0  0  0  0  0  0  0
   38.5140   17.3440   31.4990 H   0  0  0  0  0  0  0  0  0  0  0  0
   36.8240   18.3020   30.6990 C   0  0  0  0  0  0  0  0  0  0  0  0
   36.4350   17.3900   30.2660 H   0  0  0  0  0  0  0  0  0  0  0  0
   36.1640   19.5070   30.5700 C   0  0  0  0  0  0  0  0  0  0  0  0
   35.2260   19.4460   29.9950 H   0  0  0  0  0  0  0  0  0  0  0  0
   36.5800   20.7180   31.0840 C   0  0  0  0  0  0  0  0  0  0  0  0
   35.8310   21.8790   30.8920 N   0  0  0  0  0  0  0  0  0  0  0  0
   34.9510   21.7730   30.3430 H   0  0  0  0  0  0  0  0  0  0  0  0
   37.1980   27.3380   32.9120 S   0  0  0  0  0  0  0  0  0  0  0  0
   37.1280   27.3960   34.7430 C   0  0  0  0  0  0  0  0  0  0  0  0
   36.4490   26.5900   35.1130 H   0  0  0  0  0  0  0  0  0  0  0  0
   36.6990   28.3760   35.0330 H   0  0  0  0  0  0  0  0  0  0  0  0
   38.7550   27.1030   35.4720 S   0  0  0  0  0  0  0  0  0  0  0  0
   38.9160   25.3520   35.7800 C   0  0  0  0  0  0  0  0  0  0  0  0
   37.8330   24.7640   36.4160 C   0  0  0  0  0  0  0  0  0  0  0  0
   37.8930   23.4030   36.6870 C   0  0  0  0  0  0  0  0  0  0  0  0
   39.0120   22.6920   36.3180 N   0  0  0  0  0  0  0  0  0  0  0  0
   40.0330   23.3380   35.6990 C   0  0  0  0  0  0  0  0  0  0  0  0
   39.9850   24.6260   35.4380 N   0  0  0  0  0  0  0  0  0  0  0  0
   36.9260   25.2820   36.7270 H   0  0  0  0  0  0  0  0  0  0  0  0
   37.0580   22.9280   37.1820 H   0  0  0  0  0  0  0  0  0  0  0  0
   40.9320   22.7960   35.3960 H   0  0  0  0  0  0  0  0  0  0  0  0
  1  8  1  0  0  0  0
  1 23  1  0  0  0  0
  2  1  2  0  0  0  0
  3  2  1  0  0  0  0
  4  6  2  0  0  0  0
  4  2  1  0  0  0  0
  5  4  1  0  0  0  0
  6  7  1  0  0  0  0
  7 10  1  0  0  0  0
  7  8  2  0  0  0  0
  8  9  1  0  0  0  0
 11 12  1  0  0  0  0
 11 10  1  0  0  0  0
 12 13  1  0  0  0  0
 14 15  1  0  0  0  0
 14 12  2  0  0  0  0
 16 14  1  0  0  0  0
 17 16  1  0  0  0  0
 18 16  2  0  0  0  0
 18 20  1  0  0  0  0
 19 18  1  0  0  0  0
 20 11  2  0  0  0  0
 21 20  1  0  0  0  0
 21  6  1  0  0  0  0
 22 21  1  0  0  0  0
 23 24  1  0  0  0  0
 24 26  1  0  0  0  0
 24 25  1  0  0  0  0
 24 27  1  0  0  0  0
 27 28  1  0  0  0  0
 28 29  1  0  0  0  0
 29 30  2  0  0  0  0
 29 34  1  0  0  0  0
 30 35  1  0  0  0  0
 31 30  1  0  0  0  0
 32 31  2  0  0  0  0
 33 32  1  0  0  0  0
 33 28  2  0  0  0  0
 36 32  1  0  0  0  0
M  END
>  <minimizedAffinity>
-5.19627476

$$$$

 OpenBabel03262521533D

 36 39  0  0  0  0  0  0  0  0999 V2000
   38.1430   25.8990   31.4750 C   0  0  0  0  0  0  0  0  0  0  0  0
   36.7760   26.1230   31.5050 C   0  0  0  0  0  0  0  0  0  0  0  0
   36.4120   27.1300   31.4360 H   0  0  0  0  0  0  0  0  0  0  0  0
   35.9590   25.0170   31.6230 C   0  0  0  0  0  0  0  0  0  0  0  0
   34.8830   25.2580   31.6410 H   0  0  0  0  0  0  0  0  0  0  0  0
   36.3900   23.7140   31.7130 C   0  0  0  0  0  0  0  0  0  0  0  0
   37.7460   23.5390   31.6800 C   0  0  0  0  0  0  0  0  0  0  0  0
   38.5800   24.5900   31.5650 C   0  0  0  0  0  0  0  0  0  0  0  0
   39.6650   24.4070   31.5420 H   0  0  0  0  0  0  0  0  0  0  0  0
   38.3990   21.8870   31.7900 S   0  0  0  0  0  0  0  0  0  0  0  0
   36.9710   20.8280   31.9260 C   0  0  0  0  0  0  0  0  0  0  0  0
   37.2500   19.4870   32.0240 C   0  0  0  0  0  0  0  0  0  0  0  0
   38.2320   19.0530   32.0250 H   0  0  0  0  0  0  0  0  0  0  0  0
   36.2090   18.5870   32.1340 C   0  0  0  0  0  0  0  0  0  0  0  0
   36.3400   17.5160   32.2160 H   0  0  0  0  0  0  0  0  0  0  0  0
   34.9110   19.0550   32.1420 C   0  0  0  0  0  0  0  0  0  0  0  0
   34.0780   18.3700   32.2260 H   0  0  0  0  0  0  0  0  0  0  0  0
   34.7240   20.4180   32.0380 C   0  0  0  0  0  0  0  0  0  0  0  0
   33.6660   20.7280   32.0500 H   0  0  0  0  0  0  0  0  0  0  0  0
   35.7200   21.3670   31.9260 C   0  0  0  0  0  0  0  0  0  0  0  0
   35.4150   22.7240   31.8270 N   0  0  0  0  0  0  0  0  0  0  0  0
   34.4020   22.9710   31.8430 H   0  0  0  0  0  0  0  0  0  0  0  0
   39.3480   27.1990   31.3270 S   0  0  0  0  0  0  0  0  0  0  0  0
   41.0050   26.6470   31.8860 C   0  0  0  0  0  0  0  0  0  0  0  0
   41.7880   27.1260   31.2490 H   0  0  0  0  0  0  0  0  0  0  0  0
   41.0600   25.5500   31.7440 H   0  0  0  0  0  0  0  0  0  0  0  0
   41.3230   27.1470   33.5930 S   0  0  0  0  0  0  0  0  0  0  0  0
   40.1410   26.3170   34.6420 C   0  0  0  0  0  0  0  0  0  0  0  0
   39.2270   27.1490   35.2720 C   0  0  0  0  0  0  0  0  0  0  0  0
   38.2790   26.5670   36.1040 C   0  0  0  0  0  0  0  0  0  0  0  0
   38.2780   25.2010   36.2710 N   0  0  0  0  0  0  0  0  0  0  0  0
   39.2050   24.4530   35.6210 C   0  0  0  0  0  0  0  0  0  0  0  0
   40.1070   24.9940   34.8310 N   0  0  0  0  0  0  0  0  0  0  0  0
   39.1860   28.2330   35.1720 H   0  0  0  0  0  0  0  0  0  0  0  0
   37.5590   27.1990   36.6030 H   0  0  0  0  0  0  0  0  0  0  0  0
   39.2250   23.3670   35.7380 H   0  0  0  0  0  0  0  0  0  0  0  0
  1  2  2  0  0  0  0
  1  8  1  0  0  0  0
  2  4  1  0  0  0  0
  3  2  1  0  0  0  0
  4  5  1  0  0  0  0
  4  6  2  0  0  0  0
  6 21  1  0  0  0  0
  7  6  1  0  0  0  0
  7 10  1  0  0  0  0
  8  7  2  0  0  0  0
  9  8  1  0  0  0  0
 10 11  1  0  0  0  0
 11 12  1  0  0  0  0
 12 13  1  0  0  0  0
 12 14  2  0  0  0  0
 14 16  1  0  0  0  0
 14 15  1  0  0  0  0
 16 17  1  0  0  0  0
 18 19  1  0  0  0  0
 18 16  2  0  0  0  0
 20 11  2  0  0  0  0
 20 18  1  0  0  0  0
 21 22  1  0  0  0  0
 21 20  1  0  0  0  0
 23  1  1  0  0  0  0
 23 24  1  0  0  0  0
 24 27  1  0  0  0  0
 25 24  1  0  0  0  0
 26 24  1  0  0  0  0
 27 28  1  0  0  0  0
 28 33  2  0  0  0  0
 28 29  1  0  0  0  0
 29 30  2  0  0  0  0
 30 31  1  0  0  0  0
 30 35  1  0  0  0  0
 32 36  1  0  0  0  0
 32 31  2  0  0  0  0
 33 32  1  0  0  0  0
 34 29  1  0  0  0  0
M  END
>  <minimizedAffinity>
-5.17758751

$$$$

 OpenBabel03262521533D

 36 39  0  0  0  0  0  0  0  0999 V2000
   41.6940   24.9110   34.4620 C   0  0  0  0  0  0  0  0  0  0  0  0
   41.4620   26.2630   34.6610 C   0  0  0  0  0  0  0  0  0  0  0  0
   42.1870   26.8400   35.2000 H   0  0  0  0  0  0  0  0  0  0  0  0
   40.2940   26.7840   34.1440 C   0  0  0  0  0  0  0  0  0  0  0  0
   40.1650   27.8630   34.3330 H   0  0  0  0  0  0  0  0  0  0  0  0
   39.3430   26.0740   33.4490 C   0  0  0  0  0  0  0  0  0  0  0  0
   39.6120   24.7440   33.2750 C   0  0  0  0  0  0  0  0  0  0  0  0
   40.7400   24.1940   33.7630 C   0  0  0  0  0  0  0  0  0  0  0  0
   40.9190   23.1200   33.6020 H   0  0  0  0  0  0  0  0  0  0  0  0
   38.4390   23.7420   32.3870 S   0  0  0  0  0  0  0  0  0  0  0  0
   37.1230   24.8550   31.9310 C   0  0  0  0  0  0  0  0  0  0  0  0
   36.0950   24.2810   31.2260 C   0  0  0  0  0  0  0  0  0  0  0  0
   36.0340   23.2470   30.9430 H   0  0  0  0  0  0  0  0  0  0  0  0
   35.0290   25.0620   30.8290 C   0  0  0  0  0  0  0  0  0  0  0  0
   34.1790   24.6910   30.2710 H   0  0  0  0  0  0  0  0  0  0  0  0
   35.0200   26.4050   31.1490 C   0  0  0  0  0  0  0  0  0  0  0  0
   34.1970   27.0390   30.8490 H   0  0  0  0  0  0  0  0  0  0  0  0
   36.0960   26.8970   31.8600 C   0  0  0  0  0  0  0  0  0  0  0  0
   36.0300   27.9740   32.0840 H   0  0  0  0  0  0  0  0  0  0  0  0
   37.1880   26.1700   32.2850 C   0  0  0  0  0  0  0  0  0  0  0  0
   38.2220   26.7730   33.0000 N   0  0  0  0  0  0  0  0  0  0  0  0
   38.1180   27.7920   33.1890 H   0  0  0  0  0  0  0  0  0  0  0  0
   43.1410   24.0650   35.0540 S   0  0  0  0  0  0  0  0  0  0  0  0
   42.8340   23.2530   36.6690 C   0  0  0  0  0  0  0  0  0  0  0  0
   42.3020   23.9650   37.3450 H   0  0  0  0  0  0  0  0  0  0  0  0
   43.8180   23.0120   37.1170 H   0  0  0  0  0  0  0  0  0  0  0  0
   41.7760   21.7990   36.4820 S   0  0  0  0  0  0  0  0  0  0  0  0
   40.0860   22.3080   36.7440 C   0  0  0  0  0  0  0  0  0  0  0  0
   39.8470   22.9600   37.9450 C   0  0  0  0  0  0  0  0  0  0  0  0
   38.5510   23.3830   38.2130 C   0  0  0  0  0  0  0  0  0  0  0  0
   37.5600   23.1430   37.2890 N   0  0  0  0  0  0  0  0  0  0  0  0
   37.8710   22.4980   36.1360 C   0  0  0  0  0  0  0  0  0  0  0  0
   39.0950   22.0940   35.8730 N   0  0  0  0  0  0  0  0  0  0  0  0
   40.5960   23.1740   38.7070 H   0  0  0  0  0  0  0  0  0  0  0  0
   38.3460   23.8930   39.1430 H   0  0  0  0  0  0  0  0  0  0  0  0
   37.1020   22.2950   35.3870 H   0  0  0  0  0  0  0  0  0  0  0  0
  1  2  1  0  0  0  0
  1 23  1  0  0  0  0
  2  3  1  0  0  0  0
  4  5  1  0  0  0  0
  4  2  2  0  0  0  0
  6  4  1  0  0  0  0
  7  6  2  0  0  0  0
  7  8  1  0  0  0  0
  8  1  2  0  0  0  0
  9  8  1  0  0  0  0
 10  7  1  0  0  0  0
 11 20  1  0  0  0  0
 11 10  1  0  0  0  0
 12 11  2  0  0  0  0
 13 12  1  0  0  0  0
 14 16  2  0  0  0  0
 14 12  1  0  0  0  0
 15 14  1  0  0  0  0
 16 18  1  0  0  0  0
 17 16  1  0  0  0  0
 18 19  1  0  0  0  0
 18 20  2  0  0  0  0
 20 21  1  0  0  0  0
 21 22  1  0  0  0  0
 21  6  1  0  0  0  0
 23 24  1  0  0  0  0
 24 26  1  0  0  0  0
 24 25  1  0  0  0  0
 27 24  1  0  0  0  0
 27 28  1  0  0  0  0
 28 29  1  0  0  0  0
 29 30  2  0  0  0  0
 29 34  1  0  0  0  0
 30 35  1  0  0  0  0
 31 30  1  0  0  0  0
 32 31  2  0  0  0  0
 33 32  1  0  0  0  0
 33 28  2  0  0  0  0
 36 32  1  0  0  0  0
M  END
>  <minimizedAffinity>
-5.17724323

$$$$
