
 OpenBabel03272503303D

 47 51  0  0  1  0  0  0  0  0999 V2000
   35.3350   29.5360   47.9210 C   0  0  0  0  0  0  0  0  0  0  0  0
   35.3600   29.9020   46.5760 C   0  0  0  0  0  0  0  0  0  0  0  0
   34.2630   29.5630   45.7980 C   0  0  0  0  0  0  0  0  0  0  0  0
   33.2330   28.8920   46.4110 N   0  0  0  0  0  0  0  0  0  0  0  0
   33.2410   28.5560   47.7090 C   0  0  0  0  0  0  0  0  0  0  0  0
   34.2980   28.8810   48.4670 N   0  0  0  0  0  0  0  0  0  0  0  0
   36.1600   30.4240   46.0930 H   0  0  0  0  0  0  0  0  0  0  0  0
   34.1970   29.8080   44.7400 H   0  0  0  0  0  0  0  0  0  0  0  0
   36.4820   29.8970   48.7130 N   0  0  0  0  0  0  0  0  0  0  0  0
   37.6270   30.6330   48.2880 C   0  0  0  0  0  0  0  0  0  0  0  0
   38.0820   31.3230   49.5750 C   0  0  2  0  0  0  0  0  0  0  0  0
   37.0490   30.9680   50.6180 C   0  0  0  0  0  0  0  0  0  0  0  0
   36.6930   29.5750   50.1020 C   0  0  0  0  0  0  0  0  0  0  0  0
   38.4070   29.9030   48.0090 H   0  0  0  0  0  0  0  0  0  0  0  0
   37.4180   31.3890   47.4990 H   0  0  0  0  0  0  0  0  0  0  0  0
   39.0460   30.8790   49.9410 H   0  0  0  0  0  0  0  0  0  0  0  0
   36.1530   31.5920   50.4880 H   0  0  0  0  0  0  0  0  0  0  0  0
   37.4440   30.9590   51.6400 H   0  0  0  0  0  0  0  0  0  0  0  0
   35.7370   29.2690   50.5590 H   0  0  0  0  0  0  0  0  0  0  0  0
   37.5200   28.8620   50.2780 H   0  0  0  0  0  0  0  0  0  0  0  0
   38.2720   32.8010   49.4110 C   0  0  0  0  0  0  0  0  0  0  0  0
   37.1160   33.3920   49.8820 F   0  0  0  0  0  0  0  0  0  0  0  0
   38.3400   33.0510   48.0620 F   0  0  0  0  0  0  0  0  0  0  0  0
   39.3820   33.2820   50.0380 F   0  0  0  0  0  0  0  0  0  0  0  0
   31.8810   27.6850   48.4630 S   0  0  0  0  0  0  0  0  0  0  0  0
   30.4520   27.6950   47.3980 C   0  0  0  0  0  0  0  0  0  0  0  0
   29.7040   26.5510   47.1410 C   0  0  0  0  0  0  0  0  0  0  0  0
   29.9900   25.6290   47.5950 H   0  0  0  0  0  0  0  0  0  0  0  0
   28.6070   26.6480   46.3000 C   0  0  0  0  0  0  0  0  0  0  0  0
   28.0720   25.7130   46.1470 H   0  0  0  0  0  0  0  0  0  0  0  0
   28.1960   27.8150   45.6890 C   0  0  0  0  0  0  0  0  0  0  0  0
   28.9580   28.9180   45.9660 C   0  0  0  0  0  0  0  0  0  0  0  0
   30.0330   28.8510   46.7840 C   0  0  0  0  0  0  0  0  0  0  0  0
   30.6050   29.7670   46.9700 H   0  0  0  0  0  0  0  0  0  0  0  0
   28.4950   30.4570   45.2190 S   0  0  0  0  0  0  0  0  0  0  0  0
   27.0520   30.1320   44.2330 C   0  0  0  0  0  0  0  0  0  0  0  0
   26.4970   31.1720   43.5470 C   0  0  0  0  0  0  0  0  0  0  0  0
   26.9000   32.1850   43.5820 H   0  0  0  0  0  0  0  0  0  0  0  0
   25.3730   30.9950   42.7580 C   0  0  0  0  0  0  0  0  0  0  0  0
   24.9450   31.8170   42.2240 H   0  0  0  0  0  0  0  0  0  0  0  0
   24.8280   29.7300   42.6840 C   0  0  0  0  0  0  0  0  0  0  0  0
   23.9600   29.5600   42.0830 H   0  0  0  0  0  0  0  0  0  0  0  0
   25.4410   28.7250   43.4020 C   0  0  0  0  0  0  0  0  0  0  0  0
   24.9540   27.7440   43.2980 H   0  0  0  0  0  0  0  0  0  0  0  0
   26.5590   28.8530   44.1990 C   0  0  0  0  0  0  0  0  0  0  0  0
   27.0680   27.7300   44.8720 N   0  0  0  0  0  0  0  0  0  0  0  0
   26.5660   26.8270   44.7350 H   0  0  0  0  0  0  0  0  0  0  0  0
  1  6  1  0  0  0  0
  1  9  1  0  0  0  0
  2  1  2  0  0  0  0
  3  4  2  0  0  0  0
  3  2  1  0  0  0  0
  4  5  1  0  0  0  0
  5 25  1  0  0  0  0
  5  6  2  0  0  0  0
  7  2  1  0  0  0  0
  8  3  1  0  0  0  0
  9 13  1  0  0  0  0
 10  9  1  0  0  0  0
 10 11  1  0  0  0  0
 11 16  1  1  0  0  0
 11 12  1  0  0  0  0
 12 18  1  0  0  0  0
 13 20  1  0  0  0  0
 13 19  1  0  0  0  0
 13 12  1  0  0  0  0
 14 10  1  0  0  0  0
 15 10  1  0  0  0  0
 17 12  1  0  0  0  0
 21 11  1  0  0  0  0
 21 22  1  0  0  0  0
 21 24  1  0  0  0  0
 23 21  1  0  0  0  0
 26 25  1  0  0  0  0
 27 26  1  0  0  0  0
 27 28  1  0  0  0  0
 29 27  2  0  0  0  0
 30 29  1  0  0  0  0
 31 32  2  0  0  0  0
 31 29  1  0  0  0  0
 32 33  1  0  0  0  0
 33 34  1  0  0  0  0
 33 26  2  0  0  0  0
 35 32  1  0  0  0  0
 36 35  1  0  0  0  0
 37 38  1  0  0  0  0
 37 36  2  0  0  0  0
 39 37  1  0  0  0  0
 40 39  1  0  0  0  0
 41 39  2  0  0  0  0
 41 43  1  0  0  0  0
 42 41  1  0  0  0  0
 43 45  2  0  0  0  0
 44 43  1  0  0  0  0
 45 36  1  0  0  0  0
 45 46  1  0  0  0  0
 46 31  1  0  0  0  0
 47 46  1  0  0  0  0
M  END
>  <minimizedAffinity>
-7.05572605

>  <minimizedRMSD>
1.33306396

$$$$
