
 OpenBabel03272501583D

 44 48  0  0  0  0  0  0  0  0999 V2000
   33.0870   28.1500   47.7460 C   0  0  0  0  0  0  0  0  0  0  0  0
   31.9600   27.3950   47.9440 C   0  0  0  0  0  0  0  0  0  0  0  0
   30.8890   27.9620   47.2660 C   0  0  0  0  0  0  0  0  0  0  0  0
   31.4090   29.0590   46.6690 N   0  0  0  0  0  0  0  0  0  0  0  0
   32.6970   29.1670   46.9510 N   0  0  0  0  0  0  0  0  0  0  0  0
   31.8580   26.4810   48.5330 H   0  0  0  0  0  0  0  0  0  0  0  0
   29.8490   27.6280   47.2040 H   0  0  0  0  0  0  0  0  0  0  0  0
   30.7480   30.0100   45.8440 C   0  0  0  0  0  0  0  0  0  0  0  0
   31.4380   31.0510   45.2760 C   0  0  0  0  0  0  0  0  0  0  0  0
   32.4960   31.1370   45.4650 H   0  0  0  0  0  0  0  0  0  0  0  0
   30.7690   31.9570   44.4810 C   0  0  0  0  0  0  0  0  0  0  0  0
   31.4030   32.7540   44.0700 H   0  0  0  0  0  0  0  0  0  0  0  0
   29.4220   31.9000   44.2030 C   0  0  0  0  0  0  0  0  0  0  0  0
   28.7510   30.8520   44.7810 C   0  0  0  0  0  0  0  0  0  0  0  0
   29.4000   29.9470   45.5710 C   0  0  0  0  0  0  0  0  0  0  0  0
   28.8440   29.1230   46.0180 H   0  0  0  0  0  0  0  0  0  0  0  0
   27.0040   30.7060   44.4710 S   0  0  0  0  0  0  0  0  0  0  0  0
   26.5590   32.0660   43.4110 C   0  0  0  0  0  0  0  0  0  0  0  0
   25.2530   32.1850   43.0190 C   0  0  0  0  0  0  0  0  0  0  0  0
   24.5030   31.4690   43.3450 H   0  0  0  0  0  0  0  0  0  0  0  0
   24.8450   33.2070   42.2040 C   0  0  0  0  0  0  0  0  0  0  0  0
   23.8280   33.3430   41.8690 H   0  0  0  0  0  0  0  0  0  0  0  0
   25.7880   34.1190   41.7870 C   0  0  0  0  0  0  0  0  0  0  0  0
   25.4910   34.9190   41.1530 H   0  0  0  0  0  0  0  0  0  0  0  0
   27.0880   33.9520   42.2100 C   0  0  0  0  0  0  0  0  0  0  0  0
   27.7810   34.7160   41.8380 H   0  0  0  0  0  0  0  0  0  0  0  0
   27.5450   32.9410   43.0290 C   0  0  0  0  0  0  0  0  0  0  0  0
   28.9100   32.9110   43.3720 N   0  0  0  0  0  0  0  0  0  0  0  0
   29.5260   33.6570   42.9930 H   0  0  0  0  0  0  0  0  0  0  0  0
   34.4590   27.8770   48.3080 C   0  0  0  0  0  0  0  0  0  0  0  0
   34.5640   26.7650   48.2900 H   0  0  0  0  0  0  0  0  0  0  0  0
   35.2180   28.3450   47.6370 H   0  0  0  0  0  0  0  0  0  0  0  0
   34.4550   28.4580   49.6910 C   0  0  0  0  0  0  0  0  0  0  0  0
   33.5570   29.0240   49.9610 H   0  0  0  0  0  0  0  0  0  0  0  0
   34.5070   27.5790   50.3940 H   0  0  0  0  0  0  0  0  0  0  0  0
   37.2860   30.1710   51.3470 C   0  0  0  0  0  0  0  0  0  0  0  0
   38.0580   30.6150   50.2660 C   0  0  0  0  0  0  0  0  0  0  0  0
   37.5910   30.3160   48.9650 C   0  0  0  0  0  0  0  0  0  0  0  0
   36.4320   29.6230   48.8350 N   0  0  0  0  0  0  0  0  0  0  0  0
   35.7270   29.2200   49.9180 C   0  0  0  0  0  0  0  0  0  0  0  0
   36.1540   29.4930   51.1520 N   0  0  0  0  0  0  0  0  0  0  0  0
   37.6740   30.4170   52.3330 H   0  0  0  0  0  0  0  0  0  0  0  0
   38.9860   31.1690   50.3240 H   0  0  0  0  0  0  0  0  0  0  0  0
   38.0750   30.5910   48.0480 H   0  0  0  0  0  0  0  0  0  0  0  0
  1  2  1  0  0  0  0
  1 30  1  0  0  0  0
  2  6  1  0  0  0  0
  3  2  2  0  0  0  0
  4  5  1  0  0  0  0
  4  3  1  0  0  0  0
  5  1  2  0  0  0  0
  7  3  1  0  0  0  0
  8  4  1  0  0  0  0
  9 10  1  0  0  0  0
  9  8  2  0  0  0  0
 11  9  1  0  0  0  0
 12 11  1  0  0  0  0
 13 11  2  0  0  0  0
 13 14  1  0  0  0  0
 14 15  2  0  0  0  0
 15  8  1  0  0  0  0
 15 16  1  0  0  0  0
 17 14  1  0  0  0  0
 18 17  1  0  0  0  0
 19 20  1  0  0  0  0
 19 18  2  0  0  0  0
 21 19  1  0  0  0  0
 22 21  1  0  0  0  0
 23 21  2  0  0  0  0
 23 25  1  0  0  0  0
 24 23  1  0  0  0  0
 25 27  2  0  0  0  0
 26 25  1  0  0  0  0
 27 28  1  0  0  0  0
 27 18  1  0  0  0  0
 28 13  1  0  0  0  0
 29 28  1  0  0  0  0
 30 33  1  0  0  0  0
 31 30  1  0  0  0  0
 32 30  1  0  0  0  0
 33 40  1  0  0  0  0
 33 34  1  0  0  0  0
 33 35  1  0  0  0  0
 36 42  1  0  0  0  0
 37 43  1  0  0  0  0
 37 36  2  0  0  0  0
 38 37  1  0  0  0  0
 39 38  2  0  0  0  0
 39 40  1  0  0  0  0
 40 41  2  0  0  0  0
 41 36  1  0  0  0  0
 44 38  1  0  0  0  0
M  END
>  <minimizedAffinity>
-6.17012501

>  <minimizedRMSD>
1.80871499

$$$$
