
     RDKit          3D

 38 42  0  0  0  0  0  0  0  0999 V2000
   38.0790   33.1952   49.3877 C   0  0  0  0  0  0  0  0  0  0  0  0
   38.9201   32.9293   48.2807 C   0  0  0  0  0  0  0  0  0  0  0  0
   38.6798   31.7746   47.5367 C   0  0  0  0  0  0  0  0  0  0  0  0
   37.6559   30.9639   47.9068 N   0  0  0  0  0  0  0  0  0  0  0  0
   36.8692   31.2497   48.9741 C   0  0  0  0  0  0  0  0  0  0  0  0
   37.0793   32.3569   49.7088 N   0  0  0  0  0  0  0  0  0  0  0  0
   35.7864   30.3341   49.3153 C   0  0  0  0  0  0  0  0  0  0  0  0
   35.8639   28.9491   49.3592 C   0  0  0  0  0  0  0  0  0  0  0  0
   34.6458   28.4423   49.7184 C   0  0  0  0  0  0  0  0  0  0  0  0
   33.8368   29.5134   49.8906 N   0  0  0  0  0  0  0  0  0  0  0  0
   34.5336   30.6194   49.6467 N   0  0  0  0  0  0  0  0  0  0  0  0
   38.2600   34.0999   49.9782 H   0  0  0  0  0  0  0  0  0  0  0  0
   39.7201   33.6184   48.0396 H   0  0  0  0  0  0  0  0  0  0  0  0
   39.3059   31.5463   46.6865 H   0  0  0  0  0  0  0  0  0  0  0  0
   36.7777   28.4116   49.1331 H   0  0  0  0  0  0  0  0  0  0  0  0
   34.4090   27.4061   49.8324 H   0  0  0  0  0  0  0  0  0  0  0  0
   32.4672   29.4612   50.2701 C   0  0  0  0  0  0  0  0  0  0  0  0
   31.7712   30.6287   50.5011 C   0  0  0  0  0  0  0  0  0  0  0  0
   32.2444   31.5947   50.4003 H   0  0  0  0  0  0  0  0  0  0  0  0
   30.4468   30.5139   50.8660 C   0  0  0  0  0  0  0  0  0  0  0  0
   29.9346   31.4735   51.0392 H   0  0  0  0  0  0  0  0  0  0  0  0
   29.7430   29.3387   51.0243 C   0  0  0  0  0  0  0  0  0  0  0  0
   30.5109   28.2273   50.7751 C   0  0  0  0  0  0  0  0  0  0  0  0
   31.8312   28.2501   50.4083 C   0  0  0  0  0  0  0  0  0  0  0  0
   32.3923   27.3436   50.2232 H   0  0  0  0  0  0  0  0  0  0  0  0
   29.7634   26.6156   50.9316 S   0  0  0  0  0  0  0  0  0  0  0  0
   28.0774   26.8869   51.4095 C   0  0  0  0  0  0  0  0  0  0  0  0
   27.2344   25.8539   51.6111 C   0  0  0  0  0  0  0  0  0  0  0  0
   27.6130   24.8335   51.4731 H   0  0  0  0  0  0  0  0  0  0  0  0
   25.8926   25.9818   51.9886 C   0  0  0  0  0  0  0  0  0  0  0  0
   25.3117   25.0996   52.1221 H   0  0  0  0  0  0  0  0  0  0  0  0
   25.4698   27.2887   52.1480 C   0  0  0  0  0  0  0  0  0  0  0  0
   24.4377   27.4397   52.4401 H   0  0  0  0  0  0  0  0  0  0  0  0
   26.3386   28.3405   51.9398 C   0  0  0  0  0  0  0  0  0  0  0  0
   25.8962   29.3268   52.0945 H   0  0  0  0  0  0  0  0  0  0  0  0
   27.6569   28.1768   51.5677 C   0  0  0  0  0  0  0  0  0  0  0  0
   28.3886   29.3713   51.4023 N   0  0  0  0  0  0  0  0  0  0  0  0
   27.9726   30.2927   51.5475 H   0  0  0  0  0  0  0  0  0  0  0  0
  1  6  2  0
  2  1  1  0
  3  4  1  0
  3  2  2  0
  4  5  2  0
  5  7  1  0
  5  6  1  0
  7  8  1  0
  7 11  2  0
  8  9  2  0
  9 10  1  0
 11 10  1  0
  1 12  1  0
  2 13  1  0
  3 14  1  0
  8 15  1  0
  9 16  1  0
 17 18  2  0
 18 19  1  0
 18 20  1  0
 20 21  1  0
 20 22  2  0
 22 23  1  0
 23 24  2  0
 24 25  1  0
 23 26  1  0
 26 27  1  0
 27 28  2  0
 28 29  1  0
 28 30  1  0
 30 31  1  0
 30 32  2  0
 32 33  1  0
 32 34  1  0
 34 35  1  0
 34 36  2  0
 36 37  1  0
 37 38  1  0
 24 17  1  0
 36 27  1  0
 37 22  1  0
 10 17  1  0
M  ISO  8  12  14  13  14  14  14  15  14  16  14  19  16  21  16  25  16
M  ISO  5  29  16  31  16  33  16  35  16  38   5
M  END
>  <DihAtoms>  (1) 
8,9,16,17

>  <DihDeg>  (1) 
175.63040318465153

$$$$
