REMARK  Name = 
REMARK  2 active torsions:
REMARK  status: ('A' for Active; 'I' for Inactive)
REMARK    1  A    between atoms: C_5  and  C_7
REMARK    2  A    between atoms: N_10  and  C_17
REMARK                            x       y       z     vdW  Elec       q    Type
REMARK                         _______ _______ _______ _____ _____    ______ ____
ROOT
ATOM      1  C   UNL     1      32.467  29.461  50.270  0.00  0.00    +0.000 A 
ATOM      2  C   UNL     1      31.855  30.578  50.797  0.00  0.00    +0.000 A 
ATOM      3  H   UNL     1      32.395  31.505  50.931  0.00  0.00    +0.000 HD
ATOM      4  C   UNL     1      30.526  30.466  51.146  0.00  0.00    +0.000 A 
ATOM      5  H   UNL     1      30.083  31.385  51.562  0.00  0.00    +0.000 HD
ATOM      6  C   UNL     1      29.742  29.340  51.020  0.00  0.00    +0.000 A 
ATOM      7  C   UNL     1      30.429  28.276  50.488  0.00  0.00    +0.000 A 
ATOM      8  C   UNL     1      31.748  28.300  50.114  0.00  0.00    +0.000 A 
ATOM      9  H   UNL     1      32.244  27.433  49.699  0.00  0.00    +0.000 HD
ATOM     10  S   UNL     1      29.571  26.731  50.252  0.00  0.00    +0.000 S 
ATOM     11  C   UNL     1      27.908  26.988  50.813  0.00  0.00    +0.000 A 
ATOM     12  C   UNL     1      26.995  25.997  50.766  0.00  0.00    +0.000 A 
ATOM     13  H   UNL     1      27.301  25.020  50.372  0.00  0.00    +0.000 HD
ATOM     14  C   UNL     1      25.666  26.117  51.188  0.00  0.00    +0.000 A 
ATOM     15  H   UNL     1      25.024  25.271  51.108  0.00  0.00    +0.000 HD
ATOM     16  C   UNL     1      25.336  27.369  51.675  0.00  0.00    +0.000 A 
ATOM     17  H   UNL     1      24.317  27.512  52.015  0.00  0.00    +0.000 HD
ATOM     18  C   UNL     1      26.276  28.378  51.720  0.00  0.00    +0.000 A 
ATOM     19  H   UNL     1      25.904  29.322  52.123  0.00  0.00    +0.000 HD
ATOM     20  C   UNL     1      27.579  28.223  51.295  0.00  0.00    +0.000 A 
ATOM     21  N   UNL     1      28.393  29.369  51.419  0.00  0.00    +0.000 N 
ATOM     22  H   UNL     1      28.043  30.251  51.796  0.00  0.00    +0.000 HD
ENDROOT
BRANCH   1  26
ATOM     23  C   UNL     1      35.786  30.334  49.315  0.00  0.00    +0.000 A 
ATOM     24  C   UNL     1      35.864  28.949  49.359  0.00  0.00    +0.000 A 
ATOM     25  C   UNL     1      34.646  28.442  49.718  0.00  0.00    +0.000 A 
ATOM     26  N   UNL     1      33.837  29.513  49.891  0.00  0.00    +0.000 N 
ATOM     27  N   UNL     1      34.534  30.619  49.647  0.00  0.00    +0.000 NA
ATOM     28  H   UNL     1      36.778  28.412  49.133  0.00  0.00    +0.000 HD
ATOM     29  H   UNL     1      34.409  27.406  49.832  0.00  0.00    +0.000 HD
BRANCH  23  34
ATOM     30  C   UNL     1      38.079  33.195  49.388  0.00  0.00    +0.000 A 
ATOM     31  C   UNL     1      38.920  32.929  48.281  0.00  0.00    +0.000 A 
ATOM     32  C   UNL     1      38.680  31.775  47.537  0.00  0.00    +0.000 A 
ATOM     33  N   UNL     1      37.656  30.964  47.907  0.00  0.00    +0.000 NA
ATOM     34  C   UNL     1      36.869  31.250  48.974  0.00  0.00    +0.000 A 
ATOM     35  N   UNL     1      37.079  32.357  49.709  0.00  0.00    +0.000 NA
ATOM     36  H   UNL     1      38.260  34.100  49.978  0.00  0.00    +0.000 HD
ATOM     37  H   UNL     1      39.720  33.618  48.040  0.00  0.00    +0.000 HD
ATOM     38  H   UNL     1      39.306  31.546  46.687  0.00  0.00    +0.000 HD
ENDBRANCH  23  34
ENDBRANCH   1  26
TORSDOF 2
