
     RDKit          3D

 39 43  0  0  0  0  0  0  0  0999 V2000
   37.5243   31.4048   49.3285 C   0  0  0  0  0  0  0  0  0  0  0  0
   38.1444   32.6576   49.3903 C   0  0  0  0  0  0  0  0  0  0  0  0
   38.9265   32.9842   48.2994 C   0  0  0  0  0  0  0  0  0  0  0  0
   39.0695   32.1247   47.2418 N   0  0  0  0  0  0  0  0  0  0  0  0
   38.4418   30.9112   47.2301 C   0  0  0  0  0  0  0  0  0  0  0  0
   37.6622   30.5472   48.2825 N   0  0  0  0  0  0  0  0  0  0  0  0
   36.6456   31.0351   50.5071 C   0  0  1  0  0  0  0  0  0  0  0  0
   36.1393   29.6903   50.6647 C   0  0  2  0  0  0  0  0  0  0  0  0
   37.3552   30.0846   51.4795 C   0  0  0  0  0  0  0  0  0  0  0  0
   36.3671   28.7483   49.6552 O   0  0  0  0  0  0  0  0  0  0  0  0
   38.0005   33.2995   50.2458 H   0  0  0  0  0  0  0  0  0  0  0  0
   39.4312   33.9443   48.2947 H   0  0  0  0  0  0  0  0  0  0  0  0
   38.5614   30.2416   46.3914 H   0  0  0  0  0  0  0  0  0  0  0  0
   36.2681   31.9311   51.0555 H   0  0  0  0  0  0  0  0  0  0  0  0
   35.1819   29.5529   51.1950 H   0  0  0  0  0  0  0  0  0  0  0  0
   37.1634   30.1751   52.5604 H   0  0  0  0  0  0  0  0  0  0  0  0
   38.3443   29.6723   51.1926 H   0  0  0  0  0  0  0  0  0  0  0  0
   35.5509   27.7162   49.2783 C   0  0  0  0  0  0  0  0  0  0  0  0
   34.6062   27.9809   48.2785 C   0  0  0  0  0  0  0  0  0  0  0  0
   34.5458   28.9835   47.8342 H   0  0  0  0  0  0  0  0  0  0  0  0
   33.7577   26.9780   47.8596 C   0  0  0  0  0  0  0  0  0  0  0  0
   33.0519   27.2541   47.0825 H   0  0  0  0  0  0  0  0  0  0  0  0
   33.7667   25.6969   48.3628 C   0  0  0  0  0  0  0  0  0  0  0  0
   34.6987   25.4675   49.3369 C   0  0  0  0  0  0  0  0  0  0  0  0
   35.5425   26.4236   49.7694 C   0  0  0  0  0  0  0  0  0  0  0  0
   36.2752   26.2151   50.5460 H   0  0  0  0  0  0  0  0  0  0  0  0
   34.8074   23.8459   50.0663 S   0  0  0  0  0  0  0  0  0  0  0  0
   33.5564   22.8716   49.2539 C   0  0  0  0  0  0  0  0  0  0  0  0
   33.4221   21.5749   49.6269 C   0  0  0  0  0  0  0  0  0  0  0  0
   34.0640   21.1476   50.4018 H   0  0  0  0  0  0  0  0  0  0  0  0
   32.4818   20.7414   49.0554 C   0  0  0  0  0  0  0  0  0  0  0  0
   32.3740   19.7100   49.3512 H   0  0  0  0  0  0  0  0  0  0  0  0
   31.6654   21.2675   48.0766 C   0  0  0  0  0  0  0  0  0  0  0  0
   30.9110   20.6580   47.5952 H   0  0  0  0  0  0  0  0  0  0  0  0
   31.8461   22.5937   47.7361 C   0  0  0  0  0  0  0  0  0  0  0  0
   31.1707   22.9599   46.9531 H   0  0  0  0  0  0  0  0  0  0  0  0
   32.7746   23.4511   48.2874 C   0  0  0  0  0  0  0  0  0  0  0  0
   32.8491   24.7720   47.8483 N   0  0  0  0  0  0  0  0  0  0  0  0
   32.1868   25.0735   47.1026 H   0  0  0  0  0  0  0  0  0  0  0  0
  1  2  2  0
  1  7  1  0
  3  2  1  0
  4  3  2  0
  5  4  1  0
  5  6  2  0
  6  1  1  0
  7  8  1  0
  7  9  1  0
  8  9  1  0
 10  8  1  0
  2 11  1  0
  3 12  1  0
  5 13  1  0
  7 14  1  1
  8 15  1  1
  9 16  1  0
  9 17  1  0
 18 19  2  0
 19 20  1  0
 19 21  1  0
 21 22  1  0
 21 23  2  0
 23 24  1  0
 24 25  2  0
 25 26  1  0
 24 27  1  0
 27 28  1  0
 28 29  2  0
 29 30  1  0
 29 31  1  0
 31 32  1  0
 31 33  2  0
 33 34  1  0
 33 35  1  0
 35 36  1  0
 35 37  2  0
 37 38  1  0
 38 39  1  0
 25 18  1  0
 37 28  1  0
 38 23  1  0
 10 18  1  0
M  ISO  8  11  14  12  14  13  14  14  13  15  13  16  13  17  13  20  16
M  ISO  7  22  16  26  16  30  16  32  16  34  16  36  16  39   5
M  END
>  <DihAtoms>  (1) 
7,9,17,18

>  <DihDeg>  (1) 
179.99856549361843

$$$$
