REMARK  Name = 
REMARK  3 active torsions:
REMARK  status: ('A' for Active; 'I' for Inactive)
REMARK    1  A    between atoms: C_1  and  C_7
REMARK    2  A    between atoms: C_8  and  O_10
REMARK    3  A    between atoms: O_10  and  C_18
REMARK                            x       y       z     vdW  Elec       q    Type
REMARK                         _______ _______ _______ _____ _____    ______ ____
ROOT
ATOM      1  C   UNL     1      35.551  27.716  49.278  0.00  0.00    +0.000 A 
ATOM      2  C   UNL     1      34.411  28.043  48.532  0.00  0.00    +0.000 A 
ATOM      3  H   UNL     1      34.207  29.090  48.275  0.00  0.00    +0.000 HD
ATOM      4  C   UNL     1      33.553  27.043  48.125  0.00  0.00    +0.000 A 
ATOM      5  H   UNL     1      32.692  27.368  47.551  0.00  0.00    +0.000 HD
ATOM      6  C   UNL     1      33.735  25.707  48.404  0.00  0.00    +0.000 A 
ATOM      7  C   UNL     1      34.855  25.418  49.134  0.00  0.00    +0.000 A 
ATOM      8  C   UNL     1      35.714  26.370  49.547  0.00  0.00    +0.000 A 
ATOM      9  H   UNL     1      36.598  26.113  50.127  0.00  0.00    +0.000 HD
ATOM     10  S   UNL     1      35.199  23.722  49.558  0.00  0.00    +0.000 S 
ATOM     11  C   UNL     1      33.866  22.774  48.851  0.00  0.00    +0.000 A 
ATOM     12  C   UNL     1      33.882  21.430  49.028  0.00  0.00    +0.000 A 
ATOM     13  H   UNL     1      34.690  20.950  49.588  0.00  0.00    +0.000 HD
ATOM     14  C   UNL     1      32.895  20.611  48.518  0.00  0.00    +0.000 A 
ATOM     15  H   UNL     1      32.906  19.542  48.659  0.00  0.00    +0.000 HD
ATOM     16  C   UNL     1      31.870  21.203  47.810  0.00  0.00    +0.000 A 
ATOM     17  H   UNL     1      31.070  20.608  47.389  0.00  0.00    +0.000 HD
ATOM     18  C   UNL     1      31.904  22.575  47.660  0.00  0.00    +0.000 A 
ATOM     19  H   UNL     1      31.066  22.993  47.089  0.00  0.00    +0.000 HD
ATOM     20  C   UNL     1      32.875  23.419  48.156  0.00  0.00    +0.000 A 
ATOM     21  N   UNL     1      32.786  24.792  47.930  0.00  0.00    +0.000 N 
ATOM     22  H   UNL     1      31.972  25.141  47.382  0.00  0.00    +0.000 HD
ENDROOT
BRANCH   1  23
ATOM     23  O   UNL     1      36.367  28.748  49.655  0.00  0.00    +0.000 OA
BRANCH  23  25
ATOM     24  C   UNL     1      36.646  31.035  50.507  0.00  0.00    +0.000 C 
ATOM     25  C   UNL     1      36.139  29.690  50.665  0.00  0.00    +0.000 C 
ATOM     26  C   UNL     1      37.355  30.085  51.480  0.00  0.00    +0.000 C 
ATOM     27  H   UNL     1      36.268  31.931  51.056  0.00  0.00    +0.000 HD
ATOM     28  H   UNL     1      35.182  29.553  51.195  0.00  0.00    +0.000 HD
ATOM     29  H   UNL     1      37.163  30.175  52.560  0.00  0.00    +0.000 HD
ATOM     30  H   UNL     1      38.344  29.672  51.193  0.00  0.00    +0.000 HD
BRANCH  24  31
ATOM     31  C   UNL     1      37.524  31.405  49.328  0.00  0.00    +0.000 A 
ATOM     32  C   UNL     1      38.144  32.658  49.390  0.00  0.00    +0.000 A 
ATOM     33  C   UNL     1      38.926  32.984  48.299  0.00  0.00    +0.000 A 
ATOM     34  N   UNL     1      39.069  32.125  47.242  0.00  0.00    +0.000 NA
ATOM     35  C   UNL     1      38.442  30.911  47.230  0.00  0.00    +0.000 A 
ATOM     36  N   UNL     1      37.662  30.547  48.282  0.00  0.00    +0.000 NA
ATOM     37  H   UNL     1      38.001  33.300  50.246  0.00  0.00    +0.000 HD
ATOM     38  H   UNL     1      39.431  33.944  48.295  0.00  0.00    +0.000 HD
ATOM     39  H   UNL     1      38.561  30.242  46.391  0.00  0.00    +0.000 HD
ENDBRANCH  24  31
ENDBRANCH  23  25
ENDBRANCH   1  23
TORSDOF 3
