REMARK  Name = 
REMARK  3 active torsions:
REMARK  status: ('A' for Active; 'I' for Inactive)
REMARK    1  A    between atoms: C_1  and  C_7
REMARK    2  A    between atoms: C_8  and  O_10
REMARK    3  A    between atoms: O_10  and  C_18
REMARK                            x       y       z     vdW  Elec       q    Type
REMARK                         _______ _______ _______ _____ _____    ______ ____
ROOT
ATOM      1  C   UNL     1      35.551  27.716  49.278  0.00  0.00    +0.000 A 
ATOM      2  C   UNL     1      34.343  27.570  49.972  0.00  0.00    +0.000 A 
ATOM      3  H   UNL     1      34.088  28.269  50.781  0.00  0.00    +0.000 HD
ATOM      4  C   UNL     1      33.482  26.548  49.635  0.00  0.00    +0.000 A 
ATOM      5  H   UNL     1      32.565  26.495  50.214  0.00  0.00    +0.000 HD
ATOM      6  C   UNL     1      33.724  25.630  48.638  0.00  0.00    +0.000 A 
ATOM      7  C   UNL     1      34.910  25.797  47.978  0.00  0.00    +0.000 A 
ATOM      8  C   UNL     1      35.774  26.784  48.281  0.00  0.00    +0.000 A 
ATOM      9  H   UNL     1      36.711  26.895  47.740  0.00  0.00    +0.000 HD
ATOM     10  S   UNL     1      35.336  24.670  46.665  0.00  0.00    +0.000 S 
ATOM     11  C   UNL     1      33.975  23.525  46.558  0.00  0.00    +0.000 A 
ATOM     12  C   UNL     1      34.044  22.545  45.623  0.00  0.00    +0.000 A 
ATOM     13  H   UNL     1      34.909  22.467  44.960  0.00  0.00    +0.000 HD
ATOM     14  C   UNL     1      33.039  21.612  45.464  0.00  0.00    +0.000 A 
ATOM     15  H   UNL     1      33.093  20.832  44.721  0.00  0.00    +0.000 HD
ATOM     16  C   UNL     1      31.942  21.700  46.295  0.00  0.00    +0.000 A 
ATOM     17  H   UNL     1      31.125  20.993  46.213  0.00  0.00    +0.000 HD
ATOM     18  C   UNL     1      31.925  22.717  47.228  0.00  0.00    +0.000 A 
ATOM     19  H   UNL     1      31.029  22.740  47.862  0.00  0.00    +0.000 HD
ATOM     20  C   UNL     1      32.910  23.663  47.412  0.00  0.00    +0.000 A 
ATOM     21  N   UNL     1      32.764  24.639  48.397  0.00  0.00    +0.000 N 
ATOM     22  H   UNL     1      31.896  24.620  48.973  0.00  0.00    +0.000 HD
ENDROOT
BRANCH   1  23
ATOM     23  O   UNL     1      36.367  28.748  49.655  0.00  0.00    +0.000 OA
BRANCH  23  25
ATOM     24  C   UNL     1      36.646  31.035  50.507  0.00  0.00    +0.000 C 
ATOM     25  C   UNL     1      36.139  29.690  50.665  0.00  0.00    +0.000 C 
ATOM     26  C   UNL     1      37.355  30.085  51.480  0.00  0.00    +0.000 C 
ATOM     27  H   UNL     1      36.268  31.931  51.056  0.00  0.00    +0.000 HD
ATOM     28  H   UNL     1      35.182  29.553  51.195  0.00  0.00    +0.000 HD
ATOM     29  H   UNL     1      37.163  30.175  52.560  0.00  0.00    +0.000 HD
ATOM     30  H   UNL     1      38.344  29.672  51.193  0.00  0.00    +0.000 HD
BRANCH  24  31
ATOM     31  C   UNL     1      37.524  31.405  49.328  0.00  0.00    +0.000 A 
ATOM     32  C   UNL     1      38.144  32.658  49.390  0.00  0.00    +0.000 A 
ATOM     33  C   UNL     1      38.926  32.984  48.299  0.00  0.00    +0.000 A 
ATOM     34  N   UNL     1      39.069  32.125  47.242  0.00  0.00    +0.000 NA
ATOM     35  C   UNL     1      38.442  30.911  47.230  0.00  0.00    +0.000 A 
ATOM     36  N   UNL     1      37.662  30.547  48.282  0.00  0.00    +0.000 NA
ATOM     37  H   UNL     1      38.001  33.300  50.246  0.00  0.00    +0.000 HD
ATOM     38  H   UNL     1      39.431  33.944  48.295  0.00  0.00    +0.000 HD
ATOM     39  H   UNL     1      38.561  30.242  46.391  0.00  0.00    +0.000 HD
ENDBRANCH  24  31
ENDBRANCH  23  25
ENDBRANCH   1  23
TORSDOF 3
