
 OpenBabel03272501593D

 44 48  0  0  0  0  0  0  0  0999 V2000
   37.8060   27.1220   33.9070 C   0  0  0  0  0  0  0  0  0  0  0  0
   37.5180   27.3520   32.5870 C   0  0  0  0  0  0  0  0  0  0  0  0
   36.4900   28.2800   32.4850 C   0  0  0  0  0  0  0  0  0  0  0  0
   36.1830   28.5880   33.7660 N   0  0  0  0  0  0  0  0  0  0  0  0
   36.9560   27.9090   34.5980 N   0  0  0  0  0  0  0  0  0  0  0  0
   37.9880   26.9050   31.7080 H   0  0  0  0  0  0  0  0  0  0  0  0
   36.0110   28.6930   31.5910 H   0  0  0  0  0  0  0  0  0  0  0  0
   35.1960   29.4940   34.2420 C   0  0  0  0  0  0  0  0  0  0  0  0
   33.8940   29.4050   33.8150 C   0  0  0  0  0  0  0  0  0  0  0  0
   33.6310   28.6350   33.1080 H   0  0  0  0  0  0  0  0  0  0  0  0
   32.9590   30.2970   34.2940 C   0  0  0  0  0  0  0  0  0  0  0  0
   31.9470   30.1500   33.8970 H   0  0  0  0  0  0  0  0  0  0  0  0
   33.2350   31.3010   35.1960 C   0  0  0  0  0  0  0  0  0  0  0  0
   34.5410   31.3710   35.6090 C   0  0  0  0  0  0  0  0  0  0  0  0
   35.4780   30.4940   35.1420 C   0  0  0  0  0  0  0  0  0  0  0  0
   36.5080   30.5730   35.4880 H   0  0  0  0  0  0  0  0  0  0  0  0
   34.9800   32.6420   36.7760 S   0  0  0  0  0  0  0  0  0  0  0  0
   33.4890   33.5540   37.1210 C   0  0  0  0  0  0  0  0  0  0  0  0
   33.5570   34.6010   38.0010 C   0  0  0  0  0  0  0  0  0  0  0  0
   34.4950   34.8710   38.4800 H   0  0  0  0  0  0  0  0  0  0  0  0
   32.4480   35.3430   38.3100 C   0  0  0  0  0  0  0  0  0  0  0  0
   32.4510   36.1750   38.9960 H   0  0  0  0  0  0  0  0  0  0  0  0
   31.2560   35.0070   37.7080 C   0  0  0  0  0  0  0  0  0  0  0  0
   30.3830   35.5720   37.9360 H   0  0  0  0  0  0  0  0  0  0  0  0
   31.2450   33.9450   36.8310 C   0  0  0  0  0  0  0  0  0  0  0  0
   30.2610   33.7390   36.3920 H   0  0  0  0  0  0  0  0  0  0  0  0
   32.3330   33.1710   36.4910 C   0  0  0  0  0  0  0  0  0  0  0  0
   32.1550   32.1180   35.5740 N   0  0  0  0  0  0  0  0  0  0  0  0
   31.2030   31.9620   35.1860 H   0  0  0  0  0  0  0  0  0  0  0  0
   38.8560   26.1840   34.4450 C   0  0  0  0  0  0  0  0  0  0  0  0
   39.6720   26.1930   33.6820 H   0  0  0  0  0  0  0  0  0  0  0  0
   39.2330   26.5900   35.4140 H   0  0  0  0  0  0  0  0  0  0  0  0
   38.1800   24.8530   34.5870 C   0  0  0  0  0  0  0  0  0  0  0  0
   37.1130   24.8380   34.3350 H   0  0  0  0  0  0  0  0  0  0  0  0
   38.6940   24.1670   33.8560 H   0  0  0  0  0  0  0  0  0  0  0  0
   39.7210   22.8920   37.3190 C   0  0  0  0  0  0  0  0  0  0  0  0
   38.9720   23.2710   38.4390 C   0  0  0  0  0  0  0  0  0  0  0  0
   37.9320   24.2100   38.2390 C   0  0  0  0  0  0  0  0  0  0  0  0
   37.7190   24.6860   36.9860 N   0  0  0  0  0  0  0  0  0  0  0  0
   38.4780   24.2810   35.9410 C   0  0  0  0  0  0  0  0  0  0  0  0
   39.4620   23.3970   36.1130 N   0  0  0  0  0  0  0  0  0  0  0  0
   40.5130   22.1690   37.5080 H   0  0  0  0  0  0  0  0  0  0  0  0
   39.1060   22.9180   39.4530 H   0  0  0  0  0  0  0  0  0  0  0  0
   37.2790   24.5910   38.9990 H   0  0  0  0  0  0  0  0  0  0  0  0
  1 30  1  0  0  0  0
  1  5  2  0  0  0  0
  2  1  1  0  0  0  0
  3  2  2  0  0  0  0
  3  4  1  0  0  0  0
  4  8  1  0  0  0  0
  4  5  1  0  0  0  0
  6  2  1  0  0  0  0
  7  3  1  0  0  0  0
  8 15  1  0  0  0  0
  9  8  2  0  0  0  0
  9 11  1  0  0  0  0
 10  9  1  0  0  0  0
 11 13  2  0  0  0  0
 12 11  1  0  0  0  0
 13 28  1  0  0  0  0
 13 14  1  0  0  0  0
 14 17  1  0  0  0  0
 15 16  1  0  0  0  0
 15 14  2  0  0  0  0
 17 18  1  0  0  0  0
 18 19  1  0  0  0  0
 19 21  2  0  0  0  0
 19 20  1  0  0  0  0
 21 22  1  0  0  0  0
 23 24  1  0  0  0  0
 23 21  1  0  0  0  0
 25 23  2  0  0  0  0
 26 25  1  0  0  0  0
 27 25  1  0  0  0  0
 27 18  2  0  0  0  0
 28 27  1  0  0  0  0
 29 28  1  0  0  0  0
 30 33  1  0  0  0  0
 30 32  1  0  0  0  0
 31 30  1  0  0  0  0
 33 40  1  0  0  0  0
 34 33  1  0  0  0  0
 35 33  1  0  0  0  0
 36 42  1  0  0  0  0
 36 37  1  0  0  0  0
 37 43  1  0  0  0  0
 38 37  2  0  0  0  0
 38 44  1  0  0  0  0
 39 38  1  0  0  0  0
 40 41  1  0  0  0  0
 40 39  2  0  0  0  0
 41 36  2  0  0  0  0
M  END
>  <minimizedAffinity>
-6.23011684

$$$$

 OpenBabel03272501593D

 44 48  0  0  0  0  0  0  0  0999 V2000
   34.6440   29.7820   33.9680 C   0  0  0  0  0  0  0  0  0  0  0  0
   34.5690   29.4670   32.6360 C   0  0  0  0  0  0  0  0  0  0  0  0
   35.5220   28.5050   32.3260 C   0  0  0  0  0  0  0  0  0  0  0  0
   36.1530   28.2640   33.4980 N   0  0  0  0  0  0  0  0  0  0  0  0
   35.6370   29.0130   34.4590 N   0  0  0  0  0  0  0  0  0  0  0  0
   33.8880   29.8750   31.8860 H   0  0  0  0  0  0  0  0  0  0  0  0
   35.7410   28.0260   31.3670 H   0  0  0  0  0  0  0  0  0  0  0  0
   37.2200   27.3590   33.7540 C   0  0  0  0  0  0  0  0  0  0  0  0
   38.3100   27.3020   32.9220 C   0  0  0  0  0  0  0  0  0  0  0  0
   38.3450   27.9560   32.0660 H   0  0  0  0  0  0  0  0  0  0  0  0
   39.3290   26.4150   33.1960 C   0  0  0  0  0  0  0  0  0  0  0  0
   40.1580   26.4400   32.4770 H   0  0  0  0  0  0  0  0  0  0  0  0
   39.3410   25.5550   34.2720 C   0  0  0  0  0  0  0  0  0  0  0  0
   38.2420   25.6290   35.0900 C   0  0  0  0  0  0  0  0  0  0  0  0
   37.2250   26.5030   34.8300 C   0  0  0  0  0  0  0  0  0  0  0  0
   36.3640   26.5410   35.4980 H   0  0  0  0  0  0  0  0  0  0  0  0
   38.1810   24.5500   36.5040 S   0  0  0  0  0  0  0  0  0  0  0  0
   39.6790   23.5870   36.4760 C   0  0  0  0  0  0  0  0  0  0  0  0
   39.8790   22.6680   37.4710 C   0  0  0  0  0  0  0  0  0  0  0  0
   39.1450   22.5260   38.2600 H   0  0  0  0  0  0  0  0  0  0  0  0
   41.0100   21.8960   37.5080 C   0  0  0  0  0  0  0  0  0  0  0  0
   41.2120   21.1590   38.2700 H   0  0  0  0  0  0  0  0  0  0  0  0
   41.9450   22.0680   36.5130 C   0  0  0  0  0  0  0  0  0  0  0  0
   42.8300   21.4770   36.5250 H   0  0  0  0  0  0  0  0  0  0  0  0
   41.6930   23.0070   35.5380 C   0  0  0  0  0  0  0  0  0  0  0  0
   42.4820   23.0880   34.7800 H   0  0  0  0  0  0  0  0  0  0  0  0
   40.5730   23.8060   35.4590 C   0  0  0  0  0  0  0  0  0  0  0  0
   40.4650   24.7190   34.3940 N   0  0  0  0  0  0  0  0  0  0  0  0
   41.2400   24.7580   33.7020 H   0  0  0  0  0  0  0  0  0  0  0  0
   33.7870   30.7810   34.7020 C   0  0  0  0  0  0  0  0  0  0  0  0
   33.9730   30.5820   35.7860 H   0  0  0  0  0  0  0  0  0  0  0  0
   34.1300   31.8090   34.4360 H   0  0  0  0  0  0  0  0  0  0  0  0
   32.3770   30.5000   34.2740 C   0  0  0  0  0  0  0  0  0  0  0  0
   31.7250   31.3770   34.1970 H   0  0  0  0  0  0  0  0  0  0  0  0
   32.4510   30.0600   33.2400 H   0  0  0  0  0  0  0  0  0  0  0  0
   31.4710   28.4220   37.1990 C   0  0  0  0  0  0  0  0  0  0  0  0
   30.7270   27.3830   36.6260 C   0  0  0  0  0  0  0  0  0  0  0  0
   30.5430   27.4090   35.2240 C   0  0  0  0  0  0  0  0  0  0  0  0
   31.0920   28.4290   34.5160 N   0  0  0  0  0  0  0  0  0  0  0  0
   31.8020   29.4070   35.1260 C   0  0  0  0  0  0  0  0  0  0  0  0
   31.9840   29.3960   36.4480 N   0  0  0  0  0  0  0  0  0  0  0  0
   31.5920   28.3710   38.2790 H   0  0  0  0  0  0  0  0  0  0  0  0
   30.2730   26.5520   37.1510 H   0  0  0  0  0  0  0  0  0  0  0  0
   30.0010   26.6840   34.6510 H   0  0  0  0  0  0  0  0  0  0  0  0
  1  5  2  0  0  0  0
  1 30  1  0  0  0  0
  2  1  1  0  0  0  0
  3  2  2  0  0  0  0
  3  4  1  0  0  0  0
  4  8  1  0  0  0  0
  4  5  1  0  0  0  0
  6  2  1  0  0  0  0
  7  3  1  0  0  0  0
  8 15  1  0  0  0  0
  9 11  1  0  0  0  0
  9  8  2  0  0  0  0
 10  9  1  0  0  0  0
 11 13  2  0  0  0  0
 12 11  1  0  0  0  0
 13 28  1  0  0  0  0
 13 14  1  0  0  0  0
 14 17  1  0  0  0  0
 15 14  2  0  0  0  0
 15 16  1  0  0  0  0
 18 17  1  0  0  0  0
 18 19  1  0  0  0  0
 19 21  2  0  0  0  0
 19 20  1  0  0  0  0
 21 22  1  0  0  0  0
 23 24  1  0  0  0  0
 23 21  1  0  0  0  0
 25 23  2  0  0  0  0
 26 25  1  0  0  0  0
 27 25  1  0  0  0  0
 27 18  2  0  0  0  0
 28 27  1  0  0  0  0
 29 28  1  0  0  0  0
 30 31  1  0  0  0  0
 32 30  1  0  0  0  0
 33 30  1  0  0  0  0
 33 40  1  0  0  0  0
 34 33  1  0  0  0  0
 35 33  1  0  0  0  0
 36 42  1  0  0  0  0
 37 43  1  0  0  0  0
 37 36  1  0  0  0  0
 38 37  2  0  0  0  0
 39 40  2  0  0  0  0
 39 38  1  0  0  0  0
 40 41  1  0  0  0  0
 41 36  2  0  0  0  0
 44 38  1  0  0  0  0
M  END
>  <minimizedAffinity>
-6.2152915

$$$$

 OpenBabel03272501593D

 44 48  0  0  0  0  0  0  0  0999 V2000
   34.8800   30.1840   33.9200 C   0  0  0  0  0  0  0  0  0  0  0  0
   34.5290   29.6690   32.6980 C   0  0  0  0  0  0  0  0  0  0  0  0
   35.3160   28.5620   32.4110 C   0  0  0  0  0  0  0  0  0  0  0  0
   36.1310   28.4380   33.4840 N   0  0  0  0  0  0  0  0  0  0  0  0
   35.8740   29.3890   34.3670 N   0  0  0  0  0  0  0  0  0  0  0  0
   33.7590   30.0310   32.0130 H   0  0  0  0  0  0  0  0  0  0  0  0
   35.3090   27.9120   31.5300 H   0  0  0  0  0  0  0  0  0  0  0  0
   37.1410   27.4650   33.7150 C   0  0  0  0  0  0  0  0  0  0  0  0
   38.1430   27.2580   32.8000 C   0  0  0  0  0  0  0  0  0  0  0  0
   38.1520   27.8480   31.8970 H   0  0  0  0  0  0  0  0  0  0  0  0
   39.1090   26.3080   33.0510 C   0  0  0  0  0  0  0  0  0  0  0  0
   39.8680   26.2120   32.2640 H   0  0  0  0  0  0  0  0  0  0  0  0
   39.1500   25.5240   34.1830 C   0  0  0  0  0  0  0  0  0  0  0  0
   38.1400   25.7470   35.0840 C   0  0  0  0  0  0  0  0  0  0  0  0
   37.1770   26.6860   34.8480 C   0  0  0  0  0  0  0  0  0  0  0  0
   36.3860   26.8420   35.5810 H   0  0  0  0  0  0  0  0  0  0  0  0
   38.1230   24.7760   36.5750 S   0  0  0  0  0  0  0  0  0  0  0  0
   39.5300   23.6880   36.4920 C   0  0  0  0  0  0  0  0  0  0  0  0
   39.7460   22.8240   37.5320 C   0  0  0  0  0  0  0  0  0  0  0  0
   39.0790   22.7990   38.3900 H   0  0  0  0  0  0  0  0  0  0  0  0
   40.8110   21.9610   37.5300 C   0  0  0  0  0  0  0  0  0  0  0  0
   41.0220   21.2630   38.3250 H   0  0  0  0  0  0  0  0  0  0  0  0
   41.6620   21.9850   36.4490 C   0  0  0  0  0  0  0  0  0  0  0  0
   42.4950   21.3230   36.4300 H   0  0  0  0  0  0  0  0  0  0  0  0
   41.3970   22.8740   35.4310 C   0  0  0  0  0  0  0  0  0  0  0  0
   42.1190   22.8350   34.6050 H   0  0  0  0  0  0  0  0  0  0  0  0
   40.3420   23.7590   35.3890 C   0  0  0  0  0  0  0  0  0  0  0  0
   40.2110   24.6050   34.2710 N   0  0  0  0  0  0  0  0  0  0  0  0
   40.9200   24.5300   33.5150 H   0  0  0  0  0  0  0  0  0  0  0  0
   34.2670   31.3830   34.5970 C   0  0  0  0  0  0  0  0  0  0  0  0
   34.5040   32.2460   33.9270 H   0  0  0  0  0  0  0  0  0  0  0  0
   33.1630   31.2340   34.6550 H   0  0  0  0  0  0  0  0  0  0  0  0
   34.9230   31.4700   35.9430 C   0  0  0  0  0  0  0  0  0  0  0  0
   34.6020   30.7180   36.6720 H   0  0  0  0  0  0  0  0  0  0  0  0
   36.0210   31.2970   35.7620 H   0  0  0  0  0  0  0  0  0  0  0  0
   35.3880   35.1210   36.3250 C   0  0  0  0  0  0  0  0  0  0  0  0
   34.6060   35.4210   37.4480 C   0  0  0  0  0  0  0  0  0  0  0  0
   33.9200   34.3500   38.0680 C   0  0  0  0  0  0  0  0  0  0  0  0
   34.0540   33.1040   37.5470 N   0  0  0  0  0  0  0  0  0  0  0  0
   34.8250   32.8760   36.4580 C   0  0  0  0  0  0  0  0  0  0  0  0
   35.4790   33.8740   35.8620 N   0  0  0  0  0  0  0  0  0  0  0  0
   35.9020   35.9670   35.8730 H   0  0  0  0  0  0  0  0  0  0  0  0
   34.4710   36.3960   37.8960 H   0  0  0  0  0  0  0  0  0  0  0  0
   33.2880   34.4280   38.9310 H   0  0  0  0  0  0  0  0  0  0  0  0
  1  5  2  0  0  0  0
  1 30  1  0  0  0  0
  2  1  1  0  0  0  0
  3  2  2  0  0  0  0
  3  4  1  0  0  0  0
  4  8  1  0  0  0  0
  4  5  1  0  0  0  0
  6  2  1  0  0  0  0
  7  3  1  0  0  0  0
  8 15  1  0  0  0  0
  9 11  1  0  0  0  0
  9  8  2  0  0  0  0
 10  9  1  0  0  0  0
 11 13  2  0  0  0  0
 12 11  1  0  0  0  0
 13 28  1  0  0  0  0
 13 14  1  0  0  0  0
 14 17  1  0  0  0  0
 15 14  2  0  0  0  0
 15 16  1  0  0  0  0
 18 17  1  0  0  0  0
 18 19  1  0  0  0  0
 19 20  1  0  0  0  0
 21 19  2  0  0  0  0
 21 22  1  0  0  0  0
 23 21  1  0  0  0  0
 24 23  1  0  0  0  0
 25 23  2  0  0  0  0
 26 25  1  0  0  0  0
 27 25  1  0  0  0  0
 27 18  2  0  0  0  0
 28 27  1  0  0  0  0
 29 28  1  0  0  0  0
 30 32  1  0  0  0  0
 30 33  1  0  0  0  0
 31 30  1  0  0  0  0
 33 40  1  0  0  0  0
 33 34  1  0  0  0  0
 35 33  1  0  0  0  0
 36 37  1  0  0  0  0
 37 43  1  0  0  0  0
 37 38  2  0  0  0  0
 38 44  1  0  0  0  0
 39 38  1  0  0  0  0
 40 39  2  0  0  0  0
 41 36  2  0  0  0  0
 41 40  1  0  0  0  0
 42 36  1  0  0  0  0
M  END
>  <minimizedAffinity>
-6.07528257

$$$$

 OpenBabel03272501593D

 44 48  0  0  0  0  0  0  0  0999 V2000
   36.1110   28.8810   32.9780 C   0  0  0  0  0  0  0  0  0  0  0  0
   36.9110   28.6090   31.8980 C   0  0  0  0  0  0  0  0  0  0  0  0
   37.7820   27.5730   32.2080 C   0  0  0  0  0  0  0  0  0  0  0  0
   37.4770   27.2440   33.4850 N   0  0  0  0  0  0  0  0  0  0  0  0
   36.4980   28.0120   33.9340 N   0  0  0  0  0  0  0  0  0  0  0  0
   36.9100   29.0970   30.9210 H   0  0  0  0  0  0  0  0  0  0  0  0
   38.5510   27.1020   31.5880 H   0  0  0  0  0  0  0  0  0  0  0  0
   38.0670   26.2400   34.3000 C   0  0  0  0  0  0  0  0  0  0  0  0
   37.5290   25.9180   35.5220 C   0  0  0  0  0  0  0  0  0  0  0  0
   36.6490   26.4420   35.8550 H   0  0  0  0  0  0  0  0  0  0  0  0
   38.1230   24.9400   36.2900 C   0  0  0  0  0  0  0  0  0  0  0  0
   37.6240   24.7510   37.2490 H   0  0  0  0  0  0  0  0  0  0  0  0
   39.2480   24.2370   35.9180 C   0  0  0  0  0  0  0  0  0  0  0  0
   39.7680   24.5750   34.6950 C   0  0  0  0  0  0  0  0  0  0  0  0
   39.1900   25.5420   33.9230 C   0  0  0  0  0  0  0  0  0  0  0  0
   39.6260   25.7890   32.9550 H   0  0  0  0  0  0  0  0  0  0  0  0
   41.2230   23.7120   34.1400 S   0  0  0  0  0  0  0  0  0  0  0  0
   41.6470   22.5500   35.4230 C   0  0  0  0  0  0  0  0  0  0  0  0
   42.7440   21.7520   35.2400 C   0  0  0  0  0  0  0  0  0  0  0  0
   43.3440   21.8210   34.3360 H   0  0  0  0  0  0  0  0  0  0  0  0
   43.1240   20.8380   36.1870 C   0  0  0  0  0  0  0  0  0  0  0  0
   43.9800   20.1880   36.0880 H   0  0  0  0  0  0  0  0  0  0  0  0
   42.3710   20.7440   37.3350 C   0  0  0  0  0  0  0  0  0  0  0  0
   42.6510   20.0400   38.0820 H   0  0  0  0  0  0  0  0  0  0  0  0
   41.2780   21.5710   37.4660 C   0  0  0  0  0  0  0  0  0  0  0  0
   40.7270   21.4380   38.4070 H   0  0  0  0  0  0  0  0  0  0  0  0
   40.8570   22.5030   36.5430 C   0  0  0  0  0  0  0  0  0  0  0  0
   39.7150   23.2740   36.8300 N   0  0  0  0  0  0  0  0  0  0  0  0
   39.2280   23.1100   37.7340 H   0  0  0  0  0  0  0  0  0  0  0  0
   35.0340   29.9330   33.0540 C   0  0  0  0  0  0  0  0  0  0  0  0
   35.5790   30.8940   33.2200 H   0  0  0  0  0  0  0  0  0  0  0  0
   34.4950   29.9610   32.0770 H   0  0  0  0  0  0  0  0  0  0  0  0
   34.1550   29.5350   34.2020 C   0  0  0  0  0  0  0  0  0  0  0  0
   33.1330   29.2450   33.9340 H   0  0  0  0  0  0  0  0  0  0  0  0
   34.6390   28.6250   34.6590 H   0  0  0  0  0  0  0  0  0  0  0  0
   35.3640   32.2440   36.4120 C   0  0  0  0  0  0  0  0  0  0  0  0
   34.2560   32.5000   37.2300 C   0  0  0  0  0  0  0  0  0  0  0  0
   33.0920   31.7270   37.0080 C   0  0  0  0  0  0  0  0  0  0  0  0
   33.1110   30.7910   36.0270 N   0  0  0  0  0  0  0  0  0  0  0  0
   34.2140   30.5890   35.2670 C   0  0  0  0  0  0  0  0  0  0  0  0
   35.3190   31.3090   35.4640 N   0  0  0  0  0  0  0  0  0  0  0  0
   36.2420   32.8560   36.6090 H   0  0  0  0  0  0  0  0  0  0  0  0
   34.1970   33.2350   38.0220 H   0  0  0  0  0  0  0  0  0  0  0  0
   32.1730   31.8110   37.5540 H   0  0  0  0  0  0  0  0  0  0  0  0
  1 30  1  0  0  0  0
  1  5  2  0  0  0  0
  2  3  2  0  0  0  0
  2  1  1  0  0  0  0
  3  4  1  0  0  0  0
  4  5  1  0  0  0  0
  4  8  1  0  0  0  0
  6  2  1  0  0  0  0
  7  3  1  0  0  0  0
  8  9  1  0  0  0  0
  9 10  1  0  0  0  0
  9 11  2  0  0  0  0
 11 12  1  0  0  0  0
 13 11  1  0  0  0  0
 13 28  1  0  0  0  0
 14 13  2  0  0  0  0
 15  8  2  0  0  0  0
 15 14  1  0  0  0  0
 16 15  1  0  0  0  0
 17 14  1  0  0  0  0
 17 18  1  0  0  0  0
 18 27  1  0  0  0  0
 19 18  2  0  0  0  0
 19 21  1  0  0  0  0
 20 19  1  0  0  0  0
 21 23  2  0  0  0  0
 22 21  1  0  0  0  0
 23 25  1  0  0  0  0
 23 24  1  0  0  0  0
 25 26  1  0  0  0  0
 27 28  1  0  0  0  0
 27 25  2  0  0  0  0
 28 29  1  0  0  0  0
 30 31  1  0  0  0  0
 30 33  1  0  0  0  0
 32 30  1  0  0  0  0
 33 35  1  0  0  0  0
 33 40  1  0  0  0  0
 34 33  1  0  0  0  0
 36 42  1  0  0  0  0
 36 37  1  0  0  0  0
 37 43  1  0  0  0  0
 38 37  2  0  0  0  0
 38 44  1  0  0  0  0
 39 38  1  0  0  0  0
 40 41  1  0  0  0  0
 40 39  2  0  0  0  0
 41 36  2  0  0  0  0
M  END
>  <minimizedAffinity>
-6.05906105

$$$$

 OpenBabel03272501593D

 44 48  0  0  0  0  0  0  0  0999 V2000
   35.2900   29.4070   32.4660 C   0  0  0  0  0  0  0  0  0  0  0  0
   35.8190   29.4250   31.2010 C   0  0  0  0  0  0  0  0  0  0  0  0
   36.9510   28.6220   31.1540 C   0  0  0  0  0  0  0  0  0  0  0  0
   37.0740   28.1350   32.4100 N   0  0  0  0  0  0  0  0  0  0  0  0
   36.0990   28.5960   33.1770 N   0  0  0  0  0  0  0  0  0  0  0  0
   35.4520   29.9670   30.3270 H   0  0  0  0  0  0  0  0  0  0  0  0
   37.6160   28.4060   30.3120 H   0  0  0  0  0  0  0  0  0  0  0  0
   38.0670   27.2540   32.9200 C   0  0  0  0  0  0  0  0  0  0  0  0
   39.3250   27.2180   32.3710 C   0  0  0  0  0  0  0  0  0  0  0  0
   39.5480   27.8690   31.5420 H   0  0  0  0  0  0  0  0  0  0  0  0
   40.2670   26.3540   32.8870 C   0  0  0  0  0  0  0  0  0  0  0  0
   41.2420   26.3940   32.3850 H   0  0  0  0  0  0  0  0  0  0  0  0
   40.0400   25.4990   33.9430 C   0  0  0  0  0  0  0  0  0  0  0  0
   38.7770   25.5530   34.4760 C   0  0  0  0  0  0  0  0  0  0  0  0
   37.8340   26.4040   33.9750 C   0  0  0  0  0  0  0  0  0  0  0  0
   36.8390   26.4250   34.4180 H   0  0  0  0  0  0  0  0  0  0  0  0
   38.4040   24.4790   35.8460 S   0  0  0  0  0  0  0  0  0  0  0  0
   39.8840   23.5490   36.1830 C   0  0  0  0  0  0  0  0  0  0  0  0
   39.8610   22.6380   37.2060 C   0  0  0  0  0  0  0  0  0  0  0  0
   38.9640   22.4830   37.7990 H   0  0  0  0  0  0  0  0  0  0  0  0
   40.9660   21.8900   37.5170 C   0  0  0  0  0  0  0  0  0  0  0  0
   40.9960   21.1610   38.3120 H   0  0  0  0  0  0  0  0  0  0  0  0
   42.1070   22.0790   36.7700 C   0  0  0  0  0  0  0  0  0  0  0  0
   42.9750   21.5070   36.9980 H   0  0  0  0  0  0  0  0  0  0  0  0
   42.0740   23.0080   35.7550 C   0  0  0  0  0  0  0  0  0  0  0  0
   43.0200   23.1020   35.2050 H   0  0  0  0  0  0  0  0  0  0  0  0
   40.9900   23.7820   35.4050 C   0  0  0  0  0  0  0  0  0  0  0  0
   41.1200   24.6880   34.3360 N   0  0  0  0  0  0  0  0  0  0  0  0
   42.0360   24.7410   33.8470 H   0  0  0  0  0  0  0  0  0  0  0  0
   34.0630   30.1460   32.9350 C   0  0  0  0  0  0  0  0  0  0  0  0
   34.3790   31.2160   33.0100 H   0  0  0  0  0  0  0  0  0  0  0  0
   33.2640   30.0350   32.1640 H   0  0  0  0  0  0  0  0  0  0  0  0
   33.6980   29.5340   34.2540 C   0  0  0  0  0  0  0  0  0  0  0  0
   32.7320   29.0180   34.2830 H   0  0  0  0  0  0  0  0  0  0  0  0
   34.4860   28.7560   34.4620 H   0  0  0  0  0  0  0  0  0  0  0  0
   32.9940   31.7690   37.1180 C   0  0  0  0  0  0  0  0  0  0  0  0
   34.2140   32.4280   37.3090 C   0  0  0  0  0  0  0  0  0  0  0  0
   35.2790   32.0920   36.4400 C   0  0  0  0  0  0  0  0  0  0  0  0
   35.0620   31.1590   35.4780 N   0  0  0  0  0  0  0  0  0  0  0  0
   33.8580   30.5550   35.3420 C   0  0  0  0  0  0  0  0  0  0  0  0
   32.8450   30.8610   36.1530 N   0  0  0  0  0  0  0  0  0  0  0  0
   32.1970   32.0510   37.8030 H   0  0  0  0  0  0  0  0  0  0  0  0
   34.4310   33.1760   38.0600 H   0  0  0  0  0  0  0  0  0  0  0  0
   36.2650   32.5130   36.4660 H   0  0  0  0  0  0  0  0  0  0  0  0
  1 30  1  0  0  0  0
  1  5  2  0  0  0  0
  2  1  1  0  0  0  0
  3  2  2  0  0  0  0
  3  4  1  0  0  0  0
  4  8  1  0  0  0  0
  4  5  1  0  0  0  0
  6  2  1  0  0  0  0
  7  3  1  0  0  0  0
  8 15  1  0  0  0  0
  9 11  1  0  0  0  0
  9  8  2  0  0  0  0
 10  9  1  0  0  0  0
 11 13  2  0  0  0  0
 12 11  1  0  0  0  0
 13 28  1  0  0  0  0
 13 14  1  0  0  0  0
 14 17  1  0  0  0  0
 15 16  1  0  0  0  0
 15 14  2  0  0  0  0
 17 18  1  0  0  0  0
 18 19  1  0  0  0  0
 19 21  2  0  0  0  0
 19 20  1  0  0  0  0
 21 22  1  0  0  0  0
 23 24  1  0  0  0  0
 23 21  1  0  0  0  0
 25 23  2  0  0  0  0
 26 25  1  0  0  0  0
 27 25  1  0  0  0  0
 27 18  2  0  0  0  0
 28 27  1  0  0  0  0
 29 28  1  0  0  0  0
 30 31  1  0  0  0  0
 30 33  1  0  0  0  0
 32 30  1  0  0  0  0
 33 34  1  0  0  0  0
 33 35  1  0  0  0  0
 33 40  1  0  0  0  0
 36 37  1  0  0  0  0
 36 42  1  0  0  0  0
 37 43  1  0  0  0  0
 38 44  1  0  0  0  0
 38 37  2  0  0  0  0
 39 38  1  0  0  0  0
 40 39  2  0  0  0  0
 40 41  1  0  0  0  0
 41 36  2  0  0  0  0
M  END
>  <minimizedAffinity>
-6.05093384

$$$$

 OpenBabel03272501593D

 44 48  0  0  0  0  0  0  0  0999 V2000
   36.1750   29.0170   32.2410 C   0  0  0  0  0  0  0  0  0  0  0  0
   37.1040   28.7430   31.2700 C   0  0  0  0  0  0  0  0  0  0  0  0
   37.9580   27.7400   31.7080 C   0  0  0  0  0  0  0  0  0  0  0  0
   37.5140   27.4330   32.9480 N   0  0  0  0  0  0  0  0  0  0  0  0
   36.4690   28.1820   33.2590 N   0  0  0  0  0  0  0  0  0  0  0  0
   37.2060   29.2080   30.2870 H   0  0  0  0  0  0  0  0  0  0  0  0
   38.8070   27.2760   31.1950 H   0  0  0  0  0  0  0  0  0  0  0  0
   38.0290   26.4650   33.8540 C   0  0  0  0  0  0  0  0  0  0  0  0
   37.4050   26.2190   35.0520 C   0  0  0  0  0  0  0  0  0  0  0  0
   36.5150   26.7750   35.2970 H   0  0  0  0  0  0  0  0  0  0  0  0
   37.9270   25.2750   35.9090 C   0  0  0  0  0  0  0  0  0  0  0  0
   37.3630   25.1470   36.8420 H   0  0  0  0  0  0  0  0  0  0  0  0
   39.0600   24.5350   35.6520 C   0  0  0  0  0  0  0  0  0  0  0  0
   39.6660   24.7960   34.4490 C   0  0  0  0  0  0  0  0  0  0  0  0
   39.1600   25.7290   33.5900 C   0  0  0  0  0  0  0  0  0  0  0  0
   39.6630   25.9160   32.6420 H   0  0  0  0  0  0  0  0  0  0  0  0
   41.1370   23.8800   34.0400 S   0  0  0  0  0  0  0  0  0  0  0  0
   41.4520   22.7840   35.4080 C   0  0  0  0  0  0  0  0  0  0  0  0
   42.5430   21.9590   35.3420 C   0  0  0  0  0  0  0  0  0  0  0  0
   43.2030   21.9690   34.4780 H   0  0  0  0  0  0  0  0  0  0  0  0
   42.8420   21.0930   36.3600 C   0  0  0  0  0  0  0  0  0  0  0  0
   43.6890   20.4250   36.3540 H   0  0  0  0  0  0  0  0  0  0  0  0
   42.0130   21.0740   37.4590 C   0  0  0  0  0  0  0  0  0  0  0  0
   42.2290   20.4070   38.2600 H   0  0  0  0  0  0  0  0  0  0  0  0
   40.9300   21.9240   37.4720 C   0  0  0  0  0  0  0  0  0  0  0  0
   40.3170   21.8520   38.3790 H   0  0  0  0  0  0  0  0  0  0  0  0
   40.5900   22.8110   36.4740 C   0  0  0  0  0  0  0  0  0  0  0  0
   39.4470   23.6150   36.6430 N   0  0  0  0  0  0  0  0  0  0  0  0
   38.8980   23.5090   37.5190 H   0  0  0  0  0  0  0  0  0  0  0  0
   35.0710   30.0400   32.1620 C   0  0  0  0  0  0  0  0  0  0  0  0
   35.5030   30.8890   31.5780 H   0  0  0  0  0  0  0  0  0  0  0  0
   34.2110   29.5930   31.6090 H   0  0  0  0  0  0  0  0  0  0  0  0
   34.7400   30.3930   33.5810 C   0  0  0  0  0  0  0  0  0  0  0  0
   35.5430   30.2260   34.3080 H   0  0  0  0  0  0  0  0  0  0  0  0
   34.5290   31.5000   33.5820 H   0  0  0  0  0  0  0  0  0  0  0  0
   31.9320   29.0610   35.5890 C   0  0  0  0  0  0  0  0  0  0  0  0
   31.0640   28.5520   34.6150 C   0  0  0  0  0  0  0  0  0  0  0  0
   31.4590   28.6750   33.2620 C   0  0  0  0  0  0  0  0  0  0  0  0
   32.6460   29.2720   32.9840 N   0  0  0  0  0  0  0  0  0  0  0  0
   33.4440   29.7460   33.9700 C   0  0  0  0  0  0  0  0  0  0  0  0
   33.0850   29.6370   35.2500 N   0  0  0  0  0  0  0  0  0  0  0  0
   31.5970   28.9500   36.6190 H   0  0  0  0  0  0  0  0  0  0  0  0
   30.1110   28.0690   34.7910 H   0  0  0  0  0  0  0  0  0  0  0  0
   30.9000   28.3330   32.4140 H   0  0  0  0  0  0  0  0  0  0  0  0
  1  5  2  0  0  0  0
  2  3  2  0  0  0  0
  2  1  1  0  0  0  0
  3  4  1  0  0  0  0
  4  5  1  0  0  0  0
  4  8  1  0  0  0  0
  6  2  1  0  0  0  0
  7  3  1  0  0  0  0
  8  9  1  0  0  0  0
  9 10  1  0  0  0  0
  9 11  2  0  0  0  0
 11 12  1  0  0  0  0
 13 11  1  0  0  0  0
 13 28  1  0  0  0  0
 14 13  2  0  0  0  0
 15  8  2  0  0  0  0
 15 14  1  0  0  0  0
 16 15  1  0  0  0  0
 17 14  1  0  0  0  0
 17 18  1  0  0  0  0
 18 27  1  0  0  0  0
 19 18  2  0  0  0  0
 19 21  1  0  0  0  0
 20 19  1  0  0  0  0
 21 23  2  0  0  0  0
 22 21  1  0  0  0  0
 23 25  1  0  0  0  0
 23 24  1  0  0  0  0
 25 26  1  0  0  0  0
 27 28  1  0  0  0  0
 27 25  2  0  0  0  0
 28 29  1  0  0  0  0
 30  1  1  0  0  0  0
 30 33  1  0  0  0  0
 31 30  1  0  0  0  0
 32 30  1  0  0  0  0
 33 35  1  0  0  0  0
 33 40  1  0  0  0  0
 33 34  1  0  0  0  0
 36 42  1  0  0  0  0
 37 43  1  0  0  0  0
 37 36  2  0  0  0  0
 38 37  1  0  0  0  0
 39 38  2  0  0  0  0
 39 40  1  0  0  0  0
 40 41  2  0  0  0  0
 41 36  1  0  0  0  0
 44 38  1  0  0  0  0
M  END
>  <minimizedAffinity>
-5.88610554

$$$$

 OpenBabel03272501593D

 44 48  0  0  0  0  0  0  0  0999 V2000
   36.3880   23.4370   31.1000 C   0  0  0  0  0  0  0  0  0  0  0  0
   37.6300   23.6720   30.5690 C   0  0  0  0  0  0  0  0  0  0  0  0
   37.9220   25.0280   30.6380 C   0  0  0  0  0  0  0  0  0  0  0  0
   36.8320   25.5800   31.2180 N   0  0  0  0  0  0  0  0  0  0  0  0
   35.9340   24.6470   31.4880 N   0  0  0  0  0  0  0  0  0  0  0  0
   38.3260   22.9470   30.1430 H   0  0  0  0  0  0  0  0  0  0  0  0
   38.8180   25.5640   30.3110 H   0  0  0  0  0  0  0  0  0  0  0  0
   36.5980   26.9480   31.5300 C   0  0  0  0  0  0  0  0  0  0  0  0
   36.5250   27.8940   30.5380 C   0  0  0  0  0  0  0  0  0  0  0  0
   36.6490   27.5830   29.5140 H   0  0  0  0  0  0  0  0  0  0  0  0
   36.2960   29.2120   30.8700 C   0  0  0  0  0  0  0  0  0  0  0  0
   36.2540   29.8950   30.0130 H   0  0  0  0  0  0  0  0  0  0  0  0
   36.1300   29.6690   32.1590 C   0  0  0  0  0  0  0  0  0  0  0  0
   36.2060   28.7070   33.1340 C   0  0  0  0  0  0  0  0  0  0  0  0
   36.4320   27.3970   32.8180 C   0  0  0  0  0  0  0  0  0  0  0  0
   36.4880   26.6540   33.6140 H   0  0  0  0  0  0  0  0  0  0  0  0
   36.0010   29.2170   34.8270 S   0  0  0  0  0  0  0  0  0  0  0  0
   35.7300   30.9770   34.8000 C   0  0  0  0  0  0  0  0  0  0  0  0
   35.5420   31.6240   35.9930 C   0  0  0  0  0  0  0  0  0  0  0  0
   35.5550   31.0800   36.9340 H   0  0  0  0  0  0  0  0  0  0  0  0
   35.3290   32.9760   36.0420 C   0  0  0  0  0  0  0  0  0  0  0  0
   35.1760   33.5290   36.9550 H   0  0  0  0  0  0  0  0  0  0  0  0
   35.3100   33.6730   34.8540 C   0  0  0  0  0  0  0  0  0  0  0  0
   35.1460   34.7240   34.8730 H   0  0  0  0  0  0  0  0  0  0  0  0
   35.5050   32.9720   33.6850 C   0  0  0  0  0  0  0  0  0  0  0  0
   35.4770   33.5940   32.7820 H   0  0  0  0  0  0  0  0  0  0  0  0
   35.7220   31.6150   33.5860 C   0  0  0  0  0  0  0  0  0  0  0  0
   35.9050   31.0490   32.3100 N   0  0  0  0  0  0  0  0  0  0  0  0
   35.8690   31.6800   31.4850 H   0  0  0  0  0  0  0  0  0  0  0  0
   35.6990   22.1020   31.2140 C   0  0  0  0  0  0  0  0  0  0  0  0
   34.8220   22.2830   31.8830 H   0  0  0  0  0  0  0  0  0  0  0  0
   35.3500   21.7930   30.2000 H   0  0  0  0  0  0  0  0  0  0  0  0
   36.7160   21.1670   31.7970 C   0  0  0  0  0  0  0  0  0  0  0  0
   36.6640   20.1320   31.4410 H   0  0  0  0  0  0  0  0  0  0  0  0
   37.7210   21.5680   31.4800 H   0  0  0  0  0  0  0  0  0  0  0  0
   37.6560   22.0200   35.2730 C   0  0  0  0  0  0  0  0  0  0  0  0
   36.6190   21.4540   36.0260 C   0  0  0  0  0  0  0  0  0  0  0  0
   35.5960   20.7780   35.3200 C   0  0  0  0  0  0  0  0  0  0  0  0
   35.6740   20.7140   33.9670 N   0  0  0  0  0  0  0  0  0  0  0  0
   36.7030   21.2810   33.2930 C   0  0  0  0  0  0  0  0  0  0  0  0
   37.6740   21.9220   33.9440 N   0  0  0  0  0  0  0  0  0  0  0  0
   38.4260   22.5320   35.8470 H   0  0  0  0  0  0  0  0  0  0  0  0
   36.5180   21.4810   37.1030 H   0  0  0  0  0  0  0  0  0  0  0  0
   34.7450   20.2980   35.7610 H   0  0  0  0  0  0  0  0  0  0  0  0
  1 30  1  0  0  0  0
  1  5  2  0  0  0  0
  2  3  2  0  0  0  0
  2  1  1  0  0  0  0
  3  4  1  0  0  0  0
  4  5  1  0  0  0  0
  4  8  1  0  0  0  0
  6  2  1  0  0  0  0
  7  3  1  0  0  0  0
  8 15  1  0  0  0  0
  9 11  1  0  0  0  0
  9  8  2  0  0  0  0
 10  9  1  0  0  0  0
 11 13  2  0  0  0  0
 12 11  1  0  0  0  0
 13 28  1  0  0  0  0
 13 14  1  0  0  0  0
 14 17  1  0  0  0  0
 15 14  2  0  0  0  0
 15 16  1  0  0  0  0
 18 17  1  0  0  0  0
 18 19  1  0  0  0  0
 19 21  2  0  0  0  0
 19 20  1  0  0  0  0
 21 22  1  0  0  0  0
 23 24  1  0  0  0  0
 23 21  1  0  0  0  0
 25 23  2  0  0  0  0
 26 25  1  0  0  0  0
 27 25  1  0  0  0  0
 27 18  2  0  0  0  0
 28 27  1  0  0  0  0
 29 28  1  0  0  0  0
 30 33  1  0  0  0  0
 30 31  1  0  0  0  0
 32 30  1  0  0  0  0
 33 40  1  0  0  0  0
 34 33  1  0  0  0  0
 35 33  1  0  0  0  0
 36 42  1  0  0  0  0
 36 37  1  0  0  0  0
 37 43  1  0  0  0  0
 38 44  1  0  0  0  0
 38 37  2  0  0  0  0
 39 38  1  0  0  0  0
 40 41  1  0  0  0  0
 40 39  2  0  0  0  0
 41 36  2  0  0  0  0
M  END
>  <minimizedAffinity>
-5.88040447

$$$$

 OpenBabel03272501593D

 44 48  0  0  0  0  0  0  0  0999 V2000
   35.8450   31.0800   32.4070 C   0  0  0  0  0  0  0  0  0  0  0  0
   36.0080   31.3720   31.0770 C   0  0  0  0  0  0  0  0  0  0  0  0
   36.4670   30.2490   30.4020 C   0  0  0  0  0  0  0  0  0  0  0  0
   36.5690   29.2970   31.3570 N   0  0  0  0  0  0  0  0  0  0  0  0
   36.2050   29.7860   32.5320 N   0  0  0  0  0  0  0  0  0  0  0  0
   35.8220   32.3220   30.5700 H   0  0  0  0  0  0  0  0  0  0  0  0
   36.7020   30.1240   29.3400 H   0  0  0  0  0  0  0  0  0  0  0  0
   36.9950   27.9480   31.2140 C   0  0  0  0  0  0  0  0  0  0  0  0
   38.3110   27.6470   30.9620 C   0  0  0  0  0  0  0  0  0  0  0  0
   39.0200   28.4540   30.8720 H   0  0  0  0  0  0  0  0  0  0  0  0
   38.6940   26.3300   30.8290 C   0  0  0  0  0  0  0  0  0  0  0  0
   39.7630   26.1870   30.6280 H   0  0  0  0  0  0  0  0  0  0  0  0
   37.8350   25.2580   30.9320 C   0  0  0  0  0  0  0  0  0  0  0  0
   36.5260   25.5810   31.1850 C   0  0  0  0  0  0  0  0  0  0  0  0
   36.1330   26.8820   31.3190 C   0  0  0  0  0  0  0  0  0  0  0  0
   35.0860   27.1100   31.5200 H   0  0  0  0  0  0  0  0  0  0  0  0
   35.3520   24.2520   31.3330 S   0  0  0  0  0  0  0  0  0  0  0  0
   36.2620   22.7390   31.0960 C   0  0  0  0  0  0  0  0  0  0  0  0
   35.5800   21.5530   31.1620 C   0  0  0  0  0  0  0  0  0  0  0  0
   34.5110   21.5310   31.3550 H   0  0  0  0  0  0  0  0  0  0  0  0
   36.2200   20.3550   30.9880 C   0  0  0  0  0  0  0  0  0  0  0  0
   35.7270   19.3960   31.0310 H   0  0  0  0  0  0  0  0  0  0  0  0
   37.5750   20.3730   30.7430 C   0  0  0  0  0  0  0  0  0  0  0  0
   38.0900   19.4520   30.6050 H   0  0  0  0  0  0  0  0  0  0  0  0
   38.2100   21.5940   30.6870 C   0  0  0  0  0  0  0  0  0  0  0  0
   39.2870   21.5280   30.4890 H   0  0  0  0  0  0  0  0  0  0  0  0
   37.6100   22.8230   30.8560 C   0  0  0  0  0  0  0  0  0  0  0  0
   38.4030   23.9820   30.7680 N   0  0  0  0  0  0  0  0  0  0  0  0
   39.4190   23.8680   30.5780 H   0  0  0  0  0  0  0  0  0  0  0  0
   35.3650   32.0220   33.4800 C   0  0  0  0  0  0  0  0  0  0  0  0
   35.9260   32.9730   33.3030 H   0  0  0  0  0  0  0  0  0  0  0  0
   34.2710   32.1910   33.3420 H   0  0  0  0  0  0  0  0  0  0  0  0
   35.7010   31.3610   34.7830 C   0  0  0  0  0  0  0  0  0  0  0  0
   36.3430   30.4760   34.7110 H   0  0  0  0  0  0  0  0  0  0  0  0
   36.2730   32.1270   35.3790 H   0  0  0  0  0  0  0  0  0  0  0  0
   33.0700   31.5610   37.3780 C   0  0  0  0  0  0  0  0  0  0  0  0
   32.1230   30.6290   36.9360 C   0  0  0  0  0  0  0  0  0  0  0  0
   32.4040   29.9340   35.7360 C   0  0  0  0  0  0  0  0  0  0  0  0
   33.5630   30.2050   35.0850 N   0  0  0  0  0  0  0  0  0  0  0  0
   34.4420   31.1180   35.5610 C   0  0  0  0  0  0  0  0  0  0  0  0
   34.1910   31.7820   36.6910 N   0  0  0  0  0  0  0  0  0  0  0  0
   32.8230   32.0770   38.3030 H   0  0  0  0  0  0  0  0  0  0  0  0
   31.1880   30.3820   37.4230 H   0  0  0  0  0  0  0  0  0  0  0  0
   31.7750   29.1950   35.2800 H   0  0  0  0  0  0  0  0  0  0  0  0
  1  5  2  0  0  0  0
  1 30  1  0  0  0  0
  2  1  1  0  0  0  0
  3  2  2  0  0  0  0
  3  4  1  0  0  0  0
  4  5  1  0  0  0  0
  6  2  1  0  0  0  0
  7  3  1  0  0  0  0
  8 15  1  0  0  0  0
  8  4  1  0  0  0  0
  9  8  2  0  0  0  0
 10  9  1  0  0  0  0
 11 13  2  0  0  0  0
 11  9  1  0  0  0  0
 12 11  1  0  0  0  0
 13 14  1  0  0  0  0
 14 15  2  0  0  0  0
 14 17  1  0  0  0  0
 15 16  1  0  0  0  0
 18 19  1  0  0  0  0
 18 17  1  0  0  0  0
 19 20  1  0  0  0  0
 21 22  1  0  0  0  0
 21 19  2  0  0  0  0
 23 21  1  0  0  0  0
 24 23  1  0  0  0  0
 25 23  2  0  0  0  0
 25 27  1  0  0  0  0
 26 25  1  0  0  0  0
 27 18  2  0  0  0  0
 28 27  1  0  0  0  0
 28 13  1  0  0  0  0
 29 28  1  0  0  0  0
 30 33  1  0  0  0  0
 31 30  1  0  0  0  0
 32 30  1  0  0  0  0
 33 35  1  0  0  0  0
 33 40  1  0  0  0  0
 34 33  1  0  0  0  0
 36 42  1  0  0  0  0
 37 36  1  0  0  0  0
 37 43  1  0  0  0  0
 38 37  2  0  0  0  0
 39 40  2  0  0  0  0
 39 38  1  0  0  0  0
 40 41  1  0  0  0  0
 41 36  2  0  0  0  0
 44 38  1  0  0  0  0
M  END
>  <minimizedAffinity>
-5.77332878

$$$$

 OpenBabel03272501593D

 44 48  0  0  0  0  0  0  0  0999 V2000
   36.2800   28.9620   32.1520 C   0  0  0  0  0  0  0  0  0  0  0  0
   37.1700   28.6240   31.1660 C   0  0  0  0  0  0  0  0  0  0  0  0
   38.0000   27.6030   31.6120 C   0  0  0  0  0  0  0  0  0  0  0  0
   37.5790   27.3510   32.8730 N   0  0  0  0  0  0  0  0  0  0  0  0
   36.5710   28.1480   33.1880 N   0  0  0  0  0  0  0  0  0  0  0  0
   37.2620   29.0540   30.1670 H   0  0  0  0  0  0  0  0  0  0  0  0
   38.8170   27.0930   31.0920 H   0  0  0  0  0  0  0  0  0  0  0  0
   38.0840   26.3930   33.7950 C   0  0  0  0  0  0  0  0  0  0  0  0
   37.4580   26.1740   34.9960 C   0  0  0  0  0  0  0  0  0  0  0  0
   36.5730   26.7430   35.2320 H   0  0  0  0  0  0  0  0  0  0  0  0
   37.9700   25.2380   35.8700 C   0  0  0  0  0  0  0  0  0  0  0  0
   37.4040   25.1320   36.8040 H   0  0  0  0  0  0  0  0  0  0  0  0
   39.0950   24.4820   35.6250 C   0  0  0  0  0  0  0  0  0  0  0  0
   39.7040   24.7170   34.4180 C   0  0  0  0  0  0  0  0  0  0  0  0
   39.2080   25.6410   33.5440 C   0  0  0  0  0  0  0  0  0  0  0  0
   39.7130   25.8070   32.5920 H   0  0  0  0  0  0  0  0  0  0  0  0
   41.1650   23.7800   34.0250 S   0  0  0  0  0  0  0  0  0  0  0  0
   41.4690   22.7030   35.4110 C   0  0  0  0  0  0  0  0  0  0  0  0
   42.5510   21.8660   35.3580 C   0  0  0  0  0  0  0  0  0  0  0  0
   43.2110   21.8540   34.4950 H   0  0  0  0  0  0  0  0  0  0  0  0
   42.8410   21.0130   36.3910 C   0  0  0  0  0  0  0  0  0  0  0  0
   43.6810   20.3360   36.3960 H   0  0  0  0  0  0  0  0  0  0  0  0
   42.0110   21.0210   37.4890 C   0  0  0  0  0  0  0  0  0  0  0  0
   42.2200   20.3650   38.3010 H   0  0  0  0  0  0  0  0  0  0  0  0
   40.9370   21.8830   37.4890 C   0  0  0  0  0  0  0  0  0  0  0  0
   40.3230   21.8320   38.3970 H   0  0  0  0  0  0  0  0  0  0  0  0
   40.6070   22.7560   36.4760 C   0  0  0  0  0  0  0  0  0  0  0  0
   39.4720   23.5750   36.6310 N   0  0  0  0  0  0  0  0  0  0  0  0
   38.9220   23.4890   37.5090 H   0  0  0  0  0  0  0  0  0  0  0  0
   35.2110   30.0210   32.0700 C   0  0  0  0  0  0  0  0  0  0  0  0
   35.7590   30.9680   31.8400 H   0  0  0  0  0  0  0  0  0  0  0  0
   34.5190   29.7650   31.2330 H   0  0  0  0  0  0  0  0  0  0  0  0
   34.5400   30.0270   33.4110 C   0  0  0  0  0  0  0  0  0  0  0  0
   33.4440   30.0040   33.3890 H   0  0  0  0  0  0  0  0  0  0  0  0
   34.8720   29.0820   33.9270 H   0  0  0  0  0  0  0  0  0  0  0  0
   35.4620   32.1390   36.3060 C   0  0  0  0  0  0  0  0  0  0  0  0
   36.1230   33.2190   35.7080 C   0  0  0  0  0  0  0  0  0  0  0  0
   36.2450   33.2080   34.2990 C   0  0  0  0  0  0  0  0  0  0  0  0
   35.7210   32.1640   33.6090 N   0  0  0  0  0  0  0  0  0  0  0  0
   35.0920   31.1460   34.2440 C   0  0  0  0  0  0  0  0  0  0  0  0
   34.9690   31.1410   35.5720 N   0  0  0  0  0  0  0  0  0  0  0  0
   35.3860   32.1790   37.3910 H   0  0  0  0  0  0  0  0  0  0  0  0
   36.5550   34.0710   36.2170 H   0  0  0  0  0  0  0  0  0  0  0  0
   36.7220   33.9640   33.7060 H   0  0  0  0  0  0  0  0  0  0  0  0
  1  5  2  0  0  0  0
  2  3  2  0  0  0  0
  2  1  1  0  0  0  0
  3  4  1  0  0  0  0
  4  5  1  0  0  0  0
  4  8  1  0  0  0  0
  6  2  1  0  0  0  0
  7  3  1  0  0  0  0
  8  9  1  0  0  0  0
  9 10  1  0  0  0  0
  9 11  2  0  0  0  0
 11 12  1  0  0  0  0
 13 11  1  0  0  0  0
 13 28  1  0  0  0  0
 14 13  2  0  0  0  0
 15  8  2  0  0  0  0
 15 14  1  0  0  0  0
 16 15  1  0  0  0  0
 17 14  1  0  0  0  0
 17 18  1  0  0  0  0
 18 27  1  0  0  0  0
 19 18  2  0  0  0  0
 19 21  1  0  0  0  0
 20 19  1  0  0  0  0
 21 22  1  0  0  0  0
 21 23  2  0  0  0  0
 23 24  1  0  0  0  0
 25 23  1  0  0  0  0
 25 26  1  0  0  0  0
 27 28  1  0  0  0  0
 27 25  2  0  0  0  0
 28 29  1  0  0  0  0
 30  1  1  0  0  0  0
 30 33  1  0  0  0  0
 31 30  1  0  0  0  0
 32 30  1  0  0  0  0
 33 35  1  0  0  0  0
 33 40  1  0  0  0  0
 34 33  1  0  0  0  0
 36 42  1  0  0  0  0
 37 43  1  0  0  0  0
 37 36  1  0  0  0  0
 38 37  2  0  0  0  0
 39 40  2  0  0  0  0
 39 38  1  0  0  0  0
 40 41  1  0  0  0  0
 41 36  2  0  0  0  0
 44 38  1  0  0  0  0
M  END
>  <minimizedAffinity>
-5.77028179

$$$$
