
     RDKit          3D

 54 59  0  0  0  0  0  0  0  0999 V2000
   38.4944   31.1360   45.9667 C   0  0  0  0  0  0  0  0  0  0  0  0
   39.8146   31.1835   46.3065 C   0  0  0  0  0  0  0  0  0  0  0  0
   40.4727   31.5063   45.1198 C   0  0  0  0  0  0  0  0  0  0  0  0
   39.5794   31.6409   44.1338 N   0  0  0  0  0  0  0  0  0  0  0  0
   38.3665   31.4137   44.6537 N   0  0  0  0  0  0  0  0  0  0  0  0
   36.4420   30.6315   49.0675 C   0  0  0  0  0  0  0  0  0  0  0  0
   37.5012   30.9296   48.2397 C   0  0  0  0  0  0  0  0  0  0  0  0
   37.4158   30.8354   46.8749 C   0  0  0  0  0  0  0  0  0  0  0  0
   36.2176   30.4275   46.3710 N   0  0  0  0  0  0  0  0  0  0  0  0
   35.1718   30.1336   47.1986 C   0  0  0  0  0  0  0  0  0  0  0  0
   35.2635   30.2272   48.5084 N   0  0  0  0  0  0  0  0  0  0  0  0
   36.7202   30.7867   50.4170 O   0  0  0  0  0  0  0  0  0  0  0  0
   36.7887   29.6992   51.3131 C   0  0  0  0  0  0  0  0  0  0  0  0
   35.5402   29.1945   51.6293 F   0  0  0  0  0  0  0  0  0  0  0  0
   37.4439   30.1068   52.4447 F   0  0  0  0  0  0  0  0  0  0  0  0
   37.5375   28.6924   50.7309 F   0  0  0  0  0  0  0  0  0  0  0  0
   39.9132   30.7241   41.8920 C   0  0  2  0  0  0  0  0  0  0  0  0
   39.9260   31.9721   42.7772 C   0  0  1  0  0  0  0  0  0  0  0  0
   38.8609   32.7687   42.0719 C   0  0  0  0  0  0  0  0  0  0  0  0
   38.9825   32.4975   40.7293 O   0  0  0  0  0  0  0  0  0  0  0  0
   39.8118   31.4341   40.5385 C   0  0  0  0  0  0  0  0  0  0  0  0
   38.7305   30.0558   42.1585 O   0  0  0  0  0  0  0  0  0  0  0  0
   40.2366   31.0038   47.2986 H   0  0  0  0  0  0  0  0  0  0  0  0
   41.5603   31.6098   45.1083 H   0  0  0  0  0  0  0  0  0  0  0  0
   38.4759   31.2589   48.5992 H   0  0  0  0  0  0  0  0  0  0  0  0
   34.2147   29.8063   46.7672 H   0  0  0  0  0  0  0  0  0  0  0  0
   40.8431   30.1419   41.9971 H   0  0  0  0  0  0  0  0  0  0  0  0
   40.8846   32.5024   42.7393 H   0  0  0  0  0  0  0  0  0  0  0  0
   37.8797   32.5245   42.4972 H   0  0  0  0  0  0  0  0  0  0  0  0
   39.0789   33.8490   42.3170 H   0  0  0  0  0  0  0  0  0  0  0  0
   40.8075   31.8149   40.2495 H   0  0  0  0  0  0  0  0  0  0  0  0
   39.3606   30.7646   39.7736 H   0  0  0  0  0  0  0  0  0  0  0  0
   38.5803   28.7512   42.5400 C   0  0  0  0  0  0  0  0  0  0  0  0
   39.5510   27.7748   42.4528 C   0  0  0  0  0  0  0  0  0  0  0  0
   40.5155   28.0495   42.0514 H   0  0  0  0  0  0  0  0  0  0  0  0
   39.2612   26.4941   42.8764 C   0  0  0  0  0  0  0  0  0  0  0  0
   40.0915   25.7779   42.7717 H   0  0  0  0  0  0  0  0  0  0  0  0
   38.0521   26.0816   43.3968 C   0  0  0  0  0  0  0  0  0  0  0  0
   37.1167   27.0685   43.4691 C   0  0  0  0  0  0  0  0  0  0  0  0
   37.3670   28.3494   43.0591 C   0  0  0  0  0  0  0  0  0  0  0  0
   36.5631   29.0970   43.1467 H   0  0  0  0  0  0  0  0  0  0  0  0
   35.5057   26.6738   44.1232 S   0  0  0  0  0  0  0  0  0  0  0  0
   35.5437   24.9561   44.5456 C   0  0  0  0  0  0  0  0  0  0  0  0
   34.4428   24.3776   45.0715 C   0  0  0  0  0  0  0  0  0  0  0  0
   33.5120   24.9106   45.2570 H   0  0  0  0  0  0  0  0  0  0  0  0
   34.4152   23.0229   45.4242 C   0  0  0  0  0  0  0  0  0  0  0  0
   33.5501   22.5291   45.8472 H   0  0  0  0  0  0  0  0  0  0  0  0
   35.5615   22.2849   45.2161 C   0  0  0  0  0  0  0  0  0  0  0  0
   35.5604   21.2530   45.4781 H   0  0  0  0  0  0  0  0  0  0  0  0
   36.6546   22.9294   44.6762 C   0  0  0  0  0  0  0  0  0  0  0  0
   37.5202   22.2808   44.5421 H   0  0  0  0  0  0  0  0  0  0  0  0
   36.7032   24.2602   44.3224 C   0  0  0  0  0  0  0  0  0  0  0  0
   37.9095   24.7502   43.7829 N   0  0  0  0  0  0  0  0  0  0  0  0
   38.7175   24.1018   43.6686 H   0  0  0  0  0  0  0  0  0  0  0  0
  1  2  1  0
  1  8  1  0
  3  2  2  0
  4  5  1  0
  4  3  1  0
  5  1  2  0
  6 12  1  0
  7  6  2  0
  8  7  1  0
  9  8  2  0
  9 10  1  0
 10 11  2  0
 11  6  1  0
 12 13  1  0
 13 14  1  0
 13 15  1  0
 16 13  1  0
 17 22  1  0
 17 18  1  0
 18  4  1  0
 19 18  1  0
 20 19  1  0
 21 20  1  0
 21 17  1  0
  2 23  1  0
  3 24  1  0
  7 25  1  0
 10 26  1  0
 17 27  1  6
 18 28  1  1
 19 29  1  0
 19 30  1  0
 21 31  1  0
 21 32  1  0
 33 34  2  0
 34 35  1  0
 34 36  1  0
 36 37  1  0
 36 38  2  0
 38 39  1  0
 39 40  2  0
 40 41  1  0
 39 42  1  0
 42 43  1  0
 43 44  2  0
 44 45  1  0
 44 46  1  0
 46 47  1  0
 46 48  2  0
 48 49  1  0
 48 50  1  0
 50 51  1  0
 50 52  2  0
 52 53  1  0
 53 54  1  0
 40 33  1  0
 52 43  1  0
 53 38  1  0
 22 33  1  0
M  ISO  8  23  14  24  14  25  14  26  14  27  13  28  13  29  13  30  13
M  ISO  8  31  13  32  13  35  16  37  16  41  16  45  16  47  16  49  16
M  ISO  2  51  16  54   5
M  END
>  <DihAtoms>  (1) 
16,21,32,33

>  <DihDeg>  (1) 
-0.006673839781995725

$$$$
