
     RDKit          3D

 44 48  0  0  0  0  0  0  0  0999 V2000
   34.6584   28.3033   49.5769 C   0  0  0  0  0  0  0  0  0  0  0  0
   37.2868   30.1787   51.3817 C   0  0  0  0  0  0  0  0  0  0  0  0
   38.0751   30.6919   50.3443 C   0  0  0  0  0  0  0  0  0  0  0  0
   37.6876   30.3824   49.0186 C   0  0  0  0  0  0  0  0  0  0  0  0
   36.5857   29.6137   48.8270 N   0  0  0  0  0  0  0  0  0  0  0  0
   35.8627   29.1460   49.8718 C   0  0  0  0  0  0  0  0  0  0  0  0
   36.2145   29.4286   51.1272 N   0  0  0  0  0  0  0  0  0  0  0  0
   34.4480   28.2299   48.0943 C   0  0  0  0  0  0  0  0  0  0  0  0
   32.9550   28.2550   47.8899 C   0  0  0  0  0  0  0  0  0  0  0  0
   32.0185   27.5847   48.6353 C   0  0  0  0  0  0  0  0  0  0  0  0
   30.7479   27.8547   48.1446 C   0  0  0  0  0  0  0  0  0  0  0  0
   30.9573   28.6918   47.1027 N   0  0  0  0  0  0  0  0  0  0  0  0
   32.2506   28.9253   46.9548 N   0  0  0  0  0  0  0  0  0  0  0  0
   33.7770   28.5857   50.1640 H   0  0  0  0  0  0  0  0  0  0  0  0
   34.9400   27.2613   49.8996 H   0  0  0  0  0  0  0  0  0  0  0  0
   37.6134   30.4361   52.3877 H   0  0  0  0  0  0  0  0  0  0  0  0
   38.9593   31.3073   50.4513 H   0  0  0  0  0  0  0  0  0  0  0  0
   38.1922   30.7039   48.1288 H   0  0  0  0  0  0  0  0  0  0  0  0
   34.7867   27.2662   47.6410 H   0  0  0  0  0  0  0  0  0  0  0  0
   34.8966   29.0907   47.5442 H   0  0  0  0  0  0  0  0  0  0  0  0
   32.1858   26.9282   49.4906 H   0  0  0  0  0  0  0  0  0  0  0  0
   29.7758   27.4919   48.4943 H   0  0  0  0  0  0  0  0  0  0  0  0
   29.9926   29.2818   46.2399 C   0  0  0  0  0  0  0  0  0  0  0  0
   29.0796   28.5062   45.5708 C   0  0  0  0  0  0  0  0  0  0  0  0
   29.1047   27.4372   45.7096 H   0  0  0  0  0  0  0  0  0  0  0  0
   28.1559   29.1063   44.7409 C   0  0  0  0  0  0  0  0  0  0  0  0
   27.4673   28.4074   44.2487 H   0  0  0  0  0  0  0  0  0  0  0  0
   28.0746   30.4638   44.5237 C   0  0  0  0  0  0  0  0  0  0  0  0
   28.9968   31.2192   45.2027 C   0  0  0  0  0  0  0  0  0  0  0  0
   29.9170   30.6385   46.0276 C   0  0  0  0  0  0  0  0  0  0  0  0
   30.6381   31.2631   46.5549 H   0  0  0  0  0  0  0  0  0  0  0  0
   28.9583   32.9845   44.9759 S   0  0  0  0  0  0  0  0  0  0  0  0
   27.6295   33.3241   43.8398 C   0  0  0  0  0  0  0  0  0  0  0  0
   27.3864   34.6261   43.4950 C   0  0  0  0  0  0  0  0  0  0  0  0
   27.9864   35.4360   43.9016 H   0  0  0  0  0  0  0  0  0  0  0  0
   26.3794   34.9556   42.6260 C   0  0  0  0  0  0  0  0  0  0  0  0
   26.1494   35.9656   42.3243 H   0  0  0  0  0  0  0  0  0  0  0  0
   25.6136   33.9368   42.1055 C   0  0  0  0  0  0  0  0  0  0  0  0
   24.8277   34.1725   41.4297 H   0  0  0  0  0  0  0  0  0  0  0  0
   25.9023   32.6455   42.4868 C   0  0  0  0  0  0  0  0  0  0  0  0
   25.2509   31.8889   42.0318 H   0  0  0  0  0  0  0  0  0  0  0  0
   26.9026   32.2664   43.3556 C   0  0  0  0  0  0  0  0  0  0  0  0
   27.0677   30.8981   43.6433 N   0  0  0  0  0  0  0  0  0  0  0  0
   26.4257   30.2204   43.1873 H   0  0  0  0  0  0  0  0  0  0  0  0
  1  6  1  0
  3  2  2  0
  4  3  1  0
  5  4  2  0
  5  6  1  0
  6  7  2  0
  7  2  1  0
  8  1  1  0
  9  8  1  0
  9 10  1  0
 11 10  2  0
 12 11  1  0
 13 12  1  0
 13  9  2  0
  1 14  1  0
  1 15  1  0
  2 16  1  0
  3 17  1  0
  4 18  1  0
  8 19  1  0
  8 20  1  0
 10 21  1  0
 11 22  1  0
 23 24  2  0
 24 25  1  0
 24 26  1  0
 26 27  1  0
 26 28  2  0
 28 29  1  0
 29 30  2  0
 30 31  1  0
 29 32  1  0
 32 33  1  0
 33 34  2  0
 34 35  1  0
 34 36  1  0
 36 37  1  0
 36 38  2  0
 38 39  1  0
 38 40  1  0
 40 41  1  0
 40 42  2  0
 42 43  1  0
 43 44  1  0
 30 23  1  0
 42 33  1  0
 43 28  1  0
 12 23  1  0
M  ISO  8  14   8  15   8  16  14  17  14  18  14  19   8  20   8  21  14
M  ISO  8  22  14  25  16  27  16  31  16  35  16  37  16  39  16  41  16
M  ISO  1  44   5
M  END
>  <DihAtoms>  (1) 
10,11,22,23

>  <DihDeg>  (1) 
80.78909314054647

$$$$
