REMARK  Name = 
REMARK  6 active torsions:
REMARK  status: ('A' for Active; 'I' for Inactive)
REMARK    1  A    between atoms: C_1  and  C_8
REMARK    2  A    between atoms: N_4  and  C_18
REMARK    3  A    between atoms: C_6  and  O_12
REMARK    4  A    between atoms: O_12  and  C_13
REMARK    5  A    between atoms: C_17  and  O_22
REMARK    6  A    between atoms: O_22  and  C_33
REMARK                            x       y       z     vdW  Elec       q    Type
REMARK                         _______ _______ _______ _____ _____    ______ ____
ROOT
ATOM      1  C   UNL     1      39.913  30.724  41.892  0.00  0.00    +0.000 C 
ATOM      2  C   UNL     1      39.926  31.972  42.777  0.00  0.00    +0.000 C 
ATOM      3  C   UNL     1      38.861  32.769  42.072  0.00  0.00    +0.000 C 
ATOM      4  O   UNL     1      38.983  32.498  40.729  0.00  0.00    +0.000 OA
ATOM      5  C   UNL     1      39.812  31.434  40.538  0.00  0.00    +0.000 C 
ATOM      6  H   UNL     1      40.843  30.142  41.997  0.00  0.00    +0.000 HD
ATOM      7  H   UNL     1      40.885  32.502  42.739  0.00  0.00    +0.000 HD
ATOM      8  H   UNL     1      37.880  32.525  42.497  0.00  0.00    +0.000 HD
ATOM      9  H   UNL     1      39.079  33.849  42.317  0.00  0.00    +0.000 HD
ATOM     10  H   UNL     1      40.807  31.815  40.249  0.00  0.00    +0.000 HD
ATOM     11  H   UNL     1      39.361  30.765  39.774  0.00  0.00    +0.000 HD
ENDROOT
BRANCH   2  15
ATOM     12  C   UNL     1      38.494  31.136  45.967  0.00  0.00    +0.000 A 
ATOM     13  C   UNL     1      39.815  31.183  46.306  0.00  0.00    +0.000 A 
ATOM     14  C   UNL     1      40.473  31.506  45.120  0.00  0.00    +0.000 A 
ATOM     15  N   UNL     1      39.579  31.641  44.134  0.00  0.00    +0.000 N 
ATOM     16  N   UNL     1      38.367  31.414  44.654  0.00  0.00    +0.000 NA
ATOM     17  H   UNL     1      40.237  31.004  47.299  0.00  0.00    +0.000 HD
ATOM     18  H   UNL     1      41.560  31.610  45.108  0.00  0.00    +0.000 HD
BRANCH  12  21
ATOM     19  C   UNL     1      36.442  30.631  49.068  0.00  0.00    +0.000 A 
ATOM     20  C   UNL     1      37.501  30.930  48.240  0.00  0.00    +0.000 A 
ATOM     21  C   UNL     1      37.416  30.835  46.875  0.00  0.00    +0.000 A 
ATOM     22  N   UNL     1      36.218  30.427  46.371  0.00  0.00    +0.000 NA
ATOM     23  C   UNL     1      35.172  30.134  47.199  0.00  0.00    +0.000 A 
ATOM     24  N   UNL     1      35.264  30.227  48.508  0.00  0.00    +0.000 NA
ATOM     25  H   UNL     1      38.476  31.259  48.599  0.00  0.00    +0.000 HD
ATOM     26  H   UNL     1      34.215  29.806  46.767  0.00  0.00    +0.000 HD
BRANCH  19  27
ATOM     27  O   UNL     1      36.720  30.787  50.417  0.00  0.00    +0.000 OA
BRANCH  27  28
ATOM     28  C   UNL     1      36.789  29.699  51.313  0.00  0.00    +0.000 C 
ATOM     29  F   UNL     1      35.540  29.195  51.629  0.00  0.00    +0.000 F 
ATOM     30  F   UNL     1      37.444  30.107  52.445  0.00  0.00    +0.000 F 
ATOM     31  F   UNL     1      37.538  28.692  50.731  0.00  0.00    +0.000 F 
ENDBRANCH  27  28
ENDBRANCH  19  27
ENDBRANCH  12  21
ENDBRANCH   2  15
BRANCH   1  32
ATOM     32  O   UNL     1      38.730  30.056  42.158  0.00  0.00    +0.000 OA
BRANCH  32  33
ATOM     33  C   UNL     1      38.580  28.751  42.540  0.00  0.00    +0.000 A 
ATOM     34  C   UNL     1      39.587  27.934  43.011  0.00  0.00    +0.000 A 
ATOM     35  H   UNL     1      40.583  28.346  43.090  0.00  0.00    +0.000 HD
ATOM     36  C   UNL     1      39.292  26.632  43.361  0.00  0.00    +0.000 A 
ATOM     37  H   UNL     1      40.153  26.050  43.727  0.00  0.00    +0.000 HD
ATOM     38  C   UNL     1      38.045  26.049  43.283  0.00  0.00    +0.000 A 
ATOM     39  C   UNL     1      37.075  26.882  42.815  0.00  0.00    +0.000 A 
ATOM     40  C   UNL     1      37.328  28.178  42.458  0.00  0.00    +0.000 A 
ATOM     41  H   UNL     1      36.495  28.795  42.087  0.00  0.00    +0.000 HD
ATOM     42  S   UNL     1      35.412  26.257  42.662  0.00  0.00    +0.000 S 
ATOM     43  C   UNL     1      35.457  24.574  43.206  0.00  0.00    +0.000 A 
ATOM     44  C   UNL     1      34.321  23.844  43.198  0.00  0.00    +0.000 A 
ATOM     45  H   UNL     1      33.358  24.231  42.872  0.00  0.00    +0.000 HD
ATOM     46  C   UNL     1      34.297  22.508  43.617  0.00  0.00    +0.000 A 
ATOM     47  H   UNL     1      33.405  21.895  43.623  0.00  0.00    +0.000 HD
ATOM     48  C   UNL     1      35.485  21.951  44.044  0.00  0.00    +0.000 A 
ATOM     49  H   UNL     1      35.487  20.936  44.366  0.00  0.00    +0.000 HD
ATOM     50  C   UNL     1      36.612  22.745  44.029  0.00  0.00    +0.000 A 
ATOM     51  H   UNL     1      37.509  22.235  44.380  0.00  0.00    +0.000 HD
ATOM     52  C   UNL     1      36.658  24.060  43.621  0.00  0.00    +0.000 A 
ATOM     53  N   UNL     1      37.902  24.719  43.675  0.00  0.00    +0.000 N 
ATOM     54  H   UNL     1      38.740  24.201  44.015  0.00  0.00    +0.000 HD
ENDBRANCH  32  33
ENDBRANCH   1  32
TORSDOF 6
