
     RDKit          3D

 39 43  0  0  0  0  0  0  0  0999 V2000
   37.5243   31.4048   49.3285 C   0  0  0  0  0  0  0  0  0  0  0  0
   38.1444   32.6576   49.3903 C   0  0  0  0  0  0  0  0  0  0  0  0
   38.9265   32.9842   48.2994 C   0  0  0  0  0  0  0  0  0  0  0  0
   39.0695   32.1247   47.2418 N   0  0  0  0  0  0  0  0  0  0  0  0
   38.4418   30.9112   47.2301 C   0  0  0  0  0  0  0  0  0  0  0  0
   37.6622   30.5472   48.2825 N   0  0  0  0  0  0  0  0  0  0  0  0
   36.6456   31.0351   50.5071 C   0  0  1  0  0  0  0  0  0  0  0  0
   36.1393   29.6903   50.6647 C   0  0  2  0  0  0  0  0  0  0  0  0
   37.3552   30.0846   51.4795 C   0  0  0  0  0  0  0  0  0  0  0  0
   36.3671   28.7483   49.6552 O   0  0  0  0  0  0  0  0  0  0  0  0
   38.0005   33.2995   50.2458 H   0  0  0  0  0  0  0  0  0  0  0  0
   39.4312   33.9443   48.2947 H   0  0  0  0  0  0  0  0  0  0  0  0
   38.5614   30.2416   46.3914 H   0  0  0  0  0  0  0  0  0  0  0  0
   36.2681   31.9311   51.0555 H   0  0  0  0  0  0  0  0  0  0  0  0
   35.1819   29.5529   51.1950 H   0  0  0  0  0  0  0  0  0  0  0  0
   37.1634   30.1751   52.5604 H   0  0  0  0  0  0  0  0  0  0  0  0
   38.3443   29.6723   51.1926 H   0  0  0  0  0  0  0  0  0  0  0  0
   35.5509   27.7162   49.2783 C   0  0  0  0  0  0  0  0  0  0  0  0
   34.4114   28.0425   48.5318 C   0  0  0  0  0  0  0  0  0  0  0  0
   34.2071   29.0905   48.2747 H   0  0  0  0  0  0  0  0  0  0  0  0
   33.5535   27.0425   48.1250 C   0  0  0  0  0  0  0  0  0  0  0  0
   32.6918   27.3678   47.5508 H   0  0  0  0  0  0  0  0  0  0  0  0
   33.7351   25.7069   48.4040 C   0  0  0  0  0  0  0  0  0  0  0  0
   34.8550   25.4182   49.1336 C   0  0  0  0  0  0  0  0  0  0  0  0
   35.7136   26.3696   49.5469 C   0  0  0  0  0  0  0  0  0  0  0  0
   36.5978   26.1132   50.1265 H   0  0  0  0  0  0  0  0  0  0  0  0
   35.1985   23.7223   49.5577 S   0  0  0  0  0  0  0  0  0  0  0  0
   33.8663   22.7737   48.8507 C   0  0  0  0  0  0  0  0  0  0  0  0
   33.8824   21.4295   49.0282 C   0  0  0  0  0  0  0  0  0  0  0  0
   34.6897   20.9499   49.5880 H   0  0  0  0  0  0  0  0  0  0  0  0
   32.8947   20.6110   48.5184 C   0  0  0  0  0  0  0  0  0  0  0  0
   32.9063   19.5419   48.6588 H   0  0  0  0  0  0  0  0  0  0  0  0
   31.8702   21.2028   47.8101 C   0  0  0  0  0  0  0  0  0  0  0  0
   31.0699   20.6078   47.3885 H   0  0  0  0  0  0  0  0  0  0  0  0
   31.9044   22.5753   47.6602 C   0  0  0  0  0  0  0  0  0  0  0  0
   31.0662   22.9930   47.0890 H   0  0  0  0  0  0  0  0  0  0  0  0
   32.8753   23.4194   48.1564 C   0  0  0  0  0  0  0  0  0  0  0  0
   32.7861   24.7919   47.9302 N   0  0  0  0  0  0  0  0  0  0  0  0
   31.9717   25.1414   47.3822 H   0  0  0  0  0  0  0  0  0  0  0  0
  1  2  2  0
  1  7  1  0
  3  2  1  0
  4  3  2  0
  5  4  1  0
  5  6  2  0
  6  1  1  0
  7  8  1  0
  7  9  1  0
  8  9  1  0
 10  8  1  0
  2 11  1  0
  3 12  1  0
  5 13  1  0
  7 14  1  1
  8 15  1  1
  9 16  1  0
  9 17  1  0
 18 19  2  0
 19 20  1  0
 19 21  1  0
 21 22  1  0
 21 23  2  0
 23 24  1  0
 24 25  2  0
 25 26  1  0
 24 27  1  0
 27 28  1  0
 28 29  2  0
 29 30  1  0
 29 31  1  0
 31 32  1  0
 31 33  2  0
 33 34  1  0
 33 35  1  0
 35 36  1  0
 35 37  2  0
 37 38  1  0
 38 39  1  0
 25 18  1  0
 37 28  1  0
 38 23  1  0
 10 18  1  0
M  ISO  8  11  14  12  14  13  14  14  13  15  13  16  13  17  13  20  16
M  ISO  7  22  16  26  16  30  16  32  16  34  16  36  16  39   5
M  END
>  <DihAtoms>  (1) 
7,9,17,18

>  <DihDeg>  (1) 
179.99856549361843

$$$$
