REMARK  Name = 
REMARK  4 active torsions:
REMARK  status: ('A' for Active; 'I' for Inactive)
REMARK    1  A    between atoms: N_1  and  C_6
REMARK    2  A    between atoms: C_3  and  C_13
REMARK    3  A    between atoms: C_10  and  S_12
REMARK    4  A    between atoms: S_12  and  C_26
REMARK                            x       y       z     vdW  Elec       q    Type
REMARK                         _______ _______ _______ _____ _____    ______ ____
ROOT
ATOM      1  C   UNL     1      35.290  29.541  47.929  0.00  0.00    +0.000 A 
ATOM      2  C   UNL     1      35.227  29.999  46.614  0.00  0.00    +0.000 A 
ATOM      3  C   UNL     1      34.099  29.676  45.875  0.00  0.00    +0.000 A 
ATOM      4  N   UNL     1      33.126  28.929  46.494  0.00  0.00    +0.000 NA
ATOM      5  C   UNL     1      33.218  28.505  47.763  0.00  0.00    +0.000 A 
ATOM      6  N   UNL     1      34.306  28.814  48.483  0.00  0.00    +0.000 NA
ATOM      7  H   UNL     1      35.982  30.580  46.126  0.00  0.00    +0.000 HD
ATOM      8  H   UNL     1      33.965  29.991  44.842  0.00  0.00    +0.000 HD
ENDROOT
BRANCH   1   9
ATOM      9  N   UNL     1      36.468  29.886  48.681  0.00  0.00    +0.000 N 
ATOM     10  C   UNL     1      37.586  30.649  48.231  0.00  0.00    +0.000 C 
ATOM     11  C   UNL     1      38.092  31.298  49.520  0.00  0.00    +0.000 C 
ATOM     12  C   UNL     1      37.111  30.897  50.595  0.00  0.00    +0.000 C 
ATOM     13  C   UNL     1      36.744  29.519  50.047  0.00  0.00    +0.000 C 
ATOM     14  H   UNL     1      38.359  29.937  47.892  0.00  0.00    +0.000 HD
ATOM     15  H   UNL     1      37.335  31.429  47.479  0.00  0.00    +0.000 HD
ATOM     16  H   UNL     1      39.076  30.852  49.827  0.00  0.00    +0.000 HD
ATOM     17  H   UNL     1      36.204  31.515  50.527  0.00  0.00    +0.000 HD
ATOM     18  H   UNL     1      37.552  30.856  51.597  0.00  0.00    +0.000 HD
ATOM     19  H   UNL     1      35.813  29.187  50.536  0.00  0.00    +0.000 HD
ATOM     20  H   UNL     1      37.585  28.809  50.161  0.00  0.00    +0.000 HD
BRANCH  11  21
ATOM     21  C   UNL     1      38.262  32.783  49.399  0.00  0.00    +0.000 C 
ATOM     22  F   UNL     1      37.099  33.344  49.890  0.00  0.00    +0.000 F 
ATOM     23  F   UNL     1      38.323  33.074  48.058  0.00  0.00    +0.000 F 
ATOM     24  F   UNL     1      39.366  33.261  50.038  0.00  0.00    +0.000 F 
ENDBRANCH  11  21
ENDBRANCH   1   9
BRANCH   5  25
ATOM     25  S   UNL     1      31.931  27.538  48.527  0.00  0.00    +0.000 S 
BRANCH  25  26
ATOM     26  C   UNL     1      30.591  27.252  47.387  0.00  0.00    +0.000 A 
ATOM     27  C   UNL     1      29.292  27.680  47.639  0.00  0.00    +0.000 A 
ATOM     28  H   UNL     1      29.082  28.201  48.547  0.00  0.00    +0.000 HD
ATOM     29  C   UNL     1      28.309  27.415  46.698  0.00  0.00    +0.000 A 
ATOM     30  H   UNL     1      27.320  27.781  46.965  0.00  0.00    +0.000 HD
ATOM     31  C   UNL     1      28.529  26.747  45.510  0.00  0.00    +0.000 A 
ATOM     32  C   UNL     1      29.819  26.342  45.299  0.00  0.00    +0.000 A 
ATOM     33  C   UNL     1      30.797  26.587  46.201  0.00  0.00    +0.000 A 
ATOM     34  H   UNL     1      31.812  26.239  45.978  0.00  0.00    +0.000 HD
ATOM     35  S   UNL     1      30.183  25.477  43.797  0.00  0.00    +0.000 S 
ATOM     36  C   UNL     1      28.656  25.357  42.894  0.00  0.00    +0.000 A 
ATOM     37  C   UNL     1      28.674  24.724  41.686  0.00  0.00    +0.000 A 
ATOM     38  H   UNL     1      29.581  24.293  41.258  0.00  0.00    +0.000 HD
ATOM     39  C   UNL     1      27.525  24.592  40.927  0.00  0.00    +0.000 A 
ATOM     40  H   UNL     1      27.549  24.094  39.980  0.00  0.00    +0.000 HD
ATOM     41  C   UNL     1      26.354  25.121  41.429  0.00  0.00    +0.000 A 
ATOM     42  H   UNL     1      25.448  25.035  40.866  0.00  0.00    +0.000 HD
ATOM     43  C   UNL     1      26.408  25.747  42.656  0.00  0.00    +0.000 A 
ATOM     44  H   UNL     1      25.440  26.145  42.995  0.00  0.00    +0.000 HD
ATOM     45  C   UNL     1      27.527  25.903  43.447  0.00  0.00    +0.000 A 
ATOM     46  N   UNL     1      27.423  26.568  44.679  0.00  0.00    +0.000 N 
ATOM     47  H   UNL     1      26.481  26.924  44.949  0.00  0.00    +0.000 HD
ENDBRANCH  25  26
ENDBRANCH   5  25
TORSDOF 4
