
     RDKit          3D

 39 43  0  0  0  0  0  0  0  0999 V2000
   37.5243   31.4048   49.3285 C   0  0  0  0  0  0  0  0  0  0  0  0
   38.1444   32.6576   49.3903 C   0  0  0  0  0  0  0  0  0  0  0  0
   38.9265   32.9842   48.2994 C   0  0  0  0  0  0  0  0  0  0  0  0
   39.0695   32.1247   47.2418 N   0  0  0  0  0  0  0  0  0  0  0  0
   38.4418   30.9112   47.2301 C   0  0  0  0  0  0  0  0  0  0  0  0
   37.6622   30.5472   48.2825 N   0  0  0  0  0  0  0  0  0  0  0  0
   36.6456   31.0351   50.5071 C   0  0  1  0  0  0  0  0  0  0  0  0
   36.1393   29.6903   50.6647 C   0  0  2  0  0  0  0  0  0  0  0  0
   37.3552   30.0846   51.4795 C   0  0  0  0  0  0  0  0  0  0  0  0
   36.3671   28.7483   49.6552 O   0  0  0  0  0  0  0  0  0  0  0  0
   38.0005   33.2995   50.2458 H   0  0  0  0  0  0  0  0  0  0  0  0
   39.4312   33.9443   48.2947 H   0  0  0  0  0  0  0  0  0  0  0  0
   38.5614   30.2416   46.3914 H   0  0  0  0  0  0  0  0  0  0  0  0
   36.2681   31.9311   51.0555 H   0  0  0  0  0  0  0  0  0  0  0  0
   35.1819   29.5529   51.1950 H   0  0  0  0  0  0  0  0  0  0  0  0
   37.1634   30.1751   52.5604 H   0  0  0  0  0  0  0  0  0  0  0  0
   38.3443   29.6723   51.1926 H   0  0  0  0  0  0  0  0  0  0  0  0
   35.5509   27.7162   49.2783 C   0  0  0  0  0  0  0  0  0  0  0  0
   34.2253   27.7522   49.7297 C   0  0  0  0  0  0  0  0  0  0  0  0
   33.8835   28.5855   50.3581 H   0  0  0  0  0  0  0  0  0  0  0  0
   33.3585   26.7383   49.3805 C   0  0  0  0  0  0  0  0  0  0  0  0
   32.3478   26.8312   49.7653 H   0  0  0  0  0  0  0  0  0  0  0  0
   33.7048   25.6598   48.5984 C   0  0  0  0  0  0  0  0  0  0  0  0
   35.0042   25.6511   48.1725 C   0  0  0  0  0  0  0  0  0  0  0  0
   35.8770   26.6246   48.4947 C   0  0  0  0  0  0  0  0  0  0  0  0
   36.9059   26.5940   48.1426 H   0  0  0  0  0  0  0  0  0  0  0  0
   35.5720   24.3053   47.1527 S   0  0  0  0  0  0  0  0  0  0  0  0
   34.1622   23.2358   46.9445 C   0  0  0  0  0  0  0  0  0  0  0  0
   34.3219   22.1158   46.1971 C   0  0  0  0  0  0  0  0  0  0  0  0
   35.2872   21.8827   45.7399 H   0  0  0  0  0  0  0  0  0  0  0  0
   33.2889   21.2266   45.9791 C   0  0  0  0  0  0  0  0  0  0  0  0
   33.4145   20.3355   45.3849 H   0  0  0  0  0  0  0  0  0  0  0  0
   32.0657   21.5083   46.5500 C   0  0  0  0  0  0  0  0  0  0  0  0
   31.2215   20.8449   46.4112 H   0  0  0  0  0  0  0  0  0  0  0  0
   31.9600   22.6625   47.3012 C   0  0  0  0  0  0  0  0  0  0  0  0
   30.9662   22.8374   47.7315 H   0  0  0  0  0  0  0  0  0  0  0  0
   32.9713   23.5695   47.5373 C   0  0  0  0  0  0  0  0  0  0  0  0
   32.7258   24.6980   48.3179 N   0  0  0  0  0  0  0  0  0  0  0  0
   31.7663   24.8209   48.7048 H   0  0  0  0  0  0  0  0  0  0  0  0
  1  2  2  0
  1  7  1  0
  3  2  1  0
  4  3  2  0
  5  4  1  0
  5  6  2  0
  6  1  1  0
  7  8  1  0
  7  9  1  0
  8  9  1  0
 10  8  1  0
  2 11  1  0
  3 12  1  0
  5 13  1  0
  7 14  1  1
  8 15  1  1
  9 16  1  0
  9 17  1  0
 18 19  2  0
 19 20  1  0
 19 21  1  0
 21 22  1  0
 21 23  2  0
 23 24  1  0
 24 25  2  0
 25 26  1  0
 24 27  1  0
 27 28  1  0
 28 29  2  0
 29 30  1  0
 29 31  1  0
 31 32  1  0
 31 33  2  0
 33 34  1  0
 33 35  1  0
 35 36  1  0
 35 37  2  0
 37 38  1  0
 38 39  1  0
 25 18  1  0
 37 28  1  0
 38 23  1  0
 10 18  1  0
M  ISO  8  11  14  12  14  13  14  14  13  15  13  16  13  17  13  20  16
M  ISO  7  22  16  26  16  30  16  32  16  34  16  36  16  39   5
M  END
>  <DihAtoms>  (1) 
7,9,17,18

>  <DihDeg>  (1) 
179.99856549361843

$$$$
