REMARK  Name = 
REMARK  4 active torsions:
REMARK  status: ('A' for Active; 'I' for Inactive)
REMARK    1  A    between atoms: C_1  and  C_6
REMARK    2  A    between atoms: C_1  and  C_8
REMARK    3  A    between atoms: C_8  and  C_9
REMARK    4  A    between atoms: N_12  and  C_23
REMARK                            x       y       z     vdW  Elec       q    Type
REMARK                         _______ _______ _______ _____ _____    ______ ____
ROOT
ATOM      1  C   UNL     1      32.955  28.255  47.890  0.00  0.00    +0.000 A 
ATOM      2  C   UNL     1      32.019  27.585  48.635  0.00  0.00    +0.000 A 
ATOM      3  C   UNL     1      30.748  27.855  48.145  0.00  0.00    +0.000 A 
ATOM      4  N   UNL     1      30.957  28.692  47.103  0.00  0.00    +0.000 N 
ATOM      5  N   UNL     1      32.251  28.925  46.955  0.00  0.00    +0.000 NA
ATOM      6  H   UNL     1      32.186  26.928  49.491  0.00  0.00    +0.000 HD
ATOM      7  H   UNL     1      29.776  27.492  48.494  0.00  0.00    +0.000 HD
ENDROOT
BRANCH   4   8
ATOM      8  C   UNL     1      29.993  29.282  46.240  0.00  0.00    +0.000 A 
ATOM      9  C   UNL     1      29.295  30.399  46.624  0.00  0.00    +0.000 A 
ATOM     10  H   UNL     1      29.490  30.825  47.596  0.00  0.00    +0.000 HD
ATOM     11  C   UNL     1      28.366  30.949  45.767  0.00  0.00    +0.000 A 
ATOM     12  H   UNL     1      27.858  31.840  46.159  0.00  0.00    +0.000 HD
ATOM     13  C   UNL     1      28.073  30.451  44.516  0.00  0.00    +0.000 A 
ATOM     14  C   UNL     1      28.783  29.334  44.153  0.00  0.00    +0.000 A 
ATOM     15  C   UNL     1      29.706  28.779  44.992  0.00  0.00    +0.000 A 
ATOM     16  H   UNL     1      30.255  27.892  44.678  0.00  0.00    +0.000 HD
ATOM     17  S   UNL     1      28.463  28.628  42.551  0.00  0.00    +0.000 S 
ATOM     18  C   UNL     1      27.211  29.639  41.788  0.00  0.00    +0.000 A 
ATOM     19  C   UNL     1      26.782  29.305  40.532  0.00  0.00    +0.000 A 
ATOM     20  H   UNL     1      27.192  28.445  40.009  0.00  0.00    +0.000 HD
ATOM     21  C   UNL     1      25.821  30.040  39.889  0.00  0.00    +0.000 A 
ATOM     22  H   UNL     1      25.451  29.817  38.901  0.00  0.00    +0.000 HD
ATOM     23  C   UNL     1      25.295  31.132  40.544  0.00  0.00    +0.000 A 
ATOM     24  H   UNL     1      24.549  31.715  40.061  0.00  0.00    +0.000 HD
ATOM     25  C   UNL     1      25.764  31.422  41.805  0.00  0.00    +0.000 A 
ATOM     26  H   UNL     1      25.299  32.304  42.263  0.00  0.00    +0.000 HD
ATOM     27  C   UNL     1      26.726  30.713  42.490  0.00  0.00    +0.000 A 
ATOM     28  N   UNL     1      27.096  31.143  43.779  0.00  0.00    +0.000 N 
ATOM     29  H   UNL     1      26.626  31.984  44.169  0.00  0.00    +0.000 HD
ENDBRANCH   4   8
BRANCH   1  30
ATOM     30  C   UNL     1      34.448  28.230  48.094  0.00  0.00    +0.000 C 
ATOM     31  H   UNL     1      34.787  27.266  47.641  0.00  0.00    +0.000 HD
ATOM     32  H   UNL     1      34.897  29.091  47.544  0.00  0.00    +0.000 HD
BRANCH  30  33
ATOM     33  C   UNL     1      34.658  28.303  49.577  0.00  0.00    +0.000 C 
ATOM     34  H   UNL     1      33.777  28.586  50.164  0.00  0.00    +0.000 HD
ATOM     35  H   UNL     1      34.940  27.261  49.900  0.00  0.00    +0.000 HD
BRANCH  33  40
ATOM     36  C   UNL     1      37.287  30.179  51.382  0.00  0.00    +0.000 A 
ATOM     37  C   UNL     1      38.075  30.692  50.344  0.00  0.00    +0.000 A 
ATOM     38  C   UNL     1      37.688  30.382  49.019  0.00  0.00    +0.000 A 
ATOM     39  N   UNL     1      36.586  29.614  48.827  0.00  0.00    +0.000 NA
ATOM     40  C   UNL     1      35.863  29.146  49.872  0.00  0.00    +0.000 A 
ATOM     41  N   UNL     1      36.215  29.429  51.127  0.00  0.00    +0.000 NA
ATOM     42  H   UNL     1      37.613  30.436  52.388  0.00  0.00    +0.000 HD
ATOM     43  H   UNL     1      38.959  31.307  50.451  0.00  0.00    +0.000 HD
ATOM     44  H   UNL     1      38.192  30.704  48.129  0.00  0.00    +0.000 HD
ENDBRANCH  33  40
ENDBRANCH  30  33
ENDBRANCH   1  30
TORSDOF 4
