
 OpenBabel03272503303D

 47 51  0  0  1  0  0  0  0  0999 V2000
   35.2830   29.5510   47.9250 C   0  0  0  0  0  0  0  0  0  0  0  0
   35.2320   29.9890   46.6030 C   0  0  0  0  0  0  0  0  0  0  0  0
   34.1040   29.6660   45.8630 C   0  0  0  0  0  0  0  0  0  0  0  0
   33.1210   28.9390   46.4880 N   0  0  0  0  0  0  0  0  0  0  0  0
   33.2020   28.5330   47.7640 C   0  0  0  0  0  0  0  0  0  0  0  0
   34.2890   28.8420   48.4850 N   0  0  0  0  0  0  0  0  0  0  0  0
   35.9950   30.5550   46.1100 H   0  0  0  0  0  0  0  0  0  0  0  0
   33.9790   29.9670   44.8250 H   0  0  0  0  0  0  0  0  0  0  0  0
   36.4610   29.8950   48.6780 N   0  0  0  0  0  0  0  0  0  0  0  0
   37.5810   30.6550   48.2280 C   0  0  0  0  0  0  0  0  0  0  0  0
   38.0860   31.3060   49.5160 C   0  0  2  0  0  0  0  0  0  0  0  0
   37.1030   30.9090   50.5910 C   0  0  0  0  0  0  0  0  0  0  0  0
   36.7340   29.5310   50.0450 C   0  0  0  0  0  0  0  0  0  0  0  0
   38.3530   29.9410   47.8920 H   0  0  0  0  0  0  0  0  0  0  0  0
   37.3320   31.4340   47.4740 H   0  0  0  0  0  0  0  0  0  0  0  0
   39.0690   30.8590   49.8260 H   0  0  0  0  0  0  0  0  0  0  0  0
   36.1970   31.5290   50.5200 H   0  0  0  0  0  0  0  0  0  0  0  0
   37.5430   30.8690   51.5930 H   0  0  0  0  0  0  0  0  0  0  0  0
   35.8020   29.2010   50.5340 H   0  0  0  0  0  0  0  0  0  0  0  0
   37.5740   28.8190   50.1620 H   0  0  0  0  0  0  0  0  0  0  0  0
   38.2590   32.7900   49.3920 C   0  0  0  0  0  0  0  0  0  0  0  0
   37.1010   33.3550   49.8890 F   0  0  0  0  0  0  0  0  0  0  0  0
   38.3130   33.0790   48.0510 F   0  0  0  0  0  0  0  0  0  0  0  0
   39.3680   33.2670   50.0240 F   0  0  0  0  0  0  0  0  0  0  0  0
   31.9010   27.5910   48.5360 S   0  0  0  0  0  0  0  0  0  0  0  0
   30.8490   26.8400   47.3090 C   0  0  0  0  0  0  0  0  0  0  0  0
   31.1040   25.5790   46.7770 C   0  0  0  0  0  0  0  0  0  0  0  0
   31.9600   25.0360   47.1100 H   0  0  0  0  0  0  0  0  0  0  0  0
   30.2320   25.0700   45.8260 C   0  0  0  0  0  0  0  0  0  0  0  0
   30.4970   24.0820   45.4560 H   0  0  0  0  0  0  0  0  0  0  0  0
   29.1140   25.7310   45.3620 C   0  0  0  0  0  0  0  0  0  0  0  0
   28.8980   26.9670   45.9100 C   0  0  0  0  0  0  0  0  0  0  0  0
   29.7310   27.4880   46.8380 C   0  0  0  0  0  0  0  0  0  0  0  0
   29.5080   28.4820   47.2430 H   0  0  0  0  0  0  0  0  0  0  0  0
   27.4800   27.8810   45.3660 S   0  0  0  0  0  0  0  0  0  0  0  0
   26.6530   26.8700   44.1610 C   0  0  0  0  0  0  0  0  0  0  0  0
   25.5180   27.3590   43.5850 C   0  0  0  0  0  0  0  0  0  0  0  0
   25.1020   28.3360   43.8340 H   0  0  0  0  0  0  0  0  0  0  0  0
   24.8200   26.6290   42.6390 C   0  0  0  0  0  0  0  0  0  0  0  0
   23.9290   27.0220   42.1920 H   0  0  0  0  0  0  0  0  0  0  0  0
   25.3080   25.3860   42.2920 C   0  0  0  0  0  0  0  0  0  0  0  0
   24.7920   24.7970   41.5630 H   0  0  0  0  0  0  0  0  0  0  0  0
   26.4600   24.9540   42.9120 C   0  0  0  0  0  0  0  0  0  0  0  0
   26.7920   23.9570   42.5890 H   0  0  0  0  0  0  0  0  0  0  0  0
   27.1880   25.6440   43.8590 C   0  0  0  0  0  0  0  0  0  0  0  0
   28.3480   25.0680   44.4020 N   0  0  0  0  0  0  0  0  0  0  0  0
   28.6140   24.1210   44.0580 H   0  0  0  0  0  0  0  0  0  0  0  0
  1  6  1  0  0  0  0
  1  9  1  0  0  0  0
  2  1  2  0  0  0  0
  3  4  2  0  0  0  0
  3  2  1  0  0  0  0
  4  5  1  0  0  0  0
  5  6  2  0  0  0  0
  5 25  1  0  0  0  0
  7  2  1  0  0  0  0
  8  3  1  0  0  0  0
  9 13  1  0  0  0  0
 10  9  1  0  0  0  0
 10 11  1  0  0  0  0
 11 16  1  1  0  0  0
 11 12  1  0  0  0  0
 12 18  1  0  0  0  0
 13 20  1  0  0  0  0
 13 19  1  0  0  0  0
 13 12  1  0  0  0  0
 14 10  1  0  0  0  0
 15 10  1  0  0  0  0
 17 12  1  0  0  0  0
 21 11  1  0  0  0  0
 21 22  1  0  0  0  0
 21 24  1  0  0  0  0
 23 21  1  0  0  0  0
 26 25  1  0  0  0  0
 27 28  1  0  0  0  0
 27 26  2  0  0  0  0
 29 27  1  0  0  0  0
 30 29  1  0  0  0  0
 31 29  2  0  0  0  0
 31 32  1  0  0  0  0
 32 33  2  0  0  0  0
 33 34  1  0  0  0  0
 33 26  1  0  0  0  0
 35 32  1  0  0  0  0
 36 35  1  0  0  0  0
 37 38  1  0  0  0  0
 37 36  2  0  0  0  0
 39 37  1  0  0  0  0
 40 39  1  0  0  0  0
 41 39  2  0  0  0  0
 41 43  1  0  0  0  0
 42 41  1  0  0  0  0
 43 45  2  0  0  0  0
 44 43  1  0  0  0  0
 45 36  1  0  0  0  0
 45 46  1  0  0  0  0
 46 31  1  0  0  0  0
 47 46  1  0  0  0  0
M  END
>  <minimizedAffinity>
-6.88220692

>  <minimizedRMSD>
1.28905773

$$$$
