
 OpenBabel03262521533D

 36 39  0  0  0  0  0  0  0  0999 V2000
   32.6790   28.0850   48.1780 C   0  0  0  0  0  0  0  0  0  0  0  0
   32.2560   28.3980   46.8960 C   0  0  0  0  0  0  0  0  0  0  0  0
   32.9870   28.4880   46.1160 H   0  0  0  0  0  0  0  0  0  0  0  0
   30.9020   28.5760   46.7050 C   0  0  0  0  0  0  0  0  0  0  0  0
   30.6270   28.8220   45.6660 H   0  0  0  0  0  0  0  0  0  0  0  0
   29.9390   28.4690   47.6810 C   0  0  0  0  0  0  0  0  0  0  0  0
   30.3990   28.1590   48.9310 C   0  0  0  0  0  0  0  0  0  0  0  0
   31.7130   27.9760   49.1620 C   0  0  0  0  0  0  0  0  0  0  0  0
   32.0430   27.7290   50.1820 H   0  0  0  0  0  0  0  0  0  0  0  0
   29.2260   27.9990   50.2600 S   0  0  0  0  0  0  0  0  0  0  0  0
   27.6350   28.3160   49.5210 C   0  0  0  0  0  0  0  0  0  0  0  0
   26.5690   28.2430   50.3830 C   0  0  0  0  0  0  0  0  0  0  0  0
   26.6300   28.0170   51.4300 H   0  0  0  0  0  0  0  0  0  0  0  0
   25.2960   28.4740   49.9040 C   0  0  0  0  0  0  0  0  0  0  0  0
   24.4020   28.4370   50.5130 H   0  0  0  0  0  0  0  0  0  0  0  0
   25.1210   28.7730   48.5680 C   0  0  0  0  0  0  0  0  0  0  0  0
   24.1340   28.9580   48.1670 H   0  0  0  0  0  0  0  0  0  0  0  0
   26.2490   28.8250   47.7740 C   0  0  0  0  0  0  0  0  0  0  0  0
   26.0450   29.0670   46.7190 H   0  0  0  0  0  0  0  0  0  0  0  0
   27.5460   28.6040   48.1920 C   0  0  0  0  0  0  0  0  0  0  0  0
   28.6140   28.6830   47.3000 N   0  0  0  0  0  0  0  0  0  0  0  0
   28.3740   28.9160   46.3120 H   0  0  0  0  0  0  0  0  0  0  0  0
   34.3830   27.8200   48.6140 S   0  0  0  0  0  0  0  0  0  0  0  0
   34.9870   29.1010   49.7790 C   0  0  0  0  0  0  0  0  0  0  0  0
   34.5180   28.9410   50.7800 H   0  0  0  0  0  0  0  0  0  0  0  0
   34.6630   30.0870   49.3920 H   0  0  0  0  0  0  0  0  0  0  0  0
   36.7780   28.9930   50.0020 S   0  0  0  0  0  0  0  0  0  0  0  0
   37.5240   30.3820   49.1660 C   0  0  0  0  0  0  0  0  0  0  0  0
   37.9410   31.4130   49.9960 C   0  0  0  0  0  0  0  0  0  0  0  0
   38.5300   32.5270   49.4090 C   0  0  0  0  0  0  0  0  0  0  0  0
   38.6790   32.5680   48.0430 N   0  0  0  0  0  0  0  0  0  0  0  0
   38.2450   31.5200   47.2970 C   0  0  0  0  0  0  0  0  0  0  0  0
   37.6860   30.4610   47.8420 N   0  0  0  0  0  0  0  0  0  0  0  0
   37.8460   31.4280   51.0810 H   0  0  0  0  0  0  0  0  0  0  0  0
   38.8610   33.3390   50.0400 H   0  0  0  0  0  0  0  0  0  0  0  0
   38.3520   31.5290   46.2100 H   0  0  0  0  0  0  0  0  0  0  0  0
  1 23  1  0  0  0  0
  1  8  1  0  0  0  0
  2  1  2  0  0  0  0
  3  2  1  0  0  0  0
  4  2  1  0  0  0  0
  4  6  2  0  0  0  0
  5  4  1  0  0  0  0
  6  7  1  0  0  0  0
  7  8  2  0  0  0  0
  7 10  1  0  0  0  0
  8  9  1  0  0  0  0
 11 10  1  0  0  0  0
 11 12  1  0  0  0  0
 12 13  1  0  0  0  0
 14 12  2  0  0  0  0
 14 15  1  0  0  0  0
 16 14  1  0  0  0  0
 17 16  1  0  0  0  0
 18 20  1  0  0  0  0
 18 16  2  0  0  0  0
 19 18  1  0  0  0  0
 20 11  2  0  0  0  0
 21  6  1  0  0  0  0
 21 20  1  0  0  0  0
 22 21  1  0  0  0  0
 23 24  1  0  0  0  0
 24 27  1  0  0  0  0
 24 25  1  0  0  0  0
 26 24  1  0  0  0  0
 28 29  1  0  0  0  0
 28 27  1  0  0  0  0
 29 34  1  0  0  0  0
 30 29  2  0  0  0  0
 30 35  1  0  0  0  0
 31 30  1  0  0  0  0
 32 33  1  0  0  0  0
 32 31  2  0  0  0  0
 33 28  2  0  0  0  0
 36 32  1  0  0  0  0
M  END
>  <minimizedAffinity>
-5.69203568

>  <minimizedRMSD>
2.1723237

$$$$
