
 OpenBabel03272500173D

 47 51  0  0  0  0  0  0  0  0999 V2000
   32.8230   27.7100   48.5620 C   0  0  0  0  0  0  0  0  0  0  0  0
   33.4800   28.6750   47.7730 C   0  0  0  0  0  0  0  0  0  0  0  0
   33.2130   28.7080   46.4130 C   0  0  0  0  0  0  0  0  0  0  0  0
   32.3260   27.8000   45.9080 N   0  0  0  0  0  0  0  0  0  0  0  0
   31.7180   26.8960   46.6750 C   0  0  0  0  0  0  0  0  0  0  0  0
   31.9610   26.8490   47.9850 N   0  0  0  0  0  0  0  0  0  0  0  0
   33.0480   27.7040   49.6180 H   0  0  0  0  0  0  0  0  0  0  0  0
   33.7110   29.6130   45.4070 C   0  0  0  0  0  0  0  0  0  0  0  0
   33.1890   30.6210   44.6370 C   0  0  0  0  0  0  0  0  0  0  0  0
   32.1820   30.8750   44.8480 H   0  0  0  0  0  0  0  0  0  0  0  0
   33.9100   31.3000   43.6870 C   0  0  0  0  0  0  0  0  0  0  0  0
   33.3570   32.0780   43.1530 H   0  0  0  0  0  0  0  0  0  0  0  0
   35.2360   31.0170   43.4300 C   0  0  0  0  0  0  0  0  0  0  0  0
   35.8180   30.0160   44.1710 C   0  0  0  0  0  0  0  0  0  0  0  0
   35.0680   29.3740   45.0960 C   0  0  0  0  0  0  0  0  0  0  0  0
   35.6500   28.5960   45.6200 H   0  0  0  0  0  0  0  0  0  0  0  0
   37.5300   29.6400   43.8520 S   0  0  0  0  0  0  0  0  0  0  0  0
   38.0450   30.7530   42.5610 C   0  0  0  0  0  0  0  0  0  0  0  0
   39.3580   30.5970   42.1860 C   0  0  0  0  0  0  0  0  0  0  0  0
   40.0460   29.8790   42.6080 H   0  0  0  0  0  0  0  0  0  0  0  0
   39.8600   31.4210   41.1810 C   0  0  0  0  0  0  0  0  0  0  0  0
   40.8870   31.3290   40.8580 H   0  0  0  0  0  0  0  0  0  0  0  0
   39.0170   32.3530   40.6140 C   0  0  0  0  0  0  0  0  0  0  0  0
   39.4320   32.9730   39.8430 H   0  0  0  0  0  0  0  0  0  0  0  0
   37.7140   32.4350   41.0560 C   0  0  0  0  0  0  0  0  0  0  0  0
   37.1470   33.2030   40.5360 H   0  0  0  0  0  0  0  0  0  0  0  0
   37.1650   31.6450   42.0460 C   0  0  0  0  0  0  0  0  0  0  0  0
   35.8300   31.8090   42.4230 N   0  0  0  0  0  0  0  0  0  0  0  0
   35.2950   32.5480   41.9170 H   0  0  0  0  0  0  0  0  0  0  0  0
   29.4040   28.1250   45.1650 Cl  0  0  0  0  0  0  0  0  0  0  0  0
   29.6840   26.3970   45.3390 C   0  0  0  0  0  0  0  0  0  0  0  0
   30.7810   25.9460   46.0570 C   0  0  0  0  0  0  0  0  0  0  0  0
   31.0500   24.5780   46.2240 C   0  0  0  0  0  0  0  0  0  0  0  0
   30.1540   23.6950   45.6280 C   0  0  0  0  0  0  0  0  0  0  0  0
   29.0610   24.1200   44.9140 C   0  0  0  0  0  0  0  0  0  0  0  0
   28.0090   22.9140   44.2140 Cl  0  0  0  0  0  0  0  0  0  0  0  0
   28.8370   25.4790   44.7760 C   0  0  0  0  0  0  0  0  0  0  0  0
   31.9030   24.2240   46.7810 H   0  0  0  0  0  0  0  0  0  0  0  0
   30.3560   22.6370   45.7540 H   0  0  0  0  0  0  0  0  0  0  0  0
   27.6600   25.9520   44.0060 C   0  0  0  0  0  0  0  0  0  0  0  0
   26.8160   24.8830   43.7050 F   0  0  0  0  0  0  0  0  0  0  0  0
   28.0100   26.6120   42.8700 F   0  0  0  0  0  0  0  0  0  0  0  0
   26.9080   26.8260   44.7930 F   0  0  0  0  0  0  0  0  0  0  0  0
   34.4110   29.6400   48.4130 C   0  0  0  0  0  0  0  0  0  0  0  0
   35.7320   29.3240   48.1660 F   0  0  0  0  0  0  0  0  0  0  0  0
   34.1470   30.9140   47.9280 F   0  0  0  0  0  0  0  0  0  0  0  0
   34.2330   29.6990   49.7870 F   0  0  0  0  0  0  0  0  0  0  0  0
  1  7  1  0  0  0  0
  2 44  1  0  0  0  0
  2  1  2  0  0  0  0
  3  2  1  0  0  0  0
  4  3  2  0  0  0  0
  4  5  1  0  0  0  0
  5  6  2  0  0  0  0
  6  1  1  0  0  0  0
  8  3  1  0  0  0  0
  9 10  1  0  0  0  0
  9  8  2  0  0  0  0
 11  9  1  0  0  0  0
 12 11  1  0  0  0  0
 13 11  2  0  0  0  0
 13 14  1  0  0  0  0
 14 15  2  0  0  0  0
 15  8  1  0  0  0  0
 15 16  1  0  0  0  0
 17 14  1  0  0  0  0
 18 17  1  0  0  0  0
 19 18  1  0  0  0  0
 19 20  1  0  0  0  0
 21 19  2  0  0  0  0
 22 21  1  0  0  0  0
 23 25  2  0  0  0  0
 23 21  1  0  0  0  0
 24 23  1  0  0  0  0
 25 27  1  0  0  0  0
 26 25  1  0  0  0  0
 27 28  1  0  0  0  0
 27 18  2  0  0  0  0
 28 13  1  0  0  0  0
 29 28  1  0  0  0  0
 30 31  1  0  0  0  0
 31 32  1  0  0  0  0
 32 33  2  0  0  0  0
 32  5  1  0  0  0  0
 33 38  1  0  0  0  0
 34 39  1  0  0  0  0
 34 33  1  0  0  0  0
 35 34  2  0  0  0  0
 36 35  1  0  0  0  0
 37 35  1  0  0  0  0
 37 31  2  0  0  0  0
 40 37  1  0  0  0  0
 40 43  1  0  0  0  0
 41 40  1  0  0  0  0
 42 40  1  0  0  0  0
 44 47  1  0  0  0  0
 45 44  1  0  0  0  0
 46 44  1  0  0  0  0
M  END
>  <minimizedAffinity>
-5.18133211

>  <minimizedRMSD>
4.53938818

$$$$
