
 OpenBabel03272500173D

 47 51  0  0  0  0  0  0  0  0999 V2000
   35.4320   29.1160   50.4420 C   0  0  0  0  0  0  0  0  0  0  0  0
   36.3160   29.9630   49.7450 C   0  0  0  0  0  0  0  0  0  0  0  0
   36.2460   29.9930   48.3610 C   0  0  0  0  0  0  0  0  0  0  0  0
   35.3230   29.1970   47.7440 N   0  0  0  0  0  0  0  0  0  0  0  0
   34.4990   28.4040   48.4260 C   0  0  0  0  0  0  0  0  0  0  0  0
   34.5500   28.3610   49.7580 N   0  0  0  0  0  0  0  0  0  0  0  0
   35.5060   29.1100   51.5190 H   0  0  0  0  0  0  0  0  0  0  0  0
   36.9950   30.7960   47.4260 C   0  0  0  0  0  0  0  0  0  0  0  0
   38.0040   31.7240   47.5040 C   0  0  0  0  0  0  0  0  0  0  0  0
   38.4060   31.8730   48.4730 H   0  0  0  0  0  0  0  0  0  0  0  0
   38.5030   32.3940   46.4140 C   0  0  0  0  0  0  0  0  0  0  0  0
   39.3050   33.1040   46.6350 H   0  0  0  0  0  0  0  0  0  0  0  0
   38.0240   32.1800   45.1400 C   0  0  0  0  0  0  0  0  0  0  0  0
   37.0130   31.2590   44.9950 C   0  0  0  0  0  0  0  0  0  0  0  0
   36.5520   30.6250   46.0960 C   0  0  0  0  0  0  0  0  0  0  0  0
   35.7440   29.9140   45.8470 H   0  0  0  0  0  0  0  0  0  0  0  0
   36.3840   30.9730   43.3520 S   0  0  0  0  0  0  0  0  0  0  0  0
   37.3150   32.0440   42.2760 C   0  0  0  0  0  0  0  0  0  0  0  0
   36.9530   31.9500   40.9540 C   0  0  0  0  0  0  0  0  0  0  0  0
   36.1840   31.3020   40.5610 H   0  0  0  0  0  0  0  0  0  0  0  0
   37.6230   32.7480   40.0280 C   0  0  0  0  0  0  0  0  0  0  0  0
   37.3680   32.7030   38.9790 H   0  0  0  0  0  0  0  0  0  0  0  0
   38.6130   33.5920   40.4840 C   0  0  0  0  0  0  0  0  0  0  0  0
   39.1100   34.1940   39.7480 H   0  0  0  0  0  0  0  0  0  0  0  0
   38.9050   33.6170   41.8310 C   0  0  0  0  0  0  0  0  0  0  0  0
   39.7000   34.3170   42.0690 H   0  0  0  0  0  0  0  0  0  0  0  0
   38.2760   32.8490   42.7900 C   0  0  0  0  0  0  0  0  0  0  0  0
   38.6480   32.9500   44.1330 N   0  0  0  0  0  0  0  0  0  0  0  0
   39.4110   33.6250   44.3500 H   0  0  0  0  0  0  0  0  0  0  0  0
   32.5270   29.8930   46.6830 Cl  0  0  0  0  0  0  0  0  0  0  0  0
   32.5870   28.1440   46.8600 C   0  0  0  0  0  0  0  0  0  0  0  0
   33.5370   27.5690   47.6900 C   0  0  0  0  0  0  0  0  0  0  0  0
   33.6280   26.1790   47.8660 C   0  0  0  0  0  0  0  0  0  0  0  0
   32.7100   25.4060   47.1580 C   0  0  0  0  0  0  0  0  0  0  0  0
   31.7620   25.9550   46.3320 C   0  0  0  0  0  0  0  0  0  0  0  0
   30.6660   24.8800   45.4990 Cl  0  0  0  0  0  0  0  0  0  0  0  0
   31.7110   27.3310   46.1910 C   0  0  0  0  0  0  0  0  0  0  0  0
   34.3650   25.7270   48.5100 H   0  0  0  0  0  0  0  0  0  0  0  0
   32.7760   24.3310   47.2900 H   0  0  0  0  0  0  0  0  0  0  0  0
   30.6910   27.9380   45.3000 C   0  0  0  0  0  0  0  0  0  0  0  0
   29.7690   26.9740   44.8910 F   0  0  0  0  0  0  0  0  0  0  0  0
   31.2410   28.5530   44.2190 F   0  0  0  0  0  0  0  0  0  0  0  0
   29.9610   28.8920   46.0100 F   0  0  0  0  0  0  0  0  0  0  0  0
   37.2700   30.8140   50.5000 C   0  0  0  0  0  0  0  0  0  0  0  0
   38.5700   30.6420   50.0670 F   0  0  0  0  0  0  0  0  0  0  0  0
   36.9100   32.1460   50.3460 F   0  0  0  0  0  0  0  0  0  0  0  0
   37.2330   30.5530   51.8610 F   0  0  0  0  0  0  0  0  0  0  0  0
  1  7  1  0  0  0  0
  2  1  2  0  0  0  0
  2 44  1  0  0  0  0
  3  2  1  0  0  0  0
  4  3  2  0  0  0  0
  4  5  1  0  0  0  0
  5  6  2  0  0  0  0
  6  1  1  0  0  0  0
  8  9  1  0  0  0  0
  8  3  1  0  0  0  0
  9 10  1  0  0  0  0
 11 12  1  0  0  0  0
 11  9  2  0  0  0  0
 13 11  1  0  0  0  0
 14 13  2  0  0  0  0
 14 15  1  0  0  0  0
 15  8  2  0  0  0  0
 16 15  1  0  0  0  0
 17 14  1  0  0  0  0
 18 27  1  0  0  0  0
 18 17  1  0  0  0  0
 19 18  2  0  0  0  0
 20 19  1  0  0  0  0
 21 23  2  0  0  0  0
 21 19  1  0  0  0  0
 22 21  1  0  0  0  0
 23 25  1  0  0  0  0
 24 23  1  0  0  0  0
 25 26  1  0  0  0  0
 25 27  2  0  0  0  0
 27 28  1  0  0  0  0
 28 29  1  0  0  0  0
 28 13  1  0  0  0  0
 30 31  1  0  0  0  0
 31 32  1  0  0  0  0
 32 33  2  0  0  0  0
 32  5  1  0  0  0  0
 33 38  1  0  0  0  0
 34 39  1  0  0  0  0
 34 33  1  0  0  0  0
 35 34  2  0  0  0  0
 36 35  1  0  0  0  0
 37 35  1  0  0  0  0
 37 31  2  0  0  0  0
 40 43  1  0  0  0  0
 40 37  1  0  0  0  0
 41 40  1  0  0  0  0
 42 40  1  0  0  0  0
 44 47  1  0  0  0  0
 45 44  1  0  0  0  0
 46 44  1  0  0  0  0
M  END
>  <minimizedAffinity>
-7.60472584

>  <minimizedRMSD>
0.944242716

$$$$
