
 OpenBabel03272500173D

 47 51  0  0  0  0  0  0  0  0999 V2000
   35.3590   29.1770   50.4720 C   0  0  0  0  0  0  0  0  0  0  0  0
   36.2800   29.9830   49.7730 C   0  0  0  0  0  0  0  0  0  0  0  0
   36.2060   30.0200   48.3890 C   0  0  0  0  0  0  0  0  0  0  0  0
   35.2430   29.2720   47.7740 N   0  0  0  0  0  0  0  0  0  0  0  0
   34.3840   28.5170   48.4580 C   0  0  0  0  0  0  0  0  0  0  0  0
   34.4390   28.4680   49.7890 N   0  0  0  0  0  0  0  0  0  0  0  0
   35.4370   29.1650   51.5490 H   0  0  0  0  0  0  0  0  0  0  0  0
   36.9890   30.7890   47.4540 C   0  0  0  0  0  0  0  0  0  0  0  0
   38.0190   31.6920   47.5320 C   0  0  0  0  0  0  0  0  0  0  0  0
   38.4100   31.8460   48.5050 H   0  0  0  0  0  0  0  0  0  0  0  0
   38.5520   32.3310   46.4390 C   0  0  0  0  0  0  0  0  0  0  0  0
   39.3680   33.0250   46.6610 H   0  0  0  0  0  0  0  0  0  0  0  0
   38.0860   32.1090   45.1610 C   0  0  0  0  0  0  0  0  0  0  0  0
   37.0550   31.2120   45.0160 C   0  0  0  0  0  0  0  0  0  0  0  0
   36.5610   30.6070   46.1190 C   0  0  0  0  0  0  0  0  0  0  0  0
   35.7390   29.9120   45.8700 H   0  0  0  0  0  0  0  0  0  0  0  0
   36.4440   30.9140   43.3680 S   0  0  0  0  0  0  0  0  0  0  0  0
   37.4170   31.9440   42.2890 C   0  0  0  0  0  0  0  0  0  0  0  0
   37.0730   31.8360   40.9640 C   0  0  0  0  0  0  0  0  0  0  0  0
   36.2930   31.2010   40.5700 H   0  0  0  0  0  0  0  0  0  0  0  0
   37.7770   32.6030   40.0350 C   0  0  0  0  0  0  0  0  0  0  0  0
   37.5360   32.5460   38.9840 H   0  0  0  0  0  0  0  0  0  0  0  0
   38.7800   33.4290   40.4920 C   0  0  0  0  0  0  0  0  0  0  0  0
   39.3030   34.0060   39.7540 H   0  0  0  0  0  0  0  0  0  0  0  0
   39.0530   33.4680   41.8440 C   0  0  0  0  0  0  0  0  0  0  0  0
   39.8610   34.1530   42.0840 H   0  0  0  0  0  0  0  0  0  0  0  0
   38.3890   32.7330   42.8050 C   0  0  0  0  0  0  0  0  0  0  0  0
   38.7430   32.8460   44.1510 N   0  0  0  0  0  0  0  0  0  0  0  0
   39.5210   33.5060   44.3700 H   0  0  0  0  0  0  0  0  0  0  0  0
   32.5670   30.0900   46.6230 Cl  0  0  0  0  0  0  0  0  0  0  0  0
   32.4930   28.3480   46.8540 C   0  0  0  0  0  0  0  0  0  0  0  0
   33.3800   27.7320   47.7250 C   0  0  0  0  0  0  0  0  0  0  0  0
   33.3640   26.3450   47.9440 C   0  0  0  0  0  0  0  0  0  0  0  0
   32.4080   25.6190   47.2370 C   0  0  0  0  0  0  0  0  0  0  0  0
   31.5210   26.2090   46.3720 C   0  0  0  0  0  0  0  0  0  0  0  0
   30.3680   25.1910   45.5450 Cl  0  0  0  0  0  0  0  0  0  0  0  0
   31.5760   27.5800   46.1890 C   0  0  0  0  0  0  0  0  0  0  0  0
   34.0510   25.8610   48.6190 H   0  0  0  0  0  0  0  0  0  0  0  0
   32.3910   24.5470   47.4030 H   0  0  0  0  0  0  0  0  0  0  0  0
   30.6230   28.2310   45.2550 C   0  0  0  0  0  0  0  0  0  0  0  0
   29.6450   27.3240   44.8490 F   0  0  0  0  0  0  0  0  0  0  0  0
   31.2420   28.7740   44.1720 F   0  0  0  0  0  0  0  0  0  0  0  0
   29.9460   29.2560   45.9190 F   0  0  0  0  0  0  0  0  0  0  0  0
   37.2780   30.7850   50.5270 C   0  0  0  0  0  0  0  0  0  0  0  0
   38.5650   30.5550   50.0830 F   0  0  0  0  0  0  0  0  0  0  0  0
   36.9790   32.1330   50.3820 F   0  0  0  0  0  0  0  0  0  0  0  0
   37.2380   30.5170   51.8860 F   0  0  0  0  0  0  0  0  0  0  0  0
  1  7  1  0  0  0  0
  2  1  2  0  0  0  0
  2 44  1  0  0  0  0
  3  2  1  0  0  0  0
  4  3  2  0  0  0  0
  4  5  1  0  0  0  0
  5  6  2  0  0  0  0
  6  1  1  0  0  0  0
  8  9  1  0  0  0  0
  8  3  1  0  0  0  0
  9 10  1  0  0  0  0
 11 12  1  0  0  0  0
 11  9  2  0  0  0  0
 13 11  1  0  0  0  0
 14 13  2  0  0  0  0
 14 15  1  0  0  0  0
 15  8  2  0  0  0  0
 16 15  1  0  0  0  0
 17 14  1  0  0  0  0
 18 27  1  0  0  0  0
 18 17  1  0  0  0  0
 19 18  2  0  0  0  0
 20 19  1  0  0  0  0
 21 23  2  0  0  0  0
 21 19  1  0  0  0  0
 22 21  1  0  0  0  0
 23 25  1  0  0  0  0
 24 23  1  0  0  0  0
 25 26  1  0  0  0  0
 25 27  2  0  0  0  0
 27 28  1  0  0  0  0
 28 29  1  0  0  0  0
 28 13  1  0  0  0  0
 30 31  1  0  0  0  0
 31 32  1  0  0  0  0
 32 33  2  0  0  0  0
 32  5  1  0  0  0  0
 33 38  1  0  0  0  0
 34 39  1  0  0  0  0
 34 33  1  0  0  0  0
 35 34  2  0  0  0  0
 36 35  1  0  0  0  0
 37 35  1  0  0  0  0
 37 31  2  0  0  0  0
 40 43  1  0  0  0  0
 40 37  1  0  0  0  0
 41 40  1  0  0  0  0
 42 40  1  0  0  0  0
 44 47  1  0  0  0  0
 45 44  1  0  0  0  0
 46 44  1  0  0  0  0
M  END
>  <minimizedAffinity>
-7.61778688

>  <minimizedRMSD>
0.337746561

$$$$
