
 OpenBabel03272507183D

 43 47  0  0  1  0  0  0  0  0999 V2000
   37.8430   31.0320   45.8730 C   0  0  0  0  0  0  0  0  0  0  0  0
   36.6520   30.5010   45.4090 C   0  0  0  0  0  0  0  0  0  0  0  0
   35.7810   30.4210   46.0500 H   0  0  0  0  0  0  0  0  0  0  0  0
   36.5900   30.0670   44.0970 C   0  0  0  0  0  0  0  0  0  0  0  0
   35.6870   29.6410   43.6710 H   0  0  0  0  0  0  0  0  0  0  0  0
   37.6950   30.1610   43.2640 C   0  0  0  0  0  0  0  0  0  0  0  0
   38.8670   30.7060   43.7900 C   0  0  0  0  0  0  0  0  0  0  0  0
   38.9830   31.1560   45.0990 C   0  0  0  0  0  0  0  0  0  0  0  0
   39.9090   31.5720   45.4700 H   0  0  0  0  0  0  0  0  0  0  0  0
   40.3290   30.8580   42.7760 S   0  0  0  0  0  0  0  0  0  0  0  0
   39.9120   30.2160   41.1620 C   0  0  0  0  0  0  0  0  0  0  0  0
   40.9220   30.2450   40.2230 C   0  0  0  0  0  0  0  0  0  0  0  0
   41.9040   30.6330   40.4490 H   0  0  0  0  0  0  0  0  0  0  0  0
   40.6650   29.7630   38.9570 C   0  0  0  0  0  0  0  0  0  0  0  0
   41.4520   29.7930   38.2460 H   0  0  0  0  0  0  0  0  0  0  0  0
   39.3930   29.2770   38.7190 C   0  0  0  0  0  0  0  0  0  0  0  0
   39.2480   28.9070   37.6940 H   0  0  0  0  0  0  0  0  0  0  0  0
   38.3910   29.2530   39.6670 C   0  0  0  0  0  0  0  0  0  0  0  0
   37.4180   28.8550   39.4040 H   0  0  0  0  0  0  0  0  0  0  0  0
   38.6340   29.7370   40.9570 C   0  0  0  0  0  0  0  0  0  0  0  0
   37.6260   29.7150   41.9200 N   0  0  0  0  0  0  0  0  0  0  0  0
   36.6930   29.3200   41.6200 H   0  0  0  0  0  0  0  0  0  0  0  0
   37.5590   31.3740   49.5540 C   0  0  0  0  0  0  0  0  0  0  0  0
   38.2880   32.5110   49.8560 C   0  0  0  0  0  0  0  0  0  0  0  0
   38.8730   33.1390   48.7280 C   0  0  0  0  0  0  0  0  0  0  0  0
   38.6990   32.6220   47.4640 N   0  0  0  0  0  0  0  0  0  0  0  0
   37.9730   31.5080   47.2510 C   0  0  0  0  0  0  0  0  0  0  0  0
   37.3910   30.8690   48.3070 N   0  0  0  0  0  0  0  0  0  0  0  0
   38.4090   32.8910   50.8390 H   0  0  0  0  0  0  0  0  0  0  0  0
   39.4530   34.0210   48.8630 H   0  0  0  0  0  0  0  0  0  0  0  0
   36.8940   30.7130   50.7190 C   0  0  1  0  0  0  0  0  0  0  0  0
   36.1020   29.4920   50.5700 C   0  0  2  0  0  0  0  0  0  0  0  0
   37.5160   29.3390   51.0390 C   0  0  0  0  0  0  0  0  0  0  0  0
   36.8720   31.3720   51.6330 H   0  0  0  0  0  0  0  0  0  0  0  0
   35.2380   29.4630   51.3020 H   0  0  0  0  0  0  0  0  0  0  0  0
   37.6400   29.0640   52.1010 H   0  0  0  0  0  0  0  0  0  0  0  0
   38.2300   28.9000   50.3210 H   0  0  0  0  0  0  0  0  0  0  0  0
   35.7740   29.1090   49.2770 O   0  0  0  0  0  0  0  0  0  0  0  0
   34.5580   28.8880   48.7160 C   0  0  0  0  0  0  0  0  0  0  0  0
   34.4290   28.5320   47.5260 O   0  0  0  0  0  0  0  0  0  0  0  0
   33.5810   29.1300   49.6820 N   0  0  0  0  0  0  0  0  0  0  0  0
   32.9420   28.4280   50.1270 H   0  0  0  0  0  0  0  0  0  0  0  0
   33.2720   30.0230   50.1650 H   0  0  0  0  0  0  0  0  0  0  0  0
  1 27  1  0  0  0  0
  2  1  1  0  0  0  0
  2  3  1  0  0  0  0
  4  2  2  0  0  0  0
  5  4  1  0  0  0  0
  6  7  2  0  0  0  0
  6  4  1  0  0  0  0
  7  8  1  0  0  0  0
  8  9  1  0  0  0  0
  8  1  2  0  0  0  0
 10  7  1  0  0  0  0
 11 10  1  0  0  0  0
 12 13  1  0  0  0  0
 12 11  2  0  0  0  0
 14 12  1  0  0  0  0
 15 14  1  0  0  0  0
 16 14  2  0  0  0  0
 16 18  1  0  0  0  0
 17 16  1  0  0  0  0
 18 20  2  0  0  0  0
 19 18  1  0  0  0  0
 20 11  1  0  0  0  0
 20 21  1  0  0  0  0
 21  6  1  0  0  0  0
 22 21  1  0  0  0  0
 23 24  1  0  0  0  0
 23 31  1  0  0  0  0
 24 29  1  0  0  0  0
 25 30  1  0  0  0  0
 25 24  2  0  0  0  0
 26 25  1  0  0  0  0
 27 26  2  0  0  0  0
 27 28  1  0  0  0  0
 28 23  2  0  0  0  0
 31 33  1  0  0  0  0
 31 34  1  1  0  0  0
 32 31  1  0  0  0  0
 32 33  1  0  0  0  0
 32 35  1  1  0  0  0
 33 36  1  0  0  0  0
 37 33  1  0  0  0  0
 38 32  1  0  0  0  0
 39 38  1  0  0  0  0
 39 41  1  0  0  0  0
 40 39  2  0  0  0  0
 41 42  1  0  0  0  0
 41 43  1  0  0  0  0
M  END
>  <minimizedAffinity>
-6.23998117

>  <minimizedRMSD>
2.76422238

$$$$
