REMARK  Name = 
REMARK  4 active torsions:
REMARK  status: ('A' for Active; 'I' for Inactive)
REMARK    1  A    between atoms: C_1  and  C_4
REMARK    2  A    between atoms: C_2  and  O_10
REMARK    3  A    between atoms: C_8  and  C_22
REMARK    4  A    between atoms: O_10  and  C_11
REMARK                            x       y       z     vdW  Elec       q    Type
REMARK                         _______ _______ _______ _____ _____    ______ ____
ROOT
ATOM      1  C   UNL     1      36.871  30.625  45.767  0.00  0.00    +0.000 A 
ATOM      2  C   UNL     1      37.738  30.004  44.885  0.00  0.00    +0.000 A 
ATOM      3  H   UNL     1      38.789  29.876  45.121  0.00  0.00    +0.000 HD
ATOM      4  C   UNL     1      37.237  29.543  43.680  0.00  0.00    +0.000 A 
ATOM      5  H   UNL     1      37.864  29.049  42.946  0.00  0.00    +0.000 HD
ATOM      6  C   UNL     1      35.897  29.699  43.363  0.00  0.00    +0.000 A 
ATOM      7  C   UNL     1      35.071  30.333  44.293  0.00  0.00    +0.000 A 
ATOM      8  C   UNL     1      35.523  30.813  45.515  0.00  0.00    +0.000 A 
ATOM      9  H   UNL     1      34.852  31.299  46.211  0.00  0.00    +0.000 HD
ATOM     10  S   UNL     1      33.335  30.567  43.950  0.00  0.00    +0.000 S 
ATOM     11  C   UNL     1      33.023  29.868  42.337  0.00  0.00    +0.000 A 
ATOM     12  C   UNL     1      31.723  29.951  41.885  0.00  0.00    +0.000 A 
ATOM     13  H   UNL     1      30.941  30.410  42.472  0.00  0.00    +0.000 HD
ATOM     14  C   UNL     1      31.415  29.429  40.647  0.00  0.00    +0.000 A 
ATOM     15  H   UNL     1      30.410  29.501  40.314  0.00  0.00    +0.000 HD
ATOM     16  C   UNL     1      32.451  28.852  39.936  0.00  0.00    +0.000 A 
ATOM     17  H   UNL     1      32.147  28.455  38.958  0.00  0.00    +0.000 HD
ATOM     18  C   UNL     1      33.749  28.776  40.398  0.00  0.00    +0.000 A 
ATOM     19  H   UNL     1      34.507  28.307  39.783  0.00  0.00    +0.000 HD
ATOM     20  C   UNL     1      34.078  29.299  41.654  0.00  0.00    +0.000 A 
ATOM     21  N   UNL     1      35.389  29.225  42.127  0.00  0.00    +0.000 N 
ATOM     22  H   UNL     1      36.095  28.760  41.493  0.00  0.00    +0.000 HD
ENDROOT
BRANCH   1  27
ATOM     23  C   UNL     1      37.327  31.212  49.399  0.00  0.00    +0.000 A 
ATOM     24  C   UNL     1      38.312  32.181  49.475  0.00  0.00    +0.000 A 
ATOM     25  C   UNL     1      38.799  32.610  48.215  0.00  0.00    +0.000 A 
ATOM     26  N   UNL     1      38.301  32.077  47.048  0.00  0.00    +0.000 NA
ATOM     27  C   UNL     1      37.339  31.134  47.057  0.00  0.00    +0.000 A 
ATOM     28  N   UNL     1      36.840  30.690  48.246  0.00  0.00    +0.000 NA
ATOM     29  H   UNL     1      38.681  32.577  50.387  0.00  0.00    +0.000 HD
ATOM     30  H   UNL     1      39.559  33.354  48.174  0.00  0.00    +0.000 HD
BRANCH  23  31
ATOM     31  C   UNL     1      36.763  30.770  50.712  0.00  0.00    +0.000 C 
ATOM     32  C   UNL     1      36.029  29.512  50.857  0.00  0.00    +0.000 C 
ATOM     33  C   UNL     1      37.473  29.514  51.255  0.00  0.00    +0.000 C 
ATOM     34  H   UNL     1      36.756  31.596  51.478  0.00  0.00    +0.000 HD
ATOM     35  H   UNL     1      35.209  29.594  51.634  0.00  0.00    +0.000 HD
ATOM     36  H   UNL     1      37.669  29.461  52.340  0.00  0.00    +0.000 HD
ATOM     37  H   UNL     1      38.169  28.970  50.593  0.00  0.00    +0.000 HD
BRANCH  32  38
ATOM     38  O   UNL     1      35.651  28.866  49.688  0.00  0.00    +0.000 OA
BRANCH  38  39
ATOM     39  C   UNL     1      34.437  28.397  49.306  0.00  0.00    +0.000 C 
ATOM     40  O   UNL     1      34.311  27.397  48.568  0.00  0.00    +0.000 OA
ATOM     41  N   UNL     1      33.456  29.213  49.870  0.00  0.00    +0.000 N 
ATOM     42  H   UNL     1      32.762  28.951  50.611  0.00  0.00    +0.000 HD
ATOM     43  H   UNL     1      33.195  30.227  49.695  0.00  0.00    +0.000 HD
ENDBRANCH  38  39
ENDBRANCH  32  38
ENDBRANCH  23  31
ENDBRANCH   1  27
TORSDOF 4
