
 OpenBabel03272507213D

 43 47  0  0  1  0  0  0  0  0999 V2000
   37.3300   27.5840   33.2290 C   0  0  0  0  0  0  0  0  0  0  0  0
   38.4240   27.4660   32.3900 C   0  0  0  0  0  0  0  0  0  0  0  0
   38.5170   28.0690   31.4940 H   0  0  0  0  0  0  0  0  0  0  0  0
   39.4120   26.5560   32.7180 C   0  0  0  0  0  0  0  0  0  0  0  0
   40.2960   26.4150   32.1030 H   0  0  0  0  0  0  0  0  0  0  0  0
   39.3100   25.7760   33.8610 C   0  0  0  0  0  0  0  0  0  0  0  0
   38.1820   25.9400   34.6680 C   0  0  0  0  0  0  0  0  0  0  0  0
   37.1630   26.8390   34.3840 C   0  0  0  0  0  0  0  0  0  0  0  0
   36.3030   26.9380   35.0340 H   0  0  0  0  0  0  0  0  0  0  0  0
   37.9840   24.9710   36.1540 S   0  0  0  0  0  0  0  0  0  0  0  0
   39.4150   23.9110   36.2790 C   0  0  0  0  0  0  0  0  0  0  0  0
   39.4510   23.0730   37.3750 C   0  0  0  0  0  0  0  0  0  0  0  0
   38.6610   23.0600   38.1100 H   0  0  0  0  0  0  0  0  0  0  0  0
   40.5300   22.2290   37.5300 C   0  0  0  0  0  0  0  0  0  0  0  0
   40.5420   21.5910   38.3780 H   0  0  0  0  0  0  0  0  0  0  0  0
   41.5120   22.2840   36.5590 C   0  0  0  0  0  0  0  0  0  0  0  0
   42.3450   21.5890   36.7360 H   0  0  0  0  0  0  0  0  0  0  0  0
   41.4660   23.1260   35.4680 C   0  0  0  0  0  0  0  0  0  0  0  0
   42.2760   23.1120   34.7490 H   0  0  0  0  0  0  0  0  0  0  0  0
   40.3780   23.9900   35.2940 C   0  0  0  0  0  0  0  0  0  0  0  0
   40.3250   24.8440   34.1920 N   0  0  0  0  0  0  0  0  0  0  0  0
   41.1370   24.7960   33.5170 H   0  0  0  0  0  0  0  0  0  0  0  0
   34.2780   29.6750   33.4720 C   0  0  0  0  0  0  0  0  0  0  0  0
   34.2310   30.3650   32.2730 C   0  0  0  0  0  0  0  0  0  0  0  0
   35.3010   30.0670   31.3930 C   0  0  0  0  0  0  0  0  0  0  0  0
   36.2760   29.1620   31.7480 N   0  0  0  0  0  0  0  0  0  0  0  0
   36.2510   28.5290   32.9370 C   0  0  0  0  0  0  0  0  0  0  0  0
   35.2410   28.7840   33.8170 N   0  0  0  0  0  0  0  0  0  0  0  0
   33.4690   31.0580   32.0210 H   0  0  0  0  0  0  0  0  0  0  0  0
   35.3490   30.5500   30.4460 H   0  0  0  0  0  0  0  0  0  0  0  0
   33.1380   29.9360   34.4040 C   0  0  1  0  0  0  0  0  0  0  0  0
   33.0970   31.1170   35.2670 C   0  0  2  0  0  0  0  0  0  0  0  0
   32.3200   31.1750   33.9880 C   0  0  0  0  0  0  0  0  0  0  0  0
   32.4730   29.0360   34.5360 H   0  0  0  0  0  0  0  0  0  0  0  0
   32.5830   30.8970   36.2530 H   0  0  0  0  0  0  0  0  0  0  0  0
   31.2220   31.1270   34.0930 H   0  0  0  0  0  0  0  0  0  0  0  0
   32.7190   31.8320   33.1960 H   0  0  0  0  0  0  0  0  0  0  0  0
   34.2670   31.8540   35.3810 O   0  0  0  0  0  0  0  0  0  0  0  0
   35.2830   31.7430   36.2730 C   0  0  0  0  0  0  0  0  0  0  0  0
   36.3990   31.2780   35.9570 O   0  0  0  0  0  0  0  0  0  0  0  0
   34.8360   32.2180   37.5060 N   0  0  0  0  0  0  0  0  0  0  0  0
   35.1600   33.0790   38.0090 H   0  0  0  0  0  0  0  0  0  0  0  0
   34.1090   31.8460   38.1840 H   0  0  0  0  0  0  0  0  0  0  0  0
  1  8  1  0  0  0  0
  2  4  1  0  0  0  0
  2  1  2  0  0  0  0
  3  2  1  0  0  0  0
  4  6  2  0  0  0  0
  5  4  1  0  0  0  0
  6 21  1  0  0  0  0
  6  7  1  0  0  0  0
  7 10  1  0  0  0  0
  8  7  2  0  0  0  0
  8  9  1  0  0  0  0
 10 11  1  0  0  0  0
 11 12  1  0  0  0  0
 12 14  2  0  0  0  0
 12 13  1  0  0  0  0
 14 15  1  0  0  0  0
 16 17  1  0  0  0  0
 16 14  1  0  0  0  0
 18 16  2  0  0  0  0
 19 18  1  0  0  0  0
 20 18  1  0  0  0  0
 20 11  2  0  0  0  0
 21 20  1  0  0  0  0
 22 21  1  0  0  0  0
 23 28  1  0  0  0  0
 23 31  1  0  0  0  0
 24 23  2  0  0  0  0
 25 26  2  0  0  0  0
 25 24  1  0  0  0  0
 26 27  1  0  0  0  0
 27  1  1  0  0  0  0
 27 28  2  0  0  0  0
 29 24  1  0  0  0  0
 30 25  1  0  0  0  0
 31 34  1  1  0  0  0
 31 32  1  0  0  0  0
 32 38  1  0  0  0  0
 32 35  1  1  0  0  0
 33 36  1  0  0  0  0
 33 31  1  0  0  0  0
 33 32  1  0  0  0  0
 37 33  1  0  0  0  0
 38 39  1  0  0  0  0
 39 41  1  0  0  0  0
 40 39  2  0  0  0  0
 41 42  1  0  0  0  0
 41 43  1  0  0  0  0
M  END
>  <minimizedAffinity>
-6.43274164

$$$$

 OpenBabel03272507213D

 43 47  0  0  1  0  0  0  0  0999 V2000
   36.8950   27.7490   33.6410 C   0  0  0  0  0  0  0  0  0  0  0  0
   37.8050   27.5620   32.6160 C   0  0  0  0  0  0  0  0  0  0  0  0
   37.7680   28.1600   31.7110 H   0  0  0  0  0  0  0  0  0  0  0  0
   38.7780   26.5900   32.7640 C   0  0  0  0  0  0  0  0  0  0  0  0
   39.5210   26.3940   31.9980 H   0  0  0  0  0  0  0  0  0  0  0  0
   38.8400   25.8160   33.9140 C   0  0  0  0  0  0  0  0  0  0  0  0
   37.8930   26.0510   34.9140 C   0  0  0  0  0  0  0  0  0  0  0  0
   36.8990   27.0140   34.8140 C   0  0  0  0  0  0  0  0  0  0  0  0
   36.1830   27.1660   35.6110 H   0  0  0  0  0  0  0  0  0  0  0  0
   37.9130   25.0930   36.4200 S   0  0  0  0  0  0  0  0  0  0  0  0
   39.2740   23.9440   36.2890 C   0  0  0  0  0  0  0  0  0  0  0  0
   39.4590   23.1030   37.3670 C   0  0  0  0  0  0  0  0  0  0  0  0
   38.8200   23.1390   38.2370 H   0  0  0  0  0  0  0  0  0  0  0  0
   40.4920   22.1920   37.3280 C   0  0  0  0  0  0  0  0  0  0  0  0
   40.6200   21.5520   38.1660 H   0  0  0  0  0  0  0  0  0  0  0  0
   41.2790   22.1850   36.1920 C   0  0  0  0  0  0  0  0  0  0  0  0
   42.0850   21.4380   36.2190 H   0  0  0  0  0  0  0  0  0  0  0  0
   41.0840   23.0300   35.1200 C   0  0  0  0  0  0  0  0  0  0  0  0
   41.7440   22.9660   34.2640 H   0  0  0  0  0  0  0  0  0  0  0  0
   40.0400   23.9630   35.1420 C   0  0  0  0  0  0  0  0  0  0  0  0
   39.8380   24.8200   34.0610 N   0  0  0  0  0  0  0  0  0  0  0  0
   40.5060   24.7220   33.2470 H   0  0  0  0  0  0  0  0  0  0  0  0
   34.8130   30.7680   34.1800 C   0  0  0  0  0  0  0  0  0  0  0  0
   33.7740   30.6420   33.2740 C   0  0  0  0  0  0  0  0  0  0  0  0
   33.8390   29.4700   32.4810 C   0  0  0  0  0  0  0  0  0  0  0  0
   34.8660   28.5670   32.6380 N   0  0  0  0  0  0  0  0  0  0  0  0
   35.8430   28.7620   33.5450 C   0  0  0  0  0  0  0  0  0  0  0  0
   35.8230   29.8760   34.3310 N   0  0  0  0  0  0  0  0  0  0  0  0
   32.9930   31.3510   33.1700 H   0  0  0  0  0  0  0  0  0  0  0  0
   33.0810   29.2870   31.7550 H   0  0  0  0  0  0  0  0  0  0  0  0
   34.7490   31.9750   35.0610 C   0  0  1  0  0  0  0  0  0  0  0  0
   34.1030   31.9430   36.3750 C   0  0  2  0  0  0  0  0  0  0  0  0
   35.5940   31.8060   36.3390 C   0  0  0  0  0  0  0  0  0  0  0  0
   35.0220   32.9220   34.5160 H   0  0  0  0  0  0  0  0  0  0  0  0
   33.6140   32.9340   36.6240 H   0  0  0  0  0  0  0  0  0  0  0  0
   36.1630   32.6800   36.7010 H   0  0  0  0  0  0  0  0  0  0  0  0
   36.0040   30.8080   36.5760 H   0  0  0  0  0  0  0  0  0  0  0  0
   33.3280   30.8300   36.6680 O   0  0  0  0  0  0  0  0  0  0  0  0
   31.9970   30.7340   36.9100 C   0  0  0  0  0  0  0  0  0  0  0  0
   31.1700   31.5230   36.4050 O   0  0  0  0  0  0  0  0  0  0  0  0
   31.7860   29.6590   37.7740 N   0  0  0  0  0  0  0  0  0  0  0  0
   31.2980   28.7570   37.5560 H   0  0  0  0  0  0  0  0  0  0  0  0
   32.0510   29.5080   38.7910 H   0  0  0  0  0  0  0  0  0  0  0  0
  1  8  1  0  0  0  0
  2  4  1  0  0  0  0
  2  1  2  0  0  0  0
  3  2  1  0  0  0  0
  4  6  2  0  0  0  0
  5  4  1  0  0  0  0
  6 21  1  0  0  0  0
  6  7  1  0  0  0  0
  7 10  1  0  0  0  0
  8  7  2  0  0  0  0
  8  9  1  0  0  0  0
 11 10  1  0  0  0  0
 11 12  1  0  0  0  0
 12 13  1  0  0  0  0
 14 12  2  0  0  0  0
 14 15  1  0  0  0  0
 16 17  1  0  0  0  0
 16 14  1  0  0  0  0
 18 20  1  0  0  0  0
 18 16  2  0  0  0  0
 19 18  1  0  0  0  0
 20 11  2  0  0  0  0
 21 20  1  0  0  0  0
 22 21  1  0  0  0  0
 23 28  1  0  0  0  0
 23 31  1  0  0  0  0
 24 23  2  0  0  0  0
 25 26  2  0  0  0  0
 25 24  1  0  0  0  0
 26 27  1  0  0  0  0
 27  1  1  0  0  0  0
 27 28  2  0  0  0  0
 29 24  1  0  0  0  0
 30 25  1  0  0  0  0
 31 34  1  6  0  0  0
 31 33  1  0  0  0  0
 31 32  1  0  0  0  0
 32 35  1  1  0  0  0
 32 38  1  0  0  0  0
 33 32  1  0  0  0  0
 33 37  1  0  0  0  0
 33 36  1  0  0  0  0
 38 39  1  0  0  0  0
 39 41  1  0  0  0  0
 40 39  2  0  0  0  0
 41 43  1  0  0  0  0
 42 41  1  0  0  0  0
M  END
>  <minimizedAffinity>
-6.16458368

$$$$

 OpenBabel03272507213D

 43 47  0  0  1  0  0  0  0  0999 V2000
   38.0080   27.3040   33.0640 C   0  0  0  0  0  0  0  0  0  0  0  0
   38.1320   27.5900   31.7160 C   0  0  0  0  0  0  0  0  0  0  0  0
   38.9230   27.1540   31.1150 H   0  0  0  0  0  0  0  0  0  0  0  0
   37.2170   28.4510   31.1370 C   0  0  0  0  0  0  0  0  0  0  0  0
   37.2580   28.7160   30.0850 H   0  0  0  0  0  0  0  0  0  0  0  0
   36.1990   29.0180   31.8890 C   0  0  0  0  0  0  0  0  0  0  0  0
   36.1260   28.6910   33.2450 C   0  0  0  0  0  0  0  0  0  0  0  0
   37.0180   27.8330   33.8740 C   0  0  0  0  0  0  0  0  0  0  0  0
   36.9290   27.6040   34.9280 H   0  0  0  0  0  0  0  0  0  0  0  0
   34.8430   29.3830   34.2750 S   0  0  0  0  0  0  0  0  0  0  0  0
   33.8480   30.4360   33.2300 C   0  0  0  0  0  0  0  0  0  0  0  0
   32.7900   31.0720   33.8470 C   0  0  0  0  0  0  0  0  0  0  0  0
   32.5780   30.9400   34.8970 H   0  0  0  0  0  0  0  0  0  0  0  0
   31.9840   31.8990   33.0960 C   0  0  0  0  0  0  0  0  0  0  0  0
   31.1740   32.3810   33.5860 H   0  0  0  0  0  0  0  0  0  0  0  0
   32.3000   32.0360   31.7580 C   0  0  0  0  0  0  0  0  0  0  0  0
   31.6230   32.7070   31.2110 H   0  0  0  0  0  0  0  0  0  0  0  0
   33.3600   31.3960   31.1510 C   0  0  0  0  0  0  0  0  0  0  0  0
   33.5450   31.5520   30.0960 H   0  0  0  0  0  0  0  0  0  0  0  0
   34.1910   30.5510   31.8990 C   0  0  0  0  0  0  0  0  0  0  0  0
   35.2650   29.9010   31.2920 N   0  0  0  0  0  0  0  0  0  0  0  0
   35.4060   30.0830   30.2600 H   0  0  0  0  0  0  0  0  0  0  0  0
   39.6000   24.3030   34.5480 C   0  0  0  0  0  0  0  0  0  0  0  0
   40.8130   24.7570   35.0360 C   0  0  0  0  0  0  0  0  0  0  0  0
   41.0410   26.1390   34.8230 C   0  0  0  0  0  0  0  0  0  0  0  0
   40.1040   26.9180   34.1820 N   0  0  0  0  0  0  0  0  0  0  0  0
   38.9440   26.4000   33.7350 C   0  0  0  0  0  0  0  0  0  0  0  0
   38.6810   25.0740   33.9160 N   0  0  0  0  0  0  0  0  0  0  0  0
   41.5200   24.1380   35.5270 H   0  0  0  0  0  0  0  0  0  0  0  0
   41.9480   26.5790   35.1650 H   0  0  0  0  0  0  0  0  0  0  0  0
   39.3130   22.8560   34.7960 C   0  0  1  0  0  0  0  0  0  0  0  0
   38.3950   22.4160   35.8480 C   0  0  2  0  0  0  0  0  0  0  0  0
   37.8560   22.4870   34.4520 C   0  0  0  0  0  0  0  0  0  0  0  0
   40.0400   22.1760   34.2680 H   0  0  0  0  0  0  0  0  0  0  0  0
   38.7190   21.4300   36.2990 H   0  0  0  0  0  0  0  0  0  0  0  0
   37.6730   21.5150   33.9620 H   0  0  0  0  0  0  0  0  0  0  0  0
   37.1390   23.2990   34.2390 H   0  0  0  0  0  0  0  0  0  0  0  0
   37.9980   23.3700   36.7740 O   0  0  0  0  0  0  0  0  0  0  0  0
   38.4410   23.5960   38.0360 C   0  0  0  0  0  0  0  0  0  0  0  0
   38.0310   24.5540   38.7250 O   0  0  0  0  0  0  0  0  0  0  0  0
   39.3730   22.6080   38.3550 N   0  0  0  0  0  0  0  0  0  0  0  0
   39.2710   21.8460   39.0680 H   0  0  0  0  0  0  0  0  0  0  0  0
   40.3440   22.4060   37.9770 H   0  0  0  0  0  0  0  0  0  0  0  0
  1 27  1  0  0  0  0
  1  8  1  0  0  0  0
  2  1  2  0  0  0  0
  3  2  1  0  0  0  0
  4  2  1  0  0  0  0
  4  6  2  0  0  0  0
  5  4  1  0  0  0  0
  6  7  1  0  0  0  0
  7  8  2  0  0  0  0
  7 10  1  0  0  0  0
  8  9  1  0  0  0  0
 11 12  1  0  0  0  0
 11 10  1  0  0  0  0
 12 13  1  0  0  0  0
 14 15  1  0  0  0  0
 14 12  2  0  0  0  0
 16 14  1  0  0  0  0
 17 16  1  0  0  0  0
 18 16  2  0  0  0  0
 18 20  1  0  0  0  0
 19 18  1  0  0  0  0
 20 11  2  0  0  0  0
 21  6  1  0  0  0  0
 21 20  1  0  0  0  0
 22 21  1  0  0  0  0
 23 31  1  0  0  0  0
 23 24  1  0  0  0  0
 24 29  1  0  0  0  0
 25 24  2  0  0  0  0
 25 30  1  0  0  0  0
 26 25  1  0  0  0  0
 27 28  1  0  0  0  0
 27 26  2  0  0  0  0
 28 23  2  0  0  0  0
 31 34  1  6  0  0  0
 31 32  1  0  0  0  0
 32 35  1  1  0  0  0
 32 38  1  0  0  0  0
 33 31  1  0  0  0  0
 33 32  1  0  0  0  0
 36 33  1  0  0  0  0
 37 33  1  0  0  0  0
 38 39  1  0  0  0  0
 39 41  1  0  0  0  0
 39 40  2  0  0  0  0
 41 42  1  0  0  0  0
 43 41  1  0  0  0  0
M  END
>  <minimizedAffinity>
-6.11420059

$$$$

 OpenBabel03272507213D

 43 47  0  0  1  0  0  0  0  0999 V2000
   37.7610   25.9200   34.3390 C   0  0  0  0  0  0  0  0  0  0  0  0
   37.4560   25.8950   35.6880 C   0  0  0  0  0  0  0  0  0  0  0  0
   36.6940   26.5430   36.1080 H   0  0  0  0  0  0  0  0  0  0  0  0
   38.1460   25.0170   36.5050 C   0  0  0  0  0  0  0  0  0  0  0  0
   37.9540   24.9480   37.5710 H   0  0  0  0  0  0  0  0  0  0  0  0
   39.1230   24.1810   35.9860 C   0  0  0  0  0  0  0  0  0  0  0  0
   39.3870   24.2530   34.6160 C   0  0  0  0  0  0  0  0  0  0  0  0
   38.7240   25.1150   33.7540 C   0  0  0  0  0  0  0  0  0  0  0  0
   38.9560   25.1420   32.6970 H   0  0  0  0  0  0  0  0  0  0  0  0
   40.6310   23.2070   33.8790 S   0  0  0  0  0  0  0  0  0  0  0  0
   41.3190   22.2110   35.1920 C   0  0  0  0  0  0  0  0  0  0  0  0
   42.3100   21.3250   34.8210 C   0  0  0  0  0  0  0  0  0  0  0  0
   42.6480   21.2410   33.7990 H   0  0  0  0  0  0  0  0  0  0  0  0
   42.8820   20.5270   35.7880 C   0  0  0  0  0  0  0  0  0  0  0  0
   43.6440   19.8510   35.4860 H   0  0  0  0  0  0  0  0  0  0  0  0
   42.4150   20.6750   37.0800 C   0  0  0  0  0  0  0  0  0  0  0  0
   42.9090   20.0140   37.8060 H   0  0  0  0  0  0  0  0  0  0  0  0
   41.4240   21.5640   37.4390 C   0  0  0  0  0  0  0  0  0  0  0  0
   41.1100   21.6230   38.4740 H   0  0  0  0  0  0  0  0  0  0  0  0
   40.8300   22.3830   36.4710 C   0  0  0  0  0  0  0  0  0  0  0  0
   39.8270   23.2840   36.8270 N   0  0  0  0  0  0  0  0  0  0  0  0
   39.5530   23.3070   37.8480 H   0  0  0  0  0  0  0  0  0  0  0  0
   36.0430   28.8620   32.8770 C   0  0  0  0  0  0  0  0  0  0  0  0
   35.7410   28.4810   31.5810 C   0  0  0  0  0  0  0  0  0  0  0  0
   36.1620   27.1690   31.2520 C   0  0  0  0  0  0  0  0  0  0  0  0
   36.8090   26.3830   32.1770 N   0  0  0  0  0  0  0  0  0  0  0  0
   37.0670   26.8260   33.4230 C   0  0  0  0  0  0  0  0  0  0  0  0
   36.6810   28.0830   33.7850 N   0  0  0  0  0  0  0  0  0  0  0  0
   35.2410   29.1050   30.8850 H   0  0  0  0  0  0  0  0  0  0  0  0
   35.9720   26.7890   30.2760 H   0  0  0  0  0  0  0  0  0  0  0  0
   35.5730   30.2270   33.2680 C   0  0  1  0  0  0  0  0  0  0  0  0
   34.2470   30.4560   33.8450 C   0  0  2  0  0  0  0  0  0  0  0  0
   35.4030   30.3680   34.7940 C   0  0  0  0  0  0  0  0  0  0  0  0
   36.2310   31.0440   32.8550 H   0  0  0  0  0  0  0  0  0  0  0  0
   33.8230   31.4590   33.5330 H   0  0  0  0  0  0  0  0  0  0  0  0
   35.7100   31.3190   35.2610 H   0  0  0  0  0  0  0  0  0  0  0  0
   35.4600   29.4600   35.4200 H   0  0  0  0  0  0  0  0  0  0  0  0
   33.3430   29.4040   33.7810 O   0  0  0  0  0  0  0  0  0  0  0  0
   32.2210   29.2660   33.0320 C   0  0  0  0  0  0  0  0  0  0  0  0
   31.4200   28.3220   33.2010 O   0  0  0  0  0  0  0  0  0  0  0  0
   32.1750   30.3160   32.1150 N   0  0  0  0  0  0  0  0  0  0  0  0
   31.4860   31.1060   32.0890 H   0  0  0  0  0  0  0  0  0  0  0  0
   32.7860   30.5500   31.2790 H   0  0  0  0  0  0  0  0  0  0  0  0
  1  2  1  0  0  0  0
  2  3  1  0  0  0  0
  2  4  2  0  0  0  0
  4  5  1  0  0  0  0
  6  4  1  0  0  0  0
  6 21  1  0  0  0  0
  7  6  2  0  0  0  0
  8  1  2  0  0  0  0
  8  7  1  0  0  0  0
  9  8  1  0  0  0  0
 10  7  1  0  0  0  0
 10 11  1  0  0  0  0
 11 20  1  0  0  0  0
 12 11  2  0  0  0  0
 12 14  1  0  0  0  0
 13 12  1  0  0  0  0
 14 16  2  0  0  0  0
 15 14  1  0  0  0  0
 16 18  1  0  0  0  0
 16 17  1  0  0  0  0
 18 19  1  0  0  0  0
 20 21  1  0  0  0  0
 20 18  2  0  0  0  0
 21 22  1  0  0  0  0
 23 31  1  0  0  0  0
 23 28  1  0  0  0  0
 24 23  2  0  0  0  0
 25 24  1  0  0  0  0
 25 26  2  0  0  0  0
 26 27  1  0  0  0  0
 27 28  2  0  0  0  0
 27  1  1  0  0  0  0
 29 24  1  0  0  0  0
 30 25  1  0  0  0  0
 31 34  1  6  0  0  0
 31 32  1  0  0  0  0
 31 33  1  0  0  0  0
 32 35  1  6  0  0  0
 32 33  1  0  0  0  0
 33 36  1  0  0  0  0
 33 37  1  0  0  0  0
 38 32  1  0  0  0  0
 39 40  2  0  0  0  0
 39 38  1  0  0  0  0
 41 39  1  0  0  0  0
 42 41  1  0  0  0  0
 43 41  1  0  0  0  0
M  END
>  <minimizedAffinity>
-5.97970343

$$$$

 OpenBabel03272507213D

 43 47  0  0  1  0  0  0  0  0999 V2000
   38.3220   27.0580   31.8100 C   0  0  0  0  0  0  0  0  0  0  0  0
   37.2770   27.6010   32.5350 C   0  0  0  0  0  0  0  0  0  0  0  0
   36.6350   28.3680   32.1150 H   0  0  0  0  0  0  0  0  0  0  0  0
   37.0580   27.1430   33.8220 C   0  0  0  0  0  0  0  0  0  0  0  0
   36.2560   27.5280   34.4440 H   0  0  0  0  0  0  0  0  0  0  0  0
   37.8690   26.1630   34.3760 C   0  0  0  0  0  0  0  0  0  0  0  0
   38.9080   25.6530   33.5940 C   0  0  0  0  0  0  0  0  0  0  0  0
   39.1690   26.0780   32.2990 C   0  0  0  0  0  0  0  0  0  0  0  0
   39.9840   25.6580   31.7240 H   0  0  0  0  0  0  0  0  0  0  0  0
   39.9900   24.3900   34.2410 S   0  0  0  0  0  0  0  0  0  0  0  0
   39.4390   24.0330   35.9020 C   0  0  0  0  0  0  0  0  0  0  0  0
   40.1570   23.0700   36.5810 C   0  0  0  0  0  0  0  0  0  0  0  0
   41.0000   22.5640   36.1350 H   0  0  0  0  0  0  0  0  0  0  0  0
   39.7830   22.7480   37.8680 C   0  0  0  0  0  0  0  0  0  0  0  0
   40.3460   22.0040   38.3760 H   0  0  0  0  0  0  0  0  0  0  0  0
   38.7000   23.4260   38.3930 C   0  0  0  0  0  0  0  0  0  0  0  0
   38.4490   23.1270   39.4210 H   0  0  0  0  0  0  0  0  0  0  0  0
   37.9890   24.3870   37.7050 C   0  0  0  0  0  0  0  0  0  0  0  0
   37.1500   24.8750   38.1850 H   0  0  0  0  0  0  0  0  0  0  0  0
   38.3550   24.7270   36.3970 C   0  0  0  0  0  0  0  0  0  0  0  0
   37.6410   25.6980   35.6950 N   0  0  0  0  0  0  0  0  0  0  0  0
   36.8290   26.1480   36.2020 H   0  0  0  0  0  0  0  0  0  0  0  0
   38.4490   29.0180   28.6660 C   0  0  0  0  0  0  0  0  0  0  0  0
   39.2090   28.2470   27.8040 C   0  0  0  0  0  0  0  0  0  0  0  0
   39.6660   27.0300   28.3680 C   0  0  0  0  0  0  0  0  0  0  0  0
   39.3520   26.6920   29.6650 N   0  0  0  0  0  0  0  0  0  0  0  0
   38.6050   27.4990   30.4430 C   0  0  0  0  0  0  0  0  0  0  0  0
   38.1430   28.6810   29.9430 N   0  0  0  0  0  0  0  0  0  0  0  0
   39.4390   28.5280   26.8080 H   0  0  0  0  0  0  0  0  0  0  0  0
   40.2590   26.3710   27.7790 H   0  0  0  0  0  0  0  0  0  0  0  0
   37.9160   30.2900   28.0850 C   0  0  1  0  0  0  0  0  0  0  0  0
   37.0790   31.2060   28.8600 C   0  0  2  0  0  0  0  0  0  0  0  0
   38.5360   31.5350   28.7490 C   0  0  0  0  0  0  0  0  0  0  0  0
   38.0250   30.3300   26.9640 H   0  0  0  0  0  0  0  0  0  0  0  0
   36.3120   31.7240   28.2070 H   0  0  0  0  0  0  0  0  0  0  0  0
   38.7830   32.3950   28.1020 H   0  0  0  0  0  0  0  0  0  0  0  0
   39.1430   31.4030   29.6610 H   0  0  0  0  0  0  0  0  0  0  0  0
   36.5820   30.7350   30.0670 O   0  0  0  0  0  0  0  0  0  0  0  0
   35.8530   31.3730   31.0170 C   0  0  0  0  0  0  0  0  0  0  0  0
   36.3780   31.8810   32.0300 O   0  0  0  0  0  0  0  0  0  0  0  0
   34.5110   31.3300   30.6390 N   0  0  0  0  0  0  0  0  0  0  0  0
   33.9070   32.1370   30.3520 H   0  0  0  0  0  0  0  0  0  0  0  0
   33.8260   30.5230   30.5580 H   0  0  0  0  0  0  0  0  0  0  0  0
  1  8  2  0  0  0  0
  1  2  1  0  0  0  0
  2  4  2  0  0  0  0
  3  2  1  0  0  0  0
  4  6  1  0  0  0  0
  4  5  1  0  0  0  0
  6 21  1  0  0  0  0
  7 10  1  0  0  0  0
  7  6  2  0  0  0  0
  8  7  1  0  0  0  0
  9  8  1  0  0  0  0
 10 11  1  0  0  0  0
 11 20  2  0  0  0  0
 11 12  1  0  0  0  0
 12 14  2  0  0  0  0
 13 12  1  0  0  0  0
 14 15  1  0  0  0  0
 14 16  1  0  0  0  0
 16 17  1  0  0  0  0
 18 19  1  0  0  0  0
 18 16  2  0  0  0  0
 20 18  1  0  0  0  0
 21 22  1  0  0  0  0
 21 20  1  0  0  0  0
 23 28  1  0  0  0  0
 24 25  1  0  0  0  0
 24 23  2  0  0  0  0
 25 26  2  0  0  0  0
 26 27  1  0  0  0  0
 27  1  1  0  0  0  0
 28 27  2  0  0  0  0
 29 24  1  0  0  0  0
 30 25  1  0  0  0  0
 31 34  1  6  0  0  0
 31 23  1  0  0  0  0
 31 33  1  0  0  0  0
 31 32  1  0  0  0  0
 32 35  1  6  0  0  0
 32 38  1  0  0  0  0
 33 32  1  0  0  0  0
 33 37  1  0  0  0  0
 36 33  1  0  0  0  0
 38 39  1  0  0  0  0
 39 40  2  0  0  0  0
 41 39  1  0  0  0  0
 42 41  1  0  0  0  0
 43 41  1  0  0  0  0
M  END
>  <minimizedAffinity>
-5.91788197

$$$$

 OpenBabel03272507213D

 43 47  0  0  1  0  0  0  0  0999 V2000
   34.7620   29.8040   34.1970 C   0  0  0  0  0  0  0  0  0  0  0  0
   33.4360   29.7270   33.8110 C   0  0  0  0  0  0  0  0  0  0  0  0
   33.0970   28.9850   33.0950 H   0  0  0  0  0  0  0  0  0  0  0  0
   32.5340   30.6200   34.3610 C   0  0  0  0  0  0  0  0  0  0  0  0
   31.4810   30.6130   34.1010 H   0  0  0  0  0  0  0  0  0  0  0  0
   32.9500   31.5750   35.2780 C   0  0  0  0  0  0  0  0  0  0  0  0
   34.3020   31.6040   35.6270 C   0  0  0  0  0  0  0  0  0  0  0  0
   35.2450   30.7300   35.1050 C   0  0  0  0  0  0  0  0  0  0  0  0
   36.2850   30.7840   35.4010 H   0  0  0  0  0  0  0  0  0  0  0  0
   34.9060   32.8060   36.8010 S   0  0  0  0  0  0  0  0  0  0  0  0
   33.5050   33.7900   37.3070 C   0  0  0  0  0  0  0  0  0  0  0  0
   33.7690   34.7870   38.2240 C   0  0  0  0  0  0  0  0  0  0  0  0
   34.7620   34.9610   38.6100 H   0  0  0  0  0  0  0  0  0  0  0  0
   32.7300   35.5830   38.6560 C   0  0  0  0  0  0  0  0  0  0  0  0
   32.9500   36.3460   39.3610 H   0  0  0  0  0  0  0  0  0  0  0  0
   31.4800   35.3210   38.1300 C   0  0  0  0  0  0  0  0  0  0  0  0
   30.6930   35.9870   38.5110 H   0  0  0  0  0  0  0  0  0  0  0  0
   31.2270   34.3210   37.2140 C   0  0  0  0  0  0  0  0  0  0  0  0
   30.2190   34.1760   36.8470 H   0  0  0  0  0  0  0  0  0  0  0  0
   32.2710   33.5020   36.7630 C   0  0  0  0  0  0  0  0  0  0  0  0
   32.0230   32.4900   35.8370 N   0  0  0  0  0  0  0  0  0  0  0  0
   31.0230   32.3840   35.5070 H   0  0  0  0  0  0  0  0  0  0  0  0
   37.4120   27.2330   33.8570 C   0  0  0  0  0  0  0  0  0  0  0  0
   37.6600   27.1650   32.4980 C   0  0  0  0  0  0  0  0  0  0  0  0
   36.8680   28.0470   31.7210 C   0  0  0  0  0  0  0  0  0  0  0  0
   35.9470   28.8780   32.3170 N   0  0  0  0  0  0  0  0  0  0  0  0
   35.7640   28.8860   33.6520 C   0  0  0  0  0  0  0  0  0  0  0  0
   36.5030   28.0540   34.4400 N   0  0  0  0  0  0  0  0  0  0  0  0
   38.3750   26.5150   32.0600 H   0  0  0  0  0  0  0  0  0  0  0  0
   36.9890   28.0650   30.6640 H   0  0  0  0  0  0  0  0  0  0  0  0
   38.2630   26.3440   34.7080 C   0  0  1  0  0  0  0  0  0  0  0  0
   39.7070   26.5460   34.8380 C   0  0  2  0  0  0  0  0  0  0  0  0
   38.8360   27.0870   35.9310 C   0  0  0  0  0  0  0  0  0  0  0  0
   37.7270   25.4030   35.0180 H   0  0  0  0  0  0  0  0  0  0  0  0
   40.2560   25.5630   34.9620 H   0  0  0  0  0  0  0  0  0  0  0  0
   38.8810   26.5420   36.8900 H   0  0  0  0  0  0  0  0  0  0  0  0
   38.7320   28.1840   35.9820 H   0  0  0  0  0  0  0  0  0  0  0  0
   40.3010   27.4290   33.9480 O   0  0  0  0  0  0  0  0  0  0  0  0
   41.4890   27.3430   33.2980 C   0  0  0  0  0  0  0  0  0  0  0  0
   42.5730   27.2150   33.9050 O   0  0  0  0  0  0  0  0  0  0  0  0
   41.2430   27.4260   31.9270 N   0  0  0  0  0  0  0  0  0  0  0  0
   41.3720   26.6690   31.2130 H   0  0  0  0  0  0  0  0  0  0  0  0
   40.8920   28.2220   31.3200 H   0  0  0  0  0  0  0  0  0  0  0  0
  1  8  1  0  0  0  0
  2  1  2  0  0  0  0
  2  4  1  0  0  0  0
  3  2  1  0  0  0  0
  4  6  2  0  0  0  0
  5  4  1  0  0  0  0
  6  7  1  0  0  0  0
  6 21  1  0  0  0  0
  7 10  1  0  0  0  0
  8  9  1  0  0  0  0
  8  7  2  0  0  0  0
 10 11  1  0  0  0  0
 11 12  1  0  0  0  0
 12 13  1  0  0  0  0
 12 14  2  0  0  0  0
 14 15  1  0  0  0  0
 16 17  1  0  0  0  0
 16 14  1  0  0  0  0
 18 16  2  0  0  0  0
 19 18  1  0  0  0  0
 20 18  1  0  0  0  0
 20 11  2  0  0  0  0
 21 20  1  0  0  0  0
 22 21  1  0  0  0  0
 23 28  1  0  0  0  0
 23 31  1  0  0  0  0
 24 23  2  0  0  0  0
 25 26  2  0  0  0  0
 25 24  1  0  0  0  0
 26 27  1  0  0  0  0
 27  1  1  0  0  0  0
 27 28  2  0  0  0  0
 29 24  1  0  0  0  0
 30 25  1  0  0  0  0
 31 32  1  0  0  0  0
 31 34  1  1  0  0  0
 31 33  1  0  0  0  0
 32 35  1  1  0  0  0
 32 33  1  0  0  0  0
 33 37  1  0  0  0  0
 33 36  1  0  0  0  0
 38 32  1  0  0  0  0
 39 40  2  0  0  0  0
 39 38  1  0  0  0  0
 41 39  1  0  0  0  0
 42 41  1  0  0  0  0
 43 41  1  0  0  0  0
M  END
>  <minimizedAffinity>
-5.82602215

$$$$

 OpenBabel03272507213D

 43 47  0  0  1  0  0  0  0  0999 V2000
   38.0080   27.5230   32.1110 C   0  0  0  0  0  0  0  0  0  0  0  0
   36.9970   27.9770   32.9390 C   0  0  0  0  0  0  0  0  0  0  0  0
   36.3190   28.7640   32.6260 H   0  0  0  0  0  0  0  0  0  0  0  0
   36.8620   27.4040   34.1910 C   0  0  0  0  0  0  0  0  0  0  0  0
   36.0900   27.7150   34.8880 H   0  0  0  0  0  0  0  0  0  0  0  0
   37.7200   26.3970   34.6090 C   0  0  0  0  0  0  0  0  0  0  0  0
   38.7200   25.9810   33.7280 C   0  0  0  0  0  0  0  0  0  0  0  0
   38.8990   26.5230   32.4620 C   0  0  0  0  0  0  0  0  0  0  0  0
   39.6860   26.1740   31.8080 H   0  0  0  0  0  0  0  0  0  0  0  0
   39.8600   24.6910   34.1980 S   0  0  0  0  0  0  0  0  0  0  0  0
   39.4130   24.1780   35.8490 C   0  0  0  0  0  0  0  0  0  0  0  0
   40.1860   23.1750   36.3990 C   0  0  0  0  0  0  0  0  0  0  0  0
   41.0090   22.7290   35.8630 H   0  0  0  0  0  0  0  0  0  0  0  0
   39.8930   22.7330   37.6710 C   0  0  0  0  0  0  0  0  0  0  0  0
   40.4970   21.9610   38.0790 H   0  0  0  0  0  0  0  0  0  0  0  0
   38.8300   23.3380   38.3150 C   0  0  0  0  0  0  0  0  0  0  0  0
   38.6440   22.9450   39.3240 H   0  0  0  0  0  0  0  0  0  0  0  0
   38.0640   24.3390   37.7550 C   0  0  0  0  0  0  0  0  0  0  0  0
   37.2450   24.7650   38.3230 H   0  0  0  0  0  0  0  0  0  0  0  0
   38.3470   24.8010   36.4640 C   0  0  0  0  0  0  0  0  0  0  0  0
   37.5770   25.8140   35.8920 N   0  0  0  0  0  0  0  0  0  0  0  0
   36.7880   26.1990   36.4820 H   0  0  0  0  0  0  0  0  0  0  0  0
   39.4070   28.3760   28.7850 C   0  0  0  0  0  0  0  0  0  0  0  0
   38.4750   29.2290   28.2230 C   0  0  0  0  0  0  0  0  0  0  0  0
   37.3530   29.4860   29.0500 C   0  0  0  0  0  0  0  0  0  0  0  0
   37.2500   28.9110   30.2960 N   0  0  0  0  0  0  0  0  0  0  0  0
   38.2030   28.0880   30.7750 C   0  0  0  0  0  0  0  0  0  0  0  0
   39.3000   27.8120   30.0140 N   0  0  0  0  0  0  0  0  0  0  0  0
   38.5750   29.6600   27.2590 H   0  0  0  0  0  0  0  0  0  0  0  0
   36.5830   30.1320   28.7010 H   0  0  0  0  0  0  0  0  0  0  0  0
   40.6230   28.1200   27.9530 C   0  0  1  0  0  0  0  0  0  0  0  0
   40.7490   26.9310   27.1080 C   0  0  2  0  0  0  0  0  0  0  0  0
   40.3210   28.2030   26.4430 C   0  0  0  0  0  0  0  0  0  0  0  0
   41.4860   28.7890   28.2320 H   0  0  0  0  0  0  0  0  0  0  0  0
   41.8220   26.5730   27.0480 H   0  0  0  0  0  0  0  0  0  0  0  0
   41.0750   28.6780   25.7920 H   0  0  0  0  0  0  0  0  0  0  0  0
   39.2680   28.2590   26.1150 H   0  0  0  0  0  0  0  0  0  0  0  0
   39.8160   25.9210   27.3000 O   0  0  0  0  0  0  0  0  0  0  0  0
   39.9210   24.7570   27.9890 C   0  0  0  0  0  0  0  0  0  0  0  0
   40.7150   23.8540   27.6520 O   0  0  0  0  0  0  0  0  0  0  0  0
   39.0220   24.7970   29.0550 N   0  0  0  0  0  0  0  0  0  0  0  0
   39.2520   24.8360   30.0770 H   0  0  0  0  0  0  0  0  0  0  0  0
   37.9610   24.7970   29.0840 H   0  0  0  0  0  0  0  0  0  0  0  0
  1  8  2  0  0  0  0
  1  2  1  0  0  0  0
  2  4  2  0  0  0  0
  3  2  1  0  0  0  0
  4  6  1  0  0  0  0
  4  5  1  0  0  0  0
  6 21  1  0  0  0  0
  7 10  1  0  0  0  0
  7  6  2  0  0  0  0
  8  7  1  0  0  0  0
  9  8  1  0  0  0  0
 10 11  1  0  0  0  0
 11 12  2  0  0  0  0
 11 20  1  0  0  0  0
 12 14  1  0  0  0  0
 13 12  1  0  0  0  0
 14 15  1  0  0  0  0
 14 16  2  0  0  0  0
 16 17  1  0  0  0  0
 18 16  1  0  0  0  0
 18 19  1  0  0  0  0
 20 18  2  0  0  0  0
 21 20  1  0  0  0  0
 21 22  1  0  0  0  0
 23 28  1  0  0  0  0
 24 23  2  0  0  0  0
 24 25  1  0  0  0  0
 25 26  2  0  0  0  0
 26 27  1  0  0  0  0
 27  1  1  0  0  0  0
 28 27  2  0  0  0  0
 29 24  1  0  0  0  0
 30 25  1  0  0  0  0
 31 34  1  1  0  0  0
 31 23  1  0  0  0  0
 32 35  1  6  0  0  0
 32 38  1  0  0  0  0
 32 31  1  0  0  0  0
 33 32  1  0  0  0  0
 33 31  1  0  0  0  0
 36 33  1  0  0  0  0
 37 33  1  0  0  0  0
 38 39  1  0  0  0  0
 39 41  1  0  0  0  0
 40 39  2  0  0  0  0
 41 43  1  0  0  0  0
 41 42  1  0  0  0  0
M  END
>  <minimizedAffinity>
-5.78966045

$$$$

 OpenBabel03272507213D

 43 47  0  0  1  0  0  0  0  0999 V2000
   36.1290   28.6350   34.0870 C   0  0  0  0  0  0  0  0  0  0  0  0
   36.0560   28.4830   32.7140 C   0  0  0  0  0  0  0  0  0  0  0  0
   35.4900   29.1740   32.0980 H   0  0  0  0  0  0  0  0  0  0  0  0
   36.7260   27.4230   32.1300 C   0  0  0  0  0  0  0  0  0  0  0  0
   36.7090   27.2490   31.0590 H   0  0  0  0  0  0  0  0  0  0  0  0
   37.4550   26.5310   32.9020 C   0  0  0  0  0  0  0  0  0  0  0  0
   37.4910   26.7360   34.2830 C   0  0  0  0  0  0  0  0  0  0  0  0
   36.8370   27.7820   34.9180 C   0  0  0  0  0  0  0  0  0  0  0  0
   36.8890   27.9090   35.9910 H   0  0  0  0  0  0  0  0  0  0  0  0
   38.4090   25.6270   35.3380 S   0  0  0  0  0  0  0  0  0  0  0  0
   39.1430   24.3890   34.2800 C   0  0  0  0  0  0  0  0  0  0  0  0
   39.9020   23.4270   34.9140 C   0  0  0  0  0  0  0  0  0  0  0  0
   40.0430   23.4240   35.9840 H   0  0  0  0  0  0  0  0  0  0  0  0
   40.4960   22.4430   34.1540 C   0  0  0  0  0  0  0  0  0  0  0  0
   41.0770   21.7100   34.6570 H   0  0  0  0  0  0  0  0  0  0  0  0
   40.2820   22.4910   32.7890 C   0  0  0  0  0  0  0  0  0  0  0  0
   40.7800   21.6820   32.2360 H   0  0  0  0  0  0  0  0  0  0  0  0
   39.5210   23.4580   32.1660 C   0  0  0  0  0  0  0  0  0  0  0  0
   39.4000   23.4300   31.0900 H   0  0  0  0  0  0  0  0  0  0  0  0
   38.9100   24.4660   32.9220 C   0  0  0  0  0  0  0  0  0  0  0  0
   38.1390   25.4460   32.2980 N   0  0  0  0  0  0  0  0  0  0  0  0
   38.0490   25.3790   31.2470 H   0  0  0  0  0  0  0  0  0  0  0  0
   33.5240   30.8980   35.4420 C   0  0  0  0  0  0  0  0  0  0  0  0
   34.2300   31.8900   36.0980 C   0  0  0  0  0  0  0  0  0  0  0  0
   35.6380   31.7310   36.0430 C   0  0  0  0  0  0  0  0  0  0  0  0
   36.2010   30.6630   35.3810 N   0  0  0  0  0  0  0  0  0  0  0  0
   35.4430   29.7350   34.7650 C   0  0  0  0  0  0  0  0  0  0  0  0
   34.0840   29.8480   34.7920 N   0  0  0  0  0  0  0  0  0  0  0  0
   33.7740   32.7040   36.6020 H   0  0  0  0  0  0  0  0  0  0  0  0
   36.2640   32.4470   36.5200 H   0  0  0  0  0  0  0  0  0  0  0  0
   32.0370   31.0620   35.4470 C   0  0  1  0  0  0  0  0  0  0  0  0
   31.1670   30.2340   36.2830 C   0  0  2  0  0  0  0  0  0  0  0  0
   31.5170   31.5970   36.7960 C   0  0  0  0  0  0  0  0  0  0  0  0
   31.6710   31.6960   34.5900 H   0  0  0  0  0  0  0  0  0  0  0  0
   30.1710   30.0360   35.7810 H   0  0  0  0  0  0  0  0  0  0  0  0
   30.6990   32.3380   36.7760 H   0  0  0  0  0  0  0  0  0  0  0  0
   32.2110   31.6400   37.6530 H   0  0  0  0  0  0  0  0  0  0  0  0
   31.7430   29.1200   36.8780 O   0  0  0  0  0  0  0  0  0  0  0  0
   31.2300   28.2600   37.7930 C   0  0  0  0  0  0  0  0  0  0  0  0
   30.4110   27.3680   37.4850 O   0  0  0  0  0  0  0  0  0  0  0  0
   31.7740   28.5730   39.0390 N   0  0  0  0  0  0  0  0  0  0  0  0
   32.4350   27.9910   39.6080 H   0  0  0  0  0  0  0  0  0  0  0  0
   31.6550   29.4200   39.6680 H   0  0  0  0  0  0  0  0  0  0  0  0
  1 27  1  0  0  0  0
  1  8  1  0  0  0  0
  2  1  2  0  0  0  0
  3  2  1  0  0  0  0
  4  2  1  0  0  0  0
  4  6  2  0  0  0  0
  5  4  1  0  0  0  0
  6  7  1  0  0  0  0
  7  8  2  0  0  0  0
  7 10  1  0  0  0  0
  8  9  1  0  0  0  0
 11 12  1  0  0  0  0
 11 10  1  0  0  0  0
 12 13  1  0  0  0  0
 14 15  1  0  0  0  0
 14 12  2  0  0  0  0
 16 14  1  0  0  0  0
 17 16  1  0  0  0  0
 18 16  2  0  0  0  0
 18 20  1  0  0  0  0
 19 18  1  0  0  0  0
 20 11  2  0  0  0  0
 21  6  1  0  0  0  0
 21 20  1  0  0  0  0
 22 21  1  0  0  0  0
 23 31  1  0  0  0  0
 23 24  1  0  0  0  0
 24 29  1  0  0  0  0
 25 24  2  0  0  0  0
 25 30  1  0  0  0  0
 26 25  1  0  0  0  0
 27 28  1  0  0  0  0
 27 26  2  0  0  0  0
 28 23  2  0  0  0  0
 31 34  1  6  0  0  0
 31 32  1  0  0  0  0
 31 33  1  0  0  0  0
 32 35  1  6  0  0  0
 32 33  1  0  0  0  0
 32 38  1  0  0  0  0
 33 37  1  0  0  0  0
 36 33  1  0  0  0  0
 38 39  1  0  0  0  0
 39 41  1  0  0  0  0
 40 39  2  0  0  0  0
 41 42  1  0  0  0  0
 41 43  1  0  0  0  0
M  END
>  <minimizedAffinity>
-5.73104525

$$$$

 OpenBabel03272507213D

 43 47  0  0  1  0  0  0  0  0999 V2000
   36.7110   28.3870   32.4240 C   0  0  0  0  0  0  0  0  0  0  0  0
   37.4740   27.9190   31.3690 C   0  0  0  0  0  0  0  0  0  0  0  0
   37.4330   28.3860   30.3910 H   0  0  0  0  0  0  0  0  0  0  0  0
   38.3020   26.8320   31.5840 C   0  0  0  0  0  0  0  0  0  0  0  0
   38.9260   26.4170   30.7980 H   0  0  0  0  0  0  0  0  0  0  0  0
   38.3670   26.2230   32.8280 C   0  0  0  0  0  0  0  0  0  0  0  0
   37.5730   26.7400   33.8540 C   0  0  0  0  0  0  0  0  0  0  0  0
   36.7260   27.8270   33.6910 C   0  0  0  0  0  0  0  0  0  0  0  0
   36.1260   28.2000   34.5100 H   0  0  0  0  0  0  0  0  0  0  0  0
   37.6060   26.0060   35.4800 S   0  0  0  0  0  0  0  0  0  0  0  0
   38.7610   24.6460   35.4150 C   0  0  0  0  0  0  0  0  0  0  0  0
   38.9300   23.9410   36.5890 C   0  0  0  0  0  0  0  0  0  0  0  0
   38.3960   24.1970   37.4920 H   0  0  0  0  0  0  0  0  0  0  0  0
   39.8080   22.8790   36.6050 C   0  0  0  0  0  0  0  0  0  0  0  0
   39.9260   22.3470   37.5170 H   0  0  0  0  0  0  0  0  0  0  0  0
   40.4650   22.5910   35.4240 C   0  0  0  0  0  0  0  0  0  0  0  0
   41.1500   21.7350   35.4980 H   0  0  0  0  0  0  0  0  0  0  0  0
   40.2890   23.3030   34.2560 C   0  0  0  0  0  0  0  0  0  0  0  0
   40.8400   23.0170   33.3680 H   0  0  0  0  0  0  0  0  0  0  0  0
   39.4000   24.3850   34.2200 C   0  0  0  0  0  0  0  0  0  0  0  0
   39.2170   25.1090   33.0420 N   0  0  0  0  0  0  0  0  0  0  0  0
   39.7770   24.7950   32.2020 H   0  0  0  0  0  0  0  0  0  0  0  0
   34.0110   30.8810   32.9090 C   0  0  0  0  0  0  0  0  0  0  0  0
   34.1570   31.7620   31.8520 C   0  0  0  0  0  0  0  0  0  0  0  0
   35.2270   31.4460   30.9780 C   0  0  0  0  0  0  0  0  0  0  0  0
   36.0220   30.3460   31.2070 N   0  0  0  0  0  0  0  0  0  0  0  0
   35.8160   29.5330   32.2610 C   0  0  0  0  0  0  0  0  0  0  0  0
   34.7980   29.7980   33.1290 N   0  0  0  0  0  0  0  0  0  0  0  0
   33.5320   32.6050   31.6960 H   0  0  0  0  0  0  0  0  0  0  0  0
   35.4160   32.0680   30.1360 H   0  0  0  0  0  0  0  0  0  0  0  0
   32.8630   31.1650   33.8240 C   0  0  1  0  0  0  0  0  0  0  0  0
   33.0450   31.3320   35.2670 C   0  0  2  0  0  0  0  0  0  0  0  0
   32.9470   32.5760   34.4390 C   0  0  0  0  0  0  0  0  0  0  0  0
   31.8650   30.9960   33.3300 H   0  0  0  0  0  0  0  0  0  0  0  0
   32.1520   30.9460   35.8480 H   0  0  0  0  0  0  0  0  0  0  0  0
   32.0090   33.1490   34.5460 H   0  0  0  0  0  0  0  0  0  0  0  0
   33.8760   33.1580   34.3090 H   0  0  0  0  0  0  0  0  0  0  0  0
   34.2760   30.9650   35.7930 O   0  0  0  0  0  0  0  0  0  0  0  0
   35.2640   31.7340   36.3140 C   0  0  0  0  0  0  0  0  0  0  0  0
   36.3400   31.9350   35.7130 O   0  0  0  0  0  0  0  0  0  0  0  0
   34.8430   32.2010   37.5600 N   0  0  0  0  0  0  0  0  0  0  0  0
   34.6230   33.1910   37.8250 H   0  0  0  0  0  0  0  0  0  0  0  0
   34.6580   31.6980   38.4760 H   0  0  0  0  0  0  0  0  0  0  0  0
  1  8  1  0  0  0  0
  2  4  1  0  0  0  0
  2  1  2  0  0  0  0
  3  2  1  0  0  0  0
  4  6  2  0  0  0  0
  5  4  1  0  0  0  0
  6 21  1  0  0  0  0
  6  7  1  0  0  0  0
  7 10  1  0  0  0  0
  8  7  2  0  0  0  0
  8  9  1  0  0  0  0
 11 10  1  0  0  0  0
 11 12  1  0  0  0  0
 12 14  2  0  0  0  0
 12 13  1  0  0  0  0
 14 15  1  0  0  0  0
 16 17  1  0  0  0  0
 16 14  1  0  0  0  0
 18 16  2  0  0  0  0
 19 18  1  0  0  0  0
 20 18  1  0  0  0  0
 20 11  2  0  0  0  0
 21 20  1  0  0  0  0
 22 21  1  0  0  0  0
 23 28  1  0  0  0  0
 23 31  1  0  0  0  0
 24 23  2  0  0  0  0
 25 26  2  0  0  0  0
 25 24  1  0  0  0  0
 26 27  1  0  0  0  0
 27  1  1  0  0  0  0
 27 28  2  0  0  0  0
 29 24  1  0  0  0  0
 30 25  1  0  0  0  0
 31 34  1  6  0  0  0
 31 33  1  0  0  0  0
 31 32  1  0  0  0  0
 32 38  1  0  0  0  0
 32 35  1  1  0  0  0
 33 36  1  0  0  0  0
 33 32  1  0  0  0  0
 37 33  1  0  0  0  0
 38 39  1  0  0  0  0
 39 41  1  0  0  0  0
 40 39  2  0  0  0  0
 41 42  1  0  0  0  0
 41 43  1  0  0  0  0
M  END
>  <minimizedAffinity>
-5.64735413

$$$$
