REMARK  Name = 
REMARK  4 active torsions:
REMARK  status: ('A' for Active; 'I' for Inactive)
REMARK    1  A    between atoms: C_1  and  C_4
REMARK    2  A    between atoms: C_2  and  O_10
REMARK    3  A    between atoms: C_8  and  C_22
REMARK    4  A    between atoms: O_10  and  C_11
REMARK                            x       y       z     vdW  Elec       q    Type
REMARK                         _______ _______ _______ _____ _____    ______ ____
ROOT
ATOM      1  C   UNL     1      36.871  30.625  45.767  0.00  0.00    +0.000 A 
ATOM      2  C   UNL     1      36.127  29.461  45.685  0.00  0.00    +0.000 A 
ATOM      3  H   UNL     1      35.867  28.891  46.571  0.00  0.00    +0.000 HD
ATOM      4  C   UNL     1      35.712  29.029  44.437  0.00  0.00    +0.000 A 
ATOM      5  H   UNL     1      35.126  28.126  44.304  0.00  0.00    +0.000 HD
ATOM      6  C   UNL     1      36.035  29.745  43.294  0.00  0.00    +0.000 A 
ATOM      7  C   UNL     1      36.788  30.911  43.442  0.00  0.00    +0.000 A 
ATOM      8  C   UNL     1      37.228  31.388  44.669  0.00  0.00    +0.000 A 
ATOM      9  H   UNL     1      37.811  32.297  44.743  0.00  0.00    +0.000 HD
ATOM     10  S   UNL     1      37.239  31.883  42.014  0.00  0.00    +0.000 S 
ATOM     11  C   UNL     1      36.556  31.058  40.585  0.00  0.00    +0.000 A 
ATOM     12  C   UNL     1      36.799  31.660  39.368  0.00  0.00    +0.000 A 
ATOM     13  H   UNL     1      37.367  32.575  39.285  0.00  0.00    +0.000 HD
ATOM     14  C   UNL     1      36.298  31.074  38.225  0.00  0.00    +0.000 A 
ATOM     15  H   UNL     1      36.494  31.550  37.297  0.00  0.00    +0.000 HD
ATOM     16  C   UNL     1      35.578  29.905  38.385  0.00  0.00    +0.000 A 
ATOM     17  H   UNL     1      35.206  29.484  37.442  0.00  0.00    +0.000 HD
ATOM     18  C   UNL     1      35.342  29.311  39.608  0.00  0.00    +0.000 A 
ATOM     19  H   UNL     1      34.768  28.394  39.654  0.00  0.00    +0.000 HD
ATOM     20  C   UNL     1      35.843  29.893  40.779  0.00  0.00    +0.000 A 
ATOM     21  N   UNL     1      35.607  29.298  42.019  0.00  0.00    +0.000 N 
ATOM     22  H   UNL     1      35.043  28.405  42.015  0.00  0.00    +0.000 HD
ENDROOT
BRANCH   1  27
ATOM     23  C   UNL     1      37.327  31.212  49.399  0.00  0.00    +0.000 A 
ATOM     24  C   UNL     1      38.312  32.181  49.475  0.00  0.00    +0.000 A 
ATOM     25  C   UNL     1      38.799  32.610  48.215  0.00  0.00    +0.000 A 
ATOM     26  N   UNL     1      38.301  32.077  47.048  0.00  0.00    +0.000 NA
ATOM     27  C   UNL     1      37.339  31.134  47.057  0.00  0.00    +0.000 A 
ATOM     28  N   UNL     1      36.840  30.690  48.246  0.00  0.00    +0.000 NA
ATOM     29  H   UNL     1      38.681  32.577  50.387  0.00  0.00    +0.000 HD
ATOM     30  H   UNL     1      39.559  33.354  48.174  0.00  0.00    +0.000 HD
BRANCH  23  31
ATOM     31  C   UNL     1      36.763  30.770  50.712  0.00  0.00    +0.000 C 
ATOM     32  C   UNL     1      36.029  29.512  50.857  0.00  0.00    +0.000 C 
ATOM     33  C   UNL     1      37.473  29.514  51.255  0.00  0.00    +0.000 C 
ATOM     34  H   UNL     1      36.756  31.596  51.478  0.00  0.00    +0.000 HD
ATOM     35  H   UNL     1      35.209  29.594  51.634  0.00  0.00    +0.000 HD
ATOM     36  H   UNL     1      37.669  29.461  52.340  0.00  0.00    +0.000 HD
ATOM     37  H   UNL     1      38.169  28.970  50.593  0.00  0.00    +0.000 HD
BRANCH  32  38
ATOM     38  O   UNL     1      35.651  28.866  49.688  0.00  0.00    +0.000 OA
BRANCH  38  39
ATOM     39  C   UNL     1      34.437  28.397  49.306  0.00  0.00    +0.000 C 
ATOM     40  O   UNL     1      34.311  27.397  48.568  0.00  0.00    +0.000 OA
ATOM     41  N   UNL     1      33.456  29.213  49.870  0.00  0.00    +0.000 N 
ATOM     42  H   UNL     1      32.762  28.951  50.611  0.00  0.00    +0.000 HD
ATOM     43  H   UNL     1      33.195  30.227  49.695  0.00  0.00    +0.000 HD
ENDBRANCH  38  39
ENDBRANCH  32  38
ENDBRANCH  23  31
ENDBRANCH   1  27
TORSDOF 4
