
 OpenBabel03272507183D

 43 47  0  0  1  0  0  0  0  0999 V2000
   37.5810   31.4700   45.6930 C   0  0  0  0  0  0  0  0  0  0  0  0
   36.7270   30.4350   45.3560 C   0  0  0  0  0  0  0  0  0  0  0  0
   36.2190   29.8500   46.1160 H   0  0  0  0  0  0  0  0  0  0  0  0
   36.5270   30.1510   44.0160 C   0  0  0  0  0  0  0  0  0  0  0  0
   35.8720   29.3530   43.6870 H   0  0  0  0  0  0  0  0  0  0  0  0
   37.1690   30.8880   43.0320 C   0  0  0  0  0  0  0  0  0  0  0  0
   38.0180   31.9200   43.4330 C   0  0  0  0  0  0  0  0  0  0  0  0
   38.2520   32.2440   44.7630 C   0  0  0  0  0  0  0  0  0  0  0  0
   38.9180   33.0530   45.0350 H   0  0  0  0  0  0  0  0  0  0  0  0
   38.8760   32.9090   42.2200 S   0  0  0  0  0  0  0  0  0  0  0  0
   38.4040   32.2880   40.6130 C   0  0  0  0  0  0  0  0  0  0  0  0
   38.9680   32.9290   39.5290 C   0  0  0  0  0  0  0  0  0  0  0  0
   39.6530   33.7550   39.6470 H   0  0  0  0  0  0  0  0  0  0  0  0
   38.6450   32.4980   38.2620 C   0  0  0  0  0  0  0  0  0  0  0  0
   39.0870   33.0010   37.4390 H   0  0  0  0  0  0  0  0  0  0  0  0
   37.7630   31.4380   38.1660 C   0  0  0  0  0  0  0  0  0  0  0  0
   37.5430   31.1380   37.1330 H   0  0  0  0  0  0  0  0  0  0  0  0
   37.2050   30.8040   39.2580 C   0  0  0  0  0  0  0  0  0  0  0  0
   36.5210   29.9780   39.1040 H   0  0  0  0  0  0  0  0  0  0  0  0
   37.5230   31.2290   40.5530 C   0  0  0  0  0  0  0  0  0  0  0  0
   36.9620   30.5930   41.6610 N   0  0  0  0  0  0  0  0  0  0  0  0
   36.3010   29.7930   41.4630 H   0  0  0  0  0  0  0  0  0  0  0  0
   37.4720   31.5970   49.3960 C   0  0  0  0  0  0  0  0  0  0  0  0
   38.3960   32.5680   49.7390 C   0  0  0  0  0  0  0  0  0  0  0  0
   39.0470   33.1640   48.6300 C   0  0  0  0  0  0  0  0  0  0  0  0
   38.7480   32.7750   47.3450 N   0  0  0  0  0  0  0  0  0  0  0  0
   37.8330   31.8190   47.0910 C   0  0  0  0  0  0  0  0  0  0  0  0
   37.1820   31.2170   48.1270 N   0  0  0  0  0  0  0  0  0  0  0  0
   38.6110   32.8510   50.7390 H   0  0  0  0  0  0  0  0  0  0  0  0
   39.7750   33.9230   48.7970 H   0  0  0  0  0  0  0  0  0  0  0  0
   36.7380   30.9790   50.5440 C   0  0  1  0  0  0  0  0  0  0  0  0
   36.0470   29.6950   50.4210 C   0  0  2  0  0  0  0  0  0  0  0  0
   37.4130   29.6830   51.0340 C   0  0  0  0  0  0  0  0  0  0  0  0
   36.5810   31.7020   51.3940 H   0  0  0  0  0  0  0  0  0  0  0  0
   35.1170   29.6580   51.0670 H   0  0  0  0  0  0  0  0  0  0  0  0
   37.4470   29.4980   52.1210 H   0  0  0  0  0  0  0  0  0  0  0  0
   38.2240   29.2440   50.4250 H   0  0  0  0  0  0  0  0  0  0  0  0
   35.8760   29.1920   49.1390 O   0  0  0  0  0  0  0  0  0  0  0  0
   34.7370   28.9120   48.4580 C   0  0  0  0  0  0  0  0  0  0  0  0
   34.3780   27.7410   48.2120 O   0  0  0  0  0  0  0  0  0  0  0  0
   34.1190   30.1180   48.1250 N   0  0  0  0  0  0  0  0  0  0  0  0
   33.2090   30.4880   48.4920 H   0  0  0  0  0  0  0  0  0  0  0  0
   34.4040   30.8980   47.4630 H   0  0  0  0  0  0  0  0  0  0  0  0
  1 27  1  0  0  0  0
  2  1  1  0  0  0  0
  2  3  1  0  0  0  0
  4  2  2  0  0  0  0
  5  4  1  0  0  0  0
  6  7  2  0  0  0  0
  6  4  1  0  0  0  0
  7  8  1  0  0  0  0
  8  9  1  0  0  0  0
  8  1  2  0  0  0  0
 10  7  1  0  0  0  0
 11 10  1  0  0  0  0
 12 13  1  0  0  0  0
 12 11  2  0  0  0  0
 14 12  1  0  0  0  0
 15 14  1  0  0  0  0
 16 14  2  0  0  0  0
 16 18  1  0  0  0  0
 17 16  1  0  0  0  0
 18 20  2  0  0  0  0
 19 18  1  0  0  0  0
 20 11  1  0  0  0  0
 20 21  1  0  0  0  0
 21  6  1  0  0  0  0
 22 21  1  0  0  0  0
 23 24  1  0  0  0  0
 23 31  1  0  0  0  0
 24 29  1  0  0  0  0
 25 30  1  0  0  0  0
 25 24  2  0  0  0  0
 26 25  1  0  0  0  0
 27 26  2  0  0  0  0
 27 28  1  0  0  0  0
 28 23  2  0  0  0  0
 31 33  1  0  0  0  0
 31 34  1  1  0  0  0
 32 31  1  0  0  0  0
 32 33  1  0  0  0  0
 32 35  1  1  0  0  0
 33 36  1  0  0  0  0
 37 33  1  0  0  0  0
 38 32  1  0  0  0  0
 39 38  1  0  0  0  0
 40 39  2  0  0  0  0
 41 39  1  0  0  0  0
 41 42  1  0  0  0  0
 43 41  1  0  0  0  0
M  END
>  <minimizedAffinity>
-6.03397512

>  <minimizedRMSD>
2.30638838

$$$$
