
 OpenBabel03272507183D

 43 47  0  0  1  0  0  0  0  0999 V2000
   37.5650   30.6940   45.8320 C   0  0  0  0  0  0  0  0  0  0  0  0
   36.2880   30.3780   45.4010 C   0  0  0  0  0  0  0  0  0  0  0  0
   35.4190   30.5590   46.0250 H   0  0  0  0  0  0  0  0  0  0  0  0
   36.1350   29.8200   44.1440 C   0  0  0  0  0  0  0  0  0  0  0  0
   35.1620   29.5500   43.7470 H   0  0  0  0  0  0  0  0  0  0  0  0
   37.2340   29.5820   43.3340 C   0  0  0  0  0  0  0  0  0  0  0  0
   38.4960   29.9220   43.8240 C   0  0  0  0  0  0  0  0  0  0  0  0
   38.7050   30.4830   45.0760 C   0  0  0  0  0  0  0  0  0  0  0  0
   39.7000   30.7340   45.4220 H   0  0  0  0  0  0  0  0  0  0  0  0
   39.9560   29.6430   42.8350 S   0  0  0  0  0  0  0  0  0  0  0  0
   39.4120   28.9220   41.2950 C   0  0  0  0  0  0  0  0  0  0  0  0
   40.4050   28.6290   40.3830 C   0  0  0  0  0  0  0  0  0  0  0  0
   41.4460   28.8230   40.5880 H   0  0  0  0  0  0  0  0  0  0  0  0
   40.0510   28.0710   39.1730 C   0  0  0  0  0  0  0  0  0  0  0  0
   40.8260   27.8510   38.4830 H   0  0  0  0  0  0  0  0  0  0  0  0
   38.7050   27.8410   38.9590 C   0  0  0  0  0  0  0  0  0  0  0  0
   38.4840   27.3960   37.9800 H   0  0  0  0  0  0  0  0  0  0  0  0
   37.7200   28.1390   39.8790 C   0  0  0  0  0  0  0  0  0  0  0  0
   36.6850   27.9300   39.6390 H   0  0  0  0  0  0  0  0  0  0  0  0
   38.0620   28.7060   41.1120 C   0  0  0  0  0  0  0  0  0  0  0  0
   37.0720   29.0090   42.0470 N   0  0  0  0  0  0  0  0  0  0  0  0
   36.0760   28.7890   41.7700 H   0  0  0  0  0  0  0  0  0  0  0  0
   37.4930   31.3920   49.4720 C   0  0  0  0  0  0  0  0  0  0  0  0
   38.3010   32.5040   49.6310 C   0  0  0  0  0  0  0  0  0  0  0  0
   38.8620   32.9880   48.4220 C   0  0  0  0  0  0  0  0  0  0  0  0
   38.5930   32.3680   47.2230 N   0  0  0  0  0  0  0  0  0  0  0  0
   37.7930   31.2870   47.1510 C   0  0  0  0  0  0  0  0  0  0  0  0
   37.2320   30.7850   48.2880 N   0  0  0  0  0  0  0  0  0  0  0  0
   38.4940   32.9650   50.5660 H   0  0  0  0  0  0  0  0  0  0  0  0
   39.4980   33.8410   48.4450 H   0  0  0  0  0  0  0  0  0  0  0  0
   36.8520   30.8840   50.7250 C   0  0  1  0  0  0  0  0  0  0  0  0
   36.0830   29.6390   50.7530 C   0  0  2  0  0  0  0  0  0  0  0  0
   37.5040   29.5780   51.2220 C   0  0  0  0  0  0  0  0  0  0  0  0
   36.8250   31.6610   51.5410 H   0  0  0  0  0  0  0  0  0  0  0  0
   35.2260   29.6940   51.4920 H   0  0  0  0  0  0  0  0  0  0  0  0
   37.6430   29.4530   52.3090 H   0  0  0  0  0  0  0  0  0  0  0  0
   38.2200   29.0580   50.5620 H   0  0  0  0  0  0  0  0  0  0  0  0
   35.7500   29.0780   49.5280 O   0  0  0  0  0  0  0  0  0  0  0  0
   34.5600   28.6030   49.0830 C   0  0  0  0  0  0  0  0  0  0  0  0
   34.4820   27.7380   48.1850 O   0  0  0  0  0  0  0  0  0  0  0  0
   33.5420   29.2440   49.7880 N   0  0  0  0  0  0  0  0  0  0  0  0
   32.8810   28.8140   50.4800 H   0  0  0  0  0  0  0  0  0  0  0  0
   33.2140   30.2540   49.7930 H   0  0  0  0  0  0  0  0  0  0  0  0
  1 27  1  0  0  0  0
  2  1  1  0  0  0  0
  2  3  1  0  0  0  0
  4  2  2  0  0  0  0
  5  4  1  0  0  0  0
  6  7  2  0  0  0  0
  6  4  1  0  0  0  0
  7  8  1  0  0  0  0
  8  9  1  0  0  0  0
  8  1  2  0  0  0  0
 10  7  1  0  0  0  0
 11 10  1  0  0  0  0
 12 13  1  0  0  0  0
 12 11  2  0  0  0  0
 14 12  1  0  0  0  0
 15 14  1  0  0  0  0
 16 14  2  0  0  0  0
 16 18  1  0  0  0  0
 17 16  1  0  0  0  0
 18 20  2  0  0  0  0
 19 18  1  0  0  0  0
 20 11  1  0  0  0  0
 20 21  1  0  0  0  0
 21  6  1  0  0  0  0
 22 21  1  0  0  0  0
 23 24  1  0  0  0  0
 23 31  1  0  0  0  0
 24 29  1  0  0  0  0
 25 30  1  0  0  0  0
 25 24  2  0  0  0  0
 26 25  1  0  0  0  0
 27 26  2  0  0  0  0
 27 28  1  0  0  0  0
 28 23  2  0  0  0  0
 31 32  1  0  0  0  0
 31 33  1  0  0  0  0
 31 34  1  1  0  0  0
 32 33  1  0  0  0  0
 32 35  1  1  0  0  0
 33 36  1  0  0  0  0
 37 33  1  0  0  0  0
 38 32  1  0  0  0  0
 39 38  1  0  0  0  0
 39 41  1  0  0  0  0
 40 39  2  0  0  0  0
 41 43  1  0  0  0  0
 41 42  1  0  0  0  0
M  END
>  <minimizedAffinity>
-6.23525095

>  <minimizedRMSD>
1.4164139

$$$$
