
 OpenBabel03272507183D

 43 47  0  0  1  0  0  0  0  0999 V2000
   38.8590   31.8400   45.7980 C   0  0  0  0  0  0  0  0  0  0  0  0
   39.8140   30.9000   45.4510 C   0  0  0  0  0  0  0  0  0  0  0  0
   40.4950   30.4870   46.1890 H   0  0  0  0  0  0  0  0  0  0  0  0
   39.8880   30.4890   44.1320 C   0  0  0  0  0  0  0  0  0  0  0  0
   40.6140   29.7570   43.7960 H   0  0  0  0  0  0  0  0  0  0  0  0
   39.0260   31.0070   43.1780 C   0  0  0  0  0  0  0  0  0  0  0  0
   38.0840   31.9520   43.5880 C   0  0  0  0  0  0  0  0  0  0  0  0
   37.9670   32.3970   44.8980 C   0  0  0  0  0  0  0  0  0  0  0  0
   37.2240   33.1310   45.1780 H   0  0  0  0  0  0  0  0  0  0  0  0
   36.9420   32.6600   42.4140 S   0  0  0  0  0  0  0  0  0  0  0  0
   37.3040   31.9240   40.8260 C   0  0  0  0  0  0  0  0  0  0  0  0
   36.5190   32.3470   39.7730 C   0  0  0  0  0  0  0  0  0  0  0  0
   35.7360   33.0780   39.9000 H   0  0  0  0  0  0  0  0  0  0  0  0
   36.7490   31.8180   38.5210 C   0  0  0  0  0  0  0  0  0  0  0  0
   36.1360   32.1540   37.7210 H   0  0  0  0  0  0  0  0  0  0  0  0
   37.7640   30.8860   38.4110 C   0  0  0  0  0  0  0  0  0  0  0  0
   37.8990   30.5010   37.3910 H   0  0  0  0  0  0  0  0  0  0  0  0
   38.5410   30.4710   39.4720 C   0  0  0  0  0  0  0  0  0  0  0  0
   39.3200   29.7360   39.3070 H   0  0  0  0  0  0  0  0  0  0  0  0
   38.3240   30.9980   40.7500 C   0  0  0  0  0  0  0  0  0  0  0  0
   39.1060   30.5830   41.8270 N   0  0  0  0  0  0  0  0  0  0  0  0
   39.8540   29.8650   41.6200 H   0  0  0  0  0  0  0  0  0  0  0  0
   37.8300   32.2270   49.3390 C   0  0  0  0  0  0  0  0  0  0  0  0
   38.5600   33.3080   49.7980 C   0  0  0  0  0  0  0  0  0  0  0  0
   39.4140   33.8840   48.8250 C   0  0  0  0  0  0  0  0  0  0  0  0
   39.4740   33.3730   47.5480 N   0  0  0  0  0  0  0  0  0  0  0  0
   38.7290   32.3140   47.1760 C   0  0  0  0  0  0  0  0  0  0  0  0
   37.8930   31.7270   48.0790 N   0  0  0  0  0  0  0  0  0  0  0  0
   38.4980   33.6850   50.7880 H   0  0  0  0  0  0  0  0  0  0  0  0
   40.0160   34.7220   49.0870 H   0  0  0  0  0  0  0  0  0  0  0  0
   36.8870   31.6240   50.3310 C   0  0  1  0  0  0  0  0  0  0  0  0
   36.2220   30.3420   50.0910 C   0  0  2  0  0  0  0  0  0  0  0  0
   37.4480   30.3290   50.9520 C   0  0  0  0  0  0  0  0  0  0  0  0
   36.5760   32.3560   51.1300 H   0  0  0  0  0  0  0  0  0  0  0  0
   35.1860   30.3170   50.5490 H   0  0  0  0  0  0  0  0  0  0  0  0
   37.2730   30.1550   52.0280 H   0  0  0  0  0  0  0  0  0  0  0  0
   38.3550   29.8800   50.5130 H   0  0  0  0  0  0  0  0  0  0  0  0
   36.2940   29.8280   48.8040 O   0  0  0  0  0  0  0  0  0  0  0  0
   35.3020   29.5310   47.9280 C   0  0  0  0  0  0  0  0  0  0  0  0
   34.6150   28.4930   48.0260 O   0  0  0  0  0  0  0  0  0  0  0  0
   35.2360   30.5530   46.9800 N   0  0  0  0  0  0  0  0  0  0  0  0
   34.4600   31.2450   46.8460 H   0  0  0  0  0  0  0  0  0  0  0  0
   35.9120   30.8540   46.2180 H   0  0  0  0  0  0  0  0  0  0  0  0
  1 27  1  0  0  0  0
  2  1  1  0  0  0  0
  2  3  1  0  0  0  0
  4  2  2  0  0  0  0
  5  4  1  0  0  0  0
  6  7  2  0  0  0  0
  6  4  1  0  0  0  0
  7  8  1  0  0  0  0
  8  9  1  0  0  0  0
  8  1  2  0  0  0  0
 10  7  1  0  0  0  0
 11 10  1  0  0  0  0
 12 13  1  0  0  0  0
 12 11  2  0  0  0  0
 14 12  1  0  0  0  0
 15 14  1  0  0  0  0
 16 14  2  0  0  0  0
 16 18  1  0  0  0  0
 17 16  1  0  0  0  0
 18 20  2  0  0  0  0
 19 18  1  0  0  0  0
 20 11  1  0  0  0  0
 20 21  1  0  0  0  0
 21  6  1  0  0  0  0
 22 21  1  0  0  0  0
 23 24  1  0  0  0  0
 23 31  1  0  0  0  0
 24 29  1  0  0  0  0
 25 30  1  0  0  0  0
 25 24  2  0  0  0  0
 26 25  1  0  0  0  0
 27 26  2  0  0  0  0
 27 28  1  0  0  0  0
 28 23  2  0  0  0  0
 31 33  1  0  0  0  0
 31 34  1  1  0  0  0
 32 31  1  0  0  0  0
 32 35  1  1  0  0  0
 32 33  1  0  0  0  0
 33 36  1  0  0  0  0
 37 33  1  0  0  0  0
 38 32  1  0  0  0  0
 39 40  2  0  0  0  0
 39 38  1  0  0  0  0
 41 39  1  0  0  0  0
 42 41  1  0  0  0  0
 43 41  1  0  0  0  0
M  END
>  <minimizedAffinity>
-6.23127604

>  <minimizedRMSD>
2.73362637

$$$$
