
 OpenBabel03272503153D

 38 42  0  0  0  0  0  0  0  0999 V2000
   39.2720   31.7350   44.3540 C   0  0  0  0  0  0  0  0  0  0  0  0
   38.7690   32.7480   43.5800 C   0  0  0  0  0  0  0  0  0  0  0  0
   38.1650   33.5530   43.9280 H   0  0  0  0  0  0  0  0  0  0  0  0
   39.1290   32.6360   42.2320 C   0  0  0  0  0  0  0  0  0  0  0  0
   38.7370   33.4360   41.5930 H   0  0  0  0  0  0  0  0  0  0  0  0
   39.9060   31.6150   41.7290 C   0  0  0  0  0  0  0  0  0  0  0  0
   40.3490   30.6580   42.6090 C   0  0  0  0  0  0  0  0  0  0  0  0
   40.0400   30.7040   43.9310 C   0  0  0  0  0  0  0  0  0  0  0  0
   40.4040   29.9360   44.5980 H   0  0  0  0  0  0  0  0  0  0  0  0
   41.3570   29.3290   41.9840 S   0  0  0  0  0  0  0  0  0  0  0  0
   41.5310   29.6270   40.2360 C   0  0  0  0  0  0  0  0  0  0  0  0
   42.2870   28.6880   39.5850 C   0  0  0  0  0  0  0  0  0  0  0  0
   42.7500   27.8400   40.0380 H   0  0  0  0  0  0  0  0  0  0  0  0
   42.4780   28.8420   38.2080 C   0  0  0  0  0  0  0  0  0  0  0  0
   43.0520   28.1630   37.6020 H   0  0  0  0  0  0  0  0  0  0  0  0
   41.9020   29.9220   37.5720 C   0  0  0  0  0  0  0  0  0  0  0  0
   42.0420   30.0500   36.5080 H   0  0  0  0  0  0  0  0  0  0  0  0
   41.1590   30.8090   38.3240 C   0  0  0  0  0  0  0  0  0  0  0  0
   40.7340   31.6410   37.7400 H   0  0  0  0  0  0  0  0  0  0  0  0
   40.9330   30.7150   39.6820 C   0  0  0  0  0  0  0  0  0  0  0  0
   40.1590   31.6790   40.3390 N   0  0  0  0  0  0  0  0  0  0  0  0
   39.7800   32.4470   39.7450 H   0  0  0  0  0  0  0  0  0  0  0  0
   38.0250   31.1100   48.1960 C   0  0  0  0  0  0  0  0  0  0  0  0
   38.7840   32.2000   48.0670 C   0  0  0  0  0  0  0  0  0  0  0  0
   39.2790   32.5560   46.8780 C   0  0  0  0  0  0  0  0  0  0  0  0
   38.9610   31.7390   45.8070 C   0  0  0  0  0  0  0  0  0  0  0  0
   37.9170   30.4320   46.5910 S   0  0  0  0  0  0  0  0  0  0  0  0
   39.0020   32.8140   48.9590 H   0  0  0  0  0  0  0  0  0  0  0  0
   39.8990   33.3980   46.6130 H   0  0  0  0  0  0  0  0  0  0  0  0
   37.2390   30.0430   51.7160 C   0  0  0  0  0  0  0  0  0  0  0  0
   37.9500   30.6250   50.6540 C   0  0  0  0  0  0  0  0  0  0  0  0
   37.3870   30.5430   49.3960 C   0  0  0  0  0  0  0  0  0  0  0  0
   36.2040   29.9190   49.2480 N   0  0  0  0  0  0  0  0  0  0  0  0
   35.5380   29.3710   50.2640 C   0  0  0  0  0  0  0  0  0  0  0  0
   36.0570   29.4350   51.4870 N   0  0  0  0  0  0  0  0  0  0  0  0
   37.7360   30.1440   52.6720 H   0  0  0  0  0  0  0  0  0  0  0  0
   38.8940   31.1340   50.7130 H   0  0  0  0  0  0  0  0  0  0  0  0
   34.5950   28.8870   50.0680 H   0  0  0  0  0  0  0  0  0  0  0  0
  1 26  1  0  0  0  0
  2  3  1  0  0  0  0
  2  1  2  0  0  0  0
  4  2  1  0  0  0  0
  5  4  1  0  0  0  0
  6  4  2  0  0  0  0
  6  7  1  0  0  0  0
  7  8  2  0  0  0  0
  8  1  1  0  0  0  0
  8  9  1  0  0  0  0
 10  7  1  0  0  0  0
 11 10  1  0  0  0  0
 12 13  1  0  0  0  0
 12 11  2  0  0  0  0
 14 12  1  0  0  0  0
 15 14  1  0  0  0  0
 16 14  2  0  0  0  0
 16 18  1  0  0  0  0
 17 16  1  0  0  0  0
 18 20  2  0  0  0  0
 19 18  1  0  0  0  0
 20 11  1  0  0  0  0
 20 21  1  0  0  0  0
 21  6  1  0  0  0  0
 22 21  1  0  0  0  0
 23 32  1  0  0  0  0
 24 23  2  0  0  0  0
 24 28  1  0  0  0  0
 25 24  1  0  0  0  0
 26 27  1  0  0  0  0
 26 25  2  0  0  0  0
 27 23  1  0  0  0  0
 29 25  1  0  0  0  0
 30 36  1  0  0  0  0
 31 37  1  0  0  0  0
 31 30  2  0  0  0  0
 32 31  1  0  0  0  0
 33 32  2  0  0  0  0
 33 34  1  0  0  0  0
 34 35  2  0  0  0  0
 35 30  1  0  0  0  0
 38 34  1  0  0  0  0
M  END
>  <minimizedAffinity>
-6.43256807

>  <minimizedRMSD>
2.22417879

$$$$
