
 OpenBabel03272507183D

 43 47  0  0  1  0  0  0  0  0999 V2000
   38.1310   30.7860   45.7890 C   0  0  0  0  0  0  0  0  0  0  0  0
   36.9330   30.3840   45.2240 C   0  0  0  0  0  0  0  0  0  0  0  0
   35.9950   30.4760   45.7610 H   0  0  0  0  0  0  0  0  0  0  0  0
   36.9500   29.8550   43.9450 C   0  0  0  0  0  0  0  0  0  0  0  0
   36.0470   29.5220   43.4460 H   0  0  0  0  0  0  0  0  0  0  0  0
   38.1400   29.7300   43.2440 C   0  0  0  0  0  0  0  0  0  0  0  0
   39.3160   30.1530   43.8680 C   0  0  0  0  0  0  0  0  0  0  0  0
   39.3540   30.6890   45.1470 C   0  0  0  0  0  0  0  0  0  0  0  0
   40.2850   31.0060   45.5970 H   0  0  0  0  0  0  0  0  0  0  0  0
   40.8840   30.0200   43.0250 S   0  0  0  0  0  0  0  0  0  0  0  0
   40.5550   29.3070   41.4210 C   0  0  0  0  0  0  0  0  0  0  0  0
   41.6530   29.1230   40.6060 C   0  0  0  0  0  0  0  0  0  0  0  0
   42.6500   29.3920   40.9200 H   0  0  0  0  0  0  0  0  0  0  0  0
   41.4670   28.5760   39.3550 C   0  0  0  0  0  0  0  0  0  0  0  0
   42.3220   28.4400   38.7400 H   0  0  0  0  0  0  0  0  0  0  0  0
   40.1720   28.2480   39.0010 C   0  0  0  0  0  0  0  0  0  0  0  0
   40.0850   27.8170   37.9940 H   0  0  0  0  0  0  0  0  0  0  0  0
   39.0810   28.4380   39.8240 C   0  0  0  0  0  0  0  0  0  0  0  0
   38.0940   28.1570   39.4760 H   0  0  0  0  0  0  0  0  0  0  0  0
   39.2510   28.9920   41.0980 C   0  0  0  0  0  0  0  0  0  0  0  0
   38.1520   29.1870   41.9340 N   0  0  0  0  0  0  0  0  0  0  0  0
   37.2100   28.8980   41.5540 H   0  0  0  0  0  0  0  0  0  0  0  0
   37.6710   31.3440   49.4250 C   0  0  0  0  0  0  0  0  0  0  0  0
   38.3360   32.5300   49.6830 C   0  0  0  0  0  0  0  0  0  0  0  0
   38.9410   33.1120   48.5420 C   0  0  0  0  0  0  0  0  0  0  0  0
   38.8460   32.5100   47.3080 N   0  0  0  0  0  0  0  0  0  0  0  0
   38.1790   31.3530   47.1370 C   0  0  0  0  0  0  0  0  0  0  0  0
   37.5800   30.7550   48.2070 N   0  0  0  0  0  0  0  0  0  0  0  0
   38.3960   32.9750   50.6430 H   0  0  0  0  0  0  0  0  0  0  0  0
   39.4760   34.0270   48.6440 H   0  0  0  0  0  0  0  0  0  0  0  0
   36.9850   30.7270   50.6020 C   0  0  1  0  0  0  0  0  0  0  0  0
   36.1360   29.5410   50.4720 C   0  0  2  0  0  0  0  0  0  0  0  0
   37.5450   29.3290   50.9330 C   0  0  0  0  0  0  0  0  0  0  0  0
   36.9990   31.3960   51.5080 H   0  0  0  0  0  0  0  0  0  0  0  0
   35.2760   29.5600   51.2090 H   0  0  0  0  0  0  0  0  0  0  0  0
   37.6630   29.0600   51.9970 H   0  0  0  0  0  0  0  0  0  0  0  0
   38.2330   28.8500   50.2160 H   0  0  0  0  0  0  0  0  0  0  0  0
   35.7810   29.1600   49.1850 O   0  0  0  0  0  0  0  0  0  0  0  0
   34.5530   28.9960   48.6330 C   0  0  0  0  0  0  0  0  0  0  0  0
   34.3960   28.7650   47.4160 O   0  0  0  0  0  0  0  0  0  0  0  0
   33.5990   29.1360   49.6410 N   0  0  0  0  0  0  0  0  0  0  0  0
   32.9690   28.3920   50.0260 H   0  0  0  0  0  0  0  0  0  0  0  0
   33.3010   29.9750   50.2190 H   0  0  0  0  0  0  0  0  0  0  0  0
  1 27  1  0  0  0  0
  2  3  1  0  0  0  0
  2  1  1  0  0  0  0
  4  2  2  0  0  0  0
  5  4  1  0  0  0  0
  6  7  2  0  0  0  0
  6  4  1  0  0  0  0
  7  8  1  0  0  0  0
  8  9  1  0  0  0  0
  8  1  2  0  0  0  0
 10  7  1  0  0  0  0
 11 10  1  0  0  0  0
 12 13  1  0  0  0  0
 12 11  2  0  0  0  0
 14 12  1  0  0  0  0
 15 14  1  0  0  0  0
 16 14  2  0  0  0  0
 16 18  1  0  0  0  0
 17 16  1  0  0  0  0
 18 20  2  0  0  0  0
 19 18  1  0  0  0  0
 20 11  1  0  0  0  0
 20 21  1  0  0  0  0
 21  6  1  0  0  0  0
 22 21  1  0  0  0  0
 23 24  1  0  0  0  0
 23 31  1  0  0  0  0
 24 29  1  0  0  0  0
 25 30  1  0  0  0  0
 25 24  2  0  0  0  0
 26 25  1  0  0  0  0
 27 26  2  0  0  0  0
 27 28  1  0  0  0  0
 28 23  2  0  0  0  0
 31 33  1  0  0  0  0
 31 34  1  1  0  0  0
 32 31  1  0  0  0  0
 32 33  1  0  0  0  0
 32 35  1  1  0  0  0
 33 36  1  0  0  0  0
 37 33  1  0  0  0  0
 38 32  1  0  0  0  0
 39 38  1  0  0  0  0
 39 41  1  0  0  0  0
 40 39  2  0  0  0  0
 41 42  1  0  0  0  0
 41 43  1  0  0  0  0
M  END
>  <minimizedAffinity>
-6.40426159

>  <minimizedRMSD>
1.87073863

$$$$
