
 OpenBabel03272503183D

 38 42  0  0  0  0  0  0  0  0999 V2000
   39.3180   24.5560   35.9830 C   0  0  0  0  0  0  0  0  0  0  0  0
   38.7070   23.7780   36.9320 C   0  0  0  0  0  0  0  0  0  0  0  0
   37.7570   23.9720   37.3740 H   0  0  0  0  0  0  0  0  0  0  0  0
   39.4640   22.6580   37.2910 C   0  0  0  0  0  0  0  0  0  0  0  0
   38.9950   22.0210   38.0500 H   0  0  0  0  0  0  0  0  0  0  0  0
   40.6980   22.3620   36.7520 C   0  0  0  0  0  0  0  0  0  0  0  0
   41.2030   23.2220   35.8070 C   0  0  0  0  0  0  0  0  0  0  0  0
   40.5230   24.3290   35.4100 C   0  0  0  0  0  0  0  0  0  0  0  0
   40.9480   24.9860   34.6650 H   0  0  0  0  0  0  0  0  0  0  0  0
   42.7950   22.8610   35.0940 S   0  0  0  0  0  0  0  0  0  0  0  0
   43.3470   21.3530   35.8660 C   0  0  0  0  0  0  0  0  0  0  0  0
   44.5720   20.9220   35.4310 C   0  0  0  0  0  0  0  0  0  0  0  0
   45.1780   21.4090   34.6990 H   0  0  0  0  0  0  0  0  0  0  0  0
   45.0860   19.7440   35.9820 C   0  0  0  0  0  0  0  0  0  0  0  0
   46.0360   19.3190   35.7110 H   0  0  0  0  0  0  0  0  0  0  0  0
   44.3430   19.0750   36.9320 C   0  0  0  0  0  0  0  0  0  0  0  0
   44.7310   18.1640   37.3650 H   0  0  0  0  0  0  0  0  0  0  0  0
   43.1200   19.5970   37.2990 C   0  0  0  0  0  0  0  0  0  0  0  0
   42.5930   19.0020   38.0630 H   0  0  0  0  0  0  0  0  0  0  0  0
   42.5570   20.7520   36.7950 C   0  0  0  0  0  0  0  0  0  0  0  0
   41.3050   21.1840   37.2460 N   0  0  0  0  0  0  0  0  0  0  0  0
   40.8450   20.5890   37.9670 H   0  0  0  0  0  0  0  0  0  0  0  0
   37.2910   27.5320   34.0480 C   0  0  0  0  0  0  0  0  0  0  0  0
   37.6370   27.8630   35.2940 C   0  0  0  0  0  0  0  0  0  0  0  0
   38.3070   27.0080   36.0720 C   0  0  0  0  0  0  0  0  0  0  0  0
   38.6140   25.7790   35.5160 C   0  0  0  0  0  0  0  0  0  0  0  0
   37.8930   25.9090   33.8200 S   0  0  0  0  0  0  0  0  0  0  0  0
   37.3640   28.8610   35.6820 H   0  0  0  0  0  0  0  0  0  0  0  0
   38.6550   27.1260   37.0870 H   0  0  0  0  0  0  0  0  0  0  0  0
   36.2220   29.2300   30.8670 C   0  0  0  0  0  0  0  0  0  0  0  0
   37.0120   28.4610   31.7370 C   0  0  0  0  0  0  0  0  0  0  0  0
   36.5610   28.3110   33.0340 C   0  0  0  0  0  0  0  0  0  0  0  0
   35.4070   28.8980   33.3970 N   0  0  0  0  0  0  0  0  0  0  0  0
   34.6650   29.6240   32.5610 C   0  0  0  0  0  0  0  0  0  0  0  0
   35.0750   29.7860   31.3070 N   0  0  0  0  0  0  0  0  0  0  0  0
   36.6330   29.3060   29.8680 H   0  0  0  0  0  0  0  0  0  0  0  0
   37.9390   27.9710   31.5030 H   0  0  0  0  0  0  0  0  0  0  0  0
   33.7500   30.0650   32.9250 H   0  0  0  0  0  0  0  0  0  0  0  0
  1  2  1  0  0  0  0
  2  4  2  0  0  0  0
  2  3  1  0  0  0  0
  4  5  1  0  0  0  0
  6 21  1  0  0  0  0
  6  4  1  0  0  0  0
  7  6  2  0  0  0  0
  8  7  1  0  0  0  0
  8  1  2  0  0  0  0
  9  8  1  0  0  0  0
 10  7  1  0  0  0  0
 10 11  1  0  0  0  0
 11 20  1  0  0  0  0
 12 11  2  0  0  0  0
 12 14  1  0  0  0  0
 13 12  1  0  0  0  0
 14 16  2  0  0  0  0
 15 14  1  0  0  0  0
 16 18  1  0  0  0  0
 16 17  1  0  0  0  0
 18 19  1  0  0  0  0
 20 21  1  0  0  0  0
 20 18  2  0  0  0  0
 21 22  1  0  0  0  0
 23 24  2  0  0  0  0
 24 28  1  0  0  0  0
 24 25  1  0  0  0  0
 25 29  1  0  0  0  0
 26  1  1  0  0  0  0
 26 25  2  0  0  0  0
 27 23  1  0  0  0  0
 27 26  1  0  0  0  0
 30 35  2  0  0  0  0
 30 31  1  0  0  0  0
 31 32  2  0  0  0  0
 32 33  1  0  0  0  0
 32 23  1  0  0  0  0
 34 38  1  0  0  0  0
 34 33  2  0  0  0  0
 35 34  1  0  0  0  0
 36 30  1  0  0  0  0
 37 31  1  0  0  0  0
M  END
>  <minimizedAffinity>
-6.19944096

$$$$

 OpenBabel03272503183D

 38 42  0  0  0  0  0  0  0  0999 V2000
   37.8020   27.3970   32.2160 C   0  0  0  0  0  0  0  0  0  0  0  0
   36.8430   27.9260   33.0400 C   0  0  0  0  0  0  0  0  0  0  0  0
   36.1690   28.7100   32.7830 H   0  0  0  0  0  0  0  0  0  0  0  0
   36.8170   27.3260   34.3040 C   0  0  0  0  0  0  0  0  0  0  0  0
   36.0570   27.7340   34.9810 H   0  0  0  0  0  0  0  0  0  0  0  0
   37.6660   26.3100   34.6870 C   0  0  0  0  0  0  0  0  0  0  0  0
   38.5850   25.8670   33.7680 C   0  0  0  0  0  0  0  0  0  0  0  0
   38.6670   26.4020   32.5230 C   0  0  0  0  0  0  0  0  0  0  0  0
   39.4020   26.0320   31.8220 H   0  0  0  0  0  0  0  0  0  0  0  0
   39.6930   24.5540   34.2390 S   0  0  0  0  0  0  0  0  0  0  0  0
   39.2720   24.1360   35.9190 C   0  0  0  0  0  0  0  0  0  0  0  0
   40.0340   23.1300   36.4490 C   0  0  0  0  0  0  0  0  0  0  0  0
   40.8190   22.6130   35.9440 H   0  0  0  0  0  0  0  0  0  0  0  0
   39.7730   22.7350   37.7660 C   0  0  0  0  0  0  0  0  0  0  0  0
   40.3120   21.9570   38.2770 H   0  0  0  0  0  0  0  0  0  0  0  0
   38.7680   23.3700   38.4640 C   0  0  0  0  0  0  0  0  0  0  0  0
   38.5580   23.0730   39.4820 H   0  0  0  0  0  0  0  0  0  0  0  0
   38.0600   24.3720   37.8330 C   0  0  0  0  0  0  0  0  0  0  0  0
   37.2760   24.8270   38.4620 H   0  0  0  0  0  0  0  0  0  0  0  0
   38.2670   24.8090   36.5410 C   0  0  0  0  0  0  0  0  0  0  0  0
   37.4820   25.8370   36.0080 N   0  0  0  0  0  0  0  0  0  0  0  0
   36.7540   26.2350   36.6380 H   0  0  0  0  0  0  0  0  0  0  0  0
   38.8460   28.5860   28.4470 C   0  0  0  0  0  0  0  0  0  0  0  0
   37.6290   29.0000   28.8040 C   0  0  0  0  0  0  0  0  0  0  0  0
   37.1260   28.7010   30.0060 C   0  0  0  0  0  0  0  0  0  0  0  0
   37.9320   27.9490   30.8420 C   0  0  0  0  0  0  0  0  0  0  0  0
   39.4480   27.6890   29.8190 S   0  0  0  0  0  0  0  0  0  0  0  0
   37.0330   29.6000   28.0930 H   0  0  0  0  0  0  0  0  0  0  0  0
   36.1710   28.9600   30.4370 H   0  0  0  0  0  0  0  0  0  0  0  0
   40.8640   28.1090   25.3090 C   0  0  0  0  0  0  0  0  0  0  0  0
   40.1920   27.7720   26.4950 C   0  0  0  0  0  0  0  0  0  0  0  0
   39.5830   28.7990   27.1900 C   0  0  0  0  0  0  0  0  0  0  0  0
   39.6620   30.0520   26.7080 N   0  0  0  0  0  0  0  0  0  0  0  0
   40.3030   30.3590   25.5800 C   0  0  0  0  0  0  0  0  0  0  0  0
   40.8980   29.3900   24.8900 N   0  0  0  0  0  0  0  0  0  0  0  0
   41.3160   27.2580   24.8160 H   0  0  0  0  0  0  0  0  0  0  0  0
   40.0960   26.7930   26.9270 H   0  0  0  0  0  0  0  0  0  0  0  0
   40.3230   31.3870   25.2560 H   0  0  0  0  0  0  0  0  0  0  0  0
  1  8  2  0  0  0  0
  1  2  1  0  0  0  0
  2  4  2  0  0  0  0
  3  2  1  0  0  0  0
  4  6  1  0  0  0  0
  4  5  1  0  0  0  0
  6 21  1  0  0  0  0
  7 10  1  0  0  0  0
  7  6  2  0  0  0  0
  8  7  1  0  0  0  0
  9  8  1  0  0  0  0
 10 11  1  0  0  0  0
 11 12  2  0  0  0  0
 11 20  1  0  0  0  0
 12 14  1  0  0  0  0
 13 12  1  0  0  0  0
 14 15  1  0  0  0  0
 14 16  2  0  0  0  0
 16 17  1  0  0  0  0
 18 19  1  0  0  0  0
 18 16  1  0  0  0  0
 20 18  2  0  0  0  0
 21 20  1  0  0  0  0
 21 22  1  0  0  0  0
 23 24  2  0  0  0  0
 23 27  1  0  0  0  0
 24 25  1  0  0  0  0
 25 29  1  0  0  0  0
 25 26  2  0  0  0  0
 26  1  1  0  0  0  0
 27 26  1  0  0  0  0
 28 24  1  0  0  0  0
 30 31  1  0  0  0  0
 31 37  1  0  0  0  0
 31 32  2  0  0  0  0
 32 23  1  0  0  0  0
 33 32  1  0  0  0  0
 34 33  2  0  0  0  0
 35 30  2  0  0  0  0
 35 34  1  0  0  0  0
 36 30  1  0  0  0  0
 38 34  1  0  0  0  0
M  END
>  <minimizedAffinity>
-6.09202909

$$$$

 OpenBabel03272503183D

 38 42  0  0  0  0  0  0  0  0999 V2000
   37.1590   27.5150   33.8860 C   0  0  0  0  0  0  0  0  0  0  0  0
   38.0290   27.3820   32.8360 C   0  0  0  0  0  0  0  0  0  0  0  0
   38.0160   27.9620   31.9420 H   0  0  0  0  0  0  0  0  0  0  0  0
   38.9800   26.3760   33.0380 C   0  0  0  0  0  0  0  0  0  0  0  0
   39.6870   26.2500   32.2090 H   0  0  0  0  0  0  0  0  0  0  0  0
   39.0400   25.5960   34.1730 C   0  0  0  0  0  0  0  0  0  0  0  0
   38.1100   25.8280   35.1560 C   0  0  0  0  0  0  0  0  0  0  0  0
   37.1580   26.7880   35.0280 C   0  0  0  0  0  0  0  0  0  0  0  0
   36.4390   26.9470   35.8190 H   0  0  0  0  0  0  0  0  0  0  0  0
   38.1670   24.8340   36.6330 S   0  0  0  0  0  0  0  0  0  0  0  0
   39.5340   23.7120   36.4160 C   0  0  0  0  0  0  0  0  0  0  0  0
   39.7280   22.8610   37.4710 C   0  0  0  0  0  0  0  0  0  0  0  0
   39.1420   22.8340   38.3630 H   0  0  0  0  0  0  0  0  0  0  0  0
   40.7810   21.9440   37.3880 C   0  0  0  0  0  0  0  0  0  0  0  0
   41.0190   21.2320   38.1580 H   0  0  0  0  0  0  0  0  0  0  0  0
   41.5700   21.9370   36.2560 C   0  0  0  0  0  0  0  0  0  0  0  0
   42.3850   21.2320   36.1810 H   0  0  0  0  0  0  0  0  0  0  0  0
   41.2860   22.8380   35.2510 C   0  0  0  0  0  0  0  0  0  0  0  0
   41.9630   22.7650   34.3840 H   0  0  0  0  0  0  0  0  0  0  0  0
   40.2660   23.7670   35.2710 C   0  0  0  0  0  0  0  0  0  0  0  0
   40.0760   24.6320   34.1870 N   0  0  0  0  0  0  0  0  0  0  0  0
   40.7400   24.5260   33.3920 H   0  0  0  0  0  0  0  0  0  0  0  0
   34.0500   30.0120   32.9830 C   0  0  0  0  0  0  0  0  0  0  0  0
   34.6630   30.3350   34.1240 C   0  0  0  0  0  0  0  0  0  0  0  0
   35.7020   29.6250   34.5720 C   0  0  0  0  0  0  0  0  0  0  0  0
   36.0970   28.5520   33.7930 C   0  0  0  0  0  0  0  0  0  0  0  0
   34.9030   28.6100   32.3860 S   0  0  0  0  0  0  0  0  0  0  0  0
   34.3020   31.2050   34.7020 H   0  0  0  0  0  0  0  0  0  0  0  0
   36.2960   29.7580   35.4630 H   0  0  0  0  0  0  0  0  0  0  0  0
   30.6180   31.2710   32.1010 C   0  0  0  0  0  0  0  0  0  0  0  0
   31.6250   30.6240   32.8370 C   0  0  0  0  0  0  0  0  0  0  0  0
   32.9040   30.6490   32.3150 C   0  0  0  0  0  0  0  0  0  0  0  0
   33.1210   31.2790   31.1470 N   0  0  0  0  0  0  0  0  0  0  0  0
   32.1580   31.8890   30.4580 C   0  0  0  0  0  0  0  0  0  0  0  0
   30.9170   31.8820   30.9360 N   0  0  0  0  0  0  0  0  0  0  0  0
   29.6420   31.2130   32.5660 H   0  0  0  0  0  0  0  0  0  0  0  0
   31.5090   30.1080   33.7720 H   0  0  0  0  0  0  0  0  0  0  0  0
   32.4090   32.3740   29.5280 H   0  0  0  0  0  0  0  0  0  0  0  0
  1  8  1  0  0  0  0
  2  4  1  0  0  0  0
  2  1  2  0  0  0  0
  3  2  1  0  0  0  0
  4  6  2  0  0  0  0
  5  4  1  0  0  0  0
  6 21  1  0  0  0  0
  6  7  1  0  0  0  0
  7 10  1  0  0  0  0
  8  7  2  0  0  0  0
  8  9  1  0  0  0  0
 11 10  1  0  0  0  0
 11 12  1  0  0  0  0
 12 13  1  0  0  0  0
 14 12  2  0  0  0  0
 14 15  1  0  0  0  0
 16 14  1  0  0  0  0
 17 16  1  0  0  0  0
 18 20  1  0  0  0  0
 18 16  2  0  0  0  0
 19 18  1  0  0  0  0
 20 11  2  0  0  0  0
 21 20  1  0  0  0  0
 22 21  1  0  0  0  0
 23 24  2  0  0  0  0
 24 25  1  0  0  0  0
 24 28  1  0  0  0  0
 25 29  1  0  0  0  0
 26  1  1  0  0  0  0
 26 25  2  0  0  0  0
 27 23  1  0  0  0  0
 27 26  1  0  0  0  0
 30 36  1  0  0  0  0
 30 31  1  0  0  0  0
 31 37  1  0  0  0  0
 32 31  2  0  0  0  0
 32 23  1  0  0  0  0
 33 32  1  0  0  0  0
 34 35  1  0  0  0  0
 34 33  2  0  0  0  0
 35 30  2  0  0  0  0
 38 34  1  0  0  0  0
M  END
>  <minimizedAffinity>
-5.98034811

$$$$

 OpenBabel03272503183D

 38 42  0  0  0  0  0  0  0  0999 V2000
   37.3330   27.7120   31.9950 C   0  0  0  0  0  0  0  0  0  0  0  0
   36.3480   28.5720   32.4050 C   0  0  0  0  0  0  0  0  0  0  0  0
   35.7690   28.4720   33.2940 H   0  0  0  0  0  0  0  0  0  0  0  0
   36.1520   29.6400   31.5240 C   0  0  0  0  0  0  0  0  0  0  0  0
   35.3670   30.3420   31.8310 H   0  0  0  0  0  0  0  0  0  0  0  0
   36.8710   29.8150   30.3600 C   0  0  0  0  0  0  0  0  0  0  0  0
   37.8330   28.8830   30.0600 C   0  0  0  0  0  0  0  0  0  0  0  0
   38.0780   27.8200   30.8690 C   0  0  0  0  0  0  0  0  0  0  0  0
   38.8420   27.1030   30.6050 H   0  0  0  0  0  0  0  0  0  0  0  0
   38.7770   29.0870   28.5630 S   0  0  0  0  0  0  0  0  0  0  0  0
   38.1640   30.5740   27.7960 C   0  0  0  0  0  0  0  0  0  0  0  0
   38.7850   30.8890   26.6170 C   0  0  0  0  0  0  0  0  0  0  0  0
   39.5690   30.3280   26.1590 H   0  0  0  0  0  0  0  0  0  0  0  0
   38.3670   32.0420   25.9440 C   0  0  0  0  0  0  0  0  0  0  0  0
   38.7880   32.3780   25.0130 H   0  0  0  0  0  0  0  0  0  0  0  0
   37.3570   32.8040   26.4930 C   0  0  0  0  0  0  0  0  0  0  0  0
   37.0270   33.6970   25.9810 H   0  0  0  0  0  0  0  0  0  0  0  0
   36.7990   32.3960   27.6870 C   0  0  0  0  0  0  0  0  0  0  0  0
   36.0000   33.0600   28.0550 H   0  0  0  0  0  0  0  0  0  0  0  0
   37.1640   31.2720   28.4000 C   0  0  0  0  0  0  0  0  0  0  0  0
   36.5230   30.9590   29.6030 N   0  0  0  0  0  0  0  0  0  0  0  0
   35.7750   31.6160   29.9110 H   0  0  0  0  0  0  0  0  0  0  0  0
   38.1990   24.9760   34.9050 C   0  0  0  0  0  0  0  0  0  0  0  0
   38.0660   24.4260   33.6970 C   0  0  0  0  0  0  0  0  0  0  0  0
   37.7830   25.1750   32.6270 C   0  0  0  0  0  0  0  0  0  0  0  0
   37.6380   26.5330   32.8460 C   0  0  0  0  0  0  0  0  0  0  0  0
   37.9270   26.6840   34.6640 S   0  0  0  0  0  0  0  0  0  0  0  0
   38.1940   23.3340   33.5850 H   0  0  0  0  0  0  0  0  0  0  0  0
   37.6460   24.8830   31.5970 H   0  0  0  0  0  0  0  0  0  0  0  0
   39.6960   22.8810   37.6470 C   0  0  0  0  0  0  0  0  0  0  0  0
   39.5060   23.4070   36.3580 C   0  0  0  0  0  0  0  0  0  0  0  0
   38.5050   24.3460   36.2000 C   0  0  0  0  0  0  0  0  0  0  0  0
   37.7710   24.7060   37.2680 N   0  0  0  0  0  0  0  0  0  0  0  0
   37.9620   24.2000   38.4870 C   0  0  0  0  0  0  0  0  0  0  0  0
   38.9180   23.2940   38.6690 N   0  0  0  0  0  0  0  0  0  0  0  0
   40.4950   22.1530   37.7000 H   0  0  0  0  0  0  0  0  0  0  0  0
   40.0590   23.1580   35.4720 H   0  0  0  0  0  0  0  0  0  0  0  0
   37.3330   24.5380   39.2950 H   0  0  0  0  0  0  0  0  0  0  0  0
  1  2  1  0  0  0  0
  1 26  1  0  0  0  0
  2  3  1  0  0  0  0
  4  5  1  0  0  0  0
  4  2  2  0  0  0  0
  6  4  1  0  0  0  0
  7  6  2  0  0  0  0
  7  8  1  0  0  0  0
  8  1  2  0  0  0  0
  9  8  1  0  0  0  0
 10  7  1  0  0  0  0
 11 20  1  0  0  0  0
 11 10  1  0  0  0  0
 12 11  2  0  0  0  0
 13 12  1  0  0  0  0
 14 16  2  0  0  0  0
 14 12  1  0  0  0  0
 15 14  1  0  0  0  0
 16 18  1  0  0  0  0
 17 16  1  0  0  0  0
 18 19  1  0  0  0  0
 18 20  2  0  0  0  0
 20 21  1  0  0  0  0
 21 22  1  0  0  0  0
 21  6  1  0  0  0  0
 23 32  1  0  0  0  0
 24 23  2  0  0  0  0
 25 26  2  0  0  0  0
 25 24  1  0  0  0  0
 26 27  1  0  0  0  0
 27 23  1  0  0  0  0
 28 24  1  0  0  0  0
 29 25  1  0  0  0  0
 30 36  1  0  0  0  0
 30 35  1  0  0  0  0
 31 30  2  0  0  0  0
 32 31  1  0  0  0  0
 32 33  2  0  0  0  0
 33 34  1  0  0  0  0
 34 35  2  0  0  0  0
 34 38  1  0  0  0  0
 37 31  1  0  0  0  0
M  END
>  <minimizedAffinity>
-5.86133432

$$$$

 OpenBabel03272503183D

 38 42  0  0  0  0  0  0  0  0999 V2000
   37.3020   27.4790   33.5430 C   0  0  0  0  0  0  0  0  0  0  0  0
   38.2400   27.3060   32.5590 C   0  0  0  0  0  0  0  0  0  0  0  0
   38.2900   27.8520   31.6460 H   0  0  0  0  0  0  0  0  0  0  0  0
   39.1720   26.3070   32.8630 C   0  0  0  0  0  0  0  0  0  0  0  0
   39.9330   26.1490   32.0900 H   0  0  0  0  0  0  0  0  0  0  0  0
   39.1520   25.5690   34.0280 C   0  0  0  0  0  0  0  0  0  0  0  0
   38.1580   25.8390   34.9360 C   0  0  0  0  0  0  0  0  0  0  0  0
   37.2200   26.7950   34.7070 C   0  0  0  0  0  0  0  0  0  0  0  0
   36.4510   26.9840   35.4420 H   0  0  0  0  0  0  0  0  0  0  0  0
   38.1110   24.9010   36.4490 S   0  0  0  0  0  0  0  0  0  0  0  0
   39.4850   23.7700   36.3670 C   0  0  0  0  0  0  0  0  0  0  0  0
   39.6040   22.9580   37.4640 C   0  0  0  0  0  0  0  0  0  0  0  0
   38.9590   22.9650   38.3140 H   0  0  0  0  0  0  0  0  0  0  0  0
   40.6560   22.0370   37.4860 C   0  0  0  0  0  0  0  0  0  0  0  0
   40.8390   21.3550   38.2970 H   0  0  0  0  0  0  0  0  0  0  0  0
   41.5200   21.9870   36.4120 C   0  0  0  0  0  0  0  0  0  0  0  0
   42.3360   21.2790   36.4190 H   0  0  0  0  0  0  0  0  0  0  0  0
   41.3090   22.8510   35.3570 C   0  0  0  0  0  0  0  0  0  0  0  0
   42.0430   22.7450   34.5420 H   0  0  0  0  0  0  0  0  0  0  0  0
   40.2930   23.7810   35.2730 C   0  0  0  0  0  0  0  0  0  0  0  0
   40.1810   24.6050   34.1480 N   0  0  0  0  0  0  0  0  0  0  0  0
   40.8970   24.4700   33.4040 H   0  0  0  0  0  0  0  0  0  0  0  0
   34.6540   30.3170   32.2590 C   0  0  0  0  0  0  0  0  0  0  0  0
   34.5310   30.0410   33.5590 C   0  0  0  0  0  0  0  0  0  0  0  0
   35.3190   29.1360   34.1480 C   0  0  0  0  0  0  0  0  0  0  0  0
   36.2530   28.5130   33.3390 C   0  0  0  0  0  0  0  0  0  0  0  0
   35.9460   29.2890   31.6920 S   0  0  0  0  0  0  0  0  0  0  0  0
   33.7670   30.5730   34.1540 H   0  0  0  0  0  0  0  0  0  0  0  0
   35.3430   28.8060   35.1750 H   0  0  0  0  0  0  0  0  0  0  0  0
   33.6670   33.1550   29.9980 C   0  0  0  0  0  0  0  0  0  0  0  0
   34.4990   32.3240   30.7660 C   0  0  0  0  0  0  0  0  0  0  0  0
   33.9010   31.2650   31.4220 C   0  0  0  0  0  0  0  0  0  0  0  0
   32.5740   31.0840   31.2980 N   0  0  0  0  0  0  0  0  0  0  0  0
   31.7960   31.8800   30.5650 C   0  0  0  0  0  0  0  0  0  0  0  0
   32.3440   32.9080   29.9230 N   0  0  0  0  0  0  0  0  0  0  0  0
   34.2000   33.9630   29.5120 H   0  0  0  0  0  0  0  0  0  0  0  0
   35.5600   32.4190   30.9000 H   0  0  0  0  0  0  0  0  0  0  0  0
   30.7390   31.6720   30.5140 H   0  0  0  0  0  0  0  0  0  0  0  0
  1  8  1  0  0  0  0
  2  4  1  0  0  0  0
  2  1  2  0  0  0  0
  3  2  1  0  0  0  0
  4  6  2  0  0  0  0
  5  4  1  0  0  0  0
  6 21  1  0  0  0  0
  6  7  1  0  0  0  0
  7 10  1  0  0  0  0
  8  7  2  0  0  0  0
  8  9  1  0  0  0  0
 11 10  1  0  0  0  0
 11 12  1  0  0  0  0
 12 14  2  0  0  0  0
 12 13  1  0  0  0  0
 14 15  1  0  0  0  0
 16 17  1  0  0  0  0
 16 14  1  0  0  0  0
 18 16  2  0  0  0  0
 19 18  1  0  0  0  0
 20 18  1  0  0  0  0
 20 11  2  0  0  0  0
 21 20  1  0  0  0  0
 22 21  1  0  0  0  0
 23 24  2  0  0  0  0
 24 25  1  0  0  0  0
 24 28  1  0  0  0  0
 25 29  1  0  0  0  0
 26  1  1  0  0  0  0
 26 25  2  0  0  0  0
 27 23  1  0  0  0  0
 27 26  1  0  0  0  0
 30 31  1  0  0  0  0
 31 37  1  0  0  0  0
 31 32  2  0  0  0  0
 32 23  1  0  0  0  0
 33 32  1  0  0  0  0
 34 33  2  0  0  0  0
 35 30  2  0  0  0  0
 35 34  1  0  0  0  0
 36 30  1  0  0  0  0
 38 34  1  0  0  0  0
M  END
>  <minimizedAffinity>
-5.82390547

$$$$

 OpenBabel03272503183D

 38 42  0  0  0  0  0  0  0  0999 V2000
   36.8910   28.2080   32.6360 C   0  0  0  0  0  0  0  0  0  0  0  0
   37.2100   28.6050   31.3630 C   0  0  0  0  0  0  0  0  0  0  0  0
   38.0570   28.2780   30.8050 H   0  0  0  0  0  0  0  0  0  0  0  0
   36.2940   29.5180   30.8290 C   0  0  0  0  0  0  0  0  0  0  0  0
   36.5290   29.8500   29.8110 H   0  0  0  0  0  0  0  0  0  0  0  0
   35.1840   29.9750   31.5080 C   0  0  0  0  0  0  0  0  0  0  0  0
   34.9750   29.5000   32.7800 C   0  0  0  0  0  0  0  0  0  0  0  0
   35.8230   28.6130   33.3610 C   0  0  0  0  0  0  0  0  0  0  0  0
   35.6310   28.2590   34.3640 H   0  0  0  0  0  0  0  0  0  0  0  0
   33.5470   30.0750   33.6770 S   0  0  0  0  0  0  0  0  0  0  0  0
   32.7060   31.2060   32.5880 C   0  0  0  0  0  0  0  0  0  0  0  0
   31.5700   31.7520   33.1230 C   0  0  0  0  0  0  0  0  0  0  0  0
   31.1820   31.5500   34.0960 H   0  0  0  0  0  0  0  0  0  0  0  0
   30.8430   32.6530   32.3370 C   0  0  0  0  0  0  0  0  0  0  0  0
   29.9390   33.1370   32.6600 H   0  0  0  0  0  0  0  0  0  0  0  0
   31.3000   32.9490   31.0690 C   0  0  0  0  0  0  0  0  0  0  0  0
   30.7460   33.6440   30.4540 H   0  0  0  0  0  0  0  0  0  0  0  0
   32.4580   32.3420   30.6280 C   0  0  0  0  0  0  0  0  0  0  0  0
   32.7520   32.6340   29.6070 H   0  0  0  0  0  0  0  0  0  0  0  0
   33.2190   31.4470   31.3520 C   0  0  0  0  0  0  0  0  0  0  0  0
   34.3790   30.8950   30.7960 N   0  0  0  0  0  0  0  0  0  0  0  0
   34.6170   31.2000   29.8280 H   0  0  0  0  0  0  0  0  0  0  0  0
   38.7820   25.4580   34.9960 C   0  0  0  0  0  0  0  0  0  0  0  0
   39.5300   25.8620   33.9670 C   0  0  0  0  0  0  0  0  0  0  0  0
   39.0680   26.7610   33.0920 C   0  0  0  0  0  0  0  0  0  0  0  0
   37.7890   27.2380   33.3160 C   0  0  0  0  0  0  0  0  0  0  0  0
   37.2780   26.3320   34.8430 S   0  0  0  0  0  0  0  0  0  0  0  0
   40.5450   25.4450   33.8420 H   0  0  0  0  0  0  0  0  0  0  0  0
   39.5450   27.1840   32.2210 H   0  0  0  0  0  0  0  0  0  0  0  0
   38.7080   23.3830   38.1320 C   0  0  0  0  0  0  0  0  0  0  0  0
   38.3030   24.3420   37.1890 C   0  0  0  0  0  0  0  0  0  0  0  0
   39.0890   24.4900   36.0620 C   0  0  0  0  0  0  0  0  0  0  0  0
   40.1860   23.7240   35.9240 N   0  0  0  0  0  0  0  0  0  0  0  0
   40.5590   22.8170   36.8260 C   0  0  0  0  0  0  0  0  0  0  0  0
   39.8210   22.6520   37.9210 N   0  0  0  0  0  0  0  0  0  0  0  0
   38.0480   23.3180   38.9880 H   0  0  0  0  0  0  0  0  0  0  0  0
   37.4410   24.9790   37.2460 H   0  0  0  0  0  0  0  0  0  0  0  0
   41.4510   22.2390   36.6460 H   0  0  0  0  0  0  0  0  0  0  0  0
  1 26  1  0  0  0  0
  1  8  1  0  0  0  0
  2  1  2  0  0  0  0
  3  2  1  0  0  0  0
  4  2  1  0  0  0  0
  4  6  2  0  0  0  0
  5  4  1  0  0  0  0
  6  7  1  0  0  0  0
  7  8  2  0  0  0  0
  7 10  1  0  0  0  0
  8  9  1  0  0  0  0
 11 12  1  0  0  0  0
 11 10  1  0  0  0  0
 12 13  1  0  0  0  0
 14 15  1  0  0  0  0
 14 12  2  0  0  0  0
 16 14  1  0  0  0  0
 17 16  1  0  0  0  0
 18 16  2  0  0  0  0
 18 20  1  0  0  0  0
 19 18  1  0  0  0  0
 20 11  2  0  0  0  0
 21 20  1  0  0  0  0
 21  6  1  0  0  0  0
 22 21  1  0  0  0  0
 23 32  1  0  0  0  0
 24 23  2  0  0  0  0
 25 26  2  0  0  0  0
 25 24  1  0  0  0  0
 26 27  1  0  0  0  0
 27 23  1  0  0  0  0
 28 24  1  0  0  0  0
 29 25  1  0  0  0  0
 30 36  1  0  0  0  0
 31 37  1  0  0  0  0
 31 30  2  0  0  0  0
 32 31  1  0  0  0  0
 33 32  2  0  0  0  0
 33 34  1  0  0  0  0
 34 35  2  0  0  0  0
 35 30  1  0  0  0  0
 38 34  1  0  0  0  0
M  END
>  <minimizedAffinity>
-5.81202745

$$$$

 OpenBabel03272503183D

 38 42  0  0  0  0  0  0  0  0999 V2000
   35.5990   29.4010   33.9940 C   0  0  0  0  0  0  0  0  0  0  0  0
   35.0860   29.4650   32.7250 C   0  0  0  0  0  0  0  0  0  0  0  0
   34.4770   30.2510   32.3420 H   0  0  0  0  0  0  0  0  0  0  0  0
   35.4390   28.3660   31.9350 C   0  0  0  0  0  0  0  0  0  0  0  0
   35.0390   28.3950   30.9140 H   0  0  0  0  0  0  0  0  0  0  0  0
   36.2220   27.3220   32.3810 C   0  0  0  0  0  0  0  0  0  0  0  0
   36.6760   27.3750   33.6760 C   0  0  0  0  0  0  0  0  0  0  0  0
   36.3720   28.4110   34.4990 C   0  0  0  0  0  0  0  0  0  0  0  0
   36.7450   28.4240   35.5130 H   0  0  0  0  0  0  0  0  0  0  0  0
   37.6910   26.0390   34.2760 S   0  0  0  0  0  0  0  0  0  0  0  0
   37.8550   24.9000   32.9160 C   0  0  0  0  0  0  0  0  0  0  0  0
   38.6140   23.7970   33.2040 C   0  0  0  0  0  0  0  0  0  0  0  0
   39.0850   23.5940   34.1390 H   0  0  0  0  0  0  0  0  0  0  0  0
   38.7980   22.8470   32.1930 C   0  0  0  0  0  0  0  0  0  0  0  0
   39.3740   21.9470   32.3140 H   0  0  0  0  0  0  0  0  0  0  0  0
   38.2110   23.0610   30.9640 C   0  0  0  0  0  0  0  0  0  0  0  0
   38.3460   22.3330   30.1760 H   0  0  0  0  0  0  0  0  0  0  0  0
   37.4650   24.2070   30.7810 C   0  0  0  0  0  0  0  0  0  0  0  0
   37.0310   24.2990   29.7720 H   0  0  0  0  0  0  0  0  0  0  0  0
   37.2460   25.1810   31.7330 C   0  0  0  0  0  0  0  0  0  0  0  0
   36.4680   26.3040   31.4300 N   0  0  0  0  0  0  0  0  0  0  0  0
   36.0800   26.3490   30.4640 H   0  0  0  0  0  0  0  0  0  0  0  0
   34.0540   32.4030   36.2970 C   0  0  0  0  0  0  0  0  0  0  0  0
   35.3500   32.1850   36.5280 C   0  0  0  0  0  0  0  0  0  0  0  0
   36.0180   31.2380   35.8620 C   0  0  0  0  0  0  0  0  0  0  0  0
   35.2940   30.5110   34.9340 C   0  0  0  0  0  0  0  0  0  0  0  0
   33.6070   31.2500   35.0640 S   0  0  0  0  0  0  0  0  0  0  0  0
   35.8750   32.8000   37.2820 H   0  0  0  0  0  0  0  0  0  0  0  0
   37.0540   30.9450   35.9330 H   0  0  0  0  0  0  0  0  0  0  0  0
   32.5930   35.2420   38.2850 C   0  0  0  0  0  0  0  0  0  0  0  0
   33.5690   34.3730   37.7690 C   0  0  0  0  0  0  0  0  0  0  0  0
   33.1390   33.3800   36.9090 C   0  0  0  0  0  0  0  0  0  0  0  0
   31.8300   33.2940   36.6130 N   0  0  0  0  0  0  0  0  0  0  0  0
   30.9140   34.1250   37.1090 C   0  0  0  0  0  0  0  0  0  0  0  0
   31.2990   35.0900   37.9390 N   0  0  0  0  0  0  0  0  0  0  0  0
   32.9980   35.9940   38.9500 H   0  0  0  0  0  0  0  0  0  0  0  0
   34.6240   34.3940   37.9700 H   0  0  0  0  0  0  0  0  0  0  0  0
   29.8820   33.9930   36.8250 H   0  0  0  0  0  0  0  0  0  0  0  0
  1  8  1  0  0  0  0
  1 26  1  0  0  0  0
  2  1  2  0  0  0  0
  3  2  1  0  0  0  0
  4  6  2  0  0  0  0
  4  2  1  0  0  0  0
  5  4  1  0  0  0  0
  6  7  1  0  0  0  0
  7 10  1  0  0  0  0
  7  8  2  0  0  0  0
  8  9  1  0  0  0  0
 11 12  1  0  0  0  0
 11 10  1  0  0  0  0
 12 13  1  0  0  0  0
 14 15  1  0  0  0  0
 14 12  2  0  0  0  0
 16 14  1  0  0  0  0
 17 16  1  0  0  0  0
 18 16  2  0  0  0  0
 18 20  1  0  0  0  0
 19 18  1  0  0  0  0
 20 11  2  0  0  0  0
 21 20  1  0  0  0  0
 21  6  1  0  0  0  0
 22 21  1  0  0  0  0
 23 24  2  0  0  0  0
 23 32  1  0  0  0  0
 24 28  1  0  0  0  0
 25 29  1  0  0  0  0
 25 24  1  0  0  0  0
 26 27  1  0  0  0  0
 26 25  2  0  0  0  0
 27 23  1  0  0  0  0
 30 36  1  0  0  0  0
 31 37  1  0  0  0  0
 31 30  2  0  0  0  0
 32 31  1  0  0  0  0
 33 32  2  0  0  0  0
 33 34  1  0  0  0  0
 34 35  2  0  0  0  0
 35 30  1  0  0  0  0
 38 34  1  0  0  0  0
M  END
>  <minimizedAffinity>
-5.8118

$$$$

 OpenBabel03272503183D

 38 42  0  0  0  0  0  0  0  0999 V2000
   36.4320   28.4100   33.4200 C   0  0  0  0  0  0  0  0  0  0  0  0
   36.8370   28.5450   32.1180 C   0  0  0  0  0  0  0  0  0  0  0  0
   37.6900   28.0770   31.6820 H   0  0  0  0  0  0  0  0  0  0  0  0
   36.0040   29.3850   31.3700 C   0  0  0  0  0  0  0  0  0  0  0  0
   36.3090   29.5090   30.3240 H   0  0  0  0  0  0  0  0  0  0  0  0
   34.8910   30.0150   31.8850 C   0  0  0  0  0  0  0  0  0  0  0  0
   34.5910   29.7990   33.2070 C   0  0  0  0  0  0  0  0  0  0  0  0
   35.3540   28.9960   33.9920 C   0  0  0  0  0  0  0  0  0  0  0  0
   35.0920   28.8460   35.0300 H   0  0  0  0  0  0  0  0  0  0  0  0
   33.1570   30.6010   33.8950 S   0  0  0  0  0  0  0  0  0  0  0  0
   32.4400   31.5480   32.5670 C   0  0  0  0  0  0  0  0  0  0  0  0
   31.3130   32.2400   32.9220 C   0  0  0  0  0  0  0  0  0  0  0  0
   30.8660   32.2430   33.8910 H   0  0  0  0  0  0  0  0  0  0  0  0
   30.6820   33.0110   31.9410 C   0  0  0  0  0  0  0  0  0  0  0  0
   29.7930   33.5920   32.1140 H   0  0  0  0  0  0  0  0  0  0  0  0
   31.2180   33.0420   30.6710 C   0  0  0  0  0  0  0  0  0  0  0  0
   30.7390   33.6350   29.9050 H   0  0  0  0  0  0  0  0  0  0  0  0
   32.3580   32.3070   30.4200 C   0  0  0  0  0  0  0  0  0  0  0  0
   32.7210   32.3870   29.3820 H   0  0  0  0  0  0  0  0  0  0  0  0
   33.0280   31.5270   31.3410 C   0  0  0  0  0  0  0  0  0  0  0  0
   34.1790   30.8240   30.9680 N   0  0  0  0  0  0  0  0  0  0  0  0
   34.4830   30.9300   29.9770 H   0  0  0  0  0  0  0  0  0  0  0  0
   38.5360   25.4920   35.3600 C   0  0  0  0  0  0  0  0  0  0  0  0
   38.5000   26.6430   36.0350 C   0  0  0  0  0  0  0  0  0  0  0  0
   37.8540   27.7060   35.5470 C   0  0  0  0  0  0  0  0  0  0  0  0
   37.2350   27.5420   34.3210 C   0  0  0  0  0  0  0  0  0  0  0  0
   37.6270   25.7870   33.8990 S   0  0  0  0  0  0  0  0  0  0  0  0
   39.0130   26.7120   37.0110 H   0  0  0  0  0  0  0  0  0  0  0  0
   37.7350   28.6930   35.9670 H   0  0  0  0  0  0  0  0  0  0  0  0
   40.4560   22.2590   35.2540 C   0  0  0  0  0  0  0  0  0  0  0  0
   39.8890   23.4590   34.7940 C   0  0  0  0  0  0  0  0  0  0  0  0
   39.1810   24.2150   35.7080 C   0  0  0  0  0  0  0  0  0  0  0  0
   39.0700   23.7750   36.9740 N   0  0  0  0  0  0  0  0  0  0  0  0
   39.6140   22.6340   37.3990 C   0  0  0  0  0  0  0  0  0  0  0  0
   40.3000   21.8860   36.5400 N   0  0  0  0  0  0  0  0  0  0  0  0
   40.9950   21.7180   34.4870 H   0  0  0  0  0  0  0  0  0  0  0  0
   39.9450   23.8590   33.7980 H   0  0  0  0  0  0  0  0  0  0  0  0
   39.4820   22.3460   38.4300 H   0  0  0  0  0  0  0  0  0  0  0  0
  1  8  1  0  0  0  0
  1 26  1  0  0  0  0
  2  1  2  0  0  0  0
  3  2  1  0  0  0  0
  4  6  2  0  0  0  0
  4  2  1  0  0  0  0
  5  4  1  0  0  0  0
  6  7  1  0  0  0  0
  7 10  1  0  0  0  0
  7  8  2  0  0  0  0
  8  9  1  0  0  0  0
 11 12  1  0  0  0  0
 11 10  1  0  0  0  0
 12 13  1  0  0  0  0
 14 15  1  0  0  0  0
 14 12  2  0  0  0  0
 16 14  1  0  0  0  0
 17 16  1  0  0  0  0
 18 16  2  0  0  0  0
 18 20  1  0  0  0  0
 19 18  1  0  0  0  0
 20 11  2  0  0  0  0
 21 20  1  0  0  0  0
 21  6  1  0  0  0  0
 22 21  1  0  0  0  0
 23 32  1  0  0  0  0
 23 24  2  0  0  0  0
 24 28  1  0  0  0  0
 25 29  1  0  0  0  0
 25 24  1  0  0  0  0
 26 25  2  0  0  0  0
 27 26  1  0  0  0  0
 27 23  1  0  0  0  0
 30 35  1  0  0  0  0
 31 30  2  0  0  0  0
 31 32  1  0  0  0  0
 32 33  2  0  0  0  0
 33 34  1  0  0  0  0
 34 38  1  0  0  0  0
 35 34  2  0  0  0  0
 36 30  1  0  0  0  0
 37 31  1  0  0  0  0
M  END
>  <minimizedAffinity>
-5.80841303

$$$$

 OpenBabel03272503183D

 38 42  0  0  0  0  0  0  0  0999 V2000
   38.2330   27.3980   31.9510 C   0  0  0  0  0  0  0  0  0  0  0  0
   37.1620   27.8800   32.6560 C   0  0  0  0  0  0  0  0  0  0  0  0
   36.4890   28.6360   32.3220 H   0  0  0  0  0  0  0  0  0  0  0  0
   37.0130   27.2740   33.9080 C   0  0  0  0  0  0  0  0  0  0  0  0
   36.1620   27.6450   34.4920 H   0  0  0  0  0  0  0  0  0  0  0  0
   37.8550   26.2940   34.3890 C   0  0  0  0  0  0  0  0  0  0  0  0
   38.8950   25.8960   33.5850 C   0  0  0  0  0  0  0  0  0  0  0  0
   39.0990   26.4410   32.3580 C   0  0  0  0  0  0  0  0  0  0  0  0
   39.9260   26.1060   31.7490 H   0  0  0  0  0  0  0  0  0  0  0  0
   39.9960   24.6300   34.1830 S   0  0  0  0  0  0  0  0  0  0  0  0
   39.3990   24.1860   35.8020 C   0  0  0  0  0  0  0  0  0  0  0  0
   40.1370   23.2120   36.4190 C   0  0  0  0  0  0  0  0  0  0  0  0
   40.9980   22.7320   36.0100 H   0  0  0  0  0  0  0  0  0  0  0  0
   39.7400   22.7990   37.6950 C   0  0  0  0  0  0  0  0  0  0  0  0
   40.2490   22.0430   38.2670 H   0  0  0  0  0  0  0  0  0  0  0  0
   38.6330   23.3860   38.2710 C   0  0  0  0  0  0  0  0  0  0  0  0
   38.3180   23.0750   39.2570 H   0  0  0  0  0  0  0  0  0  0  0  0
   37.9610   24.3600   37.5610 C   0  0  0  0  0  0  0  0  0  0  0  0
   37.0900   24.7770   38.0920 H   0  0  0  0  0  0  0  0  0  0  0  0
   38.2990   24.8110   36.3010 C   0  0  0  0  0  0  0  0  0  0  0  0
   37.5380   25.8070   35.6790 N   0  0  0  0  0  0  0  0  0  0  0  0
   36.7240   26.1700   36.2190 H   0  0  0  0  0  0  0  0  0  0  0  0
   38.4980   29.5100   28.4620 C   0  0  0  0  0  0  0  0  0  0  0  0
   39.2320   28.3960   28.4520 C   0  0  0  0  0  0  0  0  0  0  0  0
   39.2630   27.5830   29.5120 C   0  0  0  0  0  0  0  0  0  0  0  0
   38.4990   27.9620   30.6020 C   0  0  0  0  0  0  0  0  0  0  0  0
   37.7350   29.5440   30.0320 S   0  0  0  0  0  0  0  0  0  0  0  0
   39.8210   28.1460   27.5510 H   0  0  0  0  0  0  0  0  0  0  0  0
   39.8000   26.6580   29.6570 H   0  0  0  0  0  0  0  0  0  0  0  0
   38.9550   31.7440   25.4710 C   0  0  0  0  0  0  0  0  0  0  0  0
   39.2420   30.7360   26.4060 C   0  0  0  0  0  0  0  0  0  0  0  0
   38.3220   30.5330   27.4170 C   0  0  0  0  0  0  0  0  0  0  0  0
   37.2160   31.2970   27.4590 N   0  0  0  0  0  0  0  0  0  0  0  0
   36.9560   32.2500   26.5650 C   0  0  0  0  0  0  0  0  0  0  0  0
   37.8230   32.4680   25.5800 N   0  0  0  0  0  0  0  0  0  0  0  0
   39.7160   31.8500   24.7070 H   0  0  0  0  0  0  0  0  0  0  0  0
   40.1050   30.0970   26.4220 H   0  0  0  0  0  0  0  0  0  0  0  0
   36.0470   32.8230   26.6630 H   0  0  0  0  0  0  0  0  0  0  0  0
  1  8  2  0  0  0  0
  1  2  1  0  0  0  0
  2  4  2  0  0  0  0
  3  2  1  0  0  0  0
  4  6  1  0  0  0  0
  4  5  1  0  0  0  0
  6 21  1  0  0  0  0
  7 10  1  0  0  0  0
  7  6  2  0  0  0  0
  8  7  1  0  0  0  0
  9  8  1  0  0  0  0
 10 11  1  0  0  0  0
 11 20  2  0  0  0  0
 11 12  1  0  0  0  0
 12 14  2  0  0  0  0
 13 12  1  0  0  0  0
 14 15  1  0  0  0  0
 14 16  1  0  0  0  0
 16 17  1  0  0  0  0
 18 19  1  0  0  0  0
 18 16  2  0  0  0  0
 20 18  1  0  0  0  0
 21 22  1  0  0  0  0
 21 20  1  0  0  0  0
 23 27  1  0  0  0  0
 24 23  2  0  0  0  0
 24 25  1  0  0  0  0
 25 29  1  0  0  0  0
 25 26  2  0  0  0  0
 26  1  1  0  0  0  0
 27 26  1  0  0  0  0
 28 24  1  0  0  0  0
 30 35  2  0  0  0  0
 30 31  1  0  0  0  0
 31 37  1  0  0  0  0
 31 32  2  0  0  0  0
 32 33  1  0  0  0  0
 32 23  1  0  0  0  0
 34 38  1  0  0  0  0
 34 33  2  0  0  0  0
 35 34  1  0  0  0  0
 36 30  1  0  0  0  0
M  END
>  <minimizedAffinity>
-5.73733473

$$$$
