
 OpenBabel03272500113D

 34 37  0  0  0  0  0  0  0  0999 V2000
   33.4600   27.7200   47.7580 C   0  0  0  0  0  0  0  0  0  0  0  0
   33.6310   26.3560   47.6380 C   0  0  0  0  0  0  0  0  0  0  0  0
   34.5010   25.9090   48.0770 H   0  0  0  0  0  0  0  0  0  0  0  0
   32.6810   25.6210   46.9610 C   0  0  0  0  0  0  0  0  0  0  0  0
   32.9030   24.5430   46.9170 H   0  0  0  0  0  0  0  0  0  0  0  0
   31.5470   26.1520   46.3820 C   0  0  0  0  0  0  0  0  0  0  0  0
   31.3880   27.5100   46.5080 C   0  0  0  0  0  0  0  0  0  0  0  0
   32.3270   28.2490   47.1780 C   0  0  0  0  0  0  0  0  0  0  0  0
   32.1740   29.3270   47.2630 H   0  0  0  0  0  0  0  0  0  0  0  0
   29.9570   28.2480   45.7870 S   0  0  0  0  0  0  0  0  0  0  0  0
   29.0200   26.9360   45.0240 C   0  0  0  0  0  0  0  0  0  0  0  0
   27.8640   27.3050   44.4050 C   0  0  0  0  0  0  0  0  0  0  0  0
   27.5220   28.3240   44.3700 H   0  0  0  0  0  0  0  0  0  0  0  0
   27.0980   26.3320   43.7990 C   0  0  0  0  0  0  0  0  0  0  0  0
   26.1740   26.5660   43.2940 H   0  0  0  0  0  0  0  0  0  0  0  0
   27.5260   25.0230   43.8400 C   0  0  0  0  0  0  0  0  0  0  0  0
   26.9460   24.2390   43.3720 H   0  0  0  0  0  0  0  0  0  0  0  0
   28.7100   24.7350   44.4870 C   0  0  0  0  0  0  0  0  0  0  0  0
   28.9960   23.6720   44.4830 H   0  0  0  0  0  0  0  0  0  0  0  0
   29.5190   25.6630   45.1120 C   0  0  0  0  0  0  0  0  0  0  0  0
   30.6910   25.2330   45.7310 N   0  0  0  0  0  0  0  0  0  0  0  0
   30.9240   24.2170   45.7030 H   0  0  0  0  0  0  0  0  0  0  0  0
   35.5150   29.1330   50.4410 C   0  0  0  0  0  0  0  0  0  0  0  0
   36.2570   30.1190   49.7610 C   0  0  0  0  0  0  0  0  0  0  0  0
   36.0420   30.2870   48.3870 C   0  0  0  0  0  0  0  0  0  0  0  0
   35.1160   29.4750   47.7850 N   0  0  0  0  0  0  0  0  0  0  0  0
   34.4310   28.5500   48.4610 C   0  0  0  0  0  0  0  0  0  0  0  0
   34.6090   28.3620   49.7730 N   0  0  0  0  0  0  0  0  0  0  0  0
   35.6360   28.9600   51.4860 H   0  0  0  0  0  0  0  0  0  0  0  0
   36.6150   31.0480   47.8730 H   0  0  0  0  0  0  0  0  0  0  0  0
   37.2350   30.9360   50.5450 C   0  0  0  0  0  0  0  0  0  0  0  0
   38.5140   30.8370   49.9930 F   0  0  0  0  0  0  0  0  0  0  0  0
   36.8490   32.2550   50.4630 F   0  0  0  0  0  0  0  0  0  0  0  0
   37.3050   30.5690   51.8610 F   0  0  0  0  0  0  0  0  0  0  0  0
  1 27  1  0  0  0  0
  2  1  1  0  0  0  0
  2  3  1  0  0  0  0
  4  2  2  0  0  0  0
  5  4  1  0  0  0  0
  6  7  2  0  0  0  0
  6  4  1  0  0  0  0
  7  8  1  0  0  0  0
  8  9  1  0  0  0  0
  8  1  2  0  0  0  0
 10  7  1  0  0  0  0
 11 20  1  0  0  0  0
 11 10  1  0  0  0  0
 12 11  2  0  0  0  0
 13 12  1  0  0  0  0
 14 16  2  0  0  0  0
 14 12  1  0  0  0  0
 15 14  1  0  0  0  0
 16 18  1  0  0  0  0
 17 16  1  0  0  0  0
 18 20  2  0  0  0  0
 19 18  1  0  0  0  0
 20 21  1  0  0  0  0
 21  6  1  0  0  0  0
 22 21  1  0  0  0  0
 23 29  1  0  0  0  0
 24 23  2  0  0  0  0
 24 31  1  0  0  0  0
 25 24  1  0  0  0  0
 26 25  2  0  0  0  0
 26 27  1  0  0  0  0
 27 28  2  0  0  0  0
 28 23  1  0  0  0  0
 30 25  1  0  0  0  0
 31 34  1  0  0  0  0
 32 31  1  0  0  0  0
 33 31  1  0  0  0  0
M  END
>  <minimizedAffinity>
-6.11123896

>  <minimizedRMSD>
0.548855126

$$$$
