REMARK  Name = 
REMARK  2 active torsions:
REMARK  status: ('A' for Active; 'I' for Inactive)
REMARK    1  A    between atoms: C_1  and  C_7
REMARK    2  A    between atoms: C_5  and  C_13
REMARK                            x       y       z     vdW  Elec       q    Type
REMARK                         _______ _______ _______ _____ _____    ______ ____
ROOT
ATOM      1  C   UNL     1      36.119  30.539  46.537  0.00  0.00    +0.000 A 
ATOM      2  C   UNL     1      35.846  31.580  45.669  0.00  0.00    +0.000 A 
ATOM      3  H   UNL     1      36.189  32.562  45.902  0.00  0.00    +0.000 HD
ATOM      4  C   UNL     1      35.132  31.280  44.528  0.00  0.00    +0.000 A 
ATOM      5  H   UNL     1      34.952  32.141  43.889  0.00  0.00    +0.000 HD
ATOM      6  C   UNL     1      34.660  30.037  44.165  0.00  0.00    +0.000 A 
ATOM      7  C   UNL     1      34.966  29.053  45.072  0.00  0.00    +0.000 A 
ATOM      8  C   UNL     1      35.666  29.276  46.216  0.00  0.00    +0.000 A 
ATOM      9  H   UNL     1      35.892  28.476  46.913  0.00  0.00    +0.000 HD
ATOM     10  S   UNL     1      34.433  27.381  44.764  0.00  0.00    +0.000 S 
ATOM     11  C   UNL     1      33.559  27.428  43.214  0.00  0.00    +0.000 A 
ATOM     12  C   UNL     1      33.020  26.311  42.685  0.00  0.00    +0.000 A 
ATOM     13  H   UNL     1      33.136  25.369  43.242  0.00  0.00    +0.000 HD
ATOM     14  C   UNL     1      32.327  26.250  41.493  0.00  0.00    +0.000 A 
ATOM     15  H   UNL     1      31.914  25.340  41.109  0.00  0.00    +0.000 HD
ATOM     16  C   UNL     1      32.204  27.455  40.826  0.00  0.00    +0.000 A 
ATOM     17  H   UNL     1      31.671  27.479  39.881  0.00  0.00    +0.000 HD
ATOM     18  C   UNL     1      32.757  28.601  41.365  0.00  0.00    +0.000 A 
ATOM     19  H   UNL     1      32.612  29.517  40.768  0.00  0.00    +0.000 HD
ATOM     20  C   UNL     1      33.441  28.627  42.557  0.00  0.00    +0.000 A 
ATOM     21  N   UNL     1      33.939  29.867  42.965  0.00  0.00    +0.000 N 
ATOM     22  H   UNL     1      33.797  30.725  42.393  0.00  0.00    +0.000 HD
ENDROOT
BRANCH   1  27
ATOM     23  C   UNL     1      37.332  30.280  49.974  0.00  0.00    +0.000 A 
ATOM     24  C   UNL     1      38.291  31.303  50.047  0.00  0.00    +0.000 A 
ATOM     25  C   UNL     1      38.521  32.087  48.904  0.00  0.00    +0.000 A 
ATOM     26  N   UNL     1      37.786  31.792  47.796  0.00  0.00    +0.000 NA
ATOM     27  C   UNL     1      36.871  30.801  47.759  0.00  0.00    +0.000 A 
ATOM     28  N   UNL     1      36.654  30.053  48.852  0.00  0.00    +0.000 NA
ATOM     29  H   UNL     1      38.863  31.514  50.950  0.00  0.00    +0.000 HD
ATOM     30  H   UNL     1      39.238  32.874  48.914  0.00  0.00    +0.000 HD
BRANCH  23  31
ATOM     31  C   UNL     1      37.097  29.448  51.205  0.00  0.00    +0.000 C 
ATOM     32  F   UNL     1      35.733  29.190  51.333  0.00  0.00    +0.000 F 
ATOM     33  F   UNL     1      37.870  28.334  51.109  0.00  0.00    +0.000 F 
ATOM     34  F   UNL     1      37.457  30.227  52.307  0.00  0.00    +0.000 F 
ENDBRANCH  23  31
ENDBRANCH   1  27
TORSDOF 2
