
     RDKit          3D

 37 40  0  0  0  0  0  0  0  0999 V2000
   37.3069   30.1987   51.4362 C   0  0  0  0  0  0  0  0  0  0  0  0
   38.1093   30.7382   50.4131 C   0  0  0  0  0  0  0  0  0  0  0  0
   37.7640   30.4425   49.0762 C   0  0  0  0  0  0  0  0  0  0  0  0
   36.6698   29.6493   48.8614 N   0  0  0  0  0  0  0  0  0  0  0  0
   35.9349   29.1585   49.8899 C   0  0  0  0  0  0  0  0  0  0  0  0
   36.2576   29.4352   51.1510 N   0  0  0  0  0  0  0  0  0  0  0  0
   34.7481   28.2944   49.5480 C   0  0  0  0  0  0  0  0  0  0  0  0
   34.4082   28.4633   48.0882 C   0  0  0  0  0  0  0  0  0  0  0  0
   37.6218   30.4609   52.4483 H   0  0  0  0  0  0  0  0  0  0  0  0
   38.9713   31.3624   50.5646 H   0  0  0  0  0  0  0  0  0  0  0  0
   38.3422   30.8273   48.2281 H   0  0  0  0  0  0  0  0  0  0  0  0
   34.9837   27.2344   49.7684 H   0  0  0  0  0  0  0  0  0  0  0  0
   33.8693   28.5833   50.1613 H   0  0  0  0  0  0  0  0  0  0  0  0
   34.3133   29.5435   47.8511 H   0  0  0  0  0  0  0  0  0  0  0  0
   35.3120   28.1140   47.5150 H   0  0  0  0  0  0  0  0  0  0  0  0
   33.2608   27.6553   47.6681 C   0  0  0  0  0  0  0  0  0  0  0  0
   32.4227   27.0927   48.6100 C   0  0  0  0  0  0  0  0  0  0  0  0
   32.6340   27.2632   49.6739 H   0  0  0  0  0  0  0  0  0  0  0  0
   31.3448   26.3341   48.2462 C   0  0  0  0  0  0  0  0  0  0  0  0
   30.7346   25.9274   49.0629 H   0  0  0  0  0  0  0  0  0  0  0  0
   31.0200   26.0789   46.9318 C   0  0  0  0  0  0  0  0  0  0  0  0
   31.8447   26.6327   46.0113 C   0  0  0  0  0  0  0  0  0  0  0  0
   32.9077   27.3806   46.3653 C   0  0  0  0  0  0  0  0  0  0  0  0
   33.5514   27.8114   45.5834 H   0  0  0  0  0  0  0  0  0  0  0  0
   31.5130   26.3634   44.2806 S   0  0  0  0  0  0  0  0  0  0  0  0
   30.0533   25.3459   44.2292 C   0  0  0  0  0  0  0  0  0  0  0  0
   29.6190   25.0159   42.9859 C   0  0  0  0  0  0  0  0  0  0  0  0
   30.0709   25.3097   42.0471 H   0  0  0  0  0  0  0  0  0  0  0  0
   28.4858   24.2235   42.8381 C   0  0  0  0  0  0  0  0  0  0  0  0
   28.1030   23.9354   41.8667 H   0  0  0  0  0  0  0  0  0  0  0  0
   27.8408   23.7997   43.9770 C   0  0  0  0  0  0  0  0  0  0  0  0
   26.9594   23.1835   43.8631 H   0  0  0  0  0  0  0  0  0  0  0  0
   28.3428   24.1766   45.2124 C   0  0  0  0  0  0  0  0  0  0  0  0
   27.7612   23.7902   46.0482 H   0  0  0  0  0  0  0  0  0  0  0  0
   29.4644   24.9615   45.3855 C   0  0  0  0  0  0  0  0  0  0  0  0
   29.8813   25.2803   46.6751 N   0  0  0  0  0  0  0  0  0  0  0  0
   29.3296   24.9142   47.4806 H   0  0  0  0  0  0  0  0  0  0  0  0
  2  1  2  0
  3  2  1  0
  4  3  2  0
  4  5  1  0
  5  6  2  0
  6  1  1  0
  7  5  1  0
  8  7  1  0
  1  9  1  0
  2 10  1  0
  3 11  1  0
  7 12  1  0
  7 13  1  0
  8 14  1  0
  8 15  1  0
 16 17  2  0
 17 18  1  0
 17 19  1  0
 19 20  1  0
 19 21  2  0
 21 22  1  0
 22 23  2  0
 23 24  1  0
 22 25  1  0
 25 26  1  0
 26 27  2  0
 27 28  1  0
 27 29  1  0
 29 30  1  0
 29 31  2  0
 31 32  1  0
 31 33  1  0
 33 34  1  0
 33 35  2  0
 35 36  1  0
 36 37  1  0
 23 16  1  0
 35 26  1  0
 36 21  1  0
  8 16  1  0
M  ISO  8   9  14  10  14  11  14  12   8  13   8  14   8  15   8  18  16
M  ISO  7  20  16  24  16  28  16  30  16  32  16  34  16  37   5
M  END
>  <DihAtoms>  (1) 
6,7,15,16

>  <DihDeg>  (1) 
-89.99600099601308

$$$$
