REMARK  Name = 
REMARK  3 active torsions:
REMARK  status: ('A' for Active; 'I' for Inactive)
REMARK    1  A    between atoms: C_5  and  C_7
REMARK    2  A    between atoms: C_7  and  C_8
REMARK    3  A    between atoms: C_8  and  C_16
REMARK                            x       y       z     vdW  Elec       q    Type
REMARK                         _______ _______ _______ _____ _____    ______ ____
ROOT
ATOM      1  C   UNL     1      33.261  27.655  47.668  0.00  0.00    +0.000 A 
ATOM      2  C   UNL     1      32.034  28.249  47.447  0.00  0.00    +0.000 A 
ATOM      3  H   UNL     1      31.939  29.333  47.592  0.00  0.00    +0.000 HD
ATOM      4  C   UNL     1      30.947  27.519  47.054  0.00  0.00    +0.000 A 
ATOM      5  H   UNL     1      30.013  28.076  46.902  0.00  0.00    +0.000 HD
ATOM      6  C   UNL     1      30.994  26.157  46.854  0.00  0.00    +0.000 A 
ATOM      7  C   UNL     1      32.199  25.579  47.072  0.00  0.00    +0.000 A 
ATOM      8  C   UNL     1      33.273  26.294  47.459  0.00  0.00    +0.000 A 
ATOM      9  H   UNL     1      34.233  25.782  47.625  0.00  0.00    +0.000 HD
ATOM     10  S   UNL     1      32.367  23.819  46.840  0.00  0.00    +0.000 S 
ATOM     11  C   UNL     1      30.757  23.249  46.339  0.00  0.00    +0.000 A 
ATOM     12  C   UNL     1      30.660  21.915  46.106  0.00  0.00    +0.000 A 
ATOM     13  H   UNL     1      31.456  21.186  46.196  0.00  0.00    +0.000 HD
ATOM     14  C   UNL     1      29.444  21.370  45.710  0.00  0.00    +0.000 A 
ATOM     15  H   UNL     1      29.319  20.313  45.513  0.00  0.00    +0.000 HD
ATOM     16  C   UNL     1      28.371  22.220  45.568  0.00  0.00    +0.000 A 
ATOM     17  H   UNL     1      27.424  21.797  45.259  0.00  0.00    +0.000 HD
ATOM     18  C   UNL     1      28.546  23.571  45.823  0.00  0.00    +0.000 A 
ATOM     19  H   UNL     1      27.638  24.155  45.682  0.00  0.00    +0.000 HD
ATOM     20  C   UNL     1      29.741  24.135  46.217  0.00  0.00    +0.000 A 
ATOM     21  N   UNL     1      29.805  25.507  46.448  0.00  0.00    +0.000 N 
ATOM     22  H   UNL     1      28.940  26.074  46.315  0.00  0.00    +0.000 HD
ENDROOT
BRANCH   1  23
ATOM     23  C   UNL     1      34.408  28.463  48.088  0.00  0.00    +0.000 C 
ATOM     24  H   UNL     1      34.313  29.544  47.851  0.00  0.00    +0.000 HD
ATOM     25  H   UNL     1      35.312  28.114  47.515  0.00  0.00    +0.000 HD
BRANCH  23  26
ATOM     26  C   UNL     1      34.748  28.294  49.548  0.00  0.00    +0.000 C 
ATOM     27  H   UNL     1      34.984  27.234  49.768  0.00  0.00    +0.000 HD
ATOM     28  H   UNL     1      33.869  28.583  50.161  0.00  0.00    +0.000 HD
BRANCH  26  33
ATOM     29  C   UNL     1      37.307  30.199  51.436  0.00  0.00    +0.000 A 
ATOM     30  C   UNL     1      38.109  30.738  50.413  0.00  0.00    +0.000 A 
ATOM     31  C   UNL     1      37.764  30.442  49.076  0.00  0.00    +0.000 A 
ATOM     32  N   UNL     1      36.670  29.649  48.861  0.00  0.00    +0.000 NA
ATOM     33  C   UNL     1      35.935  29.159  49.890  0.00  0.00    +0.000 A 
ATOM     34  N   UNL     1      36.258  29.435  51.151  0.00  0.00    +0.000 NA
ATOM     35  H   UNL     1      37.622  30.461  52.448  0.00  0.00    +0.000 HD
ATOM     36  H   UNL     1      38.971  31.362  50.565  0.00  0.00    +0.000 HD
ATOM     37  H   UNL     1      38.342  30.827  48.228  0.00  0.00    +0.000 HD
ENDBRANCH  26  33
ENDBRANCH  23  26
ENDBRANCH   1  23
TORSDOF 3
