REMARK  Name = 
REMARK  3 active torsions:
REMARK  status: ('A' for Active; 'I' for Inactive)
REMARK    1  A    between atoms: C_5  and  C_7
REMARK    2  A    between atoms: C_7  and  C_8
REMARK    3  A    between atoms: C_8  and  C_16
REMARK                            x       y       z     vdW  Elec       q    Type
REMARK                         _______ _______ _______ _____ _____    ______ ____
ROOT
ATOM      1  C   UNL     1      33.261  27.655  47.668  0.00  0.00    +0.000 A 
ATOM      2  C   UNL     1      32.257  27.352  48.566  0.00  0.00    +0.000 A 
ATOM      3  H   UNL     1      32.336  27.727  49.594  0.00  0.00    +0.000 HD
ATOM      4  C   UNL     1      31.174  26.600  48.201  0.00  0.00    +0.000 A 
ATOM      5  H   UNL     1      30.426  26.409  48.980  0.00  0.00    +0.000 HD
ATOM      6  C   UNL     1      31.009  26.096  46.929  0.00  0.00    +0.000 A 
ATOM      7  C   UNL     1      31.996  26.396  46.052  0.00  0.00    +0.000 A 
ATOM      8  C   UNL     1      33.064  27.137  46.407  0.00  0.00    +0.000 A 
ATOM      9  H   UNL     1      33.843  27.357  45.661  0.00  0.00    +0.000 HD
ATOM     10  S   UNL     1      31.879  25.793  44.379  0.00  0.00    +0.000 S 
ATOM     11  C   UNL     1      30.355  24.876  44.310  0.00  0.00    +0.000 A 
ATOM     12  C   UNL     1      30.065  24.321  43.105  0.00  0.00    +0.000 A 
ATOM     13  H   UNL     1      30.664  24.385  42.206  0.00  0.00    +0.000 HD
ATOM     14  C   UNL     1      28.896  23.584  42.948  0.00  0.00    +0.000 A 
ATOM     15  H   UNL     1      28.624  23.123  42.006  0.00  0.00    +0.000 HD
ATOM     16  C   UNL     1      28.068  23.445  44.038  0.00  0.00    +0.000 A 
ATOM     17  H   UNL     1      27.159  22.873  43.917  0.00  0.00    +0.000 HD
ATOM     18  C   UNL     1      28.430  24.041  45.236  0.00  0.00    +0.000 A 
ATOM     19  H   UNL     1      27.709  23.872  46.034  0.00  0.00    +0.000 HD
ATOM     20  C   UNL     1      29.583  24.776  45.417  0.00  0.00    +0.000 A 
ATOM     21  N   UNL     1      29.849  25.331  46.666  0.00  0.00    +0.000 N 
ATOM     22  H   UNL     1      29.163  25.174  47.436  0.00  0.00    +0.000 HD
ENDROOT
BRANCH   1  23
ATOM     23  C   UNL     1      34.408  28.463  48.088  0.00  0.00    +0.000 C 
ATOM     24  H   UNL     1      34.313  29.544  47.851  0.00  0.00    +0.000 HD
ATOM     25  H   UNL     1      35.312  28.114  47.515  0.00  0.00    +0.000 HD
BRANCH  23  26
ATOM     26  C   UNL     1      34.748  28.294  49.548  0.00  0.00    +0.000 C 
ATOM     27  H   UNL     1      34.984  27.234  49.768  0.00  0.00    +0.000 HD
ATOM     28  H   UNL     1      33.869  28.583  50.161  0.00  0.00    +0.000 HD
BRANCH  26  33
ATOM     29  C   UNL     1      37.307  30.199  51.436  0.00  0.00    +0.000 A 
ATOM     30  C   UNL     1      38.109  30.738  50.413  0.00  0.00    +0.000 A 
ATOM     31  C   UNL     1      37.764  30.442  49.076  0.00  0.00    +0.000 A 
ATOM     32  N   UNL     1      36.670  29.649  48.861  0.00  0.00    +0.000 NA
ATOM     33  C   UNL     1      35.935  29.159  49.890  0.00  0.00    +0.000 A 
ATOM     34  N   UNL     1      36.258  29.435  51.151  0.00  0.00    +0.000 NA
ATOM     35  H   UNL     1      37.622  30.461  52.448  0.00  0.00    +0.000 HD
ATOM     36  H   UNL     1      38.971  31.362  50.565  0.00  0.00    +0.000 HD
ATOM     37  H   UNL     1      38.342  30.827  48.228  0.00  0.00    +0.000 HD
ENDBRANCH  26  33
ENDBRANCH  23  26
ENDBRANCH   1  23
TORSDOF 3
