
     RDKit          3D

 37 40  0  0  0  0  0  0  0  0999 V2000
   37.3069   30.1987   51.4362 C   0  0  0  0  0  0  0  0  0  0  0  0
   38.1093   30.7382   50.4131 C   0  0  0  0  0  0  0  0  0  0  0  0
   37.7640   30.4425   49.0762 C   0  0  0  0  0  0  0  0  0  0  0  0
   36.6698   29.6493   48.8614 N   0  0  0  0  0  0  0  0  0  0  0  0
   35.9349   29.1585   49.8899 C   0  0  0  0  0  0  0  0  0  0  0  0
   36.2576   29.4352   51.1510 N   0  0  0  0  0  0  0  0  0  0  0  0
   34.7481   28.2944   49.5480 C   0  0  0  0  0  0  0  0  0  0  0  0
   34.4082   28.4633   48.0882 C   0  0  0  0  0  0  0  0  0  0  0  0
   37.6218   30.4609   52.4483 H   0  0  0  0  0  0  0  0  0  0  0  0
   38.9713   31.3624   50.5646 H   0  0  0  0  0  0  0  0  0  0  0  0
   38.3422   30.8273   48.2281 H   0  0  0  0  0  0  0  0  0  0  0  0
   34.9837   27.2344   49.7684 H   0  0  0  0  0  0  0  0  0  0  0  0
   33.8693   28.5833   50.1613 H   0  0  0  0  0  0  0  0  0  0  0  0
   34.3133   29.5435   47.8511 H   0  0  0  0  0  0  0  0  0  0  0  0
   35.3120   28.1140   47.5150 H   0  0  0  0  0  0  0  0  0  0  0  0
   33.2608   27.6553   47.6681 C   0  0  0  0  0  0  0  0  0  0  0  0
   33.1586   26.3348   48.0579 C   0  0  0  0  0  0  0  0  0  0  0  0
   33.9512   25.9066   48.6855 H   0  0  0  0  0  0  0  0  0  0  0  0
   32.0989   25.5575   47.6803 C   0  0  0  0  0  0  0  0  0  0  0  0
   32.1016   24.5195   48.0371 H   0  0  0  0  0  0  0  0  0  0  0  0
   31.0696   26.0279   46.8944 C   0  0  0  0  0  0  0  0  0  0  0  0
   31.1739   27.3237   46.5144 C   0  0  0  0  0  0  0  0  0  0  0  0
   32.2162   28.0929   46.8841 C   0  0  0  0  0  0  0  0  0  0  0  0
   32.2602   29.1413   46.5521 H   0  0  0  0  0  0  0  0  0  0  0  0
   29.8939   28.0311   45.4951 S   0  0  0  0  0  0  0  0  0  0  0  0
   28.7189   26.7205   45.2300 C   0  0  0  0  0  0  0  0  0  0  0  0
   27.6456   27.0487   44.4659 C   0  0  0  0  0  0  0  0  0  0  0  0
   27.4468   28.0127   44.0153 H   0  0  0  0  0  0  0  0  0  0  0  0
   26.6698   26.0943   44.1998 C   0  0  0  0  0  0  0  0  0  0  0  0
   25.7972   26.3107   43.5958 H   0  0  0  0  0  0  0  0  0  0  0  0
   26.8352   24.8359   44.7307 C   0  0  0  0  0  0  0  0  0  0  0  0
   26.0768   24.0930   44.5244 H   0  0  0  0  0  0  0  0  0  0  0  0
   27.9568   24.5745   45.5013 C   0  0  0  0  0  0  0  0  0  0  0  0
   27.9932   23.5516   45.8734 H   0  0  0  0  0  0  0  0  0  0  0  0
   28.9384   25.5034   45.7797 C   0  0  0  0  0  0  0  0  0  0  0  0
   30.0253   25.1322   46.5667 N   0  0  0  0  0  0  0  0  0  0  0  0
   30.0673   24.1546   46.9267 H   0  0  0  0  0  0  0  0  0  0  0  0
  2  1  2  0
  3  2  1  0
  4  3  2  0
  4  5  1  0
  5  6  2  0
  6  1  1  0
  7  5  1  0
  8  7  1  0
  1  9  1  0
  2 10  1  0
  3 11  1  0
  7 12  1  0
  7 13  1  0
  8 14  1  0
  8 15  1  0
 16 17  2  0
 17 18  1  0
 17 19  1  0
 19 20  1  0
 19 21  2  0
 21 22  1  0
 22 23  2  0
 23 24  1  0
 22 25  1  0
 25 26  1  0
 26 27  2  0
 27 28  1  0
 27 29  1  0
 29 30  1  0
 29 31  2  0
 31 32  1  0
 31 33  1  0
 33 34  1  0
 33 35  2  0
 35 36  1  0
 36 37  1  0
 23 16  1  0
 35 26  1  0
 36 21  1  0
  8 16  1  0
M  ISO  8   9  14  10  14  11  14  12   8  13   8  14   8  15   8  18  16
M  ISO  7  20  16  24  16  28  16  30  16  32  16  34  16  37   5
M  END
>  <DihAtoms>  (1) 
6,7,15,16

>  <DihDeg>  (1) 
-89.99600099601308

$$$$
