
     RDKit          3D

 34 37  0  0  0  0  0  0  0  0999 V2000
   37.3324   30.2798   49.9737 C   0  0  0  0  0  0  0  0  0  0  0  0
   38.2912   31.3029   50.0470 C   0  0  0  0  0  0  0  0  0  0  0  0
   38.5206   32.0869   48.9043 C   0  0  0  0  0  0  0  0  0  0  0  0
   37.7860   31.7919   47.7964 N   0  0  0  0  0  0  0  0  0  0  0  0
   36.8709   30.8006   47.7586 C   0  0  0  0  0  0  0  0  0  0  0  0
   36.6538   30.0531   48.8517 N   0  0  0  0  0  0  0  0  0  0  0  0
   37.0969   29.4480   51.2046 C   0  0  0  0  0  0  0  0  0  0  0  0
   35.7331   29.1897   51.3328 F   0  0  0  0  0  0  0  0  0  0  0  0
   37.8697   28.3337   51.1090 F   0  0  0  0  0  0  0  0  0  0  0  0
   37.4574   30.2275   52.3070 F   0  0  0  0  0  0  0  0  0  0  0  0
   38.8634   31.5140   50.9502 H   0  0  0  0  0  0  0  0  0  0  0  0
   39.2382   32.8736   48.9139 H   0  0  0  0  0  0  0  0  0  0  0  0
   36.1186   30.5389   46.5366 C   0  0  0  0  0  0  0  0  0  0  0  0
   35.0964   31.3944   46.1700 C   0  0  0  0  0  0  0  0  0  0  0  0
   34.8698   32.2357   46.7845 H   0  0  0  0  0  0  0  0  0  0  0  0
   34.4158   31.1032   45.0065 C   0  0  0  0  0  0  0  0  0  0  0  0
   33.6259   31.8131   44.7752 H   0  0  0  0  0  0  0  0  0  0  0  0
   34.6558   30.0359   44.1674 C   0  0  0  0  0  0  0  0  0  0  0  0
   35.6827   29.2304   44.5933 C   0  0  0  0  0  0  0  0  0  0  0  0
   36.3960   29.4566   45.7284 C   0  0  0  0  0  0  0  0  0  0  0  0
   37.2022   28.7996   46.0366 H   0  0  0  0  0  0  0  0  0  0  0  0
   36.1310   27.8009   43.6285 S   0  0  0  0  0  0  0  0  0  0  0  0
   35.0263   27.7898   42.2331 C   0  0  0  0  0  0  0  0  0  0  0  0
   35.0994   26.8251   41.2943 C   0  0  0  0  0  0  0  0  0  0  0  0
   35.8647   26.0434   41.4183 H   0  0  0  0  0  0  0  0  0  0  0  0
   34.2888   26.7340   40.1817 C   0  0  0  0  0  0  0  0  0  0  0  0
   34.3807   25.9497   39.4595 H   0  0  0  0  0  0  0  0  0  0  0  0
   33.3417   27.7360   40.0655 C   0  0  0  0  0  0  0  0  0  0  0  0
   32.6701   27.7252   39.2129 H   0  0  0  0  0  0  0  0  0  0  0  0
   33.2642   28.7259   41.0254 C   0  0  0  0  0  0  0  0  0  0  0  0
   32.4822   29.4838   40.8554 H   0  0  0  0  0  0  0  0  0  0  0  0
   34.0891   28.7868   42.1237 C   0  0  0  0  0  0  0  0  0  0  0  0
   33.8827   29.8524   43.0031 N   0  0  0  0  0  0  0  0  0  0  0  0
   33.1407   30.5627   42.8320 H   0  0  0  0  0  0  0  0  0  0  0  0
  1  2  2  0
  1  7  1  0
  3  2  1  0
  4  3  2  0
  5  4  1  0
  5  6  2  0
  6  1  1  0
  7  8  1  0
  7 10  1  0
  9  7  1  0
  2 11  1  0
  3 12  1  0
 13 14  2  0
 14 15  1  0
 14 16  1  0
 16 17  1  0
 16 18  2  0
 18 19  1  0
 19 20  2  0
 20 21  1  0
 19 22  1  0
 22 23  1  0
 23 24  2  0
 24 25  1  0
 24 26  1  0
 26 27  1  0
 26 28  2  0
 28 29  1  0
 28 30  1  0
 30 31  1  0
 30 32  2  0
 32 33  1  0
 33 34  1  0
 20 13  1  0
 32 23  1  0
 33 18  1  0
  5 13  1  0
M  ISO  8  11  14  12  14  15  16  17  16  21  16  25  16  27  16  29  16
M  ISO  2  31  16  34   5
M  END
>  <DihAtoms>  (1) 
3,4,12,13

>  <DihDeg>  (1) 
-0.0012201428176790792

$$$$
