REMARK  Name = 
REMARK  2 active torsions:
REMARK  status: ('A' for Active; 'I' for Inactive)
REMARK    1  A    between atoms: C_1  and  C_7
REMARK    2  A    between atoms: C_5  and  C_13
REMARK                            x       y       z     vdW  Elec       q    Type
REMARK                         _______ _______ _______ _____ _____    ______ ____
ROOT
ATOM      1  C   UNL     1      36.119  30.539  46.537  0.00  0.00    +0.000 A 
ATOM      2  C   UNL     1      35.322  31.534  46.001  0.00  0.00    +0.000 A 
ATOM      3  H   UNL     1      35.266  32.481  46.488  0.00  0.00    +0.000 HD
ATOM      4  C   UNL     1      34.631  31.236  44.846  0.00  0.00    +0.000 A 
ATOM      5  H   UNL     1      34.024  32.060  44.477  0.00  0.00    +0.000 HD
ATOM      6  C   UNL     1      34.657  30.037  44.167  0.00  0.00    +0.000 A 
ATOM      7  C   UNL     1      35.467  29.097  44.754  0.00  0.00    +0.000 A 
ATOM      8  C   UNL     1      36.177  29.321  45.892  0.00  0.00    +0.000 A 
ATOM      9  H   UNL     1      36.808  28.556  46.331  0.00  0.00    +0.000 HD
ATOM     10  S   UNL     1      35.621  27.485  44.010  0.00  0.00    +0.000 S 
ATOM     11  C   UNL     1      34.585  27.517  42.563  0.00  0.00    +0.000 A 
ATOM     12  C   UNL     1      34.474  26.439  41.762  0.00  0.00    +0.000 A 
ATOM     13  H   UNL     1      35.044  25.536  42.032  0.00  0.00    +0.000 HD
ATOM     14  C   UNL     1      33.699  26.370  40.623  0.00  0.00    +0.000 A 
ATOM     15  H   UNL     1      33.639  25.491  40.014  0.00  0.00    +0.000 HD
ATOM     16  C   UNL     1      33.000  27.525  40.321  0.00  0.00    +0.000 A 
ATOM     17  H   UNL     1      32.370  27.540  39.438  0.00  0.00    +0.000 HD
ATOM     18  C   UNL     1      33.111  28.632  41.140  0.00  0.00    +0.000 A 
ATOM     19  H   UNL     1      32.521  29.508  40.826  0.00  0.00    +0.000 HD
ATOM     20  C   UNL     1      33.894  28.667  42.269  0.00  0.00    +0.000 A 
ATOM     21  N   UNL     1      33.900  29.863  42.990  0.00  0.00    +0.000 N 
ATOM     22  H   UNL     1      33.338  30.685  42.684  0.00  0.00    +0.000 HD
ENDROOT
BRANCH   1  27
ATOM     23  C   UNL     1      37.332  30.280  49.974  0.00  0.00    +0.000 A 
ATOM     24  C   UNL     1      38.291  31.303  50.047  0.00  0.00    +0.000 A 
ATOM     25  C   UNL     1      38.521  32.087  48.904  0.00  0.00    +0.000 A 
ATOM     26  N   UNL     1      37.786  31.792  47.796  0.00  0.00    +0.000 NA
ATOM     27  C   UNL     1      36.871  30.801  47.759  0.00  0.00    +0.000 A 
ATOM     28  N   UNL     1      36.654  30.053  48.852  0.00  0.00    +0.000 NA
ATOM     29  H   UNL     1      38.863  31.514  50.950  0.00  0.00    +0.000 HD
ATOM     30  H   UNL     1      39.238  32.874  48.914  0.00  0.00    +0.000 HD
BRANCH  23  31
ATOM     31  C   UNL     1      37.097  29.448  51.205  0.00  0.00    +0.000 C 
ATOM     32  F   UNL     1      35.733  29.190  51.333  0.00  0.00    +0.000 F 
ATOM     33  F   UNL     1      37.870  28.334  51.109  0.00  0.00    +0.000 F 
ATOM     34  F   UNL     1      37.457  30.227  52.307  0.00  0.00    +0.000 F 
ENDBRANCH  23  31
ENDBRANCH   1  27
TORSDOF 2
