
     RDKit          3D

 37 40  0  0  0  0  0  0  0  0999 V2000
   37.3069   30.1987   51.4362 C   0  0  0  0  0  0  0  0  0  0  0  0
   38.1093   30.7382   50.4131 C   0  0  0  0  0  0  0  0  0  0  0  0
   37.7640   30.4425   49.0762 C   0  0  0  0  0  0  0  0  0  0  0  0
   36.6698   29.6493   48.8614 N   0  0  0  0  0  0  0  0  0  0  0  0
   35.9349   29.1585   49.8899 C   0  0  0  0  0  0  0  0  0  0  0  0
   36.2576   29.4352   51.1510 N   0  0  0  0  0  0  0  0  0  0  0  0
   34.7481   28.2944   49.5480 C   0  0  0  0  0  0  0  0  0  0  0  0
   34.4082   28.4633   48.0882 C   0  0  0  0  0  0  0  0  0  0  0  0
   37.6218   30.4609   52.4483 H   0  0  0  0  0  0  0  0  0  0  0  0
   38.9713   31.3624   50.5646 H   0  0  0  0  0  0  0  0  0  0  0  0
   38.3422   30.8273   48.2281 H   0  0  0  0  0  0  0  0  0  0  0  0
   34.9837   27.2344   49.7684 H   0  0  0  0  0  0  0  0  0  0  0  0
   33.8693   28.5833   50.1613 H   0  0  0  0  0  0  0  0  0  0  0  0
   34.3133   29.5435   47.8511 H   0  0  0  0  0  0  0  0  0  0  0  0
   35.3120   28.1140   47.5150 H   0  0  0  0  0  0  0  0  0  0  0  0
   33.2608   27.6553   47.6681 C   0  0  0  0  0  0  0  0  0  0  0  0
   32.0342   28.2492   47.4467 C   0  0  0  0  0  0  0  0  0  0  0  0
   31.9386   29.3333   47.5916 H   0  0  0  0  0  0  0  0  0  0  0  0
   30.9466   27.5193   47.0543 C   0  0  0  0  0  0  0  0  0  0  0  0
   30.0129   28.0758   46.9021 H   0  0  0  0  0  0  0  0  0  0  0  0
   30.9936   26.1570   46.8536 C   0  0  0  0  0  0  0  0  0  0  0  0
   32.1986   25.5787   47.0719 C   0  0  0  0  0  0  0  0  0  0  0  0
   33.2726   26.2939   47.4586 C   0  0  0  0  0  0  0  0  0  0  0  0
   34.2329   25.7823   47.6246 H   0  0  0  0  0  0  0  0  0  0  0  0
   32.3674   23.8192   46.8404 S   0  0  0  0  0  0  0  0  0  0  0  0
   30.7573   23.2493   46.3392 C   0  0  0  0  0  0  0  0  0  0  0  0
   30.6601   21.9152   46.1061 C   0  0  0  0  0  0  0  0  0  0  0  0
   31.4555   21.1864   46.1960 H   0  0  0  0  0  0  0  0  0  0  0  0
   29.4436   21.3703   45.7096 C   0  0  0  0  0  0  0  0  0  0  0  0
   29.3192   20.3126   45.5127 H   0  0  0  0  0  0  0  0  0  0  0  0
   28.3709   22.2200   45.5676 C   0  0  0  0  0  0  0  0  0  0  0  0
   27.4245   21.7973   45.2592 H   0  0  0  0  0  0  0  0  0  0  0  0
   28.5459   23.5706   45.8232 C   0  0  0  0  0  0  0  0  0  0  0  0
   27.6381   24.1554   45.6821 H   0  0  0  0  0  0  0  0  0  0  0  0
   29.7415   24.1353   46.2174 C   0  0  0  0  0  0  0  0  0  0  0  0
   29.8049   25.5070   46.4478 N   0  0  0  0  0  0  0  0  0  0  0  0
   28.9399   26.0738   46.3147 H   0  0  0  0  0  0  0  0  0  0  0  0
  2  1  2  0
  3  2  1  0
  4  3  2  0
  4  5  1  0
  5  6  2  0
  6  1  1  0
  7  5  1  0
  8  7  1  0
  1  9  1  0
  2 10  1  0
  3 11  1  0
  7 12  1  0
  7 13  1  0
  8 14  1  0
  8 15  1  0
 16 17  2  0
 17 18  1  0
 17 19  1  0
 19 20  1  0
 19 21  2  0
 21 22  1  0
 22 23  2  0
 23 24  1  0
 22 25  1  0
 25 26  1  0
 26 27  2  0
 27 28  1  0
 27 29  1  0
 29 30  1  0
 29 31  2  0
 31 32  1  0
 31 33  1  0
 33 34  1  0
 33 35  2  0
 35 36  1  0
 36 37  1  0
 23 16  1  0
 35 26  1  0
 36 21  1  0
  8 16  1  0
M  ISO  8   9  14  10  14  11  14  12   8  13   8  14   8  15   8  18  16
M  ISO  7  20  16  24  16  28  16  30  16  32  16  34  16  37   5
M  END
>  <DihAtoms>  (1) 
6,7,15,16

>  <DihDeg>  (1) 
-89.99600099601308

$$$$
