
     RDKit          3D

 37 40  0  0  0  0  0  0  0  0999 V2000
   37.3069   30.1987   51.4362 C   0  0  0  0  0  0  0  0  0  0  0  0
   38.1093   30.7382   50.4131 C   0  0  0  0  0  0  0  0  0  0  0  0
   37.7640   30.4425   49.0762 C   0  0  0  0  0  0  0  0  0  0  0  0
   36.6698   29.6493   48.8614 N   0  0  0  0  0  0  0  0  0  0  0  0
   35.9349   29.1585   49.8899 C   0  0  0  0  0  0  0  0  0  0  0  0
   36.2576   29.4352   51.1510 N   0  0  0  0  0  0  0  0  0  0  0  0
   34.7481   28.2944   49.5480 C   0  0  0  0  0  0  0  0  0  0  0  0
   34.4082   28.4633   48.0882 C   0  0  0  0  0  0  0  0  0  0  0  0
   37.6218   30.4609   52.4483 H   0  0  0  0  0  0  0  0  0  0  0  0
   38.9713   31.3624   50.5646 H   0  0  0  0  0  0  0  0  0  0  0  0
   38.3422   30.8273   48.2281 H   0  0  0  0  0  0  0  0  0  0  0  0
   34.9837   27.2344   49.7684 H   0  0  0  0  0  0  0  0  0  0  0  0
   33.8693   28.5833   50.1613 H   0  0  0  0  0  0  0  0  0  0  0  0
   34.3133   29.5435   47.8511 H   0  0  0  0  0  0  0  0  0  0  0  0
   35.3120   28.1140   47.5150 H   0  0  0  0  0  0  0  0  0  0  0  0
   33.2608   27.6553   47.6681 C   0  0  0  0  0  0  0  0  0  0  0  0
   32.1215   27.6056   48.4463 C   0  0  0  0  0  0  0  0  0  0  0  0
   32.0947   28.1814   49.3808 H   0  0  0  0  0  0  0  0  0  0  0  0
   31.0361   26.8597   48.0785 C   0  0  0  0  0  0  0  0  0  0  0  0
   30.1749   26.8803   48.7588 H   0  0  0  0  0  0  0  0  0  0  0  0
   30.9996   26.1135   46.9209 C   0  0  0  0  0  0  0  0  0  0  0  0
   32.1193   26.1652   46.1607 C   0  0  0  0  0  0  0  0  0  0  0  0
   33.1908   26.8986   46.5193 C   0  0  0  0  0  0  0  0  0  0  0  0
   34.0800   26.9114   45.8708 H   0  0  0  0  0  0  0  0  0  0  0  0
   32.1758   25.2348   44.6410 S   0  0  0  0  0  0  0  0  0  0  0  0
   30.5995   24.4158   44.5264 C   0  0  0  0  0  0  0  0  0  0  0  0
   30.4267   23.6404   43.4254 C   0  0  0  0  0  0  0  0  0  0  0  0
   31.1450   23.4806   42.6314 H   0  0  0  0  0  0  0  0  0  0  0  0
   29.2290   22.9577   43.2427 C   0  0  0  0  0  0  0  0  0  0  0  0
   29.0467   22.3282   42.3804 H   0  0  0  0  0  0  0  0  0  0  0  0
   28.2523   23.0988   44.2013 C   0  0  0  0  0  0  0  0  0  0  0  0
   27.3205   22.5684   44.0600 H   0  0  0  0  0  0  0  0  0  0  0  0
   28.5006   23.9076   45.2986 C   0  0  0  0  0  0  0  0  0  0  0  0
   27.6660   23.9520   45.9969 H   0  0  0  0  0  0  0  0  0  0  0  0
   29.6796   24.5949   45.5028 C   0  0  0  0  0  0  0  0  0  0  0  0
   29.8222   25.3808   46.6433 N   0  0  0  0  0  0  0  0  0  0  0  0
   29.0275   25.4284   47.3166 H   0  0  0  0  0  0  0  0  0  0  0  0
  2  1  2  0
  3  2  1  0
  4  3  2  0
  4  5  1  0
  5  6  2  0
  6  1  1  0
  7  5  1  0
  8  7  1  0
  1  9  1  0
  2 10  1  0
  3 11  1  0
  7 12  1  0
  7 13  1  0
  8 14  1  0
  8 15  1  0
 16 17  2  0
 17 18  1  0
 17 19  1  0
 19 20  1  0
 19 21  2  0
 21 22  1  0
 22 23  2  0
 23 24  1  0
 22 25  1  0
 25 26  1  0
 26 27  2  0
 27 28  1  0
 27 29  1  0
 29 30  1  0
 29 31  2  0
 31 32  1  0
 31 33  1  0
 33 34  1  0
 33 35  2  0
 35 36  1  0
 36 37  1  0
 23 16  1  0
 35 26  1  0
 36 21  1  0
  8 16  1  0
M  ISO  8   9  14  10  14  11  14  12   8  13   8  14   8  15   8  18  16
M  ISO  7  20  16  24  16  28  16  30  16  32  16  34  16  37   5
M  END
>  <DihAtoms>  (1) 
6,7,15,16

>  <DihDeg>  (1) 
-89.99600099601308

$$$$
