REMARK  Name = 
REMARK  3 active torsions:
REMARK  status: ('A' for Active; 'I' for Inactive)
REMARK    1  A    between atoms: C_5  and  C_7
REMARK    2  A    between atoms: C_7  and  C_8
REMARK    3  A    between atoms: C_8  and  C_16
REMARK                            x       y       z     vdW  Elec       q    Type
REMARK                         _______ _______ _______ _____ _____    ______ ____
ROOT
ATOM      1  C   UNL     1      33.261  27.655  47.668  0.00  0.00    +0.000 A 
ATOM      2  C   UNL     1      32.121  27.606  48.446  0.00  0.00    +0.000 A 
ATOM      3  H   UNL     1      32.095  28.181  49.381  0.00  0.00    +0.000 HD
ATOM      4  C   UNL     1      31.036  26.860  48.078  0.00  0.00    +0.000 A 
ATOM      5  H   UNL     1      30.175  26.880  48.759  0.00  0.00    +0.000 HD
ATOM      6  C   UNL     1      31.000  26.113  46.921  0.00  0.00    +0.000 A 
ATOM      7  C   UNL     1      32.119  26.165  46.161  0.00  0.00    +0.000 A 
ATOM      8  C   UNL     1      33.191  26.899  46.519  0.00  0.00    +0.000 A 
ATOM      9  H   UNL     1      34.080  26.911  45.871  0.00  0.00    +0.000 HD
ATOM     10  S   UNL     1      32.176  25.235  44.641  0.00  0.00    +0.000 S 
ATOM     11  C   UNL     1      30.599  24.416  44.526  0.00  0.00    +0.000 A 
ATOM     12  C   UNL     1      30.427  23.640  43.425  0.00  0.00    +0.000 A 
ATOM     13  H   UNL     1      31.145  23.481  42.631  0.00  0.00    +0.000 HD
ATOM     14  C   UNL     1      29.229  22.958  43.243  0.00  0.00    +0.000 A 
ATOM     15  H   UNL     1      29.047  22.328  42.380  0.00  0.00    +0.000 HD
ATOM     16  C   UNL     1      28.252  23.099  44.201  0.00  0.00    +0.000 A 
ATOM     17  H   UNL     1      27.320  22.568  44.060  0.00  0.00    +0.000 HD
ATOM     18  C   UNL     1      28.501  23.908  45.299  0.00  0.00    +0.000 A 
ATOM     19  H   UNL     1      27.666  23.952  45.997  0.00  0.00    +0.000 HD
ATOM     20  C   UNL     1      29.680  24.595  45.503  0.00  0.00    +0.000 A 
ATOM     21  N   UNL     1      29.822  25.381  46.643  0.00  0.00    +0.000 N 
ATOM     22  H   UNL     1      29.027  25.428  47.317  0.00  0.00    +0.000 HD
ENDROOT
BRANCH   1  23
ATOM     23  C   UNL     1      34.408  28.463  48.088  0.00  0.00    +0.000 C 
ATOM     24  H   UNL     1      34.313  29.544  47.851  0.00  0.00    +0.000 HD
ATOM     25  H   UNL     1      35.312  28.114  47.515  0.00  0.00    +0.000 HD
BRANCH  23  26
ATOM     26  C   UNL     1      34.748  28.294  49.548  0.00  0.00    +0.000 C 
ATOM     27  H   UNL     1      34.984  27.234  49.768  0.00  0.00    +0.000 HD
ATOM     28  H   UNL     1      33.869  28.583  50.161  0.00  0.00    +0.000 HD
BRANCH  26  33
ATOM     29  C   UNL     1      37.307  30.199  51.436  0.00  0.00    +0.000 A 
ATOM     30  C   UNL     1      38.109  30.738  50.413  0.00  0.00    +0.000 A 
ATOM     31  C   UNL     1      37.764  30.442  49.076  0.00  0.00    +0.000 A 
ATOM     32  N   UNL     1      36.670  29.649  48.861  0.00  0.00    +0.000 NA
ATOM     33  C   UNL     1      35.935  29.159  49.890  0.00  0.00    +0.000 A 
ATOM     34  N   UNL     1      36.258  29.435  51.151  0.00  0.00    +0.000 NA
ATOM     35  H   UNL     1      37.622  30.461  52.448  0.00  0.00    +0.000 HD
ATOM     36  H   UNL     1      38.971  31.362  50.565  0.00  0.00    +0.000 HD
ATOM     37  H   UNL     1      38.342  30.827  48.228  0.00  0.00    +0.000 HD
ENDBRANCH  26  33
ENDBRANCH  23  26
ENDBRANCH   1  23
TORSDOF 3
