
     RDKit          3D

 37 40  0  0  0  0  0  0  0  0999 V2000
   37.3069   30.1987   51.4362 C   0  0  0  0  0  0  0  0  0  0  0  0
   38.1093   30.7382   50.4131 C   0  0  0  0  0  0  0  0  0  0  0  0
   37.7640   30.4425   49.0762 C   0  0  0  0  0  0  0  0  0  0  0  0
   36.6698   29.6493   48.8614 N   0  0  0  0  0  0  0  0  0  0  0  0
   35.9349   29.1585   49.8899 C   0  0  0  0  0  0  0  0  0  0  0  0
   36.2576   29.4352   51.1510 N   0  0  0  0  0  0  0  0  0  0  0  0
   34.7481   28.2944   49.5480 C   0  0  0  0  0  0  0  0  0  0  0  0
   34.4082   28.4633   48.0882 C   0  0  0  0  0  0  0  0  0  0  0  0
   37.6218   30.4609   52.4483 H   0  0  0  0  0  0  0  0  0  0  0  0
   38.9713   31.3624   50.5646 H   0  0  0  0  0  0  0  0  0  0  0  0
   38.3422   30.8273   48.2281 H   0  0  0  0  0  0  0  0  0  0  0  0
   34.9837   27.2344   49.7684 H   0  0  0  0  0  0  0  0  0  0  0  0
   33.8693   28.5833   50.1613 H   0  0  0  0  0  0  0  0  0  0  0  0
   34.3133   29.5435   47.8511 H   0  0  0  0  0  0  0  0  0  0  0  0
   35.3120   28.1140   47.5150 H   0  0  0  0  0  0  0  0  0  0  0  0
   33.2608   27.6553   47.6681 C   0  0  0  0  0  0  0  0  0  0  0  0
   32.0269   27.8366   48.2604 C   0  0  0  0  0  0  0  0  0  0  0  0
   31.9254   28.5947   49.0480 H   0  0  0  0  0  0  0  0  0  0  0  0
   30.9392   27.0964   47.8880 C   0  0  0  0  0  0  0  0  0  0  0  0
   29.9993   27.3093   48.4135 H   0  0  0  0  0  0  0  0  0  0  0  0
   30.9932   26.1290   46.9084 C   0  0  0  0  0  0  0  0  0  0  0  0
   32.2054   25.9547   46.3302 C   0  0  0  0  0  0  0  0  0  0  0  0
   33.2796   26.6816   46.6940 C   0  0  0  0  0  0  0  0  0  0  0  0
   34.2459   26.5062   46.1970 H   0  0  0  0  0  0  0  0  0  0  0  0
   32.3837   24.7268   45.0501 S   0  0  0  0  0  0  0  0  0  0  0  0
   30.7709   23.9971   44.8637 C   0  0  0  0  0  0  0  0  0  0  0  0
   30.6801   23.0212   43.9241 C   0  0  0  0  0  0  0  0  0  0  0  0
   31.4820   22.6573   43.2945 H   0  0  0  0  0  0  0  0  0  0  0  0
   29.4622   22.3880   43.7016 C   0  0  0  0  0  0  0  0  0  0  0  0
   29.3428   21.6048   42.9631 H   0  0  0  0  0  0  0  0  0  0  0  0
   28.3814   22.7833   44.4555 C   0  0  0  0  0  0  0  0  0  0  0  0
   27.4338   22.2915   44.2832 H   0  0  0  0  0  0  0  0  0  0  0  0
   28.5501   23.7865   45.3963 C   0  0  0  0  0  0  0  0  0  0  0  0
   27.6361   24.0249   45.9384 H   0  0  0  0  0  0  0  0  0  0  0  0
   29.7471   24.4299   45.6358 C   0  0  0  0  0  0  0  0  0  0  0  0
   29.8036   25.4260   46.6070 N   0  0  0  0  0  0  0  0  0  0  0  0
   28.9327   25.6599   47.1303 H   0  0  0  0  0  0  0  0  0  0  0  0
  2  1  2  0
  3  2  1  0
  4  3  2  0
  4  5  1  0
  5  6  2  0
  6  1  1  0
  7  5  1  0
  8  7  1  0
  1  9  1  0
  2 10  1  0
  3 11  1  0
  7 12  1  0
  7 13  1  0
  8 14  1  0
  8 15  1  0
 16 17  2  0
 17 18  1  0
 17 19  1  0
 19 20  1  0
 19 21  2  0
 21 22  1  0
 22 23  2  0
 23 24  1  0
 22 25  1  0
 25 26  1  0
 26 27  2  0
 27 28  1  0
 27 29  1  0
 29 30  1  0
 29 31  2  0
 31 32  1  0
 31 33  1  0
 33 34  1  0
 33 35  2  0
 35 36  1  0
 36 37  1  0
 23 16  1  0
 35 26  1  0
 36 21  1  0
  8 16  1  0
M  ISO  8   9  14  10  14  11  14  12   8  13   8  14   8  15   8  18  16
M  ISO  7  20  16  24  16  28  16  30  16  32  16  34  16  37   5
M  END
>  <DihAtoms>  (1) 
6,7,15,16

>  <DihDeg>  (1) 
-89.99600099601308

$$$$
