
 OpenBabel03272501543D

 37 40  0  0  0  0  0  0  0  0999 V2000
   33.3450   27.7060   47.7050 C   0  0  0  0  0  0  0  0  0  0  0  0
   32.1920   27.7140   48.4660 C   0  0  0  0  0  0  0  0  0  0  0  0
   32.1710   28.3140   49.3850 H   0  0  0  0  0  0  0  0  0  0  0  0
   31.0890   26.9950   48.1000 C   0  0  0  0  0  0  0  0  0  0  0  0
   30.2190   27.0610   48.7660 H   0  0  0  0  0  0  0  0  0  0  0  0
   31.0460   26.2190   46.9620 C   0  0  0  0  0  0  0  0  0  0  0  0
   32.1770   26.2150   46.2190 C   0  0  0  0  0  0  0  0  0  0  0  0
   33.2670   26.9230   46.5750 C   0  0  0  0  0  0  0  0  0  0  0  0
   34.1660   26.8890   45.9410 H   0  0  0  0  0  0  0  0  0  0  0  0
   32.2270   25.2440   44.7240 S   0  0  0  0  0  0  0  0  0  0  0  0
   30.6250   24.4740   44.6050 C   0  0  0  0  0  0  0  0  0  0  0  0
   30.4450   23.6760   43.5220 C   0  0  0  0  0  0  0  0  0  0  0  0
   31.1690   23.4730   42.7440 H   0  0  0  0  0  0  0  0  0  0  0  0
   29.2280   23.0290   43.3380 C   0  0  0  0  0  0  0  0  0  0  0  0
   29.0380   22.3820   42.4890 H   0  0  0  0  0  0  0  0  0  0  0  0
   28.2410   23.2260   44.2760 C   0  0  0  0  0  0  0  0  0  0  0  0
   27.2950   22.7230   44.1340 H   0  0  0  0  0  0  0  0  0  0  0  0
   28.5000   24.0550   45.3570 C   0  0  0  0  0  0  0  0  0  0  0  0
   27.6570   24.1450   46.0400 H   0  0  0  0  0  0  0  0  0  0  0  0
   29.6980   24.7090   45.5620 C   0  0  0  0  0  0  0  0  0  0  0  0
   29.8490   25.5190   46.6840 N   0  0  0  0  0  0  0  0  0  0  0  0
   29.0450   25.6100   47.3430 H   0  0  0  0  0  0  0  0  0  0  0  0
   34.5110   28.4870   48.1230 C   0  0  0  0  0  0  0  0  0  0  0  0
   34.4490   29.5660   47.8690 H   0  0  0  0  0  0  0  0  0  0  0  0
   35.4090   28.1040   47.5620 H   0  0  0  0  0  0  0  0  0  0  0  0
   34.8350   28.3290   49.5880 C   0  0  0  0  0  0  0  0  0  0  0  0
   35.0740   27.2720   49.8180 H   0  0  0  0  0  0  0  0  0  0  0  0
   33.9480   28.6180   50.1880 H   0  0  0  0  0  0  0  0  0  0  0  0
   37.3740   30.2440   51.4930 C   0  0  0  0  0  0  0  0  0  0  0  0
   38.1720   30.7980   50.4750 C   0  0  0  0  0  0  0  0  0  0  0  0
   37.8320   30.5090   49.1350 C   0  0  0  0  0  0  0  0  0  0  0  0
   36.7450   29.7070   48.9130 N   0  0  0  0  0  0  0  0  0  0  0  0
   36.0140   29.2030   49.9370 C   0  0  0  0  0  0  0  0  0  0  0  0
   36.3330   29.4720   51.2010 N   0  0  0  0  0  0  0  0  0  0  0  0
   37.6860   30.5010   52.5070 H   0  0  0  0  0  0  0  0  0  0  0  0
   39.0280   31.4290   50.6320 H   0  0  0  0  0  0  0  0  0  0  0  0
   38.4070   30.9060   48.2910 H   0  0  0  0  0  0  0  0  0  0  0  0
  1 23  1  0  0  0  0
  1  2  1  0  0  0  0
  2  3  1  0  0  0  0
  4  2  2  0  0  0  0
  4  5  1  0  0  0  0
  6  4  1  0  0  0  0
  7  8  1  0  0  0  0
  7  6  2  0  0  0  0
  8  1  2  0  0  0  0
  9  8  1  0  0  0  0
 10  7  1  0  0  0  0
 11 10  1  0  0  0  0
 11 20  1  0  0  0  0
 12 11  2  0  0  0  0
 13 12  1  0  0  0  0
 14 12  1  0  0  0  0
 14 16  2  0  0  0  0
 15 14  1  0  0  0  0
 16 18  1  0  0  0  0
 17 16  1  0  0  0  0
 18 20  2  0  0  0  0
 18 19  1  0  0  0  0
 20 21  1  0  0  0  0
 21  6  1  0  0  0  0
 21 22  1  0  0  0  0
 23 26  1  0  0  0  0
 24 23  1  0  0  0  0
 25 23  1  0  0  0  0
 26 27  1  0  0  0  0
 26 33  1  0  0  0  0
 26 28  1  0  0  0  0
 29 35  1  0  0  0  0
 30 36  1  0  0  0  0
 30 29  2  0  0  0  0
 31 30  1  0  0  0  0
 32 31  2  0  0  0  0
 32 33  1  0  0  0  0
 33 34  2  0  0  0  0
 34 29  1  0  0  0  0
 37 31  1  0  0  0  0
M  END
>  <minimizedAffinity>
-5.13729811

>  <minimizedRMSD>
0.117076501

$$$$
