
 OpenBabel03272501543D

 37 40  0  0  0  0  0  0  0  0999 V2000
   33.4100   27.7200   47.6200 C   0  0  0  0  0  0  0  0  0  0  0  0
   33.7030   26.3780   47.7610 C   0  0  0  0  0  0  0  0  0  0  0  0
   34.6040   26.0910   48.3190 H   0  0  0  0  0  0  0  0  0  0  0  0
   32.9010   25.4110   47.2240 C   0  0  0  0  0  0  0  0  0  0  0  0
   33.2130   24.3710   47.3870 H   0  0  0  0  0  0  0  0  0  0  0  0
   31.7570   25.6980   46.5130 C   0  0  0  0  0  0  0  0  0  0  0  0
   31.4730   27.0150   46.3770 C   0  0  0  0  0  0  0  0  0  0  0  0
   32.2600   27.9720   46.9040 C   0  0  0  0  0  0  0  0  0  0  0  0
   31.9910   29.0300   46.7690 H   0  0  0  0  0  0  0  0  0  0  0  0
   30.0120   27.4960   45.4730 S   0  0  0  0  0  0  0  0  0  0  0  0
   29.2570   25.9720   44.9470 C   0  0  0  0  0  0  0  0  0  0  0  0
   28.1120   26.1090   44.2300 C   0  0  0  0  0  0  0  0  0  0  0  0
   27.6310   27.0400   43.9580 H   0  0  0  0  0  0  0  0  0  0  0  0
   27.4440   24.9790   43.7730 C   0  0  0  0  0  0  0  0  0  0  0  0
   26.5280   25.0390   43.1990 H   0  0  0  0  0  0  0  0  0  0  0  0
   27.9800   23.7470   44.0710 C   0  0  0  0  0  0  0  0  0  0  0  0
   27.4610   22.8670   43.7150 H   0  0  0  0  0  0  0  0  0  0  0  0
   29.1520   23.6850   44.8070 C   0  0  0  0  0  0  0  0  0  0  0  0
   29.4930   22.6670   44.9880 H   0  0  0  0  0  0  0  0  0  0  0  0
   29.8330   24.7920   45.2720 C   0  0  0  0  0  0  0  0  0  0  0  0
   31.0040   24.6140   46.0040 N   0  0  0  0  0  0  0  0  0  0  0  0
   31.3360   23.6420   46.1810 H   0  0  0  0  0  0  0  0  0  0  0  0
   34.2880   28.7340   48.2060 C   0  0  0  0  0  0  0  0  0  0  0  0
   33.8320   29.7450   48.2750 H   0  0  0  0  0  0  0  0  0  0  0  0
   35.1800   28.8590   47.5310 H   0  0  0  0  0  0  0  0  0  0  0  0
   34.8380   28.3350   49.5530 C   0  0  0  0  0  0  0  0  0  0  0  0
   35.1560   27.2730   49.5400 H   0  0  0  0  0  0  0  0  0  0  0  0
   34.0400   28.4430   50.3170 H   0  0  0  0  0  0  0  0  0  0  0  0
   37.3790   30.2630   51.4420 C   0  0  0  0  0  0  0  0  0  0  0  0
   38.1720   30.8150   50.4180 C   0  0  0  0  0  0  0  0  0  0  0  0
   37.8270   30.5190   49.0810 C   0  0  0  0  0  0  0  0  0  0  0  0
   36.7420   29.7140   48.8660 N   0  0  0  0  0  0  0  0  0  0  0  0
   36.0150   29.2120   49.8950 C   0  0  0  0  0  0  0  0  0  0  0  0
   36.3380   29.4880   51.1560 N   0  0  0  0  0  0  0  0  0  0  0  0
   37.6930   30.5260   52.4540 H   0  0  0  0  0  0  0  0  0  0  0  0
   39.0270   31.4490   50.5710 H   0  0  0  0  0  0  0  0  0  0  0  0
   38.3990   30.9140   48.2330 H   0  0  0  0  0  0  0  0  0  0  0  0
  1  2  1  0  0  0  0
  1 23  1  0  0  0  0
  2  3  1  0  0  0  0
  4  5  1  0  0  0  0
  4  2  2  0  0  0  0
  6  4  1  0  0  0  0
  7  6  2  0  0  0  0
  7  8  1  0  0  0  0
  8  1  2  0  0  0  0
  9  8  1  0  0  0  0
 10  7  1  0  0  0  0
 11 20  1  0  0  0  0
 11 10  1  0  0  0  0
 12 11  2  0  0  0  0
 13 12  1  0  0  0  0
 14 16  2  0  0  0  0
 14 12  1  0  0  0  0
 15 14  1  0  0  0  0
 16 18  1  0  0  0  0
 17 16  1  0  0  0  0
 18 19  1  0  0  0  0
 18 20  2  0  0  0  0
 20 21  1  0  0  0  0
 21 22  1  0  0  0  0
 21  6  1  0  0  0  0
 23 24  1  0  0  0  0
 23 26  1  0  0  0  0
 25 23  1  0  0  0  0
 26 33  1  0  0  0  0
 26 28  1  0  0  0  0
 27 26  1  0  0  0  0
 29 35  1  0  0  0  0
 30 36  1  0  0  0  0
 30 29  2  0  0  0  0
 31 30  1  0  0  0  0
 32 31  2  0  0  0  0
 32 33  1  0  0  0  0
 33 34  2  0  0  0  0
 34 29  1  0  0  0  0
 37 31  1  0  0  0  0
M  END
>  <minimizedAffinity>
-5.24056625

>  <minimizedRMSD>
1.01638818

$$$$
