
     RDKit          3D

 37 40  0  0  0  0  0  0  0  0999 V2000
   37.3069   30.1987   51.4362 C   0  0  0  0  0  0  0  0  0  0  0  0
   38.1093   30.7382   50.4131 C   0  0  0  0  0  0  0  0  0  0  0  0
   37.7640   30.4425   49.0762 C   0  0  0  0  0  0  0  0  0  0  0  0
   36.6698   29.6493   48.8614 N   0  0  0  0  0  0  0  0  0  0  0  0
   35.9349   29.1585   49.8899 C   0  0  0  0  0  0  0  0  0  0  0  0
   36.2576   29.4352   51.1510 N   0  0  0  0  0  0  0  0  0  0  0  0
   34.7481   28.2944   49.5480 C   0  0  0  0  0  0  0  0  0  0  0  0
   34.4082   28.4633   48.0882 C   0  0  0  0  0  0  0  0  0  0  0  0
   37.6218   30.4609   52.4483 H   0  0  0  0  0  0  0  0  0  0  0  0
   38.9713   31.3624   50.5646 H   0  0  0  0  0  0  0  0  0  0  0  0
   38.3422   30.8273   48.2281 H   0  0  0  0  0  0  0  0  0  0  0  0
   34.9837   27.2344   49.7684 H   0  0  0  0  0  0  0  0  0  0  0  0
   33.8693   28.5833   50.1613 H   0  0  0  0  0  0  0  0  0  0  0  0
   34.3133   29.5435   47.8511 H   0  0  0  0  0  0  0  0  0  0  0  0
   35.3120   28.1140   47.5150 H   0  0  0  0  0  0  0  0  0  0  0  0
   33.2608   27.6553   47.6681 C   0  0  0  0  0  0  0  0  0  0  0  0
   31.9793   28.0289   48.0205 C   0  0  0  0  0  0  0  0  0  0  0  0
   31.8402   28.9391   48.6186 H   0  0  0  0  0  0  0  0  0  0  0  0
   30.8903   27.2936   47.6422 C   0  0  0  0  0  0  0  0  0  0  0  0
   29.9107   27.6667   47.9679 H   0  0  0  0  0  0  0  0  0  0  0  0
   30.9900   26.1421   46.8922 C   0  0  0  0  0  0  0  0  0  0  0  0
   32.2488   25.7794   46.5489 C   0  0  0  0  0  0  0  0  0  0  0  0
   33.3244   26.5008   46.9194 C   0  0  0  0  0  0  0  0  0  0  0  0
   34.3294   26.1687   46.6179 H   0  0  0  0  0  0  0  0  0  0  0  0
   32.4885   24.3036   45.5780 S   0  0  0  0  0  0  0  0  0  0  0  0
   30.8572   23.6484   45.2987 C   0  0  0  0  0  0  0  0  0  0  0  0
   30.8078   22.5054   44.5675 C   0  0  0  0  0  0  0  0  0  0  0  0
   31.6518   21.9714   44.1500 H   0  0  0  0  0  0  0  0  0  0  0  0
   29.5796   21.9134   44.2937 C   0  0  0  0  0  0  0  0  0  0  0  0
   29.4919   21.0022   43.7149 H   0  0  0  0  0  0  0  0  0  0  0  0
   28.4463   22.5206   44.7835 C   0  0  0  0  0  0  0  0  0  0  0  0
   27.4907   22.0610   44.5710 H   0  0  0  0  0  0  0  0  0  0  0  0
   28.5750   23.6858   45.5222 C   0  0  0  0  0  0  0  0  0  0  0  0
   27.6210   24.0857   45.8629 H   0  0  0  0  0  0  0  0  0  0  0  0
   29.7810   24.2925   45.8073 C   0  0  0  0  0  0  0  0  0  0  0  0
   29.7943   25.4638   46.5600 N   0  0  0  0  0  0  0  0  0  0  0  0
   28.8849   25.8528   46.8899 H   0  0  0  0  0  0  0  0  0  0  0  0
  2  1  2  0
  3  2  1  0
  4  3  2  0
  4  5  1  0
  5  6  2  0
  6  1  1  0
  7  5  1  0
  8  7  1  0
  1  9  1  0
  2 10  1  0
  3 11  1  0
  7 12  1  0
  7 13  1  0
  8 14  1  0
  8 15  1  0
 16 17  2  0
 17 18  1  0
 17 19  1  0
 19 20  1  0
 19 21  2  0
 21 22  1  0
 22 23  2  0
 23 24  1  0
 22 25  1  0
 25 26  1  0
 26 27  2  0
 27 28  1  0
 27 29  1  0
 29 30  1  0
 29 31  2  0
 31 32  1  0
 31 33  1  0
 33 34  1  0
 33 35  2  0
 35 36  1  0
 36 37  1  0
 23 16  1  0
 35 26  1  0
 36 21  1  0
  8 16  1  0
M  ISO  8   9  14  10  14  11  14  12   8  13   8  14   8  15   8  18  16
M  ISO  7  20  16  24  16  28  16  30  16  32  16  34  16  37   5
M  END
>  <DihAtoms>  (1) 
6,7,15,16

>  <DihDeg>  (1) 
-89.99600099601308

$$$$
