REMARK  Name = 
REMARK  2 active torsions:
REMARK  status: ('A' for Active; 'I' for Inactive)
REMARK    1  A    between atoms: C_1  and  C_7
REMARK    2  A    between atoms: C_5  and  C_13
REMARK                            x       y       z     vdW  Elec       q    Type
REMARK                         _______ _______ _______ _____ _____    ______ ____
ROOT
ATOM      1  C   UNL     1      36.119  30.539  46.537  0.00  0.00    +0.000 A 
ATOM      2  C   UNL     1      34.795  30.930  46.455  0.00  0.00    +0.000 A 
ATOM      3  H   UNL     1      34.340  31.418  47.286  0.00  0.00    +0.000 HD
ATOM      4  C   UNL     1      34.128  30.659  45.279  0.00  0.00    +0.000 A 
ATOM      5  H   UNL     1      33.093  30.992  45.279  0.00  0.00    +0.000 HD
ATOM      6  C   UNL     1      34.654  30.034  44.169  0.00  0.00    +0.000 A 
ATOM      7  C   UNL     1      35.971  29.674  44.321  0.00  0.00    +0.000 A 
ATOM      8  C   UNL     1      36.689  29.909  45.451  0.00  0.00    +0.000 A 
ATOM      9  H   UNL     1      37.729  29.611  45.538  0.00  0.00    +0.000 HD
ATOM     10  S   UNL     1      36.813  28.853  42.983  0.00  0.00    +0.000 S 
ATOM     11  C   UNL     1      35.616  28.698  41.675  0.00  0.00    +0.000 A 
ATOM     12  C   UNL     1      35.935  28.113  40.504  0.00  0.00    +0.000 A 
ATOM     13  H   UNL     1      36.962  27.734  40.381  0.00  0.00    +0.000 HD
ATOM     14  C   UNL     1      35.077  27.949  39.436  0.00  0.00    +0.000 A 
ATOM     15  H   UNL     1      35.373  27.478  38.522  0.00  0.00    +0.000 HD
ATOM     16  C   UNL     1      33.799  28.440  39.633  0.00  0.00    +0.000 A 
ATOM     17  H   UNL     1      33.072  28.344  38.833  0.00  0.00    +0.000 HD
ATOM     18  C   UNL     1      33.468  29.040  40.832  0.00  0.00    +0.000 A 
ATOM     19  H   UNL     1      32.430  29.403  40.905  0.00  0.00    +0.000 HD
ATOM     20  C   UNL     1      34.349  29.188  41.877  0.00  0.00    +0.000 A 
ATOM     21  N   UNL     1      33.860  29.817  43.025  0.00  0.00    +0.000 N 
ATOM     22  H   UNL     1      32.877  30.156  43.081  0.00  0.00    +0.000 HD
ENDROOT
BRANCH   1  27
ATOM     23  C   UNL     1      37.332  30.280  49.974  0.00  0.00    +0.000 A 
ATOM     24  C   UNL     1      38.291  31.303  50.047  0.00  0.00    +0.000 A 
ATOM     25  C   UNL     1      38.521  32.087  48.904  0.00  0.00    +0.000 A 
ATOM     26  N   UNL     1      37.786  31.792  47.796  0.00  0.00    +0.000 NA
ATOM     27  C   UNL     1      36.871  30.801  47.759  0.00  0.00    +0.000 A 
ATOM     28  N   UNL     1      36.654  30.053  48.852  0.00  0.00    +0.000 NA
ATOM     29  H   UNL     1      38.863  31.514  50.950  0.00  0.00    +0.000 HD
ATOM     30  H   UNL     1      39.238  32.874  48.914  0.00  0.00    +0.000 HD
BRANCH  23  31
ATOM     31  C   UNL     1      37.097  29.448  51.205  0.00  0.00    +0.000 C 
ATOM     32  F   UNL     1      35.733  29.190  51.333  0.00  0.00    +0.000 F 
ATOM     33  F   UNL     1      37.870  28.334  51.109  0.00  0.00    +0.000 F 
ATOM     34  F   UNL     1      37.457  30.227  52.307  0.00  0.00    +0.000 F 
ENDBRANCH  23  31
ENDBRANCH   1  27
TORSDOF 2
