
 OpenBabel03272501543D

 37 40  0  0  0  0  0  0  0  0999 V2000
   33.4160   27.7370   47.5440 C   0  0  0  0  0  0  0  0  0  0  0  0
   32.2170   28.3570   47.2530 C   0  0  0  0  0  0  0  0  0  0  0  0
   32.1400   29.4440   47.3860 H   0  0  0  0  0  0  0  0  0  0  0  0
   31.1370   27.6500   46.8040 C   0  0  0  0  0  0  0  0  0  0  0  0
   30.2260   28.2260   46.5980 H   0  0  0  0  0  0  0  0  0  0  0  0
   31.1630   26.2850   46.6140 C   0  0  0  0  0  0  0  0  0  0  0  0
   32.3400   25.6810   46.9020 C   0  0  0  0  0  0  0  0  0  0  0  0
   33.4080   26.3750   47.3440 C   0  0  0  0  0  0  0  0  0  0  0  0
   34.3450   25.8420   47.5660 H   0  0  0  0  0  0  0  0  0  0  0  0
   32.4810   23.9170   46.6900 S   0  0  0  0  0  0  0  0  0  0  0  0
   30.8870   23.3800   46.1030 C   0  0  0  0  0  0  0  0  0  0  0  0
   30.7730   22.0480   45.8730 C   0  0  0  0  0  0  0  0  0  0  0  0
   31.5450   21.3020   46.0110 H   0  0  0  0  0  0  0  0  0  0  0  0
   29.5680   21.5280   45.4130 C   0  0  0  0  0  0  0  0  0  0  0  0
   29.4300   20.4720   45.2150 H   0  0  0  0  0  0  0  0  0  0  0  0
   28.5250   22.4010   45.2070 C   0  0  0  0  0  0  0  0  0  0  0  0
   27.5870   21.9980   44.8480 H   0  0  0  0  0  0  0  0  0  0  0  0
   28.7170   23.7490   45.4640 C   0  0  0  0  0  0  0  0  0  0  0  0
   27.8320   24.3530   45.2690 H   0  0  0  0  0  0  0  0  0  0  0  0
   29.9010   24.2880   45.9210 C   0  0  0  0  0  0  0  0  0  0  0  0
   29.9840   25.6600   46.1470 N   0  0  0  0  0  0  0  0  0  0  0  0
   29.1410   26.2450   45.9630 H   0  0  0  0  0  0  0  0  0  0  0  0
   34.5570   28.5210   48.0230 C   0  0  0  0  0  0  0  0  0  0  0  0
   34.4910   29.6050   47.7910 H   0  0  0  0  0  0  0  0  0  0  0  0
   35.4800   28.1610   47.4890 H   0  0  0  0  0  0  0  0  0  0  0  0
   34.8270   28.3350   49.4950 C   0  0  0  0  0  0  0  0  0  0  0  0
   35.0470   27.2720   49.7150 H   0  0  0  0  0  0  0  0  0  0  0  0
   33.9210   28.6230   50.0690 H   0  0  0  0  0  0  0  0  0  0  0  0
   37.3200   30.1820   51.5230 C   0  0  0  0  0  0  0  0  0  0  0  0
   38.1540   30.7530   50.5430 C   0  0  0  0  0  0  0  0  0  0  0  0
   37.8530   30.4980   49.1870 C   0  0  0  0  0  0  0  0  0  0  0  0
   36.7680   29.7110   48.9130 N   0  0  0  0  0  0  0  0  0  0  0  0
   36.0010   29.1900   49.9020 C   0  0  0  0  0  0  0  0  0  0  0  0
   36.2820   29.4270   51.1810 N   0  0  0  0  0  0  0  0  0  0  0  0
   37.6020   30.4140   52.5520 H   0  0  0  0  0  0  0  0  0  0  0  0
   39.0100   31.3720   50.7420 H   0  0  0  0  0  0  0  0  0  0  0  0
   38.4580   30.9090   48.3710 H   0  0  0  0  0  0  0  0  0  0  0  0
  1 23  1  0  0  0  0
  2  3  1  0  0  0  0
  2  1  2  0  0  0  0
  4  2  1  0  0  0  0
  5  4  1  0  0  0  0
  6  4  2  0  0  0  0
  6  7  1  0  0  0  0
  7  8  2  0  0  0  0
  8  1  1  0  0  0  0
  8  9  1  0  0  0  0
 10  7  1  0  0  0  0
 11 10  1  0  0  0  0
 12 13  1  0  0  0  0
 12 11  2  0  0  0  0
 14 12  1  0  0  0  0
 15 14  1  0  0  0  0
 16 14  2  0  0  0  0
 16 18  1  0  0  0  0
 17 16  1  0  0  0  0
 18 20  2  0  0  0  0
 19 18  1  0  0  0  0
 20 11  1  0  0  0  0
 20 21  1  0  0  0  0
 21  6  1  0  0  0  0
 22 21  1  0  0  0  0
 23 26  1  0  0  0  0
 24 23  1  0  0  0  0
 25 23  1  0  0  0  0
 26 27  1  0  0  0  0
 26 33  1  0  0  0  0
 26 28  1  0  0  0  0
 29 35  1  0  0  0  0
 30 36  1  0  0  0  0
 30 29  2  0  0  0  0
 31 30  1  0  0  0  0
 32 31  2  0  0  0  0
 32 33  1  0  0  0  0
 33 34  2  0  0  0  0
 34 29  1  0  0  0  0
 37 31  1  0  0  0  0
M  END
>  <minimizedAffinity>
-5.30496216

>  <minimizedRMSD>
1.1631031

$$$$
