
     RDKit          3D

 34 37  0  0  0  0  0  0  0  0999 V2000
   37.3324   30.2798   49.9737 C   0  0  0  0  0  0  0  0  0  0  0  0
   38.2912   31.3029   50.0470 C   0  0  0  0  0  0  0  0  0  0  0  0
   38.5206   32.0869   48.9043 C   0  0  0  0  0  0  0  0  0  0  0  0
   37.7860   31.7919   47.7964 N   0  0  0  0  0  0  0  0  0  0  0  0
   36.8709   30.8006   47.7586 C   0  0  0  0  0  0  0  0  0  0  0  0
   36.6538   30.0531   48.8517 N   0  0  0  0  0  0  0  0  0  0  0  0
   37.0969   29.4480   51.2046 C   0  0  0  0  0  0  0  0  0  0  0  0
   35.7331   29.1897   51.3328 F   0  0  0  0  0  0  0  0  0  0  0  0
   37.8697   28.3337   51.1090 F   0  0  0  0  0  0  0  0  0  0  0  0
   37.4574   30.2275   52.3070 F   0  0  0  0  0  0  0  0  0  0  0  0
   38.8634   31.5140   50.9502 H   0  0  0  0  0  0  0  0  0  0  0  0
   39.2382   32.8736   48.9139 H   0  0  0  0  0  0  0  0  0  0  0  0
   36.1186   30.5389   46.5366 C   0  0  0  0  0  0  0  0  0  0  0  0
   35.5776   31.5970   45.8305 C   0  0  0  0  0  0  0  0  0  0  0  0
   35.7165   32.5922   46.1869 H   0  0  0  0  0  0  0  0  0  0  0  0
   34.8753   31.2968   44.6821 C   0  0  0  0  0  0  0  0  0  0  0  0
   34.4766   32.1714   44.1748 H   0  0  0  0  0  0  0  0  0  0  0  0
   34.6581   30.0371   44.1657 C   0  0  0  0  0  0  0  0  0  0  0  0
   35.2231   29.0370   44.9176 C   0  0  0  0  0  0  0  0  0  0  0  0
   35.9277   29.2595   46.0589 C   0  0  0  0  0  0  0  0  0  0  0  0
   36.3614   28.4457   46.6299 H   0  0  0  0  0  0  0  0  0  0  0  0
   35.0415   27.3424   44.3974 S   0  0  0  0  0  0  0  0  0  0  0  0
   34.0851   27.3938   42.8973 C   0  0  0  0  0  0  0  0  0  0  0  0
   33.7648   26.2635   42.2362 C   0  0  0  0  0  0  0  0  0  0  0  0
   34.1138   25.3065   42.6540 H   0  0  0  0  0  0  0  0  0  0  0  0
   33.0300   26.2044   41.0701 C   0  0  0  0  0  0  0  0  0  0  0  0
   32.7976   25.2837   40.5767 H   0  0  0  0  0  0  0  0  0  0  0  0
   32.6119   27.4291   40.5805 C   0  0  0  0  0  0  0  0  0  0  0  0
   32.0288   27.4557   39.6654 H   0  0  0  0  0  0  0  0  0  0  0  0
   32.9383   28.5891   41.2553 C   0  0  0  0  0  0  0  0  0  0  0  0
   32.5656   29.5193   40.7965 H   0  0  0  0  0  0  0  0  0  0  0  0
   33.6735   28.6121   42.4170 C   0  0  0  0  0  0  0  0  0  0  0  0
   33.9190   29.8679   42.9775 N   0  0  0  0  0  0  0  0  0  0  0  0
   33.5616   30.7402   42.5348 H   0  0  0  0  0  0  0  0  0  0  0  0
  1  2  2  0
  1  7  1  0
  3  2  1  0
  4  3  2  0
  5  4  1  0
  5  6  2  0
  6  1  1  0
  7  8  1  0
  7 10  1  0
  9  7  1  0
  2 11  1  0
  3 12  1  0
 13 14  2  0
 14 15  1  0
 14 16  1  0
 16 17  1  0
 16 18  2  0
 18 19  1  0
 19 20  2  0
 20 21  1  0
 19 22  1  0
 22 23  1  0
 23 24  2  0
 24 25  1  0
 24 26  1  0
 26 27  1  0
 26 28  2  0
 28 29  1  0
 28 30  1  0
 30 31  1  0
 30 32  2  0
 32 33  1  0
 33 34  1  0
 20 13  1  0
 32 23  1  0
 33 18  1  0
  5 13  1  0
M  ISO  8  11  14  12  14  15  16  17  16  21  16  25  16  27  16  29  16
M  ISO  2  31  16  34   5
M  END
>  <DihAtoms>  (1) 
3,4,12,13

>  <DihDeg>  (1) 
-0.0012201428176790792

$$$$
