REMARK  Name = 
REMARK  3 active torsions:
REMARK  status: ('A' for Active; 'I' for Inactive)
REMARK    1  A    between atoms: C_5  and  C_7
REMARK    2  A    between atoms: C_7  and  C_8
REMARK    3  A    between atoms: C_8  and  C_16
REMARK                            x       y       z     vdW  Elec       q    Type
REMARK                         _______ _______ _______ _____ _____    ______ ____
ROOT
ATOM      1  C   UNL     1      33.261  27.655  47.668  0.00  0.00    +0.000 A 
ATOM      2  C   UNL     1      31.982  28.170  47.743  0.00  0.00    +0.000 A 
ATOM      3  H   UNL     1      31.845  29.191  48.122  0.00  0.00    +0.000 HD
ATOM      4  C   UNL     1      30.893  27.438  47.358  0.00  0.00    +0.000 A 
ATOM      5  H   UNL     1      29.915  27.928  47.452  0.00  0.00    +0.000 HD
ATOM      6  C   UNL     1      30.990  26.152  46.874  0.00  0.00    +0.000 A 
ATOM      7  C   UNL     1      32.246  25.651  46.802  0.00  0.00    +0.000 A 
ATOM      8  C   UNL     1      33.322  26.369  47.180  0.00  0.00    +0.000 A 
ATOM      9  H   UNL     1      34.325  25.922  47.105  0.00  0.00    +0.000 HD
ATOM     10  S   UNL     1      32.483  23.994  46.189  0.00  0.00    +0.000 S 
ATOM     11  C   UNL     1      30.852  23.393  45.802  0.00  0.00    +0.000 A 
ATOM     12  C   UNL     1      30.801  22.128  45.312  0.00  0.00    +0.000 A 
ATOM     13  H   UNL     1      31.643  21.470  45.140  0.00  0.00    +0.000 HD
ATOM     14  C   UNL     1      29.573  21.566  44.979  0.00  0.00    +0.000 A 
ATOM     15  H   UNL     1      29.484  20.561  44.584  0.00  0.00    +0.000 HD
ATOM     16  C   UNL     1      28.443  22.328  45.163  0.00  0.00    +0.000 A 
ATOM     17  H   UNL     1      27.488  21.892  44.904  0.00  0.00    +0.000 HD
ATOM     18  C   UNL     1      28.573  23.612  45.668  0.00  0.00    +0.000 A 
ATOM     19  H   UNL     1      27.622  24.130  45.776  0.00  0.00    +0.000 HD
ATOM     20  C   UNL     1      29.779  24.192  46.006  0.00  0.00    +0.000 A 
ATOM     21  N   UNL     1      29.795  25.491  46.506  0.00  0.00    +0.000 N 
ATOM     22  H   UNL     1      28.887  25.994  46.612  0.00  0.00    +0.000 HD
ENDROOT
BRANCH   1  23
ATOM     23  C   UNL     1      34.408  28.463  48.088  0.00  0.00    +0.000 C 
ATOM     24  H   UNL     1      34.313  29.544  47.851  0.00  0.00    +0.000 HD
ATOM     25  H   UNL     1      35.312  28.114  47.515  0.00  0.00    +0.000 HD
BRANCH  23  26
ATOM     26  C   UNL     1      34.748  28.294  49.548  0.00  0.00    +0.000 C 
ATOM     27  H   UNL     1      34.984  27.234  49.768  0.00  0.00    +0.000 HD
ATOM     28  H   UNL     1      33.869  28.583  50.161  0.00  0.00    +0.000 HD
BRANCH  26  33
ATOM     29  C   UNL     1      37.307  30.199  51.436  0.00  0.00    +0.000 A 
ATOM     30  C   UNL     1      38.109  30.738  50.413  0.00  0.00    +0.000 A 
ATOM     31  C   UNL     1      37.764  30.442  49.076  0.00  0.00    +0.000 A 
ATOM     32  N   UNL     1      36.670  29.649  48.861  0.00  0.00    +0.000 NA
ATOM     33  C   UNL     1      35.935  29.159  49.890  0.00  0.00    +0.000 A 
ATOM     34  N   UNL     1      36.258  29.435  51.151  0.00  0.00    +0.000 NA
ATOM     35  H   UNL     1      37.622  30.461  52.448  0.00  0.00    +0.000 HD
ATOM     36  H   UNL     1      38.971  31.362  50.565  0.00  0.00    +0.000 HD
ATOM     37  H   UNL     1      38.342  30.827  48.228  0.00  0.00    +0.000 HD
ENDBRANCH  26  33
ENDBRANCH  23  26
ENDBRANCH   1  23
TORSDOF 3
