
 OpenBabel03272501553D

 37 40  0  0  0  0  0  0  0  0999 V2000
   38.4060   25.0280   36.1300 C   0  0  0  0  0  0  0  0  0  0  0  0
   38.0840   24.3420   37.2840 C   0  0  0  0  0  0  0  0  0  0  0  0
   37.1970   24.6500   37.8510 H   0  0  0  0  0  0  0  0  0  0  0  0
   38.8440   23.2950   37.7280 C   0  0  0  0  0  0  0  0  0  0  0  0
   38.5120   22.8090   38.6540 H   0  0  0  0  0  0  0  0  0  0  0  0
   39.9700   22.8550   37.0670 C   0  0  0  0  0  0  0  0  0  0  0  0
   40.2810   23.5320   35.9360 C   0  0  0  0  0  0  0  0  0  0  0  0
   39.5360   24.5630   35.4950 C   0  0  0  0  0  0  0  0  0  0  0  0
   39.8270   25.0850   34.5710 H   0  0  0  0  0  0  0  0  0  0  0  0
   41.7200   23.0410   35.0040 S   0  0  0  0  0  0  0  0  0  0  0  0
   42.4200   21.6700   35.8980 C   0  0  0  0  0  0  0  0  0  0  0  0
   43.5420   21.1340   35.3540 C   0  0  0  0  0  0  0  0  0  0  0  0
   44.0360   21.4600   34.4470 H   0  0  0  0  0  0  0  0  0  0  0  0
   44.1660   20.0580   35.9760 C   0  0  0  0  0  0  0  0  0  0  0  0
   45.0630   19.5990   35.5780 H   0  0  0  0  0  0  0  0  0  0  0  0
   43.6100   19.5720   37.1360 C   0  0  0  0  0  0  0  0  0  0  0  0
   44.0940   18.7360   37.6210 H   0  0  0  0  0  0  0  0  0  0  0  0
   42.4630   20.1700   37.6330 C   0  0  0  0  0  0  0  0  0  0  0  0
   42.1040   19.7120   38.5530 H   0  0  0  0  0  0  0  0  0  0  0  0
   41.8260   21.2380   37.0350 C   0  0  0  0  0  0  0  0  0  0  0  0
   40.6760   21.7620   37.6200 N   0  0  0  0  0  0  0  0  0  0  0  0
   40.3270   21.3290   38.5030 H   0  0  0  0  0  0  0  0  0  0  0  0
   37.5740   26.1460   35.6790 C   0  0  0  0  0  0  0  0  0  0  0  0
   37.3510   26.8940   36.4690 H   0  0  0  0  0  0  0  0  0  0  0  0
   36.5720   25.7360   35.3710 H   0  0  0  0  0  0  0  0  0  0  0  0
   38.1300   26.8450   34.4640 C   0  0  0  0  0  0  0  0  0  0  0  0
   39.1390   26.4540   34.2230 H   0  0  0  0  0  0  0  0  0  0  0  0
   38.2270   27.9290   34.6810 H   0  0  0  0  0  0  0  0  0  0  0  0
   35.7150   27.4130   31.7090 C   0  0  0  0  0  0  0  0  0  0  0  0
   35.5580   26.1250   31.1650 C   0  0  0  0  0  0  0  0  0  0  0  0
   36.2850   25.0660   31.7500 C   0  0  0  0  0  0  0  0  0  0  0  0
   37.0980   25.3600   32.8110 N   0  0  0  0  0  0  0  0  0  0  0  0
   37.2080   26.6240   33.2910 C   0  0  0  0  0  0  0  0  0  0  0  0
   36.5240   27.6240   32.7420 N   0  0  0  0  0  0  0  0  0  0  0  0
   35.1290   28.1910   31.2160 H   0  0  0  0  0  0  0  0  0  0  0  0
   34.9240   25.8770   30.3330 H   0  0  0  0  0  0  0  0  0  0  0  0
   36.2130   24.0370   31.3800 H   0  0  0  0  0  0  0  0  0  0  0  0
  1  2  1  0  0  0  0
  2  4  2  0  0  0  0
  2  3  1  0  0  0  0
  4  5  1  0  0  0  0
  6 21  1  0  0  0  0
  6  4  1  0  0  0  0
  7  6  2  0  0  0  0
  8  7  1  0  0  0  0
  8  1  2  0  0  0  0
  9  8  1  0  0  0  0
 10 11  1  0  0  0  0
 10  7  1  0  0  0  0
 11 20  1  0  0  0  0
 12 11  2  0  0  0  0
 12 14  1  0  0  0  0
 13 12  1  0  0  0  0
 14 16  2  0  0  0  0
 15 14  1  0  0  0  0
 16 17  1  0  0  0  0
 16 18  1  0  0  0  0
 18 19  1  0  0  0  0
 20 21  1  0  0  0  0
 20 18  2  0  0  0  0
 21 22  1  0  0  0  0
 23  1  1  0  0  0  0
 23 24  1  0  0  0  0
 25 23  1  0  0  0  0
 26 28  1  0  0  0  0
 26 23  1  0  0  0  0
 27 26  1  0  0  0  0
 29 34  1  0  0  0  0
 30 29  2  0  0  0  0
 30 31  1  0  0  0  0
 31 32  2  0  0  0  0
 32 33  1  0  0  0  0
 33 26  1  0  0  0  0
 34 33  2  0  0  0  0
 35 29  1  0  0  0  0
 36 30  1  0  0  0  0
 37 31  1  0  0  0  0
M  END
>  <minimizedAffinity>
-5.7583642

$$$$

 OpenBabel03272501553D

 37 40  0  0  0  0  0  0  0  0999 V2000
   37.1780   27.5380   33.4520 C   0  0  0  0  0  0  0  0  0  0  0  0
   38.3000   27.4030   32.6590 C   0  0  0  0  0  0  0  0  0  0  0  0
   38.3890   28.0260   31.7600 H   0  0  0  0  0  0  0  0  0  0  0  0
   39.2930   26.5160   32.9710 C   0  0  0  0  0  0  0  0  0  0  0  0
   40.1470   26.4770   32.2830 H   0  0  0  0  0  0  0  0  0  0  0  0
   39.2480   25.7030   34.0830 C   0  0  0  0  0  0  0  0  0  0  0  0
   38.1450   25.8390   34.8570 C   0  0  0  0  0  0  0  0  0  0  0  0
   37.1640   26.7120   34.5550 C   0  0  0  0  0  0  0  0  0  0  0  0
   36.2860   26.7890   35.2120 H   0  0  0  0  0  0  0  0  0  0  0  0
   37.9880   24.8340   36.3220 S   0  0  0  0  0  0  0  0  0  0  0  0
   39.4590   23.8320   36.3700 C   0  0  0  0  0  0  0  0  0  0  0  0
   39.5470   22.9780   37.4210 C   0  0  0  0  0  0  0  0  0  0  0  0
   38.8180   22.8570   38.2130 H   0  0  0  0  0  0  0  0  0  0  0  0
   40.6580   22.1520   37.5500 C   0  0  0  0  0  0  0  0  0  0  0  0
   40.7690   21.4560   38.3730 H   0  0  0  0  0  0  0  0  0  0  0  0
   41.6390   22.2360   36.5900 C   0  0  0  0  0  0  0  0  0  0  0  0
   42.5040   21.5940   36.6900 H   0  0  0  0  0  0  0  0  0  0  0  0
   41.4820   23.1310   35.5450 C   0  0  0  0  0  0  0  0  0  0  0  0
   42.3120   23.1200   34.8410 H   0  0  0  0  0  0  0  0  0  0  0  0
   40.3890   23.9610   35.3950 C   0  0  0  0  0  0  0  0  0  0  0  0
   40.3330   24.8250   34.3040 N   0  0  0  0  0  0  0  0  0  0  0  0
   41.1260   24.8190   33.6240 H   0  0  0  0  0  0  0  0  0  0  0  0
   36.1300   28.4960   33.0940 C   0  0  0  0  0  0  0  0  0  0  0  0
   35.4050   28.1160   32.3430 H   0  0  0  0  0  0  0  0  0  0  0  0
   36.6200   29.3850   32.6060 H   0  0  0  0  0  0  0  0  0  0  0  0
   35.3840   29.0330   34.2900 C   0  0  0  0  0  0  0  0  0  0  0  0
   35.6800   28.4840   35.2060 H   0  0  0  0  0  0  0  0  0  0  0  0
   34.2960   28.8820   34.1370 H   0  0  0  0  0  0  0  0  0  0  0  0
   36.2470   32.3180   35.7760 C   0  0  0  0  0  0  0  0  0  0  0  0
   36.2410   33.1740   34.6600 C   0  0  0  0  0  0  0  0  0  0  0  0
   35.9400   32.6150   33.3980 C   0  0  0  0  0  0  0  0  0  0  0  0
   35.6720   31.2750   33.3430 N   0  0  0  0  0  0  0  0  0  0  0  0
   35.6930   30.5000   34.4560 C   0  0  0  0  0  0  0  0  0  0  0  0
   35.9780   31.0230   35.6460 N   0  0  0  0  0  0  0  0  0  0  0  0
   36.4870   32.8050   36.7230 H   0  0  0  0  0  0  0  0  0  0  0  0
   36.4490   34.2290   34.6860 H   0  0  0  0  0  0  0  0  0  0  0  0
   35.9160   33.2210   32.4850 H   0  0  0  0  0  0  0  0  0  0  0  0
  1  8  1  0  0  0  0
  2  4  1  0  0  0  0
  2  1  2  0  0  0  0
  3  2  1  0  0  0  0
  4  6  2  0  0  0  0
  5  4  1  0  0  0  0
  6 21  1  0  0  0  0
  6  7  1  0  0  0  0
  7 10  1  0  0  0  0
  8  7  2  0  0  0  0
  8  9  1  0  0  0  0
 10 11  1  0  0  0  0
 11 12  1  0  0  0  0
 12 14  2  0  0  0  0
 12 13  1  0  0  0  0
 14 15  1  0  0  0  0
 16 17  1  0  0  0  0
 16 14  1  0  0  0  0
 18 16  2  0  0  0  0
 19 18  1  0  0  0  0
 20 18  1  0  0  0  0
 20 11  2  0  0  0  0
 21 20  1  0  0  0  0
 22 21  1  0  0  0  0
 23  1  1  0  0  0  0
 23 26  1  0  0  0  0
 24 23  1  0  0  0  0
 25 23  1  0  0  0  0
 26 33  1  0  0  0  0
 26 27  1  0  0  0  0
 28 26  1  0  0  0  0
 29 35  1  0  0  0  0
 30 36  1  0  0  0  0
 30 29  2  0  0  0  0
 31 30  1  0  0  0  0
 32 31  2  0  0  0  0
 32 33  1  0  0  0  0
 33 34  2  0  0  0  0
 34 29  1  0  0  0  0
 37 31  1  0  0  0  0
M  END
>  <minimizedAffinity>
-5.58449936

$$$$

 OpenBabel03272501553D

 37 40  0  0  0  0  0  0  0  0999 V2000
   38.0290   27.3200   31.9990 C   0  0  0  0  0  0  0  0  0  0  0  0
   37.0500   27.7420   32.8760 C   0  0  0  0  0  0  0  0  0  0  0  0
   36.3550   28.5280   32.5530 H   0  0  0  0  0  0  0  0  0  0  0  0
   36.9310   27.2050   34.1280 C   0  0  0  0  0  0  0  0  0  0  0  0
   36.1250   27.6020   34.7560 H   0  0  0  0  0  0  0  0  0  0  0  0
   37.7680   26.2170   34.5990 C   0  0  0  0  0  0  0  0  0  0  0  0
   38.7270   25.8060   33.7350 C   0  0  0  0  0  0  0  0  0  0  0  0
   38.8470   26.3320   32.5010 C   0  0  0  0  0  0  0  0  0  0  0  0
   39.6400   25.9680   31.8320 H   0  0  0  0  0  0  0  0  0  0  0  0
   39.8610   24.5290   34.2460 S   0  0  0  0  0  0  0  0  0  0  0  0
   39.3820   24.1040   35.9070 C   0  0  0  0  0  0  0  0  0  0  0  0
   40.1270   23.1360   36.4980 C   0  0  0  0  0  0  0  0  0  0  0  0
   40.9670   22.6120   36.0580 H   0  0  0  0  0  0  0  0  0  0  0  0
   39.8330   22.7320   37.7950 C   0  0  0  0  0  0  0  0  0  0  0  0
   40.4010   21.9630   38.3060 H   0  0  0  0  0  0  0  0  0  0  0  0
   38.7800   23.3410   38.4380 C   0  0  0  0  0  0  0  0  0  0  0  0
   38.5510   23.0280   39.4470 H   0  0  0  0  0  0  0  0  0  0  0  0
   38.0640   24.3220   37.7730 C   0  0  0  0  0  0  0  0  0  0  0  0
   37.2530   24.7400   38.3670 H   0  0  0  0  0  0  0  0  0  0  0  0
   38.3360   24.7410   36.4860 C   0  0  0  0  0  0  0  0  0  0  0  0
   37.5500   25.7360   35.9110 N   0  0  0  0  0  0  0  0  0  0  0  0
   36.7720   26.1420   36.4750 H   0  0  0  0  0  0  0  0  0  0  0  0
   38.1310   27.9140   30.6640 C   0  0  0  0  0  0  0  0  0  0  0  0
   38.5030   27.2160   29.8840 H   0  0  0  0  0  0  0  0  0  0  0  0
   38.8930   28.7420   30.7060 H   0  0  0  0  0  0  0  0  0  0  0  0
   36.8460   28.5530   30.2000 C   0  0  0  0  0  0  0  0  0  0  0  0
   36.2450   28.8840   31.0700 H   0  0  0  0  0  0  0  0  0  0  0  0
   36.2500   27.8030   29.6380 H   0  0  0  0  0  0  0  0  0  0  0  0
   38.1310   30.6610   27.4350 C   0  0  0  0  0  0  0  0  0  0  0  0
   37.6870   31.9470   27.7940 C   0  0  0  0  0  0  0  0  0  0  0  0
   36.9450   32.0820   28.9880 C   0  0  0  0  0  0  0  0  0  0  0  0
   36.7070   30.9510   29.7210 N   0  0  0  0  0  0  0  0  0  0  0  0
   37.1620   29.7380   29.3220 C   0  0  0  0  0  0  0  0  0  0  0  0
   37.8600   29.6070   28.1970 N   0  0  0  0  0  0  0  0  0  0  0  0
   38.6980   30.6180   26.5020 H   0  0  0  0  0  0  0  0  0  0  0  0
   37.8660   32.8440   27.2290 H   0  0  0  0  0  0  0  0  0  0  0  0
   36.5680   33.0520   29.3310 H   0  0  0  0  0  0  0  0  0  0  0  0
  1  8  2  0  0  0  0
  1  2  1  0  0  0  0
  2  4  2  0  0  0  0
  3  2  1  0  0  0  0
  4  6  1  0  0  0  0
  4  5  1  0  0  0  0
  6 21  1  0  0  0  0
  7 10  1  0  0  0  0
  7  6  2  0  0  0  0
  8  7  1  0  0  0  0
  9  8  1  0  0  0  0
 10 11  1  0  0  0  0
 11 20  2  0  0  0  0
 11 12  1  0  0  0  0
 12 14  2  0  0  0  0
 13 12  1  0  0  0  0
 14 15  1  0  0  0  0
 14 16  1  0  0  0  0
 16 17  1  0  0  0  0
 18 19  1  0  0  0  0
 18 16  2  0  0  0  0
 20 18  1  0  0  0  0
 21 22  1  0  0  0  0
 21 20  1  0  0  0  0
 23 25  1  0  0  0  0
 23  1  1  0  0  0  0
 24 23  1  0  0  0  0
 26 23  1  0  0  0  0
 26 27  1  0  0  0  0
 28 26  1  0  0  0  0
 29 30  2  0  0  0  0
 29 34  1  0  0  0  0
 30 31  1  0  0  0  0
 31 37  1  0  0  0  0
 31 32  2  0  0  0  0
 33 32  1  0  0  0  0
 33 26  1  0  0  0  0
 34 33  2  0  0  0  0
 35 29  1  0  0  0  0
 36 30  1  0  0  0  0
M  END
>  <minimizedAffinity>
-5.49481583

$$$$

 OpenBabel03272501553D

 37 40  0  0  0  0  0  0  0  0999 V2000
   37.6720   27.7560   32.2020 C   0  0  0  0  0  0  0  0  0  0  0  0
   36.7350   28.0740   33.1650 C   0  0  0  0  0  0  0  0  0  0  0  0
   36.0020   28.8620   32.9490 H   0  0  0  0  0  0  0  0  0  0  0  0
   36.7040   27.4320   34.3720 C   0  0  0  0  0  0  0  0  0  0  0  0
   35.9260   27.7510   35.0760 H   0  0  0  0  0  0  0  0  0  0  0  0
   37.5930   26.4350   34.7110 C   0  0  0  0  0  0  0  0  0  0  0  0
   38.5100   26.1270   33.7630 C   0  0  0  0  0  0  0  0  0  0  0  0
   38.5440   26.7560   32.5730 C   0  0  0  0  0  0  0  0  0  0  0  0
   39.3060   26.4730   31.8320 H   0  0  0  0  0  0  0  0  0  0  0  0
   39.7060   24.8480   34.1010 S   0  0  0  0  0  0  0  0  0  0  0  0
   39.3350   24.2730   35.7450 C   0  0  0  0  0  0  0  0  0  0  0  0
   40.1390   23.2830   36.2090 C   0  0  0  0  0  0  0  0  0  0  0  0
   40.9650   22.8240   35.6800 H   0  0  0  0  0  0  0  0  0  0  0  0
   39.9320   22.7650   37.4830 C   0  0  0  0  0  0  0  0  0  0  0  0
   40.5490   21.9750   37.8940 H   0  0  0  0  0  0  0  0  0  0  0  0
   38.9030   23.2860   38.2320 C   0  0  0  0  0  0  0  0  0  0  0  0
   38.7410   22.8830   39.2230 H   0  0  0  0  0  0  0  0  0  0  0  0
   38.1240   24.2960   37.6930 C   0  0  0  0  0  0  0  0  0  0  0  0
   37.3380   24.6380   38.3650 H   0  0  0  0  0  0  0  0  0  0  0  0
   38.3090   24.8270   36.4320 C   0  0  0  0  0  0  0  0  0  0  0  0
   37.4650   25.8420   35.9880 N   0  0  0  0  0  0  0  0  0  0  0  0
   36.7100   26.1750   36.6270 H   0  0  0  0  0  0  0  0  0  0  0  0
   37.6810   28.4610   30.9190 C   0  0  0  0  0  0  0  0  0  0  0  0
   37.8010   27.7970   30.0360 H   0  0  0  0  0  0  0  0  0  0  0  0
   38.5770   29.1430   30.8980 H   0  0  0  0  0  0  0  0  0  0  0  0
   36.4760   29.3490   30.7230 C   0  0  0  0  0  0  0  0  0  0  0  0
   35.7530   29.2040   31.5490 H   0  0  0  0  0  0  0  0  0  0  0  0
   35.9720   29.0720   29.7740 H   0  0  0  0  0  0  0  0  0  0  0  0
   38.0840   32.5270   29.6930 C   0  0  0  0  0  0  0  0  0  0  0  0
   37.6640   33.4240   30.6920 C   0  0  0  0  0  0  0  0  0  0  0  0
   36.8270   32.9290   31.7170 C   0  0  0  0  0  0  0  0  0  0  0  0
   36.4790   31.6070   31.6730 N   0  0  0  0  0  0  0  0  0  0  0  0
   36.9170   30.7900   30.6820 C   0  0  0  0  0  0  0  0  0  0  0  0
   37.7040   31.2540   29.7150 N   0  0  0  0  0  0  0  0  0  0  0  0
   38.7270   32.9650   28.9280 H   0  0  0  0  0  0  0  0  0  0  0  0
   37.9280   34.4650   30.7420 H   0  0  0  0  0  0  0  0  0  0  0  0
   36.4620   33.5700   32.5280 H   0  0  0  0  0  0  0  0  0  0  0  0
  1  8  2  0  0  0  0
  1  2  1  0  0  0  0
  2  4  2  0  0  0  0
  3  2  1  0  0  0  0
  4  6  1  0  0  0  0
  4  5  1  0  0  0  0
  6 21  1  0  0  0  0
  7 10  1  0  0  0  0
  7  6  2  0  0  0  0
  8  7  1  0  0  0  0
  9  8  1  0  0  0  0
 10 11  1  0  0  0  0
 11 12  2  0  0  0  0
 11 20  1  0  0  0  0
 12 14  1  0  0  0  0
 13 12  1  0  0  0  0
 14 15  1  0  0  0  0
 14 16  2  0  0  0  0
 16 17  1  0  0  0  0
 18 16  1  0  0  0  0
 18 19  1  0  0  0  0
 20 18  2  0  0  0  0
 21 20  1  0  0  0  0
 21 22  1  0  0  0  0
 23  1  1  0  0  0  0
 24 23  1  0  0  0  0
 25 23  1  0  0  0  0
 26 23  1  0  0  0  0
 26 27  1  0  0  0  0
 28 26  1  0  0  0  0
 29 34  2  0  0  0  0
 29 30  1  0  0  0  0
 30 36  1  0  0  0  0
 30 31  2  0  0  0  0
 31 37  1  0  0  0  0
 32 31  1  0  0  0  0
 33 26  1  0  0  0  0
 33 32  2  0  0  0  0
 34 33  1  0  0  0  0
 35 29  1  0  0  0  0
M  END
>  <minimizedAffinity>
-5.46893358

$$$$

 OpenBabel03272501553D

 37 40  0  0  0  0  0  0  0  0999 V2000
   37.3200   25.6060   30.9290 C   0  0  0  0  0  0  0  0  0  0  0  0
   35.9540   25.6030   31.1240 C   0  0  0  0  0  0  0  0  0  0  0  0
   35.4100   26.5550   31.0650 H   0  0  0  0  0  0  0  0  0  0  0  0
   35.2720   24.4480   31.3880 C   0  0  0  0  0  0  0  0  0  0  0  0
   34.1880   24.5410   31.5300 H   0  0  0  0  0  0  0  0  0  0  0  0
   35.8890   23.2190   31.4770 C   0  0  0  0  0  0  0  0  0  0  0  0
   37.2300   23.2270   31.2850 C   0  0  0  0  0  0  0  0  0  0  0  0
   37.9060   24.3630   31.0240 C   0  0  0  0  0  0  0  0  0  0  0  0
   38.9940   24.3230   30.8740 H   0  0  0  0  0  0  0  0  0  0  0  0
   38.1260   21.6880   31.3770 S   0  0  0  0  0  0  0  0  0  0  0  0
   36.9000   20.4460   31.7320 C   0  0  0  0  0  0  0  0  0  0  0  0
   37.3740   19.1790   31.8470 C   0  0  0  0  0  0  0  0  0  0  0  0
   38.4050   18.8660   31.7440 H   0  0  0  0  0  0  0  0  0  0  0  0
   36.4970   18.1360   32.1220 C   0  0  0  0  0  0  0  0  0  0  0  0
   36.8300   17.1100   32.2230 H   0  0  0  0  0  0  0  0  0  0  0  0
   35.1620   18.4370   32.2690 C   0  0  0  0  0  0  0  0  0  0  0  0
   34.4800   17.6260   32.4840 H   0  0  0  0  0  0  0  0  0  0  0  0
   34.7520   19.7530   32.1390 C   0  0  0  0  0  0  0  0  0  0  0  0
   33.6790   19.8840   32.2730 H   0  0  0  0  0  0  0  0  0  0  0  0
   35.6020   20.8050   31.8660 C   0  0  0  0  0  0  0  0  0  0  0  0
   35.0820   22.0920   31.7550 N   0  0  0  0  0  0  0  0  0  0  0  0
   34.0550   22.2250   31.8830 H   0  0  0  0  0  0  0  0  0  0  0  0
   38.0240   26.8600   30.6480 C   0  0  0  0  0  0  0  0  0  0  0  0
   37.8750   27.2420   29.6160 H   0  0  0  0  0  0  0  0  0  0  0  0
   39.1300   26.6690   30.7350 H   0  0  0  0  0  0  0  0  0  0  0  0
   37.7090   27.9510   31.6410 C   0  0  0  0  0  0  0  0  0  0  0  0
   36.6140   28.1120   31.7010 H   0  0  0  0  0  0  0  0  0  0  0  0
   38.1760   28.8980   31.3000 H   0  0  0  0  0  0  0  0  0  0  0  0
   39.9690   26.9050   34.3870 C   0  0  0  0  0  0  0  0  0  0  0  0
   39.1090   26.8690   35.5000 C   0  0  0  0  0  0  0  0  0  0  0  0
   37.7520   27.2060   35.2990 C   0  0  0  0  0  0  0  0  0  0  0  0
   37.3610   27.5460   34.0320 N   0  0  0  0  0  0  0  0  0  0  0  0
   38.2390   27.5620   32.9990 C   0  0  0  0  0  0  0  0  0  0  0  0
   39.5180   27.2460   33.1850 N   0  0  0  0  0  0  0  0  0  0  0  0
   41.0050   26.6350   34.6030 H   0  0  0  0  0  0  0  0  0  0  0  0
   39.4000   26.6050   36.5000 H   0  0  0  0  0  0  0  0  0  0  0  0
   37.0250   27.2000   36.1180 H   0  0  0  0  0  0  0  0  0  0  0  0
  1  8  2  0  0  0  0
  1  2  1  0  0  0  0
  2  4  2  0  0  0  0
  3  2  1  0  0  0  0
  4  6  1  0  0  0  0
  4  5  1  0  0  0  0
  6 21  1  0  0  0  0
  7 10  1  0  0  0  0
  7  6  2  0  0  0  0
  8  7  1  0  0  0  0
  9  8  1  0  0  0  0
 10 11  1  0  0  0  0
 11 12  2  0  0  0  0
 11 20  1  0  0  0  0
 12 14  1  0  0  0  0
 13 12  1  0  0  0  0
 14 15  1  0  0  0  0
 14 16  2  0  0  0  0
 16 17  1  0  0  0  0
 18 16  1  0  0  0  0
 18 19  1  0  0  0  0
 20 18  2  0  0  0  0
 21 20  1  0  0  0  0
 21 22  1  0  0  0  0
 23 25  1  0  0  0  0
 23  1  1  0  0  0  0
 23 26  1  0  0  0  0
 24 23  1  0  0  0  0
 26 27  1  0  0  0  0
 26 33  1  0  0  0  0
 28 26  1  0  0  0  0
 29 35  1  0  0  0  0
 29 30  1  0  0  0  0
 30 36  1  0  0  0  0
 31 30  2  0  0  0  0
 31 37  1  0  0  0  0
 32 31  1  0  0  0  0
 33 34  1  0  0  0  0
 33 32  2  0  0  0  0
 34 29  2  0  0  0  0
M  END
>  <minimizedAffinity>
-5.41932154

$$$$

 OpenBabel03272501553D

 37 40  0  0  0  0  0  0  0  0999 V2000
   37.1470   27.5350   34.0100 C   0  0  0  0  0  0  0  0  0  0  0  0
   38.2130   27.4490   33.1360 C   0  0  0  0  0  0  0  0  0  0  0  0
   38.2420   28.1240   32.2710 H   0  0  0  0  0  0  0  0  0  0  0  0
   39.2220   26.5470   33.3260 C   0  0  0  0  0  0  0  0  0  0  0  0
   40.0270   26.5490   32.5810 H   0  0  0  0  0  0  0  0  0  0  0  0
   39.2500   25.6690   34.3880 C   0  0  0  0  0  0  0  0  0  0  0  0
   38.2030   25.7570   35.2420 C   0  0  0  0  0  0  0  0  0  0  0  0
   37.2060   26.6450   35.0590 C   0  0  0  0  0  0  0  0  0  0  0  0
   36.3750   26.6810   35.7790 H   0  0  0  0  0  0  0  0  0  0  0  0
   38.1430   24.6660   36.6510 S   0  0  0  0  0  0  0  0  0  0  0  0
   39.6110   23.6650   36.5400 C   0  0  0  0  0  0  0  0  0  0  0  0
   39.7680   22.7500   37.5300 C   0  0  0  0  0  0  0  0  0  0  0  0
   39.0940   22.5810   38.3610 H   0  0  0  0  0  0  0  0  0  0  0  0
   40.8830   21.9190   37.5340 C   0  0  0  0  0  0  0  0  0  0  0  0
   41.0480   21.1750   38.3040 H   0  0  0  0  0  0  0  0  0  0  0  0
   41.7970   22.0620   36.5160 C   0  0  0  0  0  0  0  0  0  0  0  0
   42.6640   21.4160   36.5180 H   0  0  0  0  0  0  0  0  0  0  0  0
   41.5710   23.0170   35.5390 C   0  0  0  0  0  0  0  0  0  0  0  0
   42.3520   23.0490   34.7810 H   0  0  0  0  0  0  0  0  0  0  0  0
   40.4730   23.8530   35.5130 C   0  0  0  0  0  0  0  0  0  0  0  0
   40.3460   24.7800   34.4820 N   0  0  0  0  0  0  0  0  0  0  0  0
   41.0900   24.8160   33.7510 H   0  0  0  0  0  0  0  0  0  0  0  0
   36.0800   28.5120   33.7810 C   0  0  0  0  0  0  0  0  0  0  0  0
   36.2680   29.5050   34.2410 H   0  0  0  0  0  0  0  0  0  0  0  0
   35.1430   28.1300   34.2750 H   0  0  0  0  0  0  0  0  0  0  0  0
   35.7410   28.6870   32.3210 C   0  0  0  0  0  0  0  0  0  0  0  0
   35.5570   27.7020   31.8480 H   0  0  0  0  0  0  0  0  0  0  0  0
   36.6020   29.1590   31.8030 H   0  0  0  0  0  0  0  0  0  0  0  0
   33.4090   31.3900   31.3260 C   0  0  0  0  0  0  0  0  0  0  0  0
   32.2300   31.0530   32.0170 C   0  0  0  0  0  0  0  0  0  0  0  0
   32.2450   29.8940   32.8240 C   0  0  0  0  0  0  0  0  0  0  0  0
   33.4070   29.1720   32.8820 N   0  0  0  0  0  0  0  0  0  0  0  0
   34.5110   29.5490   32.1920 C   0  0  0  0  0  0  0  0  0  0  0  0
   34.5010   30.6400   31.4300 N   0  0  0  0  0  0  0  0  0  0  0  0
   33.3380   32.2950   30.7190 H   0  0  0  0  0  0  0  0  0  0  0  0
   31.3110   31.6080   31.9830 H   0  0  0  0  0  0  0  0  0  0  0  0
   31.3650   29.5690   33.3910 H   0  0  0  0  0  0  0  0  0  0  0  0
  1  8  1  0  0  0  0
  2  4  1  0  0  0  0
  2  1  2  0  0  0  0
  3  2  1  0  0  0  0
  4  6  2  0  0  0  0
  5  4  1  0  0  0  0
  6 21  1  0  0  0  0
  6  7  1  0  0  0  0
  7 10  1  0  0  0  0
  8  7  2  0  0  0  0
  8  9  1  0  0  0  0
 11 10  1  0  0  0  0
 11 12  1  0  0  0  0
 12 14  2  0  0  0  0
 12 13  1  0  0  0  0
 14 15  1  0  0  0  0
 16 17  1  0  0  0  0
 16 14  1  0  0  0  0
 18 16  2  0  0  0  0
 19 18  1  0  0  0  0
 20 18  1  0  0  0  0
 20 11  2  0  0  0  0
 21 20  1  0  0  0  0
 22 21  1  0  0  0  0
 23  1  1  0  0  0  0
 23 24  1  0  0  0  0
 23 25  1  0  0  0  0
 26 23  1  0  0  0  0
 27 26  1  0  0  0  0
 28 26  1  0  0  0  0
 29 34  2  0  0  0  0
 29 30  1  0  0  0  0
 30 31  2  0  0  0  0
 31 32  1  0  0  0  0
 31 37  1  0  0  0  0
 33 26  1  0  0  0  0
 33 32  2  0  0  0  0
 34 33  1  0  0  0  0
 35 29  1  0  0  0  0
 36 30  1  0  0  0  0
M  END
>  <minimizedAffinity>
-5.40282393

$$$$

 OpenBabel03272501553D

 37 40  0  0  0  0  0  0  0  0999 V2000
   38.1670   26.7570   34.0000 C   0  0  0  0  0  0  0  0  0  0  0  0
   37.3720   26.2660   35.0170 C   0  0  0  0  0  0  0  0  0  0  0  0
   36.3780   26.7040   35.1680 H   0  0  0  0  0  0  0  0  0  0  0  0
   37.7980   25.2540   35.8320 C   0  0  0  0  0  0  0  0  0  0  0  0
   37.1000   24.9280   36.6130 H   0  0  0  0  0  0  0  0  0  0  0  0
   39.0340   24.6580   35.7010 C   0  0  0  0  0  0  0  0  0  0  0  0
   39.8100   25.1420   34.7020 C   0  0  0  0  0  0  0  0  0  0  0  0
   39.3950   26.1390   33.8970 C   0  0  0  0  0  0  0  0  0  0  0  0
   40.0580   26.5020   33.0980 H   0  0  0  0  0  0  0  0  0  0  0  0
   41.4280   24.4390   34.4460 S   0  0  0  0  0  0  0  0  0  0  0  0
   41.5980   23.1750   35.6880 C   0  0  0  0  0  0  0  0  0  0  0  0
   42.7770   22.5020   35.6740 C   0  0  0  0  0  0  0  0  0  0  0  0
   43.6010   22.6620   34.9910 H   0  0  0  0  0  0  0  0  0  0  0  0
   43.0090   21.4940   36.6050 C   0  0  0  0  0  0  0  0  0  0  0  0
   43.9340   20.9310   36.6310 H   0  0  0  0  0  0  0  0  0  0  0  0
   42.0160   21.2170   37.5160 C   0  0  0  0  0  0  0  0  0  0  0  0
   42.1960   20.4340   38.2400 H   0  0  0  0  0  0  0  0  0  0  0  0
   40.8390   21.9460   37.4710 C   0  0  0  0  0  0  0  0  0  0  0  0
   40.1210   21.6490   38.2330 H   0  0  0  0  0  0  0  0  0  0  0  0
   40.5860   22.9500   36.5580 C   0  0  0  0  0  0  0  0  0  0  0  0
   39.3650   23.6190   36.6010 N   0  0  0  0  0  0  0  0  0  0  0  0
   38.6720   23.3410   37.3300 H   0  0  0  0  0  0  0  0  0  0  0  0
   37.6850   27.8420   33.1430 C   0  0  0  0  0  0  0  0  0  0  0  0
   38.1650   28.8240   33.3400 H   0  0  0  0  0  0  0  0  0  0  0  0
   36.5920   28.0000   33.3590 H   0  0  0  0  0  0  0  0  0  0  0  0
   37.7780   27.5200   31.6720 C   0  0  0  0  0  0  0  0  0  0  0  0
   38.8280   27.3040   31.3910 H   0  0  0  0  0  0  0  0  0  0  0  0
   37.4410   28.4000   31.0860 H   0  0  0  0  0  0  0  0  0  0  0  0
   34.8400   25.3390   31.0780 C   0  0  0  0  0  0  0  0  0  0  0  0
   35.4310   24.0940   30.7960 C   0  0  0  0  0  0  0  0  0  0  0  0
   36.8400   24.0110   30.8120 C   0  0  0  0  0  0  0  0  0  0  0  0
   37.5420   25.1490   31.1020 N   0  0  0  0  0  0  0  0  0  0  0  0
   36.9150   26.3220   31.3660 C   0  0  0  0  0  0  0  0  0  0  0  0
   35.5860   26.4040   31.3500 N   0  0  0  0  0  0  0  0  0  0  0  0
   33.7480   25.3430   31.0510 H   0  0  0  0  0  0  0  0  0  0  0  0
   34.8940   23.1910   30.5670 H   0  0  0  0  0  0  0  0  0  0  0  0
   37.3700   23.0740   30.6030 H   0  0  0  0  0  0  0  0  0  0  0  0
  1  2  1  0  0  0  0
  2  3  1  0  0  0  0
  2  4  2  0  0  0  0
  4  5  1  0  0  0  0
  6  4  1  0  0  0  0
  6 21  1  0  0  0  0
  7  6  2  0  0  0  0
  8  1  2  0  0  0  0
  8  7  1  0  0  0  0
  9  8  1  0  0  0  0
 10  7  1  0  0  0  0
 10 11  1  0  0  0  0
 11 20  1  0  0  0  0
 12 11  2  0  0  0  0
 12 14  1  0  0  0  0
 13 12  1  0  0  0  0
 14 15  1  0  0  0  0
 14 16  2  0  0  0  0
 16 17  1  0  0  0  0
 18 16  1  0  0  0  0
 18 19  1  0  0  0  0
 20 21  1  0  0  0  0
 20 18  2  0  0  0  0
 21 22  1  0  0  0  0
 23 24  1  0  0  0  0
 23 25  1  0  0  0  0
 23  1  1  0  0  0  0
 26 23  1  0  0  0  0
 27 26  1  0  0  0  0
 28 26  1  0  0  0  0
 29 34  1  0  0  0  0
 30 31  1  0  0  0  0
 30 29  2  0  0  0  0
 31 32  2  0  0  0  0
 32 33  1  0  0  0  0
 33 26  1  0  0  0  0
 34 33  2  0  0  0  0
 35 29  1  0  0  0  0
 36 30  1  0  0  0  0
 37 31  1  0  0  0  0
M  END
>  <minimizedAffinity>
-5.37927055

$$$$

 OpenBabel03272501553D

 37 40  0  0  0  0  0  0  0  0999 V2000
   36.2490   28.3070   33.0750 C   0  0  0  0  0  0  0  0  0  0  0  0
   36.2270   27.4160   32.0210 C   0  0  0  0  0  0  0  0  0  0  0  0
   35.7790   27.7330   31.0710 H   0  0  0  0  0  0  0  0  0  0  0  0
   36.7480   26.1570   32.1380 C   0  0  0  0  0  0  0  0  0  0  0  0
   36.6860   25.5180   31.2490 H   0  0  0  0  0  0  0  0  0  0  0  0
   37.3250   25.6920   33.3000 C   0  0  0  0  0  0  0  0  0  0  0  0
   37.3440   26.5700   34.3310 C   0  0  0  0  0  0  0  0  0  0  0  0
   36.8320   27.8110   34.2200 C   0  0  0  0  0  0  0  0  0  0  0  0
   36.8690   28.4910   35.0830 H   0  0  0  0  0  0  0  0  0  0  0  0
   38.0700   26.0680   35.8800 S   0  0  0  0  0  0  0  0  0  0  0  0
   38.6220   24.3940   35.6260 C   0  0  0  0  0  0  0  0  0  0  0  0
   39.2140   23.8090   36.6970 C   0  0  0  0  0  0  0  0  0  0  0  0
   39.3770   24.2590   37.6680 H   0  0  0  0  0  0  0  0  0  0  0  0
   39.6800   22.5020   36.6010 C   0  0  0  0  0  0  0  0  0  0  0  0
   40.1590   21.9950   37.4300 H   0  0  0  0  0  0  0  0  0  0  0  0
   39.5190   21.8460   35.4020 C   0  0  0  0  0  0  0  0  0  0  0  0
   39.8810   20.8300   35.3270 H   0  0  0  0  0  0  0  0  0  0  0  0
   38.9050   22.5070   34.3520 C   0  0  0  0  0  0  0  0  0  0  0  0
   38.8260   21.9020   33.4510 H   0  0  0  0  0  0  0  0  0  0  0  0
   38.4340   23.8030   34.4230 C   0  0  0  0  0  0  0  0  0  0  0  0
   37.8320   24.3720   33.3030 N   0  0  0  0  0  0  0  0  0  0  0  0
   37.7520   23.7970   32.4360 H   0  0  0  0  0  0  0  0  0  0  0  0
   35.6820   29.6490   32.9200 C   0  0  0  0  0  0  0  0  0  0  0  0
   35.6300   30.0010   31.8680 H   0  0  0  0  0  0  0  0  0  0  0  0
   36.3620   30.3790   33.4410 H   0  0  0  0  0  0  0  0  0  0  0  0
   34.3300   29.7990   33.5720 C   0  0  0  0  0  0  0  0  0  0  0  0
   33.9230   28.8060   33.8470 H   0  0  0  0  0  0  0  0  0  0  0  0
   33.6300   30.2680   32.8490 H   0  0  0  0  0  0  0  0  0  0  0  0
   35.6810   32.0640   36.1770 C   0  0  0  0  0  0  0  0  0  0  0  0
   34.6040   32.1810   37.0740 C   0  0  0  0  0  0  0  0  0  0  0  0
   33.4150   31.4780   36.7770 C   0  0  0  0  0  0  0  0  0  0  0  0
   33.3880   30.7280   35.6340 N   0  0  0  0  0  0  0  0  0  0  0  0
   34.4610   30.6540   34.8070 C   0  0  0  0  0  0  0  0  0  0  0  0
   35.5820   31.3150   35.0840 N   0  0  0  0  0  0  0  0  0  0  0  0
   36.5720   32.6290   36.4580 H   0  0  0  0  0  0  0  0  0  0  0  0
   34.6090   32.7660   37.9760 H   0  0  0  0  0  0  0  0  0  0  0  0
   32.5360   31.5220   37.4300 H   0  0  0  0  0  0  0  0  0  0  0  0
  1  8  1  0  0  0  0
  2  4  1  0  0  0  0
  2  1  2  0  0  0  0
  3  2  1  0  0  0  0
  4  6  2  0  0  0  0
  5  4  1  0  0  0  0
  6 21  1  0  0  0  0
  6  7  1  0  0  0  0
  7 10  1  0  0  0  0
  8  7  2  0  0  0  0
  8  9  1  0  0  0  0
 11 10  1  0  0  0  0
 11 12  1  0  0  0  0
 12 13  1  0  0  0  0
 14 12  2  0  0  0  0
 14 15  1  0  0  0  0
 16 14  1  0  0  0  0
 17 16  1  0  0  0  0
 18 20  1  0  0  0  0
 18 16  2  0  0  0  0
 19 18  1  0  0  0  0
 20 11  2  0  0  0  0
 21 20  1  0  0  0  0
 22 21  1  0  0  0  0
 23  1  1  0  0  0  0
 23 25  1  0  0  0  0
 23 26  1  0  0  0  0
 24 23  1  0  0  0  0
 26 27  1  0  0  0  0
 26 33  1  0  0  0  0
 28 26  1  0  0  0  0
 29 35  1  0  0  0  0
 29 30  1  0  0  0  0
 30 36  1  0  0  0  0
 31 30  2  0  0  0  0
 31 37  1  0  0  0  0
 32 31  1  0  0  0  0
 33 34  1  0  0  0  0
 33 32  2  0  0  0  0
 34 29  2  0  0  0  0
M  END
>  <minimizedAffinity>
-5.32468081

$$$$

 OpenBabel03272501553D

 37 40  0  0  0  0  0  0  0  0999 V2000
   37.5100   27.2890   33.8850 C   0  0  0  0  0  0  0  0  0  0  0  0
   38.6880   27.3640   33.1700 C   0  0  0  0  0  0  0  0  0  0  0  0
   38.7730   28.1110   32.3700 H   0  0  0  0  0  0  0  0  0  0  0  0
   39.7410   26.5330   33.4360 C   0  0  0  0  0  0  0  0  0  0  0  0
   40.6360   26.6650   32.8160 H   0  0  0  0  0  0  0  0  0  0  0  0
   39.7040   25.5730   34.4230 C   0  0  0  0  0  0  0  0  0  0  0  0
   38.5460   25.5030   35.1230 C   0  0  0  0  0  0  0  0  0  0  0  0
   37.5070   26.3190   34.8640 C   0  0  0  0  0  0  0  0  0  0  0  0
   36.5850   26.2270   35.4580 H   0  0  0  0  0  0  0  0  0  0  0  0
   38.3950   24.2940   36.4250 S   0  0  0  0  0  0  0  0  0  0  0  0
   39.9510   23.4290   36.4520 C   0  0  0  0  0  0  0  0  0  0  0  0
   40.0530   22.4480   37.3850 C   0  0  0  0  0  0  0  0  0  0  0  0
   39.2910   22.1540   38.0960 H   0  0  0  0  0  0  0  0  0  0  0  0
   41.2290   21.7120   37.4880 C   0  0  0  0  0  0  0  0  0  0  0  0
   41.3550   20.9210   38.2170 H   0  0  0  0  0  0  0  0  0  0  0  0
   42.2570   22.0150   36.6250 C   0  0  0  0  0  0  0  0  0  0  0  0
   43.1710   21.4430   36.7050 H   0  0  0  0  0  0  0  0  0  0  0  0
   42.0800   23.0280   35.6980 C   0  0  0  0  0  0  0  0  0  0  0  0
   42.9510   23.1880   35.0650 H   0  0  0  0  0  0  0  0  0  0  0  0
   40.9240   23.7720   35.5760 C   0  0  0  0  0  0  0  0  0  0  0  0
   40.8540   24.7710   34.6090 N   0  0  0  0  0  0  0  0  0  0  0  0
   41.6840   24.9290   33.9970 H   0  0  0  0  0  0  0  0  0  0  0  0
   36.3990   28.1920   33.5780 C   0  0  0  0  0  0  0  0  0  0  0  0
   36.6620   29.2700   33.6320 H   0  0  0  0  0  0  0  0  0  0  0  0
   35.6000   28.0440   34.3570 H   0  0  0  0  0  0  0  0  0  0  0  0
   35.7470   27.8970   32.2500 C   0  0  0  0  0  0  0  0  0  0  0  0
   34.6540   28.0680   32.3110 H   0  0  0  0  0  0  0  0  0  0  0  0
   35.9120   26.8300   31.9940 H   0  0  0  0  0  0  0  0  0  0  0  0
   36.8970   30.8870   30.3840 C   0  0  0  0  0  0  0  0  0  0  0  0
   37.4420   30.3300   29.2120 C   0  0  0  0  0  0  0  0  0  0  0  0
   37.4100   28.9250   29.0700 C   0  0  0  0  0  0  0  0  0  0  0  0
   36.8510   28.1950   30.0830 N   0  0  0  0  0  0  0  0  0  0  0  0
   36.3410   28.7900   31.1900 C   0  0  0  0  0  0  0  0  0  0  0  0
   36.3700   30.1130   31.3270 N   0  0  0  0  0  0  0  0  0  0  0  0
   36.9500   31.9760   30.4380 H   0  0  0  0  0  0  0  0  0  0  0  0
   37.8840   30.8890   28.4080 H   0  0  0  0  0  0  0  0  0  0  0  0
   37.8150   28.4210   28.1850 H   0  0  0  0  0  0  0  0  0  0  0  0
  1  8  1  0  0  0  0
  2  4  1  0  0  0  0
  2  1  2  0  0  0  0
  3  2  1  0  0  0  0
  4  6  2  0  0  0  0
  5  4  1  0  0  0  0
  6 21  1  0  0  0  0
  6  7  1  0  0  0  0
  7 10  1  0  0  0  0
  8  7  2  0  0  0  0
  8  9  1  0  0  0  0
 10 11  1  0  0  0  0
 11 12  1  0  0  0  0
 12 14  2  0  0  0  0
 12 13  1  0  0  0  0
 14 15  1  0  0  0  0
 16 17  1  0  0  0  0
 16 14  1  0  0  0  0
 18 16  2  0  0  0  0
 19 18  1  0  0  0  0
 20 18  1  0  0  0  0
 20 11  2  0  0  0  0
 21 20  1  0  0  0  0
 22 21  1  0  0  0  0
 23 24  1  0  0  0  0
 23  1  1  0  0  0  0
 23 25  1  0  0  0  0
 26 27  1  0  0  0  0
 26 23  1  0  0  0  0
 28 26  1  0  0  0  0
 29 35  1  0  0  0  0
 29 34  1  0  0  0  0
 30 29  2  0  0  0  0
 31 30  1  0  0  0  0
 31 32  2  0  0  0  0
 32 33  1  0  0  0  0
 33 34  2  0  0  0  0
 33 26  1  0  0  0  0
 36 30  1  0  0  0  0
 37 31  1  0  0  0  0
M  END
>  <minimizedAffinity>
-5.32358074

$$$$
