REMARK  Name = 
REMARK  2 active torsions:
REMARK  status: ('A' for Active; 'I' for Inactive)
REMARK    1  A    between atoms: C_1  and  C_7
REMARK    2  A    between atoms: C_5  and  C_13
REMARK                            x       y       z     vdW  Elec       q    Type
REMARK                         _______ _______ _______ _____ _____    ______ ____
ROOT
ATOM      1  C   UNL     1      36.119  30.539  46.537  0.00  0.00    +0.000 A 
ATOM      2  C   UNL     1      35.578  31.597  45.831  0.00  0.00    +0.000 A 
ATOM      3  H   UNL     1      35.717  32.592  46.187  0.00  0.00    +0.000 HD
ATOM      4  C   UNL     1      34.875  31.297  44.682  0.00  0.00    +0.000 A 
ATOM      5  H   UNL     1      34.477  32.171  44.175  0.00  0.00    +0.000 HD
ATOM      6  C   UNL     1      34.658  30.037  44.166  0.00  0.00    +0.000 A 
ATOM      7  C   UNL     1      35.223  29.037  44.918  0.00  0.00    +0.000 A 
ATOM      8  C   UNL     1      35.928  29.259  46.059  0.00  0.00    +0.000 A 
ATOM      9  H   UNL     1      36.361  28.446  46.630  0.00  0.00    +0.000 HD
ATOM     10  S   UNL     1      35.041  27.342  44.397  0.00  0.00    +0.000 S 
ATOM     11  C   UNL     1      34.085  27.394  42.897  0.00  0.00    +0.000 A 
ATOM     12  C   UNL     1      33.765  26.264  42.236  0.00  0.00    +0.000 A 
ATOM     13  H   UNL     1      34.114  25.306  42.654  0.00  0.00    +0.000 HD
ATOM     14  C   UNL     1      33.030  26.204  41.070  0.00  0.00    +0.000 A 
ATOM     15  H   UNL     1      32.798  25.284  40.577  0.00  0.00    +0.000 HD
ATOM     16  C   UNL     1      32.612  27.429  40.581  0.00  0.00    +0.000 A 
ATOM     17  H   UNL     1      32.029  27.456  39.665  0.00  0.00    +0.000 HD
ATOM     18  C   UNL     1      32.938  28.589  41.255  0.00  0.00    +0.000 A 
ATOM     19  H   UNL     1      32.566  29.519  40.797  0.00  0.00    +0.000 HD
ATOM     20  C   UNL     1      33.673  28.612  42.417  0.00  0.00    +0.000 A 
ATOM     21  N   UNL     1      33.919  29.868  42.977  0.00  0.00    +0.000 N 
ATOM     22  H   UNL     1      33.562  30.740  42.535  0.00  0.00    +0.000 HD
ENDROOT
BRANCH   1  27
ATOM     23  C   UNL     1      37.332  30.280  49.974  0.00  0.00    +0.000 A 
ATOM     24  C   UNL     1      38.291  31.303  50.047  0.00  0.00    +0.000 A 
ATOM     25  C   UNL     1      38.521  32.087  48.904  0.00  0.00    +0.000 A 
ATOM     26  N   UNL     1      37.786  31.792  47.796  0.00  0.00    +0.000 NA
ATOM     27  C   UNL     1      36.871  30.801  47.759  0.00  0.00    +0.000 A 
ATOM     28  N   UNL     1      36.654  30.053  48.852  0.00  0.00    +0.000 NA
ATOM     29  H   UNL     1      38.863  31.514  50.950  0.00  0.00    +0.000 HD
ATOM     30  H   UNL     1      39.238  32.874  48.914  0.00  0.00    +0.000 HD
BRANCH  23  31
ATOM     31  C   UNL     1      37.097  29.448  51.205  0.00  0.00    +0.000 C 
ATOM     32  F   UNL     1      35.733  29.190  51.333  0.00  0.00    +0.000 F 
ATOM     33  F   UNL     1      37.870  28.334  51.109  0.00  0.00    +0.000 F 
ATOM     34  F   UNL     1      37.457  30.227  52.307  0.00  0.00    +0.000 F 
ENDBRANCH  23  31
ENDBRANCH   1  27
TORSDOF 2
