
 OpenBabel03272501543D

 37 40  0  0  0  0  0  0  0  0999 V2000
   33.4160   27.7370   47.5450 C   0  0  0  0  0  0  0  0  0  0  0  0
   32.2180   28.3560   47.2530 C   0  0  0  0  0  0  0  0  0  0  0  0
   32.1390   29.4430   47.3860 H   0  0  0  0  0  0  0  0  0  0  0  0
   31.1370   27.6490   46.8050 C   0  0  0  0  0  0  0  0  0  0  0  0
   30.2260   28.2250   46.5980 H   0  0  0  0  0  0  0  0  0  0  0  0
   31.1630   26.2840   46.6140 C   0  0  0  0  0  0  0  0  0  0  0  0
   32.3410   25.6810   46.9030 C   0  0  0  0  0  0  0  0  0  0  0  0
   33.4090   26.3740   47.3440 C   0  0  0  0  0  0  0  0  0  0  0  0
   34.3460   25.8430   47.5660 H   0  0  0  0  0  0  0  0  0  0  0  0
   32.4830   23.9160   46.6900 S   0  0  0  0  0  0  0  0  0  0  0  0
   30.8900   23.3790   46.1040 C   0  0  0  0  0  0  0  0  0  0  0  0
   30.7750   22.0460   45.8740 C   0  0  0  0  0  0  0  0  0  0  0  0
   31.5480   21.3000   46.0110 H   0  0  0  0  0  0  0  0  0  0  0  0
   29.5700   21.5260   45.4130 C   0  0  0  0  0  0  0  0  0  0  0  0
   29.4330   20.4700   45.2160 H   0  0  0  0  0  0  0  0  0  0  0  0
   28.5270   22.3990   45.2080 C   0  0  0  0  0  0  0  0  0  0  0  0
   27.5890   21.9950   44.8490 H   0  0  0  0  0  0  0  0  0  0  0  0
   28.7180   23.7470   45.4650 C   0  0  0  0  0  0  0  0  0  0  0  0
   27.8340   24.3510   45.2710 H   0  0  0  0  0  0  0  0  0  0  0  0
   29.9030   24.2880   45.9210 C   0  0  0  0  0  0  0  0  0  0  0  0
   29.9850   25.6580   46.1480 N   0  0  0  0  0  0  0  0  0  0  0  0
   29.1420   26.2440   45.9630 H   0  0  0  0  0  0  0  0  0  0  0  0
   34.5570   28.5220   48.0230 C   0  0  0  0  0  0  0  0  0  0  0  0
   34.4900   29.6060   47.7920 H   0  0  0  0  0  0  0  0  0  0  0  0
   35.4800   28.1620   47.4880 H   0  0  0  0  0  0  0  0  0  0  0  0
   34.8280   28.3350   49.4950 C   0  0  0  0  0  0  0  0  0  0  0  0
   35.0480   27.2710   49.7140 H   0  0  0  0  0  0  0  0  0  0  0  0
   33.9220   28.6220   50.0700 H   0  0  0  0  0  0  0  0  0  0  0  0
   37.3210   30.1830   51.5220 C   0  0  0  0  0  0  0  0  0  0  0  0
   38.1550   30.7540   50.5430 C   0  0  0  0  0  0  0  0  0  0  0  0
   37.8530   30.4980   49.1870 C   0  0  0  0  0  0  0  0  0  0  0  0
   36.7680   29.7120   48.9130 N   0  0  0  0  0  0  0  0  0  0  0  0
   36.0010   29.1900   49.9020 C   0  0  0  0  0  0  0  0  0  0  0  0
   36.2830   29.4270   51.1800 N   0  0  0  0  0  0  0  0  0  0  0  0
   37.6030   30.4140   52.5520 H   0  0  0  0  0  0  0  0  0  0  0  0
   39.0100   31.3730   50.7420 H   0  0  0  0  0  0  0  0  0  0  0  0
   38.4580   30.9100   48.3700 H   0  0  0  0  0  0  0  0  0  0  0  0
  1 23  1  0  0  0  0
  2  3  1  0  0  0  0
  2  1  2  0  0  0  0
  4  2  1  0  0  0  0
  5  4  1  0  0  0  0
  6  4  2  0  0  0  0
  6  7  1  0  0  0  0
  7  8  2  0  0  0  0
  8  1  1  0  0  0  0
  8  9  1  0  0  0  0
 10  7  1  0  0  0  0
 11 10  1  0  0  0  0
 12 13  1  0  0  0  0
 12 11  2  0  0  0  0
 14 12  1  0  0  0  0
 15 14  1  0  0  0  0
 16 14  2  0  0  0  0
 16 18  1  0  0  0  0
 17 16  1  0  0  0  0
 18 20  2  0  0  0  0
 19 18  1  0  0  0  0
 20 11  1  0  0  0  0
 20 21  1  0  0  0  0
 21  6  1  0  0  0  0
 22 21  1  0  0  0  0
 23 26  1  0  0  0  0
 24 23  1  0  0  0  0
 25 23  1  0  0  0  0
 26 27  1  0  0  0  0
 26 33  1  0  0  0  0
 26 28  1  0  0  0  0
 29 35  1  0  0  0  0
 30 36  1  0  0  0  0
 30 29  2  0  0  0  0
 31 30  1  0  0  0  0
 32 31  2  0  0  0  0
 32 33  1  0  0  0  0
 33 34  2  0  0  0  0
 34 29  1  0  0  0  0
 37 31  1  0  0  0  0
M  END
>  <minimizedAffinity>
-5.30537701

>  <minimizedRMSD>
0.847679913

$$$$
