
     RDKit          3D

 37 40  0  0  0  0  0  0  0  0999 V2000
   37.3069   30.1987   51.4362 C   0  0  0  0  0  0  0  0  0  0  0  0
   38.1093   30.7382   50.4131 C   0  0  0  0  0  0  0  0  0  0  0  0
   37.7640   30.4425   49.0762 C   0  0  0  0  0  0  0  0  0  0  0  0
   36.6698   29.6493   48.8614 N   0  0  0  0  0  0  0  0  0  0  0  0
   35.9349   29.1585   49.8899 C   0  0  0  0  0  0  0  0  0  0  0  0
   36.2576   29.4352   51.1510 N   0  0  0  0  0  0  0  0  0  0  0  0
   34.7481   28.2944   49.5480 C   0  0  0  0  0  0  0  0  0  0  0  0
   34.4082   28.4633   48.0882 C   0  0  0  0  0  0  0  0  0  0  0  0
   37.6218   30.4609   52.4483 H   0  0  0  0  0  0  0  0  0  0  0  0
   38.9713   31.3624   50.5646 H   0  0  0  0  0  0  0  0  0  0  0  0
   38.3422   30.8273   48.2281 H   0  0  0  0  0  0  0  0  0  0  0  0
   34.9837   27.2344   49.7684 H   0  0  0  0  0  0  0  0  0  0  0  0
   33.8693   28.5833   50.1613 H   0  0  0  0  0  0  0  0  0  0  0  0
   34.3133   29.5435   47.8511 H   0  0  0  0  0  0  0  0  0  0  0  0
   35.3120   28.1140   47.5150 H   0  0  0  0  0  0  0  0  0  0  0  0
   33.2608   27.6553   47.6681 C   0  0  0  0  0  0  0  0  0  0  0  0
   32.2717   28.2073   46.8788 C   0  0  0  0  0  0  0  0  0  0  0  0
   32.3636   29.2584   46.5749 H   0  0  0  0  0  0  0  0  0  0  0  0
   31.1898   27.4765   46.4723 C   0  0  0  0  0  0  0  0  0  0  0  0
   30.4539   27.9981   45.8470 H   0  0  0  0  0  0  0  0  0  0  0  0
   31.0095   26.1543   46.8153 C   0  0  0  0  0  0  0  0  0  0  0  0
   31.9822   25.6170   47.5895 C   0  0  0  0  0  0  0  0  0  0  0  0
   33.0495   26.3333   47.9923 C   0  0  0  0  0  0  0  0  0  0  0  0
   33.8163   25.8559   48.6212 H   0  0  0  0  0  0  0  0  0  0  0  0
   31.8449   23.9114   48.0899 S   0  0  0  0  0  0  0  0  0  0  0  0
   30.3266   23.3254   47.3690 C   0  0  0  0  0  0  0  0  0  0  0  0
   30.0232   22.0278   47.6290 C   0  0  0  0  0  0  0  0  0  0  0  0
   30.6087   21.3360   48.2211 H   0  0  0  0  0  0  0  0  0  0  0  0
   28.8574   21.4741   47.1110 C   0  0  0  0  0  0  0  0  0  0  0  0
   28.5750   20.4443   47.2921 H   0  0  0  0  0  0  0  0  0  0  0  0
   28.0462   22.2776   46.3436 C   0  0  0  0  0  0  0  0  0  0  0  0
   27.1394   21.8479   45.9402 H   0  0  0  0  0  0  0  0  0  0  0  0
   28.4211   23.5929   46.1210 C   0  0  0  0  0  0  0  0  0  0  0  0
   27.7127   24.1426   45.5029 H   0  0  0  0  0  0  0  0  0  0  0  0
   29.5717   24.1655   46.6233 C   0  0  0  0  0  0  0  0  0  0  0  0
   29.8513   25.4990   46.3365 N   0  0  0  0  0  0  0  0  0  0  0  0
   29.1778   26.0319   45.7453 H   0  0  0  0  0  0  0  0  0  0  0  0
  2  1  2  0
  3  2  1  0
  4  3  2  0
  4  5  1  0
  5  6  2  0
  6  1  1  0
  7  5  1  0
  8  7  1  0
  1  9  1  0
  2 10  1  0
  3 11  1  0
  7 12  1  0
  7 13  1  0
  8 14  1  0
  8 15  1  0
 16 17  2  0
 17 18  1  0
 17 19  1  0
 19 20  1  0
 19 21  2  0
 21 22  1  0
 22 23  2  0
 23 24  1  0
 22 25  1  0
 25 26  1  0
 26 27  2  0
 27 28  1  0
 27 29  1  0
 29 30  1  0
 29 31  2  0
 31 32  1  0
 31 33  1  0
 33 34  1  0
 33 35  2  0
 35 36  1  0
 36 37  1  0
 23 16  1  0
 35 26  1  0
 36 21  1  0
  8 16  1  0
M  ISO  8   9  14  10  14  11  14  12   8  13   8  14   8  15   8  18  16
M  ISO  7  20  16  24  16  28  16  30  16  32  16  34  16  37   5
M  END
>  <DihAtoms>  (1) 
6,7,15,16

>  <DihDeg>  (1) 
-89.99600099601308

$$$$
