
     RDKit          3D

 34 37  0  0  0  0  0  0  0  0999 V2000
   37.3324   30.2798   49.9737 C   0  0  0  0  0  0  0  0  0  0  0  0
   38.2912   31.3029   50.0470 C   0  0  0  0  0  0  0  0  0  0  0  0
   38.5206   32.0869   48.9043 C   0  0  0  0  0  0  0  0  0  0  0  0
   37.7860   31.7919   47.7964 N   0  0  0  0  0  0  0  0  0  0  0  0
   36.8709   30.8006   47.7586 C   0  0  0  0  0  0  0  0  0  0  0  0
   36.6538   30.0531   48.8517 N   0  0  0  0  0  0  0  0  0  0  0  0
   37.0969   29.4480   51.2046 C   0  0  0  0  0  0  0  0  0  0  0  0
   35.7331   29.1897   51.3328 F   0  0  0  0  0  0  0  0  0  0  0  0
   37.8697   28.3337   51.1090 F   0  0  0  0  0  0  0  0  0  0  0  0
   37.4574   30.2275   52.3070 F   0  0  0  0  0  0  0  0  0  0  0  0
   38.8634   31.5140   50.9502 H   0  0  0  0  0  0  0  0  0  0  0  0
   39.2382   32.8736   48.9139 H   0  0  0  0  0  0  0  0  0  0  0  0
   36.1186   30.5389   46.5366 C   0  0  0  0  0  0  0  0  0  0  0  0
   35.8463   31.5799   45.6687 C   0  0  0  0  0  0  0  0  0  0  0  0
   36.1893   32.5620   45.9023 H   0  0  0  0  0  0  0  0  0  0  0  0
   35.1319   31.2804   44.5277 C   0  0  0  0  0  0  0  0  0  0  0  0
   34.9517   32.1411   43.8888 H   0  0  0  0  0  0  0  0  0  0  0  0
   34.6595   30.0371   44.1649 C   0  0  0  0  0  0  0  0  0  0  0  0
   34.9664   29.0535   45.0721 C   0  0  0  0  0  0  0  0  0  0  0  0
   35.6661   29.2763   46.2163 C   0  0  0  0  0  0  0  0  0  0  0  0
   35.8919   28.4757   46.9125 H   0  0  0  0  0  0  0  0  0  0  0  0
   34.4331   27.3814   44.7636 S   0  0  0  0  0  0  0  0  0  0  0  0
   33.5595   27.4276   43.2137 C   0  0  0  0  0  0  0  0  0  0  0  0
   33.0195   26.3114   42.6847 C   0  0  0  0  0  0  0  0  0  0  0  0
   33.1360   25.3693   43.2425 H   0  0  0  0  0  0  0  0  0  0  0  0
   32.3271   26.2496   41.4931 C   0  0  0  0  0  0  0  0  0  0  0  0
   31.9136   25.3405   41.1087 H   0  0  0  0  0  0  0  0  0  0  0  0
   32.2044   27.4554   40.8257 C   0  0  0  0  0  0  0  0  0  0  0  0
   31.6708   27.4789   39.8809 H   0  0  0  0  0  0  0  0  0  0  0  0
   32.7565   28.6009   41.3647 C   0  0  0  0  0  0  0  0  0  0  0  0
   32.6122   29.5165   40.7684 H   0  0  0  0  0  0  0  0  0  0  0  0
   33.4414   28.6271   42.5566 C   0  0  0  0  0  0  0  0  0  0  0  0
   33.9393   29.8667   42.9653 N   0  0  0  0  0  0  0  0  0  0  0  0
   33.7968   30.7252   42.3933 H   0  0  0  0  0  0  0  0  0  0  0  0
  1  2  2  0
  1  7  1  0
  3  2  1  0
  4  3  2  0
  5  4  1  0
  5  6  2  0
  6  1  1  0
  7  8  1  0
  7 10  1  0
  9  7  1  0
  2 11  1  0
  3 12  1  0
 13 14  2  0
 14 15  1  0
 14 16  1  0
 16 17  1  0
 16 18  2  0
 18 19  1  0
 19 20  2  0
 20 21  1  0
 19 22  1  0
 22 23  1  0
 23 24  2  0
 24 25  1  0
 24 26  1  0
 26 27  1  0
 26 28  2  0
 28 29  1  0
 28 30  1  0
 30 31  1  0
 30 32  2  0
 32 33  1  0
 33 34  1  0
 20 13  1  0
 32 23  1  0
 33 18  1  0
  5 13  1  0
M  ISO  8  11  14  12  14  15  16  17  16  21  16  25  16  27  16  29  16
M  ISO  2  31  16  34   5
M  END
>  <DihAtoms>  (1) 
3,4,12,13

>  <DihDeg>  (1) 
-0.0012201428176790792

$$$$
