
     RDKit          3D

 21 22  0  0  0  0  0  0  0  0999 V2000
   36.8885   29.8902   51.3134 C   0  0  0  0  0  0  0  0  0  0  0  0
   37.5891   30.2239   50.1237 C   0  0  0  0  0  0  0  0  0  0  0  0
   37.0024   29.8754   48.9149 C   0  0  0  0  0  0  0  0  0  0  0  0
   35.8129   29.2462   48.9364 N   0  0  0  0  0  0  0  0  0  0  0  0
   35.1722   28.9424   50.0688 C   0  0  0  0  0  0  0  0  0  0  0  0
   35.6888   29.2542   51.2902 N   0  0  0  0  0  0  0  0  0  0  0  0
   38.7851   30.8647   50.3595 O   0  0  0  0  0  0  0  0  0  0  0  0
   37.2176   30.0962   52.3259 H   0  0  0  0  0  0  0  0  0  0  0  0
   37.5892   30.1593   48.0588 H   0  0  0  0  0  0  0  0  0  0  0  0
   34.2083   28.4299   50.0020 H   0  0  0  0  0  0  0  0  0  0  0  0
   36.3393   32.3049   49.3128 Cl  0  0  0  0  0  0  0  0  0  0  0  0
   37.7842   33.0197   50.0026 C   0  0  0  0  0  0  0  0  0  0  0  0
   38.8399   32.2623   50.4482 C   0  0  0  0  0  0  0  0  0  0  0  0
   39.9757   32.8379   50.9911 C   0  0  0  0  0  0  0  0  0  0  0  0
   40.7706   32.1847   51.3228 H   0  0  0  0  0  0  0  0  0  0  0  0
   40.0418   34.2226   51.0844 C   0  0  0  0  0  0  0  0  0  0  0  0
   40.9300   34.6910   51.5098 H   0  0  0  0  0  0  0  0  0  0  0  0
   39.0038   35.0258   50.6489 C   0  0  0  0  0  0  0  0  0  0  0  0
   37.8876   34.3913   50.1123 C   0  0  0  0  0  0  0  0  0  0  0  0
   39.0681   36.1148   50.7280 H   0  0  0  0  0  0  0  0  0  0  0  0
   37.0932   35.0785   49.7824 H   0  0  0  0  0  0  0  0  0  0  0  0
  2  7  1  0
  2  1  2  0
  3  4  2  0
  3  2  1  0
  4  5  1  0
  5  6  2  0
  6  1  1  0
  1  8  1  0
  3  9  1  0
  5 10  1  0
 11 12  1  0
 12 13  2  0
 13 14  1  0
 14 15  1  0
 14 16  2  0
 16 17  1  0
 16 18  1  0
 18 19  2  0
 19 12  1  0
 18 20  1  0
 19 21  1  0
  7 13  1  0
M  ISO  5   8  14   9  14  10  14  15  15  17  16
M  END
>  <DihAtoms>  (1) 
1,6,12,11

>  <DihDeg>  (1) 
-179.99986031452102

$$$$
