
     RDKit          3D

 29 30  0  0  0  0  0  0  0  0999 V2000
   36.0618   30.3082   50.0170 C   0  0  0  0  0  0  0  0  0  0  0  0
   35.1217   29.5973   49.1167 C   0  0  0  0  0  0  0  0  0  0  0  0
   34.6724   30.2835   48.0007 C   0  0  0  0  0  0  0  0  0  0  0  0
   33.7816   29.6408   47.1269 C   0  0  0  0  0  0  0  0  0  0  0  0
   33.4150   28.3721   47.4385 N   0  0  0  0  0  0  0  0  0  0  0  0
   33.8620   27.7205   48.5278 C   0  0  0  0  0  0  0  0  0  0  0  0
   34.7115   28.3420   49.3554 N   0  0  0  0  0  0  0  0  0  0  0  0
   36.3381   31.5887   49.6161 O   0  0  0  0  0  0  0  0  0  0  0  0
   38.3948   31.1744   48.0378 O   0  0  0  0  0  0  0  0  0  0  0  0
   38.0005   31.7154   49.3951 P   0  0  2  0  0  0  0  0  0  0  0  0
   38.8064   30.7582   50.5666 O   0  0  0  0  0  0  0  0  0  0  0  0
   38.5372   33.3059   49.5125 O   0  0  0  0  0  0  0  0  0  0  0  0
   36.9771   29.6559   50.1249 H   0  0  0  0  0  0  0  0  0  0  0  0
   35.6248   30.3094   51.0544 H   0  0  0  0  0  0  0  0  0  0  0  0
   34.9404   31.2959   47.7162 H   0  0  0  0  0  0  0  0  0  0  0  0
   33.3856   30.0914   46.2465 H   0  0  0  0  0  0  0  0  0  0  0  0
   33.5730   26.7132   48.7783 H   0  0  0  0  0  0  0  0  0  0  0  0
   39.7223   30.5497   50.2929 H   0  0  0  0  0  0  0  0  0  0  0  0
   40.9304   34.7678   50.4171 Cl  0  0  0  0  0  0  0  0  0  0  0  0
   39.3474   34.7589   51.1460 C   0  0  0  0  0  0  0  0  0  0  0  0
   38.2581   34.0390   50.6587 C   0  0  0  0  0  0  0  0  0  0  0  0
   37.0257   34.0914   51.3084 C   0  0  0  0  0  0  0  0  0  0  0  0
   36.2276   33.5065   50.8718 H   0  0  0  0  0  0  0  0  0  0  0  0
   36.9374   34.8774   52.4385 C   0  0  0  0  0  0  0  0  0  0  0  0
   35.9430   34.8624   52.8833 H   0  0  0  0  0  0  0  0  0  0  0  0
   38.0074   35.5936   52.9297 C   0  0  0  0  0  0  0  0  0  0  0  0
   39.2249   35.5377   52.2822 C   0  0  0  0  0  0  0  0  0  0  0  0
   37.7711   36.1569   53.8207 H   0  0  0  0  0  0  0  0  0  0  0  0
   40.0277   36.1214   52.7148 H   0  0  0  0  0  0  0  0  0  0  0  0
  2  7  1  0
  2  1  1  0
  3  2  2  0
  4  5  2  0
  4  3  1  0
  5  6  1  0
  6  7  2  0
  8  1  1  0
  9 10  2  0
 10 12  1  6
 10  8  1  0
 10 11  1  0
  1 13  1  0
  1 14  1  0
  3 15  1  0
  4 16  1  0
  6 17  1  0
 11 18  1  0
 19 20  1  0
 20 21  2  0
 21 22  1  0
 22 23  1  0
 22 24  2  0
 24 25  1  0
 24 26  1  0
 26 27  2  0
 27 20  1  0
 26 28  1  0
 27 29  1  0
 12 21  1  0
M  ISO  8  13   8  14   8  15  14  16  14  17  14  18   3  23  15  25  16
M  END
>  <DihAtoms>  (1) 
9,11,20,19

>  <DihDeg>  (1) 
-179.99992144579582

$$$$
