REMARK  Name = 
REMARK  5 active torsions:
REMARK  status: ('A' for Active; 'I' for Inactive)
REMARK    1  A    between atoms: C_11  and  C_12
REMARK    2  A    between atoms: C_11  and  C_16
REMARK    3  A    between atoms: C_16  and  O_17
REMARK    4  A    between atoms: C_16  and  C_35
REMARK    5  A    between atoms: O_17  and  C_18
REMARK                            x       y       z     vdW  Elec       q    Type
REMARK                         _______ _______ _______ _____ _____    ______ ____
ROOT
ATOM      1  C   UNL     1      36.684  29.976  49.017  0.00  0.00    +0.000 A 
ATOM      2  C   UNL     1      37.697  30.654  48.311  0.00  0.00    +0.000 A 
ATOM      3  C   UNL     1      37.473  30.922  46.964  0.00  0.00    +0.000 A 
ATOM      4  N   UNL     1      36.333  30.535  46.416  0.00  0.00    +0.000 NA
ATOM      5  C   UNL     1      35.372  29.887  47.104  0.00  0.00    +0.000 A 
ATOM      6  N   UNL     1      35.557  29.614  48.395  0.00  0.00    +0.000 NA
ATOM      7  N   UNL     1      38.467  31.558  46.220  0.00  0.00    +0.000 N 
ATOM      8  C   UNL     1      39.466  32.527  46.739  0.00  0.00    +0.000 C 
ATOM      9  C   UNL     1      40.074  33.209  45.565  0.00  0.00    +0.000 C 
ATOM     10  C   UNL     1      39.227  32.848  44.447  0.00  0.00    +0.000 C 
ATOM     11  C   UNL     1      38.794  31.480  44.837  0.00  0.00    +0.000 C 
ATOM     12  H   UNL     1      36.940  29.805  50.065  0.00  0.00    +0.000 HD
ATOM     13  H   UNL     1      38.629  30.974  48.749  0.00  0.00    +0.000 HD
ATOM     14  H   UNL     1      34.434  29.560  46.685  0.00  0.00    +0.000 HD
ATOM     15  H   UNL     1      40.110  32.150  47.510  0.00  0.00    +0.000 HD
ATOM     16  H   UNL     1      38.768  33.232  47.311  0.00  0.00    +0.000 HD
ATOM     17  H   UNL     1      39.680  34.335  45.747  0.00  0.00    +0.000 HD
ATOM     18  H   UNL     1      41.093  33.473  45.522  0.00  0.00    +0.000 HD
ATOM     19  H   UNL     1      38.331  33.452  44.248  0.00  0.00    +0.000 HD
ATOM     20  H   UNL     1      39.854  32.731  43.522  0.00  0.00    +0.000 HD
ENDROOT
BRANCH  11  21
ATOM     21  C   UNL     1      37.637  31.035  43.937  0.00  0.00    +0.000 C 
ATOM     22  F   UNL     1      36.511  31.750  44.288  0.00  0.00    +0.000 F 
ATOM     23  F   UNL     1      37.311  29.718  44.024  0.00  0.00    +0.000 F 
ATOM     24  F   UNL     1      37.958  31.423  42.652  0.00  0.00    +0.000 F 
ENDBRANCH  11  21
BRANCH  11  25
ATOM     25  C   UNL     1      39.832  30.501  44.675  0.00  0.00    +0.000 C 
ATOM     26  H   UNL     1      39.539  29.522  44.973  0.00  0.00    +0.000 HD
BRANCH  25  29
ATOM     27 CL   UNL     1      39.689  29.939  47.769  0.00  0.00    +0.000 Cl
ATOM     28  C   UNL     1      41.158  30.345  46.902  0.00  0.00    +0.000 A 
ATOM     29  C   UNL     1      41.139  30.557  45.533  0.00  0.00    +0.000 A 
ATOM     30  C   UNL     1      42.408  30.747  45.019  0.00  0.00    +0.000 A 
ATOM     31  H   UNL     1      42.475  30.883  43.922  0.00  0.00    +0.000 HD
ATOM     32  C   UNL     1      43.605  30.753  45.679  0.00  0.00    +0.000 A 
ATOM     33  H   UNL     1      44.516  30.916  45.147  0.00  0.00    +0.000 HD
ATOM     34  C   UNL     1      43.489  30.536  47.033  0.00  0.00    +0.000 A 
ATOM     35  C   UNL     1      42.294  30.330  47.665  0.00  0.00    +0.000 A 
ENDBRANCH  25  29
BRANCH  25  36
ATOM     36  O   UNL     1      40.347  30.698  43.530  0.00  0.00    +0.000 OA
BRANCH  36  37
ATOM     37  C   UNL     1      40.992  29.983  42.589  0.00  0.00    +0.000 C 
ATOM     38  O   UNL     1      40.761  30.424  41.458  0.00  0.00    +0.000 OA
ATOM     39  N   UNL     1      41.861  28.913  42.241  0.00  0.00    +0.000 N 
ATOM     40  H   UNL     1      41.502  27.948  42.017  0.00  0.00    +0.000 HD
ATOM     41  H   UNL     1      42.876  29.159  42.226  0.00  0.00    +0.000 HD
ENDBRANCH  36  37
ENDBRANCH  25  36
ENDBRANCH  11  25
TORSDOF 5
