
     RDKit          3D

 21 22  0  0  0  0  0  0  0  0999 V2000
   37.2668   30.1803   51.4189 C   0  0  0  0  0  0  0  0  0  0  0  0
   38.1200   30.7613   50.4763 C   0  0  0  0  0  0  0  0  0  0  0  0
   37.8457   30.5485   49.1082 C   0  0  0  0  0  0  0  0  0  0  0  0
   36.7655   29.7893   48.7783 N   0  0  0  0  0  0  0  0  0  0  0  0
   35.9615   29.2426   49.7218 C   0  0  0  0  0  0  0  0  0  0  0  0
   36.2006   29.4300   51.0368 N   0  0  0  0  0  0  0  0  0  0  0  0
   34.5419   28.2471   49.2937 S   0  0  0  0  0  0  0  0  0  0  0  0
   37.5323   30.3817   52.4359 H   0  0  0  0  0  0  0  0  0  0  0  0
   38.9756   31.3627   50.7463 H   0  0  0  0  0  0  0  0  0  0  0  0
   38.4654   30.9693   48.3465 H   0  0  0  0  0  0  0  0  0  0  0  0
   33.6884   26.2309   46.9453 Cl  0  0  0  0  0  0  0  0  0  0  0  0
   34.7183   25.6080   48.1911 C   0  0  0  0  0  0  0  0  0  0  0  0
   35.0376   26.5361   49.1602 C   0  0  0  0  0  0  0  0  0  0  0  0
   35.8635   26.1703   50.2299 C   0  0  0  0  0  0  0  0  0  0  0  0
   36.1927   26.7911   51.0537 H   0  0  0  0  0  0  0  0  0  0  0  0
   36.3676   24.8693   50.3233 C   0  0  0  0  0  0  0  0  0  0  0  0
   37.0089   24.5345   51.1280 H   0  0  0  0  0  0  0  0  0  0  0  0
   36.0407   23.9506   49.3475 C   0  0  0  0  0  0  0  0  0  0  0  0
   35.2258   24.3308   48.3019 C   0  0  0  0  0  0  0  0  0  0  0  0
   36.4178   22.9375   49.3968 H   0  0  0  0  0  0  0  0  0  0  0  0
   34.9335   23.6584   47.5063 H   0  0  0  0  0  0  0  0  0  0  0  0
  2  1  2  0
  3  2  1  0
  4  3  2  0
  4  5  1  0
  5  6  2  0
  6  1  1  0
  7  5  1  0
  1  8  1  0
  2  9  1  0
  3 10  1  0
 11 12  1  0
 12 13  2  0
 13 14  1  0
 14 15  1  0
 14 16  2  0
 16 17  1  0
 16 18  1  0
 18 19  2  0
 19 12  1  0
 18 20  1  0
 19 21  1  0
  7 13  1  0
M  ISO  5   8  14   9  14  10  14  15  15  17  16
M  END
>  <DihAtoms>  (1) 
4,6,12,11

>  <DihDeg>  (1) 
-0.13984544012845937

$$$$
