
     RDKit          3D

 41 44  0  0  0  0  0  0  0  0999 V2000
   34.5217   29.0649   48.7253 C   0  0  2  0  0  0  0  0  0  0  0  0
   35.1887   28.3610   49.8606 C   0  0  0  0  0  0  0  0  0  0  0  0
   36.3288   29.1382   50.3077 N   0  0  0  0  0  0  0  0  0  0  0  0
   37.2737   29.8782   51.0900 C   0  0  0  0  0  0  0  0  0  0  0  0
   37.5046   30.0816   52.2999 O   0  0  0  0  0  0  0  0  0  0  0  0
   37.9826   30.3961   49.9244 C   0  0  1  0  0  0  0  0  0  0  0  0
   37.1771   29.3773   49.1680 C   0  0  2  0  0  0  0  0  0  0  0  0
   35.9109   30.0722   48.0539 S   0  0  0  0  0  0  0  0  0  0  0  0
   37.7487   31.8119   49.5988 C   0  0  0  0  0  0  0  0  0  0  0  0
   36.7416   32.3112   50.1761 O   0  0  0  0  0  0  0  0  0  0  0  0
   38.5906   32.5673   48.7081 C   0  0  0  0  0  0  0  0  0  0  0  0
   39.1217   33.7578   49.1778 C   0  0  0  0  0  0  0  0  0  0  0  0
   39.9468   34.5071   48.3099 C   0  0  0  0  0  0  0  0  0  0  0  0
   40.1706   34.0088   47.0564 N   0  0  0  0  0  0  0  0  0  0  0  0
   39.6414   32.8587   46.6415 C   0  0  0  0  0  0  0  0  0  0  0  0
   38.8507   32.1334   47.4620 N   0  0  0  0  0  0  0  0  0  0  0  0
   33.3334   29.8880   49.0568 C   0  0  0  0  0  0  0  0  0  0  0  0
   34.2485   28.0402   47.6137 C   0  0  0  0  0  0  0  0  0  0  0  0
   34.4736   28.2714   50.6959 H   0  0  0  0  0  0  0  0  0  0  0  0
   35.4977   27.3334   49.5696 H   0  0  0  0  0  0  0  0  0  0  0  0
   39.0874   30.1817   49.8384 H   0  0  0  0  0  0  0  0  0  0  0  0
   37.7099   28.5104   48.7810 H   0  0  0  0  0  0  0  0  0  0  0  0
   38.9257   34.1179   50.1676 H   0  0  0  0  0  0  0  0  0  0  0  0
   40.3681   35.4410   48.6657 H   0  0  0  0  0  0  0  0  0  0  0  0
   39.8514   32.5012   45.6265 H   0  0  0  0  0  0  0  0  0  0  0  0
   33.7486   30.7675   49.6677 H   0  0  0  0  0  0  0  0  0  0  0  0
   32.8847   30.3758   48.1918 H   0  0  0  0  0  0  0  0  0  0  0  0
   32.6756   29.3820   49.7621 H   0  0  0  0  0  0  0  0  0  0  0  0
   35.2307   27.5724   47.3229 H   0  0  0  0  0  0  0  0  0  0  0  0
   33.6629   27.2243   48.0992 H   0  0  0  0  0  0  0  0  0  0  0  0
   34.7126   26.6165   44.8385 Cl  0  0  0  0  0  0  0  0  0  0  0  0
   33.6861   27.9920   45.2002 C   0  0  0  0  0  0  0  0  0  0  0  0
   33.5758   28.5760   46.4393 C   0  0  0  0  0  0  0  0  0  0  0  0
   32.7602   29.6847   46.5533 C   0  0  0  0  0  0  0  0  0  0  0  0
   32.6661   30.1596   47.5286 H   0  0  0  0  0  0  0  0  0  0  0  0
   32.0587   30.2142   45.4634 C   0  0  0  0  0  0  0  0  0  0  0  0
   31.4460   31.0835   45.6524 H   0  0  0  0  0  0  0  0  0  0  0  0
   32.2006   29.5934   44.2444 C   0  0  0  0  0  0  0  0  0  0  0  0
   33.0070   28.4902   44.1079 C   0  0  0  0  0  0  0  0  0  0  0  0
   31.6268   30.0585   43.4408 H   0  0  0  0  0  0  0  0  0  0  0  0
   33.0299   28.0961   43.0853 H   0  0  0  0  0  0  0  0  0  0  0  0
  1 17  1  1
  1  2  1  0
  2  3  1  0
  3  4  1  0
  4  5  2  0
  6  9  1  0
  6  4  1  0
  7  8  1  0
  7  6  1  0
  7  3  1  0
  8  1  1  0
  9 10  2  0
 11 12  2  0
 11  9  1  0
 13 12  1  0
 14 13  2  0
 15 14  1  0
 15 16  2  0
 16 11  1  0
 18  1  1  0
  2 19  1  0
  2 20  1  0
  6 21  1  1
  7 22  1  6
 12 23  1  0
 13 24  1  0
 15 25  1  0
 17 26  1  0
 17 27  1  0
 17 28  1  0
 18 29  1  0
 18 30  1  0
 31 32  1  0
 32 33  2  0
 33 34  1  0
 34 35  1  0
 34 36  2  0
 36 37  1  0
 36 38  1  0
 38 39  2  0
 39 32  1  0
 38 40  1  0
 39 41  1  0
 18 33  1  0
M  ISO  8  19  13  20  13  21  13  22  13  23  14  24  14  25  14  26   8
M  ISO  6  27   8  28   8  29   8  30   8  35  15  37  16
M  END
>  <DihAtoms>  (1) 
0,17,32,31

>  <DihDeg>  (1) 
-84.68245353088312

$$$$
