
 OpenBabel03272507283D

 41 43  0  0  1  0  0  0  0  0999 V2000
   37.1720   29.9590   49.3480 C   0  0  0  0  0  0  0  0  0  0  0  0
   37.5970   30.4840   48.1120 C   0  0  0  0  0  0  0  0  0  0  0  0
   36.6750   30.5010   47.0690 C   0  0  0  0  0  0  0  0  0  0  0  0
   35.4570   30.0320   47.2850 N   0  0  0  0  0  0  0  0  0  0  0  0
   35.0640   29.5330   48.4740 C   0  0  0  0  0  0  0  0  0  0  0  0
   35.9230   29.5010   49.4910 N   0  0  0  0  0  0  0  0  0  0  0  0
   37.0680   30.9780   45.8190 N   0  0  0  0  0  0  0  0  0  0  0  0
   38.0990   32.0150   45.5600 C   0  0  0  0  0  0  0  0  0  0  0  0
   37.9360   32.4610   44.1500 C   0  0  0  0  0  0  0  0  0  0  0  0
   36.6630   31.9100   43.7320 C   0  0  0  0  0  0  0  0  0  0  0  0
   36.6240   30.6420   44.5090 C   0  0  2  0  0  0  0  0  0  0  0  0
   37.9550   29.9820   50.1090 H   0  0  0  0  0  0  0  0  0  0  0  0
   38.5870   30.8690   47.9270 H   0  0  0  0  0  0  0  0  0  0  0  0
   34.0790   29.1450   48.6790 H   0  0  0  0  0  0  0  0  0  0  0  0
   39.0830   31.7790   45.9180 H   0  0  0  0  0  0  0  0  0  0  0  0
   37.7470   32.8210   46.2930 H   0  0  0  0  0  0  0  0  0  0  0  0
   37.5980   33.6060   44.3290 H   0  0  0  0  0  0  0  0  0  0  0  0
   38.7510   32.7020   43.5280 H   0  0  0  0  0  0  0  0  0  0  0  0
   35.7470   32.4770   43.9470 H   0  0  0  0  0  0  0  0  0  0  0  0
   36.7180   31.6170   42.6490 H   0  0  0  0  0  0  0  0  0  0  0  0
   35.2120   30.0520   44.4500 C   0  0  0  0  0  0  0  0  0  0  0  0
   34.3660   30.8700   45.1700 F   0  0  0  0  0  0  0  0  0  0  0  0
   35.0860   28.8020   44.9700 F   0  0  0  0  0  0  0  0  0  0  0  0
   34.8000   30.1290   43.1350 F   0  0  0  0  0  0  0  0  0  0  0  0
   37.5040   29.6390   43.9790 C   0  0  2  0  0  0  0  0  0  0  0  0
   38.1800   29.2460   44.7020 H   0  0  0  0  0  0  0  0  0  0  0  0
   36.6090   30.5280   41.0950 Cl  0  0  0  0  0  0  0  0  0  0  0  0
   38.2770   30.3720   41.6120 C   0  0  0  0  0  0  0  0  0  0  0  0
   38.5880   29.9950   42.9080 C   0  0  0  0  0  0  0  0  0  0  0  0
   39.9470   30.0430   43.1530 C   0  0  0  0  0  0  0  0  0  0  0  0
   40.2670   29.7940   44.1830 H   0  0  0  0  0  0  0  0  0  0  0  0
   40.9560   30.3980   42.3010 C   0  0  0  0  0  0  0  0  0  0  0  0
   41.9710   30.3870   42.6310 H   0  0  0  0  0  0  0  0  0  0  0  0
   40.5200   30.7460   41.0440 C   0  0  0  0  0  3  0  0  0  0  0  0
   39.2030   30.7440   40.6740 C   0  0  0  0  0  3  0  0  0  0  0  0
   36.7900   28.8580   43.2750 O   0  0  0  0  0  0  0  0  0  0  0  0
   36.8520   27.5970   42.8070 C   0  0  0  0  0  0  0  0  0  0  0  0
   35.8420   27.3140   42.1550 O   0  0  0  0  0  0  0  0  0  0  0  0
   37.5530   26.3660   42.6860 N   0  0  0  0  0  0  0  0  0  0  0  0
   37.4210   25.5750   43.3700 H   0  0  0  0  0  0  0  0  0  0  0  0
   38.2030   26.3100   41.8710 H   0  0  0  0  0  0  0  0  0  0  0  0
  1  6  1  0  0  0  0
  1 12  1  0  0  0  0
  2  1  2  0  0  0  0
  3  4  2  0  0  0  0
  3  2  1  0  0  0  0
  4  5  1  0  0  0  0
  5 14  1  0  0  0  0
  5  6  2  0  0  0  0
  7  3  1  0  0  0  0
  8  7  1  0  0  0  0
  8 15  1  0  0  0  0
  8 16  1  0  0  0  0
  9 17  1  0  0  0  0
  9  8  1  0  0  0  0
 10 19  1  0  0  0  0
 10  9  1  0  0  0  0
 10 11  1  0  0  0  0
 11 21  1  1  0  0  0
 11  7  1  0  0  0  0
 13  2  1  0  0  0  0
 18  9  1  0  0  0  0
 20 10  1  0  0  0  0
 21 23  1  0  0  0  0
 21 22  1  0  0  0  0
 24 21  1  0  0  0  0
 25 11  1  0  0  0  0
 25 26  1  1  0  0  0
 27 28  1  0  0  0  0
 28 29  1  0  0  0  0
 29 30  2  0  0  0  0
 29 25  1  0  0  0  0
 30 31  1  0  0  0  0
 32 33  1  0  0  0  0
 32 30  1  0  0  0  0
 34 32  2  0  0  0  0
 35 34  1  0  0  0  0
 35 28  2  0  0  0  0
 36 25  1  0  0  0  0
 37 36  1  0  0  0  0
 38 37  2  0  0  0  0
 39 37  1  0  0  0  0
 39 40  1  0  0  0  0
 41 39  1  0  0  0  0
M  END
>  <minimizedAffinity>
-4.32221079

>  <minimizedRMSD>
3.81473064

$$$$
