
 OpenBabel03272506403D

 19 20  0  0  0  0  0  0  0  0999 V2000
   33.9790   28.9860   49.6740 S   0  0  0  0  0  0  0  0  0  0  0  0
   37.8450   29.5870   50.2810 C   0  0  0  0  0  0  0  0  0  0  0  0
   38.0250   30.9660   50.1440 C   0  0  0  0  0  0  0  0  0  0  0  0
   36.8970   31.7610   49.8490 C   0  0  0  0  0  0  0  0  0  0  0  0
   35.6930   31.1430   49.7110 N   0  0  0  0  0  0  0  0  0  0  0  0
   35.5580   29.8020   49.8510 C   0  0  0  0  0  0  0  0  0  0  0  0
   36.6200   29.0190   50.1340 N   0  0  0  0  0  0  0  0  0  0  0  0
   38.7410   29.0460   50.5060 H   0  0  0  0  0  0  0  0  0  0  0  0
   38.9860   31.4500   50.2550 H   0  0  0  0  0  0  0  0  0  0  0  0
   36.9780   32.8200   49.7330 H   0  0  0  0  0  0  0  0  0  0  0  0
   33.6620   30.5470   46.8860 Cl  0  0  0  0  0  0  0  0  0  0  0  0
   33.7480   28.8180   46.8230 C   0  0  0  0  0  0  0  0  0  0  0  0
   33.8840   28.2250   48.0600 C   0  0  0  0  0  0  0  0  0  0  0  0
   33.9650   26.8310   48.1600 C   0  0  0  0  0  0  0  0  0  0  0  0
   34.0720   26.2370   49.0590 H   0  0  0  0  0  0  0  0  0  0  0  0
   33.9100   26.0340   47.0120 C   0  0  0  0  0  0  0  0  0  0  0  0
   33.9690   24.9530   47.0340 H   0  0  0  0  0  0  0  0  0  0  0  0
   33.7750   26.6390   45.7810 C   0  0  0  0  0  0  0  0  0  0  0  0
   33.6960   28.0140   45.7030 C   0  0  0  0  0  0  0  0  0  0  0  0
  1  6  1  0  0  0  0
  2  8  1  0  0  0  0
  3  9  1  0  0  0  0
  3  2  1  0  0  0  0
  4  3  2  0  0  0  0
  5  4  1  0  0  0  0
  5  6  2  0  0  0  0
  6  7  1  0  0  0  0
  7  2  2  0  0  0  0
 10  4  1  0  0  0  0
 12 11  1  0  0  0  0
 12 13  1  0  0  0  0
 13 14  2  0  0  0  0
 13  1  1  0  0  0  0
 14 15  1  0  0  0  0
 16 17  1  0  0  0  0
 16 14  1  0  0  0  0
 18 16  2  0  0  0  0
 19 18  1  0  0  0  0
 19 12  2  0  0  0  0
M  END
>  <minimizedAffinity>
-3.95782733

>  <minimizedRMSD>
2.92180181

$$$$
