
     RDKit          3D

 31 32  0  0  0  0  0  0  0  0999 V2000
   38.2841   31.5643   47.8135 C   0  0  0  0  0  0  0  0  0  0  0  0
   38.1581   32.6103   48.5962 C   0  0  0  0  0  0  0  0  0  0  0  0
   40.5764   32.7424   45.1435 C   0  0  0  0  0  0  0  0  0  0  0  0
   39.8212   32.6821   46.3067 C   0  0  0  0  0  0  0  0  0  0  0  0
   39.0365   31.5791   46.5929 C   0  0  0  0  0  0  0  0  0  0  0  0
   39.0159   30.5436   45.7053 N   0  0  0  0  0  0  0  0  0  0  0  0
   39.7607   30.6335   44.5868 C   0  0  0  0  0  0  0  0  0  0  0  0
   40.5267   31.6959   44.2954 N   0  0  0  0  0  0  0  0  0  0  0  0
   37.3796   32.4673   49.8400 C   0  0  2  0  0  0  0  0  0  0  0  0
   36.3756   30.9477   49.6747 S   0  0  0  0  0  0  0  0  0  0  0  0
   36.7178   29.8149   51.0153 C   0  0  0  0  0  0  0  0  0  0  0  0
   37.5269   30.3837   51.9977 F   0  0  0  0  0  0  0  0  0  0  0  0
   35.5826   29.2404   51.5377 F   0  0  0  0  0  0  0  0  0  0  0  0
   37.4719   28.7467   50.4572 F   0  0  0  0  0  0  0  0  0  0  0  0
   37.7959   30.6217   48.0801 H   0  0  0  0  0  0  0  0  0  0  0  0
   38.5994   33.5507   48.3927 H   0  0  0  0  0  0  0  0  0  0  0  0
   41.1983   33.5769   44.8784 H   0  0  0  0  0  0  0  0  0  0  0  0
   39.9347   33.5739   46.9120 H   0  0  0  0  0  0  0  0  0  0  0  0
   39.6600   29.7435   43.9652 H   0  0  0  0  0  0  0  0  0  0  0  0
   38.1587   32.1794   50.6762 H   0  0  0  0  0  0  0  0  0  0  0  0
   38.7137   35.2023   50.6491 Cl  0  0  0  0  0  0  0  0  0  0  0  0
   37.0056   34.9224   50.6896 C   0  0  0  0  0  0  0  0  0  0  0  0
   36.6957   33.6428   50.2922 C   0  0  0  0  0  0  0  0  0  0  0  0
   35.3250   33.3400   50.2939 C   0  0  0  0  0  0  0  0  0  0  0  0
   34.8026   32.4067   50.0303 H   0  0  0  0  0  0  0  0  0  0  0  0
   34.3208   34.2388   50.6641 C   0  0  0  0  0  0  0  0  0  0  0  0
   33.2527   34.0927   50.6939 H   0  0  0  0  0  0  0  0  0  0  0  0
   34.7248   35.5229   51.0553 C   0  0  0  0  0  0  0  0  0  0  0  0
   36.0544   35.8487   51.0634 C   0  0  0  0  0  0  0  0  0  0  0  0
   33.9902   36.2677   51.3540 H   0  0  0  0  0  0  0  0  0  0  0  0
   36.4547   36.8133   51.3438 H   0  0  0  0  0  0  0  0  0  0  0  0
  1  2  2  0
  2  9  1  0
  3  4  2  0
  4  5  1  0
  5  1  1  0
  6  5  2  0
  7  6  1  0
  8  7  2  0
  8  3  1  0
 10  9  1  0
 10 11  1  0
 11 13  1  0
 11 12  1  0
 14 11  1  0
  1 15  1  0
  2 16  1  0
  3 17  1  0
  4 18  1  0
  7 19  1  0
  9 20  1  1
 21 22  1  0
 22 23  2  0
 23 24  1  0
 24 25  1  0
 24 26  2  0
 26 27  1  0
 26 28  1  0
 28 29  2  0
 29 22  1  0
 28 30  1  0
 29 31  1  0
  9 23  1  0
M  ISO  6  17  14  18  14  19  14  20   8  25  15  27  16
M  END
>  <DihAtoms>  (1) 
1,8,22,21

>  <DihDeg>  (1) 
-135.64393124932977

$$$$
