
     RDKit          3D

 29 30  0  0  0  0  0  0  0  0999 V2000
   36.0618   30.3082   50.0170 C   0  0  0  0  0  0  0  0  0  0  0  0
   35.1217   29.5973   49.1167 C   0  0  0  0  0  0  0  0  0  0  0  0
   34.6724   30.2835   48.0007 C   0  0  0  0  0  0  0  0  0  0  0  0
   33.7816   29.6408   47.1269 C   0  0  0  0  0  0  0  0  0  0  0  0
   33.4150   28.3721   47.4385 N   0  0  0  0  0  0  0  0  0  0  0  0
   33.8620   27.7205   48.5278 C   0  0  0  0  0  0  0  0  0  0  0  0
   34.7115   28.3420   49.3554 N   0  0  0  0  0  0  0  0  0  0  0  0
   36.3381   31.5887   49.6161 O   0  0  0  0  0  0  0  0  0  0  0  0
   38.3948   31.1744   48.0378 O   0  0  0  0  0  0  0  0  0  0  0  0
   38.0005   31.7154   49.3951 P   0  0  2  0  0  0  0  0  0  0  0  0
   38.8064   30.7582   50.5666 O   0  0  0  0  0  0  0  0  0  0  0  0
   38.5372   33.3059   49.5125 O   0  0  0  0  0  0  0  0  0  0  0  0
   36.9771   29.6559   50.1249 H   0  0  0  0  0  0  0  0  0  0  0  0
   35.6248   30.3094   51.0544 H   0  0  0  0  0  0  0  0  0  0  0  0
   34.9404   31.2959   47.7162 H   0  0  0  0  0  0  0  0  0  0  0  0
   33.3856   30.0914   46.2465 H   0  0  0  0  0  0  0  0  0  0  0  0
   33.5730   26.7132   48.7783 H   0  0  0  0  0  0  0  0  0  0  0  0
   39.7223   30.5497   50.2929 H   0  0  0  0  0  0  0  0  0  0  0  0
   40.9463   33.5669   51.1891 Cl  0  0  0  0  0  0  0  0  0  0  0  0
   39.3547   34.2039   51.5028 C   0  0  0  0  0  0  0  0  0  0  0  0
   38.2581   34.0390   50.6587 C   0  0  0  0  0  0  0  0  0  0  0  0
   37.0192   34.5850   50.9911 C   0  0  0  0  0  0  0  0  0  0  0  0
   36.2155   34.4157   50.2873 H   0  0  0  0  0  0  0  0  0  0  0  0
   36.9319   35.2851   52.1764 C   0  0  0  0  0  0  0  0  0  0  0  0
   35.9322   35.6773   52.3595 H   0  0  0  0  0  0  0  0  0  0  0  0
   38.0092   35.4547   53.0189 C   0  0  0  0  0  0  0  0  0  0  0  0
   39.2332   34.9118   52.6846 C   0  0  0  0  0  0  0  0  0  0  0  0
   37.7728   36.0269   53.9043 H   0  0  0  0  0  0  0  0  0  0  0  0
   40.0416   35.0782   53.3854 H   0  0  0  0  0  0  0  0  0  0  0  0
  2  7  1  0
  2  1  1  0
  3  2  2  0
  4  5  2  0
  4  3  1  0
  5  6  1  0
  6  7  2  0
  8  1  1  0
  9 10  2  0
 10 12  1  6
 10  8  1  0
 10 11  1  0
  1 13  1  0
  1 14  1  0
  3 15  1  0
  4 16  1  0
  6 17  1  0
 11 18  1  0
 19 20  1  0
 20 21  2  0
 21 22  1  0
 22 23  1  0
 22 24  2  0
 24 25  1  0
 24 26  1  0
 26 27  2  0
 27 20  1  0
 26 28  1  0
 27 29  1  0
 12 21  1  0
M  ISO  8  13   8  14   8  15  14  16  14  17  14  18   3  23  15  25  16
M  END
>  <DihAtoms>  (1) 
9,11,20,19

>  <DihDeg>  (1) 
-179.99992144579582

$$$$
