
 OpenBabel03272502313D

 27 28  0  0  1  0  0  0  0  0999 V2000
   37.6720   30.8800   48.6550 C   0  0  2  0  0  0  0  0  0  0  0  0
   38.3510   29.9540   48.9200 H   0  0  0  0  0  0  0  0  0  0  0  0
   39.2540   30.9510   45.9320 Cl  0  0  0  0  0  0  0  0  0  0  0  0
   39.3270   32.2140   47.1150 C   0  0  0  0  0  0  0  0  0  0  0  0
   38.5460   31.9250   48.2090 C   0  0  0  0  0  0  0  0  0  0  0  0
   38.5490   32.9070   49.2130 C   0  0  0  0  0  0  0  0  0  0  0  0
   38.0260   32.9360   50.1820 H   0  0  0  0  0  0  0  0  0  0  0  0
   39.2760   34.0990   49.1450 C   0  0  0  0  0  0  0  0  0  0  0  0
   39.3360   34.9020   49.8630 H   0  0  0  0  0  0  0  0  0  0  0  0
   40.0470   34.3140   47.9940 C   0  0  0  0  0  0  0  0  0  0  0  0
   40.0630   33.3750   46.9970 C   0  0  0  0  0  0  0  0  0  0  0  0
   35.4610   30.1690   48.0660 C   0  0  0  0  0  0  0  0  0  0  0  0
   36.6920   30.3920   47.6680 C   0  0  0  0  0  0  0  0  0  0  0  0
   33.5370   29.4850   44.9680 C   0  0  0  0  0  0  0  0  0  0  0  0
   34.5040   29.9510   45.8490 C   0  0  0  0  0  0  0  0  0  0  0  0
   34.4310   29.6720   47.2020 C   0  0  0  0  0  0  0  0  0  0  0  0
   33.3850   28.9260   47.6600 N   0  0  0  0  0  0  0  0  0  0  0  0
   32.4650   28.4890   46.7790 C   0  0  0  0  0  0  0  0  0  0  0  0
   32.5210   28.7510   45.4640 N   0  0  0  0  0  0  0  0  0  0  0  0
   33.5500   29.6780   43.9110 H   0  0  0  0  0  0  0  0  0  0  0  0
   35.2690   30.5290   45.3440 H   0  0  0  0  0  0  0  0  0  0  0  0
   31.6860   27.9040   47.2690 H   0  0  0  0  0  0  0  0  0  0  0  0
   36.7630   31.1810   50.2130 S   0  0  0  0  0  0  0  0  0  0  0  0
   36.8610   29.7560   51.2880 C   0  0  0  0  0  0  0  0  0  0  0  0
   37.6210   30.0040   52.4300 F   0  0  0  0  0  0  0  0  0  0  0  0
   35.6300   29.2170   51.5830 F   0  0  0  0  0  0  0  0  0  0  0  0
   37.5600   28.7520   50.5630 F   0  0  0  0  0  0  0  0  0  0  0  0
  1  2  1  1  0  0  0
  1 23  1  0  0  0  0
  3  4  1  0  0  0  0
  4  5  1  0  0  0  0
  5  1  1  0  0  0  0
  5  6  2  0  0  0  0
  6  7  1  0  0  0  0
  8  6  1  0  0  0  0
  8  9  1  0  0  0  0
 10  8  2  0  0  0  0
 11  4  2  0  0  0  0
 11 10  1  0  0  0  0
 13 12  2  0  0  0  0
 13  1  1  0  0  0  0
 14 19  2  0  0  0  0
 14 15  1  0  0  0  0
 15 16  2  0  0  0  0
 16 17  1  0  0  0  0
 16 12  1  0  0  0  0
 18 22  1  0  0  0  0
 18 17  2  0  0  0  0
 19 18  1  0  0  0  0
 20 14  1  0  0  0  0
 21 15  1  0  0  0  0
 23 24  1  0  0  0  0
 24 26  1  0  0  0  0
 24 25  1  0  0  0  0
 27 24  1  0  0  0  0
M  END
>  <minimizedAffinity>
-6.28200865

>  <minimizedRMSD>
4.84724665

$$$$
