REMARK  Name = 
REMARK  2 active torsions:
REMARK  status: ('A' for Active; 'I' for Inactive)
REMARK    1  A    between atoms: C_2  and  O_7
REMARK    2  A    between atoms: O_7  and  C_13
REMARK                            x       y       z     vdW  Elec       q    Type
REMARK                         _______ _______ _______ _____ _____    ______ ____
ROOT
ATOM      1  O   UNL     1      38.785  30.865  50.359  0.00  0.00    +0.000 OA
ENDROOT
BRANCH   1   3
ATOM      2  C   UNL     1      36.889  29.890  51.313  0.00  0.00    +0.000 A 
ATOM      3  C   UNL     1      37.589  30.224  50.124  0.00  0.00    +0.000 A 
ATOM      4  C   UNL     1      37.002  29.875  48.915  0.00  0.00    +0.000 A 
ATOM      5  N   UNL     1      35.813  29.246  48.936  0.00  0.00    +0.000 NA
ATOM      6  C   UNL     1      35.172  28.942  50.069  0.00  0.00    +0.000 A 
ATOM      7  N   UNL     1      35.689  29.254  51.290  0.00  0.00    +0.000 NA
ATOM      8  H   UNL     1      37.218  30.096  52.326  0.00  0.00    +0.000 HD
ATOM      9  H   UNL     1      37.589  30.159  48.059  0.00  0.00    +0.000 HD
ATOM     10  H   UNL     1      34.208  28.430  50.002  0.00  0.00    +0.000 HD
ENDBRANCH   1   3
BRANCH   1  13
ATOM     11 CL   UNL     1      36.339  32.305  49.313  0.00  0.00    +0.000 Cl
ATOM     12  C   UNL     1      37.784  33.020  50.003  0.00  0.00    +0.000 A 
ATOM     13  C   UNL     1      38.840  32.262  50.448  0.00  0.00    +0.000 A 
ATOM     14  C   UNL     1      39.976  32.838  50.991  0.00  0.00    +0.000 A 
ATOM     15  H   UNL     1      40.771  32.185  51.323  0.00  0.00    +0.000 HD
ATOM     16  C   UNL     1      40.042  34.223  51.084  0.00  0.00    +0.000 A 
ATOM     17  H   UNL     1      40.930  34.691  51.510  0.00  0.00    +0.000 HD
ATOM     18  C   UNL     1      39.004  35.026  50.649  0.00  0.00    +0.000 A 
ATOM     19  C   UNL     1      37.888  34.391  50.112  0.00  0.00    +0.000 A 
ENDBRANCH   1  13
TORSDOF 2
