
 OpenBabel03272507283D

 41 43  0  0  1  0  0  0  0  0999 V2000
   37.7590   30.5020   48.5940 C   0  0  0  0  0  0  0  0  0  0  0  0
   38.3690   30.7620   47.3510 C   0  0  0  0  0  0  0  0  0  0  0  0
   37.5510   30.7790   46.2250 C   0  0  0  0  0  0  0  0  0  0  0  0
   36.2560   30.5540   46.3720 N   0  0  0  0  0  0  0  0  0  0  0  0
   35.6860   30.3070   47.5690 C   0  0  0  0  0  0  0  0  0  0  0  0
   36.4420   30.2830   48.6660 N   0  0  0  0  0  0  0  0  0  0  0  0
   38.1210   30.9950   44.9710 N   0  0  0  0  0  0  0  0  0  0  0  0
   39.3380   31.7980   44.6870 C   0  0  0  0  0  0  0  0  0  0  0  0
   39.3700   32.0540   43.2220 C   0  0  0  0  0  0  0  0  0  0  0  0
   38.0570   31.6650   42.7500 C   0  0  0  0  0  0  0  0  0  0  0  0
   37.7310   30.5490   43.6770 C   0  0  2  0  0  0  0  0  0  0  0  0
   38.4710   30.5060   49.4240 H   0  0  0  0  0  0  0  0  0  0  0  0
   39.4230   30.9470   47.2210 H   0  0  0  0  0  0  0  0  0  0  0  0
   34.6350   30.1210   47.7190 H   0  0  0  0  0  0  0  0  0  0  0  0
   40.2330   31.4580   45.1730 H   0  0  0  0  0  0  0  0  0  0  0  0
   39.0780   32.7500   45.2680 H   0  0  0  0  0  0  0  0  0  0  0  0
   39.2280   33.2530   43.2140 H   0  0  0  0  0  0  0  0  0  0  0  0
   40.2620   32.0630   42.6630 H   0  0  0  0  0  0  0  0  0  0  0  0
   37.2420   32.4010   42.7920 H   0  0  0  0  0  0  0  0  0  0  0  0
   38.1450   31.2120   41.7260 H   0  0  0  0  0  0  0  0  0  0  0  0
   36.2450   30.1980   43.5500 C   0  0  0  0  0  0  0  0  0  0  0  0
   35.5030   31.2870   43.9570 F   0  0  0  0  0  0  0  0  0  0  0  0
   35.8360   29.1390   44.2970 F   0  0  0  0  0  0  0  0  0  0  0  0
   35.9870   30.0350   42.2040 F   0  0  0  0  0  0  0  0  0  0  0  0
   38.4570   29.3470   43.3770 C   0  0  2  0  0  0  0  0  0  0  0  0
   39.1320   29.0590   44.1480 H   0  0  0  0  0  0  0  0  0  0  0  0
   37.4780   29.6540   40.4010 Cl  0  0  0  0  0  0  0  0  0  0  0  0
   39.1490   29.4040   40.8750 C   0  0  0  0  0  0  0  0  0  0  0  0
   39.4990   29.3000   42.2110 C   0  0  0  0  0  0  0  0  0  0  0  0
   40.8680   29.2250   42.3850 C   0  0  0  0  0  0  0  0  0  0  0  0
   41.2270   29.1810   43.4320 H   0  0  0  0  0  0  0  0  0  0  0  0
   41.8510   29.2370   41.4350 C   0  0  0  0  0  0  0  0  0  0  0  0
   42.8790   29.1700   41.7170 H   0  0  0  0  0  0  0  0  0  0  0  0
   41.3740   29.3390   40.1480 C   0  0  0  0  0  3  0  0  0  0  0  0
   40.0440   29.4240   39.8410 C   0  0  0  0  0  3  0  0  0  0  0  0
   37.6160   28.5150   42.9140 O   0  0  0  0  0  0  0  0  0  0  0  0
   37.5220   27.1840   42.7370 C   0  0  0  0  0  0  0  0  0  0  0  0
   36.4640   26.8830   42.1750 O   0  0  0  0  0  0  0  0  0  0  0  0
   38.0780   25.8840   42.8840 N   0  0  0  0  0  0  0  0  0  0  0  0
   37.8850   25.2820   43.7270 H   0  0  0  0  0  0  0  0  0  0  0  0
   38.6880   25.5760   42.0940 H   0  0  0  0  0  0  0  0  0  0  0  0
  1  6  1  0  0  0  0
  1 12  1  0  0  0  0
  2  1  2  0  0  0  0
  3  4  2  0  0  0  0
  3  2  1  0  0  0  0
  4  5  1  0  0  0  0
  5 14  1  0  0  0  0
  5  6  2  0  0  0  0
  7  3  1  0  0  0  0
  8  7  1  0  0  0  0
  8 15  1  0  0  0  0
  8 16  1  0  0  0  0
  9  8  1  0  0  0  0
 10 19  1  0  0  0  0
 10  9  1  0  0  0  0
 10 11  1  0  0  0  0
 11 21  1  6  0  0  0
 11  7  1  0  0  0  0
 13  2  1  0  0  0  0
 17  9  1  0  0  0  0
 18  9  1  0  0  0  0
 20 10  1  0  0  0  0
 21 22  1  0  0  0  0
 21 23  1  0  0  0  0
 24 21  1  0  0  0  0
 25 11  1  0  0  0  0
 25 26  1  1  0  0  0
 27 28  1  0  0  0  0
 28 29  1  0  0  0  0
 29 30  2  0  0  0  0
 29 25  1  0  0  0  0
 30 31  1  0  0  0  0
 32 33  1  0  0  0  0
 32 30  1  0  0  0  0
 34 32  2  0  0  0  0
 35 34  1  0  0  0  0
 35 28  2  0  0  0  0
 36 25  1  0  0  0  0
 37 39  1  0  0  0  0
 37 36  1  0  0  0  0
 38 37  2  0  0  0  0
 39 40  1  0  0  0  0
 41 39  1  0  0  0  0
M  END
>  <minimizedAffinity>
-4.16390705

>  <minimizedRMSD>
3.75605798

$$$$
