
 OpenBabel03272509573D

 46 49  0  0  0  0  0  0  0  0999 V2000
   34.3120   28.5820   48.3780 C   0  0  0  0  0  0  0  0  0  0  0  0
   34.0070   29.3820   47.6900 H   0  0  0  0  0  0  0  0  0  0  0  0
   35.3500   28.2750   48.1170 H   0  0  0  0  0  0  0  0  0  0  0  0
   33.4690   27.3420   48.3080 C   0  0  0  0  0  0  0  0  0  0  0  0
   33.8470   26.6290   47.5360 H   0  0  0  0  0  0  0  0  0  0  0  0
   33.4960   26.8240   49.2680 H   0  0  0  0  0  0  0  0  0  0  0  0
   32.0480   27.6350   47.9420 C   0  0  0  0  0  0  0  0  0  0  0  0
   31.1090   27.6180   48.9820 C   0  0  0  0  0  0  0  0  0  0  0  0
   29.7780   27.8780   48.7320 C   0  0  0  0  0  0  0  0  0  0  0  0
   29.3830   28.1490   47.4970 N   0  0  0  0  0  0  0  0  0  0  0  0
   30.3180   28.1600   46.4990 C   0  0  0  0  0  0  0  0  0  0  0  0
   31.6130   27.9130   46.7040 N   0  0  0  0  0  0  0  0  0  0  0  0
   31.4090   27.4000   49.9980 H   0  0  0  0  0  0  0  0  0  0  0  0
   29.0630   27.8580   49.5680 H   0  0  0  0  0  0  0  0  0  0  0  0
   29.8170   28.4690   45.1310 C   0  0  0  0  0  0  0  0  0  0  0  0
   30.4600   27.8840   44.4410 H   0  0  0  0  0  0  0  0  0  0  0  0
   28.8040   28.0170   45.0340 H   0  0  0  0  0  0  0  0  0  0  0  0
   27.1500   29.9430   45.3100 Cl  0  0  0  0  0  0  0  0  0  0  0  0
   28.6690   30.6490   44.8740 C   0  0  0  0  0  0  0  0  0  0  0  0
   29.8330   29.9110   44.8140 C   0  0  0  0  0  0  0  0  0  0  0  0
   31.0710   30.4630   44.4640 C   0  0  0  0  0  0  0  0  0  0  0  0
   31.9550   29.8400   44.4320 H   0  0  0  0  0  0  0  0  0  0  0  0
   31.1310   31.8270   44.1590 C   0  0  0  0  0  0  0  0  0  0  0  0
   32.1190   32.1870   43.8960 H   0  0  0  0  0  0  0  0  0  0  0  0
   29.9790   32.6110   44.2060 C   0  0  0  0  0  0  0  0  0  0  0  0
   28.8140   31.9700   44.5630 C   0  0  0  0  0  0  0  0  0  0  0  0
   34.3800   29.0780   49.7110 O   0  0  0  0  0  0  0  0  0  0  0  0
   37.2640   29.9570   51.7130 C   0  0  0  0  0  0  0  0  0  0  0  0
   38.0430   30.6070   50.7320 C   0  0  0  0  0  0  0  0  0  0  0  0
   37.5380   30.7050   49.4510 C   0  0  0  0  0  0  0  0  0  0  0  0
   36.3000   30.1480   49.2550 N   0  0  0  0  0  0  0  0  0  0  0  0
   35.5680   29.5360   50.1810 C   0  0  0  0  0  0  0  0  0  0  0  0
   36.0730   29.4470   51.4320 N   0  0  0  0  0  0  0  0  0  0  0  0
   37.7110   29.9110   52.6970 H   0  0  0  0  0  0  0  0  0  0  0  0
   39.0120   31.0490   50.8640 H   0  0  0  0  0  0  0  0  0  0  0  0
   38.8830   33.2610   49.3630 F   0  0  0  0  0  0  0  0  0  0  0  0
   38.8270   32.5170   48.2680 C   0  0  0  0  0  0  0  0  0  0  0  0
   38.2000   31.3350   48.3280 C   0  0  0  0  0  0  0  0  0  0  0  0
   38.1960   30.6280   47.1220 C   0  0  0  0  0  0  0  0  0  0  0  0
   38.7830   31.1040   45.9810 C   0  0  0  0  0  0  0  0  0  0  0  0
   39.4160   32.3290   45.9750 C   0  0  0  0  0  0  0  0  0  0  0  0
   39.4300   33.0330   47.1440 C   0  0  0  0  0  0  0  0  0  0  0  0
   37.7300   29.6460   46.9890 H   0  0  0  0  0  0  0  0  0  0  0  0
   38.7870   30.5650   45.0390 H   0  0  0  0  0  0  0  0  0  0  0  0
   39.8870   32.7240   45.0820 H   0  0  0  0  0  0  0  0  0  0  0  0
   39.9230   33.9970   47.1560 H   0  0  0  0  0  0  0  0  0  0  0  0
  1 27  1  0  0  0  0
  2  1  1  0  0  0  0
  3  1  1  0  0  0  0
  4  1  1  0  0  0  0
  4  6  1  0  0  0  0
  5  4  1  0  0  0  0
  7  4  1  0  0  0  0
  7  8  1  0  0  0  0
  8 13  1  0  0  0  0
  9  8  2  0  0  0  0
  9 14  1  0  0  0  0
 10  9  1  0  0  0  0
 11 12  1  0  0  0  0
 11 10  2  0  0  0  0
 12  7  2  0  0  0  0
 15 11  1  0  0  0  0
 16 15  1  0  0  0  0
 17 15  1  0  0  0  0
 19 18  1  0  0  0  0
 20 19  1  0  0  0  0
 20 15  1  0  0  0  0
 21 20  2  0  0  0  0
 22 21  1  0  0  0  0
 23 25  2  0  0  0  0
 23 21  1  0  0  0  0
 24 23  1  0  0  0  0
 25 26  1  0  0  0  0
 26 19  2  0  0  0  0
 27 32  1  0  0  0  0
 28 34  1  0  0  0  0
 29 35  1  0  0  0  0
 29 28  2  0  0  0  0
 30 29  1  0  0  0  0
 31 30  2  0  0  0  0
 31 32  1  0  0  0  0
 32 33  2  0  0  0  0
 33 28  1  0  0  0  0
 37 38  1  0  0  0  0
 37 36  1  0  0  0  0
 38 30  1  0  0  0  0
 39 38  2  0  0  0  0
 40 39  1  0  0  0  0
 41 40  2  0  0  0  0
 41 42  1  0  0  0  0
 42 46  1  0  0  0  0
 42 37  2  0  0  0  0
 43 39  1  0  0  0  0
 44 40  1  0  0  0  0
 45 41  1  0  0  0  0
M  END
>  <minimizedAffinity>
-6.41455984

>  <minimizedRMSD>
1.16002858

$$$$
