
 OpenBabel03262522183D

 24 25  0  0  0  0  0  0  0  0999 V2000
   37.1850   33.5640   49.7150 O   0  0  0  0  0  0  0  0  0  0  0  0
   38.4490   32.9700   49.0670 P   0  0  1  0  0  0  0  0  0  0  0  0
   39.7520   33.9170   49.6340 O   0  0  0  0  0  0  0  0  0  0  0  0
   39.4810   34.8470   49.8200 H   0  0  0  0  0  0  0  0  0  0  0  0
   38.6460   31.4270   49.7210 O   0  0  0  0  0  0  0  0  0  0  0  0
   37.3650   30.3370   51.4060 C   0  0  0  0  0  0  0  0  0  0  0  0
   37.6830   30.5250   50.0540 C   0  0  0  0  0  0  0  0  0  0  0  0
   36.9770   29.7600   49.1320 C   0  0  0  0  0  0  0  0  0  0  0  0
   36.0270   28.8790   49.5740 N   0  0  0  0  0  0  0  0  0  0  0  0
   35.7590   28.7360   50.8820 C   0  0  0  0  0  0  0  0  0  0  0  0
   36.4270   29.4660   51.8090 N   0  0  0  0  0  0  0  0  0  0  0  0
   37.8840   30.9080   52.1710 H   0  0  0  0  0  0  0  0  0  0  0  0
   37.2330   29.9130   48.0900 H   0  0  0  0  0  0  0  0  0  0  0  0
   34.9820   27.9970   51.0230 H   0  0  0  0  0  0  0  0  0  0  0  0
   38.2390   33.0400   47.4330 O   0  0  0  0  0  0  0  0  0  0  0  0
   36.9450   30.6480   46.0560 Cl  0  0  0  0  0  0  0  0  0  0  0  0
   38.5440   31.2410   45.7150 C   0  0  0  0  0  0  0  0  0  0  0  0
   38.9030   32.3290   46.4640 C   0  0  0  0  0  0  0  0  0  0  0  0
   40.1750   32.8670   46.2510 C   0  0  0  0  0  0  0  0  0  0  0  0
   40.6180   33.7250   46.7570 H   0  0  0  0  0  0  0  0  0  0  0  0
   41.0510   32.3290   45.3190 C   0  0  0  0  0  0  0  0  0  0  0  0
   42.0380   32.7030   45.1150 H   0  0  0  0  0  0  0  0  0  0  0  0
   40.6650   31.2310   44.5750 C   0  0  0  0  0  0  0  0  0  0  0  0
   39.4170   30.7080   44.7880 C   0  0  0  0  0  0  0  0  0  0  0  0
  2  3  1  0  0  0  0
  2  1  2  1  0  0  0
  2  5  1  0  0  0  0
  3  4  1  0  0  0  0
  5  7  1  0  0  0  0
  6 11  1  0  0  0  0
  6 12  1  0  0  0  0
  7  6  2  0  0  0  0
  8  9  2  0  0  0  0
  8  7  1  0  0  0  0
  9 10  1  0  0  0  0
 10 14  1  0  0  0  0
 10 11  2  0  0  0  0
 13  8  1  0  0  0  0
 15  2  1  0  0  0  0
 17 16  1  0  0  0  0
 17 18  1  0  0  0  0
 18 15  1  0  0  0  0
 19 18  2  0  0  0  0
 19 20  1  0  0  0  0
 21 19  1  0  0  0  0
 22 21  1  0  0  0  0
 23 24  1  0  0  0  0
 23 21  2  0  0  0  0
 24 17  2  0  0  0  0
M  END
>  <minimizedAffinity>
-4.8804183

>  <minimizedRMSD>
1.34100068

$$$$
