REMARK  Name = 
REMARK  5 active torsions:
REMARK  status: ('A' for Active; 'I' for Inactive)
REMARK    1  A    between atoms: C_1  and  C_7
REMARK    2  A    between atoms: C_6  and  C_15
REMARK    3  A    between atoms: C_7  and  C_13
REMARK    4  A    between atoms: C_16  and  C_17
REMARK    5  A    between atoms: C_17  and  C_31
REMARK                            x       y       z     vdW  Elec       q    Type
REMARK                         _______ _______ _______ _____ _____    ______ ____
ROOT
ATOM      1  C   UNL     1      37.132  30.961  49.013  0.00  0.00    +0.000 A 
ATOM      2  C   UNL     1      36.919  31.928  50.002  0.00  0.00    +0.000 A 
ATOM      3  C   UNL     1      37.559  33.161  49.986  0.00  0.00    +0.000 A 
ATOM      4  C   UNL     1      38.448  33.456  48.952  0.00  0.00    +0.000 A 
ATOM      5  C   UNL     1      38.646  32.504  47.995  0.00  0.00    +0.000 A 
ATOM      6  C   UNL     1      37.998  31.287  48.033  0.00  0.00    +0.000 A 
ATOM      7  H   UNL     1      36.220  31.686  50.806  0.00  0.00    +0.000 HD
ATOM      8  H   UNL     1      37.313  33.833  50.809  0.00  0.00    +0.000 HD
ATOM      9  H   UNL     1      38.930  34.424  48.967  0.00  0.00    +0.000 HD
ATOM     10  H   UNL     1      39.350  32.816  47.232  0.00  0.00    +0.000 HD
ENDROOT
BRANCH   1  11
ATOM     11  C   UNL     1      36.416  29.706  49.119  0.00  0.00    +0.000 C 
ATOM     12  O   UNL     1      36.932  28.867  49.954  0.00  0.00    +0.000 OA
BRANCH  11  17
ATOM     13  C   UNL     1      33.630  30.180  46.852  0.00  0.00    +0.000 A 
ATOM     14  C   UNL     1      32.961  28.967  46.870  0.00  0.00    +0.000 A 
ATOM     15  C   UNL     1      33.474  27.957  47.679  0.00  0.00    +0.000 A 
ATOM     16  N   UNL     1      34.595  28.183  48.416  0.00  0.00    +0.000 NA
ATOM     17  C   UNL     1      35.210  29.359  48.374  0.00  0.00    +0.000 A 
ATOM     18  N   UNL     1      34.715  30.346  47.587  0.00  0.00    +0.000 NA
ATOM     19  H   UNL     1      33.180  30.921  46.204  0.00  0.00    +0.000 HD
ATOM     20  H   UNL     1      32.067  28.695  46.321  0.00  0.00    +0.000 HD
ATOM     21  H   UNL     1      33.029  26.968  47.768  0.00  0.00    +0.000 HD
ENDBRANCH  11  17
ENDBRANCH   1  11
BRANCH   6  22
ATOM     22  C   UNL     1      38.318  30.387  46.949  0.00  0.00    +0.000 C 
ATOM     23  C   UNL     1      38.813  30.702  45.771  0.00  0.00    +0.000 C 
BRANCH  23  24
ATOM     24  C   UNL     1      39.193  29.907  44.594  0.00  0.00    +0.000 C 
ATOM     25  H   UNL     1      38.951  28.837  44.783  0.00  0.00    +0.000 HD
ATOM     26  H   UNL     1      40.264  30.046  44.376  0.00  0.00    +0.000 HD
BRANCH  24  29
ATOM     27 CL   UNL     1      36.318  29.026  44.410  0.00  0.00    +0.000 Cl
ATOM     28  C   UNL     1      37.095  30.027  43.178  0.00  0.00    +0.000 A 
ATOM     29  C   UNL     1      38.415  30.343  43.411  0.00  0.00    +0.000 A 
ATOM     30  C   UNL     1      39.029  31.135  42.435  0.00  0.00    +0.000 A 
ATOM     31  H   UNL     1      40.079  31.452  42.510  0.00  0.00    +0.000 HD
ATOM     32  C   UNL     1      38.313  31.546  41.330  0.00  0.00    +0.000 A 
ATOM     33  H   UNL     1      38.827  32.163  40.591  0.00  0.00    +0.000 HD
ATOM     34  C   UNL     1      36.999  31.201  41.152  0.00  0.00    +0.000 A 
ATOM     35  C   UNL     1      36.340  30.415  42.092  0.00  0.00    +0.000 A 
ENDBRANCH  24  29
ENDBRANCH  23  24
ENDBRANCH   6  22
TORSDOF 5
