
 OpenBabel03272509573D

 46 49  0  0  0  0  0  0  0  0999 V2000
   34.5740   28.3810   48.2970 C   0  0  0  0  0  0  0  0  0  0  0  0
   34.1880   29.3190   47.8740 H   0  0  0  0  0  0  0  0  0  0  0  0
   35.5760   28.1860   47.8540 H   0  0  0  0  0  0  0  0  0  0  0  0
   33.7340   27.1710   48.0060 C   0  0  0  0  0  0  0  0  0  0  0  0
   34.1080   26.6140   47.1140 H   0  0  0  0  0  0  0  0  0  0  0  0
   33.7710   26.4850   48.8540 H   0  0  0  0  0  0  0  0  0  0  0  0
   32.3100   27.5200   47.7110 C   0  0  0  0  0  0  0  0  0  0  0  0
   31.4220   27.5300   48.7950 C   0  0  0  0  0  0  0  0  0  0  0  0
   30.0910   27.8420   48.6120 C   0  0  0  0  0  0  0  0  0  0  0  0
   29.6480   28.1360   47.3990 N   0  0  0  0  0  0  0  0  0  0  0  0
   30.5320   28.1190   46.3570 C   0  0  0  0  0  0  0  0  0  0  0  0
   31.8260   27.8220   46.4970 N   0  0  0  0  0  0  0  0  0  0  0  0
   31.7630   27.2950   49.7950 H   0  0  0  0  0  0  0  0  0  0  0  0
   29.4170   27.8430   49.4810 H   0  0  0  0  0  0  0  0  0  0  0  0
   29.9780   28.4560   45.0160 C   0  0  0  0  0  0  0  0  0  0  0  0
   30.6200   27.9190   44.2870 H   0  0  0  0  0  0  0  0  0  0  0  0
   28.9800   27.9700   44.9340 H   0  0  0  0  0  0  0  0  0  0  0  0
   27.2420   29.7960   45.1940 Cl  0  0  0  0  0  0  0  0  0  0  0  0
   28.7330   30.5880   44.8130 C   0  0  0  0  0  0  0  0  0  0  0  0
   29.9310   29.9080   44.7510 C   0  0  0  0  0  0  0  0  0  0  0  0
   31.1470   30.5290   44.4450 C   0  0  0  0  0  0  0  0  0  0  0  0
   32.0600   29.9510   44.4090 H   0  0  0  0  0  0  0  0  0  0  0  0
   31.1490   31.9050   44.1890 C   0  0  0  0  0  0  0  0  0  0  0  0
   32.1220   32.3200   43.9590 H   0  0  0  0  0  0  0  0  0  0  0  0
   29.9590   32.6310   44.2410 C   0  0  0  0  0  3  0  0  0  0  0  0
   28.8210   31.9240   44.5510 C   0  0  0  0  0  3  0  0  0  0  0  0
   34.7920   28.5260   49.6970 O   0  0  0  0  0  0  0  0  0  0  0  0
   37.3890   30.1590   51.6170 C   0  0  0  0  0  0  0  0  0  0  0  0
   38.0840   30.8050   50.5720 C   0  0  0  0  0  0  0  0  0  0  0  0
   37.6260   30.6440   49.2810 C   0  0  0  0  0  0  0  0  0  0  0  0
   36.5140   29.8540   49.1370 N   0  0  0  0  0  0  0  0  0  0  0  0
   35.8610   29.2470   50.1230 C   0  0  0  0  0  0  0  0  0  0  0  0
   36.3190   29.4120   51.3840 N   0  0  0  0  0  0  0  0  0  0  0  0
   37.7940   30.3220   52.6060 H   0  0  0  0  0  0  0  0  0  0  0  0
   38.9540   31.4260   50.6620 H   0  0  0  0  0  0  0  0  0  0  0  0
   39.0830   33.1270   49.0420 F   0  0  0  0  0  0  0  0  0  0  0  0
   38.8940   32.3790   47.9650 C   0  0  0  0  0  0  0  0  0  0  0  0
   38.2160   31.2300   48.0950 C   0  0  0  0  0  0  0  0  0  0  0  0
   38.0700   30.5150   46.9030 C   0  0  0  0  0  0  0  0  0  0  0  0
   38.5760   30.9520   45.7090 C   0  0  0  0  0  0  0  0  0  0  0  0
   39.2660   32.1430   45.6320 C   0  0  0  0  0  0  0  0  0  0  0  0
   39.4190   32.8550   46.7870 C   0  0  0  0  0  0  0  0  0  0  0  0
   37.5450   29.5580   46.8240 H   0  0  0  0  0  0  0  0  0  0  0  0
   38.4690   30.4060   44.7770 H   0  0  0  0  0  0  0  0  0  0  0  0
   39.6750   32.5070   44.6960 H   0  0  0  0  0  0  0  0  0  0  0  0
   39.9590   33.7920   46.7430 H   0  0  0  0  0  0  0  0  0  0  0  0
  1 27  1  0  0  0  0
  2  1  1  0  0  0  0
  3  1  1  0  0  0  0
  4  1  1  0  0  0  0
  4  6  1  0  0  0  0
  5  4  1  0  0  0  0
  7  4  1  0  0  0  0
  7  8  1  0  0  0  0
  8 13  1  0  0  0  0
  9  8  2  0  0  0  0
  9 14  1  0  0  0  0
 10  9  1  0  0  0  0
 11 12  1  0  0  0  0
 11 10  2  0  0  0  0
 12  7  2  0  0  0  0
 15 11  1  0  0  0  0
 16 15  1  0  0  0  0
 17 15  1  0  0  0  0
 19 18  1  0  0  0  0
 20 19  1  0  0  0  0
 20 15  1  0  0  0  0
 21 20  2  0  0  0  0
 22 21  1  0  0  0  0
 23 25  2  0  0  0  0
 23 21  1  0  0  0  0
 24 23  1  0  0  0  0
 25 26  1  0  0  0  0
 26 19  2  0  0  0  0
 27 32  1  0  0  0  0
 28 34  1  0  0  0  0
 29 35  1  0  0  0  0
 29 28  2  0  0  0  0
 30 29  1  0  0  0  0
 31 30  2  0  0  0  0
 31 32  1  0  0  0  0
 32 33  2  0  0  0  0
 33 28  1  0  0  0  0
 37 38  1  0  0  0  0
 37 36  1  0  0  0  0
 38 30  1  0  0  0  0
 39 38  2  0  0  0  0
 40 39  1  0  0  0  0
 41 40  2  0  0  0  0
 41 42  1  0  0  0  0
 42 37  2  0  0  0  0
 43 39  1  0  0  0  0
 44 40  1  0  0  0  0
 45 41  1  0  0  0  0
 46 42  1  0  0  0  0
M  END
>  <minimizedAffinity>
-6.36766529

>  <minimizedRMSD>
1.19361591

$$$$
