
 OpenBabel03272501063D

 30 32  0  0  1  0  0  0  0  0999 V2000
   38.1830   26.1460   34.5560 C   0  0  2  0  0  0  0  0  0  0  0  0
   38.5030   25.8070   33.0710 C   0  0  2  0  0  0  0  0  0  0  0  0
   39.3230   26.9770   32.7170 C   0  0  0  0  0  0  0  0  0  0  0  0
   40.0960   27.2940   33.8190 O   0  0  0  0  0  0  0  0  0  0  0  0
   39.5880   26.6630   34.9110 C   0  0  0  0  0  0  0  0  0  0  0  0
   37.4590   26.9530   34.5370 H   0  0  0  0  0  0  0  0  0  0  0  0
   39.1540   24.8870   33.1260 H   0  0  0  0  0  0  0  0  0  0  0  0
   38.6670   27.8660   32.5420 H   0  0  0  0  0  0  0  0  0  0  0  0
   39.9060   26.8140   31.7900 H   0  0  0  0  0  0  0  0  0  0  0  0
   40.1900   25.7450   35.1360 H   0  0  0  0  0  0  0  0  0  0  0  0
   39.5480   27.2780   35.8350 H   0  0  0  0  0  0  0  0  0  0  0  0
   35.7090   24.1260   31.1660 C   0  0  0  0  0  0  0  0  0  0  0  0
   36.8850   24.2680   31.9500 C   0  0  0  0  0  0  0  0  0  0  0  0
   37.3090   25.5780   32.2890 C   0  0  0  0  0  0  0  0  0  0  0  0
   36.5530   26.6390   31.8390 N   0  0  0  0  0  0  0  0  0  0  0  0
   35.4510   26.4570   31.1040 C   0  0  0  0  0  0  0  0  0  0  0  0
   35.0200   25.2190   30.7620 N   0  0  0  0  0  0  0  0  0  0  0  0
   35.3560   23.1440   30.8880 H   0  0  0  0  0  0  0  0  0  0  0  0
   37.4430   23.4020   32.2770 H   0  0  0  0  0  0  0  0  0  0  0  0
   34.9470   27.3870   30.8140 H   0  0  0  0  0  0  0  0  0  0  0  0
   37.8820   25.0280   35.2700 O   0  0  0  0  0  0  0  0  0  0  0  0
   40.2300   23.0450   34.7780 Cl  0  0  0  0  0  0  0  0  0  0  0  0
   39.4930   23.3950   36.3230 C   0  0  0  0  0  0  0  0  0  0  0  0
   38.4720   24.3150   36.2430 C   0  0  0  0  0  0  0  0  0  0  0  0
   37.8660   24.6110   37.4750 C   0  0  0  0  0  0  0  0  0  0  0  0
   37.0370   25.3070   37.6680 H   0  0  0  0  0  0  0  0  0  0  0  0
   38.2590   24.0280   38.6670 C   0  0  0  0  0  0  0  0  0  0  0  0
   37.8500   24.2010   39.6350 H   0  0  0  0  0  0  0  0  0  0  0  0
   39.2910   23.1180   38.6560 C   0  0  0  0  0  3  0  0  0  0  0  0
   39.9240   22.7870   37.4770 C   0  0  0  0  0  3  0  0  0  0  0  0
  1  6  1  1  0  0  0
  1  5  1  0  0  0  0
  1 21  1  0  0  0  0
  2  7  1  6  0  0  0
  2  1  1  0  0  0  0
  3  2  1  0  0  0  0
  3  4  1  0  0  0  0
  4  5  1  0  0  0  0
  5 10  1  0  0  0  0
  5 11  1  0  0  0  0
  8  3  1  0  0  0  0
  9  3  1  0  0  0  0
 12 13  1  0  0  0  0
 13 19  1  0  0  0  0
 13 14  2  0  0  0  0
 14  2  1  0  0  0  0
 15 14  1  0  0  0  0
 16 15  2  0  0  0  0
 17 16  1  0  0  0  0
 17 12  2  0  0  0  0
 18 12  1  0  0  0  0
 20 16  1  0  0  0  0
 21 24  1  0  0  0  0
 22 23  1  0  0  0  0
 23 30  1  0  0  0  0
 24 23  2  0  0  0  0
 24 25  1  0  0  0  0
 25 26  1  0  0  0  0
 25 27  2  0  0  0  0
 27 28  1  0  0  0  0
 29 27  1  0  0  0  0
 30 29  2  0  0  0  0
M  END
>  <minimizedAffinity>
-5.02311993

$$$$

 OpenBabel03272501063D

 30 32  0  0  1  0  0  0  0  0999 V2000
   35.2000   29.0350   32.2610 C   0  0  2  0  0  0  0  0  0  0  0  0
   36.4860   28.3640   31.6970 C   0  0  2  0  0  0  0  0  0  0  0  0
   36.4960   28.9390   30.3420 C   0  0  0  0  0  0  0  0  0  0  0  0
   36.0580   30.2470   30.4400 O   0  0  0  0  0  0  0  0  0  0  0  0
   35.4580   30.4220   31.6480 C   0  0  0  0  0  0  0  0  0  0  0  0
   34.3620   28.5420   31.7820 H   0  0  0  0  0  0  0  0  0  0  0  0
   37.3260   28.8080   32.3070 H   0  0  0  0  0  0  0  0  0  0  0  0
   35.7460   28.4160   29.6980 H   0  0  0  0  0  0  0  0  0  0  0  0
   37.4820   28.8310   29.8490 H   0  0  0  0  0  0  0  0  0  0  0  0
   36.1640   30.9280   32.3550 H   0  0  0  0  0  0  0  0  0  0  0  0
   34.5170   31.0130   31.6260 H   0  0  0  0  0  0  0  0  0  0  0  0
   37.2830   24.7950   32.6380 C   0  0  0  0  0  0  0  0  0  0  0  0
   37.3800   26.2110   32.5980 C   0  0  0  0  0  0  0  0  0  0  0  0
   36.4460   26.9230   31.8020 C   0  0  0  0  0  0  0  0  0  0  0  0
   35.4980   26.1970   31.1120 N   0  0  0  0  0  0  0  0  0  0  0  0
   35.4460   24.8630   31.1800 C   0  0  0  0  0  0  0  0  0  0  0  0
   36.3220   24.1540   31.9320 N   0  0  0  0  0  0  0  0  0  0  0  0
   37.9770   24.2190   33.2330 H   0  0  0  0  0  0  0  0  0  0  0  0
   38.1430   26.7330   33.1570 H   0  0  0  0  0  0  0  0  0  0  0  0
   34.6430   24.4150   30.5820 H   0  0  0  0  0  0  0  0  0  0  0  0
   35.2220   29.0930   33.6200 O   0  0  0  0  0  0  0  0  0  0  0  0
   32.2090   29.3850   34.3490 Cl  0  0  0  0  0  0  0  0  0  0  0  0
   33.5300   30.2680   35.0780 C   0  0  0  0  0  0  0  0  0  0  0  0
   34.7600   29.9350   34.5590 C   0  0  0  0  0  0  0  0  0  0  0  0
   35.8350   30.6340   35.1320 C   0  0  0  0  0  0  0  0  0  0  0  0
   36.9030   30.5450   34.8870 H   0  0  0  0  0  0  0  0  0  0  0  0
   35.6730   31.5760   36.1310 C   0  0  0  0  0  0  0  0  0  0  0  0
   36.4350   32.1440   36.6120 H   0  0  0  0  0  0  0  0  0  0  0  0
   34.4050   31.8480   36.5930 C   0  0  0  0  0  3  0  0  0  0  0  0
   33.3120   31.1940   36.0690 C   0  0  0  0  0  3  0  0  0  0  0  0
  1  6  1  6  0  0  0
  1 21  1  0  0  0  0
  2 14  1  0  0  0  0
  2  1  1  0  0  0  0
  2  7  1  1  0  0  0
  3  4  1  0  0  0  0
  3  2  1  0  0  0  0
  4  5  1  0  0  0  0
  5  1  1  0  0  0  0
  5 10  1  0  0  0  0
  8  3  1  0  0  0  0
  9  3  1  0  0  0  0
 11  5  1  0  0  0  0
 12 18  1  0  0  0  0
 13 12  1  0  0  0  0
 13 19  1  0  0  0  0
 14 13  2  0  0  0  0
 15 16  2  0  0  0  0
 15 14  1  0  0  0  0
 16 17  1  0  0  0  0
 17 12  2  0  0  0  0
 20 16  1  0  0  0  0
 21 24  1  0  0  0  0
 22 23  1  0  0  0  0
 23 30  1  0  0  0  0
 24 23  2  0  0  0  0
 24 25  1  0  0  0  0
 25 27  2  0  0  0  0
 26 25  1  0  0  0  0
 27 29  1  0  0  0  0
 27 28  1  0  0  0  0
 30 29  2  0  0  0  0
M  END
>  <minimizedAffinity>
-4.88538551

$$$$

 OpenBabel03272501063D

 30 32  0  0  1  0  0  0  0  0999 V2000
   37.4930   25.6990   34.1180 C   0  0  2  0  0  0  0  0  0  0  0  0
   37.5800   25.5070   32.5770 C   0  0  2  0  0  0  0  0  0  0  0  0
   36.6540   26.5630   32.1380 C   0  0  0  0  0  0  0  0  0  0  0  0
   36.8230   27.6440   32.9830 O   0  0  0  0  0  0  0  0  0  0  0  0
   37.4980   27.2370   34.0910 C   0  0  0  0  0  0  0  0  0  0  0  0
   36.5250   25.3140   34.4200 H   0  0  0  0  0  0  0  0  0  0  0  0
   38.6400   25.7960   32.3170 H   0  0  0  0  0  0  0  0  0  0  0  0
   35.5960   26.2290   32.2820 H   0  0  0  0  0  0  0  0  0  0  0  0
   36.7750   26.8070   31.0650 H   0  0  0  0  0  0  0  0  0  0  0  0
   38.5780   27.5250   34.0060 H   0  0  0  0  0  0  0  0  0  0  0  0
   37.1140   27.6390   35.0520 H   0  0  0  0  0  0  0  0  0  0  0  0
   35.7820   22.4510   31.2770 C   0  0  0  0  0  0  0  0  0  0  0  0
   36.0090   23.8060   31.6380 C   0  0  0  0  0  0  0  0  0  0  0  0
   37.2760   24.1530   32.1730 C   0  0  0  0  0  0  0  0  0  0  0  0
   38.2150   23.1530   32.3110 N   0  0  0  0  0  0  0  0  0  0  0  0
   37.9570   21.8900   31.9570 C   0  0  0  0  0  0  0  0  0  0  0  0
   36.7570   21.5260   31.4430 N   0  0  0  0  0  0  0  0  0  0  0  0
   34.8300   22.1490   30.8660 H   0  0  0  0  0  0  0  0  0  0  0  0
   35.2370   24.5520   31.5100 H   0  0  0  0  0  0  0  0  0  0  0  0
   38.7930   21.1990   32.1200 H   0  0  0  0  0  0  0  0  0  0  0  0
   38.6000   25.2200   34.7460 O   0  0  0  0  0  0  0  0  0  0  0  0
   40.7450   22.9660   34.8520 Cl  0  0  0  0  0  0  0  0  0  0  0  0
   39.7010   23.4490   36.1670 C   0  0  0  0  0  0  0  0  0  0  0  0
   38.8470   24.4760   35.8360 C   0  0  0  0  0  0  0  0  0  0  0  0
   38.0000   24.8800   36.8810 C   0  0  0  0  0  0  0  0  0  0  0  0
   37.2380   25.6720   36.8620 H   0  0  0  0  0  0  0  0  0  0  0  0
   38.0200   24.2950   38.1350 C   0  0  0  0  0  0  0  0  0  0  0  0
   37.4110   24.5450   38.9730 H   0  0  0  0  0  0  0  0  0  0  0  0
   38.9070   23.2730   38.3810 C   0  0  0  0  0  3  0  0  0  0  0  0
   39.7640   22.8340   37.3950 C   0  0  0  0  0  3  0  0  0  0  0  0
  1  6  1  1  0  0  0
  1 21  1  0  0  0  0
  2  7  1  6  0  0  0
  2  1  1  0  0  0  0
  3  8  1  0  0  0  0
  3  2  1  0  0  0  0
  3  4  1  0  0  0  0
  4  5  1  0  0  0  0
  5  1  1  0  0  0  0
  5 11  1  0  0  0  0
  9  3  1  0  0  0  0
 10  5  1  0  0  0  0
 12 17  2  0  0  0  0
 12 13  1  0  0  0  0
 13 14  2  0  0  0  0
 14 15  1  0  0  0  0
 14  2  1  0  0  0  0
 16 20  1  0  0  0  0
 16 15  2  0  0  0  0
 17 16  1  0  0  0  0
 18 12  1  0  0  0  0
 19 13  1  0  0  0  0
 21 24  1  0  0  0  0
 22 23  1  0  0  0  0
 23 30  1  0  0  0  0
 24 23  2  0  0  0  0
 24 25  1  0  0  0  0
 25 27  2  0  0  0  0
 26 25  1  0  0  0  0
 27 29  1  0  0  0  0
 27 28  1  0  0  0  0
 30 29  2  0  0  0  0
M  END
>  <minimizedAffinity>
-4.86209631

$$$$

 OpenBabel03272501063D

 30 32  0  0  1  0  0  0  0  0999 V2000
   38.3010   25.7810   35.0890 C   0  0  2  0  0  0  0  0  0  0  0  0
   37.8210   26.4340   33.7610 C   0  0  2  0  0  0  0  0  0  0  0  0
   36.9740   27.5110   34.3010 C   0  0  0  0  0  0  0  0  0  0  0  0
   37.5890   27.9930   35.4420 O   0  0  0  0  0  0  0  0  0  0  0  0
   38.5340   27.1010   35.8440 C   0  0  0  0  0  0  0  0  0  0  0  0
   37.4500   25.2430   35.4900 H   0  0  0  0  0  0  0  0  0  0  0  0
   38.7560   26.8750   33.3090 H   0  0  0  0  0  0  0  0  0  0  0  0
   35.9930   27.0930   34.6390 H   0  0  0  0  0  0  0  0  0  0  0  0
   36.7540   28.2890   33.5450 H   0  0  0  0  0  0  0  0  0  0  0  0
   39.5490   27.4490   35.5200 H   0  0  0  0  0  0  0  0  0  0  0  0
   38.5720   26.9150   36.9390 H   0  0  0  0  0  0  0  0  0  0  0  0
   35.6760   24.8940   31.0610 C   0  0  0  0  0  0  0  0  0  0  0  0
   36.2630   25.8920   31.8840 C   0  0  0  0  0  0  0  0  0  0  0  0
   37.1900   25.4820   32.8750 C   0  0  0  0  0  0  0  0  0  0  0  0
   37.4690   24.1360   32.9830 N   0  0  0  0  0  0  0  0  0  0  0  0
   36.8920   23.2310   32.1850 C   0  0  0  0  0  0  0  0  0  0  0  0
   36.0020   23.5900   31.2290 N   0  0  0  0  0  0  0  0  0  0  0  0
   34.9650   25.1680   30.2960 H   0  0  0  0  0  0  0  0  0  0  0  0
   36.0090   26.9350   31.7590 H   0  0  0  0  0  0  0  0  0  0  0  0
   37.2040   22.1980   32.3800 H   0  0  0  0  0  0  0  0  0  0  0  0
   39.4690   25.1060   34.9190 O   0  0  0  0  0  0  0  0  0  0  0  0
   42.4630   24.4340   34.3940 Cl  0  0  0  0  0  0  0  0  0  0  0  0
   41.4420   23.6840   35.5970 C   0  0  0  0  0  0  0  0  0  0  0  0
   40.1580   24.1780   35.6060 C   0  0  0  0  0  0  0  0  0  0  0  0
   39.3200   23.5880   36.5670 C   0  0  0  0  0  0  0  0  0  0  0  0
   38.2620   23.8120   36.7660 H   0  0  0  0  0  0  0  0  0  0  0  0
   39.7470   22.5950   37.4290 C   0  0  0  0  0  0  0  0  0  0  0  0
   39.1730   22.1010   38.1790 H   0  0  0  0  0  0  0  0  0  0  0  0
   41.0500   22.1580   37.3520 C   0  0  0  0  0  3  0  0  0  0  0  0
   41.9180   22.7000   36.4290 C   0  0  0  0  0  3  0  0  0  0  0  0
  1  6  1  1  0  0  0
  1  5  1  0  0  0  0
  2  7  1  6  0  0  0
  2  3  1  0  0  0  0
  2  1  1  0  0  0  0
  3  8  1  0  0  0  0
  3  4  1  0  0  0  0
  4  5  1  0  0  0  0
  5 11  1  0  0  0  0
  9  3  1  0  0  0  0
 10  5  1  0  0  0  0
 12 17  2  0  0  0  0
 12 13  1  0  0  0  0
 13 14  2  0  0  0  0
 14 15  1  0  0  0  0
 14  2  1  0  0  0  0
 16 20  1  0  0  0  0
 16 15  2  0  0  0  0
 17 16  1  0  0  0  0
 18 12  1  0  0  0  0
 19 13  1  0  0  0  0
 21  1  1  0  0  0  0
 21 24  1  0  0  0  0
 22 23  1  0  0  0  0
 23 24  2  0  0  0  0
 23 30  1  0  0  0  0
 24 25  1  0  0  0  0
 25 26  1  0  0  0  0
 25 27  2  0  0  0  0
 27 28  1  0  0  0  0
 29 27  1  0  0  0  0
 30 29  2  0  0  0  0
M  END
>  <minimizedAffinity>
-4.8313489

$$$$

 OpenBabel03272501063D

 30 32  0  0  1  0  0  0  0  0999 V2000
   38.5870   24.6480   33.9480 C   0  0  2  0  0  0  0  0  0  0  0  0
   38.4740   24.3550   35.4720 C   0  0  2  0  0  0  0  0  0  0  0  0
   38.1850   25.7100   35.9680 C   0  0  0  0  0  0  0  0  0  0  0  0
   37.3610   26.3270   35.0440 O   0  0  0  0  0  0  0  0  0  0  0  0
   37.3990   25.6220   33.8810 C   0  0  0  0  0  0  0  0  0  0  0  0
   39.5290   25.1650   33.8050 H   0  0  0  0  0  0  0  0  0  0  0  0
   37.5530   23.7090   35.5670 H   0  0  0  0  0  0  0  0  0  0  0  0
   39.1230   26.3190   35.9900 H   0  0  0  0  0  0  0  0  0  0  0  0
   37.7770   25.7010   36.9970 H   0  0  0  0  0  0  0  0  0  0  0  0
   36.4900   24.9720   33.8000 H   0  0  0  0  0  0  0  0  0  0  0  0
   37.4590   26.2380   32.9580 H   0  0  0  0  0  0  0  0  0  0  0  0
   40.7740   22.1930   37.5450 C   0  0  0  0  0  0  0  0  0  0  0  0
   39.5710   22.7870   37.0790 C   0  0  0  0  0  0  0  0  0  0  0  0
   39.6500   23.6980   35.9950 C   0  0  0  0  0  0  0  0  0  0  0  0
   40.8930   23.9550   35.4560 N   0  0  0  0  0  0  0  0  0  0  0  0
   42.0000   23.3720   35.9290 C   0  0  0  0  0  0  0  0  0  0  0  0
   41.9580   22.4970   36.9620 N   0  0  0  0  0  0  0  0  0  0  0  0
   40.7520   21.4940   38.3680 H   0  0  0  0  0  0  0  0  0  0  0  0
   38.6210   22.5520   37.5370 H   0  0  0  0  0  0  0  0  0  0  0  0
   42.9190   23.6670   35.4070 H   0  0  0  0  0  0  0  0  0  0  0  0
   38.3450   23.5340   33.2060 O   0  0  0  0  0  0  0  0  0  0  0  0
   36.4760   24.1590   30.7950 Cl  0  0  0  0  0  0  0  0  0  0  0  0
   36.2900   22.8330   31.9180 C   0  0  0  0  0  0  0  0  0  0  0  0
   37.2650   22.8000   32.8890 C   0  0  0  0  0  0  0  0  0  0  0  0
   37.1340   21.7410   33.8020 C   0  0  0  0  0  0  0  0  0  0  0  0
   37.7820   21.5050   34.6580 H   0  0  0  0  0  0  0  0  0  0  0  0
   36.1120   20.8100   33.7330 C   0  0  0  0  0  0  0  0  0  0  0  0
   35.9480   19.9850   34.3860 H   0  0  0  0  0  0  0  0  0  0  0  0
   35.1780   20.9180   32.7280 C   0  0  0  0  0  3  0  0  0  0  0  0
   35.2550   21.9360   31.8040 C   0  0  0  0  0  3  0  0  0  0  0  0
  1  6  1  6  0  0  0
  1  2  1  0  0  0  0
  2  7  1  1  0  0  0
  2  3  1  0  0  0  0
  2 14  1  0  0  0  0
  3  8  1  0  0  0  0
  3  9  1  0  0  0  0
  4  3  1  0  0  0  0
  5  1  1  0  0  0  0
  5  4  1  0  0  0  0
 10  5  1  0  0  0  0
 11  5  1  0  0  0  0
 12 18  1  0  0  0  0
 13 19  1  0  0  0  0
 13 12  1  0  0  0  0
 14 13  2  0  0  0  0
 15 16  2  0  0  0  0
 15 14  1  0  0  0  0
 16 17  1  0  0  0  0
 17 12  2  0  0  0  0
 20 16  1  0  0  0  0
 21  1  1  0  0  0  0
 22 23  1  0  0  0  0
 23 24  1  0  0  0  0
 24 21  1  0  0  0  0
 24 25  2  0  0  0  0
 25 26  1  0  0  0  0
 27 25  1  0  0  0  0
 27 28  1  0  0  0  0
 29 27  2  0  0  0  0
 30 23  2  0  0  0  0
 30 29  1  0  0  0  0
M  END
>  <minimizedAffinity>
-4.81088066

$$$$

 OpenBabel03272501063D

 30 32  0  0  1  0  0  0  0  0999 V2000
   34.6150   29.6060   32.8920 C   0  0  2  0  0  0  0  0  0  0  0  0
   35.9780   29.2220   32.2470 C   0  0  2  0  0  0  0  0  0  0  0  0
   35.8100   29.8320   30.9180 C   0  0  0  0  0  0  0  0  0  0  0  0
   35.1290   31.0230   31.0890 O   0  0  0  0  0  0  0  0  0  0  0  0
   34.5650   31.0360   32.3270 C   0  0  0  0  0  0  0  0  0  0  0  0
   33.8670   28.9730   32.4260 H   0  0  0  0  0  0  0  0  0  0  0  0
   36.7430   29.8030   32.8400 H   0  0  0  0  0  0  0  0  0  0  0  0
   35.1460   29.1930   30.2840 H   0  0  0  0  0  0  0  0  0  0  0  0
   36.7720   29.9380   30.3810 H   0  0  0  0  0  0  0  0  0  0  0  0
   35.1920   31.6480   33.0250 H   0  0  0  0  0  0  0  0  0  0  0  0
   33.5270   31.4290   32.3690 H   0  0  0  0  0  0  0  0  0  0  0  0
   37.3050   25.8240   33.2230 C   0  0  0  0  0  0  0  0  0  0  0  0
   37.1020   27.2290   33.2520 C   0  0  0  0  0  0  0  0  0  0  0  0
   36.2270   27.7990   32.2920 C   0  0  0  0  0  0  0  0  0  0  0  0
   35.6240   26.9540   31.3850 N   0  0  0  0  0  0  0  0  0  0  0  0
   35.8460   25.6350   31.3950 C   0  0  0  0  0  0  0  0  0  0  0  0
   36.6750   25.0600   32.2990 N   0  0  0  0  0  0  0  0  0  0  0  0
   37.9640   25.3540   33.9380 H   0  0  0  0  0  0  0  0  0  0  0  0
   37.6000   27.8480   33.9850 H   0  0  0  0  0  0  0  0  0  0  0  0
   35.3030   25.0840   30.6180 H   0  0  0  0  0  0  0  0  0  0  0  0
   34.6900   29.6210   34.2490 O   0  0  0  0  0  0  0  0  0  0  0  0
   36.2870   31.8520   35.7200 Cl  0  0  0  0  0  0  0  0  0  0  0  0
   34.6310   31.3970   36.0420 C   0  0  0  0  0  0  0  0  0  0  0  0
   34.1810   30.3760   35.2370 C   0  0  0  0  0  0  0  0  0  0  0  0
   32.8500   29.9950   35.4790 C   0  0  0  0  0  0  0  0  0  0  0  0
   32.2710   29.2110   34.9710 H   0  0  0  0  0  0  0  0  0  0  0  0
   32.0600   30.5940   36.4440 C   0  0  0  0  0  0  0  0  0  0  0  0
   31.0490   30.3610   36.6840 H   0  0  0  0  0  0  0  0  0  0  0  0
   32.5910   31.6100   37.2050 C   0  0  0  0  0  3  0  0  0  0  0  0
   33.8900   32.0270   37.0130 C   0  0  0  0  0  3  0  0  0  0  0  0
  1  6  1  6  0  0  0
  1 21  1  0  0  0  0
  2 14  1  0  0  0  0
  2  7  1  1  0  0  0
  2  1  1  0  0  0  0
  3  4  1  0  0  0  0
  3  2  1  0  0  0  0
  4  5  1  0  0  0  0
  5 11  1  0  0  0  0
  5  1  1  0  0  0  0
  5 10  1  0  0  0  0
  8  3  1  0  0  0  0
  9  3  1  0  0  0  0
 12 13  1  0  0  0  0
 12 18  1  0  0  0  0
 13 19  1  0  0  0  0
 14 13  2  0  0  0  0
 15 16  2  0  0  0  0
 15 14  1  0  0  0  0
 16 17  1  0  0  0  0
 17 12  2  0  0  0  0
 20 16  1  0  0  0  0
 21 24  1  0  0  0  0
 22 23  1  0  0  0  0
 23 30  1  0  0  0  0
 24 25  1  0  0  0  0
 24 23  2  0  0  0  0
 25 27  2  0  0  0  0
 26 25  1  0  0  0  0
 27 28  1  0  0  0  0
 27 29  1  0  0  0  0
 30 29  2  0  0  0  0
M  END
>  <minimizedAffinity>
-4.78632593

$$$$

 OpenBabel03272501063D

 30 32  0  0  1  0  0  0  0  0999 V2000
   38.6650   23.6440   33.2530 C   0  0  2  0  0  0  0  0  0  0  0  0
   38.8690   24.7560   34.3210 C   0  0  2  0  0  0  0  0  0  0  0  0
   40.1400   25.3300   33.8480 C   0  0  0  0  0  0  0  0  0  0  0  0
   40.1140   25.3170   32.4650 O   0  0  0  0  0  0  0  0  0  0  0  0
   39.1200   24.4870   32.0500 C   0  0  0  0  0  0  0  0  0  0  0  0
   39.3830   22.8640   33.4820 H   0  0  0  0  0  0  0  0  0  0  0  0
   38.0280   25.4850   34.1330 H   0  0  0  0  0  0  0  0  0  0  0  0
   40.9920   24.6670   34.1400 H   0  0  0  0  0  0  0  0  0  0  0  0
   40.3370   26.3280   34.2850 H   0  0  0  0  0  0  0  0  0  0  0  0
   38.2200   25.0870   31.7560 H   0  0  0  0  0  0  0  0  0  0  0  0
   39.3820   23.8270   31.1960 H   0  0  0  0  0  0  0  0  0  0  0  0
   37.9230   24.1230   37.9220 C   0  0  0  0  0  0  0  0  0  0  0  0
   37.8750   24.6700   36.6120 C   0  0  0  0  0  0  0  0  0  0  0  0
   38.8420   24.2370   35.6700 C   0  0  0  0  0  0  0  0  0  0  0  0
   39.7740   23.3080   36.0800 N   0  0  0  0  0  0  0  0  0  0  0  0
   39.7810   22.8190   37.3250 C   0  0  0  0  0  0  0  0  0  0  0  0
   38.8710   23.2120   38.2490 N   0  0  0  0  0  0  0  0  0  0  0  0
   37.2030   24.4290   38.6660 H   0  0  0  0  0  0  0  0  0  0  0  0
   37.1230   25.3980   36.3410 H   0  0  0  0  0  0  0  0  0  0  0  0
   40.5760   22.0890   37.5150 H   0  0  0  0  0  0  0  0  0  0  0  0
   37.3550   23.2970   33.1360 O   0  0  0  0  0  0  0  0  0  0  0  0
   36.7090   21.3480   35.4760 Cl  0  0  0  0  0  0  0  0  0  0  0  0
   36.2470   21.1310   33.8050 C   0  0  0  0  0  0  0  0  0  0  0  0
   36.6680   22.1530   32.9860 C   0  0  0  0  0  0  0  0  0  0  0  0
   36.3050   21.9970   31.6380 C   0  0  0  0  0  0  0  0  0  0  0  0
   36.5250   22.6730   30.7990 H   0  0  0  0  0  0  0  0  0  0  0  0
   35.5880   20.9100   31.1720 C   0  0  0  0  0  0  0  0  0  0  0  0
   35.2780   20.7230   30.1700 H   0  0  0  0  0  0  0  0  0  0  0  0
   35.2050   19.9320   32.0620 C   0  0  0  0  0  3  0  0  0  0  0  0
   35.5320   20.0300   33.3970 C   0  0  0  0  0  3  0  0  0  0  0  0
  1  6  1  1  0  0  0
  1  2  1  0  0  0  0
  2  7  1  6  0  0  0
  2 14  1  0  0  0  0
  3  8  1  0  0  0  0
  3  9  1  0  0  0  0
  3  2  1  0  0  0  0
  4  3  1  0  0  0  0
  5  4  1  0  0  0  0
  5  1  1  0  0  0  0
 10  5  1  0  0  0  0
 11  5  1  0  0  0  0
 12 17  1  0  0  0  0
 12 18  1  0  0  0  0
 13 12  2  0  0  0  0
 14 15  2  0  0  0  0
 14 13  1  0  0  0  0
 15 16  1  0  0  0  0
 16 20  1  0  0  0  0
 16 17  2  0  0  0  0
 19 13  1  0  0  0  0
 21  1  1  0  0  0  0
 23 22  1  0  0  0  0
 24 21  1  0  0  0  0
 24 23  2  0  0  0  0
 25 24  1  0  0  0  0
 26 25  1  0  0  0  0
 27 25  2  0  0  0  0
 27 29  1  0  0  0  0
 28 27  1  0  0  0  0
 29 30  2  0  0  0  0
 30 23  1  0  0  0  0
M  END
>  <minimizedAffinity>
-4.7859292

$$$$

 OpenBabel03272501063D

 30 32  0  0  1  0  0  0  0  0999 V2000
   37.8460   23.8040   33.5300 C   0  0  2  0  0  0  0  0  0  0  0  0
   38.9620   22.9390   34.1830 C   0  0  2  0  0  0  0  0  0  0  0  0
   38.6570   21.6340   33.5740 C   0  0  0  0  0  0  0  0  0  0  0  0
   38.2580   21.8640   32.2710 O   0  0  0  0  0  0  0  0  0  0  0  0
   37.9580   23.1820   32.1280 C   0  0  0  0  0  0  0  0  0  0  0  0
   36.9180   23.5220   34.0140 H   0  0  0  0  0  0  0  0  0  0  0  0
   39.9230   23.3460   33.7520 H   0  0  0  0  0  0  0  0  0  0  0  0
   37.7760   21.1700   34.0830 H   0  0  0  0  0  0  0  0  0  0  0  0
   39.5000   20.9210   33.6670 H   0  0  0  0  0  0  0  0  0  0  0  0
   38.8110   23.7180   31.6370 H   0  0  0  0  0  0  0  0  0  0  0  0
   37.0400   23.3960   31.5390 H   0  0  0  0  0  0  0  0  0  0  0  0
   40.0090   22.8550   37.8100 C   0  0  0  0  0  0  0  0  0  0  0  0
   40.1120   22.7770   36.3960 C   0  0  0  0  0  0  0  0  0  0  0  0
   38.9440   23.0130   35.6260 C   0  0  0  0  0  0  0  0  0  0  0  0
   37.7760   23.3060   36.2970 N   0  0  0  0  0  0  0  0  0  0  0  0
   37.7270   23.3690   37.6320 C   0  0  0  0  0  0  0  0  0  0  0  0
   38.8240   23.1490   38.3950 N   0  0  0  0  0  0  0  0  0  0  0  0
   40.8770   22.6820   38.4290 H   0  0  0  0  0  0  0  0  0  0  0  0
   41.0530   22.5430   35.9190 H   0  0  0  0  0  0  0  0  0  0  0  0
   36.7350   23.6110   38.0330 H   0  0  0  0  0  0  0  0  0  0  0  0
   38.1850   25.1210   33.5060 O   0  0  0  0  0  0  0  0  0  0  0  0
   38.2900   26.7400   36.1640 Cl  0  0  0  0  0  0  0  0  0  0  0  0
   37.4120   27.1940   34.7220 C   0  0  0  0  0  0  0  0  0  0  0  0
   37.5450   26.2870   33.6960 C   0  0  0  0  0  0  0  0  0  0  0  0
   36.8470   26.6340   32.5270 C   0  0  0  0  0  0  0  0  0  0  0  0
   36.7980   26.0760   31.5810 H   0  0  0  0  0  0  0  0  0  0  0  0
   36.0900   27.7870   32.4170 C   0  0  0  0  0  0  0  0  0  0  0  0
   35.5360   28.1150   31.5680 H   0  0  0  0  0  0  0  0  0  0  0  0
   36.0120   28.6400   33.4940 C   0  0  0  0  0  3  0  0  0  0  0  0
   36.6760   28.3520   34.6660 C   0  0  0  0  0  3  0  0  0  0  0  0
  1  6  1  1  0  0  0
  1  2  1  0  0  0  0
  2  7  1  6  0  0  0
  2 14  1  0  0  0  0
  3  9  1  0  0  0  0
  3  8  1  0  0  0  0
  3  2  1  0  0  0  0
  4  3  1  0  0  0  0
  5  4  1  0  0  0  0
  5  1  1  0  0  0  0
 10  5  1  0  0  0  0
 11  5  1  0  0  0  0
 12 17  1  0  0  0  0
 12 18  1  0  0  0  0
 13 12  2  0  0  0  0
 14 15  2  0  0  0  0
 14 13  1  0  0  0  0
 15 16  1  0  0  0  0
 16 20  1  0  0  0  0
 16 17  2  0  0  0  0
 19 13  1  0  0  0  0
 21  1  1  0  0  0  0
 21 24  1  0  0  0  0
 23 22  1  0  0  0  0
 24 23  2  0  0  0  0
 25 24  1  0  0  0  0
 26 25  1  0  0  0  0
 27 25  2  0  0  0  0
 27 29  1  0  0  0  0
 28 27  1  0  0  0  0
 29 30  2  0  0  0  0
 30 23  1  0  0  0  0
M  END
>  <minimizedAffinity>
-4.77355385

$$$$

 OpenBabel03272501063D

 30 32  0  0  1  0  0  0  0  0999 V2000
   42.0360   23.1030   35.7700 C   0  0  2  0  0  0  0  0  0  0  0  0
   41.3760   22.5410   37.0620 C   0  0  2  0  0  0  0  0  0  0  0  0
   41.9260   21.1760   37.0530 C   0  0  0  0  0  0  0  0  0  0  0  0
   43.2290   21.2540   36.5950 O   0  0  0  0  0  0  0  0  0  0  0  0
   43.4160   22.4630   36.0010 C   0  0  0  0  0  0  0  0  0  0  0  0
   41.5220   22.6390   34.9360 H   0  0  0  0  0  0  0  0  0  0  0  0
   41.8430   23.1360   37.8990 H   0  0  0  0  0  0  0  0  0  0  0  0
   41.3810   20.5470   36.3060 H   0  0  0  0  0  0  0  0  0  0  0  0
   41.8250   20.6770   38.0360 H   0  0  0  0  0  0  0  0  0  0  0  0
   43.9460   23.1560   36.7050 H   0  0  0  0  0  0  0  0  0  0  0  0
   43.9910   22.4380   35.0510 H   0  0  0  0  0  0  0  0  0  0  0  0
   37.8160   23.3280   38.0480 C   0  0  0  0  0  0  0  0  0  0  0  0
   39.2320   23.2480   38.1330 C   0  0  0  0  0  0  0  0  0  0  0  0
   39.9360   22.6710   37.0460 C   0  0  0  0  0  0  0  0  0  0  0  0
   39.2050   22.2200   35.9670 N   0  0  0  0  0  0  0  0  0  0  0  0
   37.8720   22.3170   35.9310 C   0  0  0  0  0  0  0  0  0  0  0  0
   37.1690   22.8630   36.9520 N   0  0  0  0  0  0  0  0  0  0  0  0
   37.2460   23.7610   38.8560 H   0  0  0  0  0  0  0  0  0  0  0  0
   39.7580   23.6160   39.0030 H   0  0  0  0  0  0  0  0  0  0  0  0
   37.4190   21.9200   35.0140 H   0  0  0  0  0  0  0  0  0  0  0  0
   42.1190   24.4600   35.8010 O   0  0  0  0  0  0  0  0  0  0  0  0
   39.3000   25.7180   35.3910 Cl  0  0  0  0  0  0  0  0  0  0  0  0
   40.7640   26.1940   34.5640 C   0  0  0  0  0  0  0  0  0  0  0  0
   41.8670   25.4630   34.9430 C   0  0  0  0  0  0  0  0  0  0  0  0
   43.0550   25.8310   34.2900 C   0  0  0  0  0  0  0  0  0  0  0  0
   44.0570   25.3990   34.4210 H   0  0  0  0  0  0  0  0  0  0  0  0
   43.1120   26.8390   33.3450 C   0  0  0  0  0  0  0  0  0  0  0  0
   43.9700   27.1730   32.8090 H   0  0  0  0  0  0  0  0  0  0  0  0
   41.9600   27.5200   33.0240 C   0  0  0  0  0  3  0  0  0  0  0  0
   40.7650   27.2040   33.6330 C   0  0  0  0  0  3  0  0  0  0  0  0
  1  6  1  6  0  0  0
  1 21  1  0  0  0  0
  1  5  1  0  0  0  0
  1  2  1  0  0  0  0
  2  7  1  1  0  0  0
  3  2  1  0  0  0  0
  3  9  1  0  0  0  0
  4  3  1  0  0  0  0
  5  4  1  0  0  0  0
  5 10  1  0  0  0  0
  8  3  1  0  0  0  0
 11  5  1  0  0  0  0
 12 13  1  0  0  0  0
 12 18  1  0  0  0  0
 13 19  1  0  0  0  0
 14  2  1  0  0  0  0
 14 13  2  0  0  0  0
 15 14  1  0  0  0  0
 16 15  2  0  0  0  0
 16 17  1  0  0  0  0
 17 12  2  0  0  0  0
 20 16  1  0  0  0  0
 23 24  1  0  0  0  0
 23 22  1  0  0  0  0
 24 21  1  0  0  0  0
 25 26  1  0  0  0  0
 25 24  2  0  0  0  0
 27 25  1  0  0  0  0
 28 27  1  0  0  0  0
 29 27  2  0  0  0  0
 29 30  1  0  0  0  0
 30 23  2  0  0  0  0
M  END
>  <minimizedAffinity>
-4.74302435

$$$$
