
 OpenBabel03272509393D

 35 37  0  0  1  0  0  0  0  0999 V2000
   37.1330   30.9610   49.0160 C   0  0  0  0  0  0  0  0  0  0  0  0
   36.9110   31.9320   49.9980 C   0  0  0  0  0  0  0  0  0  0  0  0
   37.5510   33.1650   49.9820 C   0  0  0  0  0  0  0  0  0  0  0  0
   38.4490   33.4550   48.9540 C   0  0  0  0  0  0  0  0  0  0  0  0
   38.6560   32.4990   48.0040 C   0  0  0  0  0  0  0  0  0  0  0  0
   38.0080   31.2820   48.0420 C   0  0  0  0  0  0  0  0  0  0  0  0
   36.2050   31.6940   50.7970 H   0  0  0  0  0  0  0  0  0  0  0  0
   37.2980   33.8410   50.7990 H   0  0  0  0  0  0  0  0  0  0  0  0
   38.9310   34.4230   48.9690 H   0  0  0  0  0  0  0  0  0  0  0  0
   39.3670   32.8070   47.2460 H   0  0  0  0  0  0  0  0  0  0  0  0
   36.4160   29.7060   49.1210 C   0  0  1  0  0  3  0  0  0  0  0  0
   36.9240   28.8710   49.9650 O   0  0  0  0  0  1  0  0  0  0  0  0
   33.6510   30.1690   46.8260 C   0  0  0  0  0  0  0  0  0  0  0  0
   32.9820   28.9560   46.8440 C   0  0  0  0  0  0  0  0  0  0  0  0
   33.4870   27.9500   47.6630 C   0  0  0  0  0  0  0  0  0  0  0  0
   34.6010   28.1800   48.4090 N   0  0  0  0  0  0  0  0  0  0  0  0
   35.2170   29.3560   48.3670 C   0  0  0  0  0  0  0  0  0  0  0  0
   34.7290   30.3390   47.5700 N   0  0  0  0  0  0  0  0  0  0  0  0
   33.2070   30.9070   46.1700 H   0  0  0  0  0  0  0  0  0  0  0  0
   32.0930   28.6820   46.2880 H   0  0  0  0  0  0  0  0  0  0  0  0
   33.0410   26.9620   47.7520 H   0  0  0  0  0  0  0  0  0  0  0  0
   38.3370   30.3770   46.9650 C   0  0  0  0  0  3  0  0  0  0  0  0
   38.8450   30.6860   45.7910 C   0  0  0  0  0  3  0  0  0  0  0  0
   39.2360   29.8850   44.6220 C   0  0  0  0  0  0  0  0  0  0  0  0
   38.9890   28.8160   44.8120 H   0  0  0  0  0  0  0  0  0  0  0  0
   40.3090   30.0210   44.4140 H   0  0  0  0  0  0  0  0  0  0  0  0
   39.8110   28.4930   42.0140 Cl  0  0  0  0  0  0  0  0  0  0  0  0
   38.6150   29.7830   42.1670 C   0  0  0  0  0  0  0  0  0  0  0  0
   38.4710   30.3170   43.4280 C   0  0  0  0  0  0  0  0  0  0  0  0
   37.5240   31.3410   43.5490 C   0  0  0  0  0  0  0  0  0  0  0  0
   37.3210   31.8430   44.5050 H   0  0  0  0  0  0  0  0  0  0  0  0
   36.8080   31.7490   42.4430 C   0  0  0  0  0  0  0  0  0  0  0  0
   36.0780   32.5500   42.5780 H   0  0  0  0  0  0  0  0  0  0  0  0
   36.9930   31.1800   41.2120 C   0  0  0  0  0  3  0  0  0  0  0  0
   37.9220   30.1600   41.0360 C   0  0  0  0  0  3  0  0  0  0  0  0
  1 11  1  0  0  0  0
  1  2  1  0  0  0  0
  2  7  1  0  0  0  0
  3  2  2  0  0  0  0
  3  8  1  0  0  0  0
  4  9  1  0  0  0  0
  4  3  1  0  0  0  0
  5  6  1  0  0  0  0
  5  4  2  0  0  0  0
  6  1  2  0  0  0  0
 10  5  1  0  0  0  0
 11 12  1  1  0  0  0
 13 14  2  0  0  0  0
 13 18  1  0  0  0  0
 14 15  1  0  0  0  0
 15 21  1  0  0  0  0
 15 16  2  0  0  0  0
 17 16  1  0  0  0  0
 17 11  1  0  0  0  0
 18 17  2  0  0  0  0
 19 13  1  0  0  0  0
 20 14  1  0  0  0  0
 22  6  1  0  0  0  0
 23 22  2  0  0  0  0
 24 25  1  0  0  0  0
 24 23  1  0  0  0  0
 26 24  1  0  0  0  0
 27 28  1  0  0  0  0
 28 29  1  0  0  0  0
 29 30  2  0  0  0  0
 29 24  1  0  0  0  0
 30 31  1  0  0  0  0
 32 33  1  0  0  0  0
 32 30  1  0  0  0  0
 34 32  2  0  0  0  0
 35 34  1  0  0  0  0
 35 28  2  0  0  0  0
M  END
>  <minimizedAffinity>
-5.76532984

>  <minimizedRMSD>
0.0467960909

$$$$
