
 OpenBabel03272509393D

 35 37  0  0  1  0  0  0  0  0999 V2000
   36.9410   30.9050   49.1060 C   0  0  0  0  0  0  0  0  0  0  0  0
   36.6450   31.8120   50.1290 C   0  0  0  0  0  0  0  0  0  0  0  0
   37.2420   33.0650   50.2070 C   0  0  0  0  0  0  0  0  0  0  0  0
   38.1700   33.4410   49.2360 C   0  0  0  0  0  0  0  0  0  0  0  0
   38.4480   32.5460   48.2440 C   0  0  0  0  0  0  0  0  0  0  0  0
   37.8420   31.3090   48.1890 C   0  0  0  0  0  0  0  0  0  0  0  0
   35.9160   31.5070   50.8840 H   0  0  0  0  0  0  0  0  0  0  0  0
   36.9320   33.6850   51.0490 H   0  0  0  0  0  0  0  0  0  0  0  0
   38.6160   34.4220   49.3230 H   0  0  0  0  0  0  0  0  0  0  0  0
   39.1780   32.9200   47.5350 H   0  0  0  0  0  0  0  0  0  0  0  0
   36.2650   29.6230   49.1130 C   0  0  1  0  0  3  0  0  0  0  0  0
   36.8020   28.7420   49.8880 O   0  0  0  0  0  1  0  0  0  0  0  0
   33.5470   30.1420   46.7740 C   0  0  0  0  0  0  0  0  0  0  0  0
   32.8640   28.9370   46.7670 C   0  0  0  0  0  0  0  0  0  0  0  0
   33.3430   27.9160   47.5840 C   0  0  0  0  0  0  0  0  0  0  0  0
   34.4460   28.1250   48.3520 N   0  0  0  0  0  0  0  0  0  0  0  0
   35.0750   29.2940   48.3340 C   0  0  0  0  0  0  0  0  0  0  0  0
   34.6130   30.2910   47.5390 N   0  0  0  0  0  0  0  0  0  0  0  0
   33.1230   30.8920   46.1190 H   0  0  0  0  0  0  0  0  0  0  0  0
   31.9820   28.6780   46.1930 H   0  0  0  0  0  0  0  0  0  0  0  0
   32.8850   26.9320   47.6550 H   0  0  0  0  0  0  0  0  0  0  0  0
   38.2470   30.4760   47.0790 C   0  0  0  0  0  3  0  0  0  0  0  0
   38.9170   30.8450   46.0080 C   0  0  0  0  0  3  0  0  0  0  0  0
   39.4000   30.1200   44.8240 C   0  0  0  0  0  0  0  0  0  0  0  0
   38.8630   29.1480   44.7480 H   0  0  0  0  0  0  0  0  0  0  0  0
   40.4900   29.9750   44.8910 H   0  0  0  0  0  0  0  0  0  0  0  0
   40.5460   32.8980   44.6180 Cl  0  0  0  0  0  0  0  0  0  0  0  0
   39.5540   32.1730   43.3480 C   0  0  0  0  0  0  0  0  0  0  0  0
   39.1060   30.8950   43.5960 C   0  0  0  0  0  0  0  0  0  0  0  0
   38.3210   30.3230   42.5900 C   0  0  0  0  0  0  0  0  0  0  0  0
   37.9070   29.3070   42.6740 H   0  0  0  0  0  0  0  0  0  0  0  0
   38.0420   31.0360   41.4430 C   0  0  0  0  0  0  0  0  0  0  0  0
   37.4260   30.5560   40.6810 H   0  0  0  0  0  0  0  0  0  0  0  0
   38.5170   32.3070   41.2510 C   0  0  0  0  0  3  0  0  0  0  0  0
   39.3030   32.9240   42.2190 C   0  0  0  0  0  3  0  0  0  0  0  0
  1 11  1  0  0  0  0
  1  2  1  0  0  0  0
  2  3  2  0  0  0  0
  2  7  1  0  0  0  0
  3  8  1  0  0  0  0
  4  9  1  0  0  0  0
  4  3  1  0  0  0  0
  5  4  2  0  0  0  0
  6  5  1  0  0  0  0
  6  1  2  0  0  0  0
 10  5  1  0  0  0  0
 11 12  1  1  0  0  0
 13 18  1  0  0  0  0
 14 13  2  0  0  0  0
 14 15  1  0  0  0  0
 15 21  1  0  0  0  0
 15 16  2  0  0  0  0
 17 16  1  0  0  0  0
 17 11  1  0  0  0  0
 18 17  2  0  0  0  0
 19 13  1  0  0  0  0
 20 14  1  0  0  0  0
 22  6  1  0  0  0  0
 23 22  2  0  0  0  0
 24 26  1  0  0  0  0
 24 23  1  0  0  0  0
 25 24  1  0  0  0  0
 28 29  1  0  0  0  0
 28 27  1  0  0  0  0
 29 24  1  0  0  0  0
 30 31  1  0  0  0  0
 30 29  2  0  0  0  0
 32 30  1  0  0  0  0
 33 32  1  0  0  0  0
 34 32  2  0  0  0  0
 34 35  1  0  0  0  0
 35 28  2  0  0  0  0
M  END
>  <minimizedAffinity>
-6.15733433

>  <minimizedRMSD>
1.16505349

$$$$
