
 OpenBabel03262520463D

 34 36  0  0  1  0  0  0  0  0999 V2000
   38.5210   32.3170   47.0200 C   0  0  1  0  0  0  0  0  0  0  0  0
   39.7680   33.0570   46.5500 C   0  0  0  0  0  0  0  0  0  0  0  0
   39.7410   31.5860   46.6340 C   0  0  2  0  0  0  0  0  0  0  0  0
   37.6340   32.2830   46.3510 H   0  0  0  0  0  0  0  0  0  0  0  0
   39.7370   33.4820   45.5330 H   0  0  0  0  0  0  0  0  0  0  0  0
   40.3310   33.6510   47.2820 H   0  0  0  0  0  0  0  0  0  0  0  0
   40.3410   31.1370   47.4570 H   0  0  0  0  0  0  0  0  0  0  0  0
   38.1900   32.5180   48.4780 C   0  0  0  0  0  0  0  0  0  0  0  0
   39.1800   32.6240   49.0110 H   0  0  0  0  0  0  0  0  0  0  0  0
   37.6460   33.4490   48.6600 H   0  0  0  0  0  0  0  0  0  0  0  0
   37.3880   29.8140   50.9350 C   0  0  0  0  0  0  0  0  0  0  0  0
   37.9650   30.9690   50.3330 C   0  0  0  0  0  0  0  0  0  0  0  0
   37.5660   31.3140   49.0620 C   0  0  0  0  0  0  0  0  0  0  0  0
   36.6480   30.5480   48.4390 N   0  0  0  0  0  0  0  0  0  0  0  0
   36.1140   29.4640   49.0180 C   0  0  0  0  0  0  0  0  0  0  0  0
   36.4910   29.1160   50.2520 N   0  0  0  0  0  0  0  0  0  0  0  0
   37.6880   29.5210   51.9390 H   0  0  0  0  0  0  0  0  0  0  0  0
   38.6950   31.5020   50.9400 H   0  0  0  0  0  0  0  0  0  0  0  0
   35.3810   28.9460   48.3830 H   0  0  0  0  0  0  0  0  0  0  0  0
   39.6060   30.7190   45.4060 C   0  0  0  0  0  0  0  0  0  0  0  0
   38.6410   30.8430   44.9110 H   0  0  0  0  0  0  0  0  0  0  0  0
   39.6980   29.6610   45.7160 H   0  0  0  0  0  0  0  0  0  0  0  0
   40.6940   30.9840   44.3920 C   0  0  0  0  0  0  0  0  0  0  0  0
   41.3060   31.8260   44.8200 H   0  0  0  0  0  0  0  0  0  0  0  0
   41.3770   30.1240   44.2880 H   0  0  0  0  0  0  0  0  0  0  0  0
   41.5390   29.2770   42.0820 Cl  0  0  0  0  0  0  0  0  0  0  0  0
   40.4930   30.6800   42.0000 C   0  0  0  0  0  0  0  0  0  0  0  0
   40.1290   31.4410   43.1110 C   0  0  0  0  0  0  0  0  0  0  0  0
   39.3030   32.5170   42.9140 C   0  0  0  0  0  0  0  0  0  0  0  0
   39.0630   33.0630   43.8200 H   0  0  0  0  0  0  0  0  0  0  0  0
   38.8240   32.8700   41.6740 C   0  0  0  0  0  0  0  0  0  0  0  0
   38.1720   33.7430   41.6230 H   0  0  0  0  0  0  0  0  0  0  0  0
   39.1870   32.1120   40.5860 C   0  0  0  0  0  0  0  0  0  0  0  0
   40.0200   31.0200   40.7540 C   0  0  0  0  0  0  0  0  0  0  0  0
  1  4  1  6  0  0  0
  1  8  1  0  0  0  0
  2  3  1  0  0  0  0
  2  1  1  0  0  0  0
  2  6  1  0  0  0  0
  3  1  1  0  0  0  0
  3  7  1  1  0  0  0
  5  2  1  0  0  0  0
  8 10  1  0  0  0  0
  8  9  1  0  0  0  0
  8 13  1  0  0  0  0
 11 17  1  0  0  0  0
 12 11  1  0  0  0  0
 12 18  1  0  0  0  0
 13 12  2  0  0  0  0
 14 15  2  0  0  0  0
 14 13  1  0  0  0  0
 15 16  1  0  0  0  0
 16 11  2  0  0  0  0
 19 15  1  0  0  0  0
 20 22  1  0  0  0  0
 20  3  1  0  0  0  0
 21 20  1  0  0  0  0
 23 24  1  0  0  0  0
 23 20  1  0  0  0  0
 25 23  1  0  0  0  0
 27 26  1  0  0  0  0
 27 28  1  0  0  0  0
 28 23  1  0  0  0  0
 29 28  2  0  0  0  0
 29 30  1  0  0  0  0
 31 29  1  0  0  0  0
 32 31  1  0  0  0  0
 33 34  1  0  0  0  0
 33 31  2  0  0  0  0
 34 27  2  0  0  0  0
M  END
>  <minimizedAffinity>
-5.36523628

>  <minimizedRMSD>
1.66688073

$$$$
