
 OpenBabel03272509403D

 35 37  0  0  1  0  0  0  0  0999 V2000
   37.0610   30.9630   49.0570 C   0  0  0  0  0  0  0  0  0  0  0  0
   36.7770   31.8950   50.0620 C   0  0  0  0  0  0  0  0  0  0  0  0
   37.3740   33.1490   50.1030 C   0  0  0  0  0  0  0  0  0  0  0  0
   38.2920   33.5010   49.1120 C   0  0  0  0  0  0  0  0  0  0  0  0
   38.5590   32.5830   48.1400 C   0  0  0  0  0  0  0  0  0  0  0  0
   37.9520   31.3440   48.1210 C   0  0  0  0  0  0  0  0  0  0  0  0
   36.0560   31.6090   50.8310 H   0  0  0  0  0  0  0  0  0  0  0  0
   37.0740   33.7900   50.9320 H   0  0  0  0  0  0  0  0  0  0  0  0
   38.7390   34.4840   49.1710 H   0  0  0  0  0  0  0  0  0  0  0  0
   39.2810   32.9380   47.4130 H   0  0  0  0  0  0  0  0  0  0  0  0
   36.3850   29.6830   49.1030 C   0  0  2  0  0  3  0  0  0  0  0  0
   36.9350   28.8170   49.8880 O   0  0  0  0  0  1  0  0  0  0  0  0
   33.6190   30.1590   46.8120 C   0  0  0  0  0  0  0  0  0  0  0  0
   32.9440   28.9490   46.8310 C   0  0  0  0  0  0  0  0  0  0  0  0
   33.4460   27.9400   47.6490 C   0  0  0  0  0  0  0  0  0  0  0  0
   34.5620   28.1650   48.3930 N   0  0  0  0  0  0  0  0  0  0  0  0
   35.1830   29.3380   48.3500 C   0  0  0  0  0  0  0  0  0  0  0  0
   34.6990   30.3230   47.5550 N   0  0  0  0  0  0  0  0  0  0  0  0
   33.1770   30.8990   46.1580 H   0  0  0  0  0  0  0  0  0  0  0  0
   32.0530   28.6790   46.2770 H   0  0  0  0  0  0  0  0  0  0  0  0
   32.9950   26.9540   47.7390 H   0  0  0  0  0  0  0  0  0  0  0  0
   38.3450   30.4850   47.0280 C   0  0  0  0  0  3  0  0  0  0  0  0
   39.0040   30.8270   45.9410 C   0  0  0  0  0  3  0  0  0  0  0  0
   39.4740   30.0740   44.7700 C   0  0  0  0  0  0  0  0  0  0  0  0
   39.6950   29.0260   45.0750 H   0  0  0  0  0  0  0  0  0  0  0  0
   40.3620   30.5640   44.3390 H   0  0  0  0  0  0  0  0  0  0  0  0
   39.1150   27.4970   43.2530 Cl  0  0  0  0  0  0  0  0  0  0  0  0
   38.1250   28.9290   42.9560 C   0  0  0  0  0  0  0  0  0  0  0  0
   38.4160   30.0280   43.7340 C   0  0  0  0  0  0  0  0  0  0  0  0
   37.6310   31.1630   43.4980 C   0  0  0  0  0  0  0  0  0  0  0  0
   37.7700   32.0990   44.0570 H   0  0  0  0  0  0  0  0  0  0  0  0
   36.6440   31.1290   42.5360 C   0  0  0  0  0  0  0  0  0  0  0  0
   36.0530   32.0340   42.3810 H   0  0  0  0  0  0  0  0  0  0  0  0
   36.4000   30.0060   41.7910 C   0  0  0  0  0  3  0  0  0  0  0  0
   37.1490   28.8500   41.9860 C   0  0  0  0  0  3  0  0  0  0  0  0
  1 11  1  0  0  0  0
  1  2  1  0  0  0  0
  2  3  2  0  0  0  0
  2  7  1  0  0  0  0
  3  8  1  0  0  0  0
  4  9  1  0  0  0  0
  4  3  1  0  0  0  0
  5  4  2  0  0  0  0
  6  5  1  0  0  0  0
  6  1  2  0  0  0  0
 10  5  1  0  0  0  0
 11 12  1  6  0  0  0
 13 14  2  0  0  0  0
 13 18  1  0  0  0  0
 14 15  1  0  0  0  0
 15 21  1  0  0  0  0
 15 16  2  0  0  0  0
 17 16  1  0  0  0  0
 17 11  1  0  0  0  0
 18 17  2  0  0  0  0
 19 13  1  0  0  0  0
 20 14  1  0  0  0  0
 22  6  1  0  0  0  0
 23 22  2  0  0  0  0
 24 25  1  0  0  0  0
 24 23  1  0  0  0  0
 26 24  1  0  0  0  0
 28 27  1  0  0  0  0
 28 29  1  0  0  0  0
 29 24  1  0  0  0  0
 30 29  2  0  0  0  0
 30 31  1  0  0  0  0
 32 30  1  0  0  0  0
 33 32  1  0  0  0  0
 34 35  1  0  0  0  0
 34 32  2  0  0  0  0
 35 28  2  0  0  0  0
M  END
>  <minimizedAffinity>
-5.88221312

>  <minimizedRMSD>
0.576529562

$$$$
