
 OpenBabel03272509403D

 35 37  0  0  1  0  0  0  0  0999 V2000
   37.0530   30.9580   49.0610 C   0  0  0  0  0  0  0  0  0  0  0  0
   36.7990   31.8940   50.0690 C   0  0  0  0  0  0  0  0  0  0  0  0
   37.4120   33.1400   50.0990 C   0  0  0  0  0  0  0  0  0  0  0  0
   38.3160   33.4810   49.0920 C   0  0  0  0  0  0  0  0  0  0  0  0
   38.5550   32.5580   48.1150 C   0  0  0  0  0  0  0  0  0  0  0  0
   37.9320   31.3270   48.1080 C   0  0  0  0  0  0  0  0  0  0  0  0
   36.0880   31.6160   50.8520 H   0  0  0  0  0  0  0  0  0  0  0  0
   37.1340   33.7850   50.9330 H   0  0  0  0  0  0  0  0  0  0  0  0
   38.7760   34.4580   49.1420 H   0  0  0  0  0  0  0  0  0  0  0  0
   39.2670   32.9050   47.3760 H   0  0  0  0  0  0  0  0  0  0  0  0
   36.3630   29.6850   49.1190 C   0  0  1  0  0  3  0  0  0  0  0  0
   36.8910   28.8280   49.9270 O   0  0  0  0  0  1  0  0  0  0  0  0
   33.6120   30.1640   46.8100 C   0  0  0  0  0  0  0  0  0  0  0  0
   32.9410   28.9520   46.8170 C   0  0  0  0  0  0  0  0  0  0  0  0
   33.4400   27.9410   47.6340 C   0  0  0  0  0  0  0  0  0  0  0  0
   34.5500   28.1650   48.3880 N   0  0  0  0  0  0  0  0  0  0  0  0
   35.1680   29.3400   48.3550 C   0  0  0  0  0  0  0  0  0  0  0  0
   34.6860   30.3280   47.5610 N   0  0  0  0  0  0  0  0  0  0  0  0
   33.1730   30.9060   46.1550 H   0  0  0  0  0  0  0  0  0  0  0  0
   32.0550   28.6810   46.2550 H   0  0  0  0  0  0  0  0  0  0  0  0
   32.9920   26.9530   47.7160 H   0  0  0  0  0  0  0  0  0  0  0  0
   38.2950   30.4630   47.0090 C   0  0  0  0  0  3  0  0  0  0  0  0
   38.9850   30.7850   45.9350 C   0  0  0  0  0  3  0  0  0  0  0  0
   39.4310   30.0230   44.7600 C   0  0  0  0  0  0  0  0  0  0  0  0
   38.9510   29.0190   44.7720 H   0  0  0  0  0  0  0  0  0  0  0  0
   40.5300   29.9440   44.7580 H   0  0  0  0  0  0  0  0  0  0  0  0
   36.8140   29.1910   43.5220 Cl  0  0  0  0  0  0  0  0  0  0  0  0
   37.8450   30.4470   42.8300 C   0  0  0  0  0  0  0  0  0  0  0  0
   39.0100   30.7090   43.5170 C   0  0  0  0  0  0  0  0  0  0  0  0
   39.8270   31.7030   42.9660 C   0  0  0  0  0  0  0  0  0  0  0  0
   40.7810   32.0000   43.4250 H   0  0  0  0  0  0  0  0  0  0  0  0
   39.4440   32.3480   41.8090 C   0  0  0  0  0  0  0  0  0  0  0  0
   40.1070   33.1180   41.4120 H   0  0  0  0  0  0  0  0  0  0  0  0
   38.2720   32.0450   41.1690 C   0  0  0  0  0  3  0  0  0  0  0  0
   37.4220   31.0650   41.6720 C   0  0  0  0  0  3  0  0  0  0  0  0
  1 11  1  0  0  0  0
  1  2  1  0  0  0  0
  2  3  2  0  0  0  0
  2  7  1  0  0  0  0
  3  8  1  0  0  0  0
  4  9  1  0  0  0  0
  4  3  1  0  0  0  0
  5  4  2  0  0  0  0
  6  5  1  0  0  0  0
  6  1  2  0  0  0  0
 10  5  1  0  0  0  0
 11 12  1  1  0  0  0
 13 14  2  0  0  0  0
 13 18  1  0  0  0  0
 14 15  1  0  0  0  0
 15 21  1  0  0  0  0
 15 16  2  0  0  0  0
 17 16  1  0  0  0  0
 17 11  1  0  0  0  0
 18 17  2  0  0  0  0
 19 13  1  0  0  0  0
 20 14  1  0  0  0  0
 22  6  1  0  0  0  0
 23 22  2  0  0  0  0
 24 25  1  0  0  0  0
 24 23  1  0  0  0  0
 26 24  1  0  0  0  0
 28 29  1  0  0  0  0
 28 27  1  0  0  0  0
 29 24  1  0  0  0  0
 30 31  1  0  0  0  0
 30 29  2  0  0  0  0
 32 30  1  0  0  0  0
 33 32  1  0  0  0  0
 34 35  1  0  0  0  0
 34 32  2  0  0  0  0
 35 28  2  0  0  0  0
M  END
>  <minimizedAffinity>
-5.98188925

>  <minimizedRMSD>
0.911222398

$$$$
