REMARK  Name = 
REMARK  7 active torsions:
REMARK  status: ('A' for Active; 'I' for Inactive)
REMARK    1  A    between atoms: C_3  and  C_9
REMARK    2  A    between atoms: C_5  and  O_14
REMARK    3  A    between atoms: O_14  and  C_15
REMARK    4  A    between atoms: C_15  and  C_16
REMARK    5  A    between atoms: C_16  and  C_17
REMARK    6  A    between atoms: C_21  and  C_23
REMARK    7  A    between atoms: C_23  and  C_40
REMARK                            x       y       z     vdW  Elec       q    Type
REMARK                         _______ _______ _______ _____ _____    ______ ____
ROOT
ATOM      1  C   UNL     1      34.449  28.644  48.171  0.00  0.00    +0.000 C 
ATOM      2  H   UNL     1      33.972  29.634  48.181  0.00  0.00    +0.000 HD
ATOM      3  H   UNL     1      35.313  28.682  47.470  0.00  0.00    +0.000 HD
ENDROOT
BRANCH   1   4
ATOM      4  C   UNL     1      33.563  27.528  47.698  0.00  0.00    +0.000 C 
ATOM      5  H   UNL     1      33.786  27.243  46.642  0.00  0.00    +0.000 HD
ATOM      6  H   UNL     1      33.728  26.642  48.314  0.00  0.00    +0.000 HD
BRANCH   4   7
ATOM      7  C   UNL     1      32.113  27.894  47.733  0.00  0.00    +0.000 A 
ATOM      8  C   UNL     1      31.378  27.470  48.848  0.00  0.00    +0.000 A 
ATOM      9  C   UNL     1      30.036  27.766  48.960  0.00  0.00    +0.000 A 
ATOM     10  N   UNL     1      29.435  28.458  48.004  0.00  0.00    +0.000 NA
ATOM     11  C   UNL     1      30.172  28.861  46.926  0.00  0.00    +0.000 A 
ATOM     12  N   UNL     1      31.472  28.593  46.784  0.00  0.00    +0.000 NA
ATOM     13  H   UNL     1      31.849  26.904  49.641  0.00  0.00    +0.000 HD
ATOM     14  H   UNL     1      29.484  27.420  49.847  0.00  0.00    +0.000 HD
BRANCH  11  15
ATOM     15  C   UNL     1      29.444  29.635  45.882  0.00  0.00    +0.000 C 
ATOM     16  H   UNL     1      29.922  29.356  44.920  0.00  0.00    +0.000 HD
ATOM     17  H   UNL     1      28.411  29.225  45.820  0.00  0.00    +0.000 HD
BRANCH  15  20
ATOM     18 CL   UNL     1      32.116  30.844  46.724  0.00  0.00    +0.000 Cl
ATOM     19  C   UNL     1      30.639  31.716  46.494  0.00  0.00    +0.000 A 
ATOM     20  C   UNL     1      29.469  31.093  46.112  0.00  0.00    +0.000 A 
ATOM     21  C   UNL     1      28.264  31.779  45.921  0.00  0.00    +0.000 A 
ATOM     22  H   UNL     1      27.374  31.244  45.621  0.00  0.00    +0.000 HD
ATOM     23  C   UNL     1      28.244  33.163  46.128  0.00  0.00    +0.000 A 
ATOM     24  H   UNL     1      27.281  33.630  45.962  0.00  0.00    +0.000 HD
ATOM     25  C   UNL     1      29.404  33.834  46.515  0.00  0.00    +0.000 A 
ATOM     26  C   UNL     1      30.534  33.064  46.674  0.00  0.00    +0.000 A 
ENDBRANCH  15  20
ENDBRANCH  11  15
ENDBRANCH   4   7
ENDBRANCH   1   4
BRANCH   1  27
ATOM     27  O   UNL     1      35.001  28.350  49.450  0.00  0.00    +0.000 OA
BRANCH  27  32
ATOM     28  C   UNL     1      37.334  30.183  51.523  0.00  0.00    +0.000 A 
ATOM     29  C   UNL     1      38.056  30.865  50.520  0.00  0.00    +0.000 A 
ATOM     30  C   UNL     1      37.703  30.658  49.202  0.00  0.00    +0.000 A 
ATOM     31  N   UNL     1      36.662  29.790  48.993  0.00  0.00    +0.000 NA
ATOM     32  C   UNL     1      35.984  29.149  49.939  0.00  0.00    +0.000 A 
ATOM     33  N   UNL     1      36.338  29.360  51.227  0.00  0.00    +0.000 NA
ATOM     34  H   UNL     1      37.655  30.384  52.536  0.00  0.00    +0.000 HD
ATOM     35  H   UNL     1      38.872  31.547  50.661  0.00  0.00    +0.000 HD
BRANCH  30  38
ATOM     36  F   UNL     1      38.943  33.261  49.012  0.00  0.00    +0.000 F 
ATOM     37  C   UNL     1      38.913  32.476  47.945  0.00  0.00    +0.000 A 
ATOM     38  C   UNL     1      38.334  31.272  48.052  0.00  0.00    +0.000 A 
ATOM     39  C   UNL     1      38.354  30.522  46.873  0.00  0.00    +0.000 A 
ATOM     40  C   UNL     1      38.916  30.979  45.712  0.00  0.00    +0.000 A 
ATOM     41  C   UNL     1      39.499  32.227  45.657  0.00  0.00    +0.000 A 
ATOM     42  C   UNL     1      39.489  32.974  46.800  0.00  0.00    +0.000 A 
ATOM     43  H   UNL     1      37.927  29.518  46.779  0.00  0.00    +0.000 HD
ATOM     44  H   UNL     1      38.938  30.406  44.790  0.00  0.00    +0.000 HD
ATOM     45  H   UNL     1      39.950  32.608  44.748  0.00  0.00    +0.000 HD
ATOM     46  H   UNL     1      39.943  33.957  46.774  0.00  0.00    +0.000 HD
ENDBRANCH  30  38
ENDBRANCH  27  32
ENDBRANCH   1  27
TORSDOF 7
