
 OpenBabel03272509573D

 46 49  0  0  0  0  0  0  0  0999 V2000
   34.5120   28.5740   48.2550 C   0  0  0  0  0  0  0  0  0  0  0  0
   34.1550   29.4320   47.6680 H   0  0  0  0  0  0  0  0  0  0  0  0
   35.5560   28.3490   47.9410 H   0  0  0  0  0  0  0  0  0  0  0  0
   33.7240   27.3110   48.0570 C   0  0  0  0  0  0  0  0  0  0  0  0
   34.1360   26.6930   47.2240 H   0  0  0  0  0  0  0  0  0  0  0  0
   33.7700   26.7040   48.9630 H   0  0  0  0  0  0  0  0  0  0  0  0
   32.2940   27.5770   47.7100 C   0  0  0  0  0  0  0  0  0  0  0  0
   31.3640   27.5120   48.7570 C   0  0  0  0  0  0  0  0  0  0  0  0
   30.0250   27.7450   48.5230 C   0  0  0  0  0  0  0  0  0  0  0  0
   29.6130   28.0330   47.2980 N   0  0  0  0  0  0  0  0  0  0  0  0
   30.5380   28.0900   46.2930 C   0  0  0  0  0  0  0  0  0  0  0  0
   31.8410   27.8710   46.4820 N   0  0  0  0  0  0  0  0  0  0  0  0
   31.6790   27.2790   49.7650 H   0  0  0  0  0  0  0  0  0  0  0  0
   29.3180   27.6870   49.3640 H   0  0  0  0  0  0  0  0  0  0  0  0
   30.0180   28.4170   44.9370 C   0  0  0  0  0  0  0  0  0  0  0  0
   30.6260   27.8120   44.2330 H   0  0  0  0  0  0  0  0  0  0  0  0
   28.9890   27.9980   44.8620 H   0  0  0  0  0  0  0  0  0  0  0  0
   32.5260   29.4110   43.5120 Cl  0  0  0  0  0  0  0  0  0  0  0  0
   31.1740   30.3860   43.9770 C   0  0  0  0  0  0  0  0  0  0  0  0
   30.0740   29.8580   44.6210 C   0  0  0  0  0  0  0  0  0  0  0  0
   28.9700   30.6280   45.0060 C   0  0  0  0  0  0  0  0  0  0  0  0
   28.1320   30.1660   45.5100 H   0  0  0  0  0  0  0  0  0  0  0  0
   28.9820   31.9990   44.7250 C   0  0  0  0  0  0  0  0  0  0  0  0
   28.0980   32.5340   45.0500 H   0  0  0  0  0  0  0  0  0  0  0  0
   30.0740   32.5750   44.0760 C   0  0  0  0  0  3  0  0  0  0  0  0
   31.1060   31.7280   43.7410 C   0  0  0  0  0  3  0  0  0  0  0  0
   34.5880   28.9170   49.6350 O   0  0  0  0  0  0  0  0  0  0  0  0
   37.3480   30.0900   51.6600 C   0  0  0  0  0  0  0  0  0  0  0  0
   38.1140   30.7360   50.6650 C   0  0  0  0  0  0  0  0  0  0  0  0
   37.6420   30.7300   49.3680 C   0  0  0  0  0  0  0  0  0  0  0  0
   36.4490   30.0840   49.1700 N   0  0  0  0  0  0  0  0  0  0  0  0
   35.7300   29.4770   50.1090 C   0  0  0  0  0  0  0  0  0  0  0  0
   36.2020   29.4890   51.3760 N   0  0  0  0  0  0  0  0  0  0  0  0
   37.7680   30.1270   52.6560 H   0  0  0  0  0  0  0  0  0  0  0  0
   39.0480   31.2460   50.7970 H   0  0  0  0  0  0  0  0  0  0  0  0
   38.9630   33.2960   49.2170 F   0  0  0  0  0  0  0  0  0  0  0  0
   38.9120   32.5270   48.1400 C   0  0  0  0  0  0  0  0  0  0  0  0
   38.2960   31.3400   48.2280 C   0  0  0  0  0  0  0  0  0  0  0  0
   38.2980   30.6060   47.0400 C   0  0  0  0  0  0  0  0  0  0  0  0
   38.8780   31.0610   45.8870 C   0  0  0  0  0  0  0  0  0  0  0  0
   39.4990   32.2910   45.8510 C   0  0  0  0  0  0  0  0  0  0  0  0
   39.5080   33.0220   47.0040 C   0  0  0  0  0  0  0  0  0  0  0  0
   37.8400   29.6170   46.9300 H   0  0  0  0  0  0  0  0  0  0  0  0
   38.8860   30.5000   44.9570 H   0  0  0  0  0  0  0  0  0  0  0  0
   39.9650   32.6700   44.9490 H   0  0  0  0  0  0  0  0  0  0  0  0
   39.9920   33.9910   46.9930 H   0  0  0  0  0  0  0  0  0  0  0  0
  1 27  1  0  0  0  0
  2  1  1  0  0  0  0
  3  1  1  0  0  0  0
  4  1  1  0  0  0  0
  4  6  1  0  0  0  0
  5  4  1  0  0  0  0
  7  4  1  0  0  0  0
  7  8  1  0  0  0  0
  8 13  1  0  0  0  0
  9  8  2  0  0  0  0
  9 14  1  0  0  0  0
 10  9  1  0  0  0  0
 11 12  1  0  0  0  0
 11 10  2  0  0  0  0
 12  7  2  0  0  0  0
 15 11  1  0  0  0  0
 16 15  1  0  0  0  0
 17 15  1  0  0  0  0
 18 19  1  0  0  0  0
 19 20  1  0  0  0  0
 20 15  1  0  0  0  0
 20 21  2  0  0  0  0
 21 22  1  0  0  0  0
 23 21  1  0  0  0  0
 23 24  1  0  0  0  0
 25 23  2  0  0  0  0
 26 19  2  0  0  0  0
 26 25  1  0  0  0  0
 27 32  1  0  0  0  0
 28 34  1  0  0  0  0
 29 35  1  0  0  0  0
 29 28  2  0  0  0  0
 30 29  1  0  0  0  0
 31 30  2  0  0  0  0
 31 32  1  0  0  0  0
 32 33  2  0  0  0  0
 33 28  1  0  0  0  0
 37 38  1  0  0  0  0
 37 36  1  0  0  0  0
 38 30  1  0  0  0  0
 39 38  2  0  0  0  0
 40 39  1  0  0  0  0
 41 40  2  0  0  0  0
 41 42  1  0  0  0  0
 42 37  2  0  0  0  0
 43 39  1  0  0  0  0
 44 40  1  0  0  0  0
 45 41  1  0  0  0  0
 46 42  1  0  0  0  0
M  END
>  <minimizedAffinity>
-6.22274113

>  <minimizedRMSD>
1.32528019

$$$$
