
 OpenBabel03272509403D

 35 37  0  0  1  0  0  0  0  0999 V2000
   36.9410   30.9050   49.1070 C   0  0  0  0  0  0  0  0  0  0  0  0
   36.6450   31.8140   50.1300 C   0  0  0  0  0  0  0  0  0  0  0  0
   37.2410   33.0660   50.2070 C   0  0  0  0  0  0  0  0  0  0  0  0
   38.1700   33.4420   49.2360 C   0  0  0  0  0  0  0  0  0  0  0  0
   38.4490   32.5460   48.2460 C   0  0  0  0  0  0  0  0  0  0  0  0
   37.8430   31.3080   48.1910 C   0  0  0  0  0  0  0  0  0  0  0  0
   35.9150   31.5090   50.8830 H   0  0  0  0  0  0  0  0  0  0  0  0
   36.9310   33.6870   51.0480 H   0  0  0  0  0  0  0  0  0  0  0  0
   38.6170   34.4230   49.3240 H   0  0  0  0  0  0  0  0  0  0  0  0
   39.1800   32.9190   47.5370 H   0  0  0  0  0  0  0  0  0  0  0  0
   36.2650   29.6240   49.1140 C   0  0  1  0  0  3  0  0  0  0  0  0
   36.8020   28.7430   49.8910 O   0  0  0  0  0  1  0  0  0  0  0  0
   33.5470   30.1420   46.7760 C   0  0  0  0  0  0  0  0  0  0  0  0
   32.8650   28.9360   46.7670 C   0  0  0  0  0  0  0  0  0  0  0  0
   33.3450   27.9160   47.5830 C   0  0  0  0  0  0  0  0  0  0  0  0
   34.4480   28.1250   48.3520 N   0  0  0  0  0  0  0  0  0  0  0  0
   35.0760   29.2950   48.3350 C   0  0  0  0  0  0  0  0  0  0  0  0
   34.6130   30.2920   47.5410 N   0  0  0  0  0  0  0  0  0  0  0  0
   33.1220   30.8920   46.1210 H   0  0  0  0  0  0  0  0  0  0  0  0
   31.9830   28.6770   46.1930 H   0  0  0  0  0  0  0  0  0  0  0  0
   32.8880   26.9310   47.6540 H   0  0  0  0  0  0  0  0  0  0  0  0
   38.2490   30.4750   47.0820 C   0  0  0  0  0  3  0  0  0  0  0  0
   38.9110   30.8450   46.0070 C   0  0  0  0  0  3  0  0  0  0  0  0
   39.3940   30.1200   44.8230 C   0  0  0  0  0  0  0  0  0  0  0  0
   38.8560   29.1480   44.7460 H   0  0  0  0  0  0  0  0  0  0  0  0
   40.4840   29.9730   44.8910 H   0  0  0  0  0  0  0  0  0  0  0  0
   40.5450   32.8960   44.6180 Cl  0  0  0  0  0  0  0  0  0  0  0  0
   39.5530   32.1730   43.3460 C   0  0  0  0  0  0  0  0  0  0  0  0
   39.1030   30.8950   43.5950 C   0  0  0  0  0  0  0  0  0  0  0  0
   38.3160   30.3240   42.5880 C   0  0  0  0  0  0  0  0  0  0  0  0
   37.9000   29.3100   42.6720 H   0  0  0  0  0  0  0  0  0  0  0  0
   38.0400   31.0390   41.4410 C   0  0  0  0  0  0  0  0  0  0  0  0
   37.4240   30.5590   40.6790 H   0  0  0  0  0  0  0  0  0  0  0  0
   38.5170   32.3090   41.2500 C   0  0  0  0  0  3  0  0  0  0  0  0
   39.3040   32.9240   42.2180 C   0  0  0  0  0  3  0  0  0  0  0  0
  1 11  1  0  0  0  0
  1  2  1  0  0  0  0
  2  3  2  0  0  0  0
  2  7  1  0  0  0  0
  3  8  1  0  0  0  0
  4  9  1  0  0  0  0
  4  3  1  0  0  0  0
  5  4  2  0  0  0  0
  6  5  1  0  0  0  0
  6  1  2  0  0  0  0
 10  5  1  0  0  0  0
 11 12  1  1  0  0  0
 13 18  1  0  0  0  0
 14 13  2  0  0  0  0
 14 15  1  0  0  0  0
 15 21  1  0  0  0  0
 15 16  2  0  0  0  0
 17 16  1  0  0  0  0
 17 11  1  0  0  0  0
 18 17  2  0  0  0  0
 19 13  1  0  0  0  0
 20 14  1  0  0  0  0
 22  6  1  0  0  0  0
 23 22  2  0  0  0  0
 24 26  1  0  0  0  0
 24 23  1  0  0  0  0
 25 24  1  0  0  0  0
 28 29  1  0  0  0  0
 28 27  1  0  0  0  0
 29 24  1  0  0  0  0
 30 31  1  0  0  0  0
 30 29  2  0  0  0  0
 32 30  1  0  0  0  0
 33 32  1  0  0  0  0
 34 32  2  0  0  0  0
 34 35  1  0  0  0  0
 35 28  2  0  0  0  0
M  END
>  <minimizedAffinity>
-6.15697718

>  <minimizedRMSD>
1.05269766

$$$$
