REMARK  Name = 
REMARK  3 active torsions:
REMARK  status: ('A' for Active; 'I' for Inactive)
REMARK    1  A    between atoms: N_1  and  C_7
REMARK    2  A    between atoms: C_6  and  O_13
REMARK    3  A    between atoms: O_13  and  C_28
REMARK                            x       y       z     vdW  Elec       q    Type
REMARK                         _______ _______ _______ _____ _____    ______ ____
ROOT
ATOM      1  N   UNL     1      35.975  29.630  48.866  0.00  0.00    +0.000 N 
ATOM      2  C   UNL     1      36.562  28.852  49.932  0.00  0.00    +0.000 C 
ATOM      3  C   UNL     1      37.042  29.576  51.117  0.00  0.00    +0.000 C 
ATOM      4  C   UNL     1      37.425  30.997  50.977  0.00  0.00    +0.000 C 
ATOM      5  C   UNL     1      36.821  31.681  49.789  0.00  0.00    +0.000 C 
ATOM      6  C   UNL     1      36.846  30.749  48.573  0.00  0.00    +0.000 C 
ATOM      7  H   UNL     1      37.385  28.256  49.485  0.00  0.00    +0.000 HD
ATOM      8  H   UNL     1      35.790  28.086  50.234  0.00  0.00    +0.000 HD
ATOM      9  H   UNL     1      37.912  29.025  51.538  0.00  0.00    +0.000 HD
ATOM     10  H   UNL     1      36.261  29.506  51.926  0.00  0.00    +0.000 HD
ATOM     11  H   UNL     1      38.541  31.131  50.936  0.00  0.00    +0.000 HD
ATOM     12  H   UNL     1      37.129  31.588  51.880  0.00  0.00    +0.000 HD
ATOM     13  H   UNL     1      37.456  32.563  49.539  0.00  0.00    +0.000 HD
ATOM     14  H   UNL     1      35.761  31.993  49.981  0.00  0.00    +0.000 HD
ATOM     15  H   UNL     1      36.508  31.358  47.731  0.00  0.00    +0.000 HD
ENDROOT
BRANCH   1  16
ATOM     16  C   UNL     1      34.736  29.326  48.221  0.00  0.00    +0.000 A 
ATOM     17  C   UNL     1      34.246  30.013  47.099  0.00  0.00    +0.000 A 
ATOM     18  C   UNL     1      33.031  29.616  46.573  0.00  0.00    +0.000 A 
ATOM     19  N   UNL     1      32.372  28.587  47.162  0.00  0.00    +0.000 NA
ATOM     20  C   UNL     1      32.875  27.956  48.235  0.00  0.00    +0.000 A 
ATOM     21  N   UNL     1      34.059  28.324  48.768  0.00  0.00    +0.000 NA
ATOM     22  H   UNL     1      34.833  30.803  46.710  0.00  0.00    +0.000 HD
ATOM     23  H   UNL     1      32.635  30.131  45.709  0.00  0.00    +0.000 HD
ATOM     24  H   UNL     1      32.311  27.138  48.672  0.00  0.00    +0.000 HD
ENDBRANCH   1  16
BRANCH   6  25
ATOM     25  O   UNL     1      38.181  30.350  48.473  0.00  0.00    +0.000 OA
BRANCH  25  28
ATOM     26 CL   UNL     1      36.823  29.953  45.923  0.00  0.00    +0.000 Cl
ATOM     27  C   UNL     1      38.484  30.488  46.183  0.00  0.00    +0.000 A 
ATOM     28  C   UNL     1      39.051  30.651  47.449  0.00  0.00    +0.000 A 
ATOM     29  C   UNL     1      40.350  31.071  47.530  0.00  0.00    +0.000 A 
ATOM     30  H   UNL     1      40.736  31.179  48.529  0.00  0.00    +0.000 HD
ATOM     31  C   UNL     1      41.074  31.326  46.386  0.00  0.00    +0.000 A 
ATOM     32  H   UNL     1      42.091  31.655  46.491  0.00  0.00    +0.000 HD
ATOM     33  C   UNL     1      40.538  31.174  45.119  0.00  0.00    +0.000 A 
ATOM     34  C   UNL     1      39.224  30.749  45.049  0.00  0.00    +0.000 A 
ENDBRANCH  25  28
ENDBRANCH   6  25
TORSDOF 3
