
     RDKit          3D

 25 26  0  0  0  0  0  0  0  0999 V2000
   35.6358   29.0004   50.1748 C   0  0  0  0  0  0  0  0  0  0  0  0
   36.2985   30.1448   49.6564 C   0  0  0  0  0  0  0  0  0  0  0  0
   36.0400   30.5063   48.3500 C   0  0  0  0  0  0  0  0  0  0  0  0
   35.1542   29.7463   47.6161 N   0  0  0  0  0  0  0  0  0  0  0  0
   34.5409   28.6594   48.1426 C   0  0  0  0  0  0  0  0  0  0  0  0
   34.7749   28.2855   49.4172 N   0  0  0  0  0  0  0  0  0  0  0  0
   33.6806   28.0381   47.1996 N   0  0  0  0  0  0  0  0  0  0  0  0
   37.2249   30.9030   50.5330 C   0  0  0  0  0  0  0  0  0  0  0  0
   38.5263   30.7921   50.1072 F   0  0  0  0  0  0  0  0  0  0  0  0
   36.8639   32.2286   50.4929 F   0  0  0  0  0  0  0  0  0  0  0  0
   37.1730   30.4884   51.8542 F   0  0  0  0  0  0  0  0  0  0  0  0
   35.7855   28.6571   51.1936 H   0  0  0  0  0  0  0  0  0  0  0  0
   34.3280   27.3827   46.6463 H   0  0  0  0  0  0  0  0  0  0  0  0
   32.6723   28.1351   47.0359 H   0  0  0  0  0  0  0  0  0  0  0  0
   37.1259   30.1093   45.6345 Cl  0  0  0  0  0  0  0  0  0  0  0  0
   37.2385   31.6810   46.4324 C   0  0  0  0  0  0  0  0  0  0  0  0
   36.5884   31.6322   47.6716 C   0  0  0  0  0  0  0  0  0  0  0  0
   36.5728   32.8199   48.4296 C   0  0  0  0  0  0  0  0  0  0  0  0
   36.1227   33.0040   49.3959 H   0  0  0  0  0  0  0  0  0  0  0  0
   37.1721   33.9728   47.9694 C   0  0  0  0  0  0  0  0  0  0  0  0
   37.2114   34.9085   48.4737 H   0  0  0  0  0  0  0  0  0  0  0  0
   37.8046   33.9612   46.7346 C   0  0  0  0  0  0  0  0  0  0  0  0
   37.8368   32.8311   45.9737 C   0  0  0  0  0  0  0  0  0  0  0  0
   38.3033   34.7861   46.2690 H   0  0  0  0  0  0  0  0  0  0  0  0
   38.2847   32.6686   44.9866 H   0  0  0  0  0  0  0  0  0  0  0  0
  2  1  2  0
  2  8  1  0
  3  2  1  0
  4  5  1  0
  4  3  2  0
  5  6  2  0
  6  1  1  0
  7  5  1  0
  8 11  1  0
  9  8  1  0
 10  8  1  0
  1 12  1  0
  7 13  1  0
  7 14  1  0
 15 16  1  0
 16 17  2  0
 17 18  1  0
 18 19  1  0
 18 20  2  0
 20 21  1  0
 20 22  1  0
 22 23  2  0
 23 16  1  0
 22 24  1  0
 23 25  1  0
  3 17  1  0
M  ISO  3  12  14  19  15  21  16
M  END
>  <DihAtoms>  (1) 
1,2,16,15

>  <DihDeg>  (1) 
-111.55733432229287

$$$$
