REMARK  Name = 
REMARK  4 active torsions:
REMARK  status: ('A' for Active; 'I' for Inactive)
REMARK    1  A    between atoms: C_5  and  O_7
REMARK    2  A    between atoms: O_7  and  C_8
REMARK    3  A    between atoms: C_8  and  C_9
REMARK    4  A    between atoms: C_9  and  C_19
REMARK                            x       y       z     vdW  Elec       q    Type
REMARK                         _______ _______ _______ _____ _____    ______ ____
ROOT
ATOM      1  C   UNL     1      34.207  28.387  48.458  0.00  0.00    +0.000 C 
ATOM      2  H   UNL     1      33.383  29.118  48.411  0.00  0.00    +0.000 HD
ATOM      3  H   UNL     1      34.981  28.791  47.749  0.00  0.00    +0.000 HD
ENDROOT
BRANCH   1   4
ATOM      4  C   UNL     1      33.827  27.042  47.910  0.00  0.00    +0.000 C 
ATOM      5  H   UNL     1      34.749  26.390  47.891  0.00  0.00    +0.000 HD
ATOM      6  H   UNL     1      33.465  27.096  46.863  0.00  0.00    +0.000 HD
BRANCH   4   9
ATOM      7 CL   UNL     1      32.769  24.307  46.928  0.00  0.00    +0.000 Cl
ATOM      8  C   UNL     1      32.257  25.091  48.408  0.00  0.00    +0.000 A 
ATOM      9  C   UNL     1      32.820  26.315  48.698  0.00  0.00    +0.000 A 
ATOM     10  C   UNL     1      32.349  26.871  49.888  0.00  0.00    +0.000 A 
ATOM     11  H   UNL     1      32.764  27.851  50.172  0.00  0.00    +0.000 HD
ATOM     12  C   UNL     1      31.419  26.324  50.745  0.00  0.00    +0.000 A 
ATOM     13  H   UNL     1      31.127  26.839  51.637  0.00  0.00    +0.000 HD
ATOM     14  C   UNL     1      30.919  25.085  50.350  0.00  0.00    +0.000 A 
ATOM     15  C   UNL     1      31.321  24.450  49.189  0.00  0.00    +0.000 A 
ENDBRANCH   4   9
ENDBRANCH   1   4
BRANCH   1  16
ATOM     16  O   UNL     1      34.747  28.303  49.751  0.00  0.00    +0.000 OA
BRANCH  16  21
ATOM     17  C   UNL     1      37.323  30.216  51.421  0.00  0.00    +0.000 A 
ATOM     18  C   UNL     1      38.044  30.660  50.303  0.00  0.00    +0.000 A 
ATOM     19  C   UNL     1      37.618  30.287  49.036  0.00  0.00    +0.000 A 
ATOM     20  N   UNL     1      36.502  29.495  48.970  0.00  0.00    +0.000 NA
ATOM     21  C   UNL     1      35.830  29.085  50.066  0.00  0.00    +0.000 A 
ATOM     22  N   UNL     1      36.257  29.456  51.287  0.00  0.00    +0.000 NA
ATOM     23  H   UNL     1      37.703  30.540  52.379  0.00  0.00    +0.000 HD
ATOM     24  H   UNL     1      38.926  31.286  50.374  0.00  0.00    +0.000 HD
ATOM     25  H   UNL     1      38.128  30.593  48.131  0.00  0.00    +0.000 HD
ENDBRANCH  16  21
ENDBRANCH   1  16
TORSDOF 4
