
 OpenBabel03272509463D

 25 26  0  0  0  0  0  0  0  0999 V2000
   33.7610   28.8060   49.4020 C   0  0  0  0  0  0  0  0  0  0  0  0
   33.3940   29.1680   50.3760 H   0  0  0  0  0  0  0  0  0  0  0  0
   33.7670   29.7210   48.7470 H   0  0  0  0  0  0  0  0  0  0  0  0
   32.8150   27.8470   48.7400 C   0  0  0  0  0  0  0  0  0  0  0  0
   31.8580   28.3960   48.5010 H   0  0  0  0  0  0  0  0  0  0  0  0
   32.5310   27.0040   49.4030 H   0  0  0  0  0  0  0  0  0  0  0  0
   32.9780   29.6210   46.2130 Cl  0  0  0  0  0  0  0  0  0  0  0  0
   33.4380   27.9330   46.2650 C   0  0  0  0  0  0  0  0  0  0  0  0
   33.2970   27.2800   47.4710 C   0  0  0  0  0  0  0  0  0  0  0  0
   33.6770   25.9380   47.4210 C   0  0  0  0  0  0  0  0  0  0  0  0
   33.5860   25.3640   48.3570 H   0  0  0  0  0  0  0  0  0  0  0  0
   34.1550   25.2560   46.3230 C   0  0  0  0  0  0  0  0  0  0  0  0
   34.4190   24.2190   46.3960 H   0  0  0  0  0  0  0  0  0  0  0  0
   34.2560   26.0150   45.1600 C   0  0  0  0  0  3  0  0  0  0  0  0
   33.9040   27.3530   45.1060 C   0  0  0  0  0  3  0  0  0  0  0  0
   35.0620   28.2890   49.5030 O   0  0  0  0  0  0  0  0  0  0  0  0
   37.4380   30.2670   51.3810 C   0  0  0  0  0  0  0  0  0  0  0  0
   38.1610   30.8310   50.3190 C   0  0  0  0  0  0  0  0  0  0  0  0
   37.8030   30.5110   49.0170 C   0  0  0  0  0  0  0  0  0  0  0  0
   36.7500   29.6490   48.8620 N   0  0  0  0  0  0  0  0  0  0  0  0
   36.0750   29.1230   49.9050 C   0  0  0  0  0  0  0  0  0  0  0  0
   36.4350   29.4440   51.1610 N   0  0  0  0  0  0  0  0  0  0  0  0
   37.7630   30.5540   52.3700 H   0  0  0  0  0  0  0  0  0  0  0  0
   38.9920   31.5120   50.4610 H   0  0  0  0  0  0  0  0  0  0  0  0
   38.3180   30.9100   48.1520 H   0  0  0  0  0  0  0  0  0  0  0  0
  1 16  1  0  0  0  0
  1  2  1  0  0  0  0
  3  1  1  0  0  0  0
  4  1  1  0  0  0  0
  4  6  1  0  0  0  0
  5  4  1  0  0  0  0
  7  8  1  0  0  0  0
  8  9  1  0  0  0  0
  9  4  1  0  0  0  0
 10  9  2  0  0  0  0
 10 11  1  0  0  0  0
 12 13  1  0  0  0  0
 12 10  1  0  0  0  0
 14 12  2  0  0  0  0
 15 14  1  0  0  0  0
 15  8  2  0  0  0  0
 16 21  1  0  0  0  0
 17 23  1  0  0  0  0
 18 24  1  0  0  0  0
 18 17  2  0  0  0  0
 19 18  1  0  0  0  0
 20 19  2  0  0  0  0
 20 21  1  0  0  0  0
 21 22  2  0  0  0  0
 22 17  1  0  0  0  0
 25 19  1  0  0  0  0
M  END
>  <minimizedAffinity>
-4.33073616

>  <minimizedRMSD>
3.22876

$$$$
