REMARK  Name = 
REMARK  4 active torsions:
REMARK  status: ('A' for Active; 'I' for Inactive)
REMARK    1  A    between atoms: O_1  and  C_2
REMARK    2  A    between atoms: O_1  and  C_13
REMARK    3  A    between atoms: N_16  and  C_17
REMARK    4  A    between atoms: C_17  and  C_31
REMARK                            x       y       z     vdW  Elec       q    Type
REMARK                         _______ _______ _______ _____ _____    ______ ____
ROOT
ATOM      1  O   UNL     1      35.475  28.683  50.056  0.00  0.00    +0.000 OA
ATOM      2  C   UNL     1      35.261  29.049  48.894  0.00  0.00    +0.000 C 
ATOM      3  C   UNL     1      35.924  30.204  48.330  0.00  0.00    +0.000 C 
ATOM      4  C   UNL     1      35.455  30.134  46.842  0.00  0.00    +0.000 C 
ATOM      5  C   UNL     1      34.153  29.378  46.941  0.00  0.00    +0.000 C 
ATOM      6  N   UNL     1      34.365  28.393  48.007  0.00  0.00    +0.000 N 
ATOM      7  H   UNL     1      35.550  31.142  48.760  0.00  0.00    +0.000 HD
ATOM      8  H   UNL     1      35.246  31.185  46.566  0.00  0.00    +0.000 HD
ATOM      9  H   UNL     1      36.204  29.639  46.233  0.00  0.00    +0.000 HD
ATOM     10  H   UNL     1      33.278  30.000  47.119  0.00  0.00    +0.000 HD
ATOM     11  H   UNL     1      34.022  28.820  45.996  0.00  0.00    +0.000 HD
ENDROOT
BRANCH   6  12
ATOM     12  C   UNL     1      33.754  27.087  48.033  0.00  0.00    +0.000 C 
ATOM     13  H   UNL     1      32.733  27.177  47.668  0.00  0.00    +0.000 HD
ATOM     14  H   UNL     1      33.691  26.811  49.117  0.00  0.00    +0.000 HD
BRANCH  12  17
ATOM     15 CL   UNL     1      34.730  27.345  45.032  0.00  0.00    +0.000 Cl
ATOM     16  C   UNL     1      35.042  25.978  46.054  0.00  0.00    +0.000 A 
ATOM     17  C   UNL     1      34.547  26.066  47.330  0.00  0.00    +0.000 A 
ATOM     18  C   UNL     1      34.831  24.959  48.125  0.00  0.00    +0.000 A 
ATOM     19  H   UNL     1      34.510  24.861  49.174  0.00  0.00    +0.000 HD
ATOM     20  C   UNL     1      35.541  23.855  47.710  0.00  0.00    +0.000 A 
ATOM     21  H   UNL     1      35.758  23.000  48.335  0.00  0.00    +0.000 HD
ATOM     22  C   UNL     1      36.027  23.787  46.429  0.00  0.00    +0.000 A 
ATOM     23  C   UNL     1      35.755  24.875  45.628  0.00  0.00    +0.000 A 
ENDBRANCH  12  17
ENDBRANCH   6  12
BRANCH   3  24
ATOM     24  O   UNL     1      37.346  30.115  48.293  0.00  0.00    +0.000 OA
BRANCH  24  25
ATOM     25  C   UNL     1      38.065  31.307  48.224  0.00  0.00    +0.000 A 
ATOM     26  C   UNL     1      38.217  32.016  49.401  0.00  0.00    +0.000 A 
ATOM     27  C   UNL     1      38.930  33.206  49.357  0.00  0.00    +0.000 A 
ATOM     28  N   UNL     1      39.443  33.623  48.171  0.00  0.00    +0.000 NA
ATOM     29  C   UNL     1      39.286  32.921  47.033  0.00  0.00    +0.000 A 
ATOM     30  N   UNL     1      38.603  31.781  47.079  0.00  0.00    +0.000 NA
ATOM     31  C   UNL     1      40.766  32.468  45.238  0.00  0.00    +0.000 C 
ATOM     32  O   UNL     1      41.136  31.343  45.695  0.00  0.00    +0.000 OA
ATOM     33  N   UNL     1      39.833  33.386  45.805  0.00  0.00    +0.000 N 
ATOM     34  H   UNL     1      37.817  31.704  50.359  0.00  0.00    +0.000 HD
ATOM     35  H   UNL     1      39.050  33.767  50.285  0.00  0.00    +0.000 HD
ATOM     36  H   UNL     1      41.248  32.727  44.288  0.00  0.00    +0.000 HD
ATOM     37  H   UNL     1      39.578  34.297  45.369  0.00  0.00    +0.000 HD
ENDBRANCH  24  25
ENDBRANCH   3  24
TORSDOF 4
