
 OpenBabel03272510303D

 28 30  0  0  0  0  0  0  0  0999 V2000
   37.4160   31.2330   48.9750 C   0  0  0  0  0  0  0  0  0  0  0  0
   37.7710   32.4870   49.4830 C   0  0  0  0  0  0  0  0  0  0  0  0
   38.6900   33.1970   48.7450 C   0  0  0  0  0  0  0  0  0  0  0  0
   39.1880   32.6650   47.6010 N   0  0  0  0  0  0  0  0  0  0  0  0
   38.8320   31.4490   47.1230 C   0  0  0  0  0  0  0  0  0  0  0  0
   37.9180   30.7190   47.8390 N   0  0  0  0  0  0  0  0  0  0  0  0
   37.3140   32.8120   50.4020 H   0  0  0  0  0  0  0  0  0  0  0  0
   38.9940   34.1730   49.1040 H   0  0  0  0  0  0  0  0  0  0  0  0
   36.3890   30.4400   49.7430 C   0  0  0  0  0  0  0  0  0  0  0  0
   36.2120   29.0210   49.5620 C   0  0  0  0  0  0  0  0  0  0  0  0
   37.0290   29.4790   50.7540 C   0  0  0  0  0  0  0  0  0  0  0  0
   35.5530   31.0370   50.2200 H   0  0  0  0  0  0  0  0  0  0  0  0
   36.8050   28.5420   48.7290 H   0  0  0  0  0  0  0  0  0  0  0  0
   35.2420   28.5400   49.7020 H   0  0  0  0  0  0  0  0  0  0  0  0
   36.5150   29.3140   51.7280 H   0  0  0  0  0  0  0  0  0  0  0  0
   38.1160   29.3030   50.7000 H   0  0  0  0  0  0  0  0  0  0  0  0
   39.3330   30.8460   45.8910 C   0  0  0  0  0  0  0  0  0  0  0  0
   39.5100   29.7550   46.0750 H   0  0  0  0  0  0  0  0  0  0  0  0
   40.3190   31.2980   45.6600 H   0  0  0  0  0  0  0  0  0  0  0  0
   39.1120   28.6090   43.8350 Cl  0  0  0  0  0  0  0  0  0  0  0  0
   38.2730   30.1410   43.7020 C   0  0  0  0  0  0  0  0  0  0  0  0
   38.4730   31.0580   44.7130 C   0  0  0  0  0  0  0  0  0  0  0  0
   37.7700   32.2530   44.5330 C   0  0  0  0  0  0  0  0  0  0  0  0
   37.9030   33.0060   45.3130 H   0  0  0  0  0  0  0  0  0  0  0  0
   36.9370   32.5630   43.4740 C   0  0  0  0  0  0  0  0  0  0  0  0
   36.4580   33.5320   43.4700 H   0  0  0  0  0  0  0  0  0  0  0  0
   36.7890   31.5860   42.4990 C   0  0  0  0  0  3  0  0  0  0  0  0
   37.4590   30.3700   42.6120 C   0  0  0  0  0  3  0  0  0  0  0  0
  1  2  1  0  0  0  0
  1  9  1  0  0  0  0
  2  7  1  0  0  0  0
  3  8  1  0  0  0  0
  3  2  2  0  0  0  0
  4  3  1  0  0  0  0
  5  4  2  0  0  0  0
  5  6  1  0  0  0  0
  6  1  2  0  0  0  0
  9 12  1  0  0  0  0
  9 11  1  0  0  0  0
 10 14  1  0  0  0  0
 10  9  1  0  0  0  0
 10 11  1  0  0  0  0
 11 15  1  0  0  0  0
 13 10  1  0  0  0  0
 16 11  1  0  0  0  0
 17 18  1  0  0  0  0
 17  5  1  0  0  0  0
 19 17  1  0  0  0  0
 21 20  1  0  0  0  0
 21 22  1  0  0  0  0
 22 17  1  0  0  0  0
 23 22  2  0  0  0  0
 23 24  1  0  0  0  0
 25 23  1  0  0  0  0
 26 25  1  0  0  0  0
 27 28  1  0  0  0  0
 27 25  2  0  0  0  0
 28 21  2  0  0  0  0
M  END
>  <minimizedAffinity>
-5.30713034

>  <minimizedRMSD>
0.377781123

$$$$
