
 OpenBabel03272510293D

 28 30  0  0  0  0  0  0  0  0999 V2000
   37.1390   31.2980   49.2350 C   0  0  0  0  0  0  0  0  0  0  0  0
   37.3310   32.5560   49.8150 C   0  0  0  0  0  0  0  0  0  0  0  0
   38.2720   33.3590   49.2120 C   0  0  0  0  0  0  0  0  0  0  0  0
   38.9430   32.9070   48.1240 N   0  0  0  0  0  0  0  0  0  0  0  0
   38.7440   31.6860   47.5750 C   0  0  0  0  0  0  0  0  0  0  0  0
   37.8130   30.8630   48.1550 N   0  0  0  0  0  0  0  0  0  0  0  0
   36.7420   32.8130   50.6790 H   0  0  0  0  0  0  0  0  0  0  0  0
   38.4510   34.3420   49.6310 H   0  0  0  0  0  0  0  0  0  0  0  0
   36.0940   30.4020   49.8510 C   0  0  0  0  0  0  0  0  0  0  0  0
   36.0830   28.9750   49.6530 C   0  0  0  0  0  0  0  0  0  0  0  0
   36.6720   29.4980   50.9480 C   0  0  0  0  0  0  0  0  0  0  0  0
   35.1450   30.9120   50.2010 H   0  0  0  0  0  0  0  0  0  0  0  0
   36.8330   28.5620   48.9170 H   0  0  0  0  0  0  0  0  0  0  0  0
   35.1530   28.4010   49.6560 H   0  0  0  0  0  0  0  0  0  0  0  0
   36.0430   29.2750   51.8390 H   0  0  0  0  0  0  0  0  0  0  0  0
   37.7680   29.4280   51.0510 H   0  0  0  0  0  0  0  0  0  0  0  0
   39.4360   31.1660   46.3980 C   0  0  0  0  0  0  0  0  0  0  0  0
   39.6260   30.0720   46.5510 H   0  0  0  0  0  0  0  0  0  0  0  0
   40.4270   31.6590   46.3320 H   0  0  0  0  0  0  0  0  0  0  0  0
   40.0840   33.7190   44.8700 Cl  0  0  0  0  0  0  0  0  0  0  0  0
   38.9290   32.5220   44.3210 C   0  0  0  0  0  0  0  0  0  0  0  0
   38.7410   31.4150   45.1220 C   0  0  0  0  0  0  0  0  0  0  0  0
   37.8050   30.5090   44.6160 C   0  0  0  0  0  0  0  0  0  0  0  0
   37.6280   29.6180   45.2230 H   0  0  0  0  0  0  0  0  0  0  0  0
   37.0960   30.6360   43.4360 C   0  0  0  0  0  0  0  0  0  0  0  0
   36.4020   29.8510   43.1720 H   0  0  0  0  0  0  0  0  0  0  0  0
   37.3420   31.7780   42.6880 C   0  0  0  0  0  3  0  0  0  0  0  0
   38.2630   32.7270   43.1310 C   0  0  0  0  0  3  0  0  0  0  0  0
  1  2  1  0  0  0  0
  1  9  1  0  0  0  0
  2  7  1  0  0  0  0
  3  8  1  0  0  0  0
  3  2  2  0  0  0  0
  4  3  1  0  0  0  0
  5  4  2  0  0  0  0
  5  6  1  0  0  0  0
  6  1  2  0  0  0  0
  9 12  1  0  0  0  0
  9 11  1  0  0  0  0
 10 14  1  0  0  0  0
 10  9  1  0  0  0  0
 10 11  1  0  0  0  0
 11 16  1  0  0  0  0
 11 15  1  0  0  0  0
 13 10  1  0  0  0  0
 17 18  1  0  0  0  0
 17  5  1  0  0  0  0
 19 17  1  0  0  0  0
 21 20  1  0  0  0  0
 21 22  1  0  0  0  0
 22 17  1  0  0  0  0
 23 22  2  0  0  0  0
 23 24  1  0  0  0  0
 25 23  1  0  0  0  0
 26 25  1  0  0  0  0
 27 28  1  0  0  0  0
 27 25  2  0  0  0  0
 28 21  2  0  0  0  0
M  END
>  <minimizedAffinity>
-5.64040804

>  <minimizedRMSD>
0.615705669

$$$$
