
 OpenBabel03272510303D

 28 30  0  0  0  0  0  0  0  0999 V2000
   37.3870   31.3590   49.1800 C   0  0  0  0  0  0  0  0  0  0  0  0
   37.7970   32.6430   49.5530 C   0  0  0  0  0  0  0  0  0  0  0  0
   38.6780   33.2650   48.6970 C   0  0  0  0  0  0  0  0  0  0  0  0
   39.0890   32.6240   47.5740 N   0  0  0  0  0  0  0  0  0  0  0  0
   38.6810   31.3800   47.2290 C   0  0  0  0  0  0  0  0  0  0  0  0
   37.8040   30.7360   48.0640 N   0  0  0  0  0  0  0  0  0  0  0  0
   37.4070   33.0570   50.4660 H   0  0  0  0  0  0  0  0  0  0  0  0
   39.0210   34.2610   48.9490 H   0  0  0  0  0  0  0  0  0  0  0  0
   36.3990   30.6590   50.0790 C   0  0  0  0  0  0  0  0  0  0  0  0
   36.2580   29.2250   50.1080 C   0  0  0  0  0  0  0  0  0  0  0  0
   37.0870   29.8690   51.2010 C   0  0  0  0  0  0  0  0  0  0  0  0
   35.5570   31.2980   50.4880 H   0  0  0  0  0  0  0  0  0  0  0  0
   36.8460   28.6450   49.3380 H   0  0  0  0  0  0  0  0  0  0  0  0
   35.3040   28.7450   50.3400 H   0  0  0  0  0  0  0  0  0  0  0  0
   36.5990   29.8330   52.2010 H   0  0  0  0  0  0  0  0  0  0  0  0
   38.1770   29.7140   51.1450 H   0  0  0  0  0  0  0  0  0  0  0  0
   39.0890   30.6610   46.0260 C   0  0  0  0  0  0  0  0  0  0  0  0
   38.7670   29.5920   46.1220 H   0  0  0  0  0  0  0  0  0  0  0  0
   40.1970   30.6610   45.9810 H   0  0  0  0  0  0  0  0  0  0  0  0
   40.9100   30.5720   43.5850 Cl  0  0  0  0  0  0  0  0  0  0  0  0
   39.3110   31.2890   43.5830 C   0  0  0  0  0  0  0  0  0  0  0  0
   38.6050   31.2540   44.7660 C   0  0  0  0  0  0  0  0  0  0  0  0
   37.3410   31.8470   44.6810 C   0  0  0  0  0  0  0  0  0  0  0  0
   36.7490   31.8390   45.6000 H   0  0  0  0  0  0  0  0  0  0  0  0
   36.7820   32.4300   43.5610 C   0  0  0  0  0  0  0  0  0  0  0  0
   35.7890   32.8510   43.6460 H   0  0  0  0  0  0  0  0  0  0  0  0
   37.5590   32.4240   42.4100 C   0  0  0  0  0  3  0  0  0  0  0  0
   38.8280   31.8520   42.4190 C   0  0  0  0  0  3  0  0  0  0  0  0
  1  2  1  0  0  0  0
  1  9  1  0  0  0  0
  2  7  1  0  0  0  0
  3  8  1  0  0  0  0
  3  2  2  0  0  0  0
  4  3  1  0  0  0  0
  5  4  2  0  0  0  0
  5  6  1  0  0  0  0
  6  1  2  0  0  0  0
  9 10  1  0  0  0  0
  9 12  1  0  0  0  0
  9 11  1  0  0  0  0
 10 14  1  0  0  0  0
 10 11  1  0  0  0  0
 11 15  1  0  0  0  0
 13 10  1  0  0  0  0
 16 11  1  0  0  0  0
 17 18  1  0  0  0  0
 17  5  1  0  0  0  0
 19 17  1  0  0  0  0
 21 20  1  0  0  0  0
 21 22  1  0  0  0  0
 22 17  1  0  0  0  0
 23 22  2  0  0  0  0
 23 24  1  0  0  0  0
 25 26  1  0  0  0  0
 25 23  1  0  0  0  0
 27 28  1  0  0  0  0
 27 25  2  0  0  0  0
 28 21  2  0  0  0  0
M  END
>  <minimizedAffinity>
-5.32887697

>  <minimizedRMSD>
0.723383665

$$$$
