
     RDKit          3D

 30 32  0  0  0  0  0  0  0  0999 V2000
   37.3634   31.3664   49.2067 C   0  0  0  0  0  0  0  0  0  0  0  0
   37.7042   32.6644   49.6004 C   0  0  0  0  0  0  0  0  0  0  0  0
   38.5822   33.3311   48.7756 C   0  0  0  0  0  0  0  0  0  0  0  0
   39.0561   32.7183   47.6626 N   0  0  0  0  0  0  0  0  0  0  0  0
   38.7139   31.4599   47.2972 C   0  0  0  0  0  0  0  0  0  0  0  0
   37.8412   30.7711   48.0999 N   0  0  0  0  0  0  0  0  0  0  0  0
   36.3800   30.6164   50.0699 C   0  0  0  0  0  0  0  0  0  0  0  0
   36.2629   29.1801   50.0431 C   0  0  0  0  0  0  0  0  0  0  0  0
   37.0717   29.7957   51.1667 C   0  0  0  0  0  0  0  0  0  0  0  0
   39.1914   30.7686   46.1019 C   0  0  0  0  0  0  0  0  0  0  0  0
   37.2682   33.0534   50.5042 H   0  0  0  0  0  0  0  0  0  0  0  0
   38.8727   34.3388   49.0446 H   0  0  0  0  0  0  0  0  0  0  0  0
   35.5241   31.2246   50.4949 H   0  0  0  0  0  0  0  0  0  0  0  0
   36.8667   28.6396   49.2565 H   0  0  0  0  0  0  0  0  0  0  0  0
   35.3162   28.6758   50.2490 H   0  0  0  0  0  0  0  0  0  0  0  0
   36.5772   29.7139   52.1610 H   0  0  0  0  0  0  0  0  0  0  0  0
   38.1652   29.6610   51.1154 H   0  0  0  0  0  0  0  0  0  0  0  0
   39.3167   29.6819   46.3446 H   0  0  0  0  0  0  0  0  0  0  0  0
   40.1974   31.1624   45.8525 H   0  0  0  0  0  0  0  0  0  0  0  0
   40.5193   30.7492   43.3614 Cl  0  0  0  0  0  0  0  0  0  0  0  0
   38.7996   30.9701   43.6081 C   0  0  0  0  0  0  0  0  0  0  0  0
   38.3439   30.9561   44.9097 C   0  0  0  0  0  0  0  0  0  0  0  0
   36.9630   31.1393   45.0217 C   0  0  0  0  0  0  0  0  0  0  0  0
   36.5627   31.1347   46.0393 H   0  0  0  0  0  0  0  0  0  0  0  0
   36.0723   31.3232   43.9810 C   0  0  0  0  0  0  0  0  0  0  0  0
   35.0264   31.4527   44.2222 H   0  0  0  0  0  0  0  0  0  0  0  0
   36.6109   31.3245   42.7017 C   0  0  0  0  0  0  0  0  0  0  0  0
   37.9800   31.1472   42.5127 C   0  0  0  0  0  0  0  0  0  0  0  0
   35.9067   31.4696   41.9011 H   0  0  0  0  0  0  0  0  0  0  0  0
   38.3489   31.1553   41.5071 H   0  0  0  0  0  0  0  0  0  0  0  0
  1  2  2  0
  1  7  1  0
  3  2  1  0
  4  3  2  0
  5  4  1  0
  5  6  2  0
  6  1  1  0
  7  9  1  0
  8  7  1  0
  8  9  1  0
 10  5  1  0
  2 11  1  0
  3 12  1  0
  7 13  1  0
  8 14  1  0
  8 15  1  0
  9 16  1  0
  9 17  1  0
 10 18  1  0
 10 19  1  0
 20 21  1  0
 21 22  2  0
 22 23  1  0
 23 24  1  0
 23 25  2  0
 25 26  1  0
 25 27  1  0
 27 28  2  0
 28 21  1  0
 27 29  1  0
 28 30  1  0
 10 22  1  0
M  ISO  8  11  14  12  14  13  13  14  13  15  13  16  13  17  13  18   8
M  ISO  3  19   8  24  15  26  16
M  END
>  <DihAtoms>  (1) 
4,9,21,20

>  <DihDeg>  (1) 
-76.15823834960543

$$$$
