
 OpenBabel03272510043D

 37 39  0  0  0  0  0  0  0  0999 V2000
   34.6290   29.2400   45.4790 C   0  0  0  0  0  0  0  0  0  0  0  0
   34.5910   29.2140   46.8400 C   0  0  0  0  0  0  0  0  0  0  0  0
   33.5230   28.6010   47.4850 C   0  0  0  0  0  0  0  0  0  0  0  0
   32.4790   28.0120   46.8060 C   0  0  0  0  0  0  0  0  0  0  0  0
   32.4830   28.0230   45.4360 C   0  0  0  0  0  0  0  0  0  0  0  0
   33.5510   28.6350   44.8240 C   0  0  0  0  0  0  0  0  0  0  0  0
   33.5270   28.5980   48.5900 H   0  0  0  0  0  0  0  0  0  0  0  0
   31.7210   27.5720   47.3980 H   0  0  0  0  0  0  0  0  0  0  0  0
   31.6530   27.5540   44.9420 H   0  0  0  0  0  0  0  0  0  0  0  0
   33.4360   28.5820   43.7320 H   0  0  0  0  0  0  0  0  0  0  0  0
   37.2510   31.5340   47.8630 C   0  0  0  0  0  0  0  0  0  0  0  0
   36.2450   30.9170   47.1320 C   0  0  0  0  0  0  0  0  0  0  0  0
   35.6080   29.8310   47.6250 C   0  0  0  0  0  0  0  0  0  0  0  0
   35.9970   29.3920   48.8540 N   0  0  0  0  0  0  0  0  0  0  0  0
   36.9580   29.9790   49.5680 C   0  0  0  0  0  0  0  0  0  0  0  0
   37.5810   31.0460   49.0650 N   0  0  0  0  0  0  0  0  0  0  0  0
   37.8520   32.3890   47.6230 H   0  0  0  0  0  0  0  0  0  0  0  0
   36.1600   31.5140   46.2570 H   0  0  0  0  0  0  0  0  0  0  0  0
   37.2270   29.4340   50.9270 C   0  0  0  0  0  0  0  0  0  0  0  0
   37.7540   30.3870   51.7740 F   0  0  0  0  0  0  0  0  0  0  0  0
   35.9590   29.1290   51.5570 F   0  0  0  0  0  0  0  0  0  0  0  0
   37.8880   28.3030   51.0000 F   0  0  0  0  0  0  0  0  0  0  0  0
   35.9130   29.9210   44.5640 S   0  0  0  0  0  0  0  0  0  0  0  0
   35.5960   31.3150   44.1520 O   0  0  0  0  0  0  0  0  0  0  0  0
   35.6020   29.2770   43.2340 O   0  0  0  0  0  0  0  0  0  0  0  0
   37.4950   29.3520   44.3760 C   0  0  0  0  0  0  0  0  0  0  0  0
   37.5860   28.5840   43.5790 H   0  0  0  0  0  0  0  0  0  0  0  0
   37.6680   28.6680   45.2940 H   0  0  0  0  0  0  0  0  0  0  0  0
   38.2170   31.1160   41.9110 Cl  0  0  0  0  0  0  0  0  0  0  0  0
   39.0430   31.1320   43.4530 C   0  0  0  0  0  0  0  0  0  0  0  0
   38.6120   30.2590   44.4420 C   0  0  0  0  0  0  0  0  0  0  0  0
   39.4060   30.3900   45.5920 C   0  0  0  0  0  0  0  0  0  0  0  0
   39.1710   29.7520   46.4530 H   0  0  0  0  0  0  0  0  0  0  0  0
   40.4520   31.2420   45.7490 C   0  0  0  0  0  0  0  0  0  0  0  0
   41.0180   31.2870   46.6680 H   0  0  0  0  0  0  0  0  0  0  0  0
   40.7920   32.0600   44.7120 C   0  0  0  0  0  0  0  0  0  0  0  0
   40.0830   32.0110   43.5440 C   0  0  0  0  0  0  0  0  0  0  0  0
  1  2  1  0  0  0  0
  2  3  2  0  0  0  0
  2 13  1  0  0  0  0
  3  7  1  0  0  0  0
  4  8  1  0  0  0  0
  4  3  1  0  0  0  0
  5  4  2  0  0  0  0
  6  5  1  0  0  0  0
  6  1  2  0  0  0  0
  9  5  1  0  0  0  0
 10  6  1  0  0  0  0
 11 16  1  0  0  0  0
 12 13  1  0  0  0  0
 12 11  2  0  0  0  0
 13 14  2  0  0  0  0
 14 15  1  0  0  0  0
 15 19  1  0  0  0  0
 16 15  2  0  0  0  0
 17 11  1  0  0  0  0
 18 12  1  0  0  0  0
 19 22  1  0  0  0  0
 19 21  1  0  0  0  0
 19 20  1  0  0  0  0
 23  1  1  0  0  0  0
 24 23  2  0  0  0  0
 25 23  2  0  0  0  0
 26 31  1  0  0  0  0
 26 23  1  0  0  0  0
 26 28  1  0  0  0  0
 27 26  1  0  0  0  0
 29 30  1  0  0  0  0
 30 37  2  0  0  0  0
 30 31  1  0  0  0  0
 31 32  2  0  0  0  0
 32 34  1  0  0  0  0
 32 33  1  0  0  0  0
 34 35  1  0  0  0  0
 36 34  2  0  0  0  0
 37 36  1  0  0  0  0
M  END
>  <minimizedAffinity>
-5.42519188

>  <minimizedRMSD>
3.8160181

$$$$
