
 OpenBabel03272510313D

 28 30  0  0  0  0  0  0  0  0999 V2000
   36.5830   21.1760   33.6560 C   0  0  0  0  0  0  0  0  0  0  0  0
   35.6130   20.7030   34.5460 C   0  0  0  0  0  0  0  0  0  0  0  0
   35.8230   20.9950   35.8750 C   0  0  0  0  0  0  0  0  0  0  0  0
   36.9210   21.7020   36.2420 N   0  0  0  0  0  0  0  0  0  0  0  0
   37.8490   22.1530   35.3660 C   0  0  0  0  0  0  0  0  0  0  0  0
   37.6660   21.8760   34.0350 N   0  0  0  0  0  0  0  0  0  0  0  0
   34.7800   20.1510   34.1460 H   0  0  0  0  0  0  0  0  0  0  0  0
   35.0960   20.6460   36.5980 H   0  0  0  0  0  0  0  0  0  0  0  0
   36.3700   20.9000   32.1890 C   0  0  0  0  0  0  0  0  0  0  0  0
   35.0910   20.5120   31.6510 C   0  0  0  0  0  0  0  0  0  0  0  0
   35.4960   21.9660   31.5150 C   0  0  0  0  0  0  0  0  0  0  0  0
   37.3030   20.6930   31.5800 H   0  0  0  0  0  0  0  0  0  0  0  0
   34.2700   20.3110   32.3990 H   0  0  0  0  0  0  0  0  0  0  0  0
   35.0080   19.8710   30.7700 H   0  0  0  0  0  0  0  0  0  0  0  0
   35.7310   22.2610   30.4670 H   0  0  0  0  0  0  0  0  0  0  0  0
   34.9570   22.6870   32.1510 H   0  0  0  0  0  0  0  0  0  0  0  0
   39.0370   22.9270   35.7170 C   0  0  0  0  0  0  0  0  0  0  0  0
   39.9030   22.5440   35.1180 H   0  0  0  0  0  0  0  0  0  0  0  0
   39.2720   22.7360   36.7840 H   0  0  0  0  0  0  0  0  0  0  0  0
   37.9260   24.5260   38.0600 Cl  0  0  0  0  0  0  0  0  0  0  0  0
   38.3960   25.2390   36.5310 C   0  0  0  0  0  0  0  0  0  0  0  0
   38.8830   24.3850   35.5620 C   0  0  0  0  0  0  0  0  0  0  0  0
   39.2340   25.0310   34.3730 C   0  0  0  0  0  0  0  0  0  0  0  0
   39.6250   24.3880   33.5790 H   0  0  0  0  0  0  0  0  0  0  0  0
   39.1350   26.3840   34.1130 C   0  0  0  0  0  0  0  0  0  0  0  0
   39.4470   26.7410   33.1410 H   0  0  0  0  0  0  0  0  0  0  0  0
   38.6350   27.1740   35.1390 C   0  0  0  0  0  3  0  0  0  0  0  0
   38.2640   26.6000   36.3530 C   0  0  0  0  0  3  0  0  0  0  0  0
  1  6  2  0  0  0  0
  1  2  1  0  0  0  0
  2  3  2  0  0  0  0
  3  4  1  0  0  0  0
  3  8  1  0  0  0  0
  5 17  1  0  0  0  0
  5  4  2  0  0  0  0
  6  5  1  0  0  0  0
  7  2  1  0  0  0  0
  9  1  1  0  0  0  0
 10  9  1  0  0  0  0
 10 13  1  0  0  0  0
 11 10  1  0  0  0  0
 11 16  1  0  0  0  0
 11  9  1  0  0  0  0
 12  9  1  0  0  0  0
 14 10  1  0  0  0  0
 15 11  1  0  0  0  0
 17 19  1  0  0  0  0
 18 17  1  0  0  0  0
 21 20  1  0  0  0  0
 22 17  1  0  0  0  0
 22 21  2  0  0  0  0
 23 22  1  0  0  0  0
 24 23  1  0  0  0  0
 25 23  2  0  0  0  0
 25 27  1  0  0  0  0
 26 25  1  0  0  0  0
 27 28  2  0  0  0  0
 28 21  1  0  0  0  0
M  END
>  <minimizedAffinity>
-4.97691059

$$$$

 OpenBabel03272510313D

 28 30  0  0  0  0  0  0  0  0999 V2000
   36.0250   23.6540   31.5600 C   0  0  0  0  0  0  0  0  0  0  0  0
   35.2620   24.7200   31.0730 C   0  0  0  0  0  0  0  0  0  0  0  0
   35.6740   25.9770   31.4540 C   0  0  0  0  0  0  0  0  0  0  0  0
   36.7610   26.1150   32.2530 N   0  0  0  0  0  0  0  0  0  0  0  0
   37.4890   25.0700   32.7150 C   0  0  0  0  0  0  0  0  0  0  0  0
   37.1010   23.8050   32.3520 N   0  0  0  0  0  0  0  0  0  0  0  0
   34.4180   24.4970   30.4450 H   0  0  0  0  0  0  0  0  0  0  0  0
   35.1100   26.8310   31.0990 H   0  0  0  0  0  0  0  0  0  0  0  0
   35.6210   22.2640   31.1390 C   0  0  0  0  0  0  0  0  0  0  0  0
   36.3460   21.0880   31.5500 C   0  0  0  0  0  0  0  0  0  0  0  0
   35.0810   21.4320   32.3110 C   0  0  0  0  0  0  0  0  0  0  0  0
   34.9340   22.1950   30.2400 H   0  0  0  0  0  0  0  0  0  0  0  0
   37.3070   21.2610   32.1150 H   0  0  0  0  0  0  0  0  0  0  0  0
   36.3940   20.1940   30.9240 H   0  0  0  0  0  0  0  0  0  0  0  0
   34.2450   20.7230   32.1180 H   0  0  0  0  0  0  0  0  0  0  0  0
   35.2140   21.8150   33.3360 H   0  0  0  0  0  0  0  0  0  0  0  0
   38.6710   25.1750   33.5660 C   0  0  0  0  0  0  0  0  0  0  0  0
   39.0430   26.2320   33.5310 H   0  0  0  0  0  0  0  0  0  0  0  0
   39.4690   24.5380   33.1320 H   0  0  0  0  0  0  0  0  0  0  0  0
   38.1190   27.2750   35.7020 Cl  0  0  0  0  0  0  0  0  0  0  0  0
   38.2060   25.5560   36.0260 C   0  0  0  0  0  0  0  0  0  0  0  0
   38.4650   24.7260   34.9540 C   0  0  0  0  0  0  0  0  0  0  0  0
   38.5200   23.3710   35.2960 C   0  0  0  0  0  0  0  0  0  0  0  0
   38.7230   22.6800   34.4730 H   0  0  0  0  0  0  0  0  0  0  0  0
   38.3430   22.8350   36.5580 C   0  0  0  0  0  0  0  0  0  0  0  0
   38.4130   21.7620   36.6690 H   0  0  0  0  0  0  0  0  0  0  0  0
   38.0870   23.7380   37.5810 C   0  0  0  0  0  3  0  0  0  0  0  0
   38.0180   25.1030   37.3150 C   0  0  0  0  0  3  0  0  0  0  0  0
  1  6  1  0  0  0  0
  2  3  1  0  0  0  0
  2  1  2  0  0  0  0
  3  4  2  0  0  0  0
  4  5  1  0  0  0  0
  5 17  1  0  0  0  0
  6  5  2  0  0  0  0
  7  2  1  0  0  0  0
  8  3  1  0  0  0  0
  9 10  1  0  0  0  0
  9  1  1  0  0  0  0
  9 11  1  0  0  0  0
 10 13  1  0  0  0  0
 10 11  1  0  0  0  0
 11 16  1  0  0  0  0
 12  9  1  0  0  0  0
 14 10  1  0  0  0  0
 15 11  1  0  0  0  0
 17 22  1  0  0  0  0
 18 17  1  0  0  0  0
 19 17  1  0  0  0  0
 20 21  1  0  0  0  0
 21 28  1  0  0  0  0
 22 23  1  0  0  0  0
 22 21  2  0  0  0  0
 23 25  2  0  0  0  0
 24 23  1  0  0  0  0
 25 26  1  0  0  0  0
 25 27  1  0  0  0  0
 28 27  2  0  0  0  0
M  END
>  <minimizedAffinity>
-4.9531765

$$$$

 OpenBabel03272510313D

 28 30  0  0  0  0  0  0  0  0999 V2000
   38.2840   25.1310   36.2830 C   0  0  0  0  0  0  0  0  0  0  0  0
   37.8650   24.7380   37.5580 C   0  0  0  0  0  0  0  0  0  0  0  0
   37.6190   23.3940   37.7230 C   0  0  0  0  0  0  0  0  0  0  0  0
   37.7880   22.5470   36.6770 N   0  0  0  0  0  0  0  0  0  0  0  0
   38.1950   22.9450   35.4490 C   0  0  0  0  0  0  0  0  0  0  0  0
   38.4470   24.2790   35.2550 N   0  0  0  0  0  0  0  0  0  0  0  0
   37.7630   25.4960   38.3160 H   0  0  0  0  0  0  0  0  0  0  0  0
   37.2910   23.0480   38.6960 H   0  0  0  0  0  0  0  0  0  0  0  0
   38.5920   26.5920   36.0730 C   0  0  0  0  0  0  0  0  0  0  0  0
   39.0460   27.1150   34.8100 C   0  0  0  0  0  0  0  0  0  0  0  0
   37.5770   27.2770   35.1470 C   0  0  0  0  0  0  0  0  0  0  0  0
   38.7650   27.2040   37.0110 H   0  0  0  0  0  0  0  0  0  0  0  0
   39.2730   26.3590   34.0040 H   0  0  0  0  0  0  0  0  0  0  0  0
   39.7040   27.9860   34.7510 H   0  0  0  0  0  0  0  0  0  0  0  0
   37.2890   28.3310   35.3620 H   0  0  0  0  0  0  0  0  0  0  0  0
   36.8720   26.6470   34.5800 H   0  0  0  0  0  0  0  0  0  0  0  0
   38.4020   22.0650   34.3020 C   0  0  0  0  0  0  0  0  0  0  0  0
   38.4280   21.0050   34.6650 H   0  0  0  0  0  0  0  0  0  0  0  0
   39.4000   22.2830   33.8720 H   0  0  0  0  0  0  0  0  0  0  0  0
   35.7630   20.5560   34.4910 Cl  0  0  0  0  0  0  0  0  0  0  0  0
   36.1830   21.6200   33.1650 C   0  0  0  0  0  0  0  0  0  0  0  0
   37.4170   22.2340   33.2180 C   0  0  0  0  0  0  0  0  0  0  0  0
   37.6760   23.0640   32.1230 C   0  0  0  0  0  0  0  0  0  0  0  0
   38.6450   23.5710   32.1280 H   0  0  0  0  0  0  0  0  0  0  0  0
   36.8340   23.3000   31.0530 C   0  0  0  0  0  0  0  0  0  0  0  0
   37.1720   23.9710   30.2760 H   0  0  0  0  0  0  0  0  0  0  0  0
   35.6110   22.6420   31.0750 C   0  0  0  0  0  3  0  0  0  0  0  0
   35.2830   21.7990   32.1350 C   0  0  0  0  0  3  0  0  0  0  0  0
  1  2  1  0  0  0  0
  2  3  2  0  0  0  0
  2  7  1  0  0  0  0
  3  8  1  0  0  0  0
  4  3  1  0  0  0  0
  5  4  2  0  0  0  0
  6  5  1  0  0  0  0
  6  1  2  0  0  0  0
  9  1  1  0  0  0  0
  9 12  1  0  0  0  0
 10 11  1  0  0  0  0
 10  9  1  0  0  0  0
 11 15  1  0  0  0  0
 11  9  1  0  0  0  0
 13 10  1  0  0  0  0
 14 10  1  0  0  0  0
 16 11  1  0  0  0  0
 17 18  1  0  0  0  0
 17  5  1  0  0  0  0
 19 17  1  0  0  0  0
 21 22  1  0  0  0  0
 21 20  1  0  0  0  0
 22 17  1  0  0  0  0
 23 24  1  0  0  0  0
 23 22  2  0  0  0  0
 25 27  2  0  0  0  0
 25 23  1  0  0  0  0
 26 25  1  0  0  0  0
 27 28  1  0  0  0  0
 28 21  2  0  0  0  0
M  END
>  <minimizedAffinity>
-4.93899584

$$$$

 OpenBabel03272510313D

 28 30  0  0  0  0  0  0  0  0999 V2000
   36.7830   21.5260   33.4860 C   0  0  0  0  0  0  0  0  0  0  0  0
   35.7110   20.8670   34.0960 C   0  0  0  0  0  0  0  0  0  0  0  0
   35.7080   20.8690   35.4730 C   0  0  0  0  0  0  0  0  0  0  0  0
   36.7090   21.4890   36.1460 N   0  0  0  0  0  0  0  0  0  0  0  0
   37.7390   22.1230   35.5380 C   0  0  0  0  0  0  0  0  0  0  0  0
   37.7690   22.1370   34.1670 N   0  0  0  0  0  0  0  0  0  0  0  0
   34.9700   20.4080   33.4650 H   0  0  0  0  0  0  0  0  0  0  0  0
   34.8950   20.3690   35.9850 H   0  0  0  0  0  0  0  0  0  0  0  0
   36.8030   21.5700   31.9790 C   0  0  0  0  0  0  0  0  0  0  0  0
   35.6330   21.3080   31.1810 C   0  0  0  0  0  0  0  0  0  0  0  0
   36.0090   22.7570   31.4180 C   0  0  0  0  0  0  0  0  0  0  0  0
   37.8230   21.4960   31.4920 H   0  0  0  0  0  0  0  0  0  0  0  0
   34.7140   20.9540   31.7330 H   0  0  0  0  0  0  0  0  0  0  0  0
   35.7040   20.8700   30.1820 H   0  0  0  0  0  0  0  0  0  0  0  0
   36.3900   23.2670   30.5050 H   0  0  0  0  0  0  0  0  0  0  0  0
   35.3570   23.3260   32.1020 H   0  0  0  0  0  0  0  0  0  0  0  0
   38.8290   22.8120   36.2250 C   0  0  0  0  0  0  0  0  0  0  0  0
   39.7790   22.2450   36.0450 H   0  0  0  0  0  0  0  0  0  0  0  0
   38.6330   22.7730   37.3150 H   0  0  0  0  0  0  0  0  0  0  0  0
   41.2300   23.6340   34.5400 Cl  0  0  0  0  0  0  0  0  0  0  0  0
   40.0080   24.7540   35.1050 C   0  0  0  0  0  0  0  0  0  0  0  0
   38.9780   24.2330   35.8610 C   0  0  0  0  0  0  0  0  0  0  0  0
   38.0470   25.1900   36.2740 C   0  0  0  0  0  0  0  0  0  0  0  0
   37.2140   24.8160   36.8760 H   0  0  0  0  0  0  0  0  0  0  0  0
   38.0820   26.5430   35.9950 C   0  0  0  0  0  0  0  0  0  0  0  0
   37.2870   27.1640   36.3840 H   0  0  0  0  0  0  0  0  0  0  0  0
   39.1510   26.9880   35.2300 C   0  0  0  0  0  3  0  0  0  0  0  0
   40.1180   26.0900   34.7820 C   0  0  0  0  0  3  0  0  0  0  0  0
  1  2  2  0  0  0  0
  1  6  1  0  0  0  0
  2  3  1  0  0  0  0
  3  8  1  0  0  0  0
  3  4  2  0  0  0  0
  5  4  1  0  0  0  0
  5 17  1  0  0  0  0
  6  5  2  0  0  0  0
  7  2  1  0  0  0  0
  9  1  1  0  0  0  0
 10 11  1  0  0  0  0
 10 13  1  0  0  0  0
 10  9  1  0  0  0  0
 11  9  1  0  0  0  0
 11 16  1  0  0  0  0
 12  9  1  0  0  0  0
 14 10  1  0  0  0  0
 15 11  1  0  0  0  0
 17 19  1  0  0  0  0
 18 17  1  0  0  0  0
 20 21  1  0  0  0  0
 21 22  1  0  0  0  0
 22 17  1  0  0  0  0
 22 23  2  0  0  0  0
 23 24  1  0  0  0  0
 25 23  1  0  0  0  0
 25 26  1  0  0  0  0
 27 25  2  0  0  0  0
 28 21  2  0  0  0  0
 28 27  1  0  0  0  0
M  END
>  <minimizedAffinity>
-4.90142441

$$$$

 OpenBabel03272510313D

 28 30  0  0  0  0  0  0  0  0999 V2000
   38.0820   24.9280   35.4590 C   0  0  0  0  0  0  0  0  0  0  0  0
   38.0360   24.5520   36.8050 C   0  0  0  0  0  0  0  0  0  0  0  0
   38.1360   23.2020   37.0570 C   0  0  0  0  0  0  0  0  0  0  0  0
   38.2710   22.3350   36.0230 N   0  0  0  0  0  0  0  0  0  0  0  0
   38.3150   22.7170   34.7250 C   0  0  0  0  0  0  0  0  0  0  0  0
   38.2170   24.0560   34.4450 N   0  0  0  0  0  0  0  0  0  0  0  0
   37.9260   25.3250   37.5460 H   0  0  0  0  0  0  0  0  0  0  0  0
   38.1030   22.8680   38.0870 H   0  0  0  0  0  0  0  0  0  0  0  0
   38.0050   26.4010   35.1480 C   0  0  0  0  0  0  0  0  0  0  0  0
   38.4560   27.4130   36.0700 C   0  0  0  0  0  0  0  0  0  0  0  0
   39.3900   27.0280   34.9400 C   0  0  0  0  0  0  0  0  0  0  0  0
   37.2940   26.6980   34.3170 H   0  0  0  0  0  0  0  0  0  0  0  0
   38.7700   27.0570   37.0940 H   0  0  0  0  0  0  0  0  0  0  0  0
   38.0000   28.4050   36.1030 H   0  0  0  0  0  0  0  0  0  0  0  0
   39.5020   27.8260   34.1720 H   0  0  0  0  0  0  0  0  0  0  0  0
   40.2820   26.4430   35.2200 H   0  0  0  0  0  0  0  0  0  0  0  0
   38.4720   21.8180   33.5850 C   0  0  0  0  0  0  0  0  0  0  0  0
   39.0600   20.9220   33.9150 H   0  0  0  0  0  0  0  0  0  0  0  0
   39.0780   22.3360   32.8150 H   0  0  0  0  0  0  0  0  0  0  0  0
   37.7590   23.0520   30.8930 Cl  0  0  0  0  0  0  0  0  0  0  0  0
   36.7500   21.8900   31.7290 C   0  0  0  0  0  0  0  0  0  0  0  0
   37.2060   21.4190   32.9430 C   0  0  0  0  0  0  0  0  0  0  0  0
   36.3440   20.4980   33.5460 C   0  0  0  0  0  0  0  0  0  0  0  0
   36.6710   20.1010   34.5110 H   0  0  0  0  0  0  0  0  0  0  0  0
   35.1370   20.0520   33.0420 C   0  0  0  0  0  0  0  0  0  0  0  0
   34.5770   19.3330   33.6240 H   0  0  0  0  0  0  0  0  0  0  0  0
   34.7500   20.5740   31.8160 C   0  0  0  0  0  3  0  0  0  0  0  0
   35.5590   21.4970   31.1560 C   0  0  0  0  0  3  0  0  0  0  0  0
  1  2  1  0  0  0  0
  2  3  2  0  0  0  0
  2  7  1  0  0  0  0
  3  8  1  0  0  0  0
  4  3  1  0  0  0  0
  5  4  2  0  0  0  0
  6  5  1  0  0  0  0
  6  1  2  0  0  0  0
  9  1  1  0  0  0  0
  9 10  1  0  0  0  0
 10 14  1  0  0  0  0
 10 13  1  0  0  0  0
 11  9  1  0  0  0  0
 11 16  1  0  0  0  0
 11 10  1  0  0  0  0
 12  9  1  0  0  0  0
 15 11  1  0  0  0  0
 17 18  1  0  0  0  0
 17  5  1  0  0  0  0
 19 17  1  0  0  0  0
 20 21  1  0  0  0  0
 21 22  1  0  0  0  0
 22 23  2  0  0  0  0
 22 17  1  0  0  0  0
 23 24  1  0  0  0  0
 25 23  1  0  0  0  0
 25 26  1  0  0  0  0
 27 25  2  0  0  0  0
 28 21  2  0  0  0  0
 28 27  1  0  0  0  0
M  END
>  <minimizedAffinity>
-4.88461113

$$$$

 OpenBabel03272510313D

 28 30  0  0  0  0  0  0  0  0999 V2000
   38.1540   24.6490   36.4950 C   0  0  0  0  0  0  0  0  0  0  0  0
   38.1430   25.9950   36.1140 C   0  0  0  0  0  0  0  0  0  0  0  0
   38.3030   26.2400   34.7690 C   0  0  0  0  0  0  0  0  0  0  0  0
   38.4570   25.2020   33.9100 N   0  0  0  0  0  0  0  0  0  0  0  0
   38.4640   23.9040   34.2970 C   0  0  0  0  0  0  0  0  0  0  0  0
   38.3080   23.6300   35.6320 N   0  0  0  0  0  0  0  0  0  0  0  0
   38.0140   26.7400   36.8800 H   0  0  0  0  0  0  0  0  0  0  0  0
   38.3020   27.2690   34.4310 H   0  0  0  0  0  0  0  0  0  0  0  0
   37.9520   24.3410   37.9570 C   0  0  0  0  0  0  0  0  0  0  0  0
   37.6270   23.0210   38.4330 C   0  0  0  0  0  0  0  0  0  0  0  0
   39.0730   23.4640   38.5300 C   0  0  0  0  0  0  0  0  0  0  0  0
   37.7450   25.2300   38.6300 H   0  0  0  0  0  0  0  0  0  0  0  0
   37.4160   22.2390   37.6470 H   0  0  0  0  0  0  0  0  0  0  0  0
   37.0300   22.8650   39.3350 H   0  0  0  0  0  0  0  0  0  0  0  0
   39.4080   23.6470   39.5770 H   0  0  0  0  0  0  0  0  0  0  0  0
   39.7800   22.9870   37.8310 H   0  0  0  0  0  0  0  0  0  0  0  0
   38.6150   22.7580   33.4050 C   0  0  0  0  0  0  0  0  0  0  0  0
   39.2610   21.9940   33.9110 H   0  0  0  0  0  0  0  0  0  0  0  0
   39.1600   23.0920   32.4990 H   0  0  0  0  0  0  0  0  0  0  0  0
   37.4360   23.7040   30.7610 Cl  0  0  0  0  0  0  0  0  0  0  0  0
   36.6890   22.4920   31.7810 C   0  0  0  0  0  0  0  0  0  0  0  0
   37.3430   22.1660   32.9520 C   0  0  0  0  0  0  0  0  0  0  0  0
   36.6830   21.1930   33.7090 C   0  0  0  0  0  0  0  0  0  0  0  0
   37.1700   20.9070   34.6450 H   0  0  0  0  0  0  0  0  0  0  0  0
   35.4920   20.5700   33.3870 C   0  0  0  0  0  0  0  0  0  0  0  0
   35.1010   19.8320   34.0740 H   0  0  0  0  0  0  0  0  0  0  0  0
   34.8990   20.9550   32.1920 C   0  0  0  0  0  3  0  0  0  0  0  0
   35.4990   21.9190   31.3850 C   0  0  0  0  0  3  0  0  0  0  0  0
  1  9  1  0  0  0  0
  2  1  1  0  0  0  0
  2  7  1  0  0  0  0
  3  2  2  0  0  0  0
  4  5  2  0  0  0  0
  4  3  1  0  0  0  0
  5  6  1  0  0  0  0
  6  1  2  0  0  0  0
  8  3  1  0  0  0  0
  9 10  1  0  0  0  0
  9 11  1  0  0  0  0
  9 12  1  0  0  0  0
 10 11  1  0  0  0  0
 10 14  1  0  0  0  0
 11 15  1  0  0  0  0
 13 10  1  0  0  0  0
 16 11  1  0  0  0  0
 17 18  1  0  0  0  0
 17  5  1  0  0  0  0
 19 17  1  0  0  0  0
 20 21  1  0  0  0  0
 21 22  1  0  0  0  0
 22 17  1  0  0  0  0
 22 23  2  0  0  0  0
 23 24  1  0  0  0  0
 25 23  1  0  0  0  0
 25 26  1  0  0  0  0
 27 25  2  0  0  0  0
 28 21  2  0  0  0  0
 28 27  1  0  0  0  0
M  END
>  <minimizedAffinity>
-4.85342169

$$$$

 OpenBabel03272510313D

 28 30  0  0  0  0  0  0  0  0999 V2000
   36.3120   21.6120   32.9210 C   0  0  0  0  0  0  0  0  0  0  0  0
   35.6100   22.3800   31.9860 C   0  0  0  0  0  0  0  0  0  0  0  0
   36.1080   23.6410   31.7480 C   0  0  0  0  0  0  0  0  0  0  0  0
   37.2160   24.0610   32.4070 N   0  0  0  0  0  0  0  0  0  0  0  0
   37.8840   23.3030   33.3090 C   0  0  0  0  0  0  0  0  0  0  0  0
   37.4100   22.0420   33.5670 N   0  0  0  0  0  0  0  0  0  0  0  0
   34.7410   21.9470   31.5220 H   0  0  0  0  0  0  0  0  0  0  0  0
   35.5930   24.2690   31.0310 H   0  0  0  0  0  0  0  0  0  0  0  0
   35.8120   20.2150   33.1860 C   0  0  0  0  0  0  0  0  0  0  0  0
   34.9430   19.5160   32.2720 C   0  0  0  0  0  0  0  0  0  0  0  0
   36.4210   19.1840   32.2260 C   0  0  0  0  0  0  0  0  0  0  0  0
   35.8740   19.8580   34.2590 H   0  0  0  0  0  0  0  0  0  0  0  0
   34.5570   20.1080   31.3920 H   0  0  0  0  0  0  0  0  0  0  0  0
   34.2170   18.7780   32.6190 H   0  0  0  0  0  0  0  0  0  0  0  0
   36.6560   18.1680   32.6170 H   0  0  0  0  0  0  0  0  0  0  0  0
   36.9780   19.5470   31.3460 H   0  0  0  0  0  0  0  0  0  0  0  0
   39.0870   23.7120   34.0300 C   0  0  0  0  0  0  0  0  0  0  0  0
   39.3500   24.7560   33.7200 H   0  0  0  0  0  0  0  0  0  0  0  0
   39.9230   23.0590   33.7090 H   0  0  0  0  0  0  0  0  0  0  0  0
   41.0910   21.9410   35.4860 Cl  0  0  0  0  0  0  0  0  0  0  0  0
   39.8200   22.8380   36.2910 C   0  0  0  0  0  0  0  0  0  0  0  0
   38.9870   23.5980   35.4960 C   0  0  0  0  0  0  0  0  0  0  0  0
   38.0000   24.2810   36.2130 C   0  0  0  0  0  0  0  0  0  0  0  0
   37.3190   24.8960   35.6180 H   0  0  0  0  0  0  0  0  0  0  0  0
   37.8100   24.2510   37.5820 C   0  0  0  0  0  0  0  0  0  0  0  0
   37.0000   24.8350   37.9970 H   0  0  0  0  0  0  0  0  0  0  0  0
   38.6900   23.4620   38.3090 C   0  0  0  0  0  3  0  0  0  0  0  0
   39.7000   22.7520   37.6620 C   0  0  0  0  0  3  0  0  0  0  0  0
  1  9  1  0  0  0  0
  1  6  1  0  0  0  0
  2  1  2  0  0  0  0
  3  2  1  0  0  0  0
  3  4  2  0  0  0  0
  4  5  1  0  0  0  0
  5  6  2  0  0  0  0
  5 17  1  0  0  0  0
  7  2  1  0  0  0  0
  8  3  1  0  0  0  0
  9 12  1  0  0  0  0
 10 14  1  0  0  0  0
 10  9  1  0  0  0  0
 11 10  1  0  0  0  0
 11 15  1  0  0  0  0
 11  9  1  0  0  0  0
 13 10  1  0  0  0  0
 16 11  1  0  0  0  0
 17 22  1  0  0  0  0
 18 17  1  0  0  0  0
 19 17  1  0  0  0  0
 20 21  1  0  0  0  0
 21 28  1  0  0  0  0
 22 23  1  0  0  0  0
 22 21  2  0  0  0  0
 23 25  2  0  0  0  0
 24 23  1  0  0  0  0
 25 26  1  0  0  0  0
 25 27  1  0  0  0  0
 28 27  2  0  0  0  0
M  END
>  <minimizedAffinity>
-4.84122372

$$$$

 OpenBabel03272510313D

 28 30  0  0  0  0  0  0  0  0999 V2000
   36.8980   21.3380   33.0850 C   0  0  0  0  0  0  0  0  0  0  0  0
   37.4150   21.2920   31.7860 C   0  0  0  0  0  0  0  0  0  0  0  0
   38.6720   21.8260   31.6190 C   0  0  0  0  0  0  0  0  0  0  0  0
   39.3250   22.3520   32.6860 N   0  0  0  0  0  0  0  0  0  0  0  0
   38.8100   22.3870   33.9370 C   0  0  0  0  0  0  0  0  0  0  0  0
   37.5580   21.8620   34.1330 N   0  0  0  0  0  0  0  0  0  0  0  0
   36.8090   20.8520   31.0130 H   0  0  0  0  0  0  0  0  0  0  0  0
   39.1090   21.8120   30.6280 H   0  0  0  0  0  0  0  0  0  0  0  0
   35.5350   20.7350   33.3100 C   0  0  0  0  0  0  0  0  0  0  0  0
   34.7230   20.2280   32.2330 C   0  0  0  0  0  0  0  0  0  0  0  0
   35.5130   19.2230   33.0460 C   0  0  0  0  0  0  0  0  0  0  0  0
   35.0370   20.9830   34.2980 H   0  0  0  0  0  0  0  0  0  0  0  0
   35.1070   20.4070   31.1860 H   0  0  0  0  0  0  0  0  0  0  0  0
   33.6320   20.2470   32.2770 H   0  0  0  0  0  0  0  0  0  0  0  0
   34.8740   18.5800   33.6920 H   0  0  0  0  0  0  0  0  0  0  0  0
   36.3810   18.7620   32.5470 H   0  0  0  0  0  0  0  0  0  0  0  0
   39.4840   22.9310   35.1130 C   0  0  0  0  0  0  0  0  0  0  0  0
   40.5720   22.6670   35.0550 H   0  0  0  0  0  0  0  0  0  0  0  0
   39.0770   22.4260   36.0120 H   0  0  0  0  0  0  0  0  0  0  0  0
   37.3600   23.8640   37.0870 Cl  0  0  0  0  0  0  0  0  0  0  0  0
   38.3770   24.9520   36.1650 C   0  0  0  0  0  0  0  0  0  0  0  0
   39.2950   24.3800   35.3080 C   0  0  0  0  0  0  0  0  0  0  0  0
   40.0660   25.3150   34.6100 C   0  0  0  0  0  0  0  0  0  0  0  0
   40.8060   24.9010   33.9200 H   0  0  0  0  0  0  0  0  0  0  0  0
   39.9790   26.6900   34.7100 C   0  0  0  0  0  0  0  0  0  0  0  0
   40.6450   27.2880   34.1050 H   0  0  0  0  0  0  0  0  0  0  0  0
   39.0290   27.1850   35.5940 C   0  0  0  0  0  3  0  0  0  0  0  0
   38.2250   26.3130   36.3250 C   0  0  0  0  0  3  0  0  0  0  0  0
  1  9  1  0  0  0  0
  1  6  1  0  0  0  0
  2  1  2  0  0  0  0
  3  2  1  0  0  0  0
  3  4  2  0  0  0  0
  4  5  1  0  0  0  0
  5  6  2  0  0  0  0
  5 17  1  0  0  0  0
  7  2  1  0  0  0  0
  8  3  1  0  0  0  0
  9 12  1  0  0  0  0
 10 14  1  0  0  0  0
 10 11  1  0  0  0  0
 10  9  1  0  0  0  0
 11  9  1  0  0  0  0
 11 15  1  0  0  0  0
 13 10  1  0  0  0  0
 16 11  1  0  0  0  0
 17 22  1  0  0  0  0
 17 19  1  0  0  0  0
 18 17  1  0  0  0  0
 21 28  1  0  0  0  0
 21 20  1  0  0  0  0
 22 21  2  0  0  0  0
 23 25  2  0  0  0  0
 23 22  1  0  0  0  0
 24 23  1  0  0  0  0
 25 27  1  0  0  0  0
 26 25  1  0  0  0  0
 27 28  2  0  0  0  0
M  END
>  <minimizedAffinity>
-4.77471733

$$$$

 OpenBabel03272510313D

 28 30  0  0  0  0  0  0  0  0999 V2000
   36.4760   26.8450   32.4320 C   0  0  0  0  0  0  0  0  0  0  0  0
   37.0830   26.2350   33.5340 C   0  0  0  0  0  0  0  0  0  0  0  0
   37.1320   26.9860   34.6870 C   0  0  0  0  0  0  0  0  0  0  0  0
   36.6080   28.2370   34.6960 N   0  0  0  0  0  0  0  0  0  0  0  0
   36.0220   28.8120   33.6190 C   0  0  0  0  0  0  0  0  0  0  0  0
   35.9600   28.0860   32.4560 N   0  0  0  0  0  0  0  0  0  0  0  0
   37.4670   25.2360   33.4160 H   0  0  0  0  0  0  0  0  0  0  0  0
   37.5950   26.5510   35.5640 H   0  0  0  0  0  0  0  0  0  0  0  0
   36.3780   26.0400   31.1610 C   0  0  0  0  0  0  0  0  0  0  0  0
   36.2460   24.6050   31.1600 C   0  0  0  0  0  0  0  0  0  0  0  0
   34.9860   25.4250   30.9650 C   0  0  0  0  0  0  0  0  0  0  0  0
   36.7330   26.5560   30.2160 H   0  0  0  0  0  0  0  0  0  0  0  0
   36.3340   24.0910   32.1610 H   0  0  0  0  0  0  0  0  0  0  0  0
   36.6440   23.9910   30.3490 H   0  0  0  0  0  0  0  0  0  0  0  0
   34.5760   25.3590   29.9320 H   0  0  0  0  0  0  0  0  0  0  0  0
   34.2770   25.4430   31.8090 H   0  0  0  0  0  0  0  0  0  0  0  0
   35.4350   30.1490   33.5900 C   0  0  0  0  0  0  0  0  0  0  0  0
   34.8970   30.2810   32.6150 H   0  0  0  0  0  0  0  0  0  0  0  0
   36.2590   30.8900   33.6070 H   0  0  0  0  0  0  0  0  0  0  0  0
   36.3590   32.2200   35.6230 Cl  0  0  0  0  0  0  0  0  0  0  0  0
   34.8350   31.3640   35.7290 C   0  0  0  0  0  0  0  0  0  0  0  0
   34.5540   30.4530   34.7320 C   0  0  0  0  0  0  0  0  0  0  0  0
   33.3210   29.8120   34.8900 C   0  0  0  0  0  0  0  0  0  0  0  0
   33.0620   29.0820   34.1190 H   0  0  0  0  0  0  0  0  0  0  0  0
   32.4160   30.0150   35.9150 C   0  0  0  0  0  0  0  0  0  0  0  0
   31.4980   29.4440   35.9040 H   0  0  0  0  0  0  0  0  0  0  0  0
   32.7750   30.9480   36.8780 C   0  0  0  0  0  3  0  0  0  0  0  0
   33.9880   31.6260   36.7860 C   0  0  0  0  0  3  0  0  0  0  0  0
  1  6  2  0  0  0  0
  1  2  1  0  0  0  0
  2  3  2  0  0  0  0
  3  4  1  0  0  0  0
  3  8  1  0  0  0  0
  5  4  2  0  0  0  0
  6  5  1  0  0  0  0
  7  2  1  0  0  0  0
  9  1  1  0  0  0  0
 10  9  1  0  0  0  0
 10 13  1  0  0  0  0
 11 10  1  0  0  0  0
 11  9  1  0  0  0  0
 11 16  1  0  0  0  0
 12  9  1  0  0  0  0
 14 10  1  0  0  0  0
 15 11  1  0  0  0  0
 17 19  1  0  0  0  0
 17  5  1  0  0  0  0
 17 22  1  0  0  0  0
 18 17  1  0  0  0  0
 20 21  1  0  0  0  0
 21 28  1  0  0  0  0
 22 23  1  0  0  0  0
 22 21  2  0  0  0  0
 23 25  2  0  0  0  0
 24 23  1  0  0  0  0
 25 27  1  0  0  0  0
 26 25  1  0  0  0  0
 28 27  2  0  0  0  0
M  END
>  <minimizedAffinity>
-4.77303982

$$$$
