
 OpenBabel03272509253D

 24 25  0  0  0  0  0  0  0  0999 V2000
   37.5780   25.7720   35.8880 C   0  0  0  0  0  0  0  0  0  0  0  0
   36.9790   25.4160   35.0230 H   0  0  0  0  0  0  0  0  0  0  0  0
   36.7890   26.0810   36.6290 H   0  0  0  0  0  0  0  0  0  0  0  0
   38.7870   23.3360   38.5150 C   0  0  0  0  0  0  0  0  0  0  0  0
   38.0410   24.3560   37.8790 C   0  0  0  0  0  0  0  0  0  0  0  0
   38.3370   24.7120   36.5770 C   0  0  0  0  0  0  0  0  0  0  0  0
   39.3470   24.0600   35.9580 N   0  0  0  0  0  0  0  0  0  0  0  0
   40.0590   23.0950   36.5520 C   0  0  0  0  0  0  0  0  0  0  0  0
   39.7820   22.7270   37.8360 N   0  0  0  0  0  0  0  0  0  0  0  0
   38.5600   23.0490   39.5450 H   0  0  0  0  0  0  0  0  0  0  0  0
   37.2770   24.7950   38.4640 H   0  0  0  0  0  0  0  0  0  0  0  0
   40.8550   22.6370   35.9460 H   0  0  0  0  0  0  0  0  0  0  0  0
   38.4210   26.9730   35.5410 C   0  0  0  0  0  0  0  0  0  0  0  0
   39.3850   27.0450   36.0320 H   0  0  0  0  0  0  0  0  0  0  0  0
   37.8520   27.8720   35.8770 H   0  0  0  0  0  0  0  0  0  0  0  0
   41.2100   26.6610   34.5970 Cl  0  0  0  0  0  0  0  0  0  0  0  0
   39.8400   27.0090   33.5950 C   0  0  0  0  0  0  0  0  0  0  0  0
   38.5440   27.1520   34.0490 C   0  0  0  0  0  0  0  0  0  0  0  0
   37.4780   27.4290   33.2150 C   0  0  0  0  0  0  0  0  0  0  0  0
   36.4990   27.5210   33.6720 H   0  0  0  0  0  0  0  0  0  0  0  0
   37.7400   27.5660   31.8660 C   0  0  0  0  0  0  0  0  0  0  0  0
   36.8880   27.7820   31.2380 H   0  0  0  0  0  0  0  0  0  0  0  0
   39.0070   27.4380   31.3360 C   0  0  0  0  0  3  0  0  0  0  0  0
   40.0510   27.1570   32.2220 C   0  0  0  0  0  3  0  0  0  0  0  0
  1  6  1  0  0  0  0
  1  3  1  0  0  0  0
  2  1  1  0  0  0  0
  4 10  1  0  0  0  0
  5 11  1  0  0  0  0
  5  4  1  0  0  0  0
  6  5  2  0  0  0  0
  7  8  2  0  0  0  0
  7  6  1  0  0  0  0
  8  9  1  0  0  0  0
  9  4  2  0  0  0  0
 12  8  1  0  0  0  0
 13 15  1  0  0  0  0
 13  1  1  0  0  0  0
 13 14  1  0  0  0  0
 17 18  1  0  0  0  0
 17 16  1  0  0  0  0
 18 13  1  0  0  0  0
 19 20  1  0  0  0  0
 19 18  2  0  0  0  0
 21 19  1  0  0  0  0
 22 21  1  0  0  0  0
 23 21  2  0  0  0  0
 23 24  1  0  0  0  0
 24 17  2  0  0  0  0
M  END
>  <minimizedAffinity>
-4.5330677

$$$$

 OpenBabel03272509253D

 24 25  0  0  0  0  0  0  0  0999 V2000
   38.9990   24.8220   34.6990 C   0  0  0  0  0  0  0  0  0  0  0  0
   39.6000   24.2170   33.9870 H   0  0  0  0  0  0  0  0  0  0  0  0
   37.9490   24.6920   34.3140 H   0  0  0  0  0  0  0  0  0  0  0  0
   38.0000   24.1770   38.2890 C   0  0  0  0  0  0  0  0  0  0  0  0
   38.0140   24.7140   36.9800 C   0  0  0  0  0  0  0  0  0  0  0  0
   38.9590   24.2800   36.0700 C   0  0  0  0  0  0  0  0  0  0  0  0
   39.8460   23.3440   36.4790 N   0  0  0  0  0  0  0  0  0  0  0  0
   39.8410   22.8310   37.7150 C   0  0  0  0  0  0  0  0  0  0  0  0
   38.9160   23.2450   38.6280 N   0  0  0  0  0  0  0  0  0  0  0  0
   37.2560   24.5150   39.0150 H   0  0  0  0  0  0  0  0  0  0  0  0
   37.2720   25.4400   36.7770 H   0  0  0  0  0  0  0  0  0  0  0  0
   40.6120   22.0760   37.9290 H   0  0  0  0  0  0  0  0  0  0  0  0
   39.3610   26.2850   34.6530 C   0  0  0  0  0  0  0  0  0  0  0  0
   40.3060   26.5350   34.1870 H   0  0  0  0  0  0  0  0  0  0  0  0
   39.4560   26.6240   35.7110 H   0  0  0  0  0  0  0  0  0  0  0  0
   39.5750   26.6670   31.7250 Cl  0  0  0  0  0  0  0  0  0  0  0  0
   38.3190   27.3030   32.7340 C   0  0  0  0  0  0  0  0  0  0  0  0
   38.2320   27.1170   34.0990 C   0  0  0  0  0  0  0  0  0  0  0  0
   37.2110   27.6430   34.8690 C   0  0  0  0  0  0  0  0  0  0  0  0
   37.2340   27.4370   35.9340 H   0  0  0  0  0  0  0  0  0  0  0  0
   36.2420   28.3860   34.2250 C   0  0  0  0  0  0  0  0  0  0  0  0
   35.4570   28.7840   34.8520 H   0  0  0  0  0  0  0  0  0  0  0  0
   36.2600   28.6160   32.8660 C   0  0  0  0  0  3  0  0  0  0  0  0
   37.3130   28.0630   32.1320 C   0  0  0  0  0  3  0  0  0  0  0  0
  1  6  1  0  0  0  0
  2  1  1  0  0  0  0
  3  1  1  0  0  0  0
  4  9  1  0  0  0  0
  4 10  1  0  0  0  0
  5  4  2  0  0  0  0
  6  7  2  0  0  0  0
  6  5  1  0  0  0  0
  7  8  1  0  0  0  0
  8 12  1  0  0  0  0
  8  9  2  0  0  0  0
 11  5  1  0  0  0  0
 13  1  1  0  0  0  0
 13 15  1  0  0  0  0
 14 13  1  0  0  0  0
 16 17  1  0  0  0  0
 17 18  1  0  0  0  0
 18 13  1  0  0  0  0
 18 19  2  0  0  0  0
 19 20  1  0  0  0  0
 21 22  1  0  0  0  0
 21 19  1  0  0  0  0
 23 21  2  0  0  0  0
 24 17  2  0  0  0  0
 24 23  1  0  0  0  0
M  END
>  <minimizedAffinity>
-4.46818304

$$$$

 OpenBabel03272509253D

 24 25  0  0  0  0  0  0  0  0999 V2000
   38.1380   24.0700   34.4600 C   0  0  0  0  0  0  0  0  0  0  0  0
   37.1140   24.4660   34.2970 H   0  0  0  0  0  0  0  0  0  0  0  0
   38.7910   24.9470   34.1900 H   0  0  0  0  0  0  0  0  0  0  0  0
   38.0260   24.0260   38.2400 C   0  0  0  0  0  0  0  0  0  0  0  0
   37.6910   24.3090   36.8950 C   0  0  0  0  0  0  0  0  0  0  0  0
   38.4620   23.7920   35.8720 C   0  0  0  0  0  0  0  0  0  0  0  0
   39.5240   23.0240   36.2080 N   0  0  0  0  0  0  0  0  0  0  0  0
   39.8500   22.7510   37.4770 C   0  0  0  0  0  0  0  0  0  0  0  0
   39.1010   23.2520   38.5020 N   0  0  0  0  0  0  0  0  0  0  0  0
   37.4220   24.4320   39.0550 H   0  0  0  0  0  0  0  0  0  0  0  0
   36.8400   24.9220   36.7560 H   0  0  0  0  0  0  0  0  0  0  0  0
   40.7340   22.1150   37.6240 H   0  0  0  0  0  0  0  0  0  0  0  0
   38.4590   22.9180   33.5420 C   0  0  0  0  0  0  0  0  0  0  0  0
   39.2550   22.2540   33.8600 H   0  0  0  0  0  0  0  0  0  0  0  0
   38.8130   23.3630   32.5820 H   0  0  0  0  0  0  0  0  0  0  0  0
   37.4370   23.6970   30.8760 Cl  0  0  0  0  0  0  0  0  0  0  0  0
   36.7310   22.5070   31.9160 C   0  0  0  0  0  0  0  0  0  0  0  0
   37.2180   22.1530   33.1590 C   0  0  0  0  0  0  0  0  0  0  0  0
   36.6240   21.1960   33.9590 C   0  0  0  0  0  0  0  0  0  0  0  0
   37.0870   20.9910   34.9180 H   0  0  0  0  0  0  0  0  0  0  0  0
   35.4890   20.5740   33.4770 C   0  0  0  0  0  0  0  0  0  0  0  0
   35.0460   19.8300   34.1240 H   0  0  0  0  0  0  0  0  0  0  0  0
   34.9420   20.8720   32.2470 C   0  0  0  0  0  3  0  0  0  0  0  0
   35.5800   21.8470   31.4750 C   0  0  0  0  0  3  0  0  0  0  0  0
  1  6  1  0  0  0  0
  2  1  1  0  0  0  0
  3  1  1  0  0  0  0
  4  9  1  0  0  0  0
  4 10  1  0  0  0  0
  5  4  2  0  0  0  0
  6  7  2  0  0  0  0
  6  5  1  0  0  0  0
  7  8  1  0  0  0  0
  8 12  1  0  0  0  0
  8  9  2  0  0  0  0
 11  5  1  0  0  0  0
 13 14  1  0  0  0  0
 13  1  1  0  0  0  0
 15 13  1  0  0  0  0
 16 17  1  0  0  0  0
 17 18  1  0  0  0  0
 18 13  1  0  0  0  0
 18 19  2  0  0  0  0
 19 20  1  0  0  0  0
 21 19  1  0  0  0  0
 21 22  1  0  0  0  0
 23 21  2  0  0  0  0
 24 17  2  0  0  0  0
 24 23  1  0  0  0  0
M  END
>  <minimizedAffinity>
-4.41375256

$$$$

 OpenBabel03272509253D

 24 25  0  0  0  0  0  0  0  0999 V2000
   35.8700   29.7940   33.5480 C   0  0  0  0  0  0  0  0  0  0  0  0
   35.5350   30.1460   32.5490 H   0  0  0  0  0  0  0  0  0  0  0  0
   36.9250   30.1800   33.6080 H   0  0  0  0  0  0  0  0  0  0  0  0
   35.1640   31.8640   36.6330 C   0  0  0  0  0  0  0  0  0  0  0  0
   35.8550   31.2620   35.5550 C   0  0  0  0  0  0  0  0  0  0  0  0
   35.1760   30.4360   34.6800 C   0  0  0  0  0  0  0  0  0  0  0  0
   33.8560   30.2360   34.8970 N   0  0  0  0  0  0  0  0  0  0  0  0
   33.1940   30.8000   35.9140 C   0  0  0  0  0  0  0  0  0  0  0  0
   33.8460   31.6180   36.7890 N   0  0  0  0  0  0  0  0  0  0  0  0
   35.6940   32.5170   37.3310 H   0  0  0  0  0  0  0  0  0  0  0  0
   36.8860   31.4920   35.4890 H   0  0  0  0  0  0  0  0  0  0  0  0
   32.1230   30.5610   35.9860 H   0  0  0  0  0  0  0  0  0  0  0  0
   35.8920   28.2900   33.6460 C   0  0  0  0  0  0  0  0  0  0  0  0
   35.5380   27.7430   32.7790 H   0  0  0  0  0  0  0  0  0  0  0  0
   35.1970   28.0130   34.4730 H   0  0  0  0  0  0  0  0  0  0  0  0
   37.6360   27.4940   31.3890 Cl  0  0  0  0  0  0  0  0  0  0  0  0
   38.0590   27.4110   33.0670 C   0  0  0  0  0  0  0  0  0  0  0  0
   37.2350   27.7850   34.1100 C   0  0  0  0  0  0  0  0  0  0  0  0
   37.6120   27.7030   35.4370 C   0  0  0  0  0  0  0  0  0  0  0  0
   36.8900   28.0230   36.1800 H   0  0  0  0  0  0  0  0  0  0  0  0
   38.8760   27.2210   35.7140 C   0  0  0  0  0  0  0  0  0  0  0  0
   39.1430   27.1670   36.7600 H   0  0  0  0  0  0  0  0  0  0  0  0
   39.7560   26.8270   34.7280 C   0  0  0  0  0  3  0  0  0  0  0  0
   39.3270   26.9300   33.4020 C   0  0  0  0  0  3  0  0  0  0  0  0
  1  3  1  0  0  0  0
  1 13  1  0  0  0  0
  1  6  1  0  0  0  0
  2  1  1  0  0  0  0
  4  9  1  0  0  0  0
  4 10  1  0  0  0  0
  5  4  2  0  0  0  0
  6  7  2  0  0  0  0
  6  5  1  0  0  0  0
  7  8  1  0  0  0  0
  8 12  1  0  0  0  0
  8  9  2  0  0  0  0
 11  5  1  0  0  0  0
 13 18  1  0  0  0  0
 13 15  1  0  0  0  0
 14 13  1  0  0  0  0
 16 17  1  0  0  0  0
 17 24  2  0  0  0  0
 17 18  1  0  0  0  0
 18 19  2  0  0  0  0
 19 21  1  0  0  0  0
 19 20  1  0  0  0  0
 21 22  1  0  0  0  0
 23 21  2  0  0  0  0
 24 23  1  0  0  0  0
M  END
>  <minimizedAffinity>
-4.41156149

$$$$

 OpenBabel03272509253D

 24 25  0  0  0  0  0  0  0  0999 V2000
   38.7660   22.0180   34.2410 C   0  0  0  0  0  0  0  0  0  0  0  0
   39.5870   22.3060   33.5500 H   0  0  0  0  0  0  0  0  0  0  0  0
   38.8170   20.8940   34.2350 H   0  0  0  0  0  0  0  0  0  0  0  0
   38.3040   23.4360   37.7160 C   0  0  0  0  0  0  0  0  0  0  0  0
   38.0510   23.0900   36.3680 C   0  0  0  0  0  0  0  0  0  0  0  0
   39.0010   22.3910   35.6480 C   0  0  0  0  0  0  0  0  0  0  0  0
   40.1530   22.0630   36.2760 N   0  0  0  0  0  0  0  0  0  0  0  0
   40.4030   22.3860   37.5510 C   0  0  0  0  0  0  0  0  0  0  0  0
   39.4770   23.0750   38.2790 N   0  0  0  0  0  0  0  0  0  0  0  0
   37.5580   23.9890   38.2920 H   0  0  0  0  0  0  0  0  0  0  0  0
   37.1150   23.4020   35.9850 H   0  0  0  0  0  0  0  0  0  0  0  0
   41.3750   22.0640   37.9510 H   0  0  0  0  0  0  0  0  0  0  0  0
   37.4140   22.4510   33.7330 C   0  0  0  0  0  0  0  0  0  0  0  0
   37.3640   23.4250   33.2600 H   0  0  0  0  0  0  0  0  0  0  0  0
   36.7460   22.5210   34.6230 H   0  0  0  0  0  0  0  0  0  0  0  0
   35.5770   20.7170   35.2770 Cl  0  0  0  0  0  0  0  0  0  0  0  0
   35.9170   20.5690   33.5850 C   0  0  0  0  0  0  0  0  0  0  0  0
   36.7770   21.3850   32.8770 C   0  0  0  0  0  0  0  0  0  0  0  0
   37.0200   21.2340   31.5250 C   0  0  0  0  0  0  0  0  0  0  0  0
   37.7130   21.9290   31.0630 H   0  0  0  0  0  0  0  0  0  0  0  0
   36.3640   20.2130   30.8680 C   0  0  0  0  0  0  0  0  0  0  0  0
   36.5740   20.1180   29.8120 H   0  0  0  0  0  0  0  0  0  0  0  0
   35.4910   19.3560   31.5050 C   0  0  0  0  0  3  0  0  0  0  0  0
   35.2780   19.5520   32.8720 C   0  0  0  0  0  3  0  0  0  0  0  0
  1  6  1  0  0  0  0
  2  1  1  0  0  0  0
  3  1  1  0  0  0  0
  4  9  1  0  0  0  0
  4 10  1  0  0  0  0
  5  4  2  0  0  0  0
  6  7  2  0  0  0  0
  6  5  1  0  0  0  0
  7  8  1  0  0  0  0
  8 12  1  0  0  0  0
  8  9  2  0  0  0  0
 11  5  1  0  0  0  0
 13  1  1  0  0  0  0
 13 15  1  0  0  0  0
 14 13  1  0  0  0  0
 17 16  1  0  0  0  0
 18 17  1  0  0  0  0
 18 13  1  0  0  0  0
 19 18  2  0  0  0  0
 20 19  1  0  0  0  0
 21 23  2  0  0  0  0
 21 19  1  0  0  0  0
 22 21  1  0  0  0  0
 23 24  1  0  0  0  0
 24 17  2  0  0  0  0
M  END
>  <minimizedAffinity>
-4.37834263

$$$$

 OpenBabel03272509253D

 24 25  0  0  0  0  0  0  0  0999 V2000
   38.2720   26.4520   35.9110 C   0  0  0  0  0  0  0  0  0  0  0  0
   39.3190   26.6730   36.2070 H   0  0  0  0  0  0  0  0  0  0  0  0
   37.6710   27.0050   36.6860 H   0  0  0  0  0  0  0  0  0  0  0  0
   36.3550   28.3940   33.2930 C   0  0  0  0  0  0  0  0  0  0  0  0
   36.7210   27.8270   34.5360 C   0  0  0  0  0  0  0  0  0  0  0  0
   37.8650   27.0570   34.6290 C   0  0  0  0  0  0  0  0  0  0  0  0
   38.5970   26.8750   33.5060 N   0  0  0  0  0  0  0  0  0  0  0  0
   38.2580   27.4070   32.3250 C   0  0  0  0  0  0  0  0  0  0  0  0
   37.1330   28.1700   32.2120 N   0  0  0  0  0  0  0  0  0  0  0  0
   35.4510   29.0030   33.2100 H   0  0  0  0  0  0  0  0  0  0  0  0
   36.0700   28.0370   35.3430 H   0  0  0  0  0  0  0  0  0  0  0  0
   38.9330   27.1890   31.4850 H   0  0  0  0  0  0  0  0  0  0  0  0
   37.9510   24.9820   35.9980 C   0  0  0  0  0  0  0  0  0  0  0  0
   37.3320   24.5740   35.2070 H   0  0  0  0  0  0  0  0  0  0  0  0
   37.3640   24.8370   36.9360 H   0  0  0  0  0  0  0  0  0  0  0  0
   37.8020   23.3370   38.4550 Cl  0  0  0  0  0  0  0  0  0  0  0  0
   39.1380   23.3830   37.3540 C   0  0  0  0  0  0  0  0  0  0  0  0
   39.1950   24.1550   36.2110 C   0  0  0  0  0  0  0  0  0  0  0  0
   40.2810   24.1620   35.3570 C   0  0  0  0  0  0  0  0  0  0  0  0
   40.2250   24.8050   34.4850 H   0  0  0  0  0  0  0  0  0  0  0  0
   41.3520   23.3530   35.6790 C   0  0  0  0  0  0  0  0  0  0  0  0
   42.1880   23.3780   34.9930 H   0  0  0  0  0  0  0  0  0  0  0  0
   41.3710   22.5530   36.8020 C   0  0  0  0  0  3  0  0  0  0  0  0
   40.2480   22.5810   37.6330 C   0  0  0  0  0  3  0  0  0  0  0  0
  1 13  1  0  0  0  0
  1  2  1  0  0  0  0
  1  3  1  0  0  0  0
  4  5  1  0  0  0  0
  5  6  2  0  0  0  0
  5 11  1  0  0  0  0
  6  1  1  0  0  0  0
  7  6  1  0  0  0  0
  8  7  2  0  0  0  0
  9  8  1  0  0  0  0
  9  4  2  0  0  0  0
 10  4  1  0  0  0  0
 12  8  1  0  0  0  0
 13 18  1  0  0  0  0
 13 15  1  0  0  0  0
 14 13  1  0  0  0  0
 17 24  1  0  0  0  0
 17 16  1  0  0  0  0
 18 17  2  0  0  0  0
 19 21  2  0  0  0  0
 19 18  1  0  0  0  0
 20 19  1  0  0  0  0
 21 23  1  0  0  0  0
 22 21  1  0  0  0  0
 23 24  2  0  0  0  0
M  END
>  <minimizedAffinity>
-4.36871958

$$$$

 OpenBabel03272509253D

 24 25  0  0  0  0  0  0  0  0999 V2000
   39.1030   24.9180   34.5410 C   0  0  0  0  0  0  0  0  0  0  0  0
   39.2660   26.0170   34.5180 H   0  0  0  0  0  0  0  0  0  0  0  0
   40.0720   24.5130   34.1380 H   0  0  0  0  0  0  0  0  0  0  0  0
   37.9660   24.2330   38.0820 C   0  0  0  0  0  0  0  0  0  0  0  0
   38.0410   24.7970   36.7870 C   0  0  0  0  0  0  0  0  0  0  0  0
   39.0000   24.3490   35.8980 C   0  0  0  0  0  0  0  0  0  0  0  0
   39.8400   23.3750   36.3130 N   0  0  0  0  0  0  0  0  0  0  0  0
   39.7780   22.8360   37.5370 C   0  0  0  0  0  0  0  0  0  0  0  0
   38.8390   23.2630   38.4290 N   0  0  0  0  0  0  0  0  0  0  0  0
   37.2120   24.5820   38.7920 H   0  0  0  0  0  0  0  0  0  0  0  0
   37.3310   25.5530   36.5770 H   0  0  0  0  0  0  0  0  0  0  0  0
   40.5150   22.0510   37.7580 H   0  0  0  0  0  0  0  0  0  0  0  0
   37.9770   24.4890   33.6340 C   0  0  0  0  0  0  0  0  0  0  0  0
   37.2880   23.7540   34.0320 H   0  0  0  0  0  0  0  0  0  0  0  0
   38.4490   24.0010   32.7480 H   0  0  0  0  0  0  0  0  0  0  0  0
   36.2550   23.7470   31.3430 Cl  0  0  0  0  0  0  0  0  0  0  0  0
   36.4410   25.3440   31.9860 C   0  0  0  0  0  0  0  0  0  0  0  0
   37.2490   25.6770   33.0560 C   0  0  0  0  0  0  0  0  0  0  0  0
   37.3690   26.9660   33.5390 C   0  0  0  0  0  0  0  0  0  0  0  0
   38.0300   27.1210   34.3850 H   0  0  0  0  0  0  0  0  0  0  0  0
   36.6400   27.9550   32.9100 C   0  0  0  0  0  0  0  0  0  0  0  0
   36.7530   28.9530   33.3090 H   0  0  0  0  0  0  0  0  0  0  0  0
   35.8120   27.7020   31.8370 C   0  0  0  0  0  3  0  0  0  0  0  0
   35.7240   26.3820   31.3860 C   0  0  0  0  0  3  0  0  0  0  0  0
  1  6  1  0  0  0  0
  2  1  1  0  0  0  0
  3  1  1  0  0  0  0
  4  9  1  0  0  0  0
  4 10  1  0  0  0  0
  5  4  2  0  0  0  0
  6  7  2  0  0  0  0
  6  5  1  0  0  0  0
  7  8  1  0  0  0  0
  8 12  1  0  0  0  0
  8  9  2  0  0  0  0
 11  5  1  0  0  0  0
 13 14  1  0  0  0  0
 13  1  1  0  0  0  0
 15 13  1  0  0  0  0
 16 17  1  0  0  0  0
 17 18  1  0  0  0  0
 18 19  2  0  0  0  0
 18 13  1  0  0  0  0
 19 20  1  0  0  0  0
 21 22  1  0  0  0  0
 21 19  1  0  0  0  0
 23 21  2  0  0  0  0
 24 23  1  0  0  0  0
 24 17  2  0  0  0  0
M  END
>  <minimizedAffinity>
-4.27900934

$$$$

 OpenBabel03272509253D

 24 25  0  0  0  0  0  0  0  0999 V2000
   38.5190   24.1100   33.6960 C   0  0  0  0  0  0  0  0  0  0  0  0
   39.5290   24.1580   33.2370 H   0  0  0  0  0  0  0  0  0  0  0  0
   38.5280   24.9760   34.4150 H   0  0  0  0  0  0  0  0  0  0  0  0
   35.9950   25.9860   31.5950 C   0  0  0  0  0  0  0  0  0  0  0  0
   37.0580   25.7220   32.4910 C   0  0  0  0  0  0  0  0  0  0  0  0
   37.4160   24.4160   32.7650 C   0  0  0  0  0  0  0  0  0  0  0  0
   36.7220   23.4290   32.1540 N   0  0  0  0  0  0  0  0  0  0  0  0
   35.7150   23.6680   31.3060 C   0  0  0  0  0  0  0  0  0  0  0  0
   35.3460   24.9510   31.0210 N   0  0  0  0  0  0  0  0  0  0  0  0
   35.7050   27.0160   31.3730 H   0  0  0  0  0  0  0  0  0  0  0  0
   37.5250   26.5750   32.9080 H   0  0  0  0  0  0  0  0  0  0  0  0
   35.2270   22.7840   30.8720 H   0  0  0  0  0  0  0  0  0  0  0  0
   38.3020   22.8330   34.4680 C   0  0  0  0  0  0  0  0  0  0  0  0
   38.8350   21.9580   34.1150 H   0  0  0  0  0  0  0  0  0  0  0  0
   37.2210   22.5790   34.3690 H   0  0  0  0  0  0  0  0  0  0  0  0
   40.9680   21.9340   35.3890 Cl  0  0  0  0  0  0  0  0  0  0  0  0
   39.7380   22.6270   36.3920 C   0  0  0  0  0  0  0  0  0  0  0  0
   38.4970   23.0420   35.9490 C   0  0  0  0  0  0  0  0  0  0  0  0
   37.5420   23.5910   36.7830 C   0  0  0  0  0  0  0  0  0  0  0  0
   36.6000   23.8860   36.3350 H   0  0  0  0  0  0  0  0  0  0  0  0
   37.8610   23.7230   38.1200 C   0  0  0  0  0  0  0  0  0  0  0  0
   37.0950   24.1560   38.7490 H   0  0  0  0  0  0  0  0  0  0  0  0
   39.0770   23.3320   38.6390 C   0  0  0  0  0  3  0  0  0  0  0  0
   40.0090   22.7830   37.7540 C   0  0  0  0  0  3  0  0  0  0  0  0
  1  3  1  0  0  0  0
  1 13  1  0  0  0  0
  2  1  1  0  0  0  0
  4  5  1  0  0  0  0
  5  6  2  0  0  0  0
  5 11  1  0  0  0  0
  6  1  1  0  0  0  0
  7  6  1  0  0  0  0
  8  7  2  0  0  0  0
  9  8  1  0  0  0  0
  9  4  2  0  0  0  0
 10  4  1  0  0  0  0
 12  8  1  0  0  0  0
 13 18  1  0  0  0  0
 14 13  1  0  0  0  0
 15 13  1  0  0  0  0
 16 17  1  0  0  0  0
 17 24  1  0  0  0  0
 18 17  2  0  0  0  0
 18 19  1  0  0  0  0
 19 21  2  0  0  0  0
 20 19  1  0  0  0  0
 21 23  1  0  0  0  0
 21 22  1  0  0  0  0
 24 23  2  0  0  0  0
M  END
>  <minimizedAffinity>
-4.23663998

$$$$

 OpenBabel03272509253D

 24 25  0  0  0  0  0  0  0  0999 V2000
   38.3530   26.9740   35.5770 C   0  0  0  0  0  0  0  0  0  0  0  0
   38.4990   27.6890   36.4130 H   0  0  0  0  0  0  0  0  0  0  0  0
   39.1600   27.2710   34.8500 H   0  0  0  0  0  0  0  0  0  0  0  0
   39.8710   23.5100   35.5470 C   0  0  0  0  0  0  0  0  0  0  0  0
   39.5970   24.8540   35.1980 C   0  0  0  0  0  0  0  0  0  0  0  0
   38.6610   25.5720   35.9180 C   0  0  0  0  0  0  0  0  0  0  0  0
   38.0370   24.9480   36.9420 N   0  0  0  0  0  0  0  0  0  0  0  0
   38.2890   23.6780   37.2790 C   0  0  0  0  0  0  0  0  0  0  0  0
   39.2090   22.9510   36.5820 N   0  0  0  0  0  0  0  0  0  0  0  0
   40.6090   22.9340   34.9830 H   0  0  0  0  0  0  0  0  0  0  0  0
   40.1460   25.2330   34.3770 H   0  0  0  0  0  0  0  0  0  0  0  0
   37.7180   23.2800   38.1310 H   0  0  0  0  0  0  0  0  0  0  0  0
   37.0100   27.1380   34.9110 C   0  0  0  0  0  0  0  0  0  0  0  0
   36.2550   27.6780   35.4720 H   0  0  0  0  0  0  0  0  0  0  0  0
   36.5950   26.1120   34.7710 H   0  0  0  0  0  0  0  0  0  0  0  0
   34.9860   29.2080   34.2940 Cl  0  0  0  0  0  0  0  0  0  0  0  0
   36.2100   28.6420   33.2080 C   0  0  0  0  0  0  0  0  0  0  0  0
   37.1490   27.6750   33.5090 C   0  0  0  0  0  0  0  0  0  0  0  0
   38.1110   27.2510   32.6120 C   0  0  0  0  0  0  0  0  0  0  0  0
   38.8020   26.4860   32.9490 H   0  0  0  0  0  0  0  0  0  0  0  0
   38.1190   27.8320   31.3600 C   0  0  0  0  0  0  0  0  0  0  0  0
   38.8820   27.4810   30.6800 H   0  0  0  0  0  0  0  0  0  0  0  0
   37.2160   28.8040   30.9840 C   0  0  0  0  0  3  0  0  0  0  0  0
   36.2630   29.1990   31.9270 C   0  0  0  0  0  3  0  0  0  0  0  0
  1  6  1  0  0  0  0
  1  2  1  0  0  0  0
  3  1  1  0  0  0  0
  4  9  1  0  0  0  0
  5  4  2  0  0  0  0
  5  6  1  0  0  0  0
  6  7  2  0  0  0  0
  7  8  1  0  0  0  0
  8 12  1  0  0  0  0
  9  8  2  0  0  0  0
 10  4  1  0  0  0  0
 11  5  1  0  0  0  0
 13 14  1  0  0  0  0
 13  1  1  0  0  0  0
 15 13  1  0  0  0  0
 17 18  1  0  0  0  0
 17 16  1  0  0  0  0
 18 13  1  0  0  0  0
 19 20  1  0  0  0  0
 19 18  2  0  0  0  0
 21 19  1  0  0  0  0
 22 21  1  0  0  0  0
 23 21  2  0  0  0  0
 23 24  1  0  0  0  0
 24 17  2  0  0  0  0
M  END
>  <minimizedAffinity>
-4.22448635

$$$$
