
 OpenBabel03272510293D

 28 30  0  0  0  0  0  0  0  0999 V2000
   37.5300   31.5060   49.3980 C   0  0  0  0  0  0  0  0  0  0  0  0
   37.8840   32.8080   49.7640 C   0  0  0  0  0  0  0  0  0  0  0  0
   38.7250   33.4690   48.8970 C   0  0  0  0  0  0  0  0  0  0  0  0
   39.1520   32.8470   47.7710 N   0  0  0  0  0  0  0  0  0  0  0  0
   38.7980   31.5850   47.4310 C   0  0  0  0  0  0  0  0  0  0  0  0
   37.9620   30.9020   48.2770 N   0  0  0  0  0  0  0  0  0  0  0  0
   37.4870   33.2050   50.6820 H   0  0  0  0  0  0  0  0  0  0  0  0
   39.0250   34.4800   49.1440 H   0  0  0  0  0  0  0  0  0  0  0  0
   36.5870   30.7620   50.3090 C   0  0  0  0  0  0  0  0  0  0  0  0
   36.5600   29.3240   50.3910 C   0  0  0  0  0  0  0  0  0  0  0  0
   37.3170   30.0730   51.4700 C   0  0  0  0  0  0  0  0  0  0  0  0
   35.6890   31.3460   50.6810 H   0  0  0  0  0  0  0  0  0  0  0  0
   37.2060   28.7660   49.6520 H   0  0  0  0  0  0  0  0  0  0  0  0
   35.6450   28.7780   50.6280 H   0  0  0  0  0  0  0  0  0  0  0  0
   36.8170   30.0350   52.4640 H   0  0  0  0  0  0  0  0  0  0  0  0
   38.4160   30.0040   51.4350 H   0  0  0  0  0  0  0  0  0  0  0  0
   39.2250   30.8830   46.2230 C   0  0  0  0  0  0  0  0  0  0  0  0
   38.8230   29.8380   46.2570 H   0  0  0  0  0  0  0  0  0  0  0  0
   40.3310   30.8040   46.2410 H   0  0  0  0  0  0  0  0  0  0  0  0
   36.4110   30.4820   45.1320 Cl  0  0  0  0  0  0  0  0  0  0  0  0
   37.6260   31.4720   44.3510 C   0  0  0  0  0  0  0  0  0  0  0  0
   38.8580   31.5570   44.9650 C   0  0  0  0  0  0  0  0  0  0  0  0
   39.7710   32.3640   44.2790 C   0  0  0  0  0  0  0  0  0  0  0  0
   40.7610   32.4570   44.7350 H   0  0  0  0  0  0  0  0  0  0  0  0
   39.5410   33.0430   43.0970 C   0  0  0  0  0  0  0  0  0  0  0  0
   40.3470   33.6310   42.6830 H   0  0  0  0  0  0  0  0  0  0  0  0
   38.2760   32.9040   42.5440 C   0  0  0  0  0  3  0  0  0  0  0  0
   37.3130   32.1160   43.1710 C   0  0  0  0  0  3  0  0  0  0  0  0
  1  2  1  0  0  0  0
  1  9  1  0  0  0  0
  2  7  1  0  0  0  0
  3  8  1  0  0  0  0
  3  2  2  0  0  0  0
  4  3  1  0  0  0  0
  5  4  2  0  0  0  0
  5  6  1  0  0  0  0
  6  1  2  0  0  0  0
  9 10  1  0  0  0  0
  9 12  1  0  0  0  0
  9 11  1  0  0  0  0
 10 14  1  0  0  0  0
 10 11  1  0  0  0  0
 11 15  1  0  0  0  0
 13 10  1  0  0  0  0
 16 11  1  0  0  0  0
 17 19  1  0  0  0  0
 17 18  1  0  0  0  0
 17  5  1  0  0  0  0
 21 22  1  0  0  0  0
 21 20  1  0  0  0  0
 22 17  1  0  0  0  0
 23 24  1  0  0  0  0
 23 22  2  0  0  0  0
 25 23  1  0  0  0  0
 26 25  1  0  0  0  0
 27 25  2  0  0  0  0
 27 28  1  0  0  0  0
 28 21  2  0  0  0  0
M  END
>  <minimizedAffinity>
-5.52378511

>  <minimizedRMSD>
1.19363225

$$$$
