
 OpenBabel03272507573D

 32 34  0  0  0  0  0  0  0  0999 V2000
   37.0400   30.8240   47.8810 C   0  0  0  0  0  0  0  0  0  0  0  0
   37.4780   31.8980   48.6320 C   0  0  0  0  0  0  0  0  0  0  0  0
   38.5170   32.6820   48.1500 C   0  0  0  0  0  0  0  0  0  0  0  0
   39.0930   32.3720   46.9250 C   0  0  0  0  0  0  0  0  0  0  0  0
   38.6290   31.2960   46.2100 C   0  0  0  0  0  0  0  0  0  0  0  0
   37.6230   30.5630   46.7090 N   0  0  0  0  0  0  0  0  0  0  0  0
   37.1070   32.2420   49.6040 H   0  0  0  0  0  0  0  0  0  0  0  0
   38.9060   33.5370   48.6910 H   0  0  0  0  0  0  0  0  0  0  0  0
   39.8940   32.9930   46.5750 H   0  0  0  0  0  0  0  0  0  0  0  0
   35.0270   28.9140   50.4230 C   0  0  0  0  0  0  0  0  0  0  0  0
   36.1130   29.6100   49.8240 C   0  0  0  0  0  0  0  0  0  0  0  0
   35.9460   30.1040   48.5280 C   0  0  0  0  0  0  0  0  0  0  0  0
   34.7470   29.8890   47.9110 N   0  0  0  0  0  0  0  0  0  0  0  0
   33.7340   29.2160   48.5260 C   0  0  0  0  0  0  0  0  0  0  0  0
   33.8730   28.7360   49.7630 N   0  0  0  0  0  0  0  0  0  0  0  0
   32.5960   29.1240   47.6830 N   0  0  0  0  0  0  0  0  0  0  0  0
   35.1500   28.5260   51.4340 H   0  0  0  0  0  0  0  0  0  0  0  0
   32.6050   28.2150   47.1660 H   0  0  0  0  0  0  0  0  0  0  0  0
   31.9070   29.9290   47.6690 H   0  0  0  0  0  0  0  0  0  0  0  0
   37.3710   29.7820   50.5980 C   0  0  0  0  0  0  0  0  0  0  0  0
   38.4840   29.6530   49.7930 F   0  0  0  0  0  0  0  0  0  0  0  0
   37.3750   31.0440   51.1420 F   0  0  0  0  0  0  0  0  0  0  0  0
   37.4860   28.8870   51.6380 F   0  0  0  0  0  0  0  0  0  0  0  0
   39.8020   33.5480   44.7040 Cl  0  0  0  0  0  0  0  0  0  0  0  0
   39.7810   31.8810   44.1090 C   0  0  0  0  0  0  0  0  0  0  0  0
   39.1980   30.9270   44.9190 C   0  0  0  0  0  0  0  0  0  0  0  0
   39.2180   29.6540   44.3930 C   0  0  0  0  0  0  0  0  0  0  0  0
   38.7790   28.8540   44.9720 H   0  0  0  0  0  0  0  0  0  0  0  0
   39.7690   29.3570   43.1680 C   0  0  0  0  0  0  0  0  0  0  0  0
   39.7360   28.3190   42.8360 H   0  0  0  0  0  0  0  0  0  0  0  0
   40.3390   30.3440   42.3960 C   0  0  0  0  0  0  0  0  0  0  0  0
   40.3390   31.6300   42.8860 C   0  0  0  0  0  0  0  0  0  0  0  0
  1 12  1  0  0  0  0
  1  2  1  0  0  0  0
  2  7  1  0  0  0  0
  3  2  2  0  0  0  0
  3  8  1  0  0  0  0
  4  3  1  0  0  0  0
  5  6  1  0  0  0  0
  5  4  2  0  0  0  0
  6  1  2  0  0  0  0
  9  4  1  0  0  0  0
 10 17  1  0  0  0  0
 11 10  1  0  0  0  0
 11 20  1  0  0  0  0
 12 11  2  0  0  0  0
 13 14  2  0  0  0  0
 13 12  1  0  0  0  0
 14 15  1  0  0  0  0
 15 10  2  0  0  0  0
 16 14  1  0  0  0  0
 18 16  1  0  0  0  0
 19 16  1  0  0  0  0
 20 22  1  0  0  0  0
 20 23  1  0  0  0  0
 21 20  1  0  0  0  0
 25 24  1  0  0  0  0
 25 26  1  0  0  0  0
 26  5  1  0  0  0  0
 27 26  2  0  0  0  0
 27 28  1  0  0  0  0
 29 27  1  0  0  0  0
 30 29  1  0  0  0  0
 31 32  1  0  0  0  0
 31 29  2  0  0  0  0
 32 25  2  0  0  0  0
M  END
>  <minimizedAffinity>
-7.13303566

>  <minimizedRMSD>
1.73394787

$$$$
