
 OpenBabel03272502403D

 40 43  0  0  1  0  0  0  0  0999 V2000
   39.1230   24.9990   34.0530 N   0  0  0  0  0  0  0  0  0  0  0  0
   39.2490   24.7880   32.6210 C   0  0  0  0  0  0  0  0  0  0  0  0
   38.2510   25.7490   32.0460 C   0  0  0  0  0  0  0  0  0  0  0  0
   37.4620   26.3180   33.3010 C   0  0  1  0  0  0  0  0  0  0  0  0
   38.5480   26.3410   34.2860 C   0  0  0  0  0  0  0  0  0  0  0  0
   40.2590   25.0580   32.2420 H   0  0  0  0  0  0  0  0  0  0  0  0
   38.9990   23.7340   32.4200 H   0  0  0  0  0  0  0  0  0  0  0  0
   38.6790   26.6010   31.5030 H   0  0  0  0  0  0  0  0  0  0  0  0
   37.5120   25.2130   31.4330 H   0  0  0  0  0  0  0  0  0  0  0  0
   36.7050   25.5290   33.3990 H   0  0  0  0  0  0  0  0  0  0  0  0
   39.2920   27.1190   34.1100 H   0  0  0  0  0  0  0  0  0  0  0  0
   38.1800   26.3990   35.3450 H   0  0  0  0  0  0  0  0  0  0  0  0
   36.1490   27.9280   35.2360 F   0  0  0  0  0  0  0  0  0  0  0  0
   36.3410   28.3390   33.9670 C   0  0  0  0  0  0  0  0  0  0  0  0
   36.8960   27.6210   32.9380 C   0  0  0  0  0  0  0  0  0  0  0  0
   36.9770   28.2170   31.6670 C   0  0  0  0  0  0  0  0  0  0  0  0
   36.5190   29.4950   31.4370 C   0  0  0  0  0  0  0  0  0  0  0  0
   35.9590   30.2140   32.4920 C   0  0  0  0  0  0  0  0  0  0  0  0
   35.8740   29.6220   33.7620 C   0  0  0  0  0  0  0  0  0  0  0  0
   37.4270   27.5730   30.9240 H   0  0  0  0  0  0  0  0  0  0  0  0
   36.6350   29.8500   30.4240 H   0  0  0  0  0  0  0  0  0  0  0  0
   35.6170   31.1960   32.2710 H   0  0  0  0  0  0  0  0  0  0  0  0
   32.9530   29.3050   33.8500 Cl  0  0  0  0  0  0  0  0  0  0  0  0
   33.8960   30.3700   34.9020 C   0  0  0  0  0  0  0  0  0  0  0  0
   35.2710   30.4570   34.7920 C   0  0  0  0  0  0  0  0  0  0  0  0
   35.9420   31.3090   35.6460 C   0  0  0  0  0  0  0  0  0  0  0  0
   37.0150   31.3520   35.5320 H   0  0  0  0  0  0  0  0  0  0  0  0
   35.2350   32.0520   36.5880 C   0  0  0  0  0  0  0  0  0  0  0  0
   35.7800   32.7160   37.2520 H   0  0  0  0  0  0  0  0  0  0  0  0
   33.8520   31.9280   36.6590 C   0  0  0  0  0  3  0  0  0  0  0  0
   33.1510   31.0770   35.8100 C   0  0  0  0  0  3  0  0  0  0  0  0
   39.4690   24.0990   35.0840 C   0  0  0  0  0  0  0  0  0  0  0  0
   38.6160   24.0870   36.1970 C   0  0  0  0  0  0  0  0  0  0  0  0
   38.9120   23.2230   37.2630 C   0  0  0  0  0  0  0  0  0  0  0  0
   40.0420   22.4400   37.1250 N   0  0  0  0  0  0  0  0  0  0  0  0
   40.8310   22.4830   36.0420 C   0  0  0  0  0  0  0  0  0  0  0  0
   40.5310   23.3160   35.0340 N   0  0  0  0  0  0  0  0  0  0  0  0
   37.7360   24.6760   36.3370 H   0  0  0  0  0  0  0  0  0  0  0  0
   38.2860   23.1780   38.1390 H   0  0  0  0  0  0  0  0  0  0  0  0
   41.7060   21.8520   35.9780 H   0  0  0  0  0  0  0  0  0  0  0  0
  1  5  1  0  0  0  0
  1 32  1  0  0  0  0
  2  1  1  0  0  0  0
  3  2  1  0  0  0  0
  3  4  1  0  0  0  0
  4 10  1  1  0  0  0
  4  5  1  0  0  0  0
  5 12  1  0  0  0  0
  6  2  1  0  0  0  0
  7  2  1  0  0  0  0
  8  3  1  0  0  0  0
  9  3  1  0  0  0  0
 11  5  1  0  0  0  0
 14 13  1  0  0  0  0
 15  4  1  0  0  0  0
 15 14  2  0  0  0  0
 16 15  1  0  0  0  0
 17 16  2  0  0  0  0
 17 18  1  0  0  0  0
 18 19  2  0  0  0  0
 19 14  1  0  0  0  0
 19 25  1  0  0  0  0
 20 16  1  0  0  0  0
 21 17  1  0  0  0  0
 22 18  1  0  0  0  0
 23 24  1  0  0  0  0
 24 31  1  0  0  0  0
 25 24  2  0  0  0  0
 25 26  1  0  0  0  0
 26 28  2  0  0  0  0
 27 26  1  0  0  0  0
 28 30  1  0  0  0  0
 28 29  1  0  0  0  0
 31 30  2  0  0  0  0
 32 33  1  0  0  0  0
 33 38  1  0  0  0  0
 33 34  2  0  0  0  0
 34 39  1  0  0  0  0
 35 34  1  0  0  0  0
 36 35  2  0  0  0  0
 37 32  2  0  0  0  0
 37 36  1  0  0  0  0
 40 36  1  0  0  0  0
M  END
>  <minimizedAffinity>
-6.16295862

$$$$

 OpenBabel03272502403D

 40 43  0  0  1  0  0  0  0  0999 V2000
   35.6050   29.9660   33.4910 N   0  0  0  0  0  0  0  0  0  0  0  0
   35.8840   29.9360   32.0660 C   0  0  0  0  0  0  0  0  0  0  0  0
   36.7070   28.6920   31.9050 C   0  0  0  0  0  0  0  0  0  0  0  0
   36.9980   28.2010   33.3870 C   0  0  1  0  0  0  0  0  0  0  0  0
   35.7410   28.5960   34.0300 C   0  0  0  0  0  0  0  0  0  0  0  0
   34.9600   29.8280   31.4560 H   0  0  0  0  0  0  0  0  0  0  0  0
   36.4390   30.8550   31.8180 H   0  0  0  0  0  0  0  0  0  0  0  0
   36.2160   27.8700   31.3700 H   0  0  0  0  0  0  0  0  0  0  0  0
   37.6840   28.9320   31.4620 H   0  0  0  0  0  0  0  0  0  0  0  0
   37.8870   28.8100   33.5970 H   0  0  0  0  0  0  0  0  0  0  0  0
   34.8850   27.9800   33.7490 H   0  0  0  0  0  0  0  0  0  0  0  0
   35.8170   28.6520   35.1480 H   0  0  0  0  0  0  0  0  0  0  0  0
   38.1760   26.8880   35.6120 F   0  0  0  0  0  0  0  0  0  0  0  0
   37.7900   26.2240   34.5050 C   0  0  0  0  0  0  0  0  0  0  0  0
   37.2790   26.7620   33.3510 C   0  0  0  0  0  0  0  0  0  0  0  0
   36.9660   25.9000   32.2850 C   0  0  0  0  0  0  0  0  0  0  0  0
   37.1580   24.5400   32.3760 C   0  0  0  0  0  0  0  0  0  0  0  0
   37.6770   24.0060   33.5540 C   0  0  0  0  0  0  0  0  0  0  0  0
   37.9910   24.8630   34.6200 C   0  0  0  0  0  0  0  0  0  0  0  0
   36.5720   26.4190   31.4210 H   0  0  0  0  0  0  0  0  0  0  0  0
   36.8810   23.9770   31.4970 H   0  0  0  0  0  0  0  0  0  0  0  0
   37.8100   22.9510   33.5820 H   0  0  0  0  0  0  0  0  0  0  0  0
   40.8020   24.0860   34.2540 Cl  0  0  0  0  0  0  0  0  0  0  0  0
   39.8480   23.8040   35.7170 C   0  0  0  0  0  0  0  0  0  0  0  0
   38.5280   24.2040   35.8030 C   0  0  0  0  0  0  0  0  0  0  0  0
   37.8440   23.9510   36.9750 C   0  0  0  0  0  0  0  0  0  0  0  0
   36.8150   24.2770   37.0070 H   0  0  0  0  0  0  0  0  0  0  0  0
   38.4850   23.3090   38.0310 C   0  0  0  0  0  0  0  0  0  0  0  0
   37.9310   23.1180   38.9460 H   0  0  0  0  0  0  0  0  0  0  0  0
   39.8140   22.9260   37.8940 C   0  0  0  0  0  3  0  0  0  0  0  0
   40.5270   23.1690   36.7240 C   0  0  0  0  0  3  0  0  0  0  0  0
   35.2670   31.0910   34.2730 C   0  0  0  0  0  0  0  0  0  0  0  0
   35.7250   31.0740   35.5990 C   0  0  0  0  0  0  0  0  0  0  0  0
   35.4110   32.1590   36.4330 C   0  0  0  0  0  0  0  0  0  0  0  0
   34.6630   33.1750   35.8680 N   0  0  0  0  0  0  0  0  0  0  0  0
   34.2470   33.1500   34.5930 C   0  0  0  0  0  0  0  0  0  0  0  0
   34.5570   32.1050   33.8120 N   0  0  0  0  0  0  0  0  0  0  0  0
   36.3030   30.3090   36.0680 H   0  0  0  0  0  0  0  0  0  0  0  0
   35.7400   32.1910   37.4590 H   0  0  0  0  0  0  0  0  0  0  0  0
   33.6640   33.9680   34.1940 H   0  0  0  0  0  0  0  0  0  0  0  0
  1  5  1  0  0  0  0
  1 32  1  0  0  0  0
  2  1  1  0  0  0  0
  3  2  1  0  0  0  0
  3  4  1  0  0  0  0
  4 10  1  1  0  0  0
  4  5  1  0  0  0  0
  5 12  1  0  0  0  0
  6  2  1  0  0  0  0
  7  2  1  0  0  0  0
  8  3  1  0  0  0  0
  9  3  1  0  0  0  0
 11  5  1  0  0  0  0
 14 19  1  0  0  0  0
 14 13  1  0  0  0  0
 15  4  1  0  0  0  0
 15 14  2  0  0  0  0
 16 17  2  0  0  0  0
 16 15  1  0  0  0  0
 17 18  1  0  0  0  0
 18 22  1  0  0  0  0
 18 19  2  0  0  0  0
 19 25  1  0  0  0  0
 20 16  1  0  0  0  0
 21 17  1  0  0  0  0
 23 24  1  0  0  0  0
 24 25  2  0  0  0  0
 24 31  1  0  0  0  0
 25 26  1  0  0  0  0
 26 27  1  0  0  0  0
 26 28  2  0  0  0  0
 28 29  1  0  0  0  0
 30 28  1  0  0  0  0
 31 30  2  0  0  0  0
 32 33  1  0  0  0  0
 33 38  1  0  0  0  0
 33 34  2  0  0  0  0
 34 39  1  0  0  0  0
 35 34  1  0  0  0  0
 36 35  2  0  0  0  0
 37 32  2  0  0  0  0
 37 36  1  0  0  0  0
 40 36  1  0  0  0  0
M  END
>  <minimizedAffinity>
-5.97346592

$$$$

 OpenBabel03272502403D

 40 43  0  0  1  0  0  0  0  0999 V2000
   37.7200   25.6980   32.6550 N   0  0  0  0  0  0  0  0  0  0  0  0
   37.9410   25.9220   31.2370 C   0  0  0  0  0  0  0  0  0  0  0  0
   37.2090   27.2060   30.9760 C   0  0  0  0  0  0  0  0  0  0  0  0
   36.4290   27.5110   32.3250 C   0  0  1  0  0  0  0  0  0  0  0  0
   37.3970   26.9910   33.2950 C   0  0  0  0  0  0  0  0  0  0  0  0
   39.0160   26.0730   30.9950 H   0  0  0  0  0  0  0  0  0  0  0  0
   37.5110   25.0640   30.6960 H   0  0  0  0  0  0  0  0  0  0  0  0
   37.8450   28.0710   30.7530 H   0  0  0  0  0  0  0  0  0  0  0  0
   36.4430   27.0610   30.2020 H   0  0  0  0  0  0  0  0  0  0  0  0
   35.5270   26.9130   32.1390 H   0  0  0  0  0  0  0  0  0  0  0  0
   38.2930   27.6050   33.4040 H   0  0  0  0  0  0  0  0  0  0  0  0
   36.9470   26.7930   34.3040 H   0  0  0  0  0  0  0  0  0  0  0  0
   35.1720   28.6620   34.5960 F   0  0  0  0  0  0  0  0  0  0  0  0
   35.6110   29.4060   33.5600 C   0  0  0  0  0  0  0  0  0  0  0  0
   36.1640   28.9520   32.3900 C   0  0  0  0  0  0  0  0  0  0  0  0
   36.5300   29.8900   31.4080 C   0  0  0  0  0  0  0  0  0  0  0  0
   36.3480   31.2420   31.5980 C   0  0  0  0  0  0  0  0  0  0  0  0
   35.7850   31.6890   32.7920 C   0  0  0  0  0  0  0  0  0  0  0  0
   35.4170   30.7560   33.7740 C   0  0  0  0  0  0  0  0  0  0  0  0
   36.9540   29.4350   30.5240 H   0  0  0  0  0  0  0  0  0  0  0  0
   36.6670   31.8680   30.7770 H   0  0  0  0  0  0  0  0  0  0  0  0
   35.6610   32.7400   32.8960 H   0  0  0  0  0  0  0  0  0  0  0  0
   32.4790   30.7200   33.6960 Cl  0  0  0  0  0  0  0  0  0  0  0  0
   33.4570   31.3510   35.0280 C   0  0  0  0  0  0  0  0  0  0  0  0
   34.8380   31.3280   34.9820 C   0  0  0  0  0  0  0  0  0  0  0  0
   35.5370   31.8380   36.0570 C   0  0  0  0  0  0  0  0  0  0  0  0
   36.6140   31.8040   35.9870 H   0  0  0  0  0  0  0  0  0  0  0  0
   34.8500   32.3570   37.1520 C   0  0  0  0  0  0  0  0  0  0  0  0
   35.4160   32.7530   37.9900 H   0  0  0  0  0  0  0  0  0  0  0  0
   33.4600   32.3570   37.1500 C   0  0  0  0  0  3  0  0  0  0  0  0
   32.7310   31.8490   36.0790 C   0  0  0  0  0  3  0  0  0  0  0  0
   37.7840   24.4690   33.3460 C   0  0  0  0  0  0  0  0  0  0  0  0
   37.4010   23.3350   32.6150 C   0  0  0  0  0  0  0  0  0  0  0  0
   37.4290   22.0830   33.2490 C   0  0  0  0  0  0  0  0  0  0  0  0
   37.8420   22.0700   34.5680 N   0  0  0  0  0  0  0  0  0  0  0  0
   38.2010   23.1800   35.2300 C   0  0  0  0  0  0  0  0  0  0  0  0
   38.1660   24.3670   34.6060 N   0  0  0  0  0  0  0  0  0  0  0  0
   37.0780   23.3080   31.5970 H   0  0  0  0  0  0  0  0  0  0  0  0
   37.1440   21.1840   32.7280 H   0  0  0  0  0  0  0  0  0  0  0  0
   38.5170   23.1210   36.2620 H   0  0  0  0  0  0  0  0  0  0  0  0
  1  5  1  0  0  0  0
  1 32  1  0  0  0  0
  2  1  1  0  0  0  0
  3  2  1  0  0  0  0
  3  4  1  0  0  0  0
  4 10  1  1  0  0  0
  4 15  1  0  0  0  0
  4  5  1  0  0  0  0
  5 11  1  0  0  0  0
  5 12  1  0  0  0  0
  6  2  1  0  0  0  0
  7  2  1  0  0  0  0
  8  3  1  0  0  0  0
  9  3  1  0  0  0  0
 14 19  1  0  0  0  0
 14 13  1  0  0  0  0
 15 14  2  0  0  0  0
 16 17  2  0  0  0  0
 16 15  1  0  0  0  0
 17 18  1  0  0  0  0
 18 22  1  0  0  0  0
 18 19  2  0  0  0  0
 19 25  1  0  0  0  0
 20 16  1  0  0  0  0
 21 17  1  0  0  0  0
 23 24  1  0  0  0  0
 24 31  1  0  0  0  0
 25 24  2  0  0  0  0
 25 26  1  0  0  0  0
 26 28  2  0  0  0  0
 27 26  1  0  0  0  0
 28 29  1  0  0  0  0
 30 28  1  0  0  0  0
 31 30  2  0  0  0  0
 32 37  1  0  0  0  0
 33 34  1  0  0  0  0
 33 32  2  0  0  0  0
 34 35  2  0  0  0  0
 35 36  1  0  0  0  0
 36 40  1  0  0  0  0
 37 36  2  0  0  0  0
 38 33  1  0  0  0  0
 39 34  1  0  0  0  0
M  END
>  <minimizedAffinity>
-5.95876217

$$$$

 OpenBabel03272502403D

 40 43  0  0  1  0  0  0  0  0999 V2000
   38.0980   26.0130   33.8970 N   0  0  0  0  0  0  0  0  0  0  0  0
   38.6830   26.2030   32.5810 C   0  0  0  0  0  0  0  0  0  0  0  0
   37.8340   27.2870   31.9840 C   0  0  0  0  0  0  0  0  0  0  0  0
   36.6460   27.4910   33.0180 C   0  0  1  0  0  0  0  0  0  0  0  0
   37.3630   27.2400   34.2720 C   0  0  0  0  0  0  0  0  0  0  0  0
   39.7330   26.5660   32.6340 H   0  0  0  0  0  0  0  0  0  0  0  0
   38.6010   25.2460   32.0430 H   0  0  0  0  0  0  0  0  0  0  0  0
   38.3340   28.2540   31.8510 H   0  0  0  0  0  0  0  0  0  0  0  0
   37.3730   26.9420   31.0480 H   0  0  0  0  0  0  0  0  0  0  0  0
   35.9690   26.7070   32.6560 H   0  0  0  0  0  0  0  0  0  0  0  0
   38.0550   28.0360   34.5560 H   0  0  0  0  0  0  0  0  0  0  0  0
   36.6800   27.0060   35.1310 H   0  0  0  0  0  0  0  0  0  0  0  0
   34.8350   28.5960   34.9040 F   0  0  0  0  0  0  0  0  0  0  0  0
   35.2930   29.2980   33.8480 C   0  0  0  0  0  0  0  0  0  0  0  0
   36.1100   28.8440   32.8430 C   0  0  0  0  0  0  0  0  0  0  0  0
   36.4520   29.7260   31.8030 C   0  0  0  0  0  0  0  0  0  0  0  0
   35.9910   31.0230   31.7740 C   0  0  0  0  0  0  0  0  0  0  0  0
   35.1630   31.4710   32.8020 C   0  0  0  0  0  0  0  0  0  0  0  0
   34.8180   30.5940   33.8420 C   0  0  0  0  0  0  0  0  0  0  0  0
   37.0950   29.2760   31.0590 H   0  0  0  0  0  0  0  0  0  0  0  0
   36.3190   31.6090   30.9280 H   0  0  0  0  0  0  0  0  0  0  0  0
   34.8290   32.4790   32.7410 H   0  0  0  0  0  0  0  0  0  0  0  0
   36.3570   31.8610   36.0020 Cl  0  0  0  0  0  0  0  0  0  0  0  0
   34.5910   31.7780   35.9200 C   0  0  0  0  0  0  0  0  0  0  0  0
   33.9480   31.1610   34.8640 C   0  0  0  0  0  0  0  0  0  0  0  0
   32.5680   31.1330   34.8650 C   0  0  0  0  0  0  0  0  0  0  0  0
   32.0990   30.6430   34.0250 H   0  0  0  0  0  0  0  0  0  0  0  0
   31.8600   31.7170   35.9130 C   0  0  0  0  0  0  0  0  0  0  0  0
   30.7750   31.6870   35.8970 H   0  0  0  0  0  0  0  0  0  0  0  0
   32.5550   32.3260   36.9520 C   0  0  0  0  0  3  0  0  0  0  0  0
   33.9450   32.3680   36.9750 C   0  0  0  0  0  3  0  0  0  0  0  0
   38.1820   24.8640   34.7130 C   0  0  0  0  0  0  0  0  0  0  0  0
   37.9570   25.0690   36.0820 C   0  0  0  0  0  0  0  0  0  0  0  0
   38.0390   23.9690   36.9500 C   0  0  0  0  0  0  0  0  0  0  0  0
   38.3400   22.7500   36.3730 N   0  0  0  0  0  0  0  0  0  0  0  0
   38.5480   22.5990   35.0560 C   0  0  0  0  0  0  0  0  0  0  0  0
   38.4650   23.6630   34.2440 N   0  0  0  0  0  0  0  0  0  0  0  0
   37.7220   25.9930   36.5620 H   0  0  0  0  0  0  0  0  0  0  0  0
   37.8730   24.0760   38.0100 H   0  0  0  0  0  0  0  0  0  0  0  0
   38.7810   21.6250   34.6490 H   0  0  0  0  0  0  0  0  0  0  0  0
  1  5  1  0  0  0  0
  1 32  1  0  0  0  0
  2  6  1  0  0  0  0
  2  1  1  0  0  0  0
  3  2  1  0  0  0  0
  3  4  1  0  0  0  0
  4 10  1  6  0  0  0
  4  5  1  0  0  0  0
  5 11  1  0  0  0  0
  5 12  1  0  0  0  0
  7  2  1  0  0  0  0
  8  3  1  0  0  0  0
  9  3  1  0  0  0  0
 14 13  1  0  0  0  0
 15  4  1  0  0  0  0
 15 14  2  0  0  0  0
 16 15  1  0  0  0  0
 17 16  2  0  0  0  0
 17 18  1  0  0  0  0
 18 19  2  0  0  0  0
 19 14  1  0  0  0  0
 19 25  1  0  0  0  0
 20 16  1  0  0  0  0
 21 17  1  0  0  0  0
 22 18  1  0  0  0  0
 24 23  1  0  0  0  0
 24 31  1  0  0  0  0
 25 26  1  0  0  0  0
 25 24  2  0  0  0  0
 26 28  2  0  0  0  0
 27 26  1  0  0  0  0
 28 30  1  0  0  0  0
 29 28  1  0  0  0  0
 30 31  2  0  0  0  0
 32 33  1  0  0  0  0
 33 38  1  0  0  0  0
 33 34  2  0  0  0  0
 34 39  1  0  0  0  0
 35 34  1  0  0  0  0
 36 35  2  0  0  0  0
 37 32  2  0  0  0  0
 37 36  1  0  0  0  0
 40 36  1  0  0  0  0
M  END
>  <minimizedAffinity>
-5.86543798

$$$$

 OpenBabel03272502403D

 40 43  0  0  1  0  0  0  0  0999 V2000
   35.6620   29.3150   33.9960 N   0  0  0  0  0  0  0  0  0  0  0  0
   35.9750   29.4550   32.5840 C   0  0  0  0  0  0  0  0  0  0  0  0
   36.8940   28.2990   32.3220 C   0  0  0  0  0  0  0  0  0  0  0  0
   37.1880   27.6790   33.7550 C   0  0  1  0  0  0  0  0  0  0  0  0
   35.8900   27.9100   34.3960 C   0  0  0  0  0  0  0  0  0  0  0  0
   35.0760   29.3440   31.9390 H   0  0  0  0  0  0  0  0  0  0  0  0
   36.4630   30.4330   32.4490 H   0  0  0  0  0  0  0  0  0  0  0  0
   36.4800   27.5030   31.6910 H   0  0  0  0  0  0  0  0  0  0  0  0
   37.8600   28.6550   31.9360 H   0  0  0  0  0  0  0  0  0  0  0  0
   38.0230   28.3260   34.0530 H   0  0  0  0  0  0  0  0  0  0  0  0
   35.0900   27.2660   34.0260 H   0  0  0  0  0  0  0  0  0  0  0  0
   35.9360   27.8550   35.5160 H   0  0  0  0  0  0  0  0  0  0  0  0
   39.0580   26.4560   35.5060 F   0  0  0  0  0  0  0  0  0  0  0  0
   38.4400   25.7730   34.5210 C   0  0  0  0  0  0  0  0  0  0  0  0
   37.5780   26.2760   33.5790 C   0  0  0  0  0  0  0  0  0  0  0  0
   37.0590   25.4040   32.6060 C   0  0  0  0  0  0  0  0  0  0  0  0
   37.3940   24.0680   32.5820 C   0  0  0  0  0  0  0  0  0  0  0  0
   38.2700   23.5710   33.5450 C   0  0  0  0  0  0  0  0  0  0  0  0
   38.7900   24.4380   34.5180 C   0  0  0  0  0  0  0  0  0  0  0  0
   36.3930   25.8930   31.9090 H   0  0  0  0  0  0  0  0  0  0  0  0
   36.9340   23.4940   31.7900 H   0  0  0  0  0  0  0  0  0  0  0  0
   38.5010   22.5340   33.4890 H   0  0  0  0  0  0  0  0  0  0  0  0
   37.3900   23.6180   36.9680 Cl  0  0  0  0  0  0  0  0  0  0  0  0
   39.1190   23.4020   36.6590 C   0  0  0  0  0  0  0  0  0  0  0  0
   39.6960   23.8180   35.4750 C   0  0  0  0  0  0  0  0  0  0  0  0
   41.0510   23.6170   35.3020 C   0  0  0  0  0  0  0  0  0  0  0  0
   41.4680   23.9550   34.3660 H   0  0  0  0  0  0  0  0  0  0  0  0
   41.7990   23.0090   36.3070 C   0  0  0  0  0  0  0  0  0  0  0  0
   42.8630   22.8580   36.1540 H   0  0  0  0  0  0  0  0  0  0  0  0
   41.1700   22.6080   37.4810 C   0  0  0  0  0  3  0  0  0  0  0  0
   39.8060   22.7980   37.6810 C   0  0  0  0  0  3  0  0  0  0  0  0
   35.2210   30.3250   34.8780 C   0  0  0  0  0  0  0  0  0  0  0  0
   33.8320   30.4380   35.0320 C   0  0  0  0  0  0  0  0  0  0  0  0
   33.3280   31.4310   35.8860 C   0  0  0  0  0  0  0  0  0  0  0  0
   34.2600   32.2320   36.5180 N   0  0  0  0  0  0  0  0  0  0  0  0
   35.5820   32.0880   36.3430 C   0  0  0  0  0  0  0  0  0  0  0  0
   36.0440   31.1330   35.5220 N   0  0  0  0  0  0  0  0  0  0  0  0
   33.0840   29.8390   34.5610 H   0  0  0  0  0  0  0  0  0  0  0  0
   32.2670   31.5570   36.0360 H   0  0  0  0  0  0  0  0  0  0  0  0
   36.2750   32.7380   36.8590 H   0  0  0  0  0  0  0  0  0  0  0  0
  1  5  1  0  0  0  0
  1 32  1  0  0  0  0
  2  1  1  0  0  0  0
  3  2  1  0  0  0  0
  3  4  1  0  0  0  0
  4 10  1  1  0  0  0
  4  5  1  0  0  0  0
  5 12  1  0  0  0  0
  6  2  1  0  0  0  0
  7  2  1  0  0  0  0
  8  3  1  0  0  0  0
  9  3  1  0  0  0  0
 11  5  1  0  0  0  0
 14 13  1  0  0  0  0
 15  4  1  0  0  0  0
 15 14  2  0  0  0  0
 16 15  1  0  0  0  0
 17 16  2  0  0  0  0
 17 18  1  0  0  0  0
 18 19  2  0  0  0  0
 19 14  1  0  0  0  0
 19 25  1  0  0  0  0
 20 16  1  0  0  0  0
 21 17  1  0  0  0  0
 22 18  1  0  0  0  0
 24 23  1  0  0  0  0
 24 31  1  0  0  0  0
 25 24  2  0  0  0  0
 26 25  1  0  0  0  0
 26 28  2  0  0  0  0
 27 26  1  0  0  0  0
 28 30  1  0  0  0  0
 29 28  1  0  0  0  0
 30 31  2  0  0  0  0
 32 33  2  0  0  0  0
 32 37  1  0  0  0  0
 33 34  1  0  0  0  0
 34 39  1  0  0  0  0
 34 35  2  0  0  0  0
 36 35  1  0  0  0  0
 36 40  1  0  0  0  0
 37 36  2  0  0  0  0
 38 33  1  0  0  0  0
M  END
>  <minimizedAffinity>
-5.84114122

$$$$

 OpenBabel03272502403D

 40 43  0  0  1  0  0  0  0  0999 V2000
   38.3480   25.5030   35.4790 N   0  0  0  0  0  0  0  0  0  0  0  0
   38.3420   26.7200   36.2730 C   0  0  0  0  0  0  0  0  0  0  0  0
   38.0500   27.7870   35.2600 C   0  0  0  0  0  0  0  0  0  0  0  0
   38.1090   27.0450   33.8570 C   0  0  1  0  0  0  0  0  0  0  0  0
   37.5680   25.7380   34.2450 C   0  0  0  0  0  0  0  0  0  0  0  0
   37.5310   26.7250   37.0340 H   0  0  0  0  0  0  0  0  0  0  0  0
   39.3390   26.8210   36.7300 H   0  0  0  0  0  0  0  0  0  0  0  0
   37.0640   28.2600   35.3480 H   0  0  0  0  0  0  0  0  0  0  0  0
   38.8540   28.5360   35.2480 H   0  0  0  0  0  0  0  0  0  0  0  0
   39.1890   27.1120   33.6740 H   0  0  0  0  0  0  0  0  0  0  0  0
   36.4970   25.7450   34.4560 H   0  0  0  0  0  0  0  0  0  0  0  0
   37.8050   24.9270   33.5070 H   0  0  0  0  0  0  0  0  0  0  0  0
   35.6010   28.1520   34.5970 F   0  0  0  0  0  0  0  0  0  0  0  0
   36.1470   28.3530   33.3810 C   0  0  0  0  0  0  0  0  0  0  0  0
   37.3110   27.8120   32.8950 C   0  0  0  0  0  0  0  0  0  0  0  0
   37.6980   28.1170   31.5780 C   0  0  0  0  0  0  0  0  0  0  0  0
   36.9410   28.9410   30.7750 C   0  0  0  0  0  0  0  0  0  0  0  0
   35.7620   29.4830   31.2820 C   0  0  0  0  0  0  0  0  0  0  0  0
   35.3710   29.1810   32.5960 C   0  0  0  0  0  0  0  0  0  0  0  0
   38.6250   27.6430   31.2880 H   0  0  0  0  0  0  0  0  0  0  0  0
   37.3360   29.1050   29.7840 H   0  0  0  0  0  0  0  0  0  0  0  0
   35.2070   30.1140   30.6280 H   0  0  0  0  0  0  0  0  0  0  0  0
   35.8250   31.8080   33.8330 Cl  0  0  0  0  0  0  0  0  0  0  0  0
   34.2460   31.0390   33.6200 C   0  0  0  0  0  0  0  0  0  0  0  0
   34.1230   29.7980   33.0250 C   0  0  0  0  0  0  0  0  0  0  0  0
   32.8600   29.2580   32.8920 C   0  0  0  0  0  0  0  0  0  0  0  0
   32.8020   28.2870   32.4230 H   0  0  0  0  0  0  0  0  0  0  0  0
   31.7500   29.9620   33.3510 C   0  0  0  0  0  0  0  0  0  0  0  0
   30.7630   29.5230   33.2370 H   0  0  0  0  0  0  0  0  0  0  0  0
   31.9260   31.2090   33.9420 C   0  0  0  0  0  3  0  0  0  0  0  0
   33.1880   31.7760   34.0890 C   0  0  0  0  0  3  0  0  0  0  0  0
   38.9840   24.2820   35.7900 C   0  0  0  0  0  0  0  0  0  0  0  0
   38.9280   23.8890   37.1350 C   0  0  0  0  0  0  0  0  0  0  0  0
   39.5520   22.6900   37.5120 C   0  0  0  0  0  0  0  0  0  0  0  0
   40.1820   21.9800   36.5070 N   0  0  0  0  0  0  0  0  0  0  0  0
   40.2100   22.3930   35.2310 C   0  0  0  0  0  0  0  0  0  0  0  0
   39.6080   23.5420   34.8910 N   0  0  0  0  0  0  0  0  0  0  0  0
   38.4520   24.4100   37.9360 H   0  0  0  0  0  0  0  0  0  0  0  0
   39.5370   22.3460   38.5340 H   0  0  0  0  0  0  0  0  0  0  0  0
   40.7150   21.8050   34.4780 H   0  0  0  0  0  0  0  0  0  0  0  0
  1 32  1  0  0  0  0
  1  2  1  0  0  0  0
  2  7  1  0  0  0  0
  2  6  1  0  0  0  0
  3  8  1  0  0  0  0
  3  2  1  0  0  0  0
  4 10  1  6  0  0  0
  4  5  1  0  0  0  0
  4  3  1  0  0  0  0
  5 11  1  0  0  0  0
  5  1  1  0  0  0  0
  9  3  1  0  0  0  0
 12  5  1  0  0  0  0
 14 13  1  0  0  0  0
 15 14  1  0  0  0  0
 15  4  1  0  0  0  0
 16 15  2  0  0  0  0
 17 18  2  0  0  0  0
 17 16  1  0  0  0  0
 18 19  1  0  0  0  0
 19 25  1  0  0  0  0
 19 14  2  0  0  0  0
 20 16  1  0  0  0  0
 21 17  1  0  0  0  0
 22 18  1  0  0  0  0
 24 23  1  0  0  0  0
 24 31  1  0  0  0  0
 25 24  2  0  0  0  0
 26 25  1  0  0  0  0
 26 28  2  0  0  0  0
 27 26  1  0  0  0  0
 28 30  1  0  0  0  0
 29 28  1  0  0  0  0
 30 31  2  0  0  0  0
 32 33  1  0  0  0  0
 33 34  2  0  0  0  0
 33 38  1  0  0  0  0
 34 39  1  0  0  0  0
 35 34  1  0  0  0  0
 36 35  2  0  0  0  0
 37 36  1  0  0  0  0
 37 32  2  0  0  0  0
 40 36  1  0  0  0  0
M  END
>  <minimizedAffinity>
-5.73698664

$$$$

 OpenBabel03272502403D

 40 43  0  0  1  0  0  0  0  0999 V2000
   39.2390   25.6460   32.3580 N   0  0  0  0  0  0  0  0  0  0  0  0
   38.3920   25.1740   31.2770 C   0  0  0  0  0  0  0  0  0  0  0  0
   37.2210   26.1110   31.3280 C   0  0  0  0  0  0  0  0  0  0  0  0
   37.4410   26.9680   32.6460 C   0  0  1  0  0  0  0  0  0  0  0  0
   38.9050   27.0580   32.6420 C   0  0  0  0  0  0  0  0  0  0  0  0
   38.8800   25.2720   30.2830 H   0  0  0  0  0  0  0  0  0  0  0  0
   38.1190   24.1310   31.5040 H   0  0  0  0  0  0  0  0  0  0  0  0
   37.1410   26.8070   30.4840 H   0  0  0  0  0  0  0  0  0  0  0  0
   36.2870   25.5510   31.4760 H   0  0  0  0  0  0  0  0  0  0  0  0
   36.9780   26.2870   33.3720 H   0  0  0  0  0  0  0  0  0  0  0  0
   39.3080   27.7160   31.8700 H   0  0  0  0  0  0  0  0  0  0  0  0
   39.3320   27.3380   33.6410 H   0  0  0  0  0  0  0  0  0  0  0  0
   36.2130   28.2150   34.8820 F   0  0  0  0  0  0  0  0  0  0  0  0
   36.2200   28.7770   33.6570 C   0  0  0  0  0  0  0  0  0  0  0  0
   36.7180   28.2350   32.4990 C   0  0  0  0  0  0  0  0  0  0  0  0
   36.5990   28.9690   31.3050 C   0  0  0  0  0  0  0  0  0  0  0  0
   36.0010   30.2090   31.2760 C   0  0  0  0  0  0  0  0  0  0  0  0
   35.5000   30.7470   32.4600 C   0  0  0  0  0  0  0  0  0  0  0  0
   35.6160   30.0180   33.6530 C   0  0  0  0  0  0  0  0  0  0  0  0
   37.0180   28.4580   30.4490 H   0  0  0  0  0  0  0  0  0  0  0  0
   35.9670   30.6800   30.3050 H   0  0  0  0  0  0  0  0  0  0  0  0
   35.0450   31.7070   32.3920 H   0  0  0  0  0  0  0  0  0  0  0  0
   32.7860   29.3280   34.0460 Cl  0  0  0  0  0  0  0  0  0  0  0  0
   33.7290   30.4010   35.0900 C   0  0  0  0  0  0  0  0  0  0  0  0
   35.0590   30.6710   34.8310 C   0  0  0  0  0  0  0  0  0  0  0  0
   35.7340   31.5170   35.6880 C   0  0  0  0  0  0  0  0  0  0  0  0
   36.7710   31.7060   35.4550 H   0  0  0  0  0  0  0  0  0  0  0  0
   35.0730   32.0730   36.7800 C   0  0  0  0  0  0  0  0  0  0  0  0
   35.6200   32.7370   37.4450 H   0  0  0  0  0  0  0  0  0  0  0  0
   33.7340   31.7700   36.9980 C   0  0  0  0  0  3  0  0  0  0  0  0
   33.0310   30.9200   36.1500 C   0  0  0  0  0  3  0  0  0  0  0  0
   40.2240   24.9140   33.0560 C   0  0  0  0  0  0  0  0  0  0  0  0
   40.6630   25.4760   34.2630 C   0  0  0  0  0  0  0  0  0  0  0  0
   41.6510   24.8030   35.0000 C   0  0  0  0  0  0  0  0  0  0  0  0
   42.1180   23.6170   34.4640 N   0  0  0  0  0  0  0  0  0  0  0  0
   41.6690   23.1150   33.3050 C   0  0  0  0  0  0  0  0  0  0  0  0
   40.7250   23.7730   32.6160 N   0  0  0  0  0  0  0  0  0  0  0  0
   40.3250   26.3870   34.7070 H   0  0  0  0  0  0  0  0  0  0  0  0
   42.0200   25.1960   35.9330 H   0  0  0  0  0  0  0  0  0  0  0  0
   42.0640   22.1840   32.9240 H   0  0  0  0  0  0  0  0  0  0  0  0
  1  5  1  0  0  0  0
  1 32  1  0  0  0  0
  2  3  1  0  0  0  0
  2  7  1  0  0  0  0
  2  1  1  0  0  0  0
  3  9  1  0  0  0  0
  3  4  1  0  0  0  0
  4 10  1  1  0  0  0
  5  4  1  0  0  0  0
  5 12  1  0  0  0  0
  6  2  1  0  0  0  0
  8  3  1  0  0  0  0
 11  5  1  0  0  0  0
 14 13  1  0  0  0  0
 15  4  1  0  0  0  0
 15 14  2  0  0  0  0
 16 15  1  0  0  0  0
 17 16  2  0  0  0  0
 17 18  1  0  0  0  0
 18 19  2  0  0  0  0
 19 14  1  0  0  0  0
 19 25  1  0  0  0  0
 20 16  1  0  0  0  0
 21 17  1  0  0  0  0
 22 18  1  0  0  0  0
 23 24  1  0  0  0  0
 24 31  1  0  0  0  0
 25 24  2  0  0  0  0
 25 26  1  0  0  0  0
 26 28  2  0  0  0  0
 27 26  1  0  0  0  0
 28 30  1  0  0  0  0
 28 29  1  0  0  0  0
 31 30  2  0  0  0  0
 32 33  1  0  0  0  0
 33 38  1  0  0  0  0
 33 34  2  0  0  0  0
 34 39  1  0  0  0  0
 35 34  1  0  0  0  0
 36 35  2  0  0  0  0
 37 32  2  0  0  0  0
 37 36  1  0  0  0  0
 40 36  1  0  0  0  0
M  END
>  <minimizedAffinity>
-5.73472691

$$$$

 OpenBabel03272502403D

 40 43  0  0  1  0  0  0  0  0999 V2000
   37.1220   26.6320   31.5960 N   0  0  0  0  0  0  0  0  0  0  0  0
   37.7680   27.2300   30.4410 C   0  0  0  0  0  0  0  0  0  0  0  0
   37.1730   28.6070   30.3930 C   0  0  0  0  0  0  0  0  0  0  0  0
   36.0240   28.5930   31.4890 C   0  0  1  0  0  0  0  0  0  0  0  0
   36.6430   27.7120   32.4850 C   0  0  0  0  0  0  0  0  0  0  0  0
   38.8680   27.3260   30.5730 H   0  0  0  0  0  0  0  0  0  0  0  0
   37.5080   26.6170   29.5630 H   0  0  0  0  0  0  0  0  0  0  0  0
   37.8610   29.4250   30.6380 H   0  0  0  0  0  0  0  0  0  0  0  0
   36.6760   28.7770   29.4270 H   0  0  0  0  0  0  0  0  0  0  0  0
   35.2120   28.1780   30.8800 H   0  0  0  0  0  0  0  0  0  0  0  0
   37.4730   28.1670   33.0280 H   0  0  0  0  0  0  0  0  0  0  0  0
   35.9030   27.2820   33.2120 H   0  0  0  0  0  0  0  0  0  0  0  0
   34.1910   29.1670   33.5800 F   0  0  0  0  0  0  0  0  0  0  0  0
   34.9210   30.1280   32.9770 C   0  0  0  0  0  0  0  0  0  0  0  0
   35.7780   29.9740   31.9170 C   0  0  0  0  0  0  0  0  0  0  0  0
   36.4260   31.1120   31.4040 C   0  0  0  0  0  0  0  0  0  0  0  0
   36.2220   32.3630   31.9400 C   0  0  0  0  0  0  0  0  0  0  0  0
   35.3490   32.5040   33.0180 C   0  0  0  0  0  0  0  0  0  0  0  0
   34.6990   31.3720   33.5330 C   0  0  0  0  0  0  0  0  0  0  0  0
   37.0780   30.8890   30.5700 H   0  0  0  0  0  0  0  0  0  0  0  0
   36.7730   33.1620   31.4660 H   0  0  0  0  0  0  0  0  0  0  0  0
   35.2190   33.4880   33.4010 H   0  0  0  0  0  0  0  0  0  0  0  0
   36.1320   31.2960   36.0980 Cl  0  0  0  0  0  0  0  0  0  0  0  0
   34.4020   31.6120   35.9040 C   0  0  0  0  0  0  0  0  0  0  0  0
   33.8090   31.6290   34.6560 C   0  0  0  0  0  0  0  0  0  0  0  0
   32.4540   31.8820   34.5800 C   0  0  0  0  0  0  0  0  0  0  0  0
   32.0240   31.8880   33.5890 H   0  0  0  0  0  0  0  0  0  0  0  0
   31.7220   32.1120   35.7420 C   0  0  0  0  0  0  0  0  0  0  0  0
   30.6560   32.3100   35.6630 H   0  0  0  0  0  0  0  0  0  0  0  0
   32.3660   32.0840   36.9740 C   0  0  0  0  0  3  0  0  0  0  0  0
   33.7300   31.8310   37.0790 C   0  0  0  0  0  3  0  0  0  0  0  0
   36.9510   25.2560   31.8630 C   0  0  0  0  0  0  0  0  0  0  0  0
   35.8810   24.6340   31.2020 C   0  0  0  0  0  0  0  0  0  0  0  0
   35.6490   23.2700   31.4350 C   0  0  0  0  0  0  0  0  0  0  0  0
   36.5100   22.6380   32.3120 N   0  0  0  0  0  0  0  0  0  0  0  0
   37.5220   23.2730   32.9220 C   0  0  0  0  0  0  0  0  0  0  0  0
   37.7270   24.5770   32.6880 N   0  0  0  0  0  0  0  0  0  0  0  0
   35.1980   25.0890   30.5200 H   0  0  0  0  0  0  0  0  0  0  0  0
   34.8390   22.7480   30.9500 H   0  0  0  0  0  0  0  0  0  0  0  0
   38.1710   22.7380   33.6010 H   0  0  0  0  0  0  0  0  0  0  0  0
  1 32  1  0  0  0  0
  1  5  1  0  0  0  0
  2  6  1  0  0  0  0
  2  1  1  0  0  0  0
  3  2  1  0  0  0  0
  3  8  1  0  0  0  0
  3  4  1  0  0  0  0
  4 10  1  6  0  0  0
  4 15  1  0  0  0  0
  4  5  1  0  0  0  0
  5 11  1  0  0  0  0
  5 12  1  0  0  0  0
  7  2  1  0  0  0  0
  9  3  1  0  0  0  0
 14 19  1  0  0  0  0
 14 13  1  0  0  0  0
 15 14  2  0  0  0  0
 16 15  1  0  0  0  0
 16 17  2  0  0  0  0
 17 18  1  0  0  0  0
 18 22  1  0  0  0  0
 18 19  2  0  0  0  0
 19 25  1  0  0  0  0
 20 16  1  0  0  0  0
 21 17  1  0  0  0  0
 24 23  1  0  0  0  0
 24 31  1  0  0  0  0
 25 24  2  0  0  0  0
 26 25  1  0  0  0  0
 26 28  2  0  0  0  0
 27 26  1  0  0  0  0
 28 30  1  0  0  0  0
 29 28  1  0  0  0  0
 30 31  2  0  0  0  0
 32 37  1  0  0  0  0
 33 34  1  0  0  0  0
 33 32  2  0  0  0  0
 34 35  2  0  0  0  0
 35 36  1  0  0  0  0
 36 40  1  0  0  0  0
 37 36  2  0  0  0  0
 38 33  1  0  0  0  0
 39 34  1  0  0  0  0
M  END
>  <minimizedAffinity>
-5.64878321

$$$$

 OpenBabel03272502403D

 40 43  0  0  1  0  0  0  0  0999 V2000
   35.9150   26.6520   31.3170 N   0  0  0  0  0  0  0  0  0  0  0  0
   34.8360   25.8860   30.7160 C   0  0  0  0  0  0  0  0  0  0  0  0
   35.2200   24.4660   31.0130 C   0  0  0  0  0  0  0  0  0  0  0  0
   36.6800   24.5600   31.6330 C   0  0  1  0  0  0  0  0  0  0  0  0
   36.5590   25.8270   32.3600 C   0  0  0  0  0  0  0  0  0  0  0  0
   33.8540   26.0930   31.1930 H   0  0  0  0  0  0  0  0  0  0  0  0
   34.8300   26.1140   29.6380 H   0  0  0  0  0  0  0  0  0  0  0  0
   34.5800   23.9490   31.7380 H   0  0  0  0  0  0  0  0  0  0  0  0
   35.3160   23.8910   30.0810 H   0  0  0  0  0  0  0  0  0  0  0  0
   37.2600   24.5630   30.7020 H   0  0  0  0  0  0  0  0  0  0  0  0
   35.9340   25.7700   33.2530 H   0  0  0  0  0  0  0  0  0  0  0  0
   37.5520   26.2820   32.6200 H   0  0  0  0  0  0  0  0  0  0  0  0
   38.5710   24.5890   33.7500 F   0  0  0  0  0  0  0  0  0  0  0  0
   37.8000   23.5150   33.4870 C   0  0  0  0  0  0  0  0  0  0  0  0
   36.9100   23.3660   32.4530 C   0  0  0  0  0  0  0  0  0  0  0  0
   36.2190   22.1480   32.3270 C   0  0  0  0  0  0  0  0  0  0  0  0
   36.4150   21.1120   33.2130 C   0  0  0  0  0  0  0  0  0  0  0  0
   37.3220   21.2770   34.2590 C   0  0  0  0  0  0  0  0  0  0  0  0
   38.0140   22.4910   34.3880 C   0  0  0  0  0  0  0  0  0  0  0  0
   35.5440   22.1280   31.4830 H   0  0  0  0  0  0  0  0  0  0  0  0
   35.8300   20.2250   33.0190 H   0  0  0  0  0  0  0  0  0  0  0  0
   37.4430   20.4520   34.9200 H   0  0  0  0  0  0  0  0  0  0  0  0
   40.7250   21.6500   33.6240 Cl  0  0  0  0  0  0  0  0  0  0  0  0
   40.2370   22.1780   35.2410 C   0  0  0  0  0  0  0  0  0  0  0  0
   38.9370   22.5580   35.5130 C   0  0  0  0  0  0  0  0  0  0  0  0
   38.6270   22.9590   36.7970 C   0  0  0  0  0  0  0  0  0  0  0  0
   37.6020   23.2480   36.9730 H   0  0  0  0  0  0  0  0  0  0  0  0
   39.6140   22.9730   37.7790 C   0  0  0  0  0  0  0  0  0  0  0  0
   39.3530   23.2920   38.7840 H   0  0  0  0  0  0  0  0  0  0  0  0
   40.9090   22.5820   37.4550 C   0  0  0  0  0  3  0  0  0  0  0  0
   41.2470   22.1740   36.1680 C   0  0  0  0  0  3  0  0  0  0  0  0
   36.3200   27.9630   30.9850 C   0  0  0  0  0  0  0  0  0  0  0  0
   35.9380   28.9670   31.8880 C   0  0  0  0  0  0  0  0  0  0  0  0
   36.2990   30.2950   31.6100 C   0  0  0  0  0  0  0  0  0  0  0  0
   37.0160   30.5080   30.4470 N   0  0  0  0  0  0  0  0  0  0  0  0
   37.3610   29.5170   29.6120 C   0  0  0  0  0  0  0  0  0  0  0  0
   37.0060   28.2550   29.8960 N   0  0  0  0  0  0  0  0  0  0  0  0
   35.3860   28.8400   32.7930 H   0  0  0  0  0  0  0  0  0  0  0  0
   36.0280   31.1010   32.2730 H   0  0  0  0  0  0  0  0  0  0  0  0
   37.9230   29.7310   28.7140 H   0  0  0  0  0  0  0  0  0  0  0  0
  1  5  1  0  0  0  0
  2  3  1  0  0  0  0
  2  6  1  0  0  0  0
  2  1  1  0  0  0  0
  3  4  1  0  0  0  0
  3  8  1  0  0  0  0
  4 10  1  6  0  0  0
  4  5  1  0  0  0  0
  4 15  1  0  0  0  0
  5 12  1  0  0  0  0
  5 11  1  0  0  0  0
  7  2  1  0  0  0  0
  9  3  1  0  0  0  0
 14 13  1  0  0  0  0
 14 19  1  0  0  0  0
 15 14  2  0  0  0  0
 16 15  1  0  0  0  0
 16 17  2  0  0  0  0
 17 18  1  0  0  0  0
 18 19  2  0  0  0  0
 18 22  1  0  0  0  0
 19 25  1  0  0  0  0
 20 16  1  0  0  0  0
 21 17  1  0  0  0  0
 23 24  1  0  0  0  0
 24 25  2  0  0  0  0
 24 31  1  0  0  0  0
 25 26  1  0  0  0  0
 26 27  1  0  0  0  0
 26 28  2  0  0  0  0
 28 29  1  0  0  0  0
 30 28  1  0  0  0  0
 31 30  2  0  0  0  0
 32  1  1  0  0  0  0
 32 33  1  0  0  0  0
 33 38  1  0  0  0  0
 34 33  2  0  0  0  0
 34 39  1  0  0  0  0
 35 34  1  0  0  0  0
 36 37  1  0  0  0  0
 36 35  2  0  0  0  0
 37 32  2  0  0  0  0
 40 36  1  0  0  0  0
M  END
>  <minimizedAffinity>
-5.64601994

$$$$
