
 OpenBabel03272507123D

 40 44  0  0  0  0  0  0  0  0999 V2000
   35.7460   29.1440   49.9050 C   0  0  0  0  0  0  0  0  0  0  0  0
   34.6930   29.6410   50.6040 C   0  0  0  0  0  0  0  0  0  0  0  0
   33.5450   29.0480   50.0740 C   0  0  0  0  0  0  0  0  0  0  0  0
   33.9930   28.2010   49.0510 C   0  0  0  0  0  0  0  0  0  0  0  0
   35.2840   28.3120   49.0150 O   0  0  0  0  0  0  0  0  0  0  0  0
   34.6980   30.3600   51.4220 H   0  0  0  0  0  0  0  0  0  0  0  0
   32.5580   29.2660   50.4470 H   0  0  0  0  0  0  0  0  0  0  0  0
   33.5140   26.4230   47.3860 C   0  0  0  0  0  0  0  0  0  0  0  0
   33.0660   27.4040   48.2620 C   0  0  0  0  0  0  0  0  0  0  0  0
   31.7240   27.6570   48.4210 C   0  0  0  0  0  0  0  0  0  0  0  0
   30.8330   26.9040   47.6820 C   0  0  0  0  0  0  0  0  0  0  0  0
   29.4860   26.9360   47.6460 N   0  0  0  0  0  0  0  0  0  0  0  0
   29.0880   26.0050   46.7750 N   0  0  0  0  0  0  0  0  0  0  0  0
   30.1660   25.3940   46.2700 C   0  0  0  0  0  0  0  0  0  0  0  0
   31.3190   25.9440   46.8280 C   0  0  0  0  0  0  0  0  0  0  0  0
   32.6530   25.6670   46.6450 C   0  0  0  0  0  0  0  0  0  0  0  0
   34.5830   26.2650   47.2980 H   0  0  0  0  0  0  0  0  0  0  0  0
   31.3070   28.4100   49.0890 H   0  0  0  0  0  0  0  0  0  0  0  0
   28.8330   27.5700   48.1940 H   0  0  0  0  0  0  0  0  0  0  0  0
   30.1130   24.5870   45.5290 H   0  0  0  0  0  0  0  0  0  0  0  0
   32.9580   24.8970   45.9550 H   0  0  0  0  0  0  0  0  0  0  0  0
   37.1160   29.5460   50.1900 C   0  0  0  0  0  0  0  0  0  0  0  0
   37.7350   28.9880   51.1240 O   0  0  0  0  0  0  0  0  0  0  0  0
   37.6860   30.5810   49.3610 C   0  0  0  0  0  0  0  0  0  0  0  0
   37.8350   31.8460   49.9300 C   0  0  0  0  0  0  0  0  0  0  0  0
   38.3780   32.8830   49.1790 C   0  0  0  0  0  0  0  0  0  0  0  0
   38.7350   32.5660   47.8960 N   0  0  0  0  0  0  0  0  0  0  0  0
   38.5910   31.3630   47.3610 C   0  0  0  0  0  0  0  0  0  0  0  0
   38.0630   30.3730   48.1060 N   0  0  0  0  0  0  0  0  0  0  0  0
   37.5380   32.0500   50.9500 H   0  0  0  0  0  0  0  0  0  0  0  0
   38.5160   33.8810   49.5720 H   0  0  0  0  0  0  0  0  0  0  0  0
   36.4530   30.5130   45.3540 Cl  0  0  0  0  0  0  0  0  0  0  0  0
   38.1410   30.7720   44.9820 C   0  0  0  0  0  0  0  0  0  0  0  0
   39.0130   31.1560   45.9800 C   0  0  0  0  0  0  0  0  0  0  0  0
   40.3430   31.3560   45.6730 C   0  0  0  0  0  0  0  0  0  0  0  0
   41.0610   31.6610   46.4390 H   0  0  0  0  0  0  0  0  0  0  0  0
   40.8090   31.1780   44.3890 C   0  0  0  0  0  0  0  0  0  0  0  0
   41.8490   31.3450   44.1940 H   0  0  0  0  0  0  0  0  0  0  0  0
   39.9540   30.7970   43.3880 C   0  0  0  0  0  3  0  0  0  0  0  0
   38.6050   30.5910   43.6900 C   0  0  0  0  0  3  0  0  0  0  0  0
  1 22  1  0  0  0  0
  1  2  2  0  0  0  0
  2  6  1  0  0  0  0
  3  7  1  0  0  0  0
  3  2  1  0  0  0  0
  4  3  2  0  0  0  0
  5  4  1  0  0  0  0
  5  1  1  0  0  0  0
  8  9  1  0  0  0  0
  9 10  2  0  0  0  0
  9  4  1  0  0  0  0
 10 18  1  0  0  0  0
 11 10  1  0  0  0  0
 12 11  1  0  0  0  0
 12 19  1  0  0  0  0
 13 12  1  0  0  0  0
 14 13  2  0  0  0  0
 14 15  1  0  0  0  0
 15 11  2  0  0  0  0
 16 15  1  0  0  0  0
 16  8  2  0  0  0  0
 17  8  1  0  0  0  0
 20 14  1  0  0  0  0
 21 16  1  0  0  0  0
 22 23  2  0  0  0  0
 24 25  1  0  0  0  0
 24 22  1  0  0  0  0
 25 30  1  0  0  0  0
 26 31  1  0  0  0  0
 26 25  2  0  0  0  0
 27 26  1  0  0  0  0
 28 27  2  0  0  0  0
 28 29  1  0  0  0  0
 29 24  2  0  0  0  0
 33 32  1  0  0  0  0
 33 34  1  0  0  0  0
 34 28  1  0  0  0  0
 35 34  2  0  0  0  0
 35 36  1  0  0  0  0
 37 35  1  0  0  0  0
 38 37  1  0  0  0  0
 39 40  1  0  0  0  0
 39 37  2  0  0  0  0
 40 33  2  0  0  0  0
M  END
>  <minimizedAffinity>
-7.31995678

>  <minimizedRMSD>
0.649596155

$$$$
