
 OpenBabel03272501273D

 39 42  0  0  1  0  0  0  0  0999 V2000
   34.8840   29.9530   47.2590 C   0  0  0  0  0  0  0  0  0  0  0  0
   35.5820   30.0410   46.0420 C   0  0  0  0  0  0  0  0  0  0  0  0
   36.7850   30.7060   46.2830 C   0  0  0  0  0  0  0  0  0  0  0  0
   36.7700   30.9860   47.5980 N   0  0  0  0  0  0  0  0  0  0  0  0
   35.6480   30.5370   48.1470 N   0  0  0  0  0  0  0  0  0  0  0  0
   35.3430   29.7020   45.0510 H   0  0  0  0  0  0  0  0  0  0  0  0
   37.5670   30.9500   45.5800 H   0  0  0  0  0  0  0  0  0  0  0  0
   38.4770   32.6870   47.6290 N   0  0  0  0  0  0  0  0  0  0  0  0
   39.1080   33.5060   48.6470 C   0  0  0  0  0  0  0  0  0  0  0  0
   38.4120   33.2230   49.9630 C   0  0  0  0  0  0  0  0  0  0  0  0
   37.1700   32.4610   49.4930 C   0  0  0  0  0  0  0  0  0  0  0  0
   37.7580   31.6590   48.3770 C   0  0  1  0  0  0  0  0  0  0  0  0
   37.8670   33.2110   46.9960 H   0  0  0  0  0  0  0  0  0  0  0  0
   38.9360   34.5830   48.4010 H   0  0  0  0  0  0  0  0  0  0  0  0
   40.1930   33.3510   48.6710 H   0  0  0  0  0  0  0  0  0  0  0  0
   38.0970   34.1210   50.5020 H   0  0  0  0  0  0  0  0  0  0  0  0
   39.0390   32.5220   50.5420 H   0  0  0  0  0  0  0  0  0  0  0  0
   36.4340   33.1880   49.1240 H   0  0  0  0  0  0  0  0  0  0  0  0
   36.7740   31.8340   50.3210 H   0  0  0  0  0  0  0  0  0  0  0  0
   38.6660   30.6870   48.9290 N   0  0  0  0  0  0  0  0  0  0  0  0
   38.6470   29.8400   48.3240 H   0  0  0  0  0  0  0  0  0  0  0  0
   38.4030   30.4900   49.9210 H   0  0  0  0  0  0  0  0  0  0  0  0
   33.3360   28.2670   48.2490 C   0  0  0  0  0  0  0  0  0  0  0  0
   33.5860   29.3070   47.3250 C   0  0  0  0  0  0  0  0  0  0  0  0
   32.5580   29.6990   46.4750 C   0  0  0  0  0  0  0  0  0  0  0  0
   31.3770   29.0490   46.5950 N   0  0  0  0  0  0  0  0  0  0  0  0
   31.1480   28.0600   47.4790 C   0  0  0  0  0  0  0  0  0  0  0  0
   32.1590   27.6570   48.3310 N   0  0  0  0  0  0  0  0  0  0  0  0
   34.1720   28.0010   48.8860 H   0  0  0  0  0  0  0  0  0  0  0  0
   32.6890   30.4900   45.7460 H   0  0  0  0  0  0  0  0  0  0  0  0
   29.7680   28.4950   50.0950 Cl  0  0  0  0  0  0  0  0  0  0  0  0
   29.1620   27.5330   48.7730 C   0  0  0  0  0  0  0  0  0  0  0  0
   29.8640   27.3770   47.5850 C   0  0  0  0  0  0  0  0  0  0  0  0
   29.3650   26.6070   46.5420 C   0  0  0  0  0  0  0  0  0  0  0  0
   29.9810   26.5440   45.6560 H   0  0  0  0  0  0  0  0  0  0  0  0
   28.1500   25.9670   46.6520 C   0  0  0  0  0  0  0  0  0  0  0  0
   27.7960   25.3750   45.8150 H   0  0  0  0  0  0  0  0  0  0  0  0
   27.4620   26.1260   47.8340 C   0  0  0  0  0  0  0  0  0  0  0  0
   27.9380   26.8860   48.8830 C   0  0  0  0  0  0  0  0  0  0  0  0
  1 24  1  0  0  0  0
  1  5  2  0  0  0  0
  2  3  2  0  0  0  0
  2  1  1  0  0  0  0
  3  4  1  0  0  0  0
  4  5  1  0  0  0  0
  4 12  1  0  0  0  0
  6  2  1  0  0  0  0
  7  3  1  0  0  0  0
  8 12  1  0  0  0  0
  8  9  1  0  0  0  0
  9 15  1  0  0  0  0
  9 10  1  0  0  0  0
 10 16  1  0  0  0  0
 10 17  1  0  0  0  0
 11 10  1  0  0  0  0
 11 19  1  0  0  0  0
 12 20  1  1  0  0  0
 12 11  1  0  0  0  0
 13  8  1  0  0  0  0
 14  9  1  0  0  0  0
 18 11  1  0  0  0  0
 20 22  1  0  0  0  0
 21 20  1  0  0  0  0
 23 28  1  0  0  0  0
 23 29  1  0  0  0  0
 24 23  2  0  0  0  0
 25 26  2  0  0  0  0
 25 24  1  0  0  0  0
 26 27  1  0  0  0  0
 27 33  1  0  0  0  0
 27 28  2  0  0  0  0
 30 25  1  0  0  0  0
 32 39  1  0  0  0  0
 32 31  1  0  0  0  0
 33 32  2  0  0  0  0
 34 36  2  0  0  0  0
 34 33  1  0  0  0  0
 35 34  1  0  0  0  0
 36 38  1  0  0  0  0
 37 36  1  0  0  0  0
 38 39  2  0  0  0  0
M  END
>  <minimizedAffinity>
-5.93723583

>  <minimizedRMSD>
0.835849345

$$$$
