REMARK  Name = 
REMARK  4 active torsions:
REMARK  status: ('A' for Active; 'I' for Inactive)
REMARK    1  A    between atoms: C_1  and  C_15
REMARK    2  A    between atoms: C_4  and  C_7
REMARK    3  A    between atoms: C_15  and  C_17
REMARK    4  A    between atoms: C_21  and  C_34
REMARK                            x       y       z     vdW  Elec       q    Type
REMARK                         _______ _______ _______ _____ _____    ______ ____
ROOT
ATOM      1  C   UNL     1      35.852  29.128  49.811  0.00  0.00    +0.000 A 
ATOM      2  C   UNL     1      34.824  29.616  50.552  0.00  0.00    +0.000 A 
ATOM      3  C   UNL     1      33.658  29.033  50.053  0.00  0.00    +0.000 A 
ATOM      4  C   UNL     1      34.069  28.200  49.004  0.00  0.00    +0.000 A 
ATOM      5  O   UNL     1      35.358  28.309  48.925  0.00  0.00    +0.000 OA
ATOM      6  H   UNL     1      34.859  30.324  51.380  0.00  0.00    +0.000 HD
ATOM      7  H   UNL     1      32.684  29.248  50.462  0.00  0.00    +0.000 HD
ENDROOT
BRANCH   4   9
ATOM      8  C   UNL     1      33.529  26.433  47.345  0.00  0.00    +0.000 A 
ATOM      9  C   UNL     1      33.114  27.416  48.235  0.00  0.00    +0.000 A 
ATOM     10  C   UNL     1      31.779  27.683  48.428  0.00  0.00    +0.000 A 
ATOM     11  C   UNL     1      30.862  26.943  47.709  0.00  0.00    +0.000 A 
ATOM     12  N   UNL     1      29.515  26.990  47.706  0.00  0.00    +0.000 N 
ATOM     13  N   UNL     1      29.085  26.066  46.843  0.00  0.00    +0.000 NA
ATOM     14  C   UNL     1      30.143  25.445  46.309  0.00  0.00    +0.000 A 
ATOM     15  C   UNL     1      31.316  25.980  46.840  0.00  0.00    +0.000 A 
ATOM     16  C   UNL     1      32.642  25.689  46.624  0.00  0.00    +0.000 A 
ATOM     17  H   UNL     1      34.594  26.263  47.231  0.00  0.00    +0.000 HD
ATOM     18  H   UNL     1      31.387  28.439  49.108  0.00  0.00    +0.000 HD
ATOM     19  H   UNL     1      28.882  27.629  48.272  0.00  0.00    +0.000 HD
ATOM     20  H   UNL     1      30.063  24.641  45.567  0.00  0.00    +0.000 HD
ATOM     21  H   UNL     1      32.921  24.918  45.924  0.00  0.00    +0.000 HD
ENDBRANCH   4   9
BRANCH   1  22
ATOM     22  C   UNL     1      37.232  29.523  50.055  0.00  0.00    +0.000 C 
ATOM     23  O   UNL     1      37.876  28.961  50.969  0.00  0.00    +0.000 OA
BRANCH  22  24
ATOM     24  C   UNL     1      37.781  30.557  49.211  0.00  0.00    +0.000 A 
ATOM     25  C   UNL     1      38.123  31.765  49.820  0.00  0.00    +0.000 A 
ATOM     26  C   UNL     1      38.656  32.798  49.057  0.00  0.00    +0.000 A 
ATOM     27  N   UNL     1      38.807  32.536  47.722  0.00  0.00    +0.000 NA
ATOM     28  C   UNL     1      38.481  31.387  47.149  0.00  0.00    +0.000 A 
ATOM     29  N   UNL     1      37.966  30.400  47.906  0.00  0.00    +0.000 NA
ATOM     30  H   UNL     1      37.985  31.926  50.880  0.00  0.00    +0.000 HD
ATOM     31  H   UNL     1      38.938  33.753  49.479  0.00  0.00    +0.000 HD
BRANCH  28  34
ATOM     32 CL   UNL     1      36.018  31.498  45.347  0.00  0.00    +0.000 Cl
ATOM     33  C   UNL     1      37.662  31.267  44.798  0.00  0.00    +0.000 A 
ATOM     34  C   UNL     1      38.693  31.235  45.714  0.00  0.00    +0.000 A 
ATOM     35  C   UNL     1      39.985  31.052  45.268  0.00  0.00    +0.000 A 
ATOM     36  H   UNL     1      40.826  31.021  45.965  0.00  0.00    +0.000 HD
ATOM     37  C   UNL     1      40.257  30.902  43.924  0.00  0.00    +0.000 A 
ATOM     38  H   UNL     1      41.275  30.762  43.621  0.00  0.00    +0.000 HD
ATOM     39  C   UNL     1      39.242  30.931  43.005  0.00  0.00    +0.000 A 
ATOM     40  C   UNL     1      37.930  31.116  43.448  0.00  0.00    +0.000 A 
ENDBRANCH  28  34
ENDBRANCH  22  24
ENDBRANCH   1  22
TORSDOF 4
