
 OpenBabel03262520233D

 32 34  0  0  0  0  0  0  0  0999 V2000
   39.8670   24.7040   34.9850 C   0  0  0  0  0  0  0  0  0  0  0  0
   40.5940   25.8910   34.9540 C   0  0  0  0  0  0  0  0  0  0  0  0
   40.3390   26.9730   34.1780 C   0  0  0  0  0  0  0  0  0  0  0  0
   39.2910   26.9520   33.3330 C   0  0  0  0  0  0  0  0  0  0  0  0
   38.5710   25.8190   33.3380 C   0  0  0  0  0  0  0  0  0  0  0  0
   38.8910   24.8230   34.1230 N   0  0  0  0  0  0  0  0  0  0  0  0
   41.4970   26.0020   35.6330 H   0  0  0  0  0  0  0  0  0  0  0  0
   41.0080   27.8840   34.2450 H   0  0  0  0  0  0  0  0  0  0  0  0
   39.0680   27.7790   32.7430 H   0  0  0  0  0  0  0  0  0  0  0  0
   41.5100   23.0980   35.5390 C   0  0  0  0  0  0  0  0  0  0  0  0
   40.2400   23.6450   35.9040 C   0  0  0  0  0  0  0  0  0  0  0  0
   39.6310   23.1140   37.0120 C   0  0  0  0  0  0  0  0  0  0  0  0
   40.2860   22.1080   37.6740 N   0  0  0  0  0  0  0  0  0  0  0  0
   41.4690   21.6080   37.3220 C   0  0  0  0  0  0  0  0  0  0  0  0
   42.0690   22.1190   36.2440 N   0  0  0  0  0  0  0  0  0  0  0  0
   41.9860   20.5770   38.1250 N   0  0  0  0  0  0  0  0  0  0  0  0
   42.1000   23.4100   34.7030 H   0  0  0  0  0  0  0  0  0  0  0  0
   42.2780   20.6720   39.1020 H   0  0  0  0  0  0  0  0  0  0  0  0
   42.0280   19.6860   37.5660 H   0  0  0  0  0  0  0  0  0  0  0  0
   38.3330   23.6330   37.4380 C   0  0  0  0  0  0  0  0  0  0  0  0
   38.0140   23.0840   38.5940 F   0  0  0  0  0  0  0  0  0  0  0  0
   38.2810   25.0110   37.5310 F   0  0  0  0  0  0  0  0  0  0  0  0
   37.3110   23.2910   36.5050 F   0  0  0  0  0  0  0  0  0  0  0  0
   36.7620   28.1410   32.2840 Cl  0  0  0  0  0  0  0  0  0  0  0  0
   36.4880   26.4500   32.0210 C   0  0  0  0  0  0  0  0  0  0  0  0
   37.3590   25.5320   32.5320 C   0  0  0  0  0  0  0  0  0  0  0  0
   37.0150   24.2430   32.1930 C   0  0  0  0  0  0  0  0  0  0  0  0
   37.6330   23.4050   32.5400 H   0  0  0  0  0  0  0  0  0  0  0  0
   35.9270   23.8880   31.4330 C   0  0  0  0  0  0  0  0  0  0  0  0
   35.7270   22.8620   31.2140 H   0  0  0  0  0  0  0  0  0  0  0  0
   35.0890   24.8610   30.9490 C   0  0  0  0  0  3  0  0  0  0  0  0
   35.3900   26.1690   31.2600 C   0  0  0  0  0  3  0  0  0  0  0  0
  1 11  1  0  0  0  0
  2  1  1  0  0  0  0
  2  7  1  0  0  0  0
  3  8  1  0  0  0  0
  3  2  2  0  0  0  0
  4  5  2  0  0  0  0
  4  3  1  0  0  0  0
  5  6  1  0  0  0  0
  6  1  2  0  0  0  0
  9  4  1  0  0  0  0
 10 11  2  0  0  0  0
 10 15  1  0  0  0  0
 11 12  1  0  0  0  0
 12 20  1  0  0  0  0
 12 13  2  0  0  0  0
 14 13  1  0  0  0  0
 14 16  1  0  0  0  0
 15 14  2  0  0  0  0
 16 18  1  0  0  0  0
 17 10  1  0  0  0  0
 19 16  1  0  0  0  0
 20 22  1  0  0  0  0
 20 21  1  0  0  0  0
 23 20  1  0  0  0  0
 25 24  1  0  0  0  0
 25 26  1  0  0  0  0
 26  5  1  0  0  0  0
 27 26  2  0  0  0  0
 27 28  1  0  0  0  0
 29 27  1  0  0  0  0
 30 29  1  0  0  0  0
 31 32  1  0  0  0  0
 31 29  2  0  0  0  0
 32 25  2  0  0  0  0
M  END
>  <minimizedAffinity>
-6.85756397

$$$$

 OpenBabel03262520233D

 32 34  0  0  0  0  0  0  0  0999 V2000
   37.7220   25.5020   32.3670 C   0  0  0  0  0  0  0  0  0  0  0  0
   36.7660   26.3630   31.8350 C   0  0  0  0  0  0  0  0  0  0  0  0
   35.6050   26.0060   31.2310 C   0  0  0  0  0  0  0  0  0  0  0  0
   35.2960   24.7010   31.1060 C   0  0  0  0  0  0  0  0  0  0  0  0
   36.1990   23.8450   31.6080 C   0  0  0  0  0  0  0  0  0  0  0  0
   37.2950   24.2800   32.1750 N   0  0  0  0  0  0  0  0  0  0  0  0
   36.9390   27.4830   31.8930 H   0  0  0  0  0  0  0  0  0  0  0  0
   34.9070   26.8050   30.8380 H   0  0  0  0  0  0  0  0  0  0  0  0
   34.4020   24.4080   30.6630 H   0  0  0  0  0  0  0  0  0  0  0  0
   40.0460   25.8870   32.1800 C   0  0  0  0  0  0  0  0  0  0  0  0
   38.9000   26.0370   33.0230 C   0  0  0  0  0  0  0  0  0  0  0  0
   39.0980   26.6440   34.2360 C   0  0  0  0  0  0  0  0  0  0  0  0
   40.3710   27.0540   34.5390 N   0  0  0  0  0  0  0  0  0  0  0  0
   41.4280   26.9070   33.7440 C   0  0  0  0  0  0  0  0  0  0  0  0
   41.2450   26.3170   32.5600 N   0  0  0  0  0  0  0  0  0  0  0  0
   42.6560   27.3920   34.2260 N   0  0  0  0  0  0  0  0  0  0  0  0
   40.0450   25.4340   31.2100 H   0  0  0  0  0  0  0  0  0  0  0  0
   42.8820   28.3750   34.4010 H   0  0  0  0  0  0  0  0  0  0  0  0
   43.3140   26.5850   34.3800 H   0  0  0  0  0  0  0  0  0  0  0  0
   37.9660   26.8300   35.1400 C   0  0  0  0  0  0  0  0  0  0  0  0
   37.2060   27.8030   34.6760 F   0  0  0  0  0  0  0  0  0  0  0  0
   37.2140   25.6900   35.3440 F   0  0  0  0  0  0  0  0  0  0  0  0
   38.4040   27.2150   36.4410 F   0  0  0  0  0  0  0  0  0  0  0  0
   38.3690   22.0840   30.2060 Cl  0  0  0  0  0  0  0  0  0  0  0  0
   36.9790   21.4880   31.0540 C   0  0  0  0  0  0  0  0  0  0  0  0
   36.1060   22.3650   31.6290 C   0  0  0  0  0  0  0  0  0  0  0  0
   35.0870   21.7220   32.2960 C   0  0  0  0  0  0  0  0  0  0  0  0
   34.3130   22.3100   32.8050 H   0  0  0  0  0  0  0  0  0  0  0  0
   34.9360   20.3600   32.3870 C   0  0  0  0  0  0  0  0  0  0  0  0
   34.1150   19.9370   32.9240 H   0  0  0  0  0  0  0  0  0  0  0  0
   35.8510   19.5330   31.7840 C   0  0  0  0  0  3  0  0  0  0  0  0
   36.8910   20.1270   31.1050 C   0  0  0  0  0  3  0  0  0  0  0  0
  1 11  1  0  0  0  0
  2  7  1  0  0  0  0
  2  1  2  0  0  0  0
  3  2  1  0  0  0  0
  4  3  2  0  0  0  0
  4  5  1  0  0  0  0
  5 26  1  0  0  0  0
  5  6  2  0  0  0  0
  6  1  1  0  0  0  0
  8  3  1  0  0  0  0
  9  4  1  0  0  0  0
 10 15  2  0  0  0  0
 10 11  1  0  0  0  0
 11 12  2  0  0  0  0
 12 13  1  0  0  0  0
 12 20  1  0  0  0  0
 14 16  1  0  0  0  0
 14 13  2  0  0  0  0
 15 14  1  0  0  0  0
 16 19  1  0  0  0  0
 16 18  1  0  0  0  0
 17 10  1  0  0  0  0
 20 22  1  0  0  0  0
 20 23  1  0  0  0  0
 21 20  1  0  0  0  0
 24 25  1  0  0  0  0
 25 32  2  0  0  0  0
 25 26  1  0  0  0  0
 26 27  2  0  0  0  0
 27 29  1  0  0  0  0
 27 28  1  0  0  0  0
 29 30  1  0  0  0  0
 31 29  2  0  0  0  0
 32 31  1  0  0  0  0
M  END
>  <minimizedAffinity>
-6.27364588

$$$$

 OpenBabel03262520233D

 32 34  0  0  0  0  0  0  0  0999 V2000
   37.8930   24.8880   33.7080 C   0  0  0  0  0  0  0  0  0  0  0  0
   37.5580   24.2000   32.5460 C   0  0  0  0  0  0  0  0  0  0  0  0
   36.8490   24.6850   31.4970 C   0  0  0  0  0  0  0  0  0  0  0  0
   36.3990   25.9540   31.5290 C   0  0  0  0  0  0  0  0  0  0  0  0
   36.7050   26.6440   32.6390 C   0  0  0  0  0  0  0  0  0  0  0  0
   37.3960   26.0930   33.6040 N   0  0  0  0  0  0  0  0  0  0  0  0
   37.8940   23.1220   32.4270 H   0  0  0  0  0  0  0  0  0  0  0  0
   36.6410   24.0210   30.6040 H   0  0  0  0  0  0  0  0  0  0  0  0
   35.8700   26.3490   30.7260 H   0  0  0  0  0  0  0  0  0  0  0  0
   38.0130   23.1000   35.2480 C   0  0  0  0  0  0  0  0  0  0  0  0
   38.6970   24.2440   34.7300 C   0  0  0  0  0  0  0  0  0  0  0  0
   39.9360   24.5140   35.2510 C   0  0  0  0  0  0  0  0  0  0  0  0
   40.4150   23.6690   36.2180 N   0  0  0  0  0  0  0  0  0  0  0  0
   39.7670   22.6060   36.6910 C   0  0  0  0  0  0  0  0  0  0  0  0
   38.5580   22.3360   36.1900 N   0  0  0  0  0  0  0  0  0  0  0  0
   40.4190   21.8560   37.6840 N   0  0  0  0  0  0  0  0  0  0  0  0
   37.0440   22.7670   34.9410 H   0  0  0  0  0  0  0  0  0  0  0  0
   41.2790   21.3160   37.5540 H   0  0  0  0  0  0  0  0  0  0  0  0
   39.8840   21.9330   38.5870 H   0  0  0  0  0  0  0  0  0  0  0  0
   40.6870   25.6680   34.7600 C   0  0  0  0  0  0  0  0  0  0  0  0
   40.7890   25.5810   33.4480 F   0  0  0  0  0  0  0  0  0  0  0  0
   40.1450   26.8860   35.1200 F   0  0  0  0  0  0  0  0  0  0  0  0
   42.0100   25.6850   35.2910 F   0  0  0  0  0  0  0  0  0  0  0  0
   36.5980   28.7710   30.3500 Cl  0  0  0  0  0  0  0  0  0  0  0  0
   36.2860   29.0770   32.0280 C   0  0  0  0  0  0  0  0  0  0  0  0
   36.3610   28.0570   32.9310 C   0  0  0  0  0  0  0  0  0  0  0  0
   36.0420   28.4670   34.2060 C   0  0  0  0  0  0  0  0  0  0  0  0
   36.0630   27.7440   35.0320 H   0  0  0  0  0  0  0  0  0  0  0  0
   35.6900   29.7460   34.5620 C   0  0  0  0  0  0  0  0  0  0  0  0
   35.4570   29.9850   35.5760 H   0  0  0  0  0  0  0  0  0  0  0  0
   35.6350   30.7270   33.6030 C   0  0  0  0  0  3  0  0  0  0  0  0
   35.9440   30.3680   32.3100 C   0  0  0  0  0  3  0  0  0  0  0  0
  1 11  1  0  0  0  0
  2  1  2  0  0  0  0
  3  4  2  0  0  0  0
  3  2  1  0  0  0  0
  4  5  1  0  0  0  0
  5 26  1  0  0  0  0
  5  6  2  0  0  0  0
  6  1  1  0  0  0  0
  7  2  1  0  0  0  0
  8  3  1  0  0  0  0
  9  4  1  0  0  0  0
 10 15  1  0  0  0  0
 11 10  2  0  0  0  0
 11 12  1  0  0  0  0
 12 13  2  0  0  0  0
 13 14  1  0  0  0  0
 14 16  1  0  0  0  0
 15 14  2  0  0  0  0
 16 19  1  0  0  0  0
 17 10  1  0  0  0  0
 18 16  1  0  0  0  0
 20 22  1  0  0  0  0
 20 12  1  0  0  0  0
 20 23  1  0  0  0  0
 21 20  1  0  0  0  0
 24 25  1  0  0  0  0
 25 32  2  0  0  0  0
 25 26  1  0  0  0  0
 26 27  2  0  0  0  0
 27 29  1  0  0  0  0
 27 28  1  0  0  0  0
 29 30  1  0  0  0  0
 31 29  2  0  0  0  0
 32 31  1  0  0  0  0
M  END
>  <minimizedAffinity>
-6.14584637

$$$$

 OpenBabel03262520233D

 32 34  0  0  0  0  0  0  0  0999 V2000
   36.0000   28.2900   32.5400 C   0  0  0  0  0  0  0  0  0  0  0  0
   36.4970   29.2030   31.6150 C   0  0  0  0  0  0  0  0  0  0  0  0
   36.3760   30.5530   31.6670 C   0  0  0  0  0  0  0  0  0  0  0  0
   35.7170   31.1210   32.6950 C   0  0  0  0  0  0  0  0  0  0  0  0
   35.2230   30.2660   33.6040 C   0  0  0  0  0  0  0  0  0  0  0  0
   35.3890   28.9750   33.4730 N   0  0  0  0  0  0  0  0  0  0  0  0
   37.0680   28.8170   30.7130 H   0  0  0  0  0  0  0  0  0  0  0  0
   36.8280   31.1900   30.8480 H   0  0  0  0  0  0  0  0  0  0  0  0
   35.6300   32.1550   32.7620 H   0  0  0  0  0  0  0  0  0  0  0  0
   35.5200   26.3740   31.2430 C   0  0  0  0  0  0  0  0  0  0  0  0
   36.2470   26.8710   32.3700 C   0  0  0  0  0  0  0  0  0  0  0  0
   37.0260   25.9710   33.0500 C   0  0  0  0  0  0  0  0  0  0  0  0
   37.0420   24.6770   32.5970 N   0  0  0  0  0  0  0  0  0  0  0  0
   36.3590   24.2290   31.5460 C   0  0  0  0  0  0  0  0  0  0  0  0
   35.5970   25.0990   30.8770 N   0  0  0  0  0  0  0  0  0  0  0  0
   36.5020   22.8670   31.2300 N   0  0  0  0  0  0  0  0  0  0  0  0
   34.8740   26.9560   30.6190 H   0  0  0  0  0  0  0  0  0  0  0  0
   37.3620   22.4170   30.9060 H   0  0  0  0  0  0  0  0  0  0  0  0
   35.5830   22.3750   31.3790 H   0  0  0  0  0  0  0  0  0  0  0  0
   37.7970   26.4180   34.2080 C   0  0  0  0  0  0  0  0  0  0  0  0
   36.9610   26.8060   35.1510 F   0  0  0  0  0  0  0  0  0  0  0  0
   38.6710   25.4690   34.7030 F   0  0  0  0  0  0  0  0  0  0  0  0
   38.6190   27.5350   33.8790 F   0  0  0  0  0  0  0  0  0  0  0  0
   36.4280   32.2610   35.6870 Cl  0  0  0  0  0  0  0  0  0  0  0  0
   34.8960   31.4610   35.8260 C   0  0  0  0  0  0  0  0  0  0  0  0
   34.4810   30.6130   34.8410 C   0  0  0  0  0  0  0  0  0  0  0  0
   33.2280   30.1000   35.0900 C   0  0  0  0  0  0  0  0  0  0  0  0
   32.7730   29.4020   34.3760 H   0  0  0  0  0  0  0  0  0  0  0  0
   32.4610   30.3850   36.1940 C   0  0  0  0  0  0  0  0  0  0  0  0
   31.4960   29.9430   36.3150 H   0  0  0  0  0  0  0  0  0  0  0  0
   32.9390   31.2460   37.1500 C   0  0  0  0  0  3  0  0  0  0  0  0
   34.1890   31.7880   36.9460 C   0  0  0  0  0  3  0  0  0  0  0  0
  1  6  1  0  0  0  0
  2  3  1  0  0  0  0
  2  1  2  0  0  0  0
  3  4  2  0  0  0  0
  4  9  1  0  0  0  0
  4  5  1  0  0  0  0
  5 26  1  0  0  0  0
  6  5  2  0  0  0  0
  7  2  1  0  0  0  0
  8  3  1  0  0  0  0
 10 11  1  0  0  0  0
 11  1  1  0  0  0  0
 11 12  2  0  0  0  0
 12 20  1  0  0  0  0
 13 12  1  0  0  0  0
 14 13  2  0  0  0  0
 15 10  2  0  0  0  0
 15 14  1  0  0  0  0
 16 19  1  0  0  0  0
 16 14  1  0  0  0  0
 17 10  1  0  0  0  0
 18 16  1  0  0  0  0
 20 22  1  0  0  0  0
 20 21  1  0  0  0  0
 23 20  1  0  0  0  0
 24 25  1  0  0  0  0
 25 32  1  0  0  0  0
 26 27  1  0  0  0  0
 26 25  2  0  0  0  0
 27 29  2  0  0  0  0
 28 27  1  0  0  0  0
 29 30  1  0  0  0  0
 29 31  1  0  0  0  0
 32 31  2  0  0  0  0
M  END
>  <minimizedAffinity>
-6.05452013

$$$$

 OpenBabel03262520233D

 32 34  0  0  0  0  0  0  0  0999 V2000
   36.1550   28.3640   32.3840 C   0  0  0  0  0  0  0  0  0  0  0  0
   36.5890   29.1890   31.3510 C   0  0  0  0  0  0  0  0  0  0  0  0
   36.4960   30.5410   31.3040 C   0  0  0  0  0  0  0  0  0  0  0  0
   35.9350   31.2040   32.3340 C   0  0  0  0  0  0  0  0  0  0  0  0
   35.5040   30.4350   33.3460 C   0  0  0  0  0  0  0  0  0  0  0  0
   35.6360   29.1340   33.3050 N   0  0  0  0  0  0  0  0  0  0  0  0
   37.0770   28.7200   30.4390 H   0  0  0  0  0  0  0  0  0  0  0  0
   36.8900   31.1010   30.4030 H   0  0  0  0  0  0  0  0  0  0  0  0
   35.8720   32.2420   32.3250 H   0  0  0  0  0  0  0  0  0  0  0  0
   35.5940   26.3750   31.2370 C   0  0  0  0  0  0  0  0  0  0  0  0
   36.3630   26.9300   32.3080 C   0  0  0  0  0  0  0  0  0  0  0  0
   37.1360   26.0590   33.0310 C   0  0  0  0  0  0  0  0  0  0  0  0
   37.1090   24.7370   32.6700 N   0  0  0  0  0  0  0  0  0  0  0  0
   36.3870   24.2350   31.6700 C   0  0  0  0  0  0  0  0  0  0  0  0
   35.6300   25.0760   30.9600 N   0  0  0  0  0  0  0  0  0  0  0  0
   36.4880   22.8510   31.4480 N   0  0  0  0  0  0  0  0  0  0  0  0
   34.9470   26.9290   30.5890 H   0  0  0  0  0  0  0  0  0  0  0  0
   37.3290   22.3570   31.1350 H   0  0  0  0  0  0  0  0  0  0  0  0
   35.5620   22.3960   31.6530 H   0  0  0  0  0  0  0  0  0  0  0  0
   37.9480   26.5660   34.1360 C   0  0  0  0  0  0  0  0  0  0  0  0
   38.8310   27.4200   33.6570 F   0  0  0  0  0  0  0  0  0  0  0  0
   37.2160   27.1500   35.1510 F   0  0  0  0  0  0  0  0  0  0  0  0
   38.6720   25.5120   34.7680 F   0  0  0  0  0  0  0  0  0  0  0  0
   32.4740   29.9060   33.9060 Cl  0  0  0  0  0  0  0  0  0  0  0  0
   33.5670   30.7340   34.9670 C   0  0  0  0  0  0  0  0  0  0  0  0
   34.8730   30.8960   34.6070 C   0  0  0  0  0  0  0  0  0  0  0  0
   35.6070   31.5350   35.5810 C   0  0  0  0  0  0  0  0  0  0  0  0
   36.6750   31.7290   35.4200 H   0  0  0  0  0  0  0  0  0  0  0  0
   35.1110   31.9730   36.7850 C   0  0  0  0  0  0  0  0  0  0  0  0
   35.7470   32.4620   37.4900 H   0  0  0  0  0  0  0  0  0  0  0  0
   33.7860   31.7790   37.0860 C   0  0  0  0  0  3  0  0  0  0  0  0
   33.0090   31.1440   36.1440 C   0  0  0  0  0  3  0  0  0  0  0  0
  1  6  1  0  0  0  0
  2  1  2  0  0  0  0
  3  2  1  0  0  0  0
  3  4  2  0  0  0  0
  4  5  1  0  0  0  0
  5 26  1  0  0  0  0
  6  5  2  0  0  0  0
  7  2  1  0  0  0  0
  8  3  1  0  0  0  0
  9  4  1  0  0  0  0
 10 11  1  0  0  0  0
 11  1  1  0  0  0  0
 11 12  2  0  0  0  0
 12 20  1  0  0  0  0
 13 12  1  0  0  0  0
 14 13  2  0  0  0  0
 15 10  2  0  0  0  0
 15 14  1  0  0  0  0
 16 19  1  0  0  0  0
 16 14  1  0  0  0  0
 17 10  1  0  0  0  0
 18 16  1  0  0  0  0
 20 23  1  0  0  0  0
 20 22  1  0  0  0  0
 21 20  1  0  0  0  0
 24 25  1  0  0  0  0
 25 32  1  0  0  0  0
 26 25  2  0  0  0  0
 26 27  1  0  0  0  0
 27 29  2  0  0  0  0
 28 27  1  0  0  0  0
 29 31  1  0  0  0  0
 29 30  1  0  0  0  0
 32 31  2  0  0  0  0
M  END
>  <minimizedAffinity>
-6.04319

$$$$

 OpenBabel03262520233D

 32 34  0  0  0  0  0  0  0  0999 V2000
   34.7560   29.7330   32.9970 C   0  0  0  0  0  0  0  0  0  0  0  0
   35.1840   30.5920   31.9880 C   0  0  0  0  0  0  0  0  0  0  0  0
   35.9130   30.2540   30.8960 C   0  0  0  0  0  0  0  0  0  0  0  0
   36.2890   28.9730   30.7180 C   0  0  0  0  0  0  0  0  0  0  0  0
   35.8930   28.1200   31.6760 C   0  0  0  0  0  0  0  0  0  0  0  0
   35.1900   28.5350   32.6980 N   0  0  0  0  0  0  0  0  0  0  0  0
   34.9140   31.6920   32.0510 H   0  0  0  0  0  0  0  0  0  0  0  0
   36.1990   31.0490   30.1430 H   0  0  0  0  0  0  0  0  0  0  0  0
   36.8320   28.6920   29.8780 H   0  0  0  0  0  0  0  0  0  0  0  0
   32.5610   29.9630   33.8400 C   0  0  0  0  0  0  0  0  0  0  0  0
   33.9430   30.2370   34.0870 C   0  0  0  0  0  0  0  0  0  0  0  0
   34.2470   30.8800   35.2590 C   0  0  0  0  0  0  0  0  0  0  0  0
   33.2080   31.2060   36.0910 N   0  0  0  0  0  0  0  0  0  0  0  0
   31.9260   30.9460   35.8470 C   0  0  0  0  0  0  0  0  0  0  0  0
   31.6190   30.3200   34.7080 N   0  0  0  0  0  0  0  0  0  0  0  0
   30.9990   31.3560   36.8210 N   0  0  0  0  0  0  0  0  0  0  0  0
   32.1740   29.4710   32.9720 H   0  0  0  0  0  0  0  0  0  0  0  0
   30.9290   30.9840   37.7720 H   0  0  0  0  0  0  0  0  0  0  0  0
   30.3830   32.1100   36.4210 H   0  0  0  0  0  0  0  0  0  0  0  0
   35.6420   31.1840   35.5710 C   0  0  0  0  0  0  0  0  0  0  0  0
   35.6970   31.7570   36.7570 F   0  0  0  0  0  0  0  0  0  0  0  0
   36.4810   30.0870   35.5280 F   0  0  0  0  0  0  0  0  0  0  0  0
   36.1930   32.1000   34.6280 F   0  0  0  0  0  0  0  0  0  0  0  0
   38.2820   26.9590   33.3240 Cl  0  0  0  0  0  0  0  0  0  0  0  0
   37.1500   26.0300   32.3980 C   0  0  0  0  0  0  0  0  0  0  0  0
   36.1440   26.6590   31.7240 C   0  0  0  0  0  0  0  0  0  0  0  0
   35.3150   25.7690   31.0780 C   0  0  0  0  0  0  0  0  0  0  0  0
   34.4620   26.1430   30.4970 H   0  0  0  0  0  0  0  0  0  0  0  0
   35.4580   24.4030   31.0880 C   0  0  0  0  0  0  0  0  0  0  0  0
   34.7700   23.7800   30.5600 H   0  0  0  0  0  0  0  0  0  0  0  0
   36.4930   23.8330   31.7860 C   0  0  0  0  0  3  0  0  0  0  0  0
   37.3520   24.6810   32.4510 C   0  0  0  0  0  3  0  0  0  0  0  0
  1 11  1  0  0  0  0
  2  7  1  0  0  0  0
  2  1  2  0  0  0  0
  3  2  1  0  0  0  0
  4  3  2  0  0  0  0
  4  5  1  0  0  0  0
  5 26  1  0  0  0  0
  5  6  2  0  0  0  0
  6  1  1  0  0  0  0
  8  3  1  0  0  0  0
  9  4  1  0  0  0  0
 10 11  2  0  0  0  0
 10 15  1  0  0  0  0
 11 12  1  0  0  0  0
 12 20  1  0  0  0  0
 12 13  2  0  0  0  0
 14 13  1  0  0  0  0
 14 16  1  0  0  0  0
 15 14  2  0  0  0  0
 16 18  1  0  0  0  0
 17 10  1  0  0  0  0
 19 16  1  0  0  0  0
 20 21  1  0  0  0  0
 22 20  1  0  0  0  0
 23 20  1  0  0  0  0
 25 32  1  0  0  0  0
 25 24  1  0  0  0  0
 26 25  2  0  0  0  0
 27 29  2  0  0  0  0
 27 26  1  0  0  0  0
 28 27  1  0  0  0  0
 29 31  1  0  0  0  0
 30 29  1  0  0  0  0
 31 32  2  0  0  0  0
M  END
>  <minimizedAffinity>
-6.02633762

$$$$

 OpenBabel03262520233D

 32 34  0  0  0  0  0  0  0  0999 V2000
   37.4160   22.5880   32.2720 C   0  0  0  0  0  0  0  0  0  0  0  0
   37.4030   23.8500   31.6860 C   0  0  0  0  0  0  0  0  0  0  0  0
   37.7540   25.0190   32.2770 C   0  0  0  0  0  0  0  0  0  0  0  0
   38.1640   25.0170   33.5600 C   0  0  0  0  0  0  0  0  0  0  0  0
   38.1850   23.8140   34.1550 C   0  0  0  0  0  0  0  0  0  0  0  0
   37.8280   22.7360   33.5050 N   0  0  0  0  0  0  0  0  0  0  0  0
   37.0730   23.9520   30.6050 H   0  0  0  0  0  0  0  0  0  0  0  0
   37.7010   25.9850   31.6900 H   0  0  0  0  0  0  0  0  0  0  0  0
   38.4540   25.9000   34.0250 H   0  0  0  0  0  0  0  0  0  0  0  0
   38.0960   21.0910   30.5750 C   0  0  0  0  0  0  0  0  0  0  0  0
   37.0510   21.4190   31.4950 C   0  0  0  0  0  0  0  0  0  0  0  0
   35.9480   20.6050   31.4950 C   0  0  0  0  0  0  0  0  0  0  0  0
   35.9370   19.5510   30.6190 N   0  0  0  0  0  0  0  0  0  0  0  0
   36.9180   19.2580   29.7670 C   0  0  0  0  0  0  0  0  0  0  0  0
   37.9970   20.0460   29.7600 N   0  0  0  0  0  0  0  0  0  0  0  0
   36.7290   18.1350   28.9450 N   0  0  0  0  0  0  0  0  0  0  0  0
   39.0110   21.6330   30.4610 H   0  0  0  0  0  0  0  0  0  0  0  0
   36.6710   17.1640   29.2650 H   0  0  0  0  0  0  0  0  0  0  0  0
   36.6560   18.4450   27.9410 H   0  0  0  0  0  0  0  0  0  0  0  0
   34.8480   20.8860   32.4150 C   0  0  0  0  0  0  0  0  0  0  0  0
   35.1830   20.4650   33.6200 F   0  0  0  0  0  0  0  0  0  0  0  0
   34.4740   22.2150   32.4580 F   0  0  0  0  0  0  0  0  0  0  0  0
   33.6650   20.1870   32.0320 F   0  0  0  0  0  0  0  0  0  0  0  0
   40.8940   22.3610   34.7200 Cl  0  0  0  0  0  0  0  0  0  0  0  0
   39.7610   22.8860   35.9230 C   0  0  0  0  0  0  0  0  0  0  0  0
   38.6120   23.5160   35.5440 C   0  0  0  0  0  0  0  0  0  0  0  0
   37.8500   23.9020   36.6250 C   0  0  0  0  0  0  0  0  0  0  0  0
   36.8960   24.4210   36.4610 H   0  0  0  0  0  0  0  0  0  0  0  0
   38.1780   23.6890   37.9410 C   0  0  0  0  0  0  0  0  0  0  0  0
   37.5310   24.0190   38.7240 H   0  0  0  0  0  0  0  0  0  0  0  0
   39.3510   23.0470   38.2540 C   0  0  0  0  0  3  0  0  0  0  0  0
   40.1500   22.6420   37.2080 C   0  0  0  0  0  3  0  0  0  0  0  0
  1  6  1  0  0  0  0
  2  1  2  0  0  0  0
  2  3  1  0  0  0  0
  3  4  2  0  0  0  0
  4  9  1  0  0  0  0
  4  5  1  0  0  0  0
  5 26  1  0  0  0  0
  6  5  2  0  0  0  0
  7  2  1  0  0  0  0
  8  3  1  0  0  0  0
 10 11  1  0  0  0  0
 11 12  2  0  0  0  0
 11  1  1  0  0  0  0
 12 20  1  0  0  0  0
 13 12  1  0  0  0  0
 14 13  2  0  0  0  0
 15 14  1  0  0  0  0
 15 10  2  0  0  0  0
 16 18  1  0  0  0  0
 16 14  1  0  0  0  0
 17 10  1  0  0  0  0
 19 16  1  0  0  0  0
 20 22  1  0  0  0  0
 20 21  1  0  0  0  0
 23 20  1  0  0  0  0
 24 25  1  0  0  0  0
 25 32  1  0  0  0  0
 26 25  2  0  0  0  0
 26 27  1  0  0  0  0
 27 29  2  0  0  0  0
 28 27  1  0  0  0  0
 29 31  1  0  0  0  0
 29 30  1  0  0  0  0
 32 31  2  0  0  0  0
M  END
>  <minimizedAffinity>
-6.01306009

$$$$

 OpenBabel03262520233D

 32 34  0  0  0  0  0  0  0  0999 V2000
   36.3190   28.2350   33.2050 C   0  0  0  0  0  0  0  0  0  0  0  0
   36.5820   29.0070   32.0770 C   0  0  0  0  0  0  0  0  0  0  0  0
   36.1740   30.2810   31.8580 C   0  0  0  0  0  0  0  0  0  0  0  0
   35.4360   30.9120   32.7910 C   0  0  0  0  0  0  0  0  0  0  0  0
   35.1630   30.1930   33.8910 C   0  0  0  0  0  0  0  0  0  0  0  0
   35.6000   28.9660   34.0180 N   0  0  0  0  0  0  0  0  0  0  0  0
   37.1980   28.5590   31.2350 H   0  0  0  0  0  0  0  0  0  0  0  0
   36.4550   30.8040   30.8940 H   0  0  0  0  0  0  0  0  0  0  0  0
   35.1300   31.8950   32.6500 H   0  0  0  0  0  0  0  0  0  0  0  0
   37.5880   26.7530   34.5380 C   0  0  0  0  0  0  0  0  0  0  0  0
   36.8620   26.8940   33.3140 C   0  0  0  0  0  0  0  0  0  0  0  0
   36.7930   25.7910   32.5040 C   0  0  0  0  0  0  0  0  0  0  0  0
   37.4230   24.6500   32.9300 N   0  0  0  0  0  0  0  0  0  0  0  0
   38.0960   24.5340   34.0730 C   0  0  0  0  0  0  0  0  0  0  0  0
   38.1680   25.6040   34.8690 N   0  0  0  0  0  0  0  0  0  0  0  0
   38.6760   23.2820   34.3430 N   0  0  0  0  0  0  0  0  0  0  0  0
   37.7270   27.5240   35.2670 H   0  0  0  0  0  0  0  0  0  0  0  0
   38.1630   22.4130   34.5160 H   0  0  0  0  0  0  0  0  0  0  0  0
   39.7240   23.3750   34.3400 H   0  0  0  0  0  0  0  0  0  0  0  0
   36.0620   25.8700   31.2410 C   0  0  0  0  0  0  0  0  0  0  0  0
   34.8260   26.2610   31.4890 F   0  0  0  0  0  0  0  0  0  0  0  0
   36.6470   26.6970   30.3020 F   0  0  0  0  0  0  0  0  0  0  0  0
   35.9870   24.5950   30.6080 F   0  0  0  0  0  0  0  0  0  0  0  0
   36.3560   32.3090   35.8590 Cl  0  0  0  0  0  0  0  0  0  0  0  0
   34.8060   31.5490   36.0130 C   0  0  0  0  0  0  0  0  0  0  0  0
   34.3980   30.6410   35.0800 C   0  0  0  0  0  0  0  0  0  0  0  0
   33.1280   30.1700   35.3320 C   0  0  0  0  0  0  0  0  0  0  0  0
   32.6770   29.4320   34.6570 H   0  0  0  0  0  0  0  0  0  0  0  0
   32.3400   30.5480   36.3920 C   0  0  0  0  0  0  0  0  0  0  0  0
   31.3640   30.1340   36.5190 H   0  0  0  0  0  0  0  0  0  0  0  0
   32.8120   31.4660   37.2970 C   0  0  0  0  0  3  0  0  0  0  0  0
   34.0770   31.9690   37.0880 C   0  0  0  0  0  3  0  0  0  0  0  0
  1 11  1  0  0  0  0
  1  6  1  0  0  0  0
  2  1  2  0  0  0  0
  3  2  1  0  0  0  0
  3  4  2  0  0  0  0
  4  5  1  0  0  0  0
  5  6  2  0  0  0  0
  5 26  1  0  0  0  0
  7  2  1  0  0  0  0
  8  3  1  0  0  0  0
  9  4  1  0  0  0  0
 10 15  1  0  0  0  0
 10 17  1  0  0  0  0
 11 10  2  0  0  0  0
 12 13  2  0  0  0  0
 12 11  1  0  0  0  0
 13 14  1  0  0  0  0
 14 16  1  0  0  0  0
 14 15  2  0  0  0  0
 16 18  1  0  0  0  0
 19 16  1  0  0  0  0
 20 21  1  0  0  0  0
 20 12  1  0  0  0  0
 22 20  1  0  0  0  0
 23 20  1  0  0  0  0
 24 25  1  0  0  0  0
 25 32  1  0  0  0  0
 26 27  1  0  0  0  0
 26 25  2  0  0  0  0
 27 29  2  0  0  0  0
 28 27  1  0  0  0  0
 29 30  1  0  0  0  0
 29 31  1  0  0  0  0
 32 31  2  0  0  0  0
M  END
>  <minimizedAffinity>
-5.9941864

$$$$

 OpenBabel03262520233D

 32 34  0  0  0  0  0  0  0  0999 V2000
   35.1630   29.4950   33.7120 C   0  0  0  0  0  0  0  0  0  0  0  0
   35.2800   29.9600   32.4050 C   0  0  0  0  0  0  0  0  0  0  0  0
   36.1340   29.5000   31.4580 C   0  0  0  0  0  0  0  0  0  0  0  0
   36.9760   28.4920   31.7570 C   0  0  0  0  0  0  0  0  0  0  0  0
   36.8890   28.0230   33.0110 C   0  0  0  0  0  0  0  0  0  0  0  0
   36.0330   28.5290   33.8600 N   0  0  0  0  0  0  0  0  0  0  0  0
   34.6090   30.8090   32.0610 H   0  0  0  0  0  0  0  0  0  0  0  0
   36.1320   29.9640   30.4260 H   0  0  0  0  0  0  0  0  0  0  0  0
   37.6250   28.1130   31.0380 H   0  0  0  0  0  0  0  0  0  0  0  0
   32.8910   29.4640   34.3620 C   0  0  0  0  0  0  0  0  0  0  0  0
   34.1670   30.0630   34.6020 C   0  0  0  0  0  0  0  0  0  0  0  0
   34.2320   31.0100   35.5900 C   0  0  0  0  0  0  0  0  0  0  0  0
   33.0740   31.3040   36.2630 N   0  0  0  0  0  0  0  0  0  0  0  0
   31.8920   30.7380   36.0290 C   0  0  0  0  0  0  0  0  0  0  0  0
   31.8200   29.8140   35.0670 N   0  0  0  0  0  0  0  0  0  0  0  0
   30.8150   31.1670   36.8230 N   0  0  0  0  0  0  0  0  0  0  0  0
   32.6880   28.7150   33.6260 H   0  0  0  0  0  0  0  0  0  0  0  0
   30.7230   31.0210   37.8320 H   0  0  0  0  0  0  0  0  0  0  0  0
   30.1120   31.6650   36.2180 H   0  0  0  0  0  0  0  0  0  0  0  0
   35.5090   31.6560   35.8860 C   0  0  0  0  0  0  0  0  0  0  0  0
   35.3710   32.3970   36.9680 F   0  0  0  0  0  0  0  0  0  0  0  0
   36.5630   30.7760   36.0370 F   0  0  0  0  0  0  0  0  0  0  0  0
   35.9060   32.5210   34.8240 F   0  0  0  0  0  0  0  0  0  0  0  0
   36.3880   25.0670   32.1280 Cl  0  0  0  0  0  0  0  0  0  0  0  0
   37.5480   25.5840   33.3070 C   0  0  0  0  0  0  0  0  0  0  0  0
   37.6740   26.9100   33.6010 C   0  0  0  0  0  0  0  0  0  0  0  0
   38.6680   27.1480   34.5240 C   0  0  0  0  0  0  0  0  0  0  0  0
   38.8750   28.1750   34.8500 H   0  0  0  0  0  0  0  0  0  0  0  0
   39.4570   26.1830   35.1020 C   0  0  0  0  0  0  0  0  0  0  0  0
   40.2090   26.4490   35.8120 H   0  0  0  0  0  0  0  0  0  0  0  0
   39.2790   24.8650   34.7630 C   0  0  0  0  0  3  0  0  0  0  0  0
   38.2960   24.5750   33.8420 C   0  0  0  0  0  3  0  0  0  0  0  0
  1  6  1  0  0  0  0
  1 11  1  0  0  0  0
  2  1  2  0  0  0  0
  3  4  2  0  0  0  0
  3  2  1  0  0  0  0
  4  5  1  0  0  0  0
  5 26  1  0  0  0  0
  5  6  2  0  0  0  0
  7  2  1  0  0  0  0
  8  3  1  0  0  0  0
  9  4  1  0  0  0  0
 10 11  2  0  0  0  0
 10 15  1  0  0  0  0
 11 12  1  0  0  0  0
 12 20  1  0  0  0  0
 12 13  2  0  0  0  0
 14 13  1  0  0  0  0
 14 16  1  0  0  0  0
 15 14  2  0  0  0  0
 16 18  1  0  0  0  0
 17 10  1  0  0  0  0
 19 16  1  0  0  0  0
 20 22  1  0  0  0  0
 20 21  1  0  0  0  0
 23 20  1  0  0  0  0
 24 25  1  0  0  0  0
 25 26  2  0  0  0  0
 25 32  1  0  0  0  0
 26 27  1  0  0  0  0
 27 28  1  0  0  0  0
 27 29  2  0  0  0  0
 29 30  1  0  0  0  0
 31 29  1  0  0  0  0
 32 31  2  0  0  0  0
M  END
>  <minimizedAffinity>
-5.99264956

$$$$
