
 OpenBabel03272510013D

 21 22  0  0  0  0  0  0  0  0999 V2000
   38.0730   31.3570   50.2550 C   0  0  0  0  0  0  0  0  0  0  0  0
   38.7010   31.8400   49.0820 C   0  0  0  0  0  0  0  0  0  0  0  0
   38.0210   31.7210   47.8810 C   0  0  0  0  0  0  0  0  0  0  0  0
   36.7920   31.1430   47.9230 N   0  0  0  0  0  0  0  0  0  0  0  0
   36.2180   30.6940   49.0400 C   0  0  0  0  0  0  0  0  0  0  0  0
   36.8610   30.8040   50.1970 N   0  0  0  0  0  0  0  0  0  0  0  0
   38.5720   31.4320   51.2140 H   0  0  0  0  0  0  0  0  0  0  0  0
   39.6710   32.2850   49.1110 H   0  0  0  0  0  0  0  0  0  0  0  0
   36.6070   30.7090   45.3870 Cl  0  0  0  0  0  0  0  0  0  0  0  0
   37.9840   31.7720   45.4360 C   0  0  0  0  0  0  0  0  0  0  0  0
   38.5620   32.1790   46.6100 C   0  0  0  0  0  0  0  0  0  0  0  0
   39.6460   33.0210   46.4940 C   0  0  0  0  0  0  0  0  0  0  0  0
   40.1450   33.3780   47.3840 H   0  0  0  0  0  0  0  0  0  0  0  0
   40.1380   33.4410   45.2780 C   0  0  0  0  0  0  0  0  0  0  0  0
   40.9970   34.1050   45.2370 H   0  0  0  0  0  0  0  0  0  0  0  0
   39.5500   33.0250   44.0990 C   0  0  0  0  0  3  0  0  0  0  0  0
   38.4470   32.1700   44.1840 C   0  0  0  0  0  3  0  0  0  0  0  0
   34.8780   30.0860   48.9250 C   0  0  0  0  0  0  0  0  0  0  0  0
   34.1090   30.2660   50.0710 F   0  0  0  0  0  0  0  0  0  0  0  0
   34.1500   30.6380   47.8860 F   0  0  0  0  0  0  0  0  0  0  0  0
   34.9090   28.7230   48.6830 F   0  0  0  0  0  0  0  0  0  0  0  0
  1  7  1  0  0  0  0
  2  8  1  0  0  0  0
  2  1  2  0  0  0  0
  3  4  2  0  0  0  0
  3  2  1  0  0  0  0
  4  5  1  0  0  0  0
  5  6  2  0  0  0  0
  6  1  1  0  0  0  0
  9 10  1  0  0  0  0
 10 11  1  0  0  0  0
 11  3  1  0  0  0  0
 12 11  2  0  0  0  0
 12 13  1  0  0  0  0
 14 12  1  0  0  0  0
 15 14  1  0  0  0  0
 16 17  1  0  0  0  0
 16 14  2  0  0  0  0
 17 10  2  0  0  0  0
 18  5  1  0  0  0  0
 18 19  1  0  0  0  0
 20 18  1  0  0  0  0
 21 18  1  0  0  0  0
M  END
>  <minimizedAffinity>
-5.6834054

>  <minimizedRMSD>
1.92721272

$$$$
