REMARK  Name = 
REMARK  2 active torsions:
REMARK  status: ('A' for Active; 'I' for Inactive)
REMARK    1  A    between atoms: C_3  and  C_15
REMARK    2  A    between atoms: C_5  and  C_7
REMARK                            x       y       z     vdW  Elec       q    Type
REMARK                         _______ _______ _______ _____ _____    ______ ____
ROOT
ATOM      1  C   UNL     1      38.306  31.233  50.123  0.00  0.00    +0.000 A 
ATOM      2  C   UNL     1      38.286  31.606  48.758  0.00  0.00    +0.000 A 
ATOM      3  C   UNL     1      37.197  31.223  47.992  0.00  0.00    +0.000 A 
ATOM      4  N   UNL     1      36.223  30.511  48.617  0.00  0.00    +0.000 NA
ATOM      5  C   UNL     1      36.262  30.169  49.906  0.00  0.00    +0.000 A 
ATOM      6  N   UNL     1      37.301  30.532  50.649  0.00  0.00    +0.000 NA
ATOM      7  H   UNL     1      39.140  31.513  50.755  0.00  0.00    +0.000 HD
ATOM      8  H   UNL     1      39.082  32.167  48.321  0.00  0.00    +0.000 HD
ENDROOT
BRANCH   3  11
ATOM      9 CL   UNL     1      38.351  29.195  46.043  0.00  0.00    +0.000 Cl
ATOM     10  C   UNL     1      37.554  30.688  45.632  0.00  0.00    +0.000 A 
ATOM     11  C   UNL     1      37.062  31.547  46.579  0.00  0.00    +0.000 A 
ATOM     12  C   UNL     1      36.456  32.690  46.107  0.00  0.00    +0.000 A 
ATOM     13  H   UNL     1      36.047  33.407  46.804  0.00  0.00    +0.000 HD
ATOM     14  C   UNL     1      36.341  32.973  44.764  0.00  0.00    +0.000 A 
ATOM     15  H   UNL     1      35.854  33.889  44.440  0.00  0.00    +0.000 HD
ATOM     16  C   UNL     1      36.841  32.101  43.816  0.00  0.00    +0.000 A 
ATOM     17  C   UNL     1      37.462  30.932  44.264  0.00  0.00    +0.000 A 
ENDBRANCH   3  11
BRANCH   5  18
ATOM     18  C   UNL     1      35.129  29.389  50.442  0.00  0.00    +0.000 C 
ATOM     19  F   UNL     1      35.258  29.126  51.803  0.00  0.00    +0.000 F 
ATOM     20  F   UNL     1      33.928  30.059  50.294  0.00  0.00    +0.000 F 
ATOM     21  F   UNL     1      34.959  28.164  49.820  0.00  0.00    +0.000 F 
ENDBRANCH   5  18
TORSDOF 2
