
 OpenBabel03272504273D

 42 45  0  0  0  0  0  0  0  0999 V2000
   34.1840   28.4480   48.1330 C   0  0  0  0  0  0  0  0  0  0  0  0
   34.0690   27.1060   48.0510 C   0  0  0  0  0  0  0  0  0  0  0  0
   33.1110   26.5360   47.3150 C   0  0  0  0  0  0  0  0  0  0  0  0
   32.2440   27.3370   46.6440 N   0  0  0  0  0  0  0  0  0  0  0  0
   32.3570   28.6560   46.7250 C   0  0  0  0  0  0  0  0  0  0  0  0
   33.3190   29.2240   47.4640 N   0  0  0  0  0  0  0  0  0  0  0  0
   34.7870   26.5190   48.6050 H   0  0  0  0  0  0  0  0  0  0  0  0
   33.0630   25.4510   47.2810 H   0  0  0  0  0  0  0  0  0  0  0  0
   30.0560   29.4170   46.3310 C   0  0  0  0  0  0  0  0  0  0  0  0
   31.3990   29.3980   45.9470 C   0  0  0  0  0  0  0  0  0  0  0  0
   31.8950   30.0330   44.8190 C   0  0  0  0  0  0  0  0  0  0  0  0
   31.0170   30.7320   44.0110 C   0  0  0  0  0  0  0  0  0  0  0  0
   29.6740   30.8030   44.3110 C   0  0  0  0  0  0  0  0  0  0  0  0
   29.2830   30.1480   45.4400 C   0  0  0  0  0  0  0  0  0  0  0  0
   32.9440   29.9910   44.5630 H   0  0  0  0  0  0  0  0  0  0  0  0
   31.4100   31.2250   43.1320 H   0  0  0  0  0  0  0  0  0  0  0  0
   28.9680   31.3390   43.7000 H   0  0  0  0  0  0  0  0  0  0  0  0
   28.2190   30.2060   45.6760 H   0  0  0  0  0  0  0  0  0  0  0  0
   29.4450   28.6890   47.7030 S   0  0  0  0  0  0  0  0  0  0  0  0
   28.8690   27.4190   46.9880 O   0  0  0  0  0  0  0  0  0  0  0  0
   28.2920   29.5370   48.1780 O   0  0  0  0  0  0  0  0  0  0  0  0
   29.5950   27.7980   49.0180 C   0  0  0  0  0  0  0  0  0  0  0  0
   28.7110   26.7710   49.4120 F   0  0  0  0  0  0  0  0  0  0  0  0
   29.1970   28.5920   50.2010 F   0  0  0  0  0  0  0  0  0  0  0  0
   30.8510   27.6340   49.6660 F   0  0  0  0  0  0  0  0  0  0  0  0
   36.2660   29.6070   50.9210 C   0  0  0  0  0  0  0  0  0  0  0  0
   37.2500   30.3700   50.2640 C   0  0  0  0  0  0  0  0  0  0  0  0
   37.1730   30.4700   48.8840 C   0  0  0  0  0  0  0  0  0  0  0  0
   36.1550   29.8220   48.2790 N   0  0  0  0  0  0  0  0  0  0  0  0
   35.2200   29.0930   48.9220 C   0  0  0  0  0  0  0  0  0  0  0  0
   35.2910   28.9960   50.2480 N   0  0  0  0  0  0  0  0  0  0  0  0
   36.3330   29.5350   51.9960 H   0  0  0  0  0  0  0  0  0  0  0  0
   38.0330   30.8420   50.7950 H   0  0  0  0  0  0  0  0  0  0  0  0
   38.0890   33.4250   49.4120 Cl  0  0  0  0  0  0  0  0  0  0  0  0
   38.5820   32.4390   48.0630 C   0  0  0  0  0  0  0  0  0  0  0  0
   38.0670   31.1710   48.0050 C   0  0  0  0  0  0  0  0  0  0  0  0
   38.5180   30.5150   46.8620 C   0  0  0  0  0  0  0  0  0  0  0  0
   38.2240   29.4790   46.6190 H   0  0  0  0  0  0  0  0  0  0  0  0
   39.3600   31.0620   45.9260 C   0  0  0  0  0  0  0  0  0  0  0  0
   39.6820   30.5110   45.0560 H   0  0  0  0  0  0  0  0  0  0  0  0
   39.8260   32.3480   46.0740 C   0  0  0  0  0  0  0  0  0  0  0  0
   39.4140   33.0300   47.1730 C   0  0  0  0  0  0  0  0  0  0  0  0
  1 30  1  0  0  0  0
  2  1  1  0  0  0  0
  2  7  1  0  0  0  0
  3  2  2  0  0  0  0
  4  5  2  0  0  0  0
  4  3  1  0  0  0  0
  5  6  1  0  0  0  0
  6  1  2  0  0  0  0
  8  3  1  0  0  0  0
  9 19  1  0  0  0  0
 10  9  1  0  0  0  0
 10  5  1  0  0  0  0
 11 10  2  0  0  0  0
 12 13  2  0  0  0  0
 12 11  1  0  0  0  0
 13 14  1  0  0  0  0
 14 18  1  0  0  0  0
 14  9  2  0  0  0  0
 15 11  1  0  0  0  0
 16 12  1  0  0  0  0
 17 13  1  0  0  0  0
 19 21  2  0  0  0  0
 19 22  1  0  0  0  0
 20 19  2  0  0  0  0
 22 23  1  0  0  0  0
 22 25  1  0  0  0  0
 22 24  1  0  0  0  0
 26 32  1  0  0  0  0
 27 33  1  0  0  0  0
 27 26  1  0  0  0  0
 28 27  2  0  0  0  0
 29 28  1  0  0  0  0
 29 30  2  0  0  0  0
 30 31  1  0  0  0  0
 31 26  2  0  0  0  0
 35 34  1  0  0  0  0
 36 35  1  0  0  0  0
 36 28  1  0  0  0  0
 37 36  2  0  0  0  0
 38 37  1  0  0  0  0
 39 41  2  0  0  0  0
 39 37  1  0  0  0  0
 40 39  1  0  0  0  0
 41 42  1  0  0  0  0
 42 35  2  0  0  0  0
M  END
>  <minimizedAffinity>
-7.37954807

>  <minimizedRMSD>
2.52354598

$$$$
