
     RDKit          3D

 23 24  0  0  0  0  0  0  0  0999 V2000
   38.3065   31.2329   50.1234 C   0  0  0  0  0  0  0  0  0  0  0  0
   38.2863   31.6061   48.7582 C   0  0  0  0  0  0  0  0  0  0  0  0
   37.1966   31.2228   47.9915 C   0  0  0  0  0  0  0  0  0  0  0  0
   36.2230   30.5111   48.6165 N   0  0  0  0  0  0  0  0  0  0  0  0
   36.2621   30.1695   49.9057 C   0  0  0  0  0  0  0  0  0  0  0  0
   37.3012   30.5320   50.6494 N   0  0  0  0  0  0  0  0  0  0  0  0
   35.1285   29.3889   50.4416 C   0  0  0  0  0  0  0  0  0  0  0  0
   35.2576   29.1257   51.8027 F   0  0  0  0  0  0  0  0  0  0  0  0
   33.9281   30.0589   50.2945 F   0  0  0  0  0  0  0  0  0  0  0  0
   34.9590   28.1641   49.8203 F   0  0  0  0  0  0  0  0  0  0  0  0
   39.1399   31.5134   50.7548 H   0  0  0  0  0  0  0  0  0  0  0  0
   39.0820   32.1666   48.3210 H   0  0  0  0  0  0  0  0  0  0  0  0
   39.3804   30.1573   46.1649 Cl  0  0  0  0  0  0  0  0  0  0  0  0
   38.0023   31.1059   45.6856 C   0  0  0  0  0  0  0  0  0  0  0  0
   37.0616   31.5469   46.5787 C   0  0  0  0  0  0  0  0  0  0  0  0
   36.0255   32.2876   46.0555 C   0  0  0  0  0  0  0  0  0  0  0  0
   35.2519   32.6639   46.7096 H   0  0  0  0  0  0  0  0  0  0  0  0
   35.9210   32.5805   44.7136 C   0  0  0  0  0  0  0  0  0  0  0  0
   35.0842   33.1692   44.3482 H   0  0  0  0  0  0  0  0  0  0  0  0
   36.8738   32.1320   43.8202 C   0  0  0  0  0  0  0  0  0  0  0  0
   37.9384   31.3773   44.3204 C   0  0  0  0  0  0  0  0  0  0  0  0
   36.7386   32.3933   42.7791 H   0  0  0  0  0  0  0  0  0  0  0  0
   38.6640   31.0411   43.6084 H   0  0  0  0  0  0  0  0  0  0  0  0
  1  6  2  0
  2  1  1  0
  3  4  1  0
  3  2  2  0
  4  5  2  0
  5  7  1  0
  5  6  1  0
  7  8  1  0
  9  7  1  0
 10  7  1  0
  1 11  1  0
  2 12  1  0
 13 14  1  0
 14 15  2  0
 15 16  1  0
 16 17  1  0
 16 18  2  0
 18 19  1  0
 18 20  1  0
 20 21  2  0
 21 14  1  0
 20 22  1  0
 21 23  1  0
  3 15  1  0
M  ISO  4  11  14  12  14  17  15  19  16
M  END
>  <DihAtoms>  (1) 
3,2,14,13

>  <DihDeg>  (1) 
0.0049961559325213765

$$$$
