
 OpenBabel03272510033D

 21 22  0  0  0  0  0  0  0  0999 V2000
   40.0480   22.5920   35.4730 C   0  0  0  0  0  0  0  0  0  0  0  0
   39.4900   23.4310   34.4790 C   0  0  0  0  0  0  0  0  0  0  0  0
   38.5430   24.3640   34.8680 C   0  0  0  0  0  0  0  0  0  0  0  0
   38.2200   24.4020   36.1870 N   0  0  0  0  0  0  0  0  0  0  0  0
   38.7580   23.6010   37.1080 C   0  0  0  0  0  0  0  0  0  0  0  0
   39.6670   22.7040   36.7460 N   0  0  0  0  0  0  0  0  0  0  0  0
   40.7910   21.8500   35.2090 H   0  0  0  0  0  0  0  0  0  0  0  0
   39.7840   23.3550   33.4550 H   0  0  0  0  0  0  0  0  0  0  0  0
   38.9080   27.3260   35.4500 Cl  0  0  0  0  0  0  0  0  0  0  0  0
   38.0120   26.6340   34.1280 C   0  0  0  0  0  0  0  0  0  0  0  0
   37.8990   25.2820   33.9390 C   0  0  0  0  0  0  0  0  0  0  0  0
   37.1590   24.8800   32.8500 C   0  0  0  0  0  0  0  0  0  0  0  0
   37.0320   23.8250   32.6470 H   0  0  0  0  0  0  0  0  0  0  0  0
   36.5590   25.7690   31.9860 C   0  0  0  0  0  0  0  0  0  0  0  0
   35.9850   25.4030   31.1390 H   0  0  0  0  0  0  0  0  0  0  0  0
   36.6790   27.1300   32.1830 C   0  0  0  0  0  3  0  0  0  0  0  0
   37.4240   27.5710   33.2810 C   0  0  0  0  0  3  0  0  0  0  0  0
   38.3010   23.7580   38.5030 C   0  0  0  0  0  0  0  0  0  0  0  0
   37.3310   22.8240   38.8560 F   0  0  0  0  0  0  0  0  0  0  0  0
   39.3370   23.5930   39.4050 F   0  0  0  0  0  0  0  0  0  0  0  0
   37.7610   25.0050   38.7700 F   0  0  0  0  0  0  0  0  0  0  0  0
  1  6  1  0  0  0  0
  2  3  1  0  0  0  0
  2  1  2  0  0  0  0
  3  4  2  0  0  0  0
  4  5  1  0  0  0  0
  5 18  1  0  0  0  0
  6  5  2  0  0  0  0
  7  1  1  0  0  0  0
  8  2  1  0  0  0  0
 10  9  1  0  0  0  0
 11 10  1  0  0  0  0
 11  3  1  0  0  0  0
 12 11  2  0  0  0  0
 13 12  1  0  0  0  0
 14 16  2  0  0  0  0
 14 12  1  0  0  0  0
 15 14  1  0  0  0  0
 16 17  1  0  0  0  0
 17 10  2  0  0  0  0
 18 21  1  0  0  0  0
 18 19  1  0  0  0  0
 18 20  1  0  0  0  0
M  END
>  <minimizedAffinity>
-5.22337961

$$$$

 OpenBabel03272510033D

 21 22  0  0  0  0  0  0  0  0999 V2000
   39.8530   23.5790   35.0240 C   0  0  0  0  0  0  0  0  0  0  0  0
   39.1790   24.5790   34.2820 C   0  0  0  0  0  0  0  0  0  0  0  0
   38.2010   25.3210   34.9240 C   0  0  0  0  0  0  0  0  0  0  0  0
   37.9620   25.0270   36.2290 N   0  0  0  0  0  0  0  0  0  0  0  0
   38.6090   24.0800   36.9100 C   0  0  0  0  0  0  0  0  0  0  0  0
   39.5480   23.3640   36.3040 N   0  0  0  0  0  0  0  0  0  0  0  0
   40.6240   22.9780   34.5570 H   0  0  0  0  0  0  0  0  0  0  0  0
   39.4110   24.7640   33.2570 H   0  0  0  0  0  0  0  0  0  0  0  0
   37.2350   24.7130   32.1070 Cl  0  0  0  0  0  0  0  0  0  0  0  0
   36.9670   26.1850   32.9970 C   0  0  0  0  0  0  0  0  0  0  0  0
   37.4400   26.3750   34.2690 C   0  0  0  0  0  0  0  0  0  0  0  0
   37.1520   27.5900   34.8490 C   0  0  0  0  0  0  0  0  0  0  0  0
   37.4980   27.8010   35.8520 H   0  0  0  0  0  0  0  0  0  0  0  0
   36.4300   28.5710   34.2070 C   0  0  0  0  0  0  0  0  0  0  0  0
   36.2270   29.5140   34.7070 H   0  0  0  0  0  0  0  0  0  0  0  0
   35.9560   28.3700   32.9260 C   0  0  0  0  0  3  0  0  0  0  0  0
   36.2330   27.1470   32.3080 C   0  0  0  0  0  3  0  0  0  0  0  0
   38.2330   23.8750   38.3230 C   0  0  0  0  0  0  0  0  0  0  0  0
   37.2680   22.8840   38.4810 F   0  0  0  0  0  0  0  0  0  0  0  0
   39.3150   23.4810   39.0900 F   0  0  0  0  0  0  0  0  0  0  0  0
   37.7310   25.0120   38.9310 F   0  0  0  0  0  0  0  0  0  0  0  0
  1  6  1  0  0  0  0
  2  3  1  0  0  0  0
  2  1  2  0  0  0  0
  3  4  2  0  0  0  0
  4  5  1  0  0  0  0
  5 18  1  0  0  0  0
  6  5  2  0  0  0  0
  7  1  1  0  0  0  0
  8  2  1  0  0  0  0
  9 10  1  0  0  0  0
 10 11  1  0  0  0  0
 11 12  2  0  0  0  0
 11  3  1  0  0  0  0
 12 13  1  0  0  0  0
 14 15  1  0  0  0  0
 14 12  1  0  0  0  0
 16 14  2  0  0  0  0
 17 16  1  0  0  0  0
 17 10  2  0  0  0  0
 18 19  1  0  0  0  0
 18 21  1  0  0  0  0
 18 20  1  0  0  0  0
M  END
>  <minimizedAffinity>
-5.21864414

$$$$

 OpenBabel03272510033D

 21 22  0  0  0  0  0  0  0  0999 V2000
   40.6290   22.3040   35.8710 C   0  0  0  0  0  0  0  0  0  0  0  0
   39.7570   22.0840   34.7780 C   0  0  0  0  0  0  0  0  0  0  0  0
   38.4160   22.3930   34.9390 C   0  0  0  0  0  0  0  0  0  0  0  0
   38.0380   22.8870   36.1470 N   0  0  0  0  0  0  0  0  0  0  0  0
   38.8770   23.0860   37.1650 C   0  0  0  0  0  0  0  0  0  0  0  0
   40.1640   22.7940   37.0200 N   0  0  0  0  0  0  0  0  0  0  0  0
   41.6840   22.0740   35.7840 H   0  0  0  0  0  0  0  0  0  0  0  0
   40.1120   21.6920   33.8510 H   0  0  0  0  0  0  0  0  0  0  0  0
   38.2960   24.5760   32.8270 Cl  0  0  0  0  0  0  0  0  0  0  0  0
   37.3020   23.1480   32.8980 C   0  0  0  0  0  0  0  0  0  0  0  0
   37.4240   22.2120   33.8900 C   0  0  0  0  0  0  0  0  0  0  0  0
   36.5700   21.1340   33.8160 C   0  0  0  0  0  0  0  0  0  0  0  0
   36.6170   20.3600   34.5710 H   0  0  0  0  0  0  0  0  0  0  0  0
   35.6390   20.9870   32.8120 C   0  0  0  0  0  0  0  0  0  0  0  0
   34.9860   20.1180   32.7970 H   0  0  0  0  0  0  0  0  0  0  0  0
   35.5240   21.9350   31.8160 C   0  0  0  0  0  3  0  0  0  0  0  0
   36.3760   23.0420   31.8620 C   0  0  0  0  0  3  0  0  0  0  0  0
   38.3160   23.6260   38.4190 C   0  0  0  0  0  0  0  0  0  0  0  0
   39.2740   23.7590   39.4200 F   0  0  0  0  0  0  0  0  0  0  0  0
   37.7730   24.8860   38.2390 F   0  0  0  0  0  0  0  0  0  0  0  0
   37.3010   22.8480   38.9500 F   0  0  0  0  0  0  0  0  0  0  0  0
  1  6  1  0  0  0  0
  2  3  1  0  0  0  0
  2  1  2  0  0  0  0
  3  4  2  0  0  0  0
  4  5  1  0  0  0  0
  5 18  1  0  0  0  0
  6  5  2  0  0  0  0
  7  1  1  0  0  0  0
  8  2  1  0  0  0  0
  9 10  1  0  0  0  0
 10 11  1  0  0  0  0
 11  3  1  0  0  0  0
 12 11  2  0  0  0  0
 12 13  1  0  0  0  0
 14 12  1  0  0  0  0
 15 14  1  0  0  0  0
 16 17  1  0  0  0  0
 16 14  2  0  0  0  0
 17 10  2  0  0  0  0
 18 21  1  0  0  0  0
 18 19  1  0  0  0  0
 20 18  1  0  0  0  0
M  END
>  <minimizedAffinity>
-5.0975523

$$$$

 OpenBabel03272510033D

 21 22  0  0  0  0  0  0  0  0999 V2000
   38.2370   23.6890   38.1840 C   0  0  0  0  0  0  0  0  0  0  0  0
   37.7990   24.3920   37.0360 C   0  0  0  0  0  0  0  0  0  0  0  0
   38.5730   24.3160   35.8900 C   0  0  0  0  0  0  0  0  0  0  0  0
   39.7040   23.5660   35.9570 N   0  0  0  0  0  0  0  0  0  0  0  0
   40.0990   22.9110   37.0510 C   0  0  0  0  0  0  0  0  0  0  0  0
   39.3630   22.9770   38.1550 N   0  0  0  0  0  0  0  0  0  0  0  0
   37.6600   23.7240   39.1000 H   0  0  0  0  0  0  0  0  0  0  0  0
   36.9000   24.9670   37.0430 H   0  0  0  0  0  0  0  0  0  0  0  0
   38.8510   27.3430   35.9000 Cl  0  0  0  0  0  0  0  0  0  0  0  0
   38.3240   26.3570   34.5660 C   0  0  0  0  0  0  0  0  0  0  0  0
   38.2280   24.9930   34.6480 C   0  0  0  0  0  0  0  0  0  0  0  0
   37.7970   24.3450   33.5120 C   0  0  0  0  0  0  0  0  0  0  0  0
   37.6990   23.2680   33.5140 H   0  0  0  0  0  0  0  0  0  0  0  0
   37.4760   25.0100   32.3500 C   0  0  0  0  0  0  0  0  0  0  0  0
   37.1400   24.4540   31.4790 H   0  0  0  0  0  0  0  0  0  0  0  0
   37.5770   26.3840   32.2760 C   0  0  0  0  0  3  0  0  0  0  0  0
   38.0120   27.0730   33.4120 C   0  0  0  0  0  3  0  0  0  0  0  0
   41.3550   22.1400   36.9710 C   0  0  0  0  0  0  0  0  0  0  0  0
   41.4480   21.3900   35.8020 F   0  0  0  0  0  0  0  0  0  0  0  0
   42.4660   22.9640   36.9870 F   0  0  0  0  0  0  0  0  0  0  0  0
   41.5260   21.2530   38.0200 F   0  0  0  0  0  0  0  0  0  0  0  0
  1  7  1  0  0  0  0
  2  8  1  0  0  0  0
  2  1  2  0  0  0  0
  3  4  2  0  0  0  0
  3  2  1  0  0  0  0
  4  5  1  0  0  0  0
  5  6  2  0  0  0  0
  6  1  1  0  0  0  0
 10 11  1  0  0  0  0
 10  9  1  0  0  0  0
 11  3  1  0  0  0  0
 12 13  1  0  0  0  0
 12 11  2  0  0  0  0
 14 12  1  0  0  0  0
 15 14  1  0  0  0  0
 16 14  2  0  0  0  0
 16 17  1  0  0  0  0
 17 10  2  0  0  0  0
 18 20  1  0  0  0  0
 18  5  1  0  0  0  0
 18 21  1  0  0  0  0
 19 18  1  0  0  0  0
M  END
>  <minimizedAffinity>
-5.01518726

$$$$

 OpenBabel03272510033D

 21 22  0  0  0  0  0  0  0  0999 V2000
   38.0420   22.4930   35.0300 C   0  0  0  0  0  0  0  0  0  0  0  0
   38.9600   23.3750   34.4110 C   0  0  0  0  0  0  0  0  0  0  0  0
   39.5750   24.3360   35.1970 C   0  0  0  0  0  0  0  0  0  0  0  0
   39.2450   24.3580   36.5150 N   0  0  0  0  0  0  0  0  0  0  0  0
   38.3760   23.5170   37.0780 C   0  0  0  0  0  0  0  0  0  0  0  0
   37.7820   22.5920   36.3340 N   0  0  0  0  0  0  0  0  0  0  0  0
   37.5410   21.7280   34.4490 H   0  0  0  0  0  0  0  0  0  0  0  0
   39.1800   23.3090   33.3680 H   0  0  0  0  0  0  0  0  0  0  0  0
   42.5050   23.6900   35.6860 Cl  0  0  0  0  0  0  0  0  0  0  0  0
   41.8780   25.0840   34.8520 C   0  0  0  0  0  0  0  0  0  0  0  0
   40.5360   25.2970   34.6760 C   0  0  0  0  0  0  0  0  0  0  0  0
   40.1870   26.4430   33.9970 C   0  0  0  0  0  0  0  0  0  0  0  0
   39.1420   26.6680   33.8260 H   0  0  0  0  0  0  0  0  0  0  0  0
   41.1160   27.3370   33.5140 C   0  0  0  0  0  0  0  0  0  0  0  0
   40.7910   28.2280   32.9840 H   0  0  0  0  0  0  0  0  0  0  0  0
   42.4660   27.1140   33.6960 C   0  0  0  0  0  3  0  0  0  0  0  0
   42.8540   25.9600   34.3810 C   0  0  0  0  0  3  0  0  0  0  0  0
   38.1160   23.6690   38.5240 C   0  0  0  0  0  0  0  0  0  0  0  0
   37.2910   22.6660   39.0260 F   0  0  0  0  0  0  0  0  0  0  0  0
   39.2830   23.6110   39.2640 F   0  0  0  0  0  0  0  0  0  0  0  0
   37.5160   24.8720   38.8540 F   0  0  0  0  0  0  0  0  0  0  0  0
  1  6  1  0  0  0  0
  2  1  2  0  0  0  0
  2  3  1  0  0  0  0
  3  4  2  0  0  0  0
  4  5  1  0  0  0  0
  5 18  1  0  0  0  0
  6  5  2  0  0  0  0
  7  1  1  0  0  0  0
  8  2  1  0  0  0  0
 10  9  1  0  0  0  0
 11 10  1  0  0  0  0
 11  3  1  0  0  0  0
 12 11  2  0  0  0  0
 13 12  1  0  0  0  0
 14 16  2  0  0  0  0
 14 12  1  0  0  0  0
 15 14  1  0  0  0  0
 16 17  1  0  0  0  0
 17 10  2  0  0  0  0
 18 21  1  0  0  0  0
 18 19  1  0  0  0  0
 18 20  1  0  0  0  0
M  END
>  <minimizedAffinity>
-4.89360619

$$$$

 OpenBabel03272510033D

 21 22  0  0  0  0  0  0  0  0999 V2000
   36.0820   29.5570   31.8550 C   0  0  0  0  0  0  0  0  0  0  0  0
   35.4570   30.3890   32.8130 C   0  0  0  0  0  0  0  0  0  0  0  0
   35.4290   29.9630   34.1310 C   0  0  0  0  0  0  0  0  0  0  0  0
   36.0100   28.7650   34.4040 N   0  0  0  0  0  0  0  0  0  0  0  0
   36.5940   27.9950   33.4840 C   0  0  0  0  0  0  0  0  0  0  0  0
   36.6260   28.3950   32.2190 N   0  0  0  0  0  0  0  0  0  0  0  0
   36.1240   29.8550   30.8140 H   0  0  0  0  0  0  0  0  0  0  0  0
   35.0160   31.3220   32.5390 H   0  0  0  0  0  0  0  0  0  0  0  0
   32.4920   29.3940   34.6690 Cl  0  0  0  0  0  0  0  0  0  0  0  0
   33.4960   30.5370   35.5140 C   0  0  0  0  0  0  0  0  0  0  0  0
   34.8160   30.7300   35.2060 C   0  0  0  0  0  0  0  0  0  0  0  0
   35.4860   31.6680   35.9600 C   0  0  0  0  0  0  0  0  0  0  0  0
   36.5310   31.8660   35.7640 H   0  0  0  0  0  0  0  0  0  0  0  0
   34.8830   32.3810   36.9710 C   0  0  0  0  0  0  0  0  0  0  0  0
   35.4540   33.1110   37.5390 H   0  0  0  0  0  0  0  0  0  0  0  0
   33.5520   32.1790   37.2760 C   0  0  0  0  0  3  0  0  0  0  0  0
   32.8430   31.2350   36.5290 C   0  0  0  0  0  3  0  0  0  0  0  0
   37.1790   26.7160   33.9340 C   0  0  0  0  0  0  0  0  0  0  0  0
   38.5680   26.7050   33.8500 F   0  0  0  0  0  0  0  0  0  0  0  0
   36.8730   26.4470   35.2560 F   0  0  0  0  0  0  0  0  0  0  0  0
   36.7330   25.6210   33.2120 F   0  0  0  0  0  0  0  0  0  0  0  0
  1  6  2  0  0  0  0
  1  2  1  0  0  0  0
  2  3  2  0  0  0  0
  3  4  1  0  0  0  0
  3 11  1  0  0  0  0
  5 18  1  0  0  0  0
  5  4  2  0  0  0  0
  6  5  1  0  0  0  0
  7  1  1  0  0  0  0
  8  2  1  0  0  0  0
  9 10  1  0  0  0  0
 10 17  1  0  0  0  0
 11 10  2  0  0  0  0
 11 12  1  0  0  0  0
 12 14  2  0  0  0  0
 13 12  1  0  0  0  0
 14 16  1  0  0  0  0
 14 15  1  0  0  0  0
 17 16  2  0  0  0  0
 18 20  1  0  0  0  0
 19 18  1  0  0  0  0
 21 18  1  0  0  0  0
M  END
>  <minimizedAffinity>
-4.85034752

$$$$

 OpenBabel03272510033D

 21 22  0  0  0  0  0  0  0  0999 V2000
   38.2680   23.5740   38.4510 C   0  0  0  0  0  0  0  0  0  0  0  0
   37.7880   24.4040   37.4090 C   0  0  0  0  0  0  0  0  0  0  0  0
   38.5200   24.4680   36.2350 C   0  0  0  0  0  0  0  0  0  0  0  0
   39.6540   23.7220   36.1740 N   0  0  0  0  0  0  0  0  0  0  0  0
   40.0900   22.9460   37.1690 C   0  0  0  0  0  0  0  0  0  0  0  0
   39.3950   22.8780   38.2980 N   0  0  0  0  0  0  0  0  0  0  0  0
   37.7240   23.4980   39.3840 H   0  0  0  0  0  0  0  0  0  0  0  0
   36.8880   24.9680   37.5150 H   0  0  0  0  0  0  0  0  0  0  0  0
   37.8150   22.9550   33.6940 Cl  0  0  0  0  0  0  0  0  0  0  0  0
   37.7950   24.6830   33.9090 C   0  0  0  0  0  0  0  0  0  0  0  0
   38.1290   25.2830   35.0940 C   0  0  0  0  0  0  0  0  0  0  0  0
   38.0680   26.6590   35.1170 C   0  0  0  0  0  0  0  0  0  0  0  0
   38.3200   27.1920   36.0240 H   0  0  0  0  0  0  0  0  0  0  0  0
   37.6950   27.4070   34.0230 C   0  0  0  0  0  0  0  0  0  0  0  0
   37.6610   28.4910   34.0900 H   0  0  0  0  0  0  0  0  0  0  0  0
   37.3590   26.7930   32.8330 C   0  0  0  0  0  3  0  0  0  0  0  0
   37.4110   25.3980   32.7770 C   0  0  0  0  0  3  0  0  0  0  0  0
   41.3440   22.1980   36.9550 C   0  0  0  0  0  0  0  0  0  0  0  0
   41.5650   21.2340   37.9340 F   0  0  0  0  0  0  0  0  0  0  0  0
   41.3410   21.5230   35.7480 F   0  0  0  0  0  0  0  0  0  0  0  0
   42.4700   23.0030   36.9360 F   0  0  0  0  0  0  0  0  0  0  0  0
  1  7  1  0  0  0  0
  2  8  1  0  0  0  0
  2  1  2  0  0  0  0
  3  2  1  0  0  0  0
  4  3  2  0  0  0  0
  4  5  1  0  0  0  0
  5  6  2  0  0  0  0
  6  1  1  0  0  0  0
  9 10  1  0  0  0  0
 10 11  1  0  0  0  0
 11 12  2  0  0  0  0
 11  3  1  0  0  0  0
 12 13  1  0  0  0  0
 14 15  1  0  0  0  0
 14 12  1  0  0  0  0
 16 14  2  0  0  0  0
 17 16  1  0  0  0  0
 17 10  2  0  0  0  0
 18  5  1  0  0  0  0
 18 19  1  0  0  0  0
 20 18  1  0  0  0  0
 21 18  1  0  0  0  0
M  END
>  <minimizedAffinity>
-4.82352304

$$$$

 OpenBabel03272510033D

 21 22  0  0  0  0  0  0  0  0999 V2000
   40.5750   22.2880   35.8320 C   0  0  0  0  0  0  0  0  0  0  0  0
   39.8860   22.6070   34.6380 C   0  0  0  0  0  0  0  0  0  0  0  0
   38.6870   23.2940   34.7400 C   0  0  0  0  0  0  0  0  0  0  0  0
   38.2610   23.6100   35.9910 N   0  0  0  0  0  0  0  0  0  0  0  0
   38.9270   23.2990   37.1040 C   0  0  0  0  0  0  0  0  0  0  0  0
   40.0780   22.6410   37.0170 N   0  0  0  0  0  0  0  0  0  0  0  0
   41.5150   21.7510   35.7940 H   0  0  0  0  0  0  0  0  0  0  0  0
   40.2700   22.3320   33.6810 H   0  0  0  0  0  0  0  0  0  0  0  0
   36.8890   21.1330   33.5830 Cl  0  0  0  0  0  0  0  0  0  0  0  0
   37.0500   22.7660   33.0010 C   0  0  0  0  0  0  0  0  0  0  0  0
   37.8870   23.6790   33.5860 C   0  0  0  0  0  0  0  0  0  0  0  0
   37.9110   24.9330   33.0170 C   0  0  0  0  0  0  0  0  0  0  0  0
   38.5530   25.6980   33.4330 H   0  0  0  0  0  0  0  0  0  0  0  0
   37.1440   25.2720   31.9250 C   0  0  0  0  0  0  0  0  0  0  0  0
   37.1970   26.2760   31.5120 H   0  0  0  0  0  0  0  0  0  0  0  0
   36.3020   24.3460   31.3430 C   0  0  0  0  0  3  0  0  0  0  0  0
   36.2550   23.0630   31.8960 C   0  0  0  0  0  3  0  0  0  0  0  0
   38.3350   23.7070   38.3940 C   0  0  0  0  0  0  0  0  0  0  0  0
   39.2740   23.7590   39.4200 F   0  0  0  0  0  0  0  0  0  0  0  0
   37.7720   24.9680   38.3240 F   0  0  0  0  0  0  0  0  0  0  0  0
   37.3250   22.8650   38.8280 F   0  0  0  0  0  0  0  0  0  0  0  0
  1  6  1  0  0  0  0
  2  3  1  0  0  0  0
  2  1  2  0  0  0  0
  3  4  2  0  0  0  0
  4  5  1  0  0  0  0
  5 18  1  0  0  0  0
  6  5  2  0  0  0  0
  7  1  1  0  0  0  0
  8  2  1  0  0  0  0
 10  9  1  0  0  0  0
 10 11  1  0  0  0  0
 11  3  1  0  0  0  0
 12 13  1  0  0  0  0
 12 11  2  0  0  0  0
 14 12  1  0  0  0  0
 15 14  1  0  0  0  0
 16 17  1  0  0  0  0
 16 14  2  0  0  0  0
 17 10  2  0  0  0  0
 18 21  1  0  0  0  0
 18 19  1  0  0  0  0
 20 18  1  0  0  0  0
M  END
>  <minimizedAffinity>
-4.82166624

$$$$

 OpenBabel03272510033D

 21 22  0  0  0  0  0  0  0  0999 V2000
   37.2830   23.4630   32.1730 C   0  0  0  0  0  0  0  0  0  0  0  0
   37.9580   23.6690   33.3990 C   0  0  0  0  0  0  0  0  0  0  0  0
   37.8230   22.7080   34.3880 C   0  0  0  0  0  0  0  0  0  0  0  0
   37.0440   21.6320   34.1010 N   0  0  0  0  0  0  0  0  0  0  0  0
   36.4150   21.4580   32.9380 C   0  0  0  0  0  0  0  0  0  0  0  0
   36.5390   22.3730   31.9830 N   0  0  0  0  0  0  0  0  0  0  0  0
   37.3630   24.1910   31.3750 H   0  0  0  0  0  0  0  0  0  0  0  0
   38.5580   24.5360   33.5680 H   0  0  0  0  0  0  0  0  0  0  0  0
   40.7220   21.8030   34.5110 Cl  0  0  0  0  0  0  0  0  0  0  0  0
   39.7740   22.4200   35.8340 C   0  0  0  0  0  0  0  0  0  0  0  0
   38.4680   22.8070   35.6900 C   0  0  0  0  0  0  0  0  0  0  0  0
   37.8440   23.2740   36.8240 C   0  0  0  0  0  0  0  0  0  0  0  0
   36.8120   23.5950   36.7750 H   0  0  0  0  0  0  0  0  0  0  0  0
   38.4770   23.3580   38.0440 C   0  0  0  0  0  0  0  0  0  0  0  0
   37.9420   23.7340   38.9120 H   0  0  0  0  0  0  0  0  0  0  0  0
   39.7940   22.9660   38.1800 C   0  0  0  0  0  3  0  0  0  0  0  0
   40.4560   22.4860   37.0480 C   0  0  0  0  0  3  0  0  0  0  0  0
   35.5990   20.2390   32.7760 C   0  0  0  0  0  0  0  0  0  0  0  0
   36.1620   19.3350   31.8790 F   0  0  0  0  0  0  0  0  0  0  0  0
   35.4560   19.5540   33.9690 F   0  0  0  0  0  0  0  0  0  0  0  0
   34.3140   20.4900   32.3260 F   0  0  0  0  0  0  0  0  0  0  0  0
  1  2  1  0  0  0  0
  2  8  1  0  0  0  0
  2  3  2  0  0  0  0
  3 11  1  0  0  0  0
  4  3  1  0  0  0  0
  5  4  2  0  0  0  0
  6  1  2  0  0  0  0
  6  5  1  0  0  0  0
  7  1  1  0  0  0  0
  9 10  1  0  0  0  0
 10 17  1  0  0  0  0
 11 10  2  0  0  0  0
 11 12  1  0  0  0  0
 12 14  2  0  0  0  0
 13 12  1  0  0  0  0
 14 16  1  0  0  0  0
 14 15  1  0  0  0  0
 17 16  2  0  0  0  0
 18  5  1  0  0  0  0
 18 20  1  0  0  0  0
 19 18  1  0  0  0  0
 21 18  1  0  0  0  0
M  END
>  <minimizedAffinity>
-4.81552744

$$$$
