
 OpenBabel03272505513D

 44 47  0  0  1  0  0  0  0  0999 V2000
   37.2270   29.2450   50.5540 C   0  0  0  0  0  0  0  0  0  0  0  0
   37.3880   30.6250   50.8560 C   0  0  0  0  0  0  0  0  0  0  0  0
   36.6560   31.5380   50.0870 C   0  0  0  0  0  0  0  0  0  0  0  0
   35.8440   31.0520   49.1060 N   0  0  0  0  0  0  0  0  0  0  0  0
   35.7290   29.7330   48.8620 C   0  0  0  0  0  0  0  0  0  0  0  0
   36.4140   28.8390   49.5800 N   0  0  0  0  0  0  0  0  0  0  0  0
   34.8570   29.2990   47.8300 N   0  0  0  0  0  0  0  0  0  0  0  0
   34.1990   28.0120   47.8900 C   0  0  0  0  0  0  0  0  0  0  0  0
   32.7260   28.1680   47.7020 C   0  0  0  0  0  0  0  0  0  0  0  0
   32.2910   29.3860   47.2390 N   0  0  0  0  0  0  0  0  0  0  0  0
   33.1550   30.2330   46.4520 C   0  0  0  0  0  0  0  0  0  0  0  0
   34.5780   30.1220   46.6700 C   0  0  2  0  0  0  0  0  0  0  0  0
   37.8120   28.5900   51.1750 H   0  0  0  0  0  0  0  0  0  0  0  0
   38.0090   31.0440   51.6090 H   0  0  0  0  0  0  0  0  0  0  0  0
   36.6900   32.6130   50.2160 H   0  0  0  0  0  0  0  0  0  0  0  0
   34.3800   27.6280   48.9530 H   0  0  0  0  0  0  0  0  0  0  0  0
   34.6770   27.2340   47.2760 H   0  0  0  0  0  0  0  0  0  0  0  0
   32.1910   27.8930   48.6340 H   0  0  0  0  0  0  0  0  0  0  0  0
   32.4280   27.3580   46.9710 H   0  0  0  0  0  0  0  0  0  0  0  0
   31.4400   29.8160   47.6040 H   0  0  0  0  0  0  0  0  0  0  0  0
   32.6740   30.2240   45.4940 H   0  0  0  0  0  0  0  0  0  0  0  0
   32.8570   31.2690   46.8410 H   0  0  0  0  0  0  0  0  0  0  0  0
   35.0780   31.1210   46.8610 H   0  0  0  0  0  0  0  0  0  0  0  0
   35.3300   29.5390   45.5610 N   0  0  2  0  0  0  0  0  0  0  0  0
   36.4770   30.3750   45.2020 C   0  0  0  0  0  0  0  0  0  0  0  0
   36.6330   30.3270   43.7070 C   0  0  0  0  0  0  0  0  0  0  0  0
   35.5790   29.3850   43.2730 C   0  0  0  0  0  0  0  0  0  0  0  0
   34.5560   29.3740   44.3850 C   0  0  1  0  0  0  0  0  0  0  0  0
   36.2330   31.4210   45.5150 H   0  0  0  0  0  0  0  0  0  0  0  0
   37.3880   30.0770   45.7510 H   0  0  0  0  0  0  0  0  0  0  0  0
   37.6590   29.9570   43.4510 H   0  0  0  0  0  0  0  0  0  0  0  0
   36.5210   31.3530   43.2750 H   0  0  0  0  0  0  0  0  0  0  0  0
   35.1640   29.8100   42.3010 H   0  0  0  0  0  0  0  0  0  0  0  0
   35.9080   28.3790   42.9650 H   0  0  0  0  0  0  0  0  0  0  0  0
   33.9620   30.2660   44.0900 H   0  0  0  0  0  0  0  0  0  0  0  0
   31.7460   29.6570   43.1230 Cl  0  0  0  0  0  0  0  0  0  0  0  0
   32.6090   28.1960   43.6230 C   0  0  0  0  0  0  0  0  0  0  0  0
   33.8760   28.0750   44.2110 C   0  0  0  0  0  0  0  0  0  0  0  0
   34.3110   26.8060   44.5270 C   0  0  0  0  0  0  0  0  0  0  0  0
   35.3100   26.8180   44.9820 H   0  0  0  0  0  0  0  0  0  0  0  0
   33.5600   25.6750   44.2910 C   0  0  0  0  0  0  0  0  0  0  0  0
   34.0620   24.7700   44.6040 H   0  0  0  0  0  0  0  0  0  0  0  0
   32.3110   25.8000   43.7100 C   0  0  0  0  0  0  0  0  0  0  0  0
   31.8440   27.0720   43.3790 C   0  0  0  0  0  0  0  0  0  0  0  0
  1  2  1  0  0  0  0
  1 13  1  0  0  0  0
  2 14  1  0  0  0  0
  3 15  1  0  0  0  0
  3  2  2  0  0  0  0
  4  3  1  0  0  0  0
  5  4  2  0  0  0  0
  5  6  1  0  0  0  0
  6  1  2  0  0  0  0
  7  8  1  0  0  0  0
  7  5  1  0  0  0  0
  8 16  1  0  0  0  0
  9  8  1  0  0  0  0
  9 18  1  0  0  0  0
 10 20  1  0  0  0  0
 10  9  1  0  0  0  0
 11 12  1  0  0  0  0
 11 22  1  0  0  0  0
 11 10  1  0  0  0  0
 12 23  1  1  0  0  0
 12  7  1  0  0  0  0
 17  8  1  0  0  0  0
 19  9  1  0  0  0  0
 21 11  1  0  0  0  0
 24 25  1  6  0  0  0
 24 12  1  0  0  0  0
 25 29  1  0  0  0  0
 25 30  1  0  0  0  0
 26 25  1  0  0  0  0
 27 26  1  0  0  0  0
 27 28  1  0  0  0  0
 28 35  1  6  0  0  0
 28 24  1  0  0  0  0
 31 26  1  0  0  0  0
 32 26  1  0  0  0  0
 33 27  1  0  0  0  0
 34 27  1  0  0  0  0
 36 37  1  0  0  0  0
 37 38  1  0  0  0  0
 38 28  1  0  0  0  0
 38 39  2  0  0  0  0
 39 40  1  0  0  0  0
 41 39  1  0  0  0  0
 41 42  1  0  0  0  0
 43 41  2  0  0  0  0
 44 37  2  0  0  0  0
 44 43  1  0  0  0  0
M  END
>  <minimizedAffinity>
-4.74078465

>  <minimizedRMSD>
0.327390492

$$$$
