
 OpenBabel03272506563D

 20 21  0  0  0  0  0  0  0  0999 V2000
   38.9630   23.0340   37.5420 C   0  0  0  0  0  0  0  0  0  0  0  0
   40.2530   22.5930   37.1670 C   0  0  0  0  0  0  0  0  0  0  0  0
   40.8520   23.2680   36.0940 C   0  0  0  0  0  0  0  0  0  0  0  0
   40.1760   24.2910   35.4800 N   0  0  0  0  0  0  0  0  0  0  0  0
   38.9520   24.6680   35.8780 C   0  0  0  0  0  0  0  0  0  0  0  0
   38.3230   24.0440   36.9170 N   0  0  0  0  0  0  0  0  0  0  0  0
   38.5290   22.4870   38.3770 H   0  0  0  0  0  0  0  0  0  0  0  0
   41.8370   22.9690   35.7690 H   0  0  0  0  0  0  0  0  0  0  0  0
   37.7480   23.9870   33.1710 Cl  0  0  0  0  0  0  0  0  0  0  0  0
   37.6660   25.5310   33.9760 C   0  0  0  0  0  0  0  0  0  0  0  0
   38.2420   25.7620   35.2130 C   0  0  0  0  0  0  0  0  0  0  0  0
   38.1400   27.0230   35.8030 C   0  0  0  0  0  0  0  0  0  0  0  0
   38.5960   27.2150   36.7860 H   0  0  0  0  0  0  0  0  0  0  0  0
   37.4730   28.0580   35.1830 C   0  0  0  0  0  0  0  0  0  0  0  0
   37.4350   29.0240   35.7100 H   0  0  0  0  0  0  0  0  0  0  0  0
   36.8870   27.8390   33.9340 C   0  0  0  0  0  3  0  0  0  0  0  0
   36.9910   26.5910   33.3550 C   0  0  0  0  0  3  0  0  0  0  0  0
   40.8830   21.5280   37.8540 N   0  0  0  0  0  0  0  0  0  0  0  0
   40.5290   20.5920   38.1120 H   0  0  0  0  0  0  0  0  0  0  0  0
   41.8740   21.8220   38.1040 H   0  0  0  0  0  0  0  0  0  0  0  0
  1  7  1  0  0  0  0
  2  1  1  0  0  0  0
  2 18  1  0  0  0  0
  3  2  2  0  0  0  0
  4  5  2  0  0  0  0
  4  3  1  0  0  0  0
  5  6  1  0  0  0  0
  6  1  2  0  0  0  0
  8  3  1  0  0  0  0
  9 10  1  0  0  0  0
 10 11  1  0  0  0  0
 11 12  2  0  0  0  0
 11  5  1  0  0  0  0
 12 13  1  0  0  0  0
 14 15  1  0  0  0  0
 14 12  1  0  0  0  0
 16 14  2  0  0  0  0
 17 16  1  0  0  0  0
 17 10  2  0  0  0  0
 18 20  1  0  0  0  0
 18 19  1  0  0  0  0
M  END
>  <minimizedAffinity>
-4.74796247

$$$$

 OpenBabel03272506563D

 20 21  0  0  0  0  0  0  0  0999 V2000
   38.4770   23.0710   37.0220 C   0  0  0  0  0  0  0  0  0  0  0  0
   39.8490   22.7440   36.9460 C   0  0  0  0  0  0  0  0  0  0  0  0
   40.5720   23.3400   35.9020 C   0  0  0  0  0  0  0  0  0  0  0  0
   39.9290   24.1830   35.0330 N   0  0  0  0  0  0  0  0  0  0  0  0
   38.6220   24.4580   35.1530 C   0  0  0  0  0  0  0  0  0  0  0  0
   37.8710   23.9050   36.1510 N   0  0  0  0  0  0  0  0  0  0  0  0
   37.9470   22.5910   37.8440 H   0  0  0  0  0  0  0  0  0  0  0  0
   41.6240   23.1220   35.8000 H   0  0  0  0  0  0  0  0  0  0  0  0
   38.5580   27.3820   35.9810 Cl  0  0  0  0  0  0  0  0  0  0  0  0
   37.8770   26.7080   34.5250 C   0  0  0  0  0  0  0  0  0  0  0  0
   37.9480   25.3600   34.2180 C   0  0  0  0  0  0  0  0  0  0  0  0
   37.3800   24.8860   33.0340 C   0  0  0  0  0  0  0  0  0  0  0  0
   37.4320   23.8160   32.7830 H   0  0  0  0  0  0  0  0  0  0  0  0
   36.7440   25.7300   32.1500 C   0  0  0  0  0  0  0  0  0  0  0  0
   36.3210   25.2840   31.2370 H   0  0  0  0  0  0  0  0  0  0  0  0
   36.6640   27.0940   32.4470 C   0  0  0  0  0  3  0  0  0  0  0  0
   37.2270   27.5570   33.6190 C   0  0  0  0  0  3  0  0  0  0  0  0
   40.4390   21.8630   37.8840 N   0  0  0  0  0  0  0  0  0  0  0  0
   40.1330   20.9340   38.2170 H   0  0  0  0  0  0  0  0  0  0  0  0
   41.3320   22.3060   38.2530 H   0  0  0  0  0  0  0  0  0  0  0  0
  1  7  1  0  0  0  0
  2  1  1  0  0  0  0
  2 18  1  0  0  0  0
  3  2  2  0  0  0  0
  4  5  2  0  0  0  0
  4  3  1  0  0  0  0
  5  6  1  0  0  0  0
  6  1  2  0  0  0  0
  8  3  1  0  0  0  0
 10  9  1  0  0  0  0
 11 10  1  0  0  0  0
 11  5  1  0  0  0  0
 12 11  2  0  0  0  0
 13 12  1  0  0  0  0
 14 16  2  0  0  0  0
 14 12  1  0  0  0  0
 15 14  1  0  0  0  0
 16 17  1  0  0  0  0
 17 10  2  0  0  0  0
 18 19  1  0  0  0  0
 18 20  1  0  0  0  0
M  END
>  <minimizedAffinity>
-4.56252241

$$$$

 OpenBabel03272506563D

 20 21  0  0  0  0  0  0  0  0999 V2000
   35.7240   29.8790   31.0270 C   0  0  0  0  0  0  0  0  0  0  0  0
   36.2090   28.5520   31.0080 C   0  0  0  0  0  0  0  0  0  0  0  0
   36.2570   27.8920   32.2450 C   0  0  0  0  0  0  0  0  0  0  0  0
   35.8460   28.5490   33.3760 N   0  0  0  0  0  0  0  0  0  0  0  0
   35.3940   29.8110   33.3350 C   0  0  0  0  0  0  0  0  0  0  0  0
   35.3260   30.5000   32.1570 N   0  0  0  0  0  0  0  0  0  0  0  0
   35.7000   30.3610   30.0510 H   0  0  0  0  0  0  0  0  0  0  0  0
   36.6200   26.8760   32.2850 H   0  0  0  0  0  0  0  0  0  0  0  0
   32.4880   29.3730   34.1090 Cl  0  0  0  0  0  0  0  0  0  0  0  0
   33.6470   30.3510   34.9690 C   0  0  0  0  0  0  0  0  0  0  0  0
   34.9570   30.5000   34.5500 C   0  0  0  0  0  0  0  0  0  0  0  0
   35.8350   31.3000   35.2850 C   0  0  0  0  0  0  0  0  0  0  0  0
   36.8780   31.4240   34.9590 H   0  0  0  0  0  0  0  0  0  0  0  0
   35.4300   31.9520   36.4300 C   0  0  0  0  0  0  0  0  0  0  0  0
   36.1780   32.5640   36.9560 H   0  0  0  0  0  0  0  0  0  0  0  0
   34.1090   31.8100   36.8640 C   0  0  0  0  0  3  0  0  0  0  0  0
   33.2460   31.0190   36.1330 C   0  0  0  0  0  3  0  0  0  0  0  0
   36.6150   27.9440   29.7970 N   0  0  0  0  0  0  0  0  0  0  0  0
   37.2390   28.2890   29.0490 H   0  0  0  0  0  0  0  0  0  0  0  0
   36.1610   26.9860   29.7260 H   0  0  0  0  0  0  0  0  0  0  0  0
  1  6  1  0  0  0  0
  2  1  2  0  0  0  0
  2  3  1  0  0  0  0
  3  8  1  0  0  0  0
  3  4  2  0  0  0  0
  5  4  1  0  0  0  0
  5 11  1  0  0  0  0
  6  5  2  0  0  0  0
  7  1  1  0  0  0  0
  9 10  1  0  0  0  0
 10 17  1  0  0  0  0
 11 10  2  0  0  0  0
 11 12  1  0  0  0  0
 12 14  2  0  0  0  0
 13 12  1  0  0  0  0
 14 16  1  0  0  0  0
 14 15  1  0  0  0  0
 17 16  2  0  0  0  0
 18  2  1  0  0  0  0
 19 18  1  0  0  0  0
 20 18  1  0  0  0  0
M  END
>  <minimizedAffinity>
-4.45201206

$$$$

 OpenBabel03272506563D

 20 21  0  0  0  0  0  0  0  0999 V2000
   37.9100   24.4440   37.5960 C   0  0  0  0  0  0  0  0  0  0  0  0
   38.6300   23.2950   37.9930 C   0  0  0  0  0  0  0  0  0  0  0  0
   39.7070   22.9240   37.1750 C   0  0  0  0  0  0  0  0  0  0  0  0
   39.9970   23.6720   36.0620 N   0  0  0  0  0  0  0  0  0  0  0  0
   39.2780   24.7550   35.7330 C   0  0  0  0  0  0  0  0  0  0  0  0
   38.2190   25.1600   36.4950 N   0  0  0  0  0  0  0  0  0  0  0  0
   37.0810   24.7020   38.2540 H   0  0  0  0  0  0  0  0  0  0  0  0
   40.2890   22.0530   37.4350 H   0  0  0  0  0  0  0  0  0  0  0  0
   37.7440   24.0060   33.2180 Cl  0  0  0  0  0  0  0  0  0  0  0  0
   38.9420   25.2640   33.3570 C   0  0  0  0  0  0  0  0  0  0  0  0
   39.5990   25.5440   34.5430 C   0  0  0  0  0  0  0  0  0  0  0  0
   40.5490   26.5660   34.5860 C   0  0  0  0  0  0  0  0  0  0  0  0
   41.0750   26.7950   35.5250 H   0  0  0  0  0  0  0  0  0  0  0  0
   40.8560   27.3140   33.4700 C   0  0  0  0  0  0  0  0  0  0  0  0
   41.6160   28.1030   33.5810 H   0  0  0  0  0  0  0  0  0  0  0  0
   40.2010   27.0410   32.2660 C   0  0  0  0  0  3  0  0  0  0  0  0
   39.2630   26.0300   32.2290 C   0  0  0  0  0  3  0  0  0  0  0  0
   38.2660   22.5760   39.1570 N   0  0  0  0  0  0  0  0  0  0  0  0
   37.3450   22.2310   39.4720 H   0  0  0  0  0  0  0  0  0  0  0  0
   39.1380   22.4080   39.7410 H   0  0  0  0  0  0  0  0  0  0  0  0
  1  2  1  0  0  0  0
  1  7  1  0  0  0  0
  2 18  1  0  0  0  0
  3  8  1  0  0  0  0
  3  2  2  0  0  0  0
  4  3  1  0  0  0  0
  5  4  2  0  0  0  0
  5  6  1  0  0  0  0
  6  1  2  0  0  0  0
  9 10  1  0  0  0  0
 10 11  1  0  0  0  0
 11 12  2  0  0  0  0
 11  5  1  0  0  0  0
 12 13  1  0  0  0  0
 14 15  1  0  0  0  0
 14 12  1  0  0  0  0
 16 14  2  0  0  0  0
 17 16  1  0  0  0  0
 17 10  2  0  0  0  0
 18 19  1  0  0  0  0
 18 20  1  0  0  0  0
M  END
>  <minimizedAffinity>
-4.39670706

$$$$

 OpenBabel03272506563D

 20 21  0  0  0  0  0  0  0  0999 V2000
   38.1610   25.1120   32.5960 C   0  0  0  0  0  0  0  0  0  0  0  0
   37.6100   24.0780   31.8050 C   0  0  0  0  0  0  0  0  0  0  0  0
   37.3440   22.8680   32.4630 C   0  0  0  0  0  0  0  0  0  0  0  0
   37.6250   22.7520   33.8010 N   0  0  0  0  0  0  0  0  0  0  0  0
   38.1480   23.7680   34.5020 C   0  0  0  0  0  0  0  0  0  0  0  0
   38.4260   24.9680   33.9110 N   0  0  0  0  0  0  0  0  0  0  0  0
   38.3540   26.0360   32.0540 H   0  0  0  0  0  0  0  0  0  0  0  0
   36.9230   22.0470   31.9030 H   0  0  0  0  0  0  0  0  0  0  0  0
   40.6660   22.2020   35.1700 Cl  0  0  0  0  0  0  0  0  0  0  0  0
   39.5730   22.9310   36.3150 C   0  0  0  0  0  0  0  0  0  0  0  0
   38.4430   23.6310   35.9300 C   0  0  0  0  0  0  0  0  0  0  0  0
   37.6070   24.1900   36.8990 C   0  0  0  0  0  0  0  0  0  0  0  0
   36.7070   24.7480   36.6010 H   0  0  0  0  0  0  0  0  0  0  0  0
   37.8780   24.0650   38.2440 C   0  0  0  0  0  0  0  0  0  0  0  0
   37.1740   24.5320   38.9490 H   0  0  0  0  0  0  0  0  0  0  0  0
   39.0160   23.3600   38.6480 C   0  0  0  0  0  3  0  0  0  0  0  0
   39.8380   22.8090   37.6860 C   0  0  0  0  0  3  0  0  0  0  0  0
   37.3490   24.2780   30.4290 N   0  0  0  0  0  0  0  0  0  0  0  0
   37.9470   24.6680   29.6820 H   0  0  0  0  0  0  0  0  0  0  0  0
   36.3610   23.9470   30.2170 H   0  0  0  0  0  0  0  0  0  0  0  0
  1  6  1  0  0  0  0
  2  3  1  0  0  0  0
  2  1  2  0  0  0  0
  3  4  2  0  0  0  0
  4  5  1  0  0  0  0
  5 11  1  0  0  0  0
  6  5  2  0  0  0  0
  7  1  1  0  0  0  0
  8  3  1  0  0  0  0
  9 10  1  0  0  0  0
 10 17  1  0  0  0  0
 11 10  2  0  0  0  0
 11 12  1  0  0  0  0
 12 14  2  0  0  0  0
 13 12  1  0  0  0  0
 14 16  1  0  0  0  0
 14 15  1  0  0  0  0
 17 16  2  0  0  0  0
 18  2  1  0  0  0  0
 19 18  1  0  0  0  0
 20 18  1  0  0  0  0
M  END
>  <minimizedAffinity>
-4.28372574

$$$$

 OpenBabel03272506563D

 20 21  0  0  0  0  0  0  0  0999 V2000
   37.9850   24.5250   37.3430 C   0  0  0  0  0  0  0  0  0  0  0  0
   38.7920   23.3720   37.4700 C   0  0  0  0  0  0  0  0  0  0  0  0
   39.4570   22.9490   36.3090 C   0  0  0  0  0  0  0  0  0  0  0  0
   39.2950   23.6540   35.1440 N   0  0  0  0  0  0  0  0  0  0  0  0
   38.5140   24.7430   35.0820 C   0  0  0  0  0  0  0  0  0  0  0  0
   37.8440   25.1980   36.1820 N   0  0  0  0  0  0  0  0  0  0  0  0
   37.4840   24.8240   38.2620 H   0  0  0  0  0  0  0  0  0  0  0  0
   40.0860   22.0730   36.3530 H   0  0  0  0  0  0  0  0  0  0  0  0
   40.5410   26.9590   34.6070 Cl  0  0  0  0  0  0  0  0  0  0  0  0
   39.2340   26.5130   33.5430 C   0  0  0  0  0  0  0  0  0  0  0  0
   38.3500   25.4870   33.8320 C   0  0  0  0  0  0  0  0  0  0  0  0
   37.3240   25.1820   32.9360 C   0  0  0  0  0  0  0  0  0  0  0  0
   36.6180   24.3680   33.1580 H   0  0  0  0  0  0  0  0  0  0  0  0
   37.1630   25.8780   31.7570 C   0  0  0  0  0  0  0  0  0  0  0  0
   36.3320   25.5800   31.1010 H   0  0  0  0  0  0  0  0  0  0  0  0
   38.0490   26.9160   31.4530 C   0  0  0  0  0  3  0  0  0  0  0  0
   39.0610   27.2140   32.3430 C   0  0  0  0  0  3  0  0  0  0  0  0
   38.9080   22.7000   38.7100 N   0  0  0  0  0  0  0  0  0  0  0  0
   38.1810   22.3870   39.3740 H   0  0  0  0  0  0  0  0  0  0  0  0
   39.9380   22.5290   38.9110 H   0  0  0  0  0  0  0  0  0  0  0  0
  1  2  1  0  0  0  0
  1  7  1  0  0  0  0
  2 18  1  0  0  0  0
  3  8  1  0  0  0  0
  3  2  2  0  0  0  0
  4  3  1  0  0  0  0
  5  4  2  0  0  0  0
  5  6  1  0  0  0  0
  6  1  2  0  0  0  0
 10 11  1  0  0  0  0
 10  9  1  0  0  0  0
 11  5  1  0  0  0  0
 12 13  1  0  0  0  0
 12 11  2  0  0  0  0
 14 12  1  0  0  0  0
 15 14  1  0  0  0  0
 16 14  2  0  0  0  0
 16 17  1  0  0  0  0
 17 10  2  0  0  0  0
 18 20  1  0  0  0  0
 18 19  1  0  0  0  0
M  END
>  <minimizedAffinity>
-4.28313923

$$$$

 OpenBabel03272506563D

 20 21  0  0  0  0  0  0  0  0999 V2000
   36.4050   29.4980   31.2540 C   0  0  0  0  0  0  0  0  0  0  0  0
   35.1600   30.0810   31.5820 C   0  0  0  0  0  0  0  0  0  0  0  0
   34.6110   29.7160   32.8210 C   0  0  0  0  0  0  0  0  0  0  0  0
   35.2900   28.8370   33.6260 N   0  0  0  0  0  0  0  0  0  0  0  0
   36.4700   28.3150   33.2630 C   0  0  0  0  0  0  0  0  0  0  0  0
   37.0490   28.6360   32.0680 N   0  0  0  0  0  0  0  0  0  0  0  0
   36.8000   29.8040   30.2870 H   0  0  0  0  0  0  0  0  0  0  0  0
   33.6610   30.1330   33.1180 H   0  0  0  0  0  0  0  0  0  0  0  0
   36.5530   25.4360   32.2910 Cl  0  0  0  0  0  0  0  0  0  0  0  0
   37.2660   26.0490   33.7590 C   0  0  0  0  0  0  0  0  0  0  0  0
   37.1850   27.3790   34.1320 C   0  0  0  0  0  0  0  0  0  0  0  0
   37.7780   27.8040   35.3220 C   0  0  0  0  0  0  0  0  0  0  0  0
   37.7180   28.8600   35.6260 H   0  0  0  0  0  0  0  0  0  0  0  0
   38.4530   26.9290   36.1460 C   0  0  0  0  0  0  0  0  0  0  0  0
   38.8950   27.3370   37.0670 H   0  0  0  0  0  0  0  0  0  0  0  0
   38.5430   25.5820   35.7810 C   0  0  0  0  0  3  0  0  0  0  0  0
   37.9530   25.1670   34.6040 C   0  0  0  0  0  3  0  0  0  0  0  0
   34.5220   30.9800   30.6950 N   0  0  0  0  0  0  0  0  0  0  0  0
   34.3320   30.9030   29.6820 H   0  0  0  0  0  0  0  0  0  0  0  0
   34.2230   31.8430   31.2390 H   0  0  0  0  0  0  0  0  0  0  0  0
  1  2  2  0  0  0  0
  1  6  1  0  0  0  0
  2  3  1  0  0  0  0
  3  8  1  0  0  0  0
  3  4  2  0  0  0  0
  5  4  1  0  0  0  0
  5 11  1  0  0  0  0
  6  5  2  0  0  0  0
  7  1  1  0  0  0  0
  9 10  1  0  0  0  0
 10 11  2  0  0  0  0
 10 17  1  0  0  0  0
 11 12  1  0  0  0  0
 12 13  1  0  0  0  0
 12 14  2  0  0  0  0
 14 15  1  0  0  0  0
 16 14  1  0  0  0  0
 17 16  2  0  0  0  0
 18 20  1  0  0  0  0
 18  2  1  0  0  0  0
 19 18  1  0  0  0  0
M  END
>  <minimizedAffinity>
-4.21669912

$$$$

 OpenBabel03272506563D

 20 21  0  0  0  0  0  0  0  0999 V2000
   37.8050   27.5040   35.2950 C   0  0  0  0  0  0  0  0  0  0  0  0
   37.0820   27.2810   34.1020 C   0  0  0  0  0  0  0  0  0  0  0  0
   37.2150   26.0100   33.5240 C   0  0  0  0  0  0  0  0  0  0  0  0
   38.0180   25.0760   34.1280 N   0  0  0  0  0  0  0  0  0  0  0  0
   38.6820   25.3440   35.2620 C   0  0  0  0  0  0  0  0  0  0  0  0
   38.5870   26.5650   35.8660 N   0  0  0  0  0  0  0  0  0  0  0  0
   37.6780   28.5010   35.7150 H   0  0  0  0  0  0  0  0  0  0  0  0
   36.6830   25.7890   32.6110 H   0  0  0  0  0  0  0  0  0  0  0  0
   37.3990   23.7990   37.5440 Cl  0  0  0  0  0  0  0  0  0  0  0  0
   39.0220   23.5920   36.9440 C   0  0  0  0  0  0  0  0  0  0  0  0
   39.5340   24.3380   35.8960 C   0  0  0  0  0  0  0  0  0  0  0  0
   40.8450   24.1220   35.4650 C   0  0  0  0  0  0  0  0  0  0  0  0
   41.2590   24.7100   34.6330 H   0  0  0  0  0  0  0  0  0  0  0  0
   41.6530   23.1760   36.0580 C   0  0  0  0  0  0  0  0  0  0  0  0
   42.6740   23.0620   35.6640 H   0  0  0  0  0  0  0  0  0  0  0  0
   41.1490   22.4160   37.1180 C   0  0  0  0  0  3  0  0  0  0  0  0
   39.8530   22.6340   37.5400 C   0  0  0  0  0  3  0  0  0  0  0  0
   36.2740   28.2990   33.5410 N   0  0  0  0  0  0  0  0  0  0  0  0
   36.4840   29.2920   33.3460 H   0  0  0  0  0  0  0  0  0  0  0  0
   35.3190   27.8910   33.3130 H   0  0  0  0  0  0  0  0  0  0  0  0
  1  7  1  0  0  0  0
  1  6  1  0  0  0  0
  2  1  2  0  0  0  0
  3  2  1  0  0  0  0
  3  4  2  0  0  0  0
  4  5  1  0  0  0  0
  5  6  2  0  0  0  0
  5 11  1  0  0  0  0
  8  3  1  0  0  0  0
 10 17  1  0  0  0  0
 10  9  1  0  0  0  0
 11 10  2  0  0  0  0
 12 11  1  0  0  0  0
 12 14  2  0  0  0  0
 13 12  1  0  0  0  0
 14 16  1  0  0  0  0
 15 14  1  0  0  0  0
 16 17  2  0  0  0  0
 18  2  1  0  0  0  0
 19 18  1  0  0  0  0
 20 18  1  0  0  0  0
M  END
>  <minimizedAffinity>
-4.17052412

$$$$

 OpenBabel03272506563D

 20 21  0  0  0  0  0  0  0  0999 V2000
   34.8620   20.3500   32.2720 C   0  0  0  0  0  0  0  0  0  0  0  0
   35.6840   19.5360   31.4600 C   0  0  0  0  0  0  0  0  0  0  0  0
   36.6790   20.1970   30.7240 C   0  0  0  0  0  0  0  0  0  0  0  0
   36.8000   21.5590   30.8260 N   0  0  0  0  0  0  0  0  0  0  0  0
   35.9910   22.2820   31.6140 C   0  0  0  0  0  0  0  0  0  0  0  0
   35.0060   21.6900   32.3520 N   0  0  0  0  0  0  0  0  0  0  0  0
   34.1020   19.8050   32.8280 H   0  0  0  0  0  0  0  0  0  0  0  0
   37.3320   19.6200   30.0880 H   0  0  0  0  0  0  0  0  0  0  0  0
   38.1720   23.2540   33.4950 Cl  0  0  0  0  0  0  0  0  0  0  0  0
   37.1030   24.2570   32.5510 C   0  0  0  0  0  0  0  0  0  0  0  0
   36.1320   23.7360   31.7150 C   0  0  0  0  0  0  0  0  0  0  0  0
   35.3070   24.5960   30.9870 C   0  0  0  0  0  0  0  0  0  0  0  0
   34.5330   24.1890   30.3200 H   0  0  0  0  0  0  0  0  0  0  0  0
   35.4340   25.9650   31.0760 C   0  0  0  0  0  0  0  0  0  0  0  0
   34.7490   26.5790   30.4730 H   0  0  0  0  0  0  0  0  0  0  0  0
   36.4110   26.5060   31.9180 C   0  0  0  0  0  3  0  0  0  0  0  0
   37.2230   25.6510   32.6360 C   0  0  0  0  0  3  0  0  0  0  0  0
   35.4940   18.1350   31.4090 N   0  0  0  0  0  0  0  0  0  0  0  0
   34.6340   17.5780   31.2720 H   0  0  0  0  0  0  0  0  0  0  0  0
   36.4340   17.6570   31.5420 H   0  0  0  0  0  0  0  0  0  0  0  0
  1  6  1  0  0  0  0
  1  7  1  0  0  0  0
  2  1  2  0  0  0  0
  3  4  2  0  0  0  0
  3  2  1  0  0  0  0
  4  5  1  0  0  0  0
  5 11  1  0  0  0  0
  5  6  2  0  0  0  0
  8  3  1  0  0  0  0
 10 17  1  0  0  0  0
 10  9  1  0  0  0  0
 11 10  2  0  0  0  0
 12 14  2  0  0  0  0
 12 11  1  0  0  0  0
 13 12  1  0  0  0  0
 14 16  1  0  0  0  0
 15 14  1  0  0  0  0
 16 17  2  0  0  0  0
 18  2  1  0  0  0  0
 18 20  1  0  0  0  0
 19 18  1  0  0  0  0
M  END
>  <minimizedAffinity>
-4.14197302

$$$$
