
 OpenBabel03272506553D

 20 21  0  0  0  0  0  0  0  0999 V2000
   35.5190   30.3300   48.9940 C   0  0  0  0  0  0  0  0  0  0  0  0
   35.9480   29.7300   50.1990 C   0  0  0  0  0  0  0  0  0  0  0  0
   37.3320   29.7230   50.4300 C   0  0  0  0  0  0  0  0  0  0  0  0
   38.1730   30.2800   49.5010 N   0  0  0  0  0  0  0  0  0  0  0  0
   37.7090   30.8370   48.3730 C   0  0  0  0  0  0  0  0  0  0  0  0
   36.3710   30.8710   48.0990 N   0  0  0  0  0  0  0  0  0  0  0  0
   34.4400   30.3180   48.8480 H   0  0  0  0  0  0  0  0  0  0  0  0
   37.7110   29.2760   51.3360 H   0  0  0  0  0  0  0  0  0  0  0  0
   38.6750   33.6460   49.0170 Cl  0  0  0  0  0  0  0  0  0  0  0  0
   39.1020   32.7060   47.6120 C   0  0  0  0  0  0  0  0  0  0  0  0
   38.6180   31.4290   47.3910 C   0  0  0  0  0  0  0  0  0  0  0  0
   39.0000   30.7310   46.2430 C   0  0  0  0  0  0  0  0  0  0  0  0
   38.6200   29.7150   46.0590 H   0  0  0  0  0  0  0  0  0  0  0  0
   39.8550   31.2820   45.3140 C   0  0  0  0  0  0  0  0  0  0  0  0
   40.1110   30.6720   44.4350 H   0  0  0  0  0  0  0  0  0  0  0  0
   40.3520   32.5720   45.5250 C   0  0  0  0  0  0  0  0  0  0  0  0
   39.9700   33.2580   46.6610 C   0  0  0  0  0  0  0  0  0  0  0  0
   35.0150   29.1760   51.1070 N   0  0  0  0  0  0  0  0  0  0  0  0
   34.2270   28.5270   50.9470 H   0  0  0  0  0  0  0  0  0  0  0  0
   35.2320   29.5370   52.0830 H   0  0  0  0  0  0  0  0  0  0  0  0
  1  2  1  0  0  0  0
  2  3  2  0  0  0  0
  2 18  1  0  0  0  0
  3  8  1  0  0  0  0
  4  3  1  0  0  0  0
  5  4  2  0  0  0  0
  6  5  1  0  0  0  0
  6  1  2  0  0  0  0
  7  1  1  0  0  0  0
 10  9  1  0  0  0  0
 11 10  1  0  0  0  0
 11  5  1  0  0  0  0
 12 11  2  0  0  0  0
 13 12  1  0  0  0  0
 14 16  2  0  0  0  0
 14 12  1  0  0  0  0
 15 14  1  0  0  0  0
 16 17  1  0  0  0  0
 17 10  2  0  0  0  0
 18 20  1  0  0  0  0
 19 18  1  0  0  0  0
M  END
>  <minimizedAffinity>
-5.278368

>  <minimizedRMSD>
6.76619577

$$$$
