
     RDKit          3D

 37 40  0  0  0  0  0  0  0  0999 V2000
   38.9240   30.9072   45.7696 C   0  0  0  0  0  0  0  0  0  0  0  0
   40.1098   31.5433   46.0184 C   0  0  0  0  0  0  0  0  0  0  0  0
   40.9410   31.4799   44.9140 C   0  0  0  0  0  0  0  0  0  0  0  0
   40.2184   30.7943   44.0140 N   0  0  0  0  0  0  0  0  0  0  0  0
   39.0305   30.4513   44.5037 N   0  0  0  0  0  0  0  0  0  0  0  0
   37.7893   30.7549   46.6747 C   0  0  0  0  0  0  0  0  0  0  0  0
   38.0072   30.9750   48.0587 C   0  0  0  0  0  0  0  0  0  0  0  0
   36.9197   30.8273   48.9132 C   0  0  0  0  0  0  0  0  0  0  0  0
   35.7092   30.4800   48.3724 N   0  0  0  0  0  0  0  0  0  0  0  0
   35.5314   30.2766   47.0497 C   0  0  0  0  0  0  0  0  0  0  0  0
   36.5757   30.4163   46.2107 N   0  0  0  0  0  0  0  0  0  0  0  0
   37.1338   31.0560   50.3739 C   0  0  0  0  0  0  0  0  0  0  0  0
   36.6037   32.2997   50.6264 F   0  0  0  0  0  0  0  0  0  0  0  0
   36.4570   30.1337   51.1529 F   0  0  0  0  0  0  0  0  0  0  0  0
   38.4767   31.0485   50.7096 F   0  0  0  0  0  0  0  0  0  0  0  0
   40.5732   30.4160   42.6515 C   0  0  0  0  0  0  0  0  0  0  0  0
   40.1943   31.1818   41.5439 C   0  0  0  0  0  0  0  0  0  0  0  0
   40.5177   30.8245   40.3074 C   0  0  0  0  0  0  0  0  0  0  0  0
   41.2708   29.6308   40.1066 C   0  0  0  0  0  0  0  0  0  0  0  0
   41.4777   29.0559   41.8628 S   0  0  0  0  0  0  0  0  0  0  0  0
   40.3889   32.0422   46.9541 H   0  0  0  0  0  0  0  0  0  0  0  0
   41.9358   31.8654   44.7507 H   0  0  0  0  0  0  0  0  0  0  0  0
   39.0025   31.2471   48.3937 H   0  0  0  0  0  0  0  0  0  0  0  0
   34.5544   30.0031   46.6689 H   0  0  0  0  0  0  0  0  0  0  0  0
   39.6118   32.1148   41.6411 H   0  0  0  0  0  0  0  0  0  0  0  0
   40.3416   31.2387   39.3535 H   0  0  0  0  0  0  0  0  0  0  0  0
   41.3989   31.1594   37.4545 Cl  0  0  0  0  0  0  0  0  0  0  0  0
   41.9047   29.5203   37.7947 C   0  0  0  0  0  0  0  0  0  0  0  0
   41.8290   28.8770   38.9957 C   0  0  0  0  0  0  0  0  0  0  0  0
   42.2126   27.6112   39.2859 C   0  0  0  0  0  0  0  0  0  0  0  0
   42.1167   27.1770   40.2711 H   0  0  0  0  0  0  0  0  0  0  0  0
   42.7502   26.8570   38.2555 C   0  0  0  0  0  0  0  0  0  0  0  0
   43.0892   25.8386   38.3705 H   0  0  0  0  0  0  0  0  0  0  0  0
   42.8666   27.4314   36.9932 C   0  0  0  0  0  0  0  0  0  0  0  0
   42.4504   28.7441   36.7640 C   0  0  0  0  0  0  0  0  0  0  0  0
   43.2812   26.9024   36.1248 H   0  0  0  0  0  0  0  0  0  0  0  0
   42.5508   29.1677   35.7767 H   0  0  0  0  0  0  0  0  0  0  0  0
  1  2  1  0
  1  6  1  0
  3  2  2  0
  4  5  1  0
  4  3  1  0
  5  1  2  0
  6  7  2  0
  7  8  1  0
  8 12  1  0
  9  8  2  0
 10  9  1  0
 11  6  1  0
 11 10  2  0
 12 13  1  0
 12 15  1  0
 12 14  1  0
 16  4  1  0
 17 16  2  0
 18 17  1  0
 19 18  2  0
 19 20  1  0
 20 16  1  0
  2 21  1  0
  3 22  1  0
  7 23  1  0
 10 24  1  0
 17 25  1  0
 18 26  1  0
 27 28  1  0
 28 29  2  0
 29 30  1  0
 30 31  1  0
 30 32  2  0
 32 33  1  0
 32 34  1  0
 34 35  2  0
 35 28  1  0
 34 36  1  0
 35 37  1  0
 19 29  1  0
M  ISO  8  21  14  22  14  23  14  24  14  25  14  26  14  31  15  33  16
M  END
>  <DihAtoms>  (1) 
17,18,28,27

>  <DihDeg>  (1) 
-179.99919363818861

$$$$
