
     RDKit          3D

 29 31  0  0  0  0  0  0  0  0999 V2000
   35.1925   30.4335   48.9799 C   0  0  0  0  0  0  0  0  0  0  0  0
   34.3319   30.1780   49.8621 O   0  0  0  0  0  0  0  0  0  0  0  0
   33.3074   30.0962   45.8899 C   0  0  0  0  0  0  0  0  0  0  0  0
   34.3146   30.0075   44.9099 C   0  0  0  0  0  0  0  0  0  0  0  0
   35.6524   30.0641   45.3138 C   0  0  0  0  0  0  0  0  0  0  0  0
   35.8950   30.2020   46.6367 N   0  0  0  0  0  0  0  0  0  0  0  0
   34.9212   30.2851   47.5586 C   0  0  0  0  0  0  0  0  0  0  0  0
   33.6392   30.2316   47.1781 N   0  0  0  0  0  0  0  0  0  0  0  0
   36.5178   30.8986   49.4222 C   0  0  0  0  0  0  0  0  0  0  0  0
   37.3109   30.2106   50.3309 C   0  0  0  0  0  0  0  0  0  0  0  0
   38.4325   31.0276   50.4231 C   0  0  0  0  0  0  0  0  0  0  0  0
   38.2789   32.1199   49.6080 C   0  0  0  0  0  0  0  0  0  0  0  0
   37.1168   32.0113   49.0207 O   0  0  0  0  0  0  0  0  0  0  0  0
   32.2619   30.0560   45.6132 H   0  0  0  0  0  0  0  0  0  0  0  0
   34.0389   29.8991   43.8799 H   0  0  0  0  0  0  0  0  0  0  0  0
   36.4495   29.9987   44.5849 H   0  0  0  0  0  0  0  0  0  0  0  0
   37.1210   29.2838   50.8408 H   0  0  0  0  0  0  0  0  0  0  0  0
   39.2879   30.7837   51.0712 H   0  0  0  0  0  0  0  0  0  0  0  0
   37.3240   34.9249   50.3409 Cl  0  0  0  0  0  0  0  0  0  0  0  0
   38.9126   34.5031   49.7351 C   0  0  0  0  0  0  0  0  0  0  0  0
   39.2414   33.2006   49.4341 C   0  0  0  0  0  0  0  0  0  0  0  0
   40.5086   32.9335   48.9610 C   0  0  0  0  0  0  0  0  0  0  0  0
   40.7279   31.8967   48.7358 H   0  0  0  0  0  0  0  0  0  0  0  0
   41.4827   33.8866   48.7647 C   0  0  0  0  0  0  0  0  0  0  0  0
   42.4415   33.5448   48.3865 H   0  0  0  0  0  0  0  0  0  0  0  0
   41.1313   35.2007   49.0753 C   0  0  0  0  0  0  0  0  0  0  0  0
   39.8700   35.4924   49.5499 C   0  0  0  0  0  0  0  0  0  0  0  0
   41.9185   35.9296   48.9107 H   0  0  0  0  0  0  0  0  0  0  0  0
   39.6725   36.5496   49.7704 H   0  0  0  0  0  0  0  0  0  0  0  0
  1  9  1  0
  1  2  2  0
  3  8  2  0
  4  5  2  0
  4  3  1  0
  5  6  1  0
  6  7  2  0
  7  1  1  0
  8  7  1  0
  9 10  2  0
 10 11  1  0
 12 11  2  0
 13  9  1  0
 13 12  1  0
  3 14  1  0
  4 15  1  0
  5 16  1  0
 10 17  1  0
 11 18  1  0
 19 20  1  0
 20 21  2  0
 21 22  1  0
 22 23  1  0
 22 24  2  0
 24 25  1  0
 24 26  1  0
 26 27  2  0
 27 20  1  0
 26 28  1  0
 27 29  1  0
 12 21  1  0
M  ISO  7  14  14  15  14  16  14  17  14  18  14  23  15  25  16
M  END
>  <DihAtoms>  (1) 
10,11,20,19

>  <DihDeg>  (1) 
-179.99967366271088

$$$$
