REMARK  Name = 
REMARK  3 active torsions:
REMARK  status: ('A' for Active; 'I' for Inactive)
REMARK    1  A    between atoms: C_2  and  N_13
REMARK    2  A    between atoms: C_3  and  C_7
REMARK    3  A    between atoms: C_17  and  C_34
REMARK                            x       y       z     vdW  Elec       q    Type
REMARK                         _______ _______ _______ _____ _____    ______ ____
ROOT
ATOM      1  N   UNL     1      36.802  31.269  48.581  0.00  0.00    +0.000 N 
ATOM      2  C   UNL     1      37.569  32.489  48.946  0.00  0.00    +0.000 C 
ATOM      3  C   UNL     1      38.743  31.881  49.706  0.00  0.00    +0.000 C 
ATOM      4  C   UNL     1      38.132  30.705  50.427  0.00  0.00    +0.000 C 
ATOM      5  C   UNL     1      36.729  30.585  49.862  0.00  0.00    +0.000 C 
ATOM      6  H   UNL     1      36.936  33.122  49.591  0.00  0.00    +0.000 HD
ATOM      7  H   UNL     1      37.922  33.005  48.038  0.00  0.00    +0.000 HD
ATOM      8  H   UNL     1      39.495  31.558  48.971  0.00  0.00    +0.000 HD
ATOM      9  H   UNL     1      39.136  32.614  50.438  0.00  0.00    +0.000 HD
ATOM     10  H   UNL     1      38.677  29.782  50.138  0.00  0.00    +0.000 HD
ATOM     11  H   UNL     1      38.117  30.867  51.527  0.00  0.00    +0.000 HD
ATOM     12  H   UNL     1      36.051  31.179  50.493  0.00  0.00    +0.000 HD
ENDROOT
BRANCH   5  15
ATOM     13 CL   UNL     1      37.871  29.255  47.494  0.00  0.00    +0.000 Cl
ATOM     14  C   UNL     1      36.812  28.460  48.667  0.00  0.00    +0.000 A 
ATOM     15  C   UNL     1      36.318  29.165  49.774  0.00  0.00    +0.000 A 
ATOM     16  C   UNL     1      35.505  28.444  50.617  0.00  0.00    +0.000 A 
ATOM     17  H   UNL     1      35.125  28.988  51.457  0.00  0.00    +0.000 HD
ATOM     18  C   UNL     1      35.220  27.119  50.356  0.00  0.00    +0.000 A 
ATOM     19  H   UNL     1      34.571  26.659  51.090  0.00  0.00    +0.000 HD
ATOM     20  C   UNL     1      35.717  26.443  49.261  0.00  0.00    +0.000 A 
ATOM     21  C   UNL     1      36.535  27.146  48.400  0.00  0.00    +0.000 A 
ENDBRANCH   5  15
BRANCH   1  23
ATOM     22  C   UNL     1      34.932  30.143  47.594  0.00  0.00    +0.000 A 
ATOM     23  C   UNL     1      36.224  30.724  47.405  0.00  0.00    +0.000 A 
ATOM     24  C   UNL     1      36.773  30.666  46.123  0.00  0.00    +0.000 A 
ATOM     25  N   UNL     1      36.069  30.068  45.122  0.00  0.00    +0.000 NA
ATOM     26  C   UNL     1      34.850  29.531  45.352  0.00  0.00    +0.000 A 
ATOM     27  N   UNL     1      34.290  29.567  46.565  0.00  0.00    +0.000 NA
ATOM     28  H   UNL     1      34.432  30.149  48.550  0.00  0.00    +0.000 HD
ATOM     29  H   UNL     1      34.361  29.074  44.502  0.00  0.00    +0.000 HD
BRANCH  24  30
ATOM     30  C   UNL     1      38.059  31.234  45.825  0.00  0.00    +0.000 A 
ATOM     31  C   UNL     1      38.126  32.456  45.197  0.00  0.00    +0.000 A 
ATOM     32  C   UNL     1      39.319  33.077  44.876  0.00  0.00    +0.000 A 
ATOM     33  C   UNL     1      40.483  32.407  45.217  0.00  0.00    +0.000 A 
ATOM     34  C   UNL     1      40.494  31.172  45.851  0.00  0.00    +0.000 A 
ATOM     35  C   UNL     1      39.241  30.614  46.141  0.00  0.00    +0.000 A 
ATOM     36  H   UNL     1      37.218  32.956  44.943  0.00  0.00    +0.000 HD
ATOM     37  H   UNL     1      39.332  34.042  44.380  0.00  0.00    +0.000 HD
ATOM     38  H   UNL     1      41.408  32.903  44.960  0.00  0.00    +0.000 HD
ATOM     39  H   UNL     1      41.424  30.695  46.094  0.00  0.00    +0.000 HD
ATOM     40  H   UNL     1      39.204  29.638  46.643  0.00  0.00    +0.000 HD
ENDBRANCH  24  30
ENDBRANCH   1  23
TORSDOF 3
