REMARK  Name = 
REMARK  4 active torsions:
REMARK  status: ('A' for Active; 'I' for Inactive)
REMARK    1  A    between atoms: C_1  and  C_6
REMARK    2  A    between atoms: N_4  and  C_16
REMARK    3  A    between atoms: C_8  and  C_12
REMARK    4  A    between atoms: C_19  and  C_29
REMARK                            x       y       z     vdW  Elec       q    Type
REMARK                         _______ _______ _______ _____ _____    ______ ____
ROOT
ATOM      1  C   UNL     1      38.924  30.907  45.770  0.00  0.00    +0.000 A 
ATOM      2  C   UNL     1      40.110  31.543  46.018  0.00  0.00    +0.000 A 
ATOM      3  C   UNL     1      40.941  31.480  44.914  0.00  0.00    +0.000 A 
ATOM      4  N   UNL     1      40.218  30.794  44.014  0.00  0.00    +0.000 N 
ATOM      5  N   UNL     1      39.031  30.451  44.504  0.00  0.00    +0.000 NA
ATOM      6  H   UNL     1      40.389  32.042  46.954  0.00  0.00    +0.000 HD
ATOM      7  H   UNL     1      41.936  31.865  44.751  0.00  0.00    +0.000 HD
ENDROOT
BRANCH   1   8
ATOM      8  C   UNL     1      37.789  30.755  46.675  0.00  0.00    +0.000 A 
ATOM      9  C   UNL     1      38.007  30.975  48.059  0.00  0.00    +0.000 A 
ATOM     10  C   UNL     1      36.920  30.827  48.913  0.00  0.00    +0.000 A 
ATOM     11  N   UNL     1      35.709  30.480  48.372  0.00  0.00    +0.000 NA
ATOM     12  C   UNL     1      35.531  30.277  47.050  0.00  0.00    +0.000 A 
ATOM     13  N   UNL     1      36.576  30.416  46.211  0.00  0.00    +0.000 NA
ATOM     14  H   UNL     1      39.002  31.247  48.394  0.00  0.00    +0.000 HD
ATOM     15  H   UNL     1      34.554  30.003  46.669  0.00  0.00    +0.000 HD
BRANCH  10  16
ATOM     16  C   UNL     1      37.134  31.056  50.374  0.00  0.00    +0.000 C 
ATOM     17  F   UNL     1      36.604  32.300  50.626  0.00  0.00    +0.000 F 
ATOM     18  F   UNL     1      36.457  30.134  51.153  0.00  0.00    +0.000 F 
ATOM     19  F   UNL     1      38.477  31.049  50.710  0.00  0.00    +0.000 F 
ENDBRANCH  10  16
ENDBRANCH   1   8
BRANCH   4  20
ATOM     20  C   UNL     1      40.573  30.416  42.651  0.00  0.00    +0.000 A 
ATOM     21  C   UNL     1      40.194  31.182  41.544  0.00  0.00    +0.000 A 
ATOM     22  C   UNL     1      40.518  30.825  40.307  0.00  0.00    +0.000 A 
ATOM     23  C   UNL     1      41.271  29.631  40.107  0.00  0.00    +0.000 A 
ATOM     24  S   UNL     1      41.478  29.056  41.863  0.00  0.00    +0.000 S 
ATOM     25  H   UNL     1      39.612  32.115  41.641  0.00  0.00    +0.000 HD
ATOM     26  H   UNL     1      40.342  31.239  39.353  0.00  0.00    +0.000 HD
BRANCH  23  29
ATOM     27 CL   UNL     1      41.399  31.159  37.455  0.00  0.00    +0.000 Cl
ATOM     28  C   UNL     1      41.905  29.520  37.795  0.00  0.00    +0.000 A 
ATOM     29  C   UNL     1      41.829  28.877  38.996  0.00  0.00    +0.000 A 
ATOM     30  C   UNL     1      42.213  27.611  39.286  0.00  0.00    +0.000 A 
ATOM     31  H   UNL     1      42.117  27.177  40.271  0.00  0.00    +0.000 HD
ATOM     32  C   UNL     1      42.750  26.857  38.255  0.00  0.00    +0.000 A 
ATOM     33  H   UNL     1      43.089  25.839  38.370  0.00  0.00    +0.000 HD
ATOM     34  C   UNL     1      42.867  27.431  36.993  0.00  0.00    +0.000 A 
ATOM     35  C   UNL     1      42.450  28.744  36.764  0.00  0.00    +0.000 A 
ENDBRANCH  23  29
ENDBRANCH   4  20
TORSDOF 4
