
 OpenBabel03272507243D

 30 32  0  0  1  0  0  0  0  0999 V2000
   36.2790   22.5420   31.9510 C   0  0  0  0  0  0  0  0  0  0  0  0
   36.9870   23.7530   32.1000 C   0  0  0  0  0  0  0  0  0  0  0  0
   37.8150   23.8990   33.2020 C   0  0  0  0  0  0  0  0  0  0  0  0
   37.8720   22.8580   34.0450 N   0  0  0  0  0  0  0  0  0  0  0  0
   37.2030   21.6970   33.9150 C   0  0  0  0  0  0  0  0  0  0  0  0
   36.3990   21.5480   32.8510 N   0  0  0  0  0  0  0  0  0  0  0  0
   38.5710   25.0540   33.4590 N   0  0  0  0  0  0  0  0  0  0  0  0
   39.0250   25.9640   32.4060 C   0  0  0  0  0  0  0  0  0  0  0  0
   39.7710   27.0590   33.1540 C   0  0  0  0  0  0  0  0  0  0  0  0
   40.3190   26.2090   34.3080 C   0  0  0  0  0  0  0  0  0  0  0  0
   39.0340   25.5780   34.6860 C   0  0  2  0  0  0  0  0  0  0  0  0
   35.6370   22.4410   31.0880 H   0  0  0  0  0  0  0  0  0  0  0  0
   36.9080   24.5670   31.3910 H   0  0  0  0  0  0  0  0  0  0  0  0
   37.3660   20.9560   34.6930 H   0  0  0  0  0  0  0  0  0  0  0  0
   38.2190   26.3360   31.7730 H   0  0  0  0  0  0  0  0  0  0  0  0
   39.8020   25.3980   31.8390 H   0  0  0  0  0  0  0  0  0  0  0  0
   40.5770   27.4530   32.5230 H   0  0  0  0  0  0  0  0  0  0  0  0
   39.0460   27.7810   33.5330 H   0  0  0  0  0  0  0  0  0  0  0  0
   41.0710   25.5920   33.8210 H   0  0  0  0  0  0  0  0  0  0  0  0
   40.7130   26.9380   35.0350 H   0  0  0  0  0  0  0  0  0  0  0  0
   38.3380   26.4650   34.8950 H   0  0  0  0  0  0  0  0  0  0  0  0
   41.2890   23.4720   34.9260 Cl  0  0  0  0  0  0  0  0  0  0  0  0
   39.9670   23.7910   36.0080 C   0  0  0  0  0  0  0  0  0  0  0  0
   38.9840   24.7730   35.8780 C   0  0  0  0  0  0  0  0  0  0  0  0
   38.0230   24.8830   36.8870 C   0  0  0  0  0  0  0  0  0  0  0  0
   37.2780   25.6750   36.7260 H   0  0  0  0  0  0  0  0  0  0  0  0
   38.0430   24.0540   37.9680 C   0  0  0  0  0  0  0  0  0  0  0  0
   37.2300   24.2490   38.6850 H   0  0  0  0  0  0  0  0  0  0  0  0
   38.9920   23.0950   38.1060 C   0  0  0  0  0  3  0  0  0  0  0  0
   39.9700   22.9530   37.1200 C   0  0  0  0  0  3  0  0  0  0  0  0
  1  2  2  0  0  0  0
  1  6  1  0  0  0  0
  2  3  1  0  0  0  0
  3  7  1  0  0  0  0
  3  4  2  0  0  0  0
  5  4  1  0  0  0  0
  5 14  1  0  0  0  0
  6  5  2  0  0  0  0
  7 11  1  0  0  0  0
  8  9  1  0  0  0  0
  8  7  1  0  0  0  0
  9 18  1  0  0  0  0
  9 10  1  0  0  0  0
 10 11  1  0  0  0  0
 10 20  1  0  0  0  0
 11 21  1  1  0  0  0
 11 24  1  0  0  0  0
 12  1  1  0  0  0  0
 13  2  1  0  0  0  0
 15  8  1  0  0  0  0
 16  8  1  0  0  0  0
 17  9  1  0  0  0  0
 19 10  1  0  0  0  0
 22 23  1  0  0  0  0
 23 30  1  0  0  0  0
 24 23  2  0  0  0  0
 24 25  1  0  0  0  0
 25 27  2  0  0  0  0
 26 25  1  0  0  0  0
 27 29  1  0  0  0  0
 27 28  1  0  0  0  0
 30 29  2  0  0  0  0
M  END
>  <minimizedAffinity>
-4.99766159

$$$$

 OpenBabel03272507243D

 30 32  0  0  1  0  0  0  0  0999 V2000
   37.1490   22.6120   32.0770 C   0  0  0  0  0  0  0  0  0  0  0  0
   37.6560   23.4660   33.0780 C   0  0  0  0  0  0  0  0  0  0  0  0
   37.3070   24.8070   33.0380 C   0  0  0  0  0  0  0  0  0  0  0  0
   36.5030   25.1820   32.0320 N   0  0  0  0  0  0  0  0  0  0  0  0
   36.0120   24.3780   31.0690 C   0  0  0  0  0  0  0  0  0  0  0  0
   36.3450   23.0790   31.1020 N   0  0  0  0  0  0  0  0  0  0  0  0
   37.7450   25.7530   33.9770 N   0  0  0  0  0  0  0  0  0  0  0  0
   38.1180   25.4060   35.3500 C   0  0  0  0  0  0  0  0  0  0  0  0
   38.5400   26.7300   35.9700 C   0  0  0  0  0  0  0  0  0  0  0  0
   37.5940   27.6540   35.1910 C   0  0  0  0  0  0  0  0  0  0  0  0
   37.9260   27.1480   33.8410 C   0  0  2  0  0  0  0  0  0  0  0  0
   37.4280   21.5690   32.1190 H   0  0  0  0  0  0  0  0  0  0  0  0
   38.3030   23.1160   33.8720 H   0  0  0  0  0  0  0  0  0  0  0  0
   35.3720   24.8490   30.3280 H   0  0  0  0  0  0  0  0  0  0  0  0
   38.8780   24.6290   35.4120 H   0  0  0  0  0  0  0  0  0  0  0  0
   37.1610   25.1250   35.8530 H   0  0  0  0  0  0  0  0  0  0  0  0
   38.3110   26.7250   37.0420 H   0  0  0  0  0  0  0  0  0  0  0  0
   39.5750   26.9330   35.6890 H   0  0  0  0  0  0  0  0  0  0  0  0
   36.6180   27.4100   35.6070 H   0  0  0  0  0  0  0  0  0  0  0  0
   37.9510   28.6730   35.4090 H   0  0  0  0  0  0  0  0  0  0  0  0
   39.0620   27.2790   33.7640 H   0  0  0  0  0  0  0  0  0  0  0  0
   39.7660   27.1450   31.3530 Cl  0  0  0  0  0  0  0  0  0  0  0  0
   38.2050   27.8810   31.5620 C   0  0  0  0  0  0  0  0  0  0  0  0
   37.3910   27.8340   32.6950 C   0  0  0  0  0  0  0  0  0  0  0  0
   36.1480   28.4710   32.6410 C   0  0  0  0  0  0  0  0  0  0  0  0
   35.5550   28.3970   33.5630 H   0  0  0  0  0  0  0  0  0  0  0  0
   35.7400   29.1200   31.5140 C   0  0  0  0  0  0  0  0  0  0  0  0
   34.7420   29.5760   31.6090 H   0  0  0  0  0  0  0  0  0  0  0  0
   36.5210   29.1730   30.4080 C   0  0  0  0  0  3  0  0  0  0  0  0
   37.7700   28.5500   30.4210 C   0  0  0  0  0  3  0  0  0  0  0  0
  1 12  1  0  0  0  0
  1  2  1  0  0  0  0
  2 13  1  0  0  0  0
  3  2  2  0  0  0  0
  3  7  1  0  0  0  0
  4  3  1  0  0  0  0
  5  6  1  0  0  0  0
  5  4  2  0  0  0  0
  6  1  2  0  0  0  0
  7  8  1  0  0  0  0
  8 15  1  0  0  0  0
  8 16  1  0  0  0  0
  8  9  1  0  0  0  0
  9 17  1  0  0  0  0
 10 20  1  0  0  0  0
 10 19  1  0  0  0  0
 10  9  1  0  0  0  0
 11 21  1  6  0  0  0
 11  7  1  0  0  0  0
 11 10  1  0  0  0  0
 14  5  1  0  0  0  0
 18  9  1  0  0  0  0
 22 23  1  0  0  0  0
 23 24  1  0  0  0  0
 24 11  1  0  0  0  0
 25 24  2  0  0  0  0
 25 26  1  0  0  0  0
 27 28  1  0  0  0  0
 27 25  1  0  0  0  0
 29 30  1  0  0  0  0
 29 27  2  0  0  0  0
 30 23  2  0  0  0  0
M  END
>  <minimizedAffinity>
-4.98528671

$$$$

 OpenBabel03272507243D

 30 32  0  0  1  0  0  0  0  0999 V2000
   39.5490   23.8780   35.3220 C   0  0  0  0  0  0  0  0  0  0  0  0
   38.8740   24.5190   34.2620 C   0  0  0  0  0  0  0  0  0  0  0  0
   37.8500   23.8360   33.6250 C   0  0  0  0  0  0  0  0  0  0  0  0
   37.5850   22.6030   34.0800 N   0  0  0  0  0  0  0  0  0  0  0  0
   38.2210   21.9780   35.0900 C   0  0  0  0  0  0  0  0  0  0  0  0
   39.2140   22.6330   35.7110 N   0  0  0  0  0  0  0  0  0  0  0  0
   37.1050   24.3680   32.5620 N   0  0  0  0  0  0  0  0  0  0  0  0
   36.9060   25.8050   32.3630 C   0  0  0  0  0  0  0  0  0  0  0  0
   36.0690   25.8960   31.0950 C   0  0  0  0  0  0  0  0  0  0  0  0
   35.2710   24.5960   31.2600 C   0  0  0  0  0  0  0  0  0  0  0  0
   36.4280   23.7090   31.5120 C   0  0  2  0  0  0  0  0  0  0  0  0
   40.3460   24.4200   35.8100 H   0  0  0  0  0  0  0  0  0  0  0  0
   39.1250   25.5180   33.9310 H   0  0  0  0  0  0  0  0  0  0  0  0
   37.8770   20.9750   35.3290 H   0  0  0  0  0  0  0  0  0  0  0  0
   37.8350   26.3720   32.3180 H   0  0  0  0  0  0  0  0  0  0  0  0
   36.2340   26.1290   33.1950 H   0  0  0  0  0  0  0  0  0  0  0  0
   35.4220   26.7790   31.1430 H   0  0  0  0  0  0  0  0  0  0  0  0
   36.7330   25.8190   30.2330 H   0  0  0  0  0  0  0  0  0  0  0  0
   34.6060   24.8220   32.0920 H   0  0  0  0  0  0  0  0  0  0  0  0
   34.7690   24.4470   30.2900 H   0  0  0  0  0  0  0  0  0  0  0  0
   37.1040   23.8650   30.5980 H   0  0  0  0  0  0  0  0  0  0  0  0
   38.6270   21.9960   30.1680 Cl  0  0  0  0  0  0  0  0  0  0  0  0
   37.1640   21.4820   30.9540 C   0  0  0  0  0  0  0  0  0  0  0  0
   36.2090   22.2880   31.5760 C   0  0  0  0  0  0  0  0  0  0  0  0
   35.1150   21.6660   32.1830 C   0  0  0  0  0  0  0  0  0  0  0  0
   34.4000   22.3540   32.6550 H   0  0  0  0  0  0  0  0  0  0  0  0
   34.9820   20.3100   32.1690 C   0  0  0  0  0  0  0  0  0  0  0  0
   34.0760   19.9530   32.6820 H   0  0  0  0  0  0  0  0  0  0  0  0
   35.9020   19.5160   31.5670 C   0  0  0  0  0  3  0  0  0  0  0  0
   37.0100   20.0990   30.9500 C   0  0  0  0  0  3  0  0  0  0  0  0
  1  6  1  0  0  0  0
  1 12  1  0  0  0  0
  2  1  2  0  0  0  0
  3  4  2  0  0  0  0
  3  2  1  0  0  0  0
  4  5  1  0  0  0  0
  5 14  1  0  0  0  0
  5  6  2  0  0  0  0
  7  3  1  0  0  0  0
  8  7  1  0  0  0  0
  8 16  1  0  0  0  0
  9 17  1  0  0  0  0
  9 10  1  0  0  0  0
  9  8  1  0  0  0  0
 10 11  1  0  0  0  0
 10 19  1  0  0  0  0
 11 21  1  6  0  0  0
 11 24  1  0  0  0  0
 11  7  1  0  0  0  0
 13  2  1  0  0  0  0
 15  8  1  0  0  0  0
 18  9  1  0  0  0  0
 20 10  1  0  0  0  0
 22 23  1  0  0  0  0
 23 24  1  0  0  0  0
 24 25  2  0  0  0  0
 25 26  1  0  0  0  0
 27 25  1  0  0  0  0
 27 28  1  0  0  0  0
 29 27  2  0  0  0  0
 30 23  2  0  0  0  0
 30 29  1  0  0  0  0
M  END
>  <minimizedAffinity>
-4.94426537

$$$$

 OpenBabel03272507243D

 30 32  0  0  1  0  0  0  0  0999 V2000
   35.8150   22.8650   31.7270 C   0  0  0  0  0  0  0  0  0  0  0  0
   35.7140   24.2300   31.3830 C   0  0  0  0  0  0  0  0  0  0  0  0
   36.6180   25.1180   31.9440 C   0  0  0  0  0  0  0  0  0  0  0  0
   37.5260   24.5950   32.7800 N   0  0  0  0  0  0  0  0  0  0  0  0
   37.6340   23.2950   33.1180 C   0  0  0  0  0  0  0  0  0  0  0  0
   36.7620   22.4290   32.5790 N   0  0  0  0  0  0  0  0  0  0  0  0
   36.6210   26.4970   31.6780 N   0  0  0  0  0  0  0  0  0  0  0  0
   36.1050   27.0730   30.4340 C   0  0  0  0  0  0  0  0  0  0  0  0
   36.2950   28.5720   30.6100 C   0  0  0  0  0  0  0  0  0  0  0  0
   37.5670   28.5390   31.4680 C   0  0  0  0  0  0  0  0  0  0  0  0
   37.0750   27.5710   32.4740 C   0  0  2  0  0  0  0  0  0  0  0  0
   35.1050   22.1830   31.2830 H   0  0  0  0  0  0  0  0  0  0  0  0
   34.9630   24.6060   30.7010 H   0  0  0  0  0  0  0  0  0  0  0  0
   38.4310   23.0420   33.8120 H   0  0  0  0  0  0  0  0  0  0  0  0
   35.0790   26.7830   30.2120 H   0  0  0  0  0  0  0  0  0  0  0  0
   36.8300   26.7650   29.6430 H   0  0  0  0  0  0  0  0  0  0  0  0
   36.4760   29.0380   29.6340 H   0  0  0  0  0  0  0  0  0  0  0  0
   35.4610   28.9640   31.1950 H   0  0  0  0  0  0  0  0  0  0  0  0
   38.3270   28.2060   30.7640 H   0  0  0  0  0  0  0  0  0  0  0  0
   37.6890   29.5710   31.8330 H   0  0  0  0  0  0  0  0  0  0  0  0
   36.1140   28.0500   32.8760 H   0  0  0  0  0  0  0  0  0  0  0  0
   40.0760   27.0920   31.8930 Cl  0  0  0  0  0  0  0  0  0  0  0  0
   39.2350   27.0640   33.4140 C   0  0  0  0  0  0  0  0  0  0  0  0
   37.8810   27.3150   33.6380 C   0  0  0  0  0  0  0  0  0  0  0  0
   37.4100   27.2730   34.9540 C   0  0  0  0  0  0  0  0  0  0  0  0
   36.3370   27.4800   35.0630 H   0  0  0  0  0  0  0  0  0  0  0  0
   38.2490   26.9950   35.9910 C   0  0  0  0  0  0  0  0  0  0  0  0
   37.7490   26.9940   36.9710 H   0  0  0  0  0  0  0  0  0  0  0  0
   39.5670   26.7480   35.7860 C   0  0  0  0  0  3  0  0  0  0  0  0
   40.0760   26.7800   34.4870 C   0  0  0  0  0  3  0  0  0  0  0  0
  1  6  1  0  0  0  0
  2  1  2  0  0  0  0
  2  3  1  0  0  0  0
  3  4  2  0  0  0  0
  4  5  1  0  0  0  0
  5 14  1  0  0  0  0
  6  5  2  0  0  0  0
  7  3  1  0  0  0  0
  7 11  1  0  0  0  0
  8  9  1  0  0  0  0
  8  7  1  0  0  0  0
  9 18  1  0  0  0  0
  9 10  1  0  0  0  0
 10 20  1  0  0  0  0
 10 11  1  0  0  0  0
 11 21  1  1  0  0  0
 11 24  1  0  0  0  0
 12  1  1  0  0  0  0
 13  2  1  0  0  0  0
 15  8  1  0  0  0  0
 16  8  1  0  0  0  0
 17  9  1  0  0  0  0
 19 10  1  0  0  0  0
 22 23  1  0  0  0  0
 23 24  2  0  0  0  0
 23 30  1  0  0  0  0
 24 25  1  0  0  0  0
 25 26  1  0  0  0  0
 25 27  2  0  0  0  0
 27 28  1  0  0  0  0
 29 27  1  0  0  0  0
 30 29  2  0  0  0  0
M  END
>  <minimizedAffinity>
-4.94019842

$$$$

 OpenBabel03272507243D

 30 32  0  0  1  0  0  0  0  0999 V2000
   36.6700   23.5860   31.3090 C   0  0  0  0  0  0  0  0  0  0  0  0
   36.6490   24.6320   32.2560 C   0  0  0  0  0  0  0  0  0  0  0  0
   37.7110   24.7410   33.1400 C   0  0  0  0  0  0  0  0  0  0  0  0
   38.6830   23.8250   33.0180 N   0  0  0  0  0  0  0  0  0  0  0  0
   38.7170   22.8220   32.1190 C   0  0  0  0  0  0  0  0  0  0  0  0
   37.6920   22.7100   31.2590 N   0  0  0  0  0  0  0  0  0  0  0  0
   37.8050   25.7380   34.1240 N   0  0  0  0  0  0  0  0  0  0  0  0
   37.1590   27.0460   34.0010 C   0  0  0  0  0  0  0  0  0  0  0  0
   37.5180   27.7630   35.2950 C   0  0  0  0  0  0  0  0  0  0  0  0
   38.8990   27.1340   35.5240 C   0  0  0  0  0  0  0  0  0  0  0  0
   38.4790   25.7240   35.3650 C   0  0  2  0  0  0  0  0  0  0  0  0
   35.8370   23.5120   30.6260 H   0  0  0  0  0  0  0  0  0  0  0  0
   35.8400   25.3480   32.3160 H   0  0  0  0  0  0  0  0  0  0  0  0
   39.5840   22.1680   32.1590 H   0  0  0  0  0  0  0  0  0  0  0  0
   36.0880   26.9880   33.8130 H   0  0  0  0  0  0  0  0  0  0  0  0
   37.7180   27.5770   33.1940 H   0  0  0  0  0  0  0  0  0  0  0  0
   37.5880   28.8410   35.1120 H   0  0  0  0  0  0  0  0  0  0  0  0
   36.8270   27.4410   36.0760 H   0  0  0  0  0  0  0  0  0  0  0  0
   39.5040   27.5820   34.7390 H   0  0  0  0  0  0  0  0  0  0  0  0
   39.1760   27.4260   36.5500 H   0  0  0  0  0  0  0  0  0  0  0  0
   37.6430   25.5920   36.1390 H   0  0  0  0  0  0  0  0  0  0  0  0
   37.3980   23.4550   37.1700 Cl  0  0  0  0  0  0  0  0  0  0  0  0
   38.9870   23.6560   36.4940 C   0  0  0  0  0  0  0  0  0  0  0  0
   39.4280   24.6830   35.6570 C   0  0  0  0  0  0  0  0  0  0  0  0
   40.7460   24.6370   35.1950 C   0  0  0  0  0  0  0  0  0  0  0  0
   41.0310   25.4720   34.5400 H   0  0  0  0  0  0  0  0  0  0  0  0
   41.5800   23.6190   35.5500 C   0  0  0  0  0  0  0  0  0  0  0  0
   42.5880   23.7070   35.1160 H   0  0  0  0  0  0  0  0  0  0  0  0
   41.1640   22.6170   36.3630 C   0  0  0  0  0  3  0  0  0  0  0  0
   39.8550   22.6260   36.8460 C   0  0  0  0  0  3  0  0  0  0  0  0
  1  2  1  0  0  0  0
  2 13  1  0  0  0  0
  2  3  2  0  0  0  0
  3  7  1  0  0  0  0
  4  3  1  0  0  0  0
  5 14  1  0  0  0  0
  5  4  2  0  0  0  0
  6  1  2  0  0  0  0
  6  5  1  0  0  0  0
  7 11  1  0  0  0  0
  8  7  1  0  0  0  0
  8  9  1  0  0  0  0
  9 10  1  0  0  0  0
  9 18  1  0  0  0  0
 10 20  1  0  0  0  0
 11 10  1  0  0  0  0
 11 24  1  0  0  0  0
 11 21  1  1  0  0  0
 12  1  1  0  0  0  0
 15  8  1  0  0  0  0
 16  8  1  0  0  0  0
 17  9  1  0  0  0  0
 19 10  1  0  0  0  0
 23 30  1  0  0  0  0
 23 22  1  0  0  0  0
 24 23  2  0  0  0  0
 25 27  2  0  0  0  0
 25 24  1  0  0  0  0
 26 25  1  0  0  0  0
 27 29  1  0  0  0  0
 28 27  1  0  0  0  0
 29 30  2  0  0  0  0
M  END
>  <minimizedAffinity>
-4.90420198

$$$$

 OpenBabel03272507243D

 30 32  0  0  1  0  0  0  0  0999 V2000
   36.6140   23.9860   30.8670 C   0  0  0  0  0  0  0  0  0  0  0  0
   36.5070   25.0040   31.8370 C   0  0  0  0  0  0  0  0  0  0  0  0
   37.4450   25.0410   32.8580 C   0  0  0  0  0  0  0  0  0  0  0  0
   38.3880   24.0870   32.8340 N   0  0  0  0  0  0  0  0  0  0  0  0
   38.5010   23.1090   31.9140 C   0  0  0  0  0  0  0  0  0  0  0  0
   37.5970   23.0680   30.9230 N   0  0  0  0  0  0  0  0  0  0  0  0
   37.4460   26.0040   33.8790 N   0  0  0  0  0  0  0  0  0  0  0  0
   36.8750   27.3430   33.7170 C   0  0  0  0  0  0  0  0  0  0  0  0
   37.0850   28.0050   35.0700 C   0  0  0  0  0  0  0  0  0  0  0  0
   38.3970   27.3110   35.4580 C   0  0  0  0  0  0  0  0  0  0  0  0
   37.9470   25.9250   35.1970 C   0  0  2  0  0  0  0  0  0  0  0  0
   35.8770   23.9680   30.0770 H   0  0  0  0  0  0  0  0  0  0  0  0
   35.7270   25.7530   31.8150 H   0  0  0  0  0  0  0  0  0  0  0  0
   39.3290   22.4180   32.0460 H   0  0  0  0  0  0  0  0  0  0  0  0
   35.8370   27.3370   33.3860 H   0  0  0  0  0  0  0  0  0  0  0  0
   37.5580   27.8710   33.0090 H   0  0  0  0  0  0  0  0  0  0  0  0
   37.2220   29.0840   34.9350 H   0  0  0  0  0  0  0  0  0  0  0  0
   36.2840   27.6920   35.7410 H   0  0  0  0  0  0  0  0  0  0  0  0
   39.1190   27.7540   34.7760 H   0  0  0  0  0  0  0  0  0  0  0  0
   38.5460   27.5610   36.5210 H   0  0  0  0  0  0  0  0  0  0  0  0
   37.0100   25.8080   35.8480 H   0  0  0  0  0  0  0  0  0  0  0  0
   40.9120   26.2660   34.3780 Cl  0  0  0  0  0  0  0  0  0  0  0  0
   40.1460   24.9380   35.1990 C   0  0  0  0  0  0  0  0  0  0  0  0
   38.8060   24.8360   35.5770 C   0  0  0  0  0  0  0  0  0  0  0  0
   38.4000   23.6880   36.2630 C   0  0  0  0  0  0  0  0  0  0  0  0
   37.3360   23.6680   36.5330 H   0  0  0  0  0  0  0  0  0  0  0  0
   39.2870   22.6950   36.5560 C   0  0  0  0  0  0  0  0  0  0  0  0
   38.8350   21.8500   37.0980 H   0  0  0  0  0  0  0  0  0  0  0  0
   40.5900   22.7820   36.1930 C   0  0  0  0  0  3  0  0  0  0  0  0
   41.0350   23.9120   35.5060 C   0  0  0  0  0  3  0  0  0  0  0  0
  1  6  2  0  0  0  0
  1  2  1  0  0  0  0
  2  3  2  0  0  0  0
  3  7  1  0  0  0  0
  4  3  1  0  0  0  0
  5 14  1  0  0  0  0
  5  4  2  0  0  0  0
  6  5  1  0  0  0  0
  7 11  1  0  0  0  0
  8  7  1  0  0  0  0
  8  9  1  0  0  0  0
  9 10  1  0  0  0  0
  9 18  1  0  0  0  0
 10 20  1  0  0  0  0
 11 10  1  0  0  0  0
 11 24  1  0  0  0  0
 11 21  1  1  0  0  0
 12  1  1  0  0  0  0
 13  2  1  0  0  0  0
 15  8  1  0  0  0  0
 16  8  1  0  0  0  0
 17  9  1  0  0  0  0
 19 10  1  0  0  0  0
 22 23  1  0  0  0  0
 23 30  2  0  0  0  0
 23 24  1  0  0  0  0
 24 25  2  0  0  0  0
 25 26  1  0  0  0  0
 25 27  1  0  0  0  0
 27 28  1  0  0  0  0
 29 27  2  0  0  0  0
 30 29  1  0  0  0  0
M  END
>  <minimizedAffinity>
-4.86648417

$$$$

 OpenBabel03272507243D

 30 32  0  0  1  0  0  0  0  0999 V2000
   37.1200   22.4830   31.1390 C   0  0  0  0  0  0  0  0  0  0  0  0
   37.6890   23.6410   30.5690 C   0  0  0  0  0  0  0  0  0  0  0  0
   38.2510   24.5840   31.4160 C   0  0  0  0  0  0  0  0  0  0  0  0
   38.2040   24.3080   32.7270 N   0  0  0  0  0  0  0  0  0  0  0  0
   37.6640   23.2070   33.2860 C   0  0  0  0  0  0  0  0  0  0  0  0
   37.1180   22.2900   32.4720 N   0  0  0  0  0  0  0  0  0  0  0  0
   38.8490   25.7730   30.9690 N   0  0  0  0  0  0  0  0  0  0  0  0
   39.4480   25.9180   29.6410 C   0  0  0  0  0  0  0  0  0  0  0  0
   39.9360   27.3590   29.6070 C   0  0  0  0  0  0  0  0  0  0  0  0
   40.2860   27.5120   31.0930 C   0  0  0  0  0  0  0  0  0  0  0  0
   39.0000   27.0120   31.6290 C   0  0  2  0  0  0  0  0  0  0  0  0
   36.6850   21.7570   30.4680 H   0  0  0  0  0  0  0  0  0  0  0  0
   37.7030   23.8200   29.5020 H   0  0  0  0  0  0  0  0  0  0  0  0
   37.7120   23.1430   34.3690 H   0  0  0  0  0  0  0  0  0  0  0  0
   38.7700   25.6640   28.8270 H   0  0  0  0  0  0  0  0  0  0  0  0
   40.3670   25.2850   29.6610 H   0  0  0  0  0  0  0  0  0  0  0  0
   40.8260   27.4310   28.9710 H   0  0  0  0  0  0  0  0  0  0  0  0
   39.0960   28.0060   29.3520 H   0  0  0  0  0  0  0  0  0  0  0  0
   41.1680   26.8850   31.2020 H   0  0  0  0  0  0  0  0  0  0  0  0
   40.4620   28.5910   31.2320 H   0  0  0  0  0  0  0  0  0  0  0  0
   38.2120   27.6890   31.1430 H   0  0  0  0  0  0  0  0  0  0  0  0
   36.0980   27.7620   32.3950 Cl  0  0  0  0  0  0  0  0  0  0  0  0
   37.4660   27.4760   33.4290 C   0  0  0  0  0  0  0  0  0  0  0  0
   38.7570   27.1100   33.0440 C   0  0  0  0  0  0  0  0  0  0  0  0
   39.7080   26.8950   34.0450 C   0  0  0  0  0  0  0  0  0  0  0  0
   40.7030   26.6080   33.6770 H   0  0  0  0  0  0  0  0  0  0  0  0
   39.3860   27.0380   35.3610 C   0  0  0  0  0  0  0  0  0  0  0  0
   40.2280   26.8380   36.0420 H   0  0  0  0  0  0  0  0  0  0  0  0
   38.1360   27.3940   35.7480 C   0  0  0  0  0  3  0  0  0  0  0  0
   37.1580   27.6180   34.7790 C   0  0  0  0  0  3  0  0  0  0  0  0
  1  6  1  0  0  0  0
  2  1  2  0  0  0  0
  2  3  1  0  0  0  0
  3  4  2  0  0  0  0
  4  5  1  0  0  0  0
  5 14  1  0  0  0  0
  6  5  2  0  0  0  0
  7  3  1  0  0  0  0
  7 11  1  0  0  0  0
  8 16  1  0  0  0  0
  8  7  1  0  0  0  0
  9  8  1  0  0  0  0
  9 10  1  0  0  0  0
 10 19  1  0  0  0  0
 10 20  1  0  0  0  0
 10 11  1  0  0  0  0
 11 21  1  6  0  0  0
 11 24  1  0  0  0  0
 12  1  1  0  0  0  0
 13  2  1  0  0  0  0
 15  8  1  0  0  0  0
 17  9  1  0  0  0  0
 18  9  1  0  0  0  0
 22 23  1  0  0  0  0
 23 30  1  0  0  0  0
 24 23  2  0  0  0  0
 24 25  1  0  0  0  0
 25 27  2  0  0  0  0
 26 25  1  0  0  0  0
 27 29  1  0  0  0  0
 27 28  1  0  0  0  0
 30 29  2  0  0  0  0
M  END
>  <minimizedAffinity>
-4.75798941

$$$$

 OpenBabel03272507243D

 30 32  0  0  1  0  0  0  0  0999 V2000
   35.7270   21.3840   32.6700 C   0  0  0  0  0  0  0  0  0  0  0  0
   36.8330   22.2200   32.4080 C   0  0  0  0  0  0  0  0  0  0  0  0
   37.7280   22.4670   33.4370 C   0  0  0  0  0  0  0  0  0  0  0  0
   37.4610   21.8800   34.6130 N   0  0  0  0  0  0  0  0  0  0  0  0
   36.4090   21.0800   34.8770 C   0  0  0  0  0  0  0  0  0  0  0  0
   35.5380   20.8360   33.8850 N   0  0  0  0  0  0  0  0  0  0  0  0
   38.8660   23.2790   33.3000 N   0  0  0  0  0  0  0  0  0  0  0  0
   39.5470   23.4920   32.0220 C   0  0  0  0  0  0  0  0  0  0  0  0
   40.6860   24.4430   32.3600 C   0  0  0  0  0  0  0  0  0  0  0  0
   40.9640   23.9610   33.7900 C   0  0  0  0  0  0  0  0  0  0  0  0
   39.5660   24.0270   34.2720 C   0  0  2  0  0  0  0  0  0  0  0  0
   35.0360   21.1990   31.8600 H   0  0  0  0  0  0  0  0  0  0  0  0
   37.0070   22.6720   31.4410 H   0  0  0  0  0  0  0  0  0  0  0  0
   36.3450   20.6860   35.8870 H   0  0  0  0  0  0  0  0  0  0  0  0
   38.8910   23.8560   31.2320 H   0  0  0  0  0  0  0  0  0  0  0  0
   40.0290   22.5150   31.7770 H   0  0  0  0  0  0  0  0  0  0  0  0
   41.5360   24.2500   31.6950 H   0  0  0  0  0  0  0  0  0  0  0  0
   40.2970   25.4620   32.3780 H   0  0  0  0  0  0  0  0  0  0  0  0
   41.4090   22.9800   33.6350 H   0  0  0  0  0  0  0  0  0  0  0  0
   41.6410   24.7180   34.2170 H   0  0  0  0  0  0  0  0  0  0  0  0
   39.2520   25.1120   34.0730 H   0  0  0  0  0  0  0  0  0  0  0  0
   37.3850   25.8590   35.4810 Cl  0  0  0  0  0  0  0  0  0  0  0  0
   38.3500   24.6400   36.2600 C   0  0  0  0  0  0  0  0  0  0  0  0
   39.3060   23.8120   35.6710 C   0  0  0  0  0  0  0  0  0  0  0  0
   39.9490   22.8680   36.4770 C   0  0  0  0  0  0  0  0  0  0  0  0
   40.6890   22.2470   35.9540 H   0  0  0  0  0  0  0  0  0  0  0  0
   39.6520   22.7590   37.8020 C   0  0  0  0  0  0  0  0  0  0  0  0
   40.2310   21.9770   38.3180 H   0  0  0  0  0  0  0  0  0  0  0  0
   38.7260   23.5580   38.3870 C   0  0  0  0  0  3  0  0  0  0  0  0
   38.0610   24.5130   37.6160 C   0  0  0  0  0  3  0  0  0  0  0  0
  1  6  1  0  0  0  0
  2  1  2  0  0  0  0
  2  3  1  0  0  0  0
  3  4  2  0  0  0  0
  4  5  1  0  0  0  0
  5 14  1  0  0  0  0
  6  5  2  0  0  0  0
  7  3  1  0  0  0  0
  7 11  1  0  0  0  0
  8  9  1  0  0  0  0
  8  7  1  0  0  0  0
  9 18  1  0  0  0  0
  9 10  1  0  0  0  0
 10 20  1  0  0  0  0
 10 11  1  0  0  0  0
 11 21  1  6  0  0  0
 11 24  1  0  0  0  0
 12  1  1  0  0  0  0
 13  2  1  0  0  0  0
 15  8  1  0  0  0  0
 16  8  1  0  0  0  0
 17  9  1  0  0  0  0
 19 10  1  0  0  0  0
 22 23  1  0  0  0  0
 23 30  1  0  0  0  0
 24 23  2  0  0  0  0
 24 25  1  0  0  0  0
 25 27  2  0  0  0  0
 26 25  1  0  0  0  0
 27 28  1  0  0  0  0
 27 29  1  0  0  0  0
 30 29  2  0  0  0  0
M  END
>  <minimizedAffinity>
-4.72702885

$$$$

 OpenBabel03272507243D

 30 32  0  0  1  0  0  0  0  0999 V2000
   36.8560   27.6100   30.3640 C   0  0  0  0  0  0  0  0  0  0  0  0
   38.2010   27.8240   30.7330 C   0  0  0  0  0  0  0  0  0  0  0  0
   38.6880   27.1690   31.8540 C   0  0  0  0  0  0  0  0  0  0  0  0
   37.8220   26.3750   32.5020 N   0  0  0  0  0  0  0  0  0  0  0  0
   36.5360   26.1630   32.1620 C   0  0  0  0  0  0  0  0  0  0  0  0
   36.0580   26.7930   31.0780 N   0  0  0  0  0  0  0  0  0  0  0  0
   40.0060   27.2980   32.3190 N   0  0  0  0  0  0  0  0  0  0  0  0
   41.1320   27.6390   31.4480 C   0  0  0  0  0  0  0  0  0  0  0  0
   42.3290   27.6860   32.3860 C   0  0  0  0  0  0  0  0  0  0  0  0
   41.8790   26.6070   33.3790 C   0  0  0  0  0  0  0  0  0  0  0  0
   40.5230   27.1500   33.6240 C   0  0  2  0  0  0  0  0  0  0  0  0
   36.4890   28.1270   29.4890 H   0  0  0  0  0  0  0  0  0  0  0  0
   38.8630   28.4750   30.1770 H   0  0  0  0  0  0  0  0  0  0  0  0
   35.9740   25.4860   32.8000 H   0  0  0  0  0  0  0  0  0  0  0  0
   40.9820   28.5570   30.8800 H   0  0  0  0  0  0  0  0  0  0  0  0
   41.2880   26.7430   30.8000 H   0  0  0  0  0  0  0  0  0  0  0  0
   43.2340   27.3860   31.8440 H   0  0  0  0  0  0  0  0  0  0  0  0
   42.3510   28.6600   32.8760 H   0  0  0  0  0  0  0  0  0  0  0  0
   41.9680   25.6900   32.8010 H   0  0  0  0  0  0  0  0  0  0  0  0
   42.5770   26.6940   34.2270 H   0  0  0  0  0  0  0  0  0  0  0  0
   40.7120   28.2250   33.9770 H   0  0  0  0  0  0  0  0  0  0  0  0
   40.4960   24.0550   33.6230 Cl  0  0  0  0  0  0  0  0  0  0  0  0
   39.6540   25.1590   34.6690 C   0  0  0  0  0  0  0  0  0  0  0  0
   39.7160   26.5530   34.6560 C   0  0  0  0  0  0  0  0  0  0  0  0
   38.9800   27.2560   35.6140 C   0  0  0  0  0  0  0  0  0  0  0  0
   39.0720   28.3490   35.5510 H   0  0  0  0  0  0  0  0  0  0  0  0
   38.2220   26.6000   36.5370 C   0  0  0  0  0  0  0  0  0  0  0  0
   37.6960   27.2730   37.2300 H   0  0  0  0  0  0  0  0  0  0  0  0
   38.1530   25.2460   36.5600 C   0  0  0  0  0  3  0  0  0  0  0  0
   38.8730   24.5070   35.6200 C   0  0  0  0  0  3  0  0  0  0  0  0
  1  2  2  0  0  0  0
  1  6  1  0  0  0  0
  2  3  1  0  0  0  0
  3  7  1  0  0  0  0
  3  4  2  0  0  0  0
  5  4  1  0  0  0  0
  5 14  1  0  0  0  0
  6  5  2  0  0  0  0
  7 11  1  0  0  0  0
  8  7  1  0  0  0  0
  8  9  1  0  0  0  0
  9 18  1  0  0  0  0
  9 10  1  0  0  0  0
 10 11  1  0  0  0  0
 10 20  1  0  0  0  0
 11 21  1  1  0  0  0
 11 24  1  0  0  0  0
 12  1  1  0  0  0  0
 13  2  1  0  0  0  0
 15  8  1  0  0  0  0
 16  8  1  0  0  0  0
 17  9  1  0  0  0  0
 19 10  1  0  0  0  0
 22 23  1  0  0  0  0
 23 30  1  0  0  0  0
 24 23  2  0  0  0  0
 24 25  1  0  0  0  0
 25 27  2  0  0  0  0
 26 25  1  0  0  0  0
 27 29  1  0  0  0  0
 27 28  1  0  0  0  0
 30 29  2  0  0  0  0
M  END
>  <minimizedAffinity>
-4.69979

$$$$
