
 OpenBabel03272507243D

 30 32  0  0  1  0  0  0  0  0999 V2000
   36.6830   29.7810   48.9590 C   0  0  0  0  0  0  0  0  0  0  0  0
   37.7290   30.4720   48.3120 C   0  0  0  0  0  0  0  0  0  0  0  0
   37.5270   30.9020   47.0100 C   0  0  0  0  0  0  0  0  0  0  0  0
   36.3340   30.6180   46.4680 N   0  0  0  0  0  0  0  0  0  0  0  0
   35.3260   29.9590   47.0720 C   0  0  0  0  0  0  0  0  0  0  0  0
   35.5140   29.5400   48.3340 N   0  0  0  0  0  0  0  0  0  0  0  0
   38.4890   31.6000   46.2630 N   0  0  0  0  0  0  0  0  0  0  0  0
   39.5320   32.4260   46.8750 C   0  0  0  0  0  0  0  0  0  0  0  0
   40.3340   32.9510   45.6930 C   0  0  0  0  0  0  0  0  0  0  0  0
   39.1940   33.0390   44.6700 C   0  0  0  0  0  0  0  0  0  0  0  0
   38.6760   31.6670   44.8650 C   0  0  2  0  0  0  0  0  0  0  0  0
   36.8520   29.4510   49.9730 H   0  0  0  0  0  0  0  0  0  0  0  0
   38.6770   30.6780   48.7920 H   0  0  0  0  0  0  0  0  0  0  0  0
   34.4230   29.8150   46.4850 H   0  0  0  0  0  0  0  0  0  0  0  0
   40.1320   31.8960   47.6130 H   0  0  0  0  0  0  0  0  0  0  0  0
   38.9980   33.3110   47.2980 H   0  0  0  0  0  0  0  0  0  0  0  0
   40.7400   33.9410   45.9340 H   0  0  0  0  0  0  0  0  0  0  0  0
   41.0500   32.1870   45.3900 H   0  0  0  0  0  0  0  0  0  0  0  0
   38.5980   33.8710   45.0390 H   0  0  0  0  0  0  0  0  0  0  0  0
   39.6940   33.2170   43.7040 H   0  0  0  0  0  0  0  0  0  0  0  0
   39.5850   30.9940   44.6690 H   0  0  0  0  0  0  0  0  0  0  0  0
   39.0950   28.7680   43.8660 Cl  0  0  0  0  0  0  0  0  0  0  0  0
   37.8230   29.8880   43.4810 C   0  0  0  0  0  0  0  0  0  0  0  0
   37.6530   31.1810   43.9770 C   0  0  0  0  0  0  0  0  0  0  0  0
   36.5330   31.9070   43.5610 C   0  0  0  0  0  0  0  0  0  0  0  0
   36.4570   32.9160   43.9880 H   0  0  0  0  0  0  0  0  0  0  0  0
   35.6300   31.3670   42.6940 C   0  0  0  0  0  0  0  0  0  0  0  0
   34.7980   32.0460   42.4510 H   0  0  0  0  0  0  0  0  0  0  0  0
   35.7840   30.1130   42.2040 C   0  0  0  0  0  0  0  0  0  0  0  0
   36.8890   29.3560   42.5950 C   0  0  0  0  0  0  0  0  0  0  0  0
  1 12  1  0  0  0  0
  2 13  1  0  0  0  0
  2  1  2  0  0  0  0
  3  2  1  0  0  0  0
  4  3  2  0  0  0  0
  4  5  1  0  0  0  0
  5  6  2  0  0  0  0
  6  1  1  0  0  0  0
  7  8  1  0  0  0  0
  7  3  1  0  0  0  0
  8 16  1  0  0  0  0
  8 15  1  0  0  0  0
  9 17  1  0  0  0  0
  9  8  1  0  0  0  0
 10 11  1  0  0  0  0
 10 19  1  0  0  0  0
 10  9  1  0  0  0  0
 11 21  1  6  0  0  0
 11  7  1  0  0  0  0
 14  5  1  0  0  0  0
 18  9  1  0  0  0  0
 20 10  1  0  0  0  0
 23 22  1  0  0  0  0
 23 24  1  0  0  0  0
 24 11  1  0  0  0  0
 25 24  2  0  0  0  0
 25 26  1  0  0  0  0
 27 25  1  0  0  0  0
 28 27  1  0  0  0  0
 29 30  1  0  0  0  0
 29 27  2  0  0  0  0
 30 23  2  0  0  0  0
M  END
>  <minimizedAffinity>
-4.72312927

>  <minimizedRMSD>
2.68762946

$$$$
