
 OpenBabel03272509133D

 40 43  0  0  1  0  0  0  0  0999 V2000
   37.1750   31.7740   48.2050 N   0  0  0  0  0  0  0  0  0  0  0  0
   38.2840   32.7080   48.5340 C   0  0  0  0  0  0  0  0  0  0  0  0
   38.8890   32.0260   49.7560 C   0  0  0  0  0  0  0  0  0  0  0  0
   37.6950   31.4370   50.4650 C   0  0  0  0  0  0  0  0  0  0  0  0
   36.5370   31.6200   49.5020 C   0  0  2  0  0  0  0  0  0  0  0  0
   37.8510   33.6940   48.7770 H   0  0  0  0  0  0  0  0  0  0  0  0
   39.0140   32.7420   47.7090 H   0  0  0  0  0  0  0  0  0  0  0  0
   39.5770   31.2430   49.4040 H   0  0  0  0  0  0  0  0  0  0  0  0
   39.3810   32.7800   50.4020 H   0  0  0  0  0  0  0  0  0  0  0  0
   37.8480   30.3430   50.5820 H   0  0  0  0  0  0  0  0  0  0  0  0
   37.5050   31.9480   51.4340 H   0  0  0  0  0  0  0  0  0  0  0  0
   36.0520   32.5830   49.7250 H   0  0  0  0  0  0  0  0  0  0  0  0
   37.9450   29.0520   49.8270 Cl  0  0  0  0  0  0  0  0  0  0  0  0
   36.1870   29.2180   49.7350 C   0  0  0  0  0  0  0  0  0  0  0  0
   35.5960   30.4810   49.5890 C   0  0  0  0  0  0  0  0  0  0  0  0
   34.2210   30.4850   49.5280 C   0  0  0  0  0  0  0  0  0  0  0  0
   33.7750   31.4510   49.4080 H   0  0  0  0  0  0  0  0  0  0  0  0
   33.5100   29.3050   49.6100 C   0  0  0  0  0  0  0  0  0  0  0  0
   32.4360   29.4370   49.5500 H   0  0  0  0  0  0  0  0  0  0  0  0
   34.1110   28.0710   49.7540 C   0  0  0  0  0  3  0  0  0  0  0  0
   35.4900   28.0420   49.8160 C   0  0  0  0  0  3  0  0  0  0  0  0
   35.3950   30.5340   47.1890 C   0  0  0  0  0  0  0  0  0  0  0  0
   36.6990   31.1010   47.0490 C   0  0  0  0  0  0  0  0  0  0  0  0
   37.3560   30.9100   45.8330 C   0  0  0  0  0  0  0  0  0  0  0  0
   36.7390   30.2020   44.8460 N   0  0  0  0  0  0  0  0  0  0  0  0
   35.5030   29.6840   45.0280 C   0  0  0  0  0  0  0  0  0  0  0  0
   34.8420   29.8460   46.1770 N   0  0  0  0  0  0  0  0  0  0  0  0
   34.8150   30.6400   48.0930 H   0  0  0  0  0  0  0  0  0  0  0  0
   35.0880   29.1350   44.1930 H   0  0  0  0  0  0  0  0  0  0  0  0
   38.6630   31.4520   45.5860 C   0  0  0  0  0  0  0  0  0  0  0  0
   38.7790   32.7090   45.0400 C   0  0  0  0  0  0  0  0  0  0  0  0
   39.9960   33.3090   44.7730 C   0  0  0  0  0  0  0  0  0  0  0  0
   41.1320   32.5790   45.0810 C   0  0  0  0  0  0  0  0  0  0  0  0
   41.0940   31.3050   45.6320 C   0  0  0  0  0  0  0  0  0  0  0  0
   39.8200   30.7720   45.8720 C   0  0  0  0  0  0  0  0  0  0  0  0
   37.8910   33.2560   44.8110 H   0  0  0  0  0  0  0  0  0  0  0  0
   40.0470   34.3030   44.3420 H   0  0  0  0  0  0  0  0  0  0  0  0
   42.0770   33.0590   44.8660 H   0  0  0  0  0  0  0  0  0  0  0  0
   42.0050   30.7820   45.8520 H   0  0  0  0  0  0  0  0  0  0  0  0
   39.7440   29.7670   46.3080 H   0  0  0  0  0  0  0  0  0  0  0  0
  1  2  1  0  0  0  0
  1  5  1  0  0  0  0
  2  6  1  0  0  0  0
  2  3  1  0  0  0  0
  3  9  1  0  0  0  0
  3  4  1  0  0  0  0
  4 10  1  0  0  0  0
  4 11  1  0  0  0  0
  5 15  1  0  0  0  0
  5 12  1  1  0  0  0
  5  4  1  0  0  0  0
  7  2  1  0  0  0  0
  8  3  1  0  0  0  0
 14 21  1  0  0  0  0
 14 13  1  0  0  0  0
 15 14  2  0  0  0  0
 16 15  1  0  0  0  0
 16 18  2  0  0  0  0
 17 16  1  0  0  0  0
 18 20  1  0  0  0  0
 19 18  1  0  0  0  0
 20 21  2  0  0  0  0
 22 28  1  0  0  0  0
 23 22  1  0  0  0  0
 23  1  1  0  0  0  0
 24 23  2  0  0  0  0
 25 26  2  0  0  0  0
 25 24  1  0  0  0  0
 26 27  1  0  0  0  0
 27 22  2  0  0  0  0
 29 26  1  0  0  0  0
 30 24  1  0  0  0  0
 30 35  1  0  0  0  0
 31 30  2  0  0  0  0
 32 31  1  0  0  0  0
 32 33  2  0  0  0  0
 33 34  1  0  0  0  0
 34 39  1  0  0  0  0
 34 35  2  0  0  0  0
 35 40  1  0  0  0  0
 36 31  1  0  0  0  0
 37 32  1  0  0  0  0
 38 33  1  0  0  0  0
M  END
>  <minimizedAffinity>
-5.40797329

>  <minimizedRMSD>
1.25335765

$$$$
