
 OpenBabel03272507473D

 46 50  0  0  1  0  0  0  0  0999 V2000
   31.7150   28.2070   47.2480 N   0  0  0  0  0  0  0  0  0  0  0  0
   31.9200   27.8330   48.6040 C   0  0  0  0  0  0  0  0  0  0  0  0
   33.1830   28.2830   49.2320 C   0  0  0  0  0  0  0  0  0  0  0  0
   34.3850   28.2510   48.4010 C   0  0  1  0  0  0  0  0  0  0  0  0
   34.0870   28.5870   46.9300 C   0  0  0  0  0  0  0  0  0  0  0  0
   32.8760   27.7460   46.5050 C   0  0  0  0  0  0  0  0  0  0  0  0
   31.8600   26.7110   48.7000 H   0  0  0  0  0  0  0  0  0  0  0  0
   31.0690   28.2220   49.1970 H   0  0  0  0  0  0  0  0  0  0  0  0
   33.3490   27.7750   50.1940 H   0  0  0  0  0  0  0  0  0  0  0  0
   32.9670   29.3850   49.4350 H   0  0  0  0  0  0  0  0  0  0  0  0
   34.8200   27.2220   48.3420 H   0  0  0  0  0  0  0  0  0  0  0  0
   33.7880   29.6500   46.8110 H   0  0  0  0  0  0  0  0  0  0  0  0
   34.9270   28.2670   46.3070 H   0  0  0  0  0  0  0  0  0  0  0  0
   32.7460   27.9110   45.4160 H   0  0  0  0  0  0  0  0  0  0  0  0
   33.0720   26.6660   46.6510 H   0  0  0  0  0  0  0  0  0  0  0  0
   35.8660   29.1670   50.1210 C   0  0  0  0  0  0  0  0  0  0  0  0
   35.4470   29.2060   48.8050 C   0  0  0  0  0  0  0  0  0  0  0  0
   35.9350   30.0870   47.8760 C   0  0  0  0  0  0  0  0  0  0  0  0
   36.9050   30.9910   48.2870 C   0  0  0  0  0  0  0  0  0  0  0  0
   37.3270   30.9580   49.5960 C   0  0  0  0  0  0  0  0  0  0  0  0
   36.8340   30.0650   50.5430 C   0  0  0  0  0  0  0  0  0  0  0  0
   38.3050   31.9420   49.8180 O   0  0  0  0  0  0  0  0  0  0  0  0
   38.7090   32.3450   48.5140 C   0  0  0  0  0  0  0  0  0  0  0  0
   37.6350   32.0150   47.6700 O   0  0  0  0  0  0  0  0  0  0  0  0
   35.5690   28.5200   50.9330 H   0  0  0  0  0  0  0  0  0  0  0  0
   35.5900   30.0910   46.8670 H   0  0  0  0  0  0  0  0  0  0  0  0
   37.2160   30.0940   51.5690 H   0  0  0  0  0  0  0  0  0  0  0  0
   38.8450   33.4480   48.5110 H   0  0  0  0  0  0  0  0  0  0  0  0
   39.6540   31.8250   48.2350 H   0  0  0  0  0  0  0  0  0  0  0  0
   30.6110   28.8970   46.6670 C   0  0  0  0  0  0  0  0  0  0  0  0
   30.5790   29.5200   45.4260 C   0  0  0  0  0  0  0  0  0  0  0  0
   29.4070   30.1360   45.0370 C   0  0  0  0  0  0  0  0  0  0  0  0
   28.3450   30.1030   45.8840 N   0  0  0  0  0  0  0  0  0  0  0  0
   28.3910   29.4970   47.0790 C   0  0  0  0  0  0  0  0  0  0  0  0
   29.5240   28.8990   47.4600 N   0  0  0  0  0  0  0  0  0  0  0  0
   31.5070   29.4520   44.8820 H   0  0  0  0  0  0  0  0  0  0  0  0
   29.4190   30.6070   44.0730 H   0  0  0  0  0  0  0  0  0  0  0  0
   27.0840   26.8900   48.0250 Cl  0  0  0  0  0  0  0  0  0  0  0  0
   26.4570   28.4830   48.3330 C   0  0  0  0  0  0  0  0  0  0  0  0
   27.1510   29.5680   47.8460 C   0  0  0  0  0  0  0  0  0  0  0  0
   26.5840   30.7910   48.1310 C   0  0  0  0  0  0  0  0  0  0  0  0
   27.0270   31.7240   47.8070 H   0  0  0  0  0  0  0  0  0  0  0  0
   25.4000   30.9000   48.8570 C   0  0  0  0  0  0  0  0  0  0  0  0
   24.9860   31.8820   49.0600 H   0  0  0  0  0  0  0  0  0  0  0  0
   24.7430   29.7820   49.3220 C   0  0  0  0  0  0  0  0  0  0  0  0
   25.2860   28.5440   49.0540 C   0  0  0  0  0  0  0  0  0  0  0  0
  1  2  1  0  0  0  0
  2  7  1  0  0  0  0
  2  8  1  0  0  0  0
  2  3  1  0  0  0  0
  3 10  1  0  0  0  0
  3  9  1  0  0  0  0
  4 11  1  1  0  0  0
  4 17  1  0  0  0  0
  4  3  1  0  0  0  0
  5  4  1  0  0  0  0
  6 15  1  0  0  0  0
  6  5  1  0  0  0  0
  6  1  1  0  0  0  0
 12  5  1  0  0  0  0
 13  5  1  0  0  0  0
 14  6  1  0  0  0  0
 16 21  1  0  0  0  0
 16 25  1  0  0  0  0
 17 16  2  0  0  0  0
 18 19  2  0  0  0  0
 18 17  1  0  0  0  0
 19 20  1  0  0  0  0
 20 22  1  0  0  0  0
 20 21  2  0  0  0  0
 21 27  1  0  0  0  0
 23 22  1  0  0  0  0
 24 19  1  0  0  0  0
 24 23  1  0  0  0  0
 26 18  1  0  0  0  0
 28 23  1  0  0  0  0
 29 23  1  0  0  0  0
 30  1  1  0  0  0  0
 30 35  1  0  0  0  0
 31 30  2  0  0  0  0
 32 31  1  0  0  0  0
 32 33  2  0  0  0  0
 33 34  1  0  0  0  0
 34 35  2  0  0  0  0
 34 40  1  0  0  0  0
 36 31  1  0  0  0  0
 37 32  1  0  0  0  0
 38 39  1  0  0  0  0
 39 46  1  0  0  0  0
 40 41  1  0  0  0  0
 40 39  2  0  0  0  0
 41 43  2  0  0  0  0
 42 41  1  0  0  0  0
 43 44  1  0  0  0  0
 43 45  1  0  0  0  0
 46 45  2  0  0  0  0
M  END
>  <minimizedAffinity>
-8.32882881

>  <minimizedRMSD>
1.90328085

$$$$
