
     RDKit          3D

 42 45  0  0  0  0  0  0  0  0999 V2000
   34.9325   30.1433   47.5939 C   0  0  0  0  0  0  0  0  0  0  0  0
   36.2238   30.7240   47.4052 C   0  0  0  0  0  0  0  0  0  0  0  0
   36.7727   30.6663   46.1228 C   0  0  0  0  0  0  0  0  0  0  0  0
   36.0692   30.0676   45.1220 N   0  0  0  0  0  0  0  0  0  0  0  0
   34.8505   29.5308   45.3519 C   0  0  0  0  0  0  0  0  0  0  0  0
   34.2897   29.5670   46.5646 N   0  0  0  0  0  0  0  0  0  0  0  0
   38.0593   31.2339   45.8255 C   0  0  0  0  0  0  0  0  0  0  0  0
   38.1262   32.4563   45.1973 C   0  0  0  0  0  0  0  0  0  0  0  0
   39.3185   33.0768   44.8758 C   0  0  0  0  0  0  0  0  0  0  0  0
   40.4831   32.4071   45.2170 C   0  0  0  0  0  0  0  0  0  0  0  0
   40.4936   31.1723   45.8511 C   0  0  0  0  0  0  0  0  0  0  0  0
   39.2414   30.6142   46.1409 C   0  0  0  0  0  0  0  0  0  0  0  0
   36.8020   31.2688   48.5805 N   0  0  0  0  0  0  0  0  0  0  0  0
   37.5687   32.4886   48.9462 C   0  0  0  0  0  0  0  0  0  0  0  0
   38.7431   31.8815   49.7055 C   0  0  0  0  0  0  0  0  0  0  0  0
   38.1316   30.7047   50.4273 C   0  0  0  0  0  0  0  0  0  0  0  0
   36.7291   30.5846   49.8624 C   0  0  2  0  0  0  0  0  0  0  0  0
   34.4324   30.1495   48.5496 H   0  0  0  0  0  0  0  0  0  0  0  0
   34.3605   29.0739   44.5019 H   0  0  0  0  0  0  0  0  0  0  0  0
   37.2176   32.9561   44.9426 H   0  0  0  0  0  0  0  0  0  0  0  0
   39.3322   34.0417   44.3803 H   0  0  0  0  0  0  0  0  0  0  0  0
   41.4078   32.9028   44.9602 H   0  0  0  0  0  0  0  0  0  0  0  0
   41.4239   30.6955   46.0937 H   0  0  0  0  0  0  0  0  0  0  0  0
   39.2041   29.6379   46.6426 H   0  0  0  0  0  0  0  0  0  0  0  0
   36.9357   33.1221   49.5910 H   0  0  0  0  0  0  0  0  0  0  0  0
   37.9216   33.0049   48.0381 H   0  0  0  0  0  0  0  0  0  0  0  0
   39.4946   31.5578   48.9713 H   0  0  0  0  0  0  0  0  0  0  0  0
   39.1356   32.6144   50.4375 H   0  0  0  0  0  0  0  0  0  0  0  0
   38.6773   29.7819   50.1376 H   0  0  0  0  0  0  0  0  0  0  0  0
   38.1174   30.8675   51.5270 H   0  0  0  0  0  0  0  0  0  0  0  0
   36.0506   31.1791   50.4929 H   0  0  0  0  0  0  0  0  0  0  0  0
   34.9777   29.8054   52.0997 Cl  0  0  0  0  0  0  0  0  0  0  0  0
   35.4895   28.7097   50.8084 C   0  0  0  0  0  0  0  0  0  0  0  0
   36.3184   29.1645   49.7740 C   0  0  0  0  0  0  0  0  0  0  0  0
   36.6510   28.2240   48.8272 C   0  0  0  0  0  0  0  0  0  0  0  0
   37.2902   28.5740   48.0434 H   0  0  0  0  0  0  0  0  0  0  0  0
   36.1791   26.9311   48.9255 C   0  0  0  0  0  0  0  0  0  0  0  0
   36.5080   26.2830   48.1223 H   0  0  0  0  0  0  0  0  0  0  0  0
   35.3632   26.5025   49.9524 C   0  0  0  0  0  0  0  0  0  0  0  0
   35.0165   27.4288   50.9144 C   0  0  0  0  0  0  0  0  0  0  0  0
   35.0586   25.4655   49.9199 H   0  0  0  0  0  0  0  0  0  0  0  0
   34.3834   27.1021   51.7143 H   0  0  0  0  0  0  0  0  0  0  0  0
  2  1  2  0
  2 13  1  0
  3  2  1  0
  4  5  1  0
  4  3  2  0
  5  6  2  0
  6  1  1  0
  7  3  1  0
  7 12  1  0
  8  7  2  0
  9  8  1  0
  9 10  2  0
 10 11  1  0
 11 12  2  0
 13 14  1  0
 13 17  1  0
 14 15  1  0
 15 16  1  0
 17 16  1  0
  1 18  1  0
  5 19  1  0
  8 20  1  0
  9 21  1  0
 10 22  1  0
 11 23  1  0
 12 24  1  0
 14 25  1  0
 14 26  1  0
 15 27  1  0
 15 28  1  0
 16 29  1  0
 16 30  1  0
 17 31  1  1
 32 33  1  0
 33 34  2  0
 34 35  1  0
 35 36  1  0
 35 37  2  0
 37 38  1  0
 37 39  1  0
 39 40  2  0
 40 33  1  0
 39 41  1  0
 40 42  1  0
 17 34  1  0
M  ISO  8  18  14  19  14  20  14  21  14  22  14  23  14  24  14  25  13
M  ISO  8  26  13  27  13  28  13  29  13  30  13  31  13  36  15  38  16
M  END
>  <DihAtoms>  (1) 
12,16,33,32

>  <DihDeg>  (1) 
-142.810636847246

$$$$
